
 OpenBabel10282417072D

 65 67  0  0  0  0  0  0  0  0999 V2000
   -0.5910    0.0103    0.0000 C   0  0  0  0  0  0  0  0  0  0  0  0
   -1.2966    0.4136    0.0000 C   0  0  0  0  0  0  0  0  0  0  0  0
    0.1146    0.4518    0.0000 C   0  0  0  0  0  0  0  0  0  0  0  0
   -0.5910   -1.2478    0.0000 C   0  0  0  0  0  0  0  0  0  0  0  0
   -1.2966    1.2478    0.0000 C   0  0  0  0  0  0  0  0  0  0  0  0
   -2.0403    0.0103    0.0000 C   0  0  0  0  0  0  0  0  0  0  0  0
    0.1146    1.2269    0.0000 C   0  0  0  0  0  0  0  0  0  0  0  0
    0.8202    0.0382    0.0000 C   0  0  0  0  0  0  0  0  0  0  0  0
    0.1146   -1.6510    0.0000 C   0  0  0  0  0  0  0  0  0  0  0  0
   -1.2966   -1.6754    0.0000 C   0  0  0  0  0  0  0  0  0  0  0  0
   -0.5910    1.6545    0.0000 O   0  0  0  0  0  0  0  0  0  0  0  0
   -2.0403    1.6545    0.0000 C   0  0  0  0  0  0  0  0  0  0  0  0
   -2.7391    0.4518    0.0000 C   0  0  0  0  0  0  0  0  0  0  0  0
    0.8202    1.6232    0.0000 C   0  0  0  0  0  0  0  0  0  0  0  0
    1.5259    0.4518    0.0000 C   0  0  0  0  0  0  0  0  0  0  0  0
    0.1146   -2.4958    0.0000 C   0  0  0  0  0  0  0  0  0  0  0  0
    0.8446   -1.2478    0.0000 C   0  0  0  0  0  0  0  0  0  0  0  0
   -1.2966   -2.4958    0.0000 C   0  0  0  0  0  0  0  0  0  0  0  0
   -2.7391    1.2269    0.0000 C   0  0  0  0  0  0  0  0  0  0  0  0
    1.5259    1.2269    0.0000 C   0  0  0  0  0  0  0  0  0  0  0  0
   -0.5910   -2.8955    0.0000 C   0  0  0  0  0  0  0  0  0  0  0  0
    1.5503   -1.6719    0.0000 O   0  0  0  0  0  0  0  0  0  0  0  0
    0.8654   -0.4379    0.0000 O   0  0  0  0  0  0  0  0  0  0  0  0
   -3.4759    1.6232    0.0000 N   0  0  0  0  0  0  0  0  0  0  0  0
    2.2559    1.5746    0.0000 N   0  3  0  0  0  0  0  0  0  0  0  0
   -3.4934    2.4575    0.0000 C   0  0  0  0  0  0  0  0  0  0  0  0
   -4.1816    1.1888    0.0000 C   0  0  0  0  0  0  0  0  0  0  0  0
    2.3150    2.4053    0.0000 C   0  0  0  0  0  0  0  0  0  0  0  0
    2.9441    1.1087    0.0000 C   0  0  0  0  0  0  0  0  0  0  0  0
   -2.7842    2.8955    0.0000 C   0  0  0  0  0  0  0  0  0  0  0  0
   -4.9150    1.5850    0.0000 C   0  0  0  0  0  0  0  0  0  0  0  0
    3.0623    2.7703    0.0000 C   0  0  0  0  0  0  0  0  0  0  0  0
    3.6915    1.4737    0.0000 C   0  0  0  0  0  0  0  0  0  0  0  0
    4.9150    1.5988    0.0000 Cl  0  5  0  0  0  0  0  0  0  0  0  0
   -2.0746   -1.0211    0.0000 H   0  0  0  0  0  0  0  0  0  0  0  0
    0.8202   -0.9938    0.0000 H   0  0  0  0  0  0  0  0  0  0  0  0
   -2.1958   -1.1689    0.0000 H   0  0  0  0  0  0  0  0  0  0  0  0
   -2.0654    2.6862    0.0000 H   0  0  0  0  0  0  0  0  0  0  0  0
   -3.6429   -0.0463    0.0000 H   0  0  0  0  0  0  0  0  0  0  0  0
    0.8202    2.6552    0.0000 H   0  0  0  0  0  0  0  0  0  0  0  0
    2.4213   -0.0613    0.0000 H   0  0  0  0  0  0  0  0  0  0  0  0
    1.0062   -3.0155    0.0000 H   0  0  0  0  0  0  0  0  0  0  0  0
   -2.1882   -3.0155    0.0000 H   0  0  0  0  0  0  0  0  0  0  0  0
   -0.5910   -3.9275    0.0000 H   0  0  0  0  0  0  0  0  0  0  0  0
    1.5339   -2.6088    0.0000 H   0  0  0  0  0  0  0  0  0  0  0  0
   -4.4333    2.9689    0.0000 H   0  0  0  0  0  0  0  0  0  0  0  0
   -3.5228    3.5271    0.0000 H   0  0  0  0  0  0  0  0  0  0  0  0
   -4.1514    0.1192    0.0000 H   0  0  0  0  0  0  0  0  0  0  0  0
   -5.0928    0.6278    0.0000 H   0  0  0  0  0  0  0  0  0  0  0  0
    1.4281    3.0039    0.0000 H   0  0  0  0  0  0  0  0  0  0  0  0
    2.3895    3.4727    0.0000 H   0  0  0  0  0  0  0  0  0  0  0  0
    2.8688    0.0414    0.0000 H   0  0  0  0  0  0  0  0  0  0  0  0
    3.8311    0.5103    0.0000 H   0  0  0  0  0  0  0  0  0  0  0  0
   -1.8421    2.3882    0.0000 H   0  0  0  0  0  0  0  0  0  0  0  0
   -2.8159    3.9650    0.0000 H   0  0  0  0  0  0  0  0  0  0  0  0
   -1.8738    3.4577    0.0000 H   0  0  0  0  0  0  0  0  0  0  0  0
   -4.9453    2.6546    0.0000 H   0  0  0  0  0  0  0  0  0  0  0  0
   -5.8261    1.0240    0.0000 H   0  0  0  0  0  0  0  0  0  0  0  0
   -5.8564    2.0936    0.0000 H   0  0  0  0  0  0  0  0  0  0  0  0
    3.9497    2.1725    0.0000 H   0  0  0  0  0  0  0  0  0  0  0  0
    3.1363    3.8377    0.0000 H   0  0  0  0  0  0  0  0  0  0  0  0
    4.0237    3.2399    0.0000 H   0  0  0  0  0  0  0  0  0  0  0  0
    4.5789    0.8758    0.0000 H   0  0  0  0  0  0  0  0  0  0  0  0
    3.7656    2.5411    0.0000 H   0  0  0  0  0  0  0  0  0  0  0  0
    4.6530    1.9432    0.0000 H   0  0  0  0  0  0  0  0  0  0  0  0
  1  2  1  0  0  0  0
  1  3  2  0  0  0  0
  1  4  1  0  0  0  0
  2  5  2  0  0  0  0
  2  6  1  0  0  0  0
  3  7  1  0  0  0  0
  3  8  1  0  0  0  0
  4  9  1  0  0  0  0
  4 10  2  0  0  0  0
  5 11  1  0  0  0  0
  5 12  1  0  0  0  0
  6 13  2  0  0  0  0
  6 35  1  0  0  0  0
  7 14  2  0  0  0  0
  7 11  1  0  0  0  0
  8 15  2  0  0  0  0
  8 36  1  0  0  0  0
  9 16  2  0  0  0  0
  9 17  1  0  0  0  0
 10 18  1  0  0  0  0
 10 37  1  0  0  0  0
 12 19  2  0  0  0  0
 12 38  1  0  0  0  0
 13 19  1  0  0  0  0
 13 39  1  0  0  0  0
 14 20  1  0  0  0  0
 14 40  1  0  0  0  0
 15 20  1  0  0  0  0
 15 41  1  0  0  0  0
 16 21  1  0  0  0  0
 16 42  1  0  0  0  0
 17 22  1  0  0  0  0
 17 23  2  0  0  0  0
 18 21  2  0  0  0  0
 18 43  1  0  0  0  0
 19 24  1  0  0  0  0
 20 25  2  0  0  0  0
 21 44  1  0  0  0  0
 22 45  1  0  0  0  0
 24 26  1  0  0  0  0
 24 27  1  0  0  0  0
 25 28  1  0  0  0  0
 25 29  1  0  0  0  0
 26 30  1  0  0  0  0
 26 46  1  0  0  0  0
 26 47  1  0  0  0  0
 27 31  1  0  0  0  0
 27 48  1  0  0  0  0
 27 49  1  0  0  0  0
 28 32  1  0  0  0  0
 28 50  1  0  0  0  0
 28 51  1  0  0  0  0
 29 33  1  0  0  0  0
 29 52  1  0  0  0  0
 29 53  1  0  0  0  0
 30 54  1  0  0  0  0
 30 55  1  0  0  0  0
 30 56  1  0  0  0  0
 31 57  1  0  0  0  0
 31 58  1  0  0  0  0
 31 59  1  0  0  0  0
 32 60  1  0  0  0  0
 32 61  1  0  0  0  0
 32 62  1  0  0  0  0
 33 63  1  0  0  0  0
 33 64  1  0  0  0  0
 33 65  1  0  0  0  0
M  CHG  2  25   1  34  -1
M  END
>  <DRUGBANK_ID>
DB16853

>  <COMMON_NAME>
Rhodamine B

>  <CAS_NUMBER>
81-88-9

>  <UNII>
K7G5SCF8IL

$$$$
