
 OpenBabel10282417072D

 60 63  0  0  0  0  0  0  0  0999 V2000
    0.7145   -6.1875    0.0000 C   0  0  0  0  0  0  0  0  0  0  0  0
    1.4289   -6.6000    0.0000 C   0  0  0  0  0  0  0  0  0  0  0  0
    2.1434   -6.1875    0.0000 C   0  0  0  0  0  0  0  0  0  0  0  0
    1.4289   -7.4250    0.0000 C   0  0  0  0  0  0  0  0  0  0  0  0
    2.0964   -7.9099    0.0000 N   0  0  0  0  0  0  0  0  0  0  0  0
    1.8414   -8.6945    0.0000 C   0  0  0  0  0  0  0  0  0  0  0  0
    1.0164   -8.6945    0.0000 O   0  0  0  0  0  0  0  0  0  0  0  0
    0.7615   -7.9099    0.0000 N   0  0  0  0  0  0  0  0  0  0  0  0
    2.3264   -9.3620    0.0000 N   0  0  0  0  0  0  0  0  0  0  0  0
    3.1468   -9.2757    0.0000 C   0  0  0  0  0  0  0  0  0  0  0  0
    3.6318   -9.9432    0.0000 C   0  0  0  0  0  0  0  0  0  0  0  0
    3.2962  -10.6969    0.0000 C   0  0  0  0  0  0  0  0  0  0  0  0
    2.4757  -10.7831    0.0000 C   0  0  0  0  0  0  0  0  0  0  0  0
    1.9908  -10.1157    0.0000 C   0  0  0  0  0  0  0  0  0  0  0  0
    3.7811  -11.3643    0.0000 C   0  0  0  0  0  0  0  0  0  0  0  0
    4.6016  -11.2781    0.0000 O   0  0  0  0  0  0  0  0  0  0  0  0
    5.0865  -11.9455    0.0000 C   0  0  0  0  0  0  0  0  0  0  0  0
    5.9070  -11.8593    0.0000 C   0  0  0  0  0  0  0  0  0  0  0  0
    6.3919  -12.5267    0.0000 C   0  0  0  0  0  0  0  0  0  0  0  0
    6.0564  -13.2804    0.0000 C   0  0  0  0  0  0  0  0  0  0  0  0
    5.2359  -13.3666    0.0000 N   0  0  0  0  0  0  0  0  0  0  0  0
    4.7510  -12.6992    0.0000 C   0  0  0  0  0  0  0  0  0  0  0  0
    6.5413  -13.9478    0.0000 C   0  0  0  0  0  0  0  0  0  0  0  0
    7.3618  -13.8616    0.0000 C   0  0  0  0  0  0  0  0  0  0  0  0
    7.8467  -14.5290    0.0000 C   0  0  0  0  0  0  0  0  0  0  0  0
    7.5112  -15.2827    0.0000 C   0  0  0  0  0  0  0  0  0  0  0  0
    6.6907  -15.3689    0.0000 C   0  0  0  0  0  0  0  0  0  0  0  0
    6.2057  -14.7015    0.0000 C   0  0  0  0  0  0  0  0  0  0  0  0
    7.9961  -15.9501    0.0000 S   0  0  0  0  0  0  0  0  0  0  0  0
    8.4810  -16.6176    0.0000 O   0  0  0  0  0  0  0  0  0  0  0  0
    7.3286  -16.4351    0.0000 O   0  0  0  0  0  0  0  0  0  0  0  0
    8.6635  -15.4652    0.0000 C   0  0  0  0  0  0  0  0  0  0  0  0
    0.7145   -5.1175    0.0000 H   0  0  0  0  0  0  0  0  0  0  0  0
   -0.2122   -6.7225    0.0000 H   0  0  0  0  0  0  0  0  0  0  0  0
   -0.2121   -5.6525    0.0000 H   0  0  0  0  0  0  0  0  0  0  0  0
    2.3555   -7.1350    0.0000 H   0  0  0  0  0  0  0  0  0  0  0  0
    3.0700   -6.7225    0.0000 H   0  0  0  0  0  0  0  0  0  0  0  0
    2.1434   -5.1175    0.0000 H   0  0  0  0  0  0  0  0  0  0  0  0
    3.0701   -5.6525    0.0000 H   0  0  0  0  0  0  0  0  0  0  0  0
    3.5819   -8.2982    0.0000 H   0  0  0  0  0  0  0  0  0  0  0  0
    4.2109   -9.1638    0.0000 H   0  0  0  0  0  0  0  0  0  0  0  0
    4.6959   -9.8314    0.0000 H   0  0  0  0  0  0  0  0  0  0  0  0
    4.2607  -10.8089    0.0000 H   0  0  0  0  0  0  0  0  0  0  0  0
    2.8610  -11.6744    0.0000 H   0  0  0  0  0  0  0  0  0  0  0  0
    2.0405  -11.7606    0.0000 H   0  0  0  0  0  0  0  0  0  0  0  0
    1.4116  -10.8949    0.0000 H   0  0  0  0  0  0  0  0  0  0  0  0
    0.9267  -10.2275    0.0000 H   0  0  0  0  0  0  0  0  0  0  0  0
    1.3619   -9.2500    0.0000 H   0  0  0  0  0  0  0  0  0  0  0  0
    3.3459  -12.3418    0.0000 H   0  0  0  0  0  0  0  0  0  0  0  0
    4.4100  -12.2300    0.0000 H   0  0  0  0  0  0  0  0  0  0  0  0
    6.3268  -10.9165    0.0000 H   0  0  0  0  0  0  0  0  0  0  0  0
    7.4182  -12.4188    0.0000 H   0  0  0  0  0  0  0  0  0  0  0  0
    3.7247  -12.8071    0.0000 H   0  0  0  0  0  0  0  0  0  0  0  0
    7.7816  -12.9188    0.0000 H   0  0  0  0  0  0  0  0  0  0  0  0
    8.8730  -14.4211    0.0000 H   0  0  0  0  0  0  0  0  0  0  0  0
    6.2710  -16.3117    0.0000 H   0  0  0  0  0  0  0  0  0  0  0  0
    5.1794  -14.8094    0.0000 H   0  0  0  0  0  0  0  0  0  0  0  0
    9.6410  -15.9004    0.0000 H   0  0  0  0  0  0  0  0  0  0  0  0
    8.5516  -14.4011    0.0000 H   0  0  0  0  0  0  0  0  0  0  0  0
    9.5291  -14.8363    0.0000 H   0  0  0  0  0  0  0  0  0  0  0  0
  1  2  1  0  0  0  0
  1 33  1  0  0  0  0
  1 34  1  0  0  0  0
  1 35  1  0  0  0  0
  2  3  1  0  0  0  0
  2  4  1  0  0  0  0
  2 36  1  0  0  0  0
  3 37  1  0  0  0  0
  3 38  1  0  0  0  0
  3 39  1  0  0  0  0
  4  5  1  0  0  0  0
  4  8  2  0  0  0  0
  5  6  2  0  0  0  0
  6  7  1  0  0  0  0
  6  9  1  0  0  0  0
  7  8  1  0  0  0  0
  9 10  1  0  0  0  0
  9 14  1  0  0  0  0
 10 11  1  0  0  0  0
 10 40  1  0  0  0  0
 10 41  1  0  0  0  0
 11 12  1  0  0  0  0
 11 42  1  0  0  0  0
 11 43  1  0  0  0  0
 12 13  1  0  0  0  0
 12 15  1  0  0  0  0
 12 44  1  0  0  0  0
 13 14  1  0  0  0  0
 13 45  1  0  0  0  0
 13 46  1  0  0  0  0
 14 47  1  0  0  0  0
 14 48  1  0  0  0  0
 15 16  1  0  0  0  0
 15 49  1  0  0  0  0
 15 50  1  0  0  0  0
 16 17  1  0  0  0  0
 17 18  2  0  0  0  0
 17 22  1  0  0  0  0
 18 19  1  0  0  0  0
 18 51  1  0  0  0  0
 19 20  2  0  0  0  0
 19 52  1  0  0  0  0
 20 21  1  0  0  0  0
 20 23  1  0  0  0  0
 21 22  2  0  0  0  0
 22 53  1  0  0  0  0
 23 24  2  0  0  0  0
 23 28  1  0  0  0  0
 24 25  1  0  0  0  0
 24 54  1  0  0  0  0
 25 26  2  0  0  0  0
 25 55  1  0  0  0  0
 26 27  1  0  0  0  0
 26 29  1  0  0  0  0
 27 28  2  0  0  0  0
 27 56  1  0  0  0  0
 28 57  1  0  0  0  0
 29 30  2  0  0  0  0
 29 31  2  0  0  0  0
 29 32  1  0  0  0  0
 32 58  1  0  0  0  0
 32 59  1  0  0  0  0
 32 60  1  0  0  0  0
M  END
>  <DRUGBANK_ID>
DB12627

>  <COMMON_NAME>
GSK-1292263

>  <CAS_NUMBER>
1032823-75-8

>  <UNII>
R1J57STA6O

$$$$
