
 OpenBabel10282417072D

 65 69  0  0  1  0  0  0  0  0999 V2000
   -8.2478   -2.6005    0.0000 C   0  0  0  0  0  0  0  0  0  0  0  0
   -7.6958   -3.2136    0.0000 C   0  0  0  0  0  0  0  0  0  0  0  0
   -7.9929   -1.8159    0.0000 C   0  0  0  0  0  0  0  0  0  0  0  0
    3.3523    1.1104    0.0000 C   0  0  0  0  0  0  0  0  0  0  0  0
    3.3523    1.9354    0.0000 C   0  0  0  0  0  0  0  0  0  0  0  0
   -6.8888   -3.0421    0.0000 C   0  0  0  0  0  0  0  0  0  0  0  0
   -7.1859   -1.6444    0.0000 C   0  0  0  0  0  0  0  0  0  0  0  0
    2.6378    0.6979    0.0000 C   0  0  0  0  0  0  0  0  0  0  0  0
    2.6378    2.3479    0.0000 C   0  0  0  0  0  0  0  0  0  0  0  0
   -2.8540   -2.1845    0.0000 C   0  0  0  0  0  0  0  0  0  0  0  0
   -3.1511   -0.7868    0.0000 C   0  0  0  0  0  0  0  0  0  0  0  0
   -2.0470   -2.0129    0.0000 C   0  0  0  0  0  0  0  0  0  0  0  0
   -2.3441   -0.6152    0.0000 C   0  0  0  0  0  0  0  0  0  0  0  0
   -5.2749   -2.6991    0.0000 C   0  0  0  0  0  0  0  0  0  0  0  0
   -5.5720   -1.3013    0.0000 C   0  0  0  0  0  0  0  0  0  0  0  0
   -4.4679   -2.5275    0.0000 C   0  0  0  0  0  0  0  0  0  0  0  0
   -4.7650   -1.1298    0.0000 C   0  0  0  0  0  0  0  0  0  0  0  0
    0.8838    0.0709    0.0000 C   0  0  0  0  0  0  0  0  0  0  0  0
    0.6538    1.5229    0.0000 C   0  0  0  0  0  0  0  0  0  0  0  0
   -6.6339   -2.2575    0.0000 C   0  0  0  0  0  0  0  0  0  0  0  0
   -5.8269   -2.0860    0.0000 C   0  0  3  0  0  0  0  0  0  0  0  0
    1.1387    0.8555    0.0000 C   0  0  0  0  0  0  0  0  0  0  0  0
   -3.4060   -1.5714    0.0000 C   0  0  0  0  0  0  0  0  0  0  0  0
   -1.7921   -1.2283    0.0000 C   0  0  0  0  0  0  0  0  0  0  0  0
    1.9233    1.1104    0.0000 C   0  0  0  0  0  0  0  0  0  0  0  0
    1.9233    1.9354    0.0000 C   0  0  0  0  0  0  0  0  0  0  0  0
    0.0768   -0.1006    0.0000 C   0  0  1  0  0  0  0  0  0  0  0  0
   -0.4752    0.5124    0.0000 C   0  0  0  0  0  0  0  0  0  0  0  0
    1.1387    2.1904    0.0000 N   0  0  0  0  0  0  0  0  0  0  0  0
   -0.1781   -0.8853    0.0000 N   0  0  0  0  0  0  0  0  0  0  0  0
   -4.2130   -1.7429    0.0000 N   0  0  0  0  0  0  0  0  0  0  0  0
   -1.2822    0.3409    0.0000 O   0  0  0  0  0  0  0  0  0  0  0  0
   -0.2203    1.2971    0.0000 O   0  0  0  0  0  0  0  0  0  0  0  0
   -0.8136   -1.8638    0.0000 O   0  0  0  0  0  0  0  0  0  0  0  0
   -1.1566   -0.2498    0.0000 O   0  0  0  0  0  0  0  0  0  0  0  0
   -0.9851   -1.0568    0.0000 S   0  0  0  0  0  0  0  0  0  0  0  0
    0.3317    0.6840    0.0000 H   0  0  0  0  0  0  0  0  0  0  0  0
   -9.2572   -2.8151    0.0000 H   0  0  0  0  0  0  0  0  0  0  0  0
   -8.0147   -4.1951    0.0000 H   0  0  0  0  0  0  0  0  0  0  0  0
   -8.6834   -1.0490    0.0000 H   0  0  0  0  0  0  0  0  0  0  0  0
    4.2460    0.5944    0.0000 H   0  0  0  0  0  0  0  0  0  0  0  0
    4.2460    2.4514    0.0000 H   0  0  0  0  0  0  0  0  0  0  0  0
   -6.1983   -3.8090    0.0000 H   0  0  0  0  0  0  0  0  0  0  0  0
   -6.8670   -0.6629    0.0000 H   0  0  0  0  0  0  0  0  0  0  0  0
    2.6378   -0.3341    0.0000 H   0  0  0  0  0  0  0  0  0  0  0  0
    2.6378    3.3799    0.0000 H   0  0  0  0  0  0  0  0  0  0  0  0
   -3.1729   -3.1660    0.0000 H   0  0  0  0  0  0  0  0  0  0  0  0
   -3.8417   -0.0199    0.0000 H   0  0  0  0  0  0  0  0  0  0  0  0
   -1.3564   -2.7798    0.0000 H   0  0  0  0  0  0  0  0  0  0  0  0
   -2.0252    0.3663    0.0000 H   0  0  0  0  0  0  0  0  0  0  0  0
   -5.6055   -3.7167    0.0000 H   0  0  0  0  0  0  0  0  0  0  0  0
   -6.3215   -2.9216    0.0000 H   0  0  0  0  0  0  0  0  0  0  0  0
   -6.2880   -0.5061    0.0000 H   0  0  0  0  0  0  0  0  0  0  0  0
   -6.6186   -1.5238    0.0000 H   0  0  0  0  0  0  0  0  0  0  0  0
   -3.7519   -3.3226    0.0000 H   0  0  0  0  0  0  0  0  0  0  0  0
   -3.4213   -2.3050    0.0000 H   0  0  0  0  0  0  0  0  0  0  0  0
   -4.4343   -0.1122    0.0000 H   0  0  0  0  0  0  0  0  0  0  0  0
   -3.7184   -0.9074    0.0000 H   0  0  0  0  0  0  0  0  0  0  0  0
    1.5998   -0.7243    0.0000 H   0  0  0  0  0  0  0  0  0  0  0  0
    0.5531   -0.9467    0.0000 H   0  0  0  0  0  0  0  0  0  0  0  0
   -0.3782    1.5229    0.0000 H   0  0  0  0  0  0  0  0  0  0  0  0
   -4.7803   -1.8635    0.0000 H   0  0  0  0  0  0  0  0  0  0  0  0
    0.8345    3.1267    0.0000 H   0  0  0  0  0  0  0  0  0  0  0  0
    0.5044   -1.6433    0.0000 H   0  0  0  0  0  0  0  0  0  0  0  0
    0.6962    1.4920    0.0000 H   0  0  0  0  0  0  0  0  0  0  0  0
  1 38  1  0  0  0  0
  2  1  2  0  0  0  0
  2 39  1  0  0  0  0
  3  1  1  0  0  0  0
  3 40  1  0  0  0  0
  4 41  1  0  0  0  0
  5  4  2  0  0  0  0
  5 42  1  0  0  0  0
  6  2  1  0  0  0  0
  6 43  1  0  0  0  0
  7  3  2  0  0  0  0
  7 44  1  0  0  0  0
  8  4  1  0  0  0  0
  8 45  1  0  0  0  0
  9  5  1  0  0  0  0
  9 46  1  0  0  0  0
 10 47  1  0  0  0  0
 11 48  1  0  0  0  0
 12 10  1  0  0  0  0
 12 49  1  0  0  0  0
 13 11  2  0  0  0  0
 13 50  1  0  0  0  0
 14 51  1  0  0  0  0
 14 52  1  0  0  0  0
 15 53  1  0  0  0  0
 15 54  1  0  0  0  0
 16 14  1  0  0  0  0
 16 55  1  0  0  0  0
 16 56  1  0  0  0  0
 17 15  1  0  0  0  0
 17 57  1  0  0  0  0
 17 58  1  0  0  0  0
 18 59  1  0  0  0  0
 18 60  1  0  0  0  0
 19 61  1  0  0  0  0
 20  6  2  0  0  0  0
 20  7  1  0  0  0  0
 21 14  1  0  0  0  0
 21 15  1  0  0  0  0
 21 20  1  0  0  0  0
 21 62  1  0  0  0  0
 22 18  1  0  0  0  0
 22 19  2  0  0  0  0
 23 10  2  0  0  0  0
 23 11  1  0  0  0  0
 24 12  2  0  0  0  0
 24 13  1  0  0  0  0
 25  8  2  0  0  0  0
 25 22  1  0  0  0  0
 26  9  2  0  0  0  0
 26 25  1  0  0  0  0
 27 18  1  0  0  0  0
 27 30  1  0  0  0  0
 27 37  1  1  0  0  0
 28 27  1  0  0  0  0
 29 19  1  0  0  0  0
 29 26  1  0  0  0  0
 29 63  1  0  0  0  0
 30 64  1  0  0  0  0
 31 16  1  0  0  0  0
 31 17  1  0  0  0  0
 31 23  1  0  0  0  0
 32 28  2  0  0  0  0
 33 28  1  0  0  0  0
 33 65  1  0  0  0  0
 36 24  1  0  0  0  0
 36 30  1  0  0  0  0
 36 34  2  0  0  0  0
 36 35  2  0  0  0  0
M  END
>  <DRUGBANK_ID>
DB02449

>  <SECONDARY_ACCESSION_NUMBERS>
EXPT01260

>  <COMMON_NAME>
3-(1h-Indol-3-Yl)-2-[4-(4-Phenyl-Piperidin-1-Yl)-Benzenesulfonylamino]-Propionic Acid

$$$$
