
 OpenBabel10282417072D

 22 24  0  0  0  0  0  0  0  0999 V2000
    4.3164   -0.1105    0.0000 C   0  0  0  0  0  0  0  0  0  0  0  0
    1.0164   -0.1105    0.0000 C   0  0  0  0  0  0  0  0  0  0  0  0
    3.4914   -0.1105    0.0000 C   0  0  0  0  0  0  0  0  0  0  0  0
    1.8414   -0.1105    0.0000 C   0  0  0  0  0  0  0  0  0  0  0  0
    4.7289   -0.8250    0.0000 C   0  0  0  0  0  0  0  0  0  0  0  0
    0.6039   -0.8250    0.0000 C   0  0  0  0  0  0  0  0  0  0  0  0
    3.0789   -0.8250    0.0000 C   0  0  0  0  0  0  0  0  0  0  0  0
    2.2539   -0.8250    0.0000 C   0  0  0  0  0  0  0  0  0  0  0  0
    3.4914   -1.5395    0.0000 C   0  0  0  0  0  0  0  0  0  0  0  0
    1.8414   -1.5395    0.0000 C   0  0  0  0  0  0  0  0  0  0  0  0
    3.0789   -2.2539    0.0000 C   0  0  0  0  0  0  0  0  0  0  0  0
    2.2539   -2.2539    0.0000 C   0  0  0  0  0  0  0  0  0  0  0  0
    4.3164   -1.5395    0.0000 N   0  0  0  0  0  0  0  0  0  0  0  0
    1.0164   -1.5395    0.0000 N   0  0  0  0  0  0  0  0  0  0  0  0
    3.4914   -2.9684    0.0000 O   0  0  0  0  0  0  0  0  0  0  0  0
    1.8414   -2.9684    0.0000 O   0  0  0  0  0  0  0  0  0  0  0  0
    4.8324    0.7832    0.0000 H   0  0  0  0  0  0  0  0  0  0  0  0
    0.5004    0.7832    0.0000 H   0  0  0  0  0  0  0  0  0  0  0  0
    2.9754    0.7832    0.0000 H   0  0  0  0  0  0  0  0  0  0  0  0
    2.3574    0.7832    0.0000 H   0  0  0  0  0  0  0  0  0  0  0  0
    5.7609   -0.8250    0.0000 H   0  0  0  0  0  0  0  0  0  0  0  0
   -0.4281   -0.8250    0.0000 H   0  0  0  0  0  0  0  0  0  0  0  0
  1 17  1  0  0  0  0
  2 18  1  0  0  0  0
  3  1  2  0  0  0  0
  3 19  1  0  0  0  0
  4  2  2  0  0  0  0
  4 20  1  0  0  0  0
  5  1  1  0  0  0  0
  5 21  1  0  0  0  0
  6  2  1  0  0  0  0
  6 22  1  0  0  0  0
  7  3  1  0  0  0  0
  8  4  1  0  0  0  0
  8  7  1  0  0  0  0
  9  7  2  0  0  0  0
 10  8  2  0  0  0  0
 11  9  1  0  0  0  0
 12 10  1  0  0  0  0
 12 11  1  0  0  0  0
 13  5  2  0  0  0  0
 13  9  1  0  0  0  0
 14  6  2  0  0  0  0
 14 10  1  0  0  0  0
 15 11  2  0  0  0  0
 16 12  2  0  0  0  0
M  END
>  <DRUGBANK_ID>
DB13469

>  <COMMON_NAME>
Phanquinone

>  <CAS_NUMBER>
84-12-8

>  <UNII>
ID94IS6N8J

>  <SYNONYMS>
fanquinona; Phanquinone; Phanquone

$$$$
