
 OpenBabel10282417072D

 63 67  0  0  0  0  0  0  0  0999 V2000
    3.0003   -1.9701    0.0000 Cl  0  0  0  0  0  0  0  0  0  0  0  0
    3.3438   -1.2200    0.0000 C   0  0  0  0  0  0  0  0  0  0  0  0
    2.8738   -0.5422    0.0000 C   0  0  0  0  0  0  0  0  0  0  0  0
    2.0514   -0.6235    0.0000 C   0  0  2  0  0  0  0  0  0  0  0  0
    2.1237   -1.4369    0.0000 H   0  0  0  0  0  0  0  0  0  0  0  0
    1.2561   -0.8314    0.0000 N   0  0  0  0  0  0  0  0  0  0  0  0
    1.1838   -1.6538    0.0000 C   0  0  0  0  0  0  0  0  0  0  0  0
    0.4428   -1.9972    0.0000 C   0  0  0  0  0  0  0  0  0  0  0  0
    0.3614   -2.8196    0.0000 C   0  0  0  0  0  0  0  0  0  0  0  0
   -0.3886   -3.1721    0.0000 F   0  0  0  0  0  0  0  0  0  0  0  0
    1.0302   -3.2986    0.0000 C   0  0  0  0  0  0  0  0  0  0  0  0
    1.7803   -2.9461    0.0000 N   0  0  0  0  0  0  0  0  0  0  0  0
    1.8616   -2.1328    0.0000 C   0  0  0  0  0  0  0  0  0  0  0  0
    0.5783   -0.3615    0.0000 C   0  0  0  0  0  0  0  0  0  0  0  0
   -0.1626   -0.7049    0.0000 C   0  0  1  0  0  0  0  0  0  0  0  0
   -0.2621    0.1084    0.0000 H   0  0  0  0  0  0  0  0  0  0  0  0
   -0.9850   -0.8043    0.0000 N   0  0  0  0  0  0  0  0  0  0  0  0
   -1.5454   -0.2078    0.0000 C   0  0  0  0  0  0  0  0  0  0  0  0
   -1.3013    0.5874    0.0000 N   0  0  0  0  0  0  0  0  0  0  0  0
   -1.8616    1.1929    0.0000 C   0  0  0  0  0  0  0  0  0  0  0  0
   -2.6660    1.0121    0.0000 C   0  0  0  0  0  0  0  0  0  0  0  0
   -2.9100    0.2168    0.0000 C   0  0  0  0  0  0  0  0  0  0  0  0
   -3.7234    0.0361    0.0000 C   0  0  0  0  0  0  0  0  0  0  0  0
   -4.5186   -0.1536    0.0000 N   0  0  0  0  0  0  0  0  0  0  0  0
   -2.3497   -0.3886    0.0000 C   0  0  0  0  0  0  0  0  0  0  0  0
   -1.1387   -1.6086    0.0000 C   0  0  0  0  0  0  0  0  0  0  0  0
   -0.4247   -2.0153    0.0000 C   0  0  0  0  0  0  0  0  0  0  0  0
    0.1807   -1.4549    0.0000 C   0  0  0  0  0  0  0  0  0  0  0  0
   -1.8887   -1.9610    0.0000 O   0  0  0  0  0  0  0  0  0  0  0  0
    0.6506    0.4609    0.0000 O   0  0  0  0  0  0  0  0  0  0  0  0
    1.9791    0.1987    0.0000 C   0  0  0  0  0  0  0  0  0  0  0  0
    2.6569    0.6777    0.0000 N   0  0  0  0  0  0  0  0  0  0  0  0
    2.5846    1.4911    0.0000 C   0  0  0  0  0  0  0  0  0  0  0  0
    1.9520    2.0243    0.0000 C   0  0  0  0  0  0  0  0  0  0  0  0
    2.4761    2.6569    0.0000 C   0  0  0  0  0  0  0  0  0  0  0  0
    1.8435    3.1901    0.0000 F   0  0  0  0  0  0  0  0  0  0  0  0
    3.0094    3.2986    0.0000 F   0  0  0  0  0  0  0  0  0  0  0  0
    3.1088    2.1328    0.0000 C   0  0  0  0  0  0  0  0  0  0  0  0
    1.2380    0.5422    0.0000 O   0  0  0  0  0  0  0  0  0  0  0  0
    3.2263    0.2078    0.0000 C   0  0  0  0  0  0  0  0  0  0  0  0
    4.0487    0.2801    0.0000 C   0  0  0  0  0  0  0  0  0  0  0  0
    4.5186   -0.3976    0.0000 C   0  0  0  0  0  0  0  0  0  0  0  0
    4.1752   -1.1477    0.0000 C   0  0  0  0  0  0  0  0  0  0  0  0
   -0.3985   -1.3995    0.0000 H   0  0  0  0  0  0  0  0  0  0  0  0
    0.9363   -4.3263    0.0000 H   0  0  0  0  0  0  0  0  0  0  0  0
    2.8005   -1.7045    0.0000 H   0  0  0  0  0  0  0  0  0  0  0  0
   -1.5551    2.1783    0.0000 H   0  0  0  0  0  0  0  0  0  0  0  0
   -3.3673    1.7692    0.0000 H   0  0  0  0  0  0  0  0  0  0  0  0
   -2.6561   -1.3741    0.0000 H   0  0  0  0  0  0  0  0  0  0  0  0
   -0.3024   -3.0783    0.0000 H   0  0  0  0  0  0  0  0  0  0  0  0
    0.5787   -2.3869    0.0000 H   0  0  0  0  0  0  0  0  0  0  0  0
    1.2299   -1.6647    0.0000 H   0  0  0  0  0  0  0  0  0  0  0  0
    0.4710   -2.4848    0.0000 H   0  0  0  0  0  0  0  0  0  0  0  0
    3.5503    0.2642    0.0000 H   0  0  0  0  0  0  0  0  0  0  0  0
    2.4855    2.5565    0.0000 H   0  0  0  0  0  0  0  0  0  0  0  0
    0.8863    1.9289    0.0000 H   0  0  0  0  0  0  0  0  0  0  0  0
    1.4540    2.9713    0.0000 H   0  0  0  0  0  0  0  0  0  0  0  0
    4.1738    2.2365    0.0000 H   0  0  0  0  0  0  0  0  0  0  0  0
    3.4223    3.1558    0.0000 H   0  0  0  0  0  0  0  0  0  0  0  0
    2.6355    1.0539    0.0000 H   0  0  0  0  0  0  0  0  0  0  0  0
    4.4868    1.2145    0.0000 H   0  0  0  0  0  0  0  0  0  0  0  0
    5.5466   -0.3064    0.0000 H   0  0  0  0  0  0  0  0  0  0  0  0
    4.7699   -1.9911    0.0000 H   0  0  0  0  0  0  0  0  0  0  0  0
  1  2  1  0  0  0  0
  2  3  2  0  0  0  0
  2 43  1  0  0  0  0
  3  4  1  0  0  0  0
  3 40  1  0  0  0  0
  4  5  1  1  0  0  0
  4  6  1  0  0  0  0
  4 31  1  0  0  0  0
  6  7  1  0  0  0  0
  6 14  1  0  0  0  0
  7  8  2  0  0  0  0
  7 13  1  0  0  0  0
  8  9  1  0  0  0  0
  8 44  1  0  0  0  0
  9 10  1  0  0  0  0
  9 11  2  0  0  0  0
 11 12  1  0  0  0  0
 11 45  1  0  0  0  0
 12 13  2  0  0  0  0
 13 46  1  0  0  0  0
 14 15  1  0  0  0  0
 14 30  2  0  0  0  0
 15 16  1  1  0  0  0
 15 17  1  0  0  0  0
 15 28  1  0  0  0  0
 17 18  1  0  0  0  0
 17 26  1  0  0  0  0
 18 19  2  0  0  0  0
 18 25  1  0  0  0  0
 19 20  1  0  0  0  0
 20 21  2  0  0  0  0
 20 47  1  0  0  0  0
 21 22  1  0  0  0  0
 21 48  1  0  0  0  0
 22 23  1  0  0  0  0
 22 25  2  0  0  0  0
 23 24  3  0  0  0  0
 25 49  1  0  0  0  0
 26 27  1  0  0  0  0
 26 29  2  0  0  0  0
 27 28  1  0  0  0  0
 27 50  1  0  0  0  0
 27 51  1  0  0  0  0
 28 52  1  0  0  0  0
 28 53  1  0  0  0  0
 31 32  1  0  0  0  0
 31 39  2  0  0  0  0
 32 33  1  0  0  0  0
 32 54  1  0  0  0  0
 33 34  1  0  0  0  0
 33 38  1  0  0  0  0
 33 55  1  0  0  0  0
 34 35  1  0  0  0  0
 34 56  1  0  0  0  0
 34 57  1  0  0  0  0
 35 36  1  0  0  0  0
 35 37  1  0  0  0  0
 35 38  1  0  0  0  0
 38 58  1  0  0  0  0
 38 59  1  0  0  0  0
 40 41  2  0  0  0  0
 40 60  1  0  0  0  0
 41 42  1  0  0  0  0
 41 61  1  0  0  0  0
 42 43  2  0  0  0  0
 42 62  1  0  0  0  0
 43 63  1  0  0  0  0
M  END
>  <DRUGBANK_ID>
DB14568

>  <COMMON_NAME>
Ivosidenib

>  <CAS_NUMBER>
1448347-49-6

>  <UNII>
Q2PCN8MAM6

>  <SYNONYMS>
Ivosidenib

$$$$
