
 OpenBabel10282417072D

 31 33  0  0  0  0  0  0  0  0999 V2000
    0.7145    0.4125    0.0000 C   0  0  0  0  0  0  0  0  0  0  0  0
    0.7145   -0.4125    0.0000 C   0  0  0  0  0  0  0  0  0  0  0  0
   -0.7145    0.4125    0.0000 C   0  0  0  0  0  0  0  0  0  0  0  0
   -0.7145   -0.4125    0.0000 C   0  0  0  0  0  0  0  0  0  0  0  0
   -1.4289    0.8250    0.0000 C   0  0  0  0  0  0  0  0  0  0  0  0
   -1.4289   -0.8250    0.0000 C   0  0  0  0  0  0  0  0  0  0  0  0
   -2.1434   -0.4125    0.0000 C   0  0  0  0  0  0  0  0  0  0  0  0
   -2.1434    0.4125    0.0000 C   0  0  0  0  0  0  0  0  0  0  0  0
    2.1434    0.4125    0.0000 C   0  0  0  0  0  0  0  0  0  0  0  0
    0.0000   -0.8250    0.0000 N   0  0  0  0  0  0  0  0  0  0  0  0
    1.4289   -0.8250    0.0000 C   0  0  0  0  0  0  0  0  0  0  0  0
    1.4289   -1.6500    0.0000 O   0  0  0  0  0  0  0  0  0  0  0  0
    2.8579    0.8250    0.0000 O   0  0  0  0  0  0  0  0  0  0  0  0
    2.1434   -0.4125    0.0000 N   0  0  0  0  0  0  0  0  0  0  0  0
    1.4289    0.8250    0.0000 N   0  0  0  0  0  0  0  0  0  0  0  0
    0.0000    0.8250    0.0000 N   0  0  0  0  0  0  0  0  0  0  0  0
    0.0000    1.6500    0.0000 C   0  0  0  0  0  0  0  0  0  0  0  0
   -2.8579    0.8250    0.0000 C   0  0  0  0  0  0  0  0  0  0  0  0
   -2.8579   -0.8250    0.0000 C   0  0  0  0  0  0  0  0  0  0  0  0
   -1.4289    1.8570    0.0000 H   0  0  0  0  0  0  0  0  0  0  0  0
   -1.4289   -1.8570    0.0000 H   0  0  0  0  0  0  0  0  0  0  0  0
    2.9960   -0.9048    0.0000 H   0  0  0  0  0  0  0  0  0  0  0  0
    0.9266    2.1850    0.0000 H   0  0  0  0  0  0  0  0  0  0  0  0
   -0.9266    2.1850    0.0000 H   0  0  0  0  0  0  0  0  0  0  0  0
   -0.0000    2.7200    0.0000 H   0  0  0  0  0  0  0  0  0  0  0  0
   -2.8579    1.8950    0.0000 H   0  0  0  0  0  0  0  0  0  0  0  0
   -3.7845    0.2900    0.0000 H   0  0  0  0  0  0  0  0  0  0  0  0
   -3.7846    1.3600    0.0000 H   0  0  0  0  0  0  0  0  0  0  0  0
   -3.7845   -0.2900    0.0000 H   0  0  0  0  0  0  0  0  0  0  0  0
   -2.8579   -1.8950    0.0000 H   0  0  0  0  0  0  0  0  0  0  0  0
   -3.7846   -1.3600    0.0000 H   0  0  0  0  0  0  0  0  0  0  0  0
  2  1  1  0  0  0  0
  2 11  1  0  0  0  0
  3  4  1  0  0  0  0
  4 10  1  0  0  0  0
  5  3  2  0  0  0  0
  5  8  1  0  0  0  0
  5 20  1  0  0  0  0
  6  4  2  0  0  0  0
  6 21  1  0  0  0  0
  7  6  1  0  0  0  0
  7 19  1  0  0  0  0
  8  7  2  0  0  0  0
  8 18  1  0  0  0  0
  9 13  2  0  0  0  0
 10  2  2  0  0  0  0
 11 14  1  0  0  0  0
 11 12  2  0  0  0  0
 14  9  1  0  0  0  0
 14 22  1  0  0  0  0
 15  1  2  0  0  0  0
 15  9  1  0  0  0  0
 16  3  1  0  0  0  0
 16  1  1  0  0  0  0
 16 17  1  0  0  0  0
 17 23  1  0  0  0  0
 17 24  1  0  0  0  0
 17 25  1  0  0  0  0
 18 26  1  0  0  0  0
 18 27  1  0  0  0  0
 18 28  1  0  0  0  0
 19 29  1  0  0  0  0
 19 30  1  0  0  0  0
 19 31  1  0  0  0  0
M  END
>  <DRUGBANK_ID>
DB04726

>  <COMMON_NAME>
Lumiflavin

>  <CAS_NUMBER>
1088-56-8

>  <UNII>
4M2669414M

>  <SYNONYMS>
7,8,10-Trimethylbenzo(g)pteridine-2,4(3H,10H)-dione; 7,8,10-Trimethylisoalloxazine; Lumiflavin; Lumiflavine

$$$$
