S17
 OpenBabel10282417072D

 51 51  0  0  0  0  0  0  0  0999 V2000
   -6.2350   -4.7666    0.0000 C   0  0  0  0  0  0  0  0  0  0  0  0
   -7.0145   -5.0367    0.0000 C   0  0  0  0  0  0  0  0  0  0  0  0
   -7.6382   -4.4966    0.0000 C   0  0  0  0  0  0  0  0  0  0  0  0
   -8.4177   -4.7666    0.0000 Br  0  0  0  0  0  0  0  0  0  0  0  0
   -7.4822   -3.6864    0.0000 C   0  0  0  0  0  0  0  0  0  0  0  0
   -6.7027   -3.4164    0.0000 C   0  0  0  0  0  0  0  0  0  0  0  0
   -6.0791   -3.9565    0.0000 C   0  0  0  0  0  0  0  0  0  0  0  0
   -5.2995   -3.6864    0.0000 C   0  0  0  0  0  0  0  0  0  0  0  0
   -4.6759   -4.2265    0.0000 C   0  0  1  0  0  0  0  0  0  0  0  0
   -4.8318   -5.0367    0.0000 C   0  0  0  0  0  0  0  0  0  0  0  0
   -5.6113   -5.3067    0.0000 O   0  0  0  0  0  0  0  0  0  0  0  0
   -4.2081   -5.5767    0.0000 O   0  0  0  0  0  0  0  0  0  0  0  0
   -4.3640   -6.3869    0.0000 C   0  0  0  0  0  0  0  0  0  0  0  0
   -3.8963   -3.9565    0.0000 N   0  0  0  0  0  0  0  0  0  0  0  0
   -3.2727   -4.4966    0.0000 C   0  0  0  0  0  0  0  0  0  0  0  0
   -3.4286   -5.3067    0.0000 O   0  0  0  0  0  0  0  0  0  0  0  0
   -2.4931   -4.2265    0.0000 C   0  0  0  0  0  0  0  0  0  0  0  0
   -1.8695   -4.7666    0.0000 C   0  0  0  0  0  0  0  0  0  0  0  0
   -1.0899   -4.4966    0.0000 C   0  0  0  0  0  0  0  0  0  0  0  0
   -0.4663   -5.0367    0.0000 C   0  0  0  0  0  0  0  0  0  0  0  0
    0.3133   -4.7666    0.0000 C   0  0  0  0  0  0  0  0  0  0  0  0
    0.9369   -5.3067    0.0000 C   0  0  0  0  0  0  0  0  0  0  0  0
    1.7165   -5.0367    0.0000 C   0  0  0  0  0  0  0  0  0  0  0  0
    1.8724   -4.2265    0.0000 O   0  0  0  0  0  0  0  0  0  0  0  0
    2.3401   -5.5767    0.0000 N   0  0  0  0  0  0  0  0  0  0  0  0
    3.1197   -5.3067    0.0000 O   0  0  0  0  0  0  0  0  0  0  0  0
   -5.2276   -4.4177    0.0000 H   0  0  0  0  0  0  0  0  0  0  0  0
   -5.4549   -5.4422    0.0000 H   0  0  0  0  0  0  0  0  0  0  0  0
   -7.2095   -6.0501    0.0000 H   0  0  0  0  0  0  0  0  0  0  0  0
   -8.2623   -3.0107    0.0000 H   0  0  0  0  0  0  0  0  0  0  0  0
   -6.5076   -2.4030    0.0000 H   0  0  0  0  0  0  0  0  0  0  0  0
   -5.0973   -2.6357    0.0000 H   0  0  0  0  0  0  0  0  0  0  0  0
   -4.2884   -3.3362    0.0000 H   0  0  0  0  0  0  0  0  0  0  0  0
   -5.3750   -6.7372    0.0000 H   0  0  0  0  0  0  0  0  0  0  0  0
   -3.5551   -7.0874    0.0000 H   0  0  0  0  0  0  0  0  0  0  0  0
   -4.5662   -7.4376    0.0000 H   0  0  0  0  0  0  0  0  0  0  0  0
   -3.7102   -2.9898    0.0000 H   0  0  0  0  0  0  0  0  0  0  0  0
   -2.2909   -3.1758    0.0000 H   0  0  0  0  0  0  0  0  0  0  0  0
   -1.4820   -3.8763    0.0000 H   0  0  0  0  0  0  0  0  0  0  0  0
   -2.0718   -5.8173    0.0000 H   0  0  0  0  0  0  0  0  0  0  0  0
   -1.0607   -5.4671    0.0000 H   0  0  0  0  0  0  0  0  0  0  0  0
   -0.8876   -3.4459    0.0000 H   0  0  0  0  0  0  0  0  0  0  0  0
   -0.0788   -4.1464    0.0000 H   0  0  0  0  0  0  0  0  0  0  0  0
   -0.6685   -6.0874    0.0000 H   0  0  0  0  0  0  0  0  0  0  0  0
    0.3426   -5.7372    0.0000 H   0  0  0  0  0  0  0  0  0  0  0  0
    0.5155   -3.7159    0.0000 H   0  0  0  0  0  0  0  0  0  0  0  0
    1.3244   -4.4164    0.0000 H   0  0  0  0  0  0  0  0  0  0  0  0
    0.7346   -6.3574    0.0000 H   0  0  0  0  0  0  0  0  0  0  0  0
    1.7457   -6.0072    0.0000 H   0  0  0  0  0  0  0  0  0  0  0  0
    2.1540   -6.5435    0.0000 H   0  0  0  0  0  0  0  0  0  0  0  0
    3.8529   -5.9418    0.0000 H   0  0  0  0  0  0  0  0  0  0  0  0
  1  2  1  0  0  0  0
  1  7  2  0  0  0  0
  1 28  1  0  0  0  0
  2  3  2  0  0  0  0
  2 29  1  0  0  0  0
  3  4  1  0  0  0  0
  3  5  1  0  0  0  0
  5  6  2  0  0  0  0
  5 30  1  0  0  0  0
  6  7  1  0  0  0  0
  6 31  1  0  0  0  0
  7  8  1  0  0  0  0
  8  9  1  0  0  0  0
  8 32  1  0  0  0  0
  8 33  1  0  0  0  0
  9 10  1  0  0  0  0
  9 14  1  0  0  0  0
  9 27  1  1  0  0  0
 10 11  2  0  0  0  0
 10 12  1  0  0  0  0
 12 13  1  0  0  0  0
 13 34  1  0  0  0  0
 13 35  1  0  0  0  0
 13 36  1  0  0  0  0
 14 15  1  0  0  0  0
 14 37  1  0  0  0  0
 15 16  2  0  0  0  0
 15 17  1  0  0  0  0
 17 18  1  0  0  0  0
 17 38  1  0  0  0  0
 17 39  1  0  0  0  0
 18 19  1  0  0  0  0
 18 40  1  0  0  0  0
 18 41  1  0  0  0  0
 19 20  1  0  0  0  0
 19 42  1  0  0  0  0
 19 43  1  0  0  0  0
 20 21  1  0  0  0  0
 20 44  1  0  0  0  0
 20 45  1  0  0  0  0
 21 22  1  0  0  0  0
 21 46  1  0  0  0  0
 21 47  1  0  0  0  0
 22 23  1  0  0  0  0
 22 48  1  0  0  0  0
 22 49  1  0  0  0  0
 23 24  2  0  0  0  0
 23 25  1  0  0  0  0
 25 26  1  0  0  0  0
 25 50  1  0  0  0  0
 26 51  1  0  0  0  0
M  END
>  <DRUGBANK_ID>
DB08505

>  <COMMON_NAME>
methyl 4-bromo-N-[8-(hydroxyamino)-8-oxooctanoyl]-L-phenylalaninate

$$$$
