
 OpenBabel10282417072D

 49 51  0  0  0  0  0  0  0  0999 V2000
   -5.8804   -3.2539    0.0000 C   0  0  0  0  0  0  0  0  0  0  0  0
   -5.0554   -3.2539    0.0000 C   0  0  0  0  0  0  0  0  0  0  0  0
   -4.6429   -3.9683    0.0000 C   0  0  0  0  0  0  0  0  0  0  0  0
   -4.6429   -2.5394    0.0000 C   0  0  0  0  0  0  0  0  0  0  0  0
   -3.8179   -2.5394    0.0000 C   0  0  3  0  0  0  0  0  0  0  0  0
   -3.1034   -2.1269    0.0000 C   0  0  3  0  0  0  0  0  0  0  0  0
   -2.6909   -1.4124    0.0000 C   0  0  0  0  0  0  0  0  0  0  0  0
   -3.1034   -0.6979    0.0000 O   0  0  0  0  0  0  0  0  0  0  0  0
   -1.8659   -1.4124    0.0000 O   0  0  0  0  0  0  0  0  0  0  0  0
   -1.4534   -0.6979    0.0000 C   0  0  0  0  0  0  0  0  0  0  0  0
   -0.6284   -0.6979    0.0000 N   0  0  0  0  0  0  0  0  0  0  0  0
   -0.1435   -1.3654    0.0000 C   0  0  0  0  0  0  0  0  0  0  0  0
   -0.3984   -2.1500    0.0000 O   0  0  0  0  0  0  0  0  0  0  0  0
    0.6411   -1.1104    0.0000 C   0  0  0  0  0  0  0  0  0  0  0  0
    0.6411   -0.2854    0.0000 C   0  0  0  0  0  0  0  0  0  0  0  0
    1.3556    0.1271    0.0000 C   0  0  0  0  0  0  0  0  0  0  0  0
    2.0701   -0.2854    0.0000 C   0  0  0  0  0  0  0  0  0  0  0  0
    2.0701   -1.1104    0.0000 C   0  0  0  0  0  0  0  0  0  0  0  0
    1.3556   -1.5229    0.0000 C   0  0  0  0  0  0  0  0  0  0  0  0
   -0.1435   -0.0305    0.0000 C   0  0  0  0  0  0  0  0  0  0  0  0
   -0.3984    0.7541    0.0000 O   0  0  0  0  0  0  0  0  0  0  0  0
   -3.1034   -2.9519    0.0000 C   0  0  0  0  0  0  0  0  0  0  0  0
   -2.3557   -3.3005    0.0000 C   0  0  0  0  0  0  0  0  0  0  0  0
   -3.1753   -3.7737    0.0000 C   0  0  0  0  0  0  0  0  0  0  0  0
   -6.4154   -2.3273    0.0000 H   0  0  0  0  0  0  0  0  0  0  0  0
   -6.4154   -4.1805    0.0000 H   0  0  0  0  0  0  0  0  0  0  0  0
   -6.9504   -3.2539    0.0000 H   0  0  0  0  0  0  0  0  0  0  0  0
   -5.1779   -4.8950    0.0000 H   0  0  0  0  0  0  0  0  0  0  0  0
   -3.5729   -3.9683    0.0000 H   0  0  0  0  0  0  0  0  0  0  0  0
   -4.1079   -4.8949    0.0000 H   0  0  0  0  0  0  0  0  0  0  0  0
   -5.1589   -1.6457    0.0000 H   0  0  0  0  0  0  0  0  0  0  0  0
   -4.0948   -1.5059    0.0000 H   0  0  0  0  0  0  0  0  0  0  0  0
   -3.8600   -1.3703    0.0000 H   0  0  0  0  0  0  0  0  0  0  0  0
   -1.9884    0.2287    0.0000 H   0  0  0  0  0  0  0  0  0  0  0  0
   -0.9184    0.2287    0.0000 H   0  0  0  0  0  0  0  0  0  0  0  0
    1.3556    1.1971    0.0000 H   0  0  0  0  0  0  0  0  0  0  0  0
    2.2822    0.6621    0.0000 H   0  0  0  0  0  0  0  0  0  0  0  0
    2.9967    0.2496    0.0000 H   0  0  0  0  0  0  0  0  0  0  0  0
    2.9967   -0.8204    0.0000 H   0  0  0  0  0  0  0  0  0  0  0  0
    2.9967   -1.6454    0.0000 H   0  0  0  0  0  0  0  0  0  0  0  0
    2.0701   -2.1804    0.0000 H   0  0  0  0  0  0  0  0  0  0  0  0
    1.3556   -2.5929    0.0000 H   0  0  0  0  0  0  0  0  0  0  0  0
    0.4290   -2.0579    0.0000 H   0  0  0  0  0  0  0  0  0  0  0  0
   -2.2624   -4.3664    0.0000 H   0  0  0  0  0  0  0  0  0  0  0  0
   -1.4792   -2.6867    0.0000 H   0  0  0  0  0  0  0  0  0  0  0  0
   -1.3859   -3.7526    0.0000 H   0  0  0  0  0  0  0  0  0  0  0  0
   -4.1451   -4.2259    0.0000 H   0  0  0  0  0  0  0  0  0  0  0  0
   -2.2988   -4.3874    0.0000 H   0  0  0  0  0  0  0  0  0  0  0  0
   -3.2686   -4.8396    0.0000 H   0  0  0  0  0  0  0  0  0  0  0  0
  1  2  1  0  0  0  0
  1 25  1  0  0  0  0
  1 26  1  0  0  0  0
  1 27  1  0  0  0  0
  2  3  1  0  0  0  0
  2  4  2  0  0  0  0
  3 28  1  0  0  0  0
  3 29  1  0  0  0  0
  3 30  1  0  0  0  0
  4  5  1  0  0  0  0
  4 31  1  0  0  0  0
  5  6  1  0  0  0  0
  5 22  1  0  0  0  0
  5 32  1  0  0  0  0
  6  7  1  0  0  0  0
  6 22  1  0  0  0  0
  6 33  1  0  0  0  0
  7  8  2  0  0  0  0
  7  9  1  0  0  0  0
  9 10  1  0  0  0  0
 10 11  1  0  0  0  0
 10 34  1  0  0  0  0
 10 35  1  0  0  0  0
 11 12  1  0  0  0  0
 11 20  1  0  0  0  0
 12 13  2  0  0  0  0
 12 14  1  0  0  0  0
 14 15  2  0  0  0  0
 14 19  1  0  0  0  0
 15 16  1  0  0  0  0
 15 20  1  0  0  0  0
 16 17  1  0  0  0  0
 16 36  1  0  0  0  0
 16 37  1  0  0  0  0
 17 18  1  0  0  0  0
 17 38  1  0  0  0  0
 17 39  1  0  0  0  0
 18 19  1  0  0  0  0
 18 40  1  0  0  0  0
 18 41  1  0  0  0  0
 19 42  1  0  0  0  0
 19 43  1  0  0  0  0
 20 21  2  0  0  0  0
 22 23  1  0  0  0  0
 22 24  1  0  0  0  0
 23 44  1  0  0  0  0
 23 45  1  0  0  0  0
 23 46  1  0  0  0  0
 24 47  1  0  0  0  0
 24 48  1  0  0  0  0
 24 49  1  0  0  0  0
M  END
>  <DRUGBANK_ID>
DB13752

>  <COMMON_NAME>
Tetramethrin

>  <CAS_NUMBER>
7696-12-0

>  <UNII>
Z72930Q46K

>  <SYNONYMS>
Tetramethrin

$$$$
