
 OpenBabel10282417072D

 75 78  0  0  0  0  0  0  0  0999 V2000
   -4.1908   -0.0031    0.0000 Fe  0  2  0  0  0  0  0  0  0  0  0  0
   -1.5356   -0.9849    0.0000 C   0  0  0  0  0  0  0  0  0  0  0  0
   -0.7224   -0.8457    0.0000 C   0  0  0  0  0  0  0  0  0  0  0  0
   -0.1613   -1.3971    0.0000 C   0  0  0  0  0  0  0  0  0  0  0  0
   -0.2740   -2.2144    0.0000 C   0  0  0  0  0  0  0  0  0  0  0  0
    0.3773   -2.7205    0.0000 C   0  0  0  0  0  0  0  0  0  0  0  0
    0.2647   -3.5378    0.0000 C   0  0  0  0  0  0  0  0  0  0  0  0
    0.9161   -4.0441    0.0000 O   0  0  0  0  0  0  0  0  0  0  0  0
   -0.4994   -3.8489    0.0000 O   0  0  0  0  0  0  0  0  0  0  0  0
    0.5962   -0.9806    0.0000 C   0  0  0  0  0  0  0  0  0  0  0  0
    1.3317   -1.3841    0.0000 C   0  0  0  0  0  0  0  0  0  0  0  0
    2.0311   -0.9974    0.0000 C   0  0  0  0  0  0  0  0  0  0  0  0
    2.1706   -0.2056    0.0000 N   0  0  0  0  0  0  0  0  0  0  0  0
    2.9888   -0.0228    0.0000 C   0  0  0  0  0  0  0  0  0  0  0  0
    3.3632    0.6831    0.0000 C   0  0  0  0  0  0  0  0  0  0  0  0
    2.9470    1.4114    0.0000 C   0  0  0  0  0  0  0  0  0  0  0  0
    3.3502    2.1762    0.0000 C   0  0  0  0  0  0  0  0  0  0  0  0
    4.1654    2.3032    0.0000 C   0  0  0  0  0  0  0  0  0  0  0  0
    2.7891    2.7276    0.0000 C   0  0  0  0  0  0  0  0  0  0  0  0
    2.9142    3.5431    0.0000 C   0  0  0  0  0  0  0  0  0  0  0  0
    2.2704    4.0591    0.0000 C   0  0  0  0  0  0  0  0  0  0  0  0
    2.0312    2.3404    0.0000 C   0  0  0  0  0  0  0  0  0  0  0  0
    2.1848    1.5219    0.0000 N   0  5  0  0  0  0  0  0  0  0  0  0
    1.3252    2.7148    0.0000 C   0  0  0  0  0  0  0  0  0  0  0  0
    0.5966    2.3279    0.0000 C   0  0  0  0  0  0  0  0  0  0  0  0
    0.4279    1.5358    0.0000 N   0  0  0  0  0  0  0  0  0  0  0  0
   -0.3612    1.3826    0.0000 C   0  0  0  0  0  0  0  0  0  0  0  0
   -0.7352    0.6180    0.0000 C   0  0  0  0  0  0  0  0  0  0  0  0
   -0.3484   -0.0812    0.0000 C   0  0  0  0  0  0  0  0  0  0  0  0
    0.4725   -0.2204    0.0000 N   0  5  0  0  0  0  0  0  0  0  0  0
   -0.7187    2.0821    0.0000 C   0  0  0  0  0  0  0  0  0  0  0  0
   -1.5342    2.2071    0.0000 C   0  0  0  0  0  0  0  0  0  0  0  0
   -1.8337    2.9759    0.0000 C   0  0  0  0  0  0  0  0  0  0  0  0
   -0.1382    2.6728    0.0000 C   0  0  0  0  0  0  0  0  0  0  0  0
   -0.2840    3.4849    0.0000 C   0  0  0  0  0  0  0  0  0  0  0  0
    3.3763   -0.8099    0.0000 C   0  0  0  0  0  0  0  0  0  0  0  0
    4.1908   -0.9410    0.0000 C   0  0  0  0  0  0  0  0  0  0  0  0
    2.8249   -1.3711    0.0000 C   0  0  0  0  0  0  0  0  0  0  0  0
    2.9702   -2.1832    0.0000 C   0  0  0  0  0  0  0  0  0  0  0  0
    2.3396   -2.7151    0.0000 C   0  0  0  0  0  0  0  0  0  0  0  0
    2.4849   -3.5272    0.0000 C   0  0  0  0  0  0  0  0  0  0  0  0
    3.2609   -3.8074    0.0000 O   0  0  0  0  0  0  0  0  0  0  0  0
    1.8544   -4.0591    0.0000 O   0  0  0  0  0  0  0  0  0  0  0  0
   -2.2193   -0.1618    0.0000 H   0  0  0  0  0  0  0  0  0  0  0  0
   -1.9066   -1.9885    0.0000 H   0  0  0  0  0  0  0  0  0  0  0  0
   -2.5903   -1.1654    0.0000 H   0  0  0  0  0  0  0  0  0  0  0  0
   -1.2650   -2.6178    0.0000 H   0  0  0  0  0  0  0  0  0  0  0  0
   -0.4201   -3.2744    0.0000 H   0  0  0  0  0  0  0  0  0  0  0  0
    1.3683   -2.3170    0.0000 H   0  0  0  0  0  0  0  0  0  0  0  0
    1.2222   -3.3770    0.0000 H   0  0  0  0  0  0  0  0  0  0  0  0
    0.7880   -4.9723    0.0000 H   0  0  0  0  0  0  0  0  0  0  0  0
    1.3334   -2.4161    0.0000 H   0  0  0  0  0  0  0  0  0  0  0  0
    4.3951    0.6994    0.0000 H   0  0  0  0  0  0  0  0  0  0  0  0
    4.8367    1.4700    0.0000 H   0  0  0  0  0  0  0  0  0  0  0  0
    4.5514    3.3012    0.0000 H   0  0  0  0  0  0  0  0  0  0  0  0
    5.2226    2.4679    0.0000 H   0  0  0  0  0  0  0  0  0  0  0  0
    3.8758    3.9177    0.0000 H   0  0  0  0  0  0  0  0  0  0  0  0
    2.4267    5.0792    0.0000 H   0  0  0  0  0  0  0  0  0  0  0  0
    1.3088    3.6844    0.0000 H   0  0  0  0  0  0  0  0  0  0  0  0
    1.3249    3.7468    0.0000 H   0  0  0  0  0  0  0  0  0  0  0  0
   -1.7669    0.5920    0.0000 H   0  0  0  0  0  0  0  0  0  0  0  0
   -2.1797    1.4019    0.0000 H   0  0  0  0  0  0  0  0  0  0  0  0
   -1.1882    3.7811    0.0000 H   0  0  0  0  0  0  0  0  0  0  0  0
   -2.8538    3.1323    0.0000 H   0  0  0  0  0  0  0  0  0  0  0  0
    0.5335    4.1752    0.0000 H   0  0  0  0  0  0  0  0  0  0  0  0
   -1.2906    3.8477    0.0000 H   0  0  0  0  0  0  0  0  0  0  0  0
   -0.4731    4.5381    0.0000 H   0  0  0  0  0  0  0  0  0  0  0  0
    4.5717   -1.9409    0.0000 H   0  0  0  0  0  0  0  0  0  0  0  0
    4.8663   -0.1111    0.0000 H   0  0  0  0  0  0  0  0  0  0  0  0
    5.2472   -1.1110    0.0000 H   0  0  0  0  0  0  0  0  0  0  0  0
    3.9766   -2.5466    0.0000 H   0  0  0  0  0  0  0  0  0  0  0  0
    3.1587   -3.2365    0.0000 H   0  0  0  0  0  0  0  0  0  0  0  0
    1.3332   -2.3517    0.0000 H   0  0  0  0  0  0  0  0  0  0  0  0
    1.5217   -3.4050    0.0000 H   0  0  0  0  0  0  0  0  0  0  0  0
    3.4260   -4.7297    0.0000 H   0  0  0  0  0  0  0  0  0  0  0  0
  2  3  1  0  0  0  0
  2 44  1  0  0  0  0
  2 45  1  0  0  0  0
  2 46  1  0  0  0  0
  3  4  2  0  0  0  0
  3 29  1  0  0  0  0
  4  5  1  0  0  0  0
  4 10  1  0  0  0  0
  5  6  1  0  0  0  0
  5 47  1  0  0  0  0
  5 48  1  0  0  0  0
  6  7  1  0  0  0  0
  6 49  1  0  0  0  0
  6 50  1  0  0  0  0
  7  8  1  0  0  0  0
  7  9  2  0  0  0  0
  8 51  1  0  0  0  0
 10 11  2  0  0  0  0
 10 30  1  0  0  0  0
 11 12  1  0  0  0  0
 11 52  1  0  0  0  0
 12 13  2  0  0  0  0
 12 38  1  0  0  0  0
 13 14  1  0  0  0  0
 14 15  2  0  0  0  0
 14 36  1  0  0  0  0
 15 16  1  0  0  0  0
 15 53  1  0  0  0  0
 16 17  2  0  0  0  0
 16 23  1  0  0  0  0
 17 18  1  0  0  0  0
 17 19  1  0  0  0  0
 18 54  1  0  0  0  0
 18 55  1  0  0  0  0
 18 56  1  0  0  0  0
 19 20  1  0  0  0  0
 19 22  2  0  0  0  0
 20 21  2  0  0  0  0
 20 57  1  0  0  0  0
 21 58  1  0  0  0  0
 21 59  1  0  0  0  0
 22 23  1  0  0  0  0
 22 24  1  0  0  0  0
 24 25  2  0  0  0  0
 24 60  1  0  0  0  0
 25 26  1  0  0  0  0
 25 34  1  0  0  0  0
 26 27  2  0  0  0  0
 27 28  1  0  0  0  0
 27 31  1  0  0  0  0
 28 29  2  0  0  0  0
 28 61  1  0  0  0  0
 29 30  1  0  0  0  0
 31 32  1  0  0  0  0
 31 34  2  0  0  0  0
 32 33  2  0  0  0  0
 32 62  1  0  0  0  0
 33 63  1  0  0  0  0
 33 64  1  0  0  0  0
 34 35  1  0  0  0  0
 35 65  1  0  0  0  0
 35 66  1  0  0  0  0
 35 67  1  0  0  0  0
 36 37  1  0  0  0  0
 36 38  2  0  0  0  0
 37 68  1  0  0  0  0
 37 69  1  0  0  0  0
 37 70  1  0  0  0  0
 38 39  1  0  0  0  0
 39 40  1  0  0  0  0
 39 71  1  0  0  0  0
 39 72  1  0  0  0  0
 40 41  1  0  0  0  0
 40 73  1  0  0  0  0
 40 74  1  0  0  0  0
 41 42  1  0  0  0  0
 41 43  2  0  0  0  0
 42 75  1  0  0  0  0
M  CHG  3   1   2  23  -1  30  -1
M  END
>  <DRUGBANK_ID>
DB18267

>  <COMMON_NAME>
Ferroheme

>  <CAS_NUMBER>
14875-96-8

>  <UNII>
42VZT0U6YR

>  <SYNONYMS>
Heme; HEME B; HEME IRON; PROTOHEME; PROTOHEME IX

$$$$
