
 OpenBabel10282417072D

 64 67  0  0  0  0  0  0  0  0999 V2000
   -0.3769   -0.3946    0.0000 C   0  0  0  0  0  0  0  0  0  0  0  0
    0.1074    0.2744    0.0000 C   0  0  0  0  0  0  0  0  0  0  0  0
   -0.3809    0.9407    0.0000 C   0  0  1  0  0  0  0  0  0  0  0  0
   -1.1617   -0.1394    0.0000 N   0  0  0  0  0  0  0  0  0  0  0  0
   -1.1616    0.6808    0.0000 C   0  0  1  0  0  0  0  0  0  0  0  0
   -1.9818    0.6809    0.0000 C   0  0  2  0  0  0  0  0  0  0  0  0
   -1.9818   -0.1393    0.0000 C   0  0  0  0  0  0  0  0  0  0  0  0
   -2.5671   -0.7241    0.0000 O   0  0  0  0  0  0  0  0  0  0  0  0
    0.9330    0.2769    0.0000 S   0  0  0  0  0  0  0  0  0  0  0  0
   -0.1206   -1.1792    0.0000 C   0  0  0  0  0  0  0  0  0  0  0  0
   -0.6682   -1.7914    0.0000 O   0  0  0  0  0  0  0  0  0  0  0  0
    0.6876   -1.3475    0.0000 O   0  0  0  0  0  0  0  0  0  0  0  0
    0.9479   -2.1323    0.0000 C   0  0  0  0  0  0  0  0  0  0  0  0
    1.7562   -2.3007    0.0000 O   0  0  0  0  0  0  0  0  0  0  0  0
   -2.5670    1.2619    0.0000 C   0  0  1  0  0  0  0  0  0  0  0  0
   -2.3543    2.0595    0.0000 C   0  0  0  0  0  0  0  0  0  0  0  0
   -3.3646    1.0494    0.0000 O   0  0  0  0  0  0  0  0  0  0  0  0
   -0.1316    1.7277    0.0000 C   0  0  0  0  0  0  0  0  0  0  0  0
    1.3416    0.9939    0.0000 C   0  0  3  0  0  0  0  0  0  0  0  0
    2.1372    1.2123    0.0000 C   0  0  0  0  0  0  0  0  0  0  0  0
    1.9220    2.0050    0.0000 N   0  0  0  0  0  0  0  0  0  0  0  0
    1.1250    1.7900    0.0000 C   0  0  0  0  0  0  0  0  0  0  0  0
    2.3293    2.7194    0.0000 C   0  0  0  0  0  0  0  0  0  0  0  0
    3.1503    2.8119    0.0000 N   0  0  0  0  0  0  0  0  0  0  0  0
    3.3187    3.6201    0.0000 C   0  0  0  0  0  0  0  0  0  0  0  0
    2.6017    4.0287    0.0000 C   0  0  0  0  0  0  0  0  0  0  0  0
    1.9929    3.4729    0.0000 S   0  0  0  0  0  0  0  0  0  0  0  0
   -2.7222    0.3093    0.0000 H   0  0  0  0  0  0  0  0  0  0  0  0
   -1.3378    1.4947    0.0000 H   0  0  0  0  0  0  0  0  0  0  0  0
    2.0132   -3.0808    0.0000 C   0  0  0  0  0  0  0  0  0  0  0  0
    2.8174   -3.2484    0.0000 C   0  0  0  0  0  0  0  0  0  0  0  0
    1.4660   -3.6936    0.0000 O   0  0  0  0  0  0  0  0  0  0  0  0
    3.0744   -4.0287    0.0000 C   0  0  0  0  0  0  0  0  0  0  0  0
    3.3646   -2.6358    0.0000 C   0  0  0  0  0  0  0  0  0  0  0  0
    2.4474   -3.9819    0.0000 C   0  0  0  0  0  0  0  0  0  0  0  0
    0.6749    1.1142    0.0000 H   0  0  0  0  0  0  0  0  0  0  0  0
    0.2360   -2.9311    0.0000 H   0  0  0  0  0  0  0  0  0  0  0  0
    1.2832   -3.1484    0.0000 H   0  0  0  0  0  0  0  0  0  0  0  0
   -2.8428    0.2281    0.0000 H   0  0  0  0  0  0  0  0  0  0  0  0
   -1.3211    2.3377    0.0000 H   0  0  0  0  0  0  0  0  0  0  0  0
   -3.1118    2.8152    0.0000 H   0  0  0  0  0  0  0  0  0  0  0  0
   -2.0786    3.0934    0.0000 H   0  0  0  0  0  0  0  0  0  0  0  0
   -4.0495    1.7363    0.0000 H   0  0  0  0  0  0  0  0  0  0  0  0
    0.9133    1.9579    0.0000 H   0  0  0  0  0  0  0  0  0  0  0  0
   -0.8534    2.5176    0.0000 H   0  0  0  0  0  0  0  0  0  0  0  0
    0.1915    2.7477    0.0000 H   0  0  0  0  0  0  0  0  0  0  0  0
    1.9979    0.1488    0.0000 H   0  0  0  0  0  0  0  0  0  0  0  0
    3.0664    0.6817    0.0000 H   0  0  0  0  0  0  0  0  0  0  0  0
    2.9835    1.8671    0.0000 H   0  0  0  0  0  0  0  0  0  0  0  0
    0.1969    2.3224    0.0000 H   0  0  0  0  0  0  0  0  0  0  0  0
    0.2783    1.1358    0.0000 H   0  0  0  0  0  0  0  0  0  0  0  0
    4.2941    4.0600    0.0000 H   0  0  0  0  0  0  0  0  0  0  0  0
    3.3691    4.6889    0.0000 H   0  0  0  0  0  0  0  0  0  0  0  0
    2.4832    5.0921    0.0000 H   0  0  0  0  0  0  0  0  0  0  0  0
    1.6003    4.4056    0.0000 H   0  0  0  0  0  0  0  0  0  0  0  0
    2.3616   -4.8267    0.0000 H   0  0  0  0  0  0  0  0  0  0  0  0
    4.1219   -4.2470    0.0000 H   0  0  0  0  0  0  0  0  0  0  0  0
    3.4091   -5.0450    0.0000 H   0  0  0  0  0  0  0  0  0  0  0  0
    4.4121   -2.8541    0.0000 H   0  0  0  0  0  0  0  0  0  0  0  0
    3.0299   -1.6195    0.0000 H   0  0  0  0  0  0  0  0  0  0  0  0
    4.0774   -1.8378    0.0000 H   0  0  0  0  0  0  0  0  0  0  0  0
    1.3791   -4.0422    0.0000 H   0  0  0  0  0  0  0  0  0  0  0  0
    3.0338   -4.8769    0.0000 H   0  0  0  0  0  0  0  0  0  0  0  0
    1.9655   -4.9372    0.0000 H   0  0  0  0  0  0  0  0  0  0  0  0
  1 10  1  0  0  0  0
  1  2  2  0  0  0  0
  2  9  1  0  0  0  0
  2  3  1  0  0  0  0
  3 18  1  0  0  0  0
  3  5  1  0  0  0  0
  3 36  1  6  0  0  0
  4  5  1  0  0  0  0
  4  1  1  0  0  0  0
  5  6  1  0  0  0  0
  5 29  1  6  0  0  0
  6 28  1  1  0  0  0
  6  7  1  0  0  0  0
  6 15  1  0  0  0  0
  7  8  2  0  0  0  0
  7  4  1  0  0  0  0
  9 19  1  0  0  0  0
 10 11  2  0  0  0  0
 10 12  1  0  0  0  0
 12 13  1  0  0  0  0
 13 14  1  0  0  0  0
 13 37  1  0  0  0  0
 13 38  1  0  0  0  0
 14 30  1  0  0  0  0
 15 17  1  0  0  0  0
 15 16  1  0  0  0  0
 15 39  1  1  0  0  0
 16 40  1  0  0  0  0
 16 41  1  0  0  0  0
 16 42  1  0  0  0  0
 17 43  1  0  0  0  0
 18 44  1  0  0  0  0
 18 45  1  0  0  0  0
 18 46  1  0  0  0  0
 19 20  1  0  0  0  0
 19 47  1  0  0  0  0
 20 21  1  0  0  0  0
 20 48  1  0  0  0  0
 20 49  1  0  0  0  0
 21 22  1  0  0  0  0
 21 23  1  0  0  0  0
 22 19  1  0  0  0  0
 22 50  1  0  0  0  0
 22 51  1  0  0  0  0
 23 24  2  0  0  0  0
 24 25  1  0  0  0  0
 25 26  1  0  0  0  0
 25 52  1  0  0  0  0
 25 53  1  0  0  0  0
 26 27  1  0  0  0  0
 26 54  1  0  0  0  0
 26 55  1  0  0  0  0
 27 23  1  0  0  0  0
 30 31  1  0  0  0  0
 30 32  2  0  0  0  0
 31 33  1  0  0  0  0
 31 34  1  0  0  0  0
 31 35  1  0  0  0  0
 33 56  1  0  0  0  0
 33 57  1  0  0  0  0
 33 58  1  0  0  0  0
 34 59  1  0  0  0  0
 34 60  1  0  0  0  0
 34 61  1  0  0  0  0
 35 62  1  0  0  0  0
 35 63  1  0  0  0  0
 35 64  1  0  0  0  0
M  END
>  <DRUGBANK_ID>
DB16840

>  <COMMON_NAME>
Tebipenem pivoxil

>  <CAS_NUMBER>
161715-24-8

>  <UNII>
95AK1A52I8

>  <SYNONYMS>
Tebipenem pivoxil

$$$$
