
 OpenBabel10282417072D

 87 86  0  0  0  0  0  0  0  0999 V2000
   -0.9937    0.9707    0.0000 C   0  0  0  0  0  0  0  0  0  0  0  0
    1.5187   -1.6915    0.0000 C   0  0  0  0  0  0  0  0  0  0  0  0
    2.6187    1.7000    0.0000 C   0  0  0  0  0  0  0  0  0  0  0  0
   -0.4062    1.5500    0.0000 N   0  0  0  0  0  0  0  0  0  0  0  0
    0.6937   -1.6915    0.0000 N   0  0  0  0  0  0  0  0  0  0  0  0
    3.0311    0.9833    0.0000 N   0  0  0  0  0  0  0  0  0  0  0  0
   -1.9979   -0.3249    0.0000 C   0  0  0  0  0  0  0  0  0  0  0  0
    3.1682   -1.8713    0.0000 C   0  0  0  0  0  0  0  0  0  0  0  0
    0.2770   -0.9792    0.0000 O   0  0  0  0  0  0  0  0  0  0  0  0
    2.6187    0.2707    0.0000 O   0  0  0  0  0  0  0  0  0  0  0  0
    0.4187    1.5458    0.0000 O   0  0  0  0  0  0  0  0  0  0  0  0
   -0.5854    0.2583    0.0000 O   0  0  0  0  0  0  0  0  0  0  0  0
    1.9270   -0.9792    0.0000 O   0  0  0  0  0  0  0  0  0  0  0  0
    1.7937    1.7000    0.0000 O   0  0  0  0  0  0  0  0  0  0  0  0
    1.9270   -2.4042    0.0000 C   0  0  0  0  0  0  0  0  0  0  0  0
   -1.8187    0.9707    0.0000 C   0  0  0  0  0  0  0  0  0  0  0  0
   -2.5854   -0.9042    0.0000 N   0  0  0  0  0  0  0  0  0  0  0  0
    3.8687   -2.1042    0.0000 N   0  0  0  0  0  0  0  0  0  0  0  0
   -2.4062    0.3875    0.0000 C   0  0  0  0  0  0  0  0  0  0  0  0
    2.7520   -2.4042    0.0000 C   0  0  0  0  0  0  0  0  0  0  0  0
   -4.5812    1.7375    0.0000 N   0  0  0  0  0  0  0  0  0  0  0  0
    3.0311    2.4125    0.0000 C   0  0  0  0  0  0  0  0  0  0  0  0
   -0.9937    2.1375    0.0000 C   0  0  0  0  0  0  0  0  0  0  0  0
    3.8561    0.9833    0.0000 C   0  0  0  0  0  0  0  0  0  0  0  0
    0.2812   -2.4125    0.0000 C   0  0  0  0  0  0  0  0  0  0  0  0
    4.5812   -1.6875    0.0000 C   0  0  0  0  0  0  0  0  0  0  0  0
   -2.3729   -1.7042    0.0000 C   0  0  0  0  0  0  0  0  0  0  0  0
   -3.8604    2.1458    0.0000 C   0  0  0  0  0  0  0  0  0  0  0  0
    4.2687    0.2707    0.0000 C   0  0  0  0  0  0  0  0  0  0  0  0
   -0.5437   -2.4125    0.0000 C   0  0  0  0  0  0  0  0  0  0  0  0
   -1.7104    1.7334    0.0000 C   0  0  0  0  0  0  0  0  0  0  0  0
   -1.6604   -2.1167    0.0000 C   0  0  0  0  0  0  0  0  0  0  0  0
    4.5812   -0.8625    0.0000 C   0  0  0  0  0  0  0  0  0  0  0  0
   -3.1437    1.7334    0.0000 C   0  0  0  0  0  0  0  0  0  0  0  0
   -0.9480   -1.7000    0.0000 C   0  0  0  0  0  0  0  0  0  0  0  0
   -2.4312    2.1458    0.0000 C   0  0  0  0  0  0  0  0  0  0  0  0
    3.8645   -0.4499    0.0000 C   0  0  0  0  0  0  0  0  0  0  0  0
   -1.2010   -0.5384    0.0000 O   0  0  0  0  0  0  0  0  0  0  0  0
    2.9547   -1.0744    0.0000 O   0  0  0  0  0  0  0  0  0  0  0  0
    0.7572   -0.1364    0.0000 H   0  0  0  0  0  0  0  0  0  0  0  0
    1.6487    0.2717    0.0000 H   0  0  0  0  0  0  0  0  0  0  0  0
    0.8994    0.7033    0.0000 H   0  0  0  0  0  0  0  0  0  0  0  0
    1.3904   -3.3299    0.0000 H   0  0  0  0  0  0  0  0  0  0  0  0
    2.4612   -3.3313    0.0000 H   0  0  0  0  0  0  0  0  0  0  0  0
   -2.2264    1.9600    0.0000 H   0  0  0  0  0  0  0  0  0  0  0  0
   -2.8676    1.1823    0.0000 H   0  0  0  0  0  0  0  0  0  0  0  0
   -3.5352   -0.6450    0.0000 H   0  0  0  0  0  0  0  0  0  0  0  0
    3.9710   -3.0834    0.0000 H   0  0  0  0  0  0  0  0  0  0  0  0
   -3.4666    0.5308    0.0000 H   0  0  0  0  0  0  0  0  0  0  0  0
   -2.7465    1.4019    0.0000 H   0  0  0  0  0  0  0  0  0  0  0  0
    3.2211   -3.3659    0.0000 H   0  0  0  0  0  0  0  0  0  0  0  0
    2.1850   -3.3116    0.0000 H   0  0  0  0  0  0  0  0  0  0  0  0
   -5.4603    2.2547    0.0000 H   0  0  0  0  0  0  0  0  0  0  0  0
   -4.5896    0.7175    0.0000 H   0  0  0  0  0  0  0  0  0  0  0  0
    4.1011    2.4113    0.0000 H   0  0  0  0  0  0  0  0  0  0  0  0
    2.4971    3.3397    0.0000 H   0  0  0  0  0  0  0  0  0  0  0  0
    3.5671    3.3386    0.0000 H   0  0  0  0  0  0  0  0  0  0  0  0
   -0.8486    3.1976    0.0000 H   0  0  0  0  0  0  0  0  0  0  0  0
   -1.8788    2.7387    0.0000 H   0  0  0  0  0  0  0  0  0  0  0  0
    4.3905    1.9103    0.0000 H   0  0  0  0  0  0  0  0  0  0  0  0
    4.9261    0.9843    0.0000 H   0  0  0  0  0  0  0  0  0  0  0  0
    0.8180   -3.3381    0.0000 H   0  0  0  0  0  0  0  0  0  0  0  0
   -0.2529   -3.3397    0.0000 H   0  0  0  0  0  0  0  0  0  0  0  0
    5.5093   -2.2199    0.0000 H   0  0  0  0  0  0  0  0  0  0  0  0
    5.5071   -1.1512    0.0000 H   0  0  0  0  0  0  0  0  0  0  0  0
   -3.2229   -2.3541    0.0000 H   0  0  0  0  0  0  0  0  0  0  0  0
   -2.3045   -2.7720    0.0000 H   0  0  0  0  0  0  0  0  0  0  0  0
   -3.8568    3.2158    0.0000 H   0  0  0  0  0  0  0  0  0  0  0  0
   -2.9332    2.6799    0.0000 H   0  0  0  0  0  0  0  0  0  0  0  0
    5.3387    0.2780    0.0000 H   0  0  0  0  0  0  0  0  0  0  0  0
    4.8126   -0.6508    0.0000 H   0  0  0  0  0  0  0  0  0  0  0  0
   -1.0822   -3.3371    0.0000 H   0  0  0  0  0  0  0  0  0  0  0  0
   -1.6137   -2.4065    0.0000 H   0  0  0  0  0  0  0  0  0  0  0  0
   -1.7138    0.6634    0.0000 H   0  0  0  0  0  0  0  0  0  0  0  0
   -2.6368    1.1980    0.0000 H   0  0  0  0  0  0  0  0  0  0  0  0
   -1.6580   -3.1867    0.0000 H   0  0  0  0  0  0  0  0  0  0  0  0
   -0.7316   -2.6480    0.0000 H   0  0  0  0  0  0  0  0  0  0  0  0
    5.5075   -0.3269    0.0000 H   0  0  0  0  0  0  0  0  0  0  0  0
    4.5802    0.2075    0.0000 H   0  0  0  0  0  0  0  0  0  0  0  0
   -3.1423    0.6634    0.0000 H   0  0  0  0  0  0  0  0  0  0  0  0
   -2.2164    1.1995    0.0000 H   0  0  0  0  0  0  0  0  0  0  0  0
   -0.6701   -0.6667    0.0000 H   0  0  0  0  0  0  0  0  0  0  0  0
   -1.7984   -1.0506    0.0000 H   0  0  0  0  0  0  0  0  0  0  0  0
   -2.4339    3.2158    0.0000 H   0  0  0  0  0  0  0  0  0  0  0  0
   -1.5063    2.6838    0.0000 H   0  0  0  0  0  0  0  0  0  0  0  0
    2.8329   -0.7339    0.0000 H   0  0  0  0  0  0  0  0  0  0  0  0
    3.7291   -1.5113    0.0000 H   0  0  0  0  0  0  0  0  0  0  0  0
  2  5  1  0  0  0  0
  3  6  1  0  0  0  0
  4  1  1  0  0  0  0
  5 25  1  0  0  0  0
  6 24  1  0  0  0  0
  7 19  1  0  0  0  0
  7 38  2  0  0  0  0
  8 20  1  0  0  0  0
  8 39  2  0  0  0  0
  9  5  1  0  0  0  0
  9 40  1  0  0  0  0
 10  6  1  0  0  0  0
 10 41  1  0  0  0  0
 11  4  1  0  0  0  0
 11 42  1  0  0  0  0
 12  1  2  0  0  0  0
 13  2  2  0  0  0  0
 14  3  2  0  0  0  0
 15  2  1  0  0  0  0
 15 43  1  0  0  0  0
 15 44  1  0  0  0  0
 16  1  1  0  0  0  0
 16 45  1  0  0  0  0
 16 46  1  0  0  0  0
 17  7  1  0  0  0  0
 17 47  1  0  0  0  0
 18  8  1  0  0  0  0
 18 48  1  0  0  0  0
 19 16  1  0  0  0  0
 19 49  1  0  0  0  0
 19 50  1  0  0  0  0
 20 15  1  0  0  0  0
 20 51  1  0  0  0  0
 20 52  1  0  0  0  0
 21 28  1  0  0  0  0
 21 53  1  0  0  0  0
 21 54  1  0  0  0  0
 22  3  1  0  0  0  0
 22 55  1  0  0  0  0
 22 56  1  0  0  0  0
 22 57  1  0  0  0  0
 23  4  1  0  0  0  0
 23 58  1  0  0  0  0
 23 59  1  0  0  0  0
 24 29  1  0  0  0  0
 24 60  1  0  0  0  0
 24 61  1  0  0  0  0
 25 30  1  0  0  0  0
 25 62  1  0  0  0  0
 25 63  1  0  0  0  0
 26 18  1  0  0  0  0
 26 64  1  0  0  0  0
 26 65  1  0  0  0  0
 27 17  1  0  0  0  0
 27 66  1  0  0  0  0
 27 67  1  0  0  0  0
 28 34  1  0  0  0  0
 28 68  1  0  0  0  0
 28 69  1  0  0  0  0
 29 37  1  0  0  0  0
 29 70  1  0  0  0  0
 29 71  1  0  0  0  0
 30 35  1  0  0  0  0
 30 72  1  0  0  0  0
 30 73  1  0  0  0  0
 31 23  1  0  0  0  0
 31 74  1  0  0  0  0
 31 75  1  0  0  0  0
 32 27  1  0  0  0  0
 32 76  1  0  0  0  0
 32 77  1  0  0  0  0
 33 26  1  0  0  0  0
 33 78  1  0  0  0  0
 33 79  1  0  0  0  0
 34 36  1  0  0  0  0
 34 80  1  0  0  0  0
 34 81  1  0  0  0  0
 35 32  1  0  0  0  0
 35 82  1  0  0  0  0
 35 83  1  0  0  0  0
 36 31  1  0  0  0  0
 36 84  1  0  0  0  0
 36 85  1  0  0  0  0
 37 33  1  0  0  0  0
 37 86  1  0  0  0  0
 37 87  1  0  0  0  0
M  END
>  <DRUGBANK_ID>
DB00746

>  <SECONDARY_ACCESSION_NUMBERS>
APRD00904

>  <COMMON_NAME>
Deferoxamine

>  <CAS_NUMBER>
70-51-9

>  <UNII>
J06Y7MXW4D

>  <SYNONYMS>
Deferoxamin; Deferoxamina; DÃ©feroxamine; Deferoxamine; Deferoxaminum; Deferrioxamine; Deferrioxamine B; Desferrioxamine; DFO; DFOA; DFOM

$$$$
