
 OpenBabel10282417072D

 54 59  0  0  1  0  0  0  0  0999 V2000
    7.1015   -8.5658    0.0000 C   0  0  0  0  0  0  0  0  0  0  0  0
    7.1015   -9.3909    0.0000 O   0  0  0  0  0  0  0  0  0  0  0  0
    7.8862   -9.6458    0.0000 C   0  0  2  0  0  0  0  0  0  0  0  0
    8.3711   -8.9784    0.0000 C   0  0  3  0  0  0  0  0  0  0  0  0
    7.8862   -8.3109    0.0000 C   0  0  2  0  0  0  0  0  0  0  0  0
    9.1558  -10.0583    0.0000 C   0  0  2  0  0  0  0  0  0  0  0  0
    9.1558   -9.2333    0.0000 C   0  0  1  0  0  0  0  0  0  0  0  0
    9.9404  -10.3132    0.0000 C   0  0  2  0  0  0  0  0  0  0  0  0
   10.4254   -9.6458    0.0000 C   0  0  2  0  0  0  0  0  0  0  0  0
    9.9404   -8.9784    0.0000 O   0  0  0  0  0  0  0  0  0  0  0  0
   11.2100   -9.9007    0.0000 O   0  0  0  0  0  0  0  0  0  0  0  0
   11.2100  -10.7257    0.0000 C   0  0  0  0  0  0  0  0  0  0  0  0
   10.4254  -10.9807    0.0000 C   0  0  2  0  0  0  0  0  0  0  0  0
    6.4341   -8.0809    0.0000 O   0  0  0  0  0  0  0  0  0  0  0  0
    8.3711  -10.3132    0.0000 C   0  0  1  0  0  0  0  0  0  0  0  0
    8.6708  -10.7257    0.0000 C   0  0  1  0  0  0  0  0  0  0  0  0
    9.9404  -11.1382    0.0000 C   0  0  1  0  0  0  0  0  0  0  0  0
    9.1558  -11.3932    0.0000 C   0  0  1  0  0  0  0  0  0  0  0  0
   11.8075  -11.1408    0.0000 O   0  0  0  0  0  0  0  0  0  0  0  0
    7.9764  -11.0280    0.0000 O   0  0  0  0  0  0  0  0  0  0  0  0
    7.8195   -7.5123    0.0000 C   0  0  0  0  0  0  0  0  0  0  0  0
    9.0053   -8.5159    0.0000 C   0  0  0  0  0  0  0  0  0  0  0  0
    8.5019   -9.5087    0.0000 O   0  0  0  0  0  0  0  0  0  0  0  0
    9.0053   -7.8727    0.0000 O   0  0  0  0  0  0  0  0  0  0  0  0
   10.8231  -11.6621    0.0000 O   0  0  0  0  0  0  0  0  0  0  0  0
    9.9981  -11.8299    0.0000 C   0  0  0  0  0  0  0  0  0  0  0  0
    9.4947  -12.4871    0.0000 C   0  0  0  0  0  0  0  0  0  0  0  0
   10.1519  -12.6549    0.0000 C   0  0  0  0  0  0  0  0  0  0  0  0
   10.6553  -12.3193    0.0000 C   0  0  0  0  0  0  0  0  0  0  0  0
    8.6697  -11.9978    0.0000 O   0  0  0  0  0  0  0  0  0  0  0  0
    7.5555   -8.6282    0.0000 H   0  0  0  0  0  0  0  0  0  0  0  0
    7.3011   -8.9784    0.0000 H   0  0  0  0  0  0  0  0  0  0  0  0
    8.8892   -7.9382    0.0000 H   0  0  0  0  0  0  0  0  0  0  0  0
    9.3554   -9.6458    0.0000 H   0  0  0  0  0  0  0  0  0  0  0  0
   11.4252  -11.3618    0.0000 H   0  0  0  0  0  0  0  0  0  0  0  0
    7.3031  -10.3794    0.0000 H   0  0  0  0  0  0  0  0  0  0  0  0
    9.6632  -10.3257    0.0000 H   0  0  0  0  0  0  0  0  0  0  0  0
    9.3481  -12.0293    0.0000 H   0  0  0  0  0  0  0  0  0  0  0  0
    9.7634  -12.2739    0.0000 H   0  0  0  0  0  0  0  0  0  0  0  0
    7.0066  -11.0465    0.0000 H   0  0  0  0  0  0  0  0  0  0  0  0
    8.6984   -6.9020    0.0000 H   0  0  0  0  0  0  0  0  0  0  0  0
    6.8515   -7.0563    0.0000 H   0  0  0  0  0  0  0  0  0  0  0  0
    7.7304   -6.4460    0.0000 H   0  0  0  0  0  0  0  0  0  0  0  0
   10.3421  -12.5044    0.0000 H   0  0  0  0  0  0  0  0  0  0  0  0
    8.4337  -12.3483    0.0000 H   0  0  0  0  0  0  0  0  0  0  0  0
    9.9050  -13.4753    0.0000 H   0  0  0  0  0  0  0  0  0  0  0  0
    8.8440  -13.3365    0.0000 H   0  0  0  0  0  0  0  0  0  0  0  0
    9.3390  -13.3507    0.0000 H   0  0  0  0  0  0  0  0  0  0  0  0
   11.1609  -13.0110    0.0000 H   0  0  0  0  0  0  0  0  0  0  0  0
   10.3480  -13.7068    0.0000 H   0  0  0  0  0  0  0  0  0  0  0  0
   10.5309  -13.3820    0.0000 H   0  0  0  0  0  0  0  0  0  0  0  0
   11.6378  -11.8956    0.0000 H   0  0  0  0  0  0  0  0  0  0  0  0
   11.5135  -12.9584    0.0000 H   0  0  0  0  0  0  0  0  0  0  0  0
    7.7111  -11.8494    0.0000 H   0  0  0  0  0  0  0  0  0  0  0  0
  1  2  1  0  0  0  0
  1 14  2  0  0  0  0
  3  2  1  0  0  0  0
  3  4  1  0  0  0  0
  3 15  1  0  0  0  0
  3 31  1  1  0  0  0
  4  5  1  0  0  0  0
  4 32  1  0  0  0  0
  5  1  1  0  0  0  0
  5 21  1  0  0  0  0
  5 33  1  6  0  0  0
  6  7  1  0  0  0  0
  6  8  1  0  0  0  0
  6 16  1  0  0  0  0
  7  4  1  0  0  0  0
  7 22  1  0  0  0  0
  8  9  1  0  0  0  0
  8 17  1  0  0  0  0
  9 10  1  0  0  0  0
  9 11  1  0  0  0  0
  9 34  1  0  0  0  0
 10  7  1  0  0  0  0
 11 12  1  0  0  0  0
 12 13  1  0  0  0  0
 12 19  2  0  0  0  0
 13  8  1  0  0  0  0
 13 25  1  0  0  0  0
 13 35  1  0  0  0  0
 15  6  1  0  0  0  0
 15 20  1  0  0  0  0
 15 36  1  0  0  0  0
 16 23  1  0  0  0  0
 16 37  1  0  0  0  0
 17 18  1  0  0  0  0
 17 26  1  0  0  0  0
 17 38  1  0  0  0  0
 18 16  1  0  0  0  0
 18 30  1  0  0  0  0
 18 39  1  0  0  0  0
 20 40  1  0  0  0  0
 21 41  1  0  0  0  0
 21 42  1  0  0  0  0
 21 43  1  0  0  0  0
 22 23  1  0  0  0  0
 22 24  2  0  0  0  0
 25 44  1  0  0  0  0
 26 27  1  0  0  0  0
 26 28  1  0  0  0  0
 26 29  1  0  0  0  0
 27 45  1  0  0  0  0
 27 46  1  0  0  0  0
 27 47  1  0  0  0  0
 28 48  1  0  0  0  0
 28 49  1  0  0  0  0
 28 50  1  0  0  0  0
 29 51  1  0  0  0  0
 29 52  1  0  0  0  0
 29 53  1  0  0  0  0
 30 54  1  0  0  0  0
M  END
>  <DRUGBANK_ID>
DB06747

>  <COMMON_NAME>
ginkgolide-M

>  <CAS_NUMBER>
15291-78-8

>  <UNII>
Z9XSZ8ZK7U

$$$$
