
 OpenBabel10282417072D

 63 65  0  0  1  0  0  0  0  0999 V2000
   -6.4099    0.3789    0.0000 C   0  0  0  0  0  0  0  0  0  0  0  0
   -5.6954   -0.0336    0.0000 C   0  0  0  0  0  0  0  0  0  0  0  0
   -4.9809    0.3789    0.0000 C   0  0  0  0  0  0  0  0  0  0  0  0
   -4.2664   -0.0336    0.0000 N   0  0  0  0  0  0  0  0  0  0  0  0
   -4.2664   -0.8586    0.0000 C   0  0  0  0  0  0  0  0  0  0  0  0
   -3.5520    0.3789    0.0000 C   0  0  0  0  0  0  0  0  0  0  0  0
   -3.5520    1.2039    0.0000 O   0  0  0  0  0  0  0  0  0  0  0  0
   -2.8375   -0.0336    0.0000 O   0  0  0  0  0  0  0  0  0  0  0  0
   -2.1230    0.3789    0.0000 C   0  0  0  0  0  0  0  0  0  0  0  0
   -1.4086   -0.0336    0.0000 C   0  0  0  0  0  0  0  0  0  0  0  0
   -0.6549    0.3019    0.0000 C   0  0  0  0  0  0  0  0  0  0  0  0
   -0.1029   -0.3112    0.0000 N   0  0  0  0  0  0  0  0  0  0  0  0
   -0.5154   -1.0257    0.0000 N   0  0  0  0  0  0  0  0  0  0  0  0
   -1.3223   -0.8541    0.0000 N   0  0  0  0  0  0  0  0  0  0  0  0
   -1.9354   -1.4062    0.0000 C   0  0  0  0  0  0  0  0  0  0  0  0
   -0.4834    1.1089    0.0000 C   0  0  0  0  0  0  0  0  0  0  0  0
   -1.0965    1.6609    0.0000 C   0  0  0  0  0  0  0  0  0  0  0  0
   -0.9249    2.4679    0.0000 C   0  0  0  0  0  0  0  0  0  0  0  0
   -0.1403    2.7228    0.0000 C   0  0  0  0  0  0  0  0  0  0  0  0
    0.0312    3.5298    0.0000 O   0  0  0  0  0  0  0  0  0  0  0  0
   -0.5819    4.0818    0.0000 C   0  0  1  0  0  0  0  0  0  0  0  0
   -1.3665    3.8269    0.0000 C   0  0  0  0  0  0  0  0  0  0  0  0
   -1.9796    4.3789    0.0000 C   0  0  0  0  0  0  0  0  0  0  0  0
   -1.8081    5.1859    0.0000 C   0  0  0  0  0  0  0  0  0  0  0  0
   -1.0234    5.4408    0.0000 C   0  0  1  0  0  0  0  0  0  0  0  0
   -0.4103    4.8888    0.0000 C   0  0  0  0  0  0  0  0  0  0  0  0
   -0.8519    6.2478    0.0000 C   0  0  0  0  0  0  0  0  0  0  0  0
   -1.4650    6.7998    0.0000 O   0  0  0  0  0  0  0  0  0  0  0  0
   -0.0673    6.5027    0.0000 O   0  0  0  0  0  0  0  0  0  0  0  0
    0.4728    2.1708    0.0000 C   0  0  0  0  0  0  0  0  0  0  0  0
    1.2574    2.4257    0.0000 C   0  0  0  0  0  0  0  0  0  0  0  0
    0.3013    1.3638    0.0000 N   0  0  0  0  0  0  0  0  0  0  0  0
   -6.4099    1.4489    0.0000 H   0  0  0  0  0  0  0  0  0  0  0  0
   -7.3365   -0.1561    0.0000 H   0  0  0  0  0  0  0  0  0  0  0  0
   -7.3366    0.9139    0.0000 H   0  0  0  0  0  0  0  0  0  0  0  0
   -5.6954   -1.1036    0.0000 H   0  0  0  0  0  0  0  0  0  0  0  0
   -4.7688   -0.5686    0.0000 H   0  0  0  0  0  0  0  0  0  0  0  0
   -4.9809    1.4489    0.0000 H   0  0  0  0  0  0  0  0  0  0  0  0
   -4.0543    0.9139    0.0000 H   0  0  0  0  0  0  0  0  0  0  0  0
   -5.1930   -1.3936    0.0000 H   0  0  0  0  0  0  0  0  0  0  0  0
   -3.3398   -1.3936    0.0000 H   0  0  0  0  0  0  0  0  0  0  0  0
   -4.2664   -1.9286    0.0000 H   0  0  0  0  0  0  0  0  0  0  0  0
   -2.1230    1.4489    0.0000 H   0  0  0  0  0  0  0  0  0  0  0  0
   -1.1963    0.9139    0.0000 H   0  0  0  0  0  0  0  0  0  0  0  0
   -2.9530   -1.0756    0.0000 H   0  0  0  0  0  0  0  0  0  0  0  0
   -1.7129   -2.4528    0.0000 H   0  0  0  0  0  0  0  0  0  0  0  0
   -2.7305   -2.1222    0.0000 H   0  0  0  0  0  0  0  0  0  0  0  0
   -2.0780    1.3420    0.0000 H   0  0  0  0  0  0  0  0  0  0  0  0
   -1.6918    3.1585    0.0000 H   0  0  0  0  0  0  0  0  0  0  0  0
   -0.8044    3.0352    0.0000 H   0  0  0  0  0  0  0  0  0  0  0  0
   -1.5890    2.7803    0.0000 H   0  0  0  0  0  0  0  0  0  0  0  0
   -2.3841    3.4962    0.0000 H   0  0  0  0  0  0  0  0  0  0  0  0
   -2.9972    4.0482    0.0000 H   0  0  0  0  0  0  0  0  0  0  0  0
   -2.7748    5.0948    0.0000 H   0  0  0  0  0  0  0  0  0  0  0  0
   -2.6033    5.9019    0.0000 H   0  0  0  0  0  0  0  0  0  0  0  0
   -1.5856    6.2325    0.0000 H   0  0  0  0  0  0  0  0  0  0  0  0
   -1.8186    6.1568    0.0000 H   0  0  0  0  0  0  0  0  0  0  0  0
    0.6073    5.2194    0.0000 H   0  0  0  0  0  0  0  0  0  0  0  0
    0.3848    4.1728    0.0000 H   0  0  0  0  0  0  0  0  0  0  0  0
   -1.2702    7.7163    0.0000 H   0  0  0  0  0  0  0  0  0  0  0  0
    2.0525    1.7097    0.0000 H   0  0  0  0  0  0  0  0  0  0  0  0
    1.4799    3.4723    0.0000 H   0  0  0  0  0  0  0  0  0  0  0  0
    2.2750    2.7563    0.0000 H   0  0  0  0  0  0  0  0  0  0  0  0
  1  2  1  0  0  0  0
  1 33  1  0  0  0  0
  1 34  1  0  0  0  0
  1 35  1  0  0  0  0
  2  3  1  0  0  0  0
  2 36  1  0  0  0  0
  2 37  1  0  0  0  0
  3  4  1  0  0  0  0
  3 38  1  0  0  0  0
  3 39  1  0  0  0  0
  4  5  1  0  0  0  0
  4  6  1  0  0  0  0
  5 40  1  0  0  0  0
  5 41  1  0  0  0  0
  5 42  1  0  0  0  0
  6  7  2  0  0  0  0
  6  8  1  0  0  0  0
  8  9  1  0  0  0  0
  9 10  1  0  0  0  0
  9 43  1  0  0  0  0
  9 44  1  0  0  0  0
 10 11  2  0  0  0  0
 10 14  1  0  0  0  0
 11 12  1  0  0  0  0
 11 16  1  0  0  0  0
 12 13  2  0  0  0  0
 13 14  1  0  0  0  0
 14 15  1  0  0  0  0
 15 45  1  0  0  0  0
 15 46  1  0  0  0  0
 15 47  1  0  0  0  0
 16 17  2  0  0  0  0
 16 32  1  0  0  0  0
 17 18  1  0  0  0  0
 17 48  1  0  0  0  0
 18 19  2  0  0  0  0
 18 49  1  0  0  0  0
 19 20  1  0  0  0  0
 19 30  1  0  0  0  0
 21 20  1  0  0  0  0
 21 22  1  0  0  0  0
 21 26  1  0  0  0  0
 21 50  1  6  0  0  0
 22 23  1  0  0  0  0
 22 51  1  0  0  0  0
 22 52  1  0  0  0  0
 23 24  1  0  0  0  0
 23 53  1  0  0  0  0
 23 54  1  0  0  0  0
 24 55  1  0  0  0  0
 24 56  1  0  0  0  0
 25 24  1  0  0  0  0
 25 26  1  0  0  0  0
 25 27  1  0  0  0  0
 25 57  1  1  0  0  0
 26 58  1  0  0  0  0
 26 59  1  0  0  0  0
 27 28  1  0  0  0  0
 27 29  2  0  0  0  0
 28 60  1  0  0  0  0
 30 31  1  0  0  0  0
 30 32  2  0  0  0  0
 31 61  1  0  0  0  0
 31 62  1  0  0  0  0
 31 63  1  0  0  0  0
M  END
>  <DRUGBANK_ID>
DB18011

>  <COMMON_NAME>
BMS-986278

>  <CAS_NUMBER>
2170126-74-4

>  <UNII>
4UN9AOU6G8

>  <SYNONYMS>
(1s,3s)-3-((2-methyl-6-(1-methyl-5-(((methyl(propyl)carbamoyl)oxy)methyl)-1h-1,2,3-triazol-4-yl)pyridin-3-yl)oxy)cyclohexane-1-carboxylic acid; Cyclohexanecarboxylic acid, 3-((2-methyl-6-(1-methyl-5-((((methylpropylamino)carbonyl)oxy)methyl)-1h-1,2,3-triazol-4-yl)-3-pyridinyl)oxy)-, (1s,3s)-

$$$$
