
 OpenBabel10282417072D

 26 26  0  0  0  0  0  0  0  0999 V2000
    1.0735   -0.3907    0.0000 N   0  0  0  0  0  0  0  0  0  0  0  0
    0.3643    0.8250    0.0000 C   0  0  0  0  0  0  0  0  0  0  0  0
   -0.3497    0.4053    0.0000 C   0  0  0  0  0  0  0  0  0  0  0  0
    1.0735    0.4197    0.0000 C   0  0  2  0  0  0  0  0  0  0  0  0
    1.7682   -0.7961    0.0000 C   0  0  0  0  0  0  0  0  0  0  0  0
   -1.0687    0.8250    0.0000 C   0  0  0  0  0  0  0  0  0  0  0  0
   -0.3497   -0.4197    0.0000 C   0  0  0  0  0  0  0  0  0  0  0  0
    1.7779    0.8395    0.0000 C   0  0  0  0  0  0  0  0  0  0  0  0
   -1.7779    0.4053    0.0000 C   0  0  0  0  0  0  0  0  0  0  0  0
   -1.0687   -0.8395    0.0000 C   0  0  0  0  0  0  0  0  0  0  0  0
   -1.7779   -0.4197    0.0000 C   0  0  0  0  0  0  0  0  0  0  0  0
    0.1890   -0.8986    0.0000 H   0  0  0  0  0  0  0  0  0  0  0  0
    0.3578    1.8950    0.0000 H   0  0  0  0  0  0  0  0  0  0  0  0
   -0.5660    1.3535    0.0000 H   0  0  0  0  0  0  0  0  0  0  0  0
    0.1480   -0.1173    0.0000 H   0  0  0  0  0  0  0  0  0  0  0  0
    1.7632   -1.8661    0.0000 H   0  0  0  0  0  0  0  0  0  0  0  0
    2.6973   -0.2654    0.0000 H   0  0  0  0  0  0  0  0  0  0  0  0
    2.6924   -1.3354    0.0000 H   0  0  0  0  0  0  0  0  0  0  0  0
   -1.0718    1.8570    0.0000 H   0  0  0  0  0  0  0  0  0  0  0  0
    0.5453   -0.9335    0.0000 H   0  0  0  0  0  0  0  0  0  0  0  0
    2.7119    0.3174    0.0000 H   0  0  0  0  0  0  0  0  0  0  0  0
    1.7631    1.9094    0.0000 H   0  0  0  0  0  0  0  0  0  0  0  0
    2.6970    1.3873    0.0000 H   0  0  0  0  0  0  0  0  0  0  0  0
   -2.6744    0.9165    0.0000 H   0  0  0  0  0  0  0  0  0  0  0  0
   -1.0718   -1.8715    0.0000 H   0  0  0  0  0  0  0  0  0  0  0  0
   -2.6744   -0.9308    0.0000 H   0  0  0  0  0  0  0  0  0  0  0  0
  1 12  1  0  0  0  0
  2  4  1  0  0  0  0
  2 13  1  0  0  0  0
  2 14  1  0  0  0  0
  3  2  1  0  0  0  0
  4  1  1  0  0  0  0
  4 15  1  1  0  0  0
  5  1  1  0  0  0  0
  5 16  1  0  0  0  0
  5 17  1  0  0  0  0
  5 18  1  0  0  0  0
  6  3  1  0  0  0  0
  6 19  1  0  0  0  0
  7  3  2  0  0  0  0
  7 20  1  0  0  0  0
  8  4  1  0  0  0  0
  8 21  1  0  0  0  0
  8 22  1  0  0  0  0
  8 23  1  0  0  0  0
  9  6  2  0  0  0  0
  9 24  1  0  0  0  0
 10  7  1  0  0  0  0
 10 25  1  0  0  0  0
 11  9  1  0  0  0  0
 11 10  2  0  0  0  0
 11 26  1  0  0  0  0
M  END
>  <DRUGBANK_ID>
DB01577

>  <COMMON_NAME>
Metamfetamine

>  <CAS_NUMBER>
537-46-2

>  <UNII>
44RAL3456C

>  <SYNONYMS>
(+)-(S)-N-α-dimethylphenethylamine; (S)-N,α-dimethylbenzeneethanamine; (αS)-N,α-dimethylbenzeneethanamine; d-1-phenyl-2-methylaminopropane; d-deoxyephedrine; d-desoxyephedrine; d-N-methylamphetamine; d-phenylisopropylmethylamine; Dextromethamphetamine; Métamfétamine; Metamfetamine; Metamfetaminum; Metanfetamina; Methamphetamine; Methamphetaminum; methyl-β-phenylisopropylamine

$$$$
