
 OpenBabel10282417072D

 53 53  0  0  1  0  0  0  0  0999 V2000
    5.9503   -8.4756    0.0000 C   0  0  0  0  0  0  0  0  0  0  0  0
    5.3558   -7.9036    0.0000 C   0  0  0  0  0  0  0  0  0  0  0  0
    4.5631   -8.1324    0.0000 C   0  0  0  0  0  0  0  0  0  0  0  0
    5.5539   -7.1028    0.0000 C   0  0  1  0  0  0  0  0  0  0  0  0
    4.9595   -6.5307    0.0000 O   0  0  0  0  0  0  0  0  0  0  0  0
    4.1668   -6.7595    0.0000 C   0  0  0  0  0  0  0  0  0  0  0  0
    3.9687   -7.5604    0.0000 O   0  0  0  0  0  0  0  0  0  0  0  0
    3.5724   -6.1875    0.0000 C   0  0  0  0  0  0  0  0  0  0  0  0
    2.7797   -6.4163    0.0000 C   0  0  0  0  0  0  0  0  0  0  0  0
    3.7705   -5.3867    0.0000 C   0  0  0  0  0  0  0  0  0  0  0  0
    6.3466   -6.8739    0.0000 O   0  0  0  0  0  0  0  0  0  0  0  0
    6.9411   -7.4460    0.0000 C   0  0  0  0  0  0  0  0  0  0  0  0
    6.7429   -8.2468    0.0000 O   0  0  0  0  0  0  0  0  0  0  0  0
    7.7337   -7.2172    0.0000 N   0  0  0  0  0  0  0  0  0  0  0  0
    8.3282   -7.7892    0.0000 C   0  0  0  0  0  0  0  0  0  0  0  0
    9.1208   -7.5604    0.0000 C   0  0  2  0  0  0  0  0  0  0  0  0
    9.3190   -6.7595    0.0000 C   0  0  0  0  0  0  0  0  0  0  0  0
    8.7245   -6.1875    0.0000 C   0  0  0  0  0  0  0  0  0  0  0  0
    7.9318   -6.4163    0.0000 O   0  0  0  0  0  0  0  0  0  0  0  0
    8.9226   -5.3867    0.0000 O   0  0  0  0  0  0  0  0  0  0  0  0
    9.7153   -8.1324    0.0000 C   0  0  0  0  0  0  0  0  0  0  0  0
   10.5079   -7.9036    0.0000 C   0  0  0  0  0  0  0  0  0  0  0  0
   11.1024   -8.4756    0.0000 C   0  0  0  0  0  0  0  0  0  0  0  0
   10.9042   -9.2765    0.0000 C   0  0  0  0  0  0  0  0  0  0  0  0
   10.1116   -9.5053    0.0000 C   0  0  0  0  0  0  0  0  0  0  0  0
    9.5171   -8.9333    0.0000 C   0  0  0  0  0  0  0  0  0  0  0  0
   11.4987   -9.8485    0.0000 Cl  0  0  0  0  0  0  0  0  0  0  0  0
    5.6933   -9.5143    0.0000 H   0  0  0  0  0  0  0  0  0  0  0  0
    6.9783   -8.1788    0.0000 H   0  0  0  0  0  0  0  0  0  0  0  0
    6.7214   -9.2175    0.0000 H   0  0  0  0  0  0  0  0  0  0  0  0
    4.5848   -7.1617    0.0000 H   0  0  0  0  0  0  0  0  0  0  0  0
    3.7921   -7.3905    0.0000 H   0  0  0  0  0  0  0  0  0  0  0  0
    4.3061   -9.1711    0.0000 H   0  0  0  0  0  0  0  0  0  0  0  0
    3.5351   -8.4291    0.0000 H   0  0  0  0  0  0  0  0  0  0  0  0
    4.5259   -7.3995    0.0000 H   0  0  0  0  0  0  0  0  0  0  0  0
    2.8014   -5.4456    0.0000 H   0  0  0  0  0  0  0  0  0  0  0  0
    2.0087   -5.6744    0.0000 H   0  0  0  0  0  0  0  0  0  0  0  0
    2.5227   -7.4550    0.0000 H   0  0  0  0  0  0  0  0  0  0  0  0
    1.7517   -6.7130    0.0000 H   0  0  0  0  0  0  0  0  0  0  0  0
    4.7985   -5.0899    0.0000 H   0  0  0  0  0  0  0  0  0  0  0  0
    2.9994   -4.6448    0.0000 H   0  0  0  0  0  0  0  0  0  0  0  0
    4.0274   -4.3480    0.0000 H   0  0  0  0  0  0  0  0  0  0  0  0
    7.9701   -6.2615    0.0000 H   0  0  0  0  0  0  0  0  0  0  0  0
    8.0712   -8.8279    0.0000 H   0  0  0  0  0  0  0  0  0  0  0  0
    9.0992   -8.5311    0.0000 H   0  0  0  0  0  0  0  0  0  0  0  0
    8.3498   -6.8185    0.0000 H   0  0  0  0  0  0  0  0  0  0  0  0
   10.3470   -6.4627    0.0000 H   0  0  0  0  0  0  0  0  0  0  0  0
    9.5760   -5.7208    0.0000 H   0  0  0  0  0  0  0  0  0  0  0  0
    9.8228   -5.1268    0.0000 H   0  0  0  0  0  0  0  0  0  0  0  0
   10.7558   -6.9018    0.0000 H   0  0  0  0  0  0  0  0  0  0  0  0
   12.0939   -8.1894    0.0000 H   0  0  0  0  0  0  0  0  0  0  0  0
    9.8637  -10.5071    0.0000 H   0  0  0  0  0  0  0  0  0  0  0  0
    8.5256   -9.2195    0.0000 H   0  0  0  0  0  0  0  0  0  0  0  0
  1  2  1  0  0  0  0
  1 28  1  0  0  0  0
  1 29  1  0  0  0  0
  1 30  1  0  0  0  0
  2  3  1  0  0  0  0
  2  4  1  0  0  0  0
  2 31  1  0  0  0  0
  3 32  1  0  0  0  0
  3 33  1  0  0  0  0
  3 34  1  0  0  0  0
  4  5  1  0  0  0  0
  4 11  1  0  0  0  0
  4 35  1  6  0  0  0
  5  6  1  0  0  0  0
  6  7  2  0  0  0  0
  6  8  1  0  0  0  0
  8  9  1  0  0  0  0
  8 10  1  0  0  0  0
  8 36  1  0  0  0  0
  9 37  1  0  0  0  0
  9 38  1  0  0  0  0
  9 39  1  0  0  0  0
 10 40  1  0  0  0  0
 10 41  1  0  0  0  0
 10 42  1  0  0  0  0
 11 12  1  0  0  0  0
 12 13  2  0  0  0  0
 12 14  1  0  0  0  0
 14 15  1  0  0  0  0
 14 43  1  0  0  0  0
 15 44  1  0  0  0  0
 15 45  1  0  0  0  0
 16 15  1  0  0  0  0
 16 17  1  0  0  0  0
 16 21  1  0  0  0  0
 16 46  1  1  0  0  0
 17 18  1  0  0  0  0
 17 47  1  0  0  0  0
 17 48  1  0  0  0  0
 18 19  2  0  0  0  0
 18 20  1  0  0  0  0
 20 49  1  0  0  0  0
 21 22  2  0  0  0  0
 21 26  1  0  0  0  0
 22 23  1  0  0  0  0
 22 50  1  0  0  0  0
 23 24  2  0  0  0  0
 23 51  1  0  0  0  0
 24 25  1  0  0  0  0
 24 27  1  0  0  0  0
 25 26  2  0  0  0  0
 25 52  1  0  0  0  0
 26 53  1  0  0  0  0
M  END
>  <DRUGBANK_ID>
DB08892

>  <SECONDARY_ACCESSION_NUMBERS>
DB05031

>  <COMMON_NAME>
Arbaclofen Placarbil

>  <CAS_NUMBER>
847353-30-4

>  <UNII>
W89H91R7VX

>  <SYNONYMS>
Arbaclofen Placarbil; XP19986

$$$$
