
 OpenBabel10282417072D

 25 23  0  0  1  0  0  0  0  0999 V2000
    3.7125   -2.1434    0.0000 C   0  0  0  0  0  0  0  0  0  0  0  0
    4.4270   -2.5559    0.0000 C   0  0  2  0  0  0  0  0  0  0  0  0
    5.1414   -2.1434    0.0000 C   0  0  2  0  0  0  0  0  0  0  0  0
    5.8559   -2.5559    0.0000 C   0  0  1  0  0  0  0  0  0  0  0  0
    6.5704   -2.1434    0.0000 C   0  0  2  0  0  0  0  0  0  0  0  0
    7.2849   -2.5559    0.0000 C   0  0  0  0  0  0  0  0  0  0  0  0
    2.9980   -2.5559    0.0000 O   0  0  0  0  0  0  0  0  0  0  0  0
    4.4270   -3.3809    0.0000 O   0  0  0  0  0  0  0  0  0  0  0  0
    5.1414   -1.3184    0.0000 O   0  0  0  0  0  0  0  0  0  0  0  0
    5.8559   -3.3809    0.0000 O   0  0  0  0  0  0  0  0  0  0  0  0
    6.5704   -1.3184    0.0000 O   0  0  0  0  0  0  0  0  0  0  0  0
    7.2849   -3.3809    0.0000 O   0  0  0  0  0  0  0  0  0  0  0  0
    7.9993   -2.1434    0.0000 O   0  5  0  0  0  0  0  0  0  0  0  0
    8.7138   -1.7309    0.0000 K   0  3  0  0  0  0  0  0  0  0  0  0
    4.4270   -1.7309    0.0000 H   0  0  0  0  0  0  0  0  0  0  0  0
    5.1414   -2.9684    0.0000 H   0  0  0  0  0  0  0  0  0  0  0  0
    5.8559   -1.7309    0.0000 H   0  0  0  0  0  0  0  0  0  0  0  0
    6.5704   -2.9684    0.0000 H   0  0  0  0  0  0  0  0  0  0  0  0
    3.7125   -1.0734    0.0000 H   0  0  0  0  0  0  0  0  0  0  0  0
    2.7859   -1.6084    0.0000 H   0  0  0  0  0  0  0  0  0  0  0  0
    2.1580   -2.0709    0.0000 H   0  0  0  0  0  0  0  0  0  0  0  0
    3.5870   -3.8659    0.0000 H   0  0  0  0  0  0  0  0  0  0  0  0
    5.9814   -0.8334    0.0000 H   0  0  0  0  0  0  0  0  0  0  0  0
    5.0159   -3.8659    0.0000 H   0  0  0  0  0  0  0  0  0  0  0  0
    7.4104   -0.8334    0.0000 H   0  0  0  0  0  0  0  0  0  0  0  0
  1 19  1  0  0  0  0
  1 20  1  0  0  0  0
  2  1  1  0  0  0  0
  2  8  1  0  0  0  0
  2 15  1  1  0  0  0
  3  2  1  0  0  0  0
  3  9  1  0  0  0  0
  3 16  1  6  0  0  0
  4  3  1  0  0  0  0
  4 10  1  0  0  0  0
  4 17  1  6  0  0  0
  5  4  1  0  0  0  0
  5 11  1  0  0  0  0
  5 18  1  6  0  0  0
  6  5  1  0  0  0  0
  7  1  1  0  0  0  0
  7 21  1  0  0  0  0
  8 22  1  0  0  0  0
  9 23  1  0  0  0  0
 10 24  1  0  0  0  0
 11 25  1  0  0  0  0
 12  6  2  0  0  0  0
 13  6  1  0  0  0  0
M  CHG  2  13  -1  14   1
M  END
>  <DRUGBANK_ID>
DB13620

>  <COMMON_NAME>
Potassium gluconate

>  <CAS_NUMBER>
299-27-4

>  <UNII>
12H3K5QKN9

>  <SYNONYMS>
potassium D-gluconate; Potassium gluconate

$$$$
