
 OpenBabel10282417072D

 32 33  0  0  0  0  0  0  0  0999 V2000
   10.6425   -9.9000    0.0000 C   0  0  0  0  0  0  0  0  0  0  0  0
   10.6425  -10.7250    0.0000 C   0  0  0  0  0  0  0  0  0  0  0  0
   11.3570  -11.1375    0.0000 C   0  0  0  0  0  0  0  0  0  0  0  0
   12.0715  -10.7250    0.0000 C   0  0  0  0  0  0  0  0  0  0  0  0
   12.0715   -9.9000    0.0000 C   0  0  0  0  0  0  0  0  0  0  0  0
   11.3570   -9.4875    0.0000 C   0  0  0  0  0  0  0  0  0  0  0  0
   12.8007   -9.4875    0.0000 N   0  0  0  0  0  0  0  0  0  0  0  0
   13.5152   -9.9000    0.0000 C   0  0  0  0  0  0  0  0  0  0  0  0
   14.2297   -9.4875    0.0000 C   0  0  0  0  0  0  0  0  0  0  0  0
    9.9281   -9.4875    0.0000 As  0  0  3  0  0  0  0  0  0  0  0  0
    9.8420   -8.6685    0.0000 S   0  0  0  0  0  0  0  0  0  0  0  0
    9.0365   -8.4973    0.0000 C   0  0  0  0  0  0  0  0  0  0  0  0
    8.6247   -9.2104    0.0000 C   0  0  3  0  0  0  0  0  0  0  0  0
    9.1757   -9.8224    0.0000 S   0  0  0  0  0  0  0  0  0  0  0  0
    7.8021   -9.2969    0.0000 C   0  0  0  0  0  0  0  0  0  0  0  0
    7.3077   -8.6165    0.0000 O   0  0  0  0  0  0  0  0  0  0  0  0
   12.7969  -11.1440    0.0000 O   0  0  0  0  0  0  0  0  0  0  0  0
   13.5152  -10.7249    0.0000 O   0  0  0  0  0  0  0  0  0  0  0  0
    9.7488  -11.2410    0.0000 H   0  0  0  0  0  0  0  0  0  0  0  0
   11.3570  -12.1695    0.0000 H   0  0  0  0  0  0  0  0  0  0  0  0
   11.3570   -8.4555    0.0000 H   0  0  0  0  0  0  0  0  0  0  0  0
   12.8050   -8.5030    0.0000 H   0  0  0  0  0  0  0  0  0  0  0  0
   15.1563  -10.0225    0.0000 H   0  0  0  0  0  0  0  0  0  0  0  0
   14.2297   -8.4175    0.0000 H   0  0  0  0  0  0  0  0  0  0  0  0
   15.1564   -8.9525    0.0000 H   0  0  0  0  0  0  0  0  0  0  0  0
    8.6013   -7.5198    0.0000 H   0  0  0  0  0  0  0  0  0  0  0  0
    7.9680   -8.4412    0.0000 H   0  0  0  0  0  0  0  0  0  0  0  0
    9.6888   -9.0986    0.0000 H   0  0  0  0  0  0  0  0  0  0  0  0
    7.3669  -10.2744    0.0000 H   0  0  0  0  0  0  0  0  0  0  0  0
    6.7380   -9.4088    0.0000 H   0  0  0  0  0  0  0  0  0  0  0  0
    7.7022   -7.7303    0.0000 H   0  0  0  0  0  0  0  0  0  0  0  0
   12.7967  -12.0810    0.0000 H   0  0  0  0  0  0  0  0  0  0  0  0
  1  2  2  0  0  0  0
  1  6  1  0  0  0  0
  1 10  1  0  0  0  0
  2  3  1  0  0  0  0
  2 19  1  0  0  0  0
  3  4  2  0  0  0  0
  3 20  1  0  0  0  0
  4  5  1  0  0  0  0
  4 17  1  0  0  0  0
  5  6  2  0  0  0  0
  5  7  1  0  0  0  0
  6 21  1  0  0  0  0
  7  8  1  0  0  0  0
  7 22  1  0  0  0  0
  8  9  1  0  0  0  0
  8 18  2  0  0  0  0
  9 23  1  0  0  0  0
  9 24  1  0  0  0  0
  9 25  1  0  0  0  0
 10 11  1  0  0  0  0
 10 14  1  0  0  0  0
 11 12  1  0  0  0  0
 12 13  1  0  0  0  0
 12 26  1  0  0  0  0
 12 27  1  0  0  0  0
 13 14  1  0  0  0  0
 13 15  1  0  0  0  0
 13 28  1  0  0  0  0
 15 16  1  0  0  0  0
 15 29  1  0  0  0  0
 15 30  1  0  0  0  0
 16 31  1  0  0  0  0
 17 32  1  0  0  0  0
M  END
>  <DRUGBANK_ID>
DB08928

>  <COMMON_NAME>
Arsthinol

>  <CAS_NUMBER>
119-96-0

>  <UNII>
QNT09A162Y

>  <SYNONYMS>
Arsthinenol; Arsthinol

$$$$
