
 OpenBabel10282417072D

114115  0  0  1  0  0  0  0  0999 V2000
    2.0185  -15.8595    0.0000 C   0  0  0  0  0  0  0  0  0  0  0  0
    2.4679  -15.1676    0.0000 C   0  0  0  0  0  0  0  0  0  0  0  0
    3.2917  -15.2108    0.0000 C   0  0  0  0  0  0  0  0  0  0  0  0
    3.7411  -14.5190    0.0000 C   0  0  0  0  0  0  0  0  0  0  0  0
    4.5650  -14.5622    0.0000 C   0  0  0  0  0  0  0  0  0  0  0  0
    5.0144  -13.8703    0.0000 C   0  0  0  0  0  0  0  0  0  0  0  0
    5.8382  -13.9136    0.0000 C   0  0  0  0  0  0  0  0  0  0  0  0
    6.2876  -13.2217    0.0000 C   0  0  0  0  0  0  0  0  0  0  0  0
    7.1115  -13.2650    0.0000 C   0  0  0  0  0  0  0  0  0  0  0  0
    7.5609  -12.5731    0.0000 C   0  0  0  0  0  0  0  0  0  0  0  0
    8.3847  -12.6163    0.0000 C   0  0  0  0  0  0  0  0  0  0  0  0
    8.8341  -11.9245    0.0000 C   0  0  0  0  0  0  0  0  0  0  0  0
    9.6580  -11.9677    0.0000 S   0  0  0  0  0  0  0  0  0  0  0  0
   10.1074  -11.2758    0.0000 C   0  0  0  0  0  0  0  0  0  0  0  0
   10.9312  -11.3191    0.0000 C   0  0  3  0  0  0  0  0  0  0  0  0
   11.3806  -10.6272    0.0000 C   0  0  0  0  0  0  0  0  0  0  0  0
   12.2045  -10.6705    0.0000 O   0  0  0  0  0  0  0  0  0  0  0  0
   12.6539   -9.9786    0.0000 P   0  0  3  0  0  0  0  0  0  0  0  0
   13.3457  -10.4280    0.0000 O   0  0  0  0  0  0  0  0  0  0  0  0
   11.9620   -9.5292    0.0000 O   0  0  0  0  0  0  0  0  0  0  0  0
   13.1032   -9.2867    0.0000 O   0  0  0  0  0  0  0  0  0  0  0  0
   13.9271   -9.3300    0.0000 C   0  0  0  0  0  0  0  0  0  0  0  0
   14.3765   -8.6381    0.0000 C   0  0  2  0  0  0  0  0  0  0  0  0
   14.0809   -7.8679    0.0000 C   0  0  2  0  0  0  0  0  0  0  0  0
   14.7221   -7.3487    0.0000 C   0  0  0  0  0  0  0  0  0  0  0  0
   15.4139   -7.7981    0.0000 C   0  0  1  0  0  0  0  0  0  0  0  0
   15.2004   -8.5950    0.0000 O   0  0  0  0  0  0  0  0  0  0  0  0
   16.1842   -7.5025    0.0000 N   0  0  0  0  0  0  0  0  0  0  0  0
   16.3133   -6.6877    0.0000 C   0  0  0  0  0  0  0  0  0  0  0  0
   17.0835   -6.3921    0.0000 C   0  0  0  0  0  0  0  0  0  0  0  0
   17.7246   -6.9113    0.0000 C   0  0  0  0  0  0  0  0  0  0  0  0
   18.4948   -6.6157    0.0000 O   0  0  0  0  0  0  0  0  0  0  0  0
   17.5955   -7.7262    0.0000 N   0  0  0  0  0  0  0  0  0  0  0  0
   16.8253   -8.0218    0.0000 C   0  0  0  0  0  0  0  0  0  0  0  0
   16.6962   -8.8366    0.0000 O   0  0  0  0  0  0  0  0  0  0  0  0
   17.2126   -5.5773    0.0000 C   0  0  0  0  0  0  0  0  0  0  0  0
   13.2840   -7.6543    0.0000 N   0  0  0  0  0  0  0  0  0  0  0  0
   13.0706   -6.8574    0.0000 N   0  3  0  0  0  0  0  0  0  0  0  0
   12.8571   -6.0605    0.0000 N   0  5  0  0  0  0  0  0  0  0  0  0
   11.3057  -12.0542    0.0000 O   0  0  0  0  0  0  0  0  0  0  0  0
   12.1296  -12.0974    0.0000 C   0  0  0  0  0  0  0  0  0  0  0  0
   12.5041  -12.8325    0.0000 C   0  0  0  0  0  0  0  0  0  0  0  0
   13.3279  -12.8758    0.0000 C   0  0  0  0  0  0  0  0  0  0  0  0
   13.7024  -13.6109    0.0000 C   0  0  0  0  0  0  0  0  0  0  0  0
   14.5263  -13.6541    0.0000 C   0  0  0  0  0  0  0  0  0  0  0  0
   14.9008  -14.3892    0.0000 C   0  0  0  0  0  0  0  0  0  0  0  0
   15.7246  -14.4325    0.0000 C   0  0  0  0  0  0  0  0  0  0  0  0
   16.0991  -15.1676    0.0000 C   0  0  0  0  0  0  0  0  0  0  0  0
   16.9230  -15.2108    0.0000 C   0  0  0  0  0  0  0  0  0  0  0  0
   17.2975  -15.9459    0.0000 C   0  0  0  0  0  0  0  0  0  0  0  0
    0.9500  -15.8034    0.0000 H   0  0  0  0  0  0  0  0  0  0  0  0
    2.5042  -16.8129    0.0000 H   0  0  0  0  0  0  0  0  0  0  0  0
    1.4357  -16.7568    0.0000 H   0  0  0  0  0  0  0  0  0  0  0  0
    1.9822  -14.2142    0.0000 H   0  0  0  0  0  0  0  0  0  0  0  0
    3.0507  -14.2702    0.0000 H   0  0  0  0  0  0  0  0  0  0  0  0
    3.7774  -16.1642    0.0000 H   0  0  0  0  0  0  0  0  0  0  0  0
    4.3602  -15.2669    0.0000 H   0  0  0  0  0  0  0  0  0  0  0  0
    3.2554  -13.5656    0.0000 H   0  0  0  0  0  0  0  0  0  0  0  0
    4.3239  -13.6217    0.0000 H   0  0  0  0  0  0  0  0  0  0  0  0
    5.0507  -15.5156    0.0000 H   0  0  0  0  0  0  0  0  0  0  0  0
    5.6335  -14.6183    0.0000 H   0  0  0  0  0  0  0  0  0  0  0  0
    4.5287  -12.9169    0.0000 H   0  0  0  0  0  0  0  0  0  0  0  0
    5.5973  -12.9730    0.0000 H   0  0  0  0  0  0  0  0  0  0  0  0
    6.3239  -14.8670    0.0000 H   0  0  0  0  0  0  0  0  0  0  0  0
    6.9067  -13.9697    0.0000 H   0  0  0  0  0  0  0  0  0  0  0  0
    5.8019  -12.2683    0.0000 H   0  0  0  0  0  0  0  0  0  0  0  0
    6.8705  -12.3244    0.0000 H   0  0  0  0  0  0  0  0  0  0  0  0
    7.5972  -14.2184    0.0000 H   0  0  0  0  0  0  0  0  0  0  0  0
    8.1800  -13.3211    0.0000 H   0  0  0  0  0  0  0  0  0  0  0  0
    7.0752  -11.6197    0.0000 H   0  0  0  0  0  0  0  0  0  0  0  0
    8.1437  -11.6757    0.0000 H   0  0  0  0  0  0  0  0  0  0  0  0
    8.8704  -13.5697    0.0000 H   0  0  0  0  0  0  0  0  0  0  0  0
    9.4532  -12.6724    0.0000 H   0  0  0  0  0  0  0  0  0  0  0  0
    8.3484  -10.9711    0.0000 H   0  0  0  0  0  0  0  0  0  0  0  0
    9.4169  -11.0272    0.0000 H   0  0  0  0  0  0  0  0  0  0  0  0
    9.6217  -10.3224    0.0000 H   0  0  0  0  0  0  0  0  0  0  0  0
   10.6903  -10.3785    0.0000 H   0  0  0  0  0  0  0  0  0  0  0  0
   10.4455  -10.3657    0.0000 H   0  0  0  0  0  0  0  0  0  0  0  0
   10.8949   -9.6738    0.0000 H   0  0  0  0  0  0  0  0  0  0  0  0
   11.9635   -9.7299    0.0000 H   0  0  0  0  0  0  0  0  0  0  0  0
   12.0128   -8.5605    0.0000 H   0  0  0  0  0  0  0  0  0  0  0  0
   14.4128  -10.2834    0.0000 H   0  0  0  0  0  0  0  0  0  0  0  0
   14.9956   -9.3861    0.0000 H   0  0  0  0  0  0  0  0  0  0  0  0
   13.3124   -8.5262    0.0000 H   0  0  0  0  0  0  0  0  0  0  0  0
   13.3649   -8.6630    0.0000 H   0  0  0  0  0  0  0  0  0  0  0  0
   14.6662   -6.2802    0.0000 H   0  0  0  0  0  0  0  0  0  0  0  0
   15.6488   -6.8138    0.0000 H   0  0  0  0  0  0  0  0  0  0  0  0
   15.5259   -6.7340    0.0000 H   0  0  0  0  0  0  0  0  0  0  0  0
   15.5113   -6.0382    0.0000 H   0  0  0  0  0  0  0  0  0  0  0  0
   18.3606   -8.3458    0.0000 H   0  0  0  0  0  0  0  0  0  0  0  0
   18.2116   -5.1939    0.0000 H   0  0  0  0  0  0  0  0  0  0  0  0
   16.3811   -4.9039    0.0000 H   0  0  0  0  0  0  0  0  0  0  0  0
   17.3800   -4.5205    0.0000 H   0  0  0  0  0  0  0  0  0  0  0  0
   12.7124  -11.2000    0.0000 H   0  0  0  0  0  0  0  0  0  0  0  0
   13.1981  -12.1535    0.0000 H   0  0  0  0  0  0  0  0  0  0  0  0
   11.9212  -13.7298    0.0000 H   0  0  0  0  0  0  0  0  0  0  0  0
   12.9897  -13.7859    0.0000 H   0  0  0  0  0  0  0  0  0  0  0  0
   13.9108  -11.9785    0.0000 H   0  0  0  0  0  0  0  0  0  0  0  0
   14.3964  -12.9319    0.0000 H   0  0  0  0  0  0  0  0  0  0  0  0
   13.1196  -14.5083    0.0000 H   0  0  0  0  0  0  0  0  0  0  0  0
   14.1881  -14.5643    0.0000 H   0  0  0  0  0  0  0  0  0  0  0  0
   15.1091  -12.7567    0.0000 H   0  0  0  0  0  0  0  0  0  0  0  0
   15.5948  -13.7102    0.0000 H   0  0  0  0  0  0  0  0  0  0  0  0
   14.3179  -15.2865    0.0000 H   0  0  0  0  0  0  0  0  0  0  0  0
   15.3864  -15.3426    0.0000 H   0  0  0  0  0  0  0  0  0  0  0  0
   16.3075  -13.5352    0.0000 H   0  0  0  0  0  0  0  0  0  0  0  0
   16.7931  -14.4886    0.0000 H   0  0  0  0  0  0  0  0  0  0  0  0
   15.5163  -16.0650    0.0000 H   0  0  0  0  0  0  0  0  0  0  0  0
   16.5848  -16.1210    0.0000 H   0  0  0  0  0  0  0  0  0  0  0  0
   17.5058  -14.3134    0.0000 H   0  0  0  0  0  0  0  0  0  0  0  0
   17.9915  -15.2669    0.0000 H   0  0  0  0  0  0  0  0  0  0  0  0
   16.7147  -16.8432    0.0000 H   0  0  0  0  0  0  0  0  0  0  0  0
   18.3660  -16.0020    0.0000 H   0  0  0  0  0  0  0  0  0  0  0  0
   17.7832  -16.8993    0.0000 H   0  0  0  0  0  0  0  0  0  0  0  0
  1  2  1  0  0  0  0
  1 51  1  0  0  0  0
  1 52  1  0  0  0  0
  1 53  1  0  0  0  0
  2  3  1  0  0  0  0
  2 54  1  0  0  0  0
  2 55  1  0  0  0  0
  3  4  1  0  0  0  0
  3 56  1  0  0  0  0
  3 57  1  0  0  0  0
  4  5  1  0  0  0  0
  4 58  1  0  0  0  0
  4 59  1  0  0  0  0
  5  6  1  0  0  0  0
  5 60  1  0  0  0  0
  5 61  1  0  0  0  0
  6  7  1  0  0  0  0
  6 62  1  0  0  0  0
  6 63  1  0  0  0  0
  7  8  1  0  0  0  0
  7 64  1  0  0  0  0
  7 65  1  0  0  0  0
  8  9  1  0  0  0  0
  8 66  1  0  0  0  0
  8 67  1  0  0  0  0
  9 10  1  0  0  0  0
  9 68  1  0  0  0  0
  9 69  1  0  0  0  0
 10 11  1  0  0  0  0
 10 70  1  0  0  0  0
 10 71  1  0  0  0  0
 11 12  1  0  0  0  0
 11 72  1  0  0  0  0
 11 73  1  0  0  0  0
 12 13  1  0  0  0  0
 12 74  1  0  0  0  0
 12 75  1  0  0  0  0
 13 14  1  0  0  0  0
 14 15  1  0  0  0  0
 14 76  1  0  0  0  0
 14 77  1  0  0  0  0
 15 16  1  0  0  0  0
 15 40  1  0  0  0  0
 15 78  1  0  0  0  0
 16 17  1  0  0  0  0
 16 79  1  0  0  0  0
 16 80  1  0  0  0  0
 17 18  1  0  0  0  0
 18 19  2  0  0  0  0
 18 20  1  0  0  0  0
 18 21  1  0  0  0  0
 20 81  1  0  0  0  0
 21 22  1  0  0  0  0
 22 82  1  0  0  0  0
 22 83  1  0  0  0  0
 23 22  1  0  0  0  0
 23 24  1  0  0  0  0
 23 27  1  0  0  0  0
 23 84  1  1  0  0  0
 24 25  1  0  0  0  0
 24 37  1  0  0  0  0
 24 85  1  6  0  0  0
 25 26  1  0  0  0  0
 25 86  1  0  0  0  0
 25 87  1  0  0  0  0
 26 27  1  0  0  0  0
 26 28  1  0  0  0  0
 26 88  1  1  0  0  0
 28 29  1  0  0  0  0
 28 34  1  0  0  0  0
 29 30  2  0  0  0  0
 29 89  1  0  0  0  0
 30 31  1  0  0  0  0
 30 36  1  0  0  0  0
 31 32  2  0  0  0  0
 31 33  1  0  0  0  0
 33 34  1  0  0  0  0
 33 90  1  0  0  0  0
 34 35  2  0  0  0  0
 36 91  1  0  0  0  0
 36 92  1  0  0  0  0
 36 93  1  0  0  0  0
 37 38  2  0  0  0  0
 38 39  2  0  0  0  0
 40 41  1  0  0  0  0
 41 42  1  0  0  0  0
 41 94  1  0  0  0  0
 41 95  1  0  0  0  0
 42 43  1  0  0  0  0
 42 96  1  0  0  0  0
 42 97  1  0  0  0  0
 43 44  1  0  0  0  0
 43 98  1  0  0  0  0
 43 99  1  0  0  0  0
 44 45  1  0  0  0  0
 44100  1  0  0  0  0
 44101  1  0  0  0  0
 45 46  1  0  0  0  0
 45102  1  0  0  0  0
 45103  1  0  0  0  0
 46 47  1  0  0  0  0
 46104  1  0  0  0  0
 46105  1  0  0  0  0
 47 48  1  0  0  0  0
 47106  1  0  0  0  0
 47107  1  0  0  0  0
 48 49  1  0  0  0  0
 48108  1  0  0  0  0
 48109  1  0  0  0  0
 49 50  1  0  0  0  0
 49110  1  0  0  0  0
 49111  1  0  0  0  0
 50112  1  0  0  0  0
 50113  1  0  0  0  0
 50114  1  0  0  0  0
M  CHG  2  38   1  39  -1
M  END
>  <DRUGBANK_ID>
DB12423

>  <COMMON_NAME>
Fozivudine Tidoxil

>  <CAS_NUMBER>
141790-23-0

>  <UNII>
687805287F

>  <SYNONYMS>
Fozivudine Tidoxil

$$$$
