
 OpenBabel10282417072D

 45 44  0  0  0  0  0  0  0  0999 V2000
   -1.4289   -0.0022    0.0000 C   0  0  0  0  0  0  0  0  0  0  0  0
   -1.4289   -0.8272    0.0000 C   0  0  0  0  0  0  0  0  0  0  0  0
   -2.1435    0.4102    0.0000 C   0  0  0  0  0  0  0  0  0  0  0  0
   -2.1435   -1.2397    0.0000 C   0  0  0  0  0  0  0  0  0  0  0  0
   -2.8580   -0.0022    0.0000 C   0  0  0  0  0  0  0  0  0  0  0  0
   -2.8580   -0.8272    0.0000 C   0  0  0  0  0  0  0  0  0  0  0  0
   -0.7144    0.4102    0.0000 C   0  0  0  0  0  0  0  0  0  0  0  0
    0.0000   -0.0022    0.0000 C   0  0  0  0  0  0  0  0  0  0  0  0
   -0.7145   -1.2397    0.0000 C   0  0  0  0  0  0  0  0  0  0  0  0
    0.0000   -0.8273    0.0000 C   0  0  0  0  0  0  0  0  0  0  0  0
    0.7146    0.4101    0.0000 C   0  0  2  0  0  0  0  0  0  0  0  0
    1.4289   -0.0024    0.0000 C   0  0  0  0  0  0  0  0  0  0  0  0
    0.7143   -1.2398    0.0000 C   0  0  0  0  0  0  0  0  0  0  0  0
    2.1436    0.4099    0.0000 C   0  0  0  0  0  0  0  0  0  0  0  0
    2.8580   -0.0027    0.0000 O   0  0  0  0  0  0  0  0  0  0  0  0
    2.1436    1.2351    0.0000 O   0  0  0  0  0  0  0  0  0  0  0  0
    0.7176    1.2398    0.0000 O   0  0  0  0  0  0  0  0  0  0  0  0
   -1.4289   -1.0722    0.0000 H   0  0  0  0  0  0  0  0  0  0  0  0
   -0.5023   -0.5372    0.0000 H   0  0  0  0  0  0  0  0  0  0  0  0
   -1.4288    0.2428    0.0000 H   0  0  0  0  0  0  0  0  0  0  0  0
   -0.5022   -0.2922    0.0000 H   0  0  0  0  0  0  0  0  0  0  0  0
   -2.1435    1.4802    0.0000 H   0  0  0  0  0  0  0  0  0  0  0  0
   -3.0701    0.9452    0.0000 H   0  0  0  0  0  0  0  0  0  0  0  0
   -2.1435   -2.3097    0.0000 H   0  0  0  0  0  0  0  0  0  0  0  0
   -3.0702   -1.7747    0.0000 H   0  0  0  0  0  0  0  0  0  0  0  0
   -3.7846    0.5329    0.0000 H   0  0  0  0  0  0  0  0  0  0  0  0
   -3.7847   -0.5372    0.0000 H   0  0  0  0  0  0  0  0  0  0  0  0
   -3.7846   -1.3622    0.0000 H   0  0  0  0  0  0  0  0  0  0  0  0
   -3.7846   -0.2922    0.0000 H   0  0  0  0  0  0  0  0  0  0  0  0
   -0.7144    1.4802    0.0000 H   0  0  0  0  0  0  0  0  0  0  0  0
    0.2122    0.9452    0.0000 H   0  0  0  0  0  0  0  0  0  0  0  0
   -0.0001   -1.0722    0.0000 H   0  0  0  0  0  0  0  0  0  0  0  0
    0.9265   -0.5374    0.0000 H   0  0  0  0  0  0  0  0  0  0  0  0
   -0.7146   -2.3097    0.0000 H   0  0  0  0  0  0  0  0  0  0  0  0
    0.2121   -1.7748    0.0000 H   0  0  0  0  0  0  0  0  0  0  0  0
    0.0001    0.2427    0.0000 H   0  0  0  0  0  0  0  0  0  0  0  0
    0.9267   -0.2924    0.0000 H   0  0  0  0  0  0  0  0  0  0  0  0
   -0.2110    0.9469    0.0000 H   0  0  0  0  0  0  0  0  0  0  0  0
    1.4287   -1.0724    0.0000 H   0  0  0  0  0  0  0  0  0  0  0  0
    2.3554   -0.5377    0.0000 H   0  0  0  0  0  0  0  0  0  0  0  0
    0.7142   -2.3098    0.0000 H   0  0  0  0  0  0  0  0  0  0  0  0
    1.6410   -0.7049    0.0000 H   0  0  0  0  0  0  0  0  0  0  0  0
    1.6409   -1.7749    0.0000 H   0  0  0  0  0  0  0  0  0  0  0  0
    2.8579   -0.9397    0.0000 H   0  0  0  0  0  0  0  0  0  0  0  0
    1.5594    1.7218    0.0000 H   0  0  0  0  0  0  0  0  0  0  0  0
  1 18  1  0  0  0  0
  1 19  1  0  0  0  0
  2 20  1  0  0  0  0
  2 21  1  0  0  0  0
  3  1  1  0  0  0  0
  3 22  1  0  0  0  0
  3 23  1  0  0  0  0
  4  2  1  0  0  0  0
  4 24  1  0  0  0  0
  4 25  1  0  0  0  0
  5  3  1  0  0  0  0
  5 26  1  0  0  0  0
  5 27  1  0  0  0  0
  6  4  1  0  0  0  0
  6  5  1  0  0  0  0
  6 28  1  0  0  0  0
  6 29  1  0  0  0  0
  7  1  1  0  0  0  0
  7 30  1  0  0  0  0
  7 31  1  0  0  0  0
  8  7  1  0  0  0  0
  8 32  1  0  0  0  0
  8 33  1  0  0  0  0
  9  2  1  0  0  0  0
  9 34  1  0  0  0  0
  9 35  1  0  0  0  0
 10  9  1  0  0  0  0
 10 36  1  0  0  0  0
 10 37  1  0  0  0  0
 11  8  1  0  0  0  0
 11 17  1  0  0  0  0
 11 38  1  6  0  0  0
 12 11  1  0  0  0  0
 12 14  1  0  0  0  0
 12 39  1  0  0  0  0
 12 40  1  0  0  0  0
 13 10  1  0  0  0  0
 13 41  1  0  0  0  0
 13 42  1  0  0  0  0
 13 43  1  0  0  0  0
 14 15  1  0  0  0  0
 14 16  2  0  0  0  0
 15 44  1  0  0  0  0
 17 45  1  0  0  0  0
M  END
>  <DRUGBANK_ID>
DB02767

>  <SECONDARY_ACCESSION_NUMBERS>
EXPT01506

>  <COMMON_NAME>
(R)-3-hydroxytetradecanoic acid

>  <CAS_NUMBER>
28715-21-1

>  <UNII>
R7C245Y68X

>  <SYNONYMS>
(−)-3-hydroxymyristic acid; (3R)-hydroxymyristic acid; (R)-(-)-3-Hydroxytetradecanoic acid; (R)-(−)-3-hydroxytetradecanoic acid; (R)-3-Hydroxymyristic acid; (R)-3-Hydroxytetradecanoic acid; D-(-)-beta-Hydroxymyristic acid; D-(−)-β-hydroxymyristic acid; β-hydroxymyristic acid; β-hydroxytetradecanoic acid

$$$$
