
 OpenBabel10282417072D

 52 55  0  0  0  0  0  0  0  0999 V2000
   -2.8508    1.6445    0.0000 C   0  0  0  0  0  0  0  0  0  0  0  0
   -2.8520    0.8172    0.0000 C   0  0  0  0  0  0  0  0  0  0  0  0
   -2.1372    0.4042    0.0000 C   0  0  0  0  0  0  0  0  0  0  0  0
   -2.1390    2.0573    0.0000 C   0  0  0  0  0  0  0  0  0  0  0  0
   -2.1414    2.8823    0.0000 O   0  0  0  0  0  0  0  0  0  0  0  0
   -1.4235    1.6482    0.0000 C   0  0  0  0  0  0  0  0  0  0  0  0
   -1.4247    0.8197    0.0000 C   0  0  0  0  0  0  0  0  0  0  0  0
   -0.7117    0.4066    0.0000 C   0  0  3  0  0  0  0  0  0  0  0  0
   -0.7094    2.0637    0.0000 C   0  0  0  0  0  0  0  0  0  0  0  0
   -0.7094    2.8887    0.0000 O   0  0  0  0  0  0  0  0  0  0  0  0
    0.0080    1.6462    0.0000 C   0  0  0  0  0  0  0  0  0  0  0  0
    0.0064    0.8213    0.0000 C   0  0  0  0  0  0  0  0  0  0  0  0
    0.7187    0.4092    0.0000 C   0  0  0  0  0  0  0  0  0  0  0  0
    1.4332    0.8209    0.0000 C   0  0  0  0  0  0  0  0  0  0  0  0
    1.4309    1.6489    0.0000 C   0  0  0  0  0  0  0  0  0  0  0  0
    0.7180    2.0572    0.0000 C   0  0  0  0  0  0  0  0  0  0  0  0
    0.7160    2.8822    0.0000 O   0  0  0  0  0  0  0  0  0  0  0  0
    2.1482    0.4089    0.0000 C   0  0  0  0  0  0  0  0  0  0  0  0
    2.8622    0.8222    0.0000 O   0  0  0  0  0  0  0  0  0  0  0  0
   -0.7123   -0.4182    0.0000 C   0  0  2  0  0  0  0  0  0  0  0  0
   -1.4306   -0.8254    0.0000 O   0  0  0  0  0  0  0  0  0  0  0  0
   -1.4332   -1.6468    0.0000 C   0  0  1  0  0  0  0  0  0  0  0  0
   -0.7209   -2.0637    0.0000 C   0  0  2  0  0  0  0  0  0  0  0  0
   -0.0043   -1.6529    0.0000 C   0  0  1  0  0  0  0  0  0  0  0  0
    0.0000   -0.8253    0.0000 C   0  0  1  0  0  0  0  0  0  0  0  0
   -2.1496   -2.0561    0.0000 C   0  0  0  0  0  0  0  0  0  0  0  0
   -2.8622   -1.6404    0.0000 O   0  0  0  0  0  0  0  0  0  0  0  0
   -0.7246   -2.8887    0.0000 O   0  0  0  0  0  0  0  0  0  0  0  0
    0.7084   -2.0684    0.0000 O   0  0  0  0  0  0  0  0  0  0  0  0
    0.7145   -0.4130    0.0000 O   0  0  0  0  0  0  0  0  0  0  0  0
   -3.7447    2.1603    0.0000 H   0  0  0  0  0  0  0  0  0  0  0  0
   -3.7462    0.3020    0.0000 H   0  0  0  0  0  0  0  0  0  0  0  0
   -2.1351   -0.6278    0.0000 H   0  0  0  0  0  0  0  0  0  0  0  0
   -1.3313    3.3532    0.0000 H   0  0  0  0  0  0  0  0  0  0  0  0
   -1.6389   -0.1274    0.0000 H   0  0  0  0  0  0  0  0  0  0  0  0
    0.7178   -0.6228    0.0000 H   0  0  0  0  0  0  0  0  0  0  0  0
    2.3230    2.1677    0.0000 H   0  0  0  0  0  0  0  0  0  0  0  0
    1.5263    3.3527    0.0000 H   0  0  0  0  0  0  0  0  0  0  0  0
    2.1493   -0.6611    0.0000 H   0  0  0  0  0  0  0  0  0  0  0  0
    3.0754   -0.1251    0.0000 H   0  0  0  0  0  0  0  0  0  0  0  0
    3.7028    0.3381    0.0000 H   0  0  0  0  0  0  0  0  0  0  0  0
   -1.6366    0.1208    0.0000 H   0  0  0  0  0  0  0  0  0  0  0  0
   -2.3578   -1.1082    0.0000 H   0  0  0  0  0  0  0  0  0  0  0  0
   -1.6503   -2.5939    0.0000 H   0  0  0  0  0  0  0  0  0  0  0  0
   -0.0082   -2.7229    0.0000 H   0  0  0  0  0  0  0  0  0  0  0  0
   -0.0022    0.2447    0.0000 H   0  0  0  0  0  0  0  0  0  0  0  0
   -2.1544   -3.1261    0.0000 H   0  0  0  0  0  0  0  0  0  0  0  0
   -3.0786   -2.5869    0.0000 H   0  0  0  0  0  0  0  0  0  0  0  0
   -2.8578   -0.6704    0.0000 H   0  0  0  0  0  0  0  0  0  0  0  0
   -1.5668   -3.3699    0.0000 H   0  0  0  0  0  0  0  0  0  0  0  0
    0.7043   -3.0384    0.0000 H   0  0  0  0  0  0  0  0  0  0  0  0
    1.5544   -0.8982    0.0000 H   0  0  0  0  0  0  0  0  0  0  0  0
  1  2  2  0  0  0  0
  1 31  1  0  0  0  0
  2  3  1  0  0  0  0
  2 32  1  0  0  0  0
  3  7  2  0  0  0  0
  3 33  1  0  0  0  0
  4  1  1  0  0  0  0
  4  5  1  0  0  0  0
  5 34  1  0  0  0  0
  6  4  2  0  0  0  0
  6  9  1  0  0  0  0
  6  7  1  0  0  0  0
  7  8  1  0  0  0  0
  8 12  1  0  0  0  0
  8 35  1  0  0  0  0
  9 10  2  0  0  0  0
 11  9  1  0  0  0  0
 11 12  2  0  0  0  0
 12 13  1  0  0  0  0
 13 14  2  0  0  0  0
 13 36  1  0  0  0  0
 14 15  1  0  0  0  0
 14 18  1  0  0  0  0
 15 16  2  0  0  0  0
 15 37  1  0  0  0  0
 16 11  1  0  0  0  0
 16 17  1  0  0  0  0
 17 38  1  0  0  0  0
 18 19  1  0  0  0  0
 18 39  1  0  0  0  0
 18 40  1  0  0  0  0
 19 41  1  0  0  0  0
 20  8  1  0  0  0  0
 20 21  1  0  0  0  0
 20 25  1  0  0  0  0
 20 42  1  6  0  0  0
 21 22  1  0  0  0  0
 22 23  1  0  0  0  0
 22 26  1  0  0  0  0
 22 43  1  6  0  0  0
 23 24  1  0  0  0  0
 23 28  1  0  0  0  0
 23 44  1  1  0  0  0
 24 25  1  0  0  0  0
 24 29  1  0  0  0  0
 24 45  1  6  0  0  0
 25 30  1  0  0  0  0
 25 46  1  1  0  0  0
 26 27  1  0  0  0  0
 26 47  1  0  0  0  0
 26 48  1  0  0  0  0
 27 49  1  0  0  0  0
 28 50  1  0  0  0  0
 29 51  1  0  0  0  0
 30 52  1  0  0  0  0
M  END
>  <DRUGBANK_ID>
DB15477

>  <COMMON_NAME>
Alloin

>  <CAS_NUMBER>
8015-61-0

>  <UNII>
W41H6S09F4

>  <SYNONYMS>
Aloin; Aloin, Cape; Aloin, curaco

$$$$
