
 OpenBabel10282417072D

 74 78  0  0  0  0  0  0  0  0999 V2000
   -1.0532    0.2676    0.0000 C   0  0  1  0  0  0  0  0  0  0  0  0
   -0.8689    1.0751    0.0000 N   0  0  0  0  0  0  0  0  0  0  0  0
   -0.5354   -0.3818    0.0000 C   0  0  1  0  0  0  0  0  0  0  0  0
   -0.1228    1.4350    0.0000 C   0  0  0  0  0  0  0  0  0  0  0  0
    0.2896   -0.3818    0.0000 C   0  0  2  0  0  0  0  0  0  0  0  0
    0.8074    0.2676    0.0000 C   0  0  2  0  0  0  0  0  0  0  0  0
    0.6231    1.0751    0.0000 N   0  0  0  0  0  0  0  0  0  0  0  0
   -1.6763    1.5139    0.0000 C   0  0  0  0  0  0  0  0  0  0  0  0
    1.3954    1.5139    0.0000 C   0  0  0  0  0  0  0  0  0  0  0  0
   -2.5891    1.5139    0.0000 C   0  0  0  0  0  0  0  0  0  0  0  0
    2.2205    1.5139    0.0000 C   0  0  0  0  0  0  0  0  0  0  0  0
   -3.0016    2.2337    0.0000 C   0  0  0  0  0  0  0  0  0  0  0  0
   -3.8266    2.2337    0.0000 C   0  0  0  0  0  0  0  0  0  0  0  0
   -3.0016    0.8030    0.0000 C   0  0  0  0  0  0  0  0  0  0  0  0
   -4.2391    1.5139    0.0000 C   0  0  0  0  0  0  0  0  0  0  0  0
   -3.8266    0.8030    0.0000 C   0  0  0  0  0  0  0  0  0  0  0  0
    3.8705    1.5139    0.0000 C   0  0  0  0  0  0  0  0  0  0  0  0
    3.4580    2.2337    0.0000 C   0  0  0  0  0  0  0  0  0  0  0  0
    2.6330    2.2337    0.0000 C   0  0  0  0  0  0  0  0  0  0  0  0
    3.4580    0.8030    0.0000 C   0  0  0  0  0  0  0  0  0  0  0  0
    2.6330    0.8030    0.0000 C   0  0  0  0  0  0  0  0  0  0  0  0
   -1.7553    0.0570    0.0000 C   0  0  0  0  0  0  0  0  0  0  0  0
    1.5447    0.1096    0.0000 C   0  0  0  0  0  0  0  0  0  0  0  0
   -2.1239   -0.5310    0.0000 O   0  0  0  0  0  0  0  0  0  0  0  0
    2.0186   -0.5310    0.0000 O   0  0  0  0  0  0  0  0  0  0  0  0
   -2.9578   -0.9962    0.0000 C   0  0  0  0  0  0  0  0  0  0  0  0
    2.9578   -0.9786    0.0000 C   0  0  0  0  0  0  0  0  0  0  0  0
   -2.9578   -1.8212    0.0000 C   0  0  0  0  0  0  0  0  0  0  0  0
   -3.6686   -0.5836    0.0000 C   0  0  0  0  0  0  0  0  0  0  0  0
   -3.6686   -2.2337    0.0000 C   0  0  0  0  0  0  0  0  0  0  0  0
   -4.3883   -0.9962    0.0000 C   0  0  0  0  0  0  0  0  0  0  0  0
   -4.3883   -1.8212    0.0000 C   0  0  0  0  0  0  0  0  0  0  0  0
    4.3883   -0.9786    0.0000 C   0  0  0  0  0  0  0  0  0  0  0  0
    4.3883   -1.8036    0.0000 C   0  0  0  0  0  0  0  0  0  0  0  0
    3.6687   -0.5661    0.0000 C   0  0  0  0  0  0  0  0  0  0  0  0
    3.6687   -2.2161    0.0000 C   0  0  0  0  0  0  0  0  0  0  0  0
    2.9578   -1.8036    0.0000 C   0  0  0  0  0  0  0  0  0  0  0  0
   -0.8863   -1.0488    0.0000 O   0  0  0  0  0  0  0  0  0  0  0  0
    0.6319   -1.0488    0.0000 O   0  0  0  0  0  0  0  0  0  0  0  0
   -0.1228    2.1547    0.0000 O   0  0  0  0  0  0  0  0  0  0  0  0
   -1.8347    0.9984    0.0000 H   0  0  0  0  0  0  0  0  0  0  0  0
   -1.6006   -0.4827    0.0000 H   0  0  0  0  0  0  0  0  0  0  0  0
   -0.2681   -1.2949    0.0000 H   0  0  0  0  0  0  0  0  0  0  0  0
    1.1675   -0.7400    0.0000 H   0  0  0  0  0  0  0  0  0  0  0  0
   -1.4127    2.5509    0.0000 H   0  0  0  0  0  0  0  0  0  0  0  0
   -2.3331    2.3586    0.0000 H   0  0  0  0  0  0  0  0  0  0  0  0
    1.1220    2.5484    0.0000 H   0  0  0  0  0  0  0  0  0  0  0  0
    2.0482    2.3617    0.0000 H   0  0  0  0  0  0  0  0  0  0  0  0
   -2.4842    3.1266    0.0000 H   0  0  0  0  0  0  0  0  0  0  0  0
   -4.3440    3.1266    0.0000 H   0  0  0  0  0  0  0  0  0  0  0  0
   -2.4866   -0.0913    0.0000 H   0  0  0  0  0  0  0  0  0  0  0  0
   -5.2711    1.5111    0.0000 H   0  0  0  0  0  0  0  0  0  0  0  0
   -4.3416   -0.0913    0.0000 H   0  0  0  0  0  0  0  0  0  0  0  0
    4.9025    1.5111    0.0000 H   0  0  0  0  0  0  0  0  0  0  0  0
    3.9754    3.1266    0.0000 H   0  0  0  0  0  0  0  0  0  0  0  0
    2.1156    3.1266    0.0000 H   0  0  0  0  0  0  0  0  0  0  0  0
    3.9730   -0.0913    0.0000 H   0  0  0  0  0  0  0  0  0  0  0  0
    2.1180   -0.0913    0.0000 H   0  0  0  0  0  0  0  0  0  0  0  0
   -2.4038    0.9081    0.0000 H   0  0  0  0  0  0  0  0  0  0  0  0
   -2.8242    0.0082    0.0000 H   0  0  0  0  0  0  0  0  0  0  0  0
    2.1243    1.0090    0.0000 H   0  0  0  0  0  0  0  0  0  0  0  0
    2.6141    0.1441    0.0000 H   0  0  0  0  0  0  0  0  0  0  0  0
   -2.0635   -2.3362    0.0000 H   0  0  0  0  0  0  0  0  0  0  0  0
   -3.6658    0.4484    0.0000 H   0  0  0  0  0  0  0  0  0  0  0  0
   -3.6658   -3.2657    0.0000 H   0  0  0  0  0  0  0  0  0  0  0  0
   -5.2813   -0.4788    0.0000 H   0  0  0  0  0  0  0  0  0  0  0  0
   -5.2812   -2.3386    0.0000 H   0  0  0  0  0  0  0  0  0  0  0  0
    5.2812   -0.4612    0.0000 H   0  0  0  0  0  0  0  0  0  0  0  0
    5.2812   -2.3210    0.0000 H   0  0  0  0  0  0  0  0  0  0  0  0
    3.6660    0.4659    0.0000 H   0  0  0  0  0  0  0  0  0  0  0  0
    3.6660   -3.2481    0.0000 H   0  0  0  0  0  0  0  0  0  0  0  0
    2.0635   -2.3186    0.0000 H   0  0  0  0  0  0  0  0  0  0  0  0
   -1.8556   -1.0869    0.0000 H   0  0  0  0  0  0  0  0  0  0  0  0
    0.1060   -1.8638    0.0000 H   0  0  0  0  0  0  0  0  0  0  0  0
  1  2  1  0  0  0  0
  1  3  1  0  0  0  0
  1 22  1  0  0  0  0
  1 41  1  6  0  0  0
  2  4  1  0  0  0  0
  2  8  1  0  0  0  0
  3  5  1  0  0  0  0
  3 38  1  0  0  0  0
  3 42  1  6  0  0  0
  4  7  1  0  0  0  0
  4 40  2  0  0  0  0
  5  6  1  0  0  0  0
  5 39  1  0  0  0  0
  5 43  1  1  0  0  0
  6  7  1  0  0  0  0
  6 23  1  0  0  0  0
  6 44  1  1  0  0  0
  7  9  1  0  0  0  0
  8 10  1  0  0  0  0
  8 45  1  0  0  0  0
  8 46  1  0  0  0  0
  9 11  1  0  0  0  0
  9 47  1  0  0  0  0
  9 48  1  0  0  0  0
 10 12  1  0  0  0  0
 10 14  2  0  0  0  0
 11 19  1  0  0  0  0
 11 21  2  0  0  0  0
 12 13  2  0  0  0  0
 12 49  1  0  0  0  0
 13 15  1  0  0  0  0
 13 50  1  0  0  0  0
 14 16  1  0  0  0  0
 14 51  1  0  0  0  0
 15 16  2  0  0  0  0
 15 52  1  0  0  0  0
 16 53  1  0  0  0  0
 17 18  1  0  0  0  0
 17 20  2  0  0  0  0
 17 54  1  0  0  0  0
 18 19  2  0  0  0  0
 18 55  1  0  0  0  0
 19 56  1  0  0  0  0
 20 21  1  0  0  0  0
 20 57  1  0  0  0  0
 21 58  1  0  0  0  0
 22 24  1  0  0  0  0
 22 59  1  0  0  0  0
 22 60  1  0  0  0  0
 23 25  1  0  0  0  0
 23 61  1  0  0  0  0
 23 62  1  0  0  0  0
 24 26  1  0  0  0  0
 25 27  1  0  0  0  0
 26 28  1  0  0  0  0
 26 29  2  0  0  0  0
 27 35  1  0  0  0  0
 27 37  2  0  0  0  0
 28 30  2  0  0  0  0
 28 63  1  0  0  0  0
 29 31  1  0  0  0  0
 29 64  1  0  0  0  0
 30 32  1  0  0  0  0
 30 65  1  0  0  0  0
 31 32  2  0  0  0  0
 31 66  1  0  0  0  0
 32 67  1  0  0  0  0
 33 34  1  0  0  0  0
 33 35  2  0  0  0  0
 33 68  1  0  0  0  0
 34 36  2  0  0  0  0
 34 69  1  0  0  0  0
 35 70  1  0  0  0  0
 36 37  1  0  0  0  0
 36 71  1  0  0  0  0
 37 72  1  0  0  0  0
 38 73  1  0  0  0  0
 39 74  1  0  0  0  0
M  END
>  <DRUGBANK_ID>
DB01732

>  <SECONDARY_ACCESSION_NUMBERS>
EXPT00460

>  <COMMON_NAME>
(4R,5S,6S,7R)-1,3-dibenzyl-4,7-bis(phenoxymethyl)-5,6-dihydroxy-1,3 diazepan-2-one

$$$$
