
 OpenBabel10282417072D

 93 98  0  0  1  0  0  0  0  0999 V2000
   11.1529    0.5152    0.0000 C   0  0  0  0  0  0  0  0  0  0  0  0
   10.7404    1.2297    0.0000 C   0  0  0  0  0  0  0  0  0  0  0  0
    9.9154    1.2297    0.0000 C   0  0  0  0  0  0  0  0  0  0  0  0
    9.5029    1.9441    0.0000 C   0  0  0  0  0  0  0  0  0  0  0  0
    8.6779    1.9441    0.0000 C   0  0  0  0  0  0  0  0  0  0  0  0
    8.2654    2.6586    0.0000 C   0  0  1  0  0  0  0  0  0  0  0  0
    7.4404    2.6586    0.0000 O   0  0  0  0  0  0  0  0  0  0  0  0
    7.0279    1.9441    0.0000 C   0  0  0  0  0  0  0  0  0  0  0  0
    7.4404    1.2297    0.0000 O   0  0  0  0  0  0  0  0  0  0  0  0
    6.2029    1.9441    0.0000 N   0  0  0  0  0  0  0  0  0  0  0  0
    5.7904    1.2297    0.0000 C   0  0  0  0  0  0  0  0  0  0  0  0
    4.9654    1.2297    0.0000 C   0  0  0  0  0  0  0  0  0  0  0  0
    4.5529    1.9441    0.0000 C   0  0  3  0  0  0  0  0  0  0  0  0
    4.9654    2.6586    0.0000 C   0  0  0  0  0  0  0  0  0  0  0  0
    5.7904    2.6586    0.0000 C   0  0  0  0  0  0  0  0  0  0  0  0
    3.7279    1.9441    0.0000 N   0  0  0  0  0  0  0  0  0  0  0  0
    3.3700    1.2008    0.0000 C   0  0  0  0  0  0  0  0  0  0  0  0
    2.5656    1.0173    0.0000 C   0  0  0  0  0  0  0  0  0  0  0  0
    1.9206    1.5316    0.0000 C   0  0  0  0  0  0  0  0  0  0  0  0
    1.9206    2.3566    0.0000 C   0  0  0  0  0  0  0  0  0  0  0  0
    2.5656    2.8710    0.0000 N   0  0  0  0  0  0  0  0  0  0  0  0
    3.3700    2.6874    0.0000 C   0  0  0  0  0  0  0  0  0  0  0  0
    3.8843    3.3325    0.0000 O   0  0  0  0  0  0  0  0  0  0  0  0
    1.2062    2.7691    0.0000 C   0  0  0  0  0  0  0  0  0  0  0  0
    0.4917    2.3566    0.0000 C   0  0  0  0  0  0  0  0  0  0  0  0
    0.4917    1.5316    0.0000 C   0  0  0  0  0  0  0  0  0  0  0  0
    1.2062    1.1191    0.0000 C   0  0  0  0  0  0  0  0  0  0  0  0
    8.6779    3.3731    0.0000 C   0  0  0  0  0  0  0  0  0  0  0  0
    9.5029    3.3731    0.0000 O   0  0  0  0  0  0  0  0  0  0  0  0
    8.2654    4.0876    0.0000 N   0  0  0  0  0  0  0  0  0  0  0  0
    7.4404    4.0876    0.0000 C   0  0  0  0  0  0  0  0  0  0  0  0
    7.0279    4.8020    0.0000 C   0  0  0  0  0  0  0  0  0  0  0  0
    7.4404    5.5165    0.0000 C   0  0  3  0  0  0  0  0  0  0  0  0
    8.2654    5.5165    0.0000 C   0  0  0  0  0  0  0  0  0  0  0  0
    8.6779    4.8020    0.0000 C   0  0  0  0  0  0  0  0  0  0  0  0
    7.0279    6.2310    0.0000 N   0  0  0  0  0  0  0  0  0  0  0  0
    6.2029    6.2310    0.0000 C   0  0  0  0  0  0  0  0  0  0  0  0
    5.7904    6.9454    0.0000 C   0  0  0  0  0  0  0  0  0  0  0  0
    6.2029    7.6599    0.0000 O   0  0  0  0  0  0  0  0  0  0  0  0
    7.0279    7.6599    0.0000 C   0  0  0  0  0  0  0  0  0  0  0  0
    7.4404    6.9454    0.0000 C   0  0  0  0  0  0  0  0  0  0  0  0
    9.9154    2.6586    0.0000 C   0  0  0  0  0  0  0  0  0  0  0  0
   10.7404    2.6586    0.0000 C   0  0  0  0  0  0  0  0  0  0  0  0
   11.1529    3.3731    0.0000 C   0  0  0  0  0  0  0  0  0  0  0  0
   11.1529    1.9441    0.0000 C   0  0  0  0  0  0  0  0  0  0  0  0
   11.9779    1.9441    0.0000 O   0  0  0  0  0  0  0  0  0  0  0  0
   10.6179   -0.4114    0.0000 H   0  0  0  0  0  0  0  0  0  0  0  0
   12.2229    0.5152    0.0000 H   0  0  0  0  0  0  0  0  0  0  0  0
   11.6879   -0.4115    0.0000 H   0  0  0  0  0  0  0  0  0  0  0  0
    9.3994    0.3360    0.0000 H   0  0  0  0  0  0  0  0  0  0  0  0
    8.1429    1.0175    0.0000 H   0  0  0  0  0  0  0  0  0  0  0  0
    7.6079    1.9441    0.0000 H   0  0  0  0  0  0  0  0  0  0  0  0
    7.7304    1.7320    0.0000 H   0  0  0  0  0  0  0  0  0  0  0  0
    6.3254    0.3030    0.0000 H   0  0  0  0  0  0  0  0  0  0  0  0
    5.2554    0.3031    0.0000 H   0  0  0  0  0  0  0  0  0  0  0  0
    4.4304    0.3030    0.0000 H   0  0  0  0  0  0  0  0  0  0  0  0
    3.8954    1.2297    0.0000 H   0  0  0  0  0  0  0  0  0  0  0  0
    5.6229    1.9441    0.0000 H   0  0  0  0  0  0  0  0  0  0  0  0
    4.4304    3.5852    0.0000 H   0  0  0  0  0  0  0  0  0  0  0  0
    5.5004    3.5852    0.0000 H   0  0  0  0  0  0  0  0  0  0  0  0
    6.3254    3.5852    0.0000 H   0  0  0  0  0  0  0  0  0  0  0  0
    6.8604    2.6586    0.0000 H   0  0  0  0  0  0  0  0  0  0  0  0
    4.0371    0.3642    0.0000 H   0  0  0  0  0  0  0  0  0  0  0  0
    3.0165    0.1909    0.0000 H   0  0  0  0  0  0  0  0  0  0  0  0
    2.3275   -0.0259    0.0000 H   0  0  0  0  0  0  0  0  0  0  0  0
    1.5557    0.6639    0.0000 H   0  0  0  0  0  0  0  0  0  0  0  0
    2.3465    3.8308    0.0000 H   0  0  0  0  0  0  0  0  0  0  0  0
    1.2062    3.8011    0.0000 H   0  0  0  0  0  0  0  0  0  0  0  0
   -0.4020    2.8726    0.0000 H   0  0  0  0  0  0  0  0  0  0  0  0
   -0.4020    1.0156    0.0000 H   0  0  0  0  0  0  0  0  0  0  0  0
    1.2062    0.0871    0.0000 H   0  0  0  0  0  0  0  0  0  0  0  0
    6.9054    3.1609    0.0000 H   0  0  0  0  0  0  0  0  0  0  0  0
    6.3704    4.0876    0.0000 H   0  0  0  0  0  0  0  0  0  0  0  0
    5.9579    4.8020    0.0000 H   0  0  0  0  0  0  0  0  0  0  0  0
    6.4929    5.7286    0.0000 H   0  0  0  0  0  0  0  0  0  0  0  0
    7.9754    4.5899    0.0000 H   0  0  0  0  0  0  0  0  0  0  0  0
    8.8004    6.4431    0.0000 H   0  0  0  0  0  0  0  0  0  0  0  0
    9.3354    5.5165    0.0000 H   0  0  0  0  0  0  0  0  0  0  0  0
    9.7479    4.8020    0.0000 H   0  0  0  0  0  0  0  0  0  0  0  0
    9.2129    3.8753    0.0000 H   0  0  0  0  0  0  0  0  0  0  0  0
    5.6679    5.3043    0.0000 H   0  0  0  0  0  0  0  0  0  0  0  0
    5.1329    6.2310    0.0000 H   0  0  0  0  0  0  0  0  0  0  0  0
    4.7204    6.9454    0.0000 H   0  0  0  0  0  0  0  0  0  0  0  0
    5.2554    7.8720    0.0000 H   0  0  0  0  0  0  0  0  0  0  0  0
    7.5629    8.5865    0.0000 H   0  0  0  0  0  0  0  0  0  0  0  0
    8.0979    7.6599    0.0000 H   0  0  0  0  0  0  0  0  0  0  0  0
    8.5104    6.9454    0.0000 H   0  0  0  0  0  0  0  0  0  0  0  0
    7.9754    6.0187    0.0000 H   0  0  0  0  0  0  0  0  0  0  0  0
    9.3994    3.5523    0.0000 H   0  0  0  0  0  0  0  0  0  0  0  0
   12.2229    3.3731    0.0000 H   0  0  0  0  0  0  0  0  0  0  0  0
   10.6179    4.2997    0.0000 H   0  0  0  0  0  0  0  0  0  0  0  0
   11.6879    4.2998    0.0000 H   0  0  0  0  0  0  0  0  0  0  0  0
   12.4464    1.1326    0.0000 H   0  0  0  0  0  0  0  0  0  0  0  0
  1  2  1  0  0  0  0
  1 47  1  0  0  0  0
  1 48  1  0  0  0  0
  1 49  1  0  0  0  0
  2  3  2  0  0  0  0
  2 45  1  0  0  0  0
  3  4  1  0  0  0  0
  3 50  1  0  0  0  0
  4  5  1  0  0  0  0
  4 42  2  0  0  0  0
  5 51  1  0  0  0  0
  5 52  1  0  0  0  0
  6  5  1  0  0  0  0
  6  7  1  0  0  0  0
  6 28  1  0  0  0  0
  6 53  1  6  0  0  0
  7  8  1  0  0  0  0
  8  9  2  0  0  0  0
  8 10  1  0  0  0  0
 10 11  1  0  0  0  0
 10 15  1  0  0  0  0
 11 12  1  0  0  0  0
 11 54  1  0  0  0  0
 11 55  1  0  0  0  0
 12 13  1  0  0  0  0
 12 56  1  0  0  0  0
 12 57  1  0  0  0  0
 13 14  1  0  0  0  0
 13 16  1  0  0  0  0
 13 58  1  0  0  0  0
 14 15  1  0  0  0  0
 14 59  1  0  0  0  0
 14 60  1  0  0  0  0
 15 61  1  0  0  0  0
 15 62  1  0  0  0  0
 16 17  1  0  0  0  0
 16 22  1  0  0  0  0
 17 18  1  0  0  0  0
 17 63  1  0  0  0  0
 17 64  1  0  0  0  0
 18 19  1  0  0  0  0
 18 65  1  0  0  0  0
 18 66  1  0  0  0  0
 19 20  2  0  0  0  0
 19 27  1  0  0  0  0
 20 21  1  0  0  0  0
 20 24  1  0  0  0  0
 21 22  1  0  0  0  0
 21 67  1  0  0  0  0
 22 23  2  0  0  0  0
 24 25  2  0  0  0  0
 24 68  1  0  0  0  0
 25 26  1  0  0  0  0
 25 69  1  0  0  0  0
 26 27  2  0  0  0  0
 26 70  1  0  0  0  0
 27 71  1  0  0  0  0
 28 29  2  0  0  0  0
 28 30  1  0  0  0  0
 30 31  1  0  0  0  0
 30 35  1  0  0  0  0
 31 32  1  0  0  0  0
 31 72  1  0  0  0  0
 31 73  1  0  0  0  0
 32 33  1  0  0  0  0
 32 74  1  0  0  0  0
 32 75  1  0  0  0  0
 33 34  1  0  0  0  0
 33 36  1  0  0  0  0
 33 76  1  0  0  0  0
 34 35  1  0  0  0  0
 34 77  1  0  0  0  0
 34 78  1  0  0  0  0
 35 79  1  0  0  0  0
 35 80  1  0  0  0  0
 36 37  1  0  0  0  0
 36 41  1  0  0  0  0
 37 38  1  0  0  0  0
 37 81  1  0  0  0  0
 37 82  1  0  0  0  0
 38 39  1  0  0  0  0
 38 83  1  0  0  0  0
 38 84  1  0  0  0  0
 39 40  1  0  0  0  0
 40 41  1  0  0  0  0
 40 85  1  0  0  0  0
 40 86  1  0  0  0  0
 41 87  1  0  0  0  0
 41 88  1  0  0  0  0
 42 43  1  0  0  0  0
 42 89  1  0  0  0  0
 43 44  1  0  0  0  0
 43 45  2  0  0  0  0
 44 90  1  0  0  0  0
 44 91  1  0  0  0  0
 44 92  1  0  0  0  0
 45 46  1  0  0  0  0
 46 93  1  0  0  0  0
M  END
>  <DRUGBANK_ID>
DB16037

>  <COMMON_NAME>
BI 44370 TA

>  <CAS_NUMBER>
866086-05-7

>  <UNII>
7L3WOA232W

$$$$
