
 OpenBabel10282417072D

123125  0  0  1  0  0  0  0  0999 V2000
    8.7331    4.3502    0.0000 C   0  0  0  0  0  0  0  0  0  0  0  0
    8.3199    3.6361    0.0000 C   0  0  1  0  0  0  0  0  0  0  0  0
    8.7317    2.9212    0.0000 N   0  0  0  0  0  0  0  0  0  0  0  0
    9.5567    2.9204    0.0000 C   0  0  0  0  0  0  0  0  0  0  0  0
    9.9699    3.6345    0.0000 O   0  0  0  0  0  0  0  0  0  0  0  0
    9.9685    2.2055    0.0000 C   0  0  2  0  0  0  0  0  0  0  0  0
   10.7935    2.2047    0.0000 C   0  0  0  0  0  0  0  0  0  0  0  0
   11.2067    2.9188    0.0000 C   0  0  0  0  0  0  0  0  0  0  0  0
   12.0317    2.9180    0.0000 C   0  0  0  0  0  0  0  0  0  0  0  0
   12.4449    3.6320    0.0000 C   0  0  1  0  0  0  0  0  0  0  0  0
   12.0331    4.3469    0.0000 N   0  0  0  0  0  0  0  0  0  0  0  0
   13.2699    3.6312    0.0000 C   0  0  0  0  0  0  0  0  0  0  0  0
   13.6831    4.3453    0.0000 O   0  0  0  0  0  0  0  0  0  0  0  0
   13.6817    2.9163    0.0000 O   0  0  0  0  0  0  0  0  0  0  0  0
    9.5553    1.4915    0.0000 N   0  0  0  0  0  0  0  0  0  0  0  0
    8.7303    1.4923    0.0000 C   0  0  0  0  0  0  0  0  0  0  0  0
    8.3185    2.2072    0.0000 O   0  0  0  0  0  0  0  0  0  0  0  0
    8.3171    0.7782    0.0000 C   0  0  0  0  0  0  0  0  0  0  0  0
    7.4921    0.7790    0.0000 C   0  0  0  0  0  0  0  0  0  0  0  0
    7.0789    0.0650    0.0000 C   0  0  1  0  0  0  0  0  0  0  0  0
    6.2539    0.0658    0.0000 N   0  0  0  0  0  0  0  0  0  0  0  0
    5.8407   -0.6483    0.0000 C   0  0  0  0  0  0  0  0  0  0  0  0
    6.2525   -1.3632    0.0000 O   0  0  0  0  0  0  0  0  0  0  0  0
    5.0157   -0.6475    0.0000 C   0  0  2  0  0  0  0  0  0  0  0  0
    4.6039    0.0674    0.0000 C   0  0  0  0  0  0  0  0  0  0  0  0
    4.6025   -1.3615    0.0000 N   0  0  0  0  0  0  0  0  0  0  0  0
    3.7775   -1.3607    0.0000 C   0  0  0  0  0  0  0  0  0  0  0  0
    3.3657   -0.6458    0.0000 O   0  0  0  0  0  0  0  0  0  0  0  0
    3.3643   -2.0748    0.0000 C   0  0  1  0  0  0  0  0  0  0  0  0
    3.7761   -2.7897    0.0000 C   0  0  0  0  0  0  0  0  0  0  0  0
    2.5393   -2.0740    0.0000 O   0  0  0  0  0  0  0  0  0  0  0  0
    2.1275   -1.3591    0.0000 C   0  0  2  0  0  0  0  0  0  0  0  0
    1.6113   -0.9304    0.0000 C   0  0  1  0  0  0  0  0  0  0  0  0
    1.3311   -1.7064    0.0000 N   0  0  0  0  0  0  0  0  0  0  0  0
    1.8630   -2.3370    0.0000 C   0  0  0  0  0  0  0  0  0  0  0  0
    2.6803   -2.4497    0.0000 C   0  0  0  0  0  0  0  0  0  0  0  0
    1.5828   -3.1130    0.0000 O   0  0  0  0  0  0  0  0  0  0  0  0
    0.6396   -0.9304    0.0000 C   0  0  2  0  0  0  0  0  0  0  0  0
    0.1197   -1.6427    0.0000 O   0  0  0  0  0  0  0  0  0  0  0  0
    0.7400   -1.2658    0.0000 C   0  0  0  0  0  0  0  0  0  0  0  0
    1.0605   -0.5572    0.0000 C   0  0  1  0  0  0  0  0  0  0  0  0
    0.4999   -0.1173    0.0000 O   0  0  0  0  0  0  0  0  0  0  0  0
    1.9893   -0.5417    0.0000 C   0  0  1  0  0  0  0  0  0  0  0  0
    2.5165    0.0928    0.0000 O   0  0  0  0  0  0  0  0  0  0  0  0
    2.2306    0.8667    0.0000 C   0  0  2  0  0  0  0  0  0  0  0  0
    1.4175    1.0061    0.0000 O   0  0  0  0  0  0  0  0  0  0  0  0
    1.1316    1.7799    0.0000 C   0  0  2  0  0  0  0  0  0  0  0  0
    0.3184    1.9193    0.0000 C   0  0  0  0  0  0  0  0  0  0  0  0
   -0.2088    1.2847    0.0000 O   0  0  0  0  0  0  0  0  0  0  0  0
    1.6588    2.4145    0.0000 C   0  0  1  0  0  0  0  0  0  0  0  0
    1.3729    3.1883    0.0000 O   0  0  0  0  0  0  0  0  0  0  0  0
    2.4720    2.2751    0.0000 C   0  0  2  0  0  0  0  0  0  0  0  0
    2.9992    2.9097    0.0000 O   0  0  0  0  0  0  0  0  0  0  0  0
    2.7579    1.5012    0.0000 C   0  0  1  0  0  0  0  0  0  0  0  0
    3.5710    1.3619    0.0000 N   0  0  0  0  0  0  0  0  0  0  0  0
    4.0983    1.9964    0.0000 C   0  0  0  0  0  0  0  0  0  0  0  0
    3.8124    2.7703    0.0000 C   0  0  0  0  0  0  0  0  0  0  0  0
    4.9114    1.8571    0.0000 O   0  0  0  0  0  0  0  0  0  0  0  0
    7.4907   -0.6499    0.0000 C   0  0  0  0  0  0  0  0  0  0  0  0
    7.0775   -1.3640    0.0000 O   0  0  0  0  0  0  0  0  0  0  0  0
    8.3157   -0.6507    0.0000 O   0  0  0  0  0  0  0  0  0  0  0  0
    7.4949    3.6369    0.0000 C   0  0  0  0  0  0  0  0  0  0  0  0
    7.0817    2.9228    0.0000 O   0  0  0  0  0  0  0  0  0  0  0  0
    7.0831    4.3518    0.0000 O   0  0  0  0  0  0  0  0  0  0  0  0
    9.8031    4.3492    0.0000 H   0  0  0  0  0  0  0  0  0  0  0  0
    8.1990    5.2774    0.0000 H   0  0  0  0  0  0  0  0  0  0  0  0
    9.2690    5.2763    0.0000 H   0  0  0  0  0  0  0  0  0  0  0  0
    9.3899    3.6351    0.0000 H   0  0  0  0  0  0  0  0  0  0  0  0
    8.2386    2.0691    0.0000 H   0  0  0  0  0  0  0  0  0  0  0  0
    8.8985    2.2066    0.0000 H   0  0  0  0  0  0  0  0  0  0  0  0
   11.3276    1.2775    0.0000 H   0  0  0  0  0  0  0  0  0  0  0  0
   11.8635    2.2037    0.0000 H   0  0  0  0  0  0  0  0  0  0  0  0
   10.6726    3.8460    0.0000 H   0  0  0  0  0  0  0  0  0  0  0  0
   11.7426    3.8449    0.0000 H   0  0  0  0  0  0  0  0  0  0  0  0
   12.5658    1.9908    0.0000 H   0  0  0  0  0  0  0  0  0  0  0  0
   13.1017    2.9169    0.0000 H   0  0  0  0  0  0  0  0  0  0  0  0
   11.3749    3.6331    0.0000 H   0  0  0  0  0  0  0  0  0  0  0  0
   12.5440    5.2297    0.0000 H   0  0  0  0  0  0  0  0  0  0  0  0
   11.0131    4.3479    0.0000 H   0  0  0  0  0  0  0  0  0  0  0  0
   14.6201    4.3444    0.0000 H   0  0  0  0  0  0  0  0  0  0  0  0
   10.0467    0.6384    0.0000 H   0  0  0  0  0  0  0  0  0  0  0  0
    8.8512   -0.1490    0.0000 H   0  0  0  0  0  0  0  0  0  0  0  0
    7.7812   -0.1479    0.0000 H   0  0  0  0  0  0  0  0  0  0  0  0
    6.9580    1.7062    0.0000 H   0  0  0  0  0  0  0  0  0  0  0  0
    6.4221    0.7801    0.0000 H   0  0  0  0  0  0  0  0  0  0  0  0
    6.5448    0.9922    0.0000 H   0  0  0  0  0  0  0  0  0  0  0  0
    5.7625    0.9189    0.0000 H   0  0  0  0  0  0  0  0  0  0  0  0
    5.5516    0.2786    0.0000 H   0  0  0  0  0  0  0  0  0  0  0  0
    5.1398    0.9935    0.0000 H   0  0  0  0  0  0  0  0  0  0  0  0
    3.5339    0.0685    0.0000 H   0  0  0  0  0  0  0  0  0  0  0  0
    4.0698    0.9946    0.0000 H   0  0  0  0  0  0  0  0  0  0  0  0
    5.0939   -2.2146    0.0000 H   0  0  0  0  0  0  0  0  0  0  0  0
    4.4343   -2.0758    0.0000 H   0  0  0  0  0  0  0  0  0  0  0  0
    3.2402   -3.7158    0.0000 H   0  0  0  0  0  0  0  0  0  0  0  0
    4.8461   -2.7908    0.0000 H   0  0  0  0  0  0  0  0  0  0  0  0
    4.3102   -3.7169    0.0000 H   0  0  0  0  0  0  0  0  0  0  0  0
    1.3092   -2.0486    0.0000 H   0  0  0  0  0  0  0  0  0  0  0  0
    1.8922   -1.9629    0.0000 H   0  0  0  0  0  0  0  0  0  0  0  0
    0.3620   -1.8798    0.0000 H   0  0  0  0  0  0  0  0  0  0  0  0
    3.0837   -3.4407    0.0000 H   0  0  0  0  0  0  0  0  0  0  0  0
    3.3369   -1.6048    0.0000 H   0  0  0  0  0  0  0  0  0  0  0  0
    3.7403   -2.5959    0.0000 H   0  0  0  0  0  0  0  0  0  0  0  0
    1.3292   -0.1122    0.0000 H   0  0  0  0  0  0  0  0  0  0  0  0
    1.5410   -1.9752    0.0000 H   0  0  0  0  0  0  0  0  0  0  0  0
    1.7864   -1.0421    0.0000 H   0  0  0  0  0  0  0  0  0  0  0  0
    0.0213   -0.8119    0.0000 H   0  0  0  0  0  0  0  0  0  0  0  0
    1.5267    0.4231    0.0000 H   0  0  0  0  0  0  0  0  0  0  0  0
    1.5467    0.0438    0.0000 H   0  0  0  0  0  0  0  0  0  0  0  0
    0.4478    0.9569    0.0000 H   0  0  0  0  0  0  0  0  0  0  0  0
   -0.0524    2.9230    0.0000 H   0  0  0  0  0  0  0  0  0  0  0  0
   -0.7362    2.1000    0.0000 H   0  0  0  0  0  0  0  0  0  0  0  0
   -1.1649    1.4484    0.0000 H   0  0  0  0  0  0  0  0  0  0  0  0
    0.6042    2.5952    0.0000 H   0  0  0  0  0  0  0  0  0  0  0  0
    1.9928    3.9344    0.0000 H   0  0  0  0  0  0  0  0  0  0  0  0
    2.1012    3.2788    0.0000 H   0  0  0  0  0  0  0  0  0  0  0  0
    3.9553    2.7460    0.0000 H   0  0  0  0  0  0  0  0  0  0  0  0
    3.4417    2.3242    0.0000 H   0  0  0  0  0  0  0  0  0  0  0  0
    3.9122    0.4384    0.0000 H   0  0  0  0  0  0  0  0  0  0  0  0
    4.4962    3.5933    0.0000 H   0  0  0  0  0  0  0  0  0  0  0  0
    2.7578    2.9510    0.0000 H   0  0  0  0  0  0  0  0  0  0  0  0
    3.4416    3.7740    0.0000 H   0  0  0  0  0  0  0  0  0  0  0  0
    6.1405   -1.3631    0.0000 H   0  0  0  0  0  0  0  0  0  0  0  0
    6.1447    2.9237    0.0000 H   0  0  0  0  0  0  0  0  0  0  0  0
  1 65  1  0  0  0  0
  1 66  1  0  0  0  0
  1 67  1  0  0  0  0
  2  1  1  0  0  0  0
  2  3  1  0  0  0  0
  2 62  1  0  0  0  0
  2 68  1  6  0  0  0
  3  4  1  0  0  0  0
  3 69  1  0  0  0  0
  4  5  2  0  0  0  0
  4  6  1  0  0  0  0
  6  7  1  0  0  0  0
  6 15  1  0  0  0  0
  6 70  1  1  0  0  0
  7  8  1  0  0  0  0
  7 71  1  0  0  0  0
  7 72  1  0  0  0  0
  8  9  1  0  0  0  0
  8 73  1  0  0  0  0
  8 74  1  0  0  0  0
  9 10  1  0  0  0  0
  9 75  1  0  0  0  0
  9 76  1  0  0  0  0
 10 11  1  0  0  0  0
 10 12  1  0  0  0  0
 10 77  1  6  0  0  0
 11 78  1  0  0  0  0
 11 79  1  0  0  0  0
 12 13  1  0  0  0  0
 12 14  2  0  0  0  0
 13 80  1  0  0  0  0
 15 16  1  0  0  0  0
 15 81  1  0  0  0  0
 16 17  2  0  0  0  0
 16 18  1  0  0  0  0
 18 19  1  0  0  0  0
 18 82  1  0  0  0  0
 18 83  1  0  0  0  0
 19 20  1  0  0  0  0
 19 84  1  0  0  0  0
 19 85  1  0  0  0  0
 20 21  1  0  0  0  0
 20 59  1  0  0  0  0
 20 86  1  1  0  0  0
 21 22  1  0  0  0  0
 21 87  1  0  0  0  0
 22 23  2  0  0  0  0
 22 24  1  0  0  0  0
 24 25  1  0  0  0  0
 24 26  1  0  0  0  0
 24 88  1  6  0  0  0
 25 89  1  0  0  0  0
 25 90  1  0  0  0  0
 25 91  1  0  0  0  0
 26 27  1  0  0  0  0
 26 92  1  0  0  0  0
 27 28  2  0  0  0  0
 27 29  1  0  0  0  0
 29 30  1  0  0  0  0
 29 31  1  0  0  0  0
 29 93  1  6  0  0  0
 30 94  1  0  0  0  0
 30 95  1  0  0  0  0
 30 96  1  0  0  0  0
 32 31  1  0  0  0  0
 32 33  1  0  0  0  0
 32 43  1  0  0  0  0
 32 97  1  1  0  0  0
 33 34  1  0  0  0  0
 33 38  1  0  0  0  0
 33 98  1  6  0  0  0
 34 35  1  0  0  0  0
 34 99  1  0  0  0  0
 35 36  1  0  0  0  0
 35 37  2  0  0  0  0
 36100  1  0  0  0  0
 36101  1  0  0  0  0
 36102  1  0  0  0  0
 38 39  1  0  0  0  0
 38 42  1  0  0  0  0
 38103  1  1  0  0  0
 39 40  1  0  0  0  0
 40 41  1  0  0  0  0
 40104  1  0  0  0  0
 40105  1  0  0  0  0
 41 42  1  0  0  0  0
 41 43  1  0  0  0  0
 41106  1  6  0  0  0
 43 44  1  0  0  0  0
 43107  1  6  0  0  0
 45 44  1  0  0  0  0
 45 46  1  0  0  0  0
 45 54  1  0  0  0  0
 45108  1  1  0  0  0
 46 47  1  0  0  0  0
 47 48  1  0  0  0  0
 47 50  1  0  0  0  0
 47109  1  1  0  0  0
 48 49  1  0  0  0  0
 48110  1  0  0  0  0
 48111  1  0  0  0  0
 49112  1  0  0  0  0
 50 51  1  0  0  0  0
 50 52  1  0  0  0  0
 50113  1  6  0  0  0
 51114  1  0  0  0  0
 52 53  1  0  0  0  0
 52 54  1  0  0  0  0
 52115  1  1  0  0  0
 53116  1  0  0  0  0
 54 55  1  0  0  0  0
 54117  1  6  0  0  0
 55 56  1  0  0  0  0
 55118  1  0  0  0  0
 56 57  1  0  0  0  0
 56 58  2  0  0  0  0
 57119  1  0  0  0  0
 57120  1  0  0  0  0
 57121  1  0  0  0  0
 59 60  1  0  0  0  0
 59 61  2  0  0  0  0
 60122  1  0  0  0  0
 62 63  1  0  0  0  0
 62 64  2  0  0  0  0
 63123  1  0  0  0  0
M  END
>  <DRUGBANK_ID>
DB04736

>  <COMMON_NAME>
2-ACETAMIDO-2-DEOXY-BETA-D-GLUCOPYRANOSE(BETA1-4)-2-ACETAMIDO-1,6-ANHYDRO-3-O-[(R)-1-CARBOXYETHYL]-2-DEOXY-BETA-D-GLUCOPYRANOSE-L-ALANYL-GAMMA-D-GLUTAMYL-MESO-DIAMINOPIMELYL-D-ALANINE

$$$$
