
 OpenBabel10282417072D

 40 43  0  0  0  0  0  0  0  0999 V2000
   -2.1431    0.3976    0.0000 N   0  0  0  0  0  0  0  0  0  0  0  0
   -2.1442   -0.4298    0.0000 C   0  0  0  0  0  0  0  0  0  0  0  0
   -1.4293   -0.8428    0.0000 N   0  0  0  0  0  0  0  0  0  0  0  0
   -1.4311    0.8102    0.0000 C   0  0  0  0  0  0  0  0  0  0  0  0
   -0.7157    0.4012    0.0000 C   0  0  0  0  0  0  0  0  0  0  0  0
   -0.7150   -0.4256    0.0000 C   0  0  0  0  0  0  0  0  0  0  0  0
    0.0003   -0.8367    0.0000 N   0  0  0  0  0  0  0  0  0  0  0  0
    0.7155   -0.4218    0.0000 C   0  0  0  0  0  0  0  0  0  0  0  0
    0.7107    0.4081    0.0000 C   0  0  0  0  0  0  0  0  0  0  0  0
   -0.0052    0.8154    0.0000 N   0  0  0  0  0  0  0  0  0  0  0  0
    1.4196    0.8232    0.0000 C   0  0  0  0  0  0  0  0  0  0  0  0
    2.1370    0.4134    0.0000 C   0  0  0  0  0  0  0  0  0  0  0  0
    2.8485    0.8295    0.0000 C   0  0  0  0  0  0  0  0  0  0  0  0
    2.8439    1.6554    0.0000 C   0  0  0  0  0  0  0  0  0  0  0  0
    2.1219    2.0634    0.0000 C   0  0  0  0  0  0  0  0  0  0  0  0
    1.4133    1.6448    0.0000 C   0  0  0  0  0  0  0  0  0  0  0  0
   -1.4336    1.6353    0.0000 N   0  0  0  0  0  0  0  0  0  0  0  0
    1.4280   -0.8275    0.0000 C   0  0  0  0  0  0  0  0  0  0  0  0
    1.4298   -1.6537    0.0000 C   0  0  0  0  0  0  0  0  0  0  0  0
    2.1451   -2.0634    0.0000 C   0  0  0  0  0  0  0  0  0  0  0  0
    2.8590   -1.6480    0.0000 C   0  0  0  0  0  0  0  0  0  0  0  0
    2.8531   -0.8187    0.0000 C   0  0  0  0  0  0  0  0  0  0  0  0
    2.1373   -0.4128    0.0000 C   0  0  0  0  0  0  0  0  0  0  0  0
    2.1139    2.8885    0.0000 O   0  0  0  0  0  0  0  0  0  0  0  0
    2.1480   -2.8885    0.0000 O   0  0  0  0  0  0  0  0  0  0  0  0
   -2.8590   -0.8418    0.0000 N   0  0  0  0  0  0  0  0  0  0  0  0
    2.1423   -0.6186    0.0000 H   0  0  0  0  0  0  0  0  0  0  0  0
    3.7451    0.3185    0.0000 H   0  0  0  0  0  0  0  0  0  0  0  0
    3.7338    2.1780    0.0000 H   0  0  0  0  0  0  0  0  0  0  0  0
    0.5150    2.1529    0.0000 H   0  0  0  0  0  0  0  0  0  0  0  0
   -0.5825    2.1301    0.0000 H   0  0  0  0  0  0  0  0  0  0  0  0
   -2.2877    2.1250    0.0000 H   0  0  0  0  0  0  0  0  0  0  0  0
    0.5375   -2.1722    0.0000 H   0  0  0  0  0  0  0  0  0  0  0  0
    3.7554   -2.1593    0.0000 H   0  0  0  0  0  0  0  0  0  0  0  0
    3.7430   -0.2961    0.0000 H   0  0  0  0  0  0  0  0  0  0  0  0
    2.1305    0.6192    0.0000 H   0  0  0  0  0  0  0  0  0  0  0  0
    2.9208    3.3648    0.0000 H   0  0  0  0  0  0  0  0  0  0  0  0
    1.3382   -3.3598    0.0000 H   0  0  0  0  0  0  0  0  0  0  0  0
   -3.7112   -0.3489    0.0000 H   0  0  0  0  0  0  0  0  0  0  0  0
   -2.8597   -1.8263    0.0000 H   0  0  0  0  0  0  0  0  0  0  0  0
  1  2  2  0  0  0  0
  2  3  1  0  0  0  0
  2 26  1  0  0  0  0
  3  6  2  0  0  0  0
  4 17  1  0  0  0  0
  4  1  1  0  0  0  0
  5  4  2  0  0  0  0
  5  6  1  0  0  0  0
  6  7  1  0  0  0  0
  7  8  2  0  0  0  0
  8  9  1  0  0  0  0
  8 18  1  0  0  0  0
  9 11  1  0  0  0  0
  9 10  2  0  0  0  0
 10  5  1  0  0  0  0
 11 12  2  0  0  0  0
 12 13  1  0  0  0  0
 12 27  1  0  0  0  0
 13 14  2  0  0  0  0
 13 28  1  0  0  0  0
 14 15  1  0  0  0  0
 14 29  1  0  0  0  0
 15 16  2  0  0  0  0
 15 24  1  0  0  0  0
 16 11  1  0  0  0  0
 16 30  1  0  0  0  0
 17 31  1  0  0  0  0
 17 32  1  0  0  0  0
 18 19  2  0  0  0  0
 19 20  1  0  0  0  0
 19 33  1  0  0  0  0
 20 21  2  0  0  0  0
 20 25  1  0  0  0  0
 21 22  1  0  0  0  0
 21 34  1  0  0  0  0
 22 23  2  0  0  0  0
 22 35  1  0  0  0  0
 23 18  1  0  0  0  0
 23 36  1  0  0  0  0
 24 37  1  0  0  0  0
 25 38  1  0  0  0  0
 26 39  1  0  0  0  0
 26 40  1  0  0  0  0
M  END
>  <DRUGBANK_ID>
DB05552

>  <COMMON_NAME>
TG100-115

>  <CAS_NUMBER>
677297-51-7

>  <UNII>
7ACH1U1E2M

>  <SYNONYMS>
3-(2,4-Diamino-6-(3-hydroxyphenyl)pteridin-7-yl)phenol; 6,7-Bis(3-hydroxyphenyl)pteridine-2,4-diamine

$$$$
