
 OpenBabel10282417072D

 49 49  0  0  0  0  0  0  0  0999 V2000
    0.1084   -1.7714    0.0000 C   0  0  2  0  0  0  0  0  0  0  0  0
    0.1084   -2.6011    0.0000 C   0  0  2  0  0  0  0  0  0  0  0  0
    0.8228   -3.0114    0.0000 C   0  0  1  0  0  0  0  0  0  0  0  0
    1.5416   -2.6011    0.0000 C   0  0  2  0  0  0  0  0  0  0  0  0
    1.5416   -1.7714    0.0000 O   0  0  0  0  0  0  0  0  0  0  0  0
    0.8228   -1.3613    0.0000 C   0  0  1  0  0  0  0  0  0  0  0  0
    0.8228   -0.5315    0.0000 S   0  0  0  0  0  0  0  0  0  0  0  0
    0.1084   -0.1213    0.0000 C   0  0  0  0  0  0  0  0  0  0  0  0
   -0.7789   -0.6008    0.0000 N   0  0  0  0  0  0  0  0  0  0  0  0
   -1.1902    0.0484    0.0000 O   0  0  0  0  0  0  0  0  0  0  0  0
   -2.0153    0.0484    0.0000 S   0  0  0  0  0  0  0  0  0  0  0  0
   -2.2296    0.8471    0.0000 O   0  0  0  0  0  0  0  0  0  0  0  0
   -2.0153   -0.7766    0.0000 O   0  0  0  0  0  0  0  0  0  0  0  0
   -2.8403    0.0484    0.0000 O   0  0  0  0  0  0  0  0  0  0  0  0
    0.1084    0.7037    0.0000 C   0  0  0  0  0  0  0  0  0  0  0  0
   -0.6057    1.1186    0.0000 C   0  0  0  0  0  0  0  0  0  0  0  0
   -0.6057    1.9436    0.0000 C   0  0  0  0  0  0  0  0  0  0  0  0
   -1.3197    2.3538    0.0000 C   0  0  0  0  0  0  0  0  0  0  0  0
   -1.3197    3.1789    0.0000 S   0  3  3  0  0  0  0  0  0  0  0  0
   -2.1188    3.3932    0.0000 C   0  0  0  0  0  0  0  0  0  0  0  0
   -0.3629    3.8365    0.0000 O   0  5  0  0  0  0  0  0  0  0  0  0
    2.1215   -3.1810    0.0000 C   0  0  0  0  0  0  0  0  0  0  0  0
    2.8403   -2.7709    0.0000 O   0  0  0  0  0  0  0  0  0  0  0  0
    0.8228   -3.8365    0.0000 O   0  0  0  0  0  0  0  0  0  0  0  0
   -0.6055   -3.0114    0.0000 O   0  0  0  0  0  0  0  0  0  0  0  0
   -0.6055   -1.3613    0.0000 O   0  0  0  0  0  0  0  0  0  0  0  0
   -0.8177   -2.3074    0.0000 H   0  0  0  0  0  0  0  0  0  0  0  0
   -0.8177   -2.0652    0.0000 H   0  0  0  0  0  0  0  0  0  0  0  0
   -0.1032   -3.5475    0.0000 H   0  0  0  0  0  0  0  0  0  0  0  0
    1.3993   -3.6616    0.0000 H   0  0  0  0  0  0  0  0  0  0  0  0
    1.7481   -0.8239    0.0000 H   0  0  0  0  0  0  0  0  0  0  0  0
   -3.3253    0.8884    0.0000 H   0  0  0  0  0  0  0  0  0  0  0  0
    1.0358    1.2374    0.0000 H   0  0  0  0  0  0  0  0  0  0  0  0
    0.1106    1.7737    0.0000 H   0  0  0  0  0  0  0  0  0  0  0  0
   -1.5331    0.5849    0.0000 H   0  0  0  0  0  0  0  0  0  0  0  0
   -1.5320    1.6542    0.0000 H   0  0  0  0  0  0  0  0  0  0  0  0
    0.3204    2.4796    0.0000 H   0  0  0  0  0  0  0  0  0  0  0  0
   -0.6074    3.0136    0.0000 H   0  0  0  0  0  0  0  0  0  0  0  0
   -2.2458    1.8178    0.0000 H   0  0  0  0  0  0  0  0  0  0  0  0
   -2.2466    2.8883    0.0000 H   0  0  0  0  0  0  0  0  0  0  0  0
   -2.3955    4.4268    0.0000 H   0  0  0  0  0  0  0  0  0  0  0  0
   -2.8756    2.6368    0.0000 H   0  0  0  0  0  0  0  0  0  0  0  0
   -3.1523    3.6704    0.0000 H   0  0  0  0  0  0  0  0  0  0  0  0
    1.9791   -4.2415    0.0000 H   0  0  0  0  0  0  0  0  0  0  0  0
    3.0089   -3.7789    0.0000 H   0  0  0  0  0  0  0  0  0  0  0  0
    3.6778   -3.2602    0.0000 H   0  0  0  0  0  0  0  0  0  0  0  0
   -0.0172   -4.3215    0.0000 H   0  0  0  0  0  0  0  0  0  0  0  0
   -1.4446   -2.5247    0.0000 H   0  0  0  0  0  0  0  0  0  0  0  0
   -0.6076   -0.3913    0.0000 H   0  0  0  0  0  0  0  0  0  0  0  0
  1  2  1  0  0  0  0
  1  6  1  0  0  0  0
  1 26  1  0  0  0  0
  1 27  1  6  0  0  0
  2  3  1  0  0  0  0
  2 25  1  0  0  0  0
  2 28  1  1  0  0  0
  3  4  1  0  0  0  0
  3 24  1  0  0  0  0
  3 29  1  6  0  0  0
  4  5  1  0  0  0  0
  4 22  1  0  0  0  0
  4 30  1  1  0  0  0
  5  6  1  0  0  0  0
  6  7  1  0  0  0  0
  6 31  1  1  0  0  0
  7  8  1  0  0  0  0
  8  9  2  0  0  0  0
  8 15  1  0  0  0  0
  9 10  1  0  0  0  0
 10 11  1  0  0  0  0
 11 12  2  0  0  0  0
 11 13  2  0  0  0  0
 11 14  1  0  0  0  0
 14 32  1  0  0  0  0
 15 16  1  0  0  0  0
 15 33  1  0  0  0  0
 15 34  1  0  0  0  0
 16 17  1  0  0  0  0
 16 35  1  0  0  0  0
 16 36  1  0  0  0  0
 17 18  1  0  0  0  0
 17 37  1  0  0  0  0
 17 38  1  0  0  0  0
 18 19  1  0  0  0  0
 18 39  1  0  0  0  0
 18 40  1  0  0  0  0
 19 20  1  0  0  0  0
 19 21  1  0  0  0  0
 20 41  1  0  0  0  0
 20 42  1  0  0  0  0
 20 43  1  0  0  0  0
 22 23  1  0  0  0  0
 22 44  1  0  0  0  0
 22 45  1  0  0  0  0
 23 46  1  0  0  0  0
 24 47  1  0  0  0  0
 25 48  1  0  0  0  0
 26 49  1  0  0  0  0
M  CHG  2  19   1  21  -1
M  END
>  <DRUGBANK_ID>
DB15436

>  <COMMON_NAME>
Glucoraphanin

>  <CAS_NUMBER>
1432982-77-8

>  <UNII>
Q86A197713

>  <SYNONYMS>
4-methylsulfinylbutyl glucosinolate; Glucorafanin; Sulforaphane glucosinolate

$$$$
