MO9
 OpenBabel10282417072D

 52 53  0  0  0  0  0  0  0  0999 V2000
   -2.4096    2.1428    0.0000 C   0  0  0  0  0  0  0  0  0  0  0  0
   -2.1396    1.3632    0.0000 C   0  0  0  0  0  0  0  0  0  0  0  0
   -2.6797    0.7396    0.0000 C   0  0  0  0  0  0  0  0  0  0  0  0
   -3.4898    0.8955    0.0000 C   0  0  0  0  0  0  0  0  0  0  0  0
   -3.7599    1.6751    0.0000 C   0  0  0  0  0  0  0  0  0  0  0  0
   -3.2198    2.2987    0.0000 C   0  0  0  0  0  0  0  0  0  0  0  0
   -1.3295    1.2073    0.0000 C   0  0  0  0  0  0  0  0  0  0  0  0
   -0.7894   -0.3518    0.0000 C   0  0  0  0  0  0  0  0  0  0  0  0
    0.0208   -0.5077    0.0000 C   0  0  1  0  0  0  0  0  0  0  0  0
    0.5608    0.1160    0.0000 C   0  0  0  0  0  0  0  0  0  0  0  0
   -1.0594    0.4278    0.0000 S   0  0  0  0  0  0  0  0  0  0  0  0
    0.2908   -1.2872    0.0000 O   0  0  0  0  0  0  0  0  0  0  0  0
   -0.2799    0.6978    0.0000 O   0  0  0  0  0  0  0  0  0  0  0  0
   -1.8390    0.1577    0.0000 O   0  0  0  0  0  0  0  0  0  0  0  0
    1.3710   -0.0399    0.0000 N   0  0  0  0  0  0  0  0  0  0  0  0
    0.2908    0.8955    0.0000 O   0  0  0  0  0  0  0  0  0  0  0  0
    1.9111    0.5837    0.0000 C   0  0  0  0  0  0  0  0  0  0  0  0
    2.7212    0.4278    0.0000 C   0  0  0  0  0  0  0  0  0  0  0  0
    1.1009   -1.4431    0.0000 C   0  0  0  0  0  0  0  0  0  0  0  0
    1.3710   -2.2227    0.0000 N   0  0  0  0  0  0  0  0  0  0  0  0
    1.6410   -0.8195    0.0000 O   0  0  0  0  0  0  0  0  0  0  0  0
    2.1811   -2.3786    0.0000 C   0  0  0  0  0  0  0  0  0  0  0  0
    2.4512   -3.1582    0.0000 C   0  0  0  0  0  0  0  0  0  0  0  0
    1.9111   -3.7818    0.0000 O   0  0  0  0  0  0  0  0  0  0  0  0
    1.1009   -3.6259    0.0000 C   0  0  0  0  0  0  0  0  0  0  0  0
    0.8309   -2.8463    0.0000 C   0  0  0  0  0  0  0  0  0  0  0  0
   -1.8696    2.7664    0.0000 O   0  0  0  0  0  0  0  0  0  0  0  0
   -2.1396    3.5460    0.0000 C   0  0  0  0  0  0  0  0  0  0  0  0
   -2.9497    3.7019    0.0000 F   0  0  0  0  0  0  0  0  0  0  0  0
   -1.5995    4.1696    0.0000 F   0  0  0  0  0  0  0  0  0  0  0  0
    3.5313    0.2719    0.0000 N   0  0  0  0  0  0  0  0  0  0  0  0
   -0.1704    0.0441    0.0000 H   0  0  0  0  0  0  0  0  0  0  0  0
   -2.3419   -0.2356    0.0000 H   0  0  0  0  0  0  0  0  0  0  0  0
   -4.1654    0.1154    0.0000 H   0  0  0  0  0  0  0  0  0  0  0  0
   -4.7733    1.8701    0.0000 H   0  0  0  0  0  0  0  0  0  0  0  0
   -3.5576    3.2739    0.0000 H   0  0  0  0  0  0  0  0  0  0  0  0
   -0.6291    2.0162    0.0000 H   0  0  0  0  0  0  0  0  0  0  0  0
   -0.2788    1.0052    0.0000 H   0  0  0  0  0  0  0  0  0  0  0  0
   -1.4899   -1.1606    0.0000 H   0  0  0  0  0  0  0  0  0  0  0  0
   -1.8401   -0.1495    0.0000 H   0  0  0  0  0  0  0  0  0  0  0  0
    1.6932   -0.9702    0.0000 H   0  0  0  0  0  0  0  0  0  0  0  0
    1.5609    1.5948    0.0000 H   0  0  0  0  0  0  0  0  0  0  0  0
    2.6116    1.3925    0.0000 H   0  0  0  0  0  0  0  0  0  0  0  0
    2.8816   -1.5697    0.0000 H   0  0  0  0  0  0  0  0  0  0  0  0
    3.2318   -2.5808    0.0000 H   0  0  0  0  0  0  0  0  0  0  0  0
    3.5019   -3.3604    0.0000 H   0  0  0  0  0  0  0  0  0  0  0  0
    2.8014   -4.1693    0.0000 H   0  0  0  0  0  0  0  0  0  0  0  0
    0.4004   -4.4347    0.0000 H   0  0  0  0  0  0  0  0  0  0  0  0
    0.0502   -3.4236    0.0000 H   0  0  0  0  0  0  0  0  0  0  0  0
   -0.2198   -2.6440    0.0000 H   0  0  0  0  0  0  0  0  0  0  0  0
    0.1304   -3.6551    0.0000 H   0  0  0  0  0  0  0  0  0  0  0  0
   -2.4898    4.5571    0.0000 H   0  0  0  0  0  0  0  0  0  0  0  0
  1  2  2  0  0  0  0
  1  6  1  0  0  0  0
  1 27  1  0  0  0  0
  2  3  1  0  0  0  0
  2  7  1  0  0  0  0
  3  4  2  0  0  0  0
  3 33  1  0  0  0  0
  4  5  1  0  0  0  0
  4 34  1  0  0  0  0
  5  6  2  0  0  0  0
  5 35  1  0  0  0  0
  6 36  1  0  0  0  0
  7 11  1  0  0  0  0
  7 37  1  0  0  0  0
  7 38  1  0  0  0  0
  8  9  1  0  0  0  0
  8 11  1  0  0  0  0
  8 39  1  0  0  0  0
  8 40  1  0  0  0  0
  9 10  1  0  0  0  0
  9 12  1  0  0  0  0
  9 32  1  6  0  0  0
 10 15  1  0  0  0  0
 10 16  2  0  0  0  0
 11 13  2  0  0  0  0
 11 14  2  0  0  0  0
 12 19  1  0  0  0  0
 15 17  1  0  0  0  0
 15 41  1  0  0  0  0
 17 18  1  0  0  0  0
 17 42  1  0  0  0  0
 17 43  1  0  0  0  0
 18 31  3  0  0  0  0
 19 20  1  0  0  0  0
 19 21  2  0  0  0  0
 20 22  1  0  0  0  0
 20 26  1  0  0  0  0
 22 23  1  0  0  0  0
 22 44  1  0  0  0  0
 22 45  1  0  0  0  0
 23 24  1  0  0  0  0
 23 46  1  0  0  0  0
 23 47  1  0  0  0  0
 24 25  1  0  0  0  0
 25 26  1  0  0  0  0
 25 48  1  0  0  0  0
 25 49  1  0  0  0  0
 26 50  1  0  0  0  0
 26 51  1  0  0  0  0
 27 28  1  0  0  0  0
 28 29  1  0  0  0  0
 28 30  1  0  0  0  0
 28 52  1  0  0  0  0
M  END
>  <DRUGBANK_ID>
DB08195

>  <COMMON_NAME>
(1R)-2-[(CYANOMETHYL)AMINO]-1-({[2-(DIFLUOROMETHOXY)BENZYL]SULFONYL}METHYL)-2-OXOETHYL MORPHOLINE-4-CARBOXYLATE

$$$$
