
 OpenBabel10282417072D

 39 38  0  0  0  0  0  0  0  0999 V2000
    0.3712   -0.2925    0.0000 Mg  0  2  0  0  0  0  0  0  0  0  0  0
   -2.2535   -1.1323    0.0000 O   0  0  0  0  0  0  0  0  0  0  0  0
    3.1009    0.0000    0.0000 O   0  0  0  0  0  0  0  0  0  0  0  0
   -0.4162   -0.0374    0.0000 O   0  5  0  0  0  0  0  0  0  0  0  0
    0.9787    0.2624    0.0000 O   0  5  0  0  0  0  0  0  0  0  0  0
   -1.6910    1.0049    0.0000 O   0  0  0  0  0  0  0  0  0  0  0  0
    1.7210    1.7323    0.0000 O   0  0  0  0  0  0  0  0  0  0  0  0
    3.1534    2.5572    0.0000 O   0  0  0  0  0  0  0  0  0  0  0  0
   -3.3334    1.1773    0.0000 O   0  0  0  0  0  0  0  0  0  0  0  0
   -0.2287   -1.8298    0.0000 O   0  0  0  0  0  0  0  0  0  0  0  0
    1.5336   -1.4473    0.0000 O   0  0  0  0  0  0  0  0  0  0  0  0
   -1.8710   -2.5572    0.0000 O   0  0  0  0  0  0  0  0  0  0  0  0
    3.3334   -1.4473    0.0000 O   0  0  0  0  0  0  0  0  0  0  0  0
   -1.8410   -0.4199    0.0000 C   0  0  2  0  0  0  0  0  0  0  0  0
    2.4335    0.4874    0.0000 C   0  0  2  0  0  0  0  0  0  0  0  0
   -2.1785    0.3375    0.0000 C   0  0  2  0  0  0  0  0  0  0  0  0
    2.4335    1.3123    0.0000 C   0  0  2  0  0  0  0  0  0  0  0  0
   -1.0311   -0.5924    0.0000 C   0  0  0  0  0  0  0  0  0  0  0  0
    1.7660    0.0000    0.0000 C   0  0  0  0  0  0  0  0  0  0  0  0
    3.1534    1.7323    0.0000 C   0  0  0  0  0  0  0  0  0  0  0  0
   -2.9960    0.4199    0.0000 C   0  0  0  0  0  0  0  0  0  0  0  0
   -0.9486   -1.4098    0.0000 C   0  0  0  0  0  0  0  0  0  0  0  0
    2.0210   -0.7799    0.0000 C   0  0  0  0  0  0  0  0  0  0  0  0
   -1.6986   -1.7473    0.0000 C   0  0  0  0  0  0  0  0  0  0  0  0
    2.8460   -0.7799    0.0000 C   0  0  0  0  0  0  0  0  0  0  0  0
   -2.5385   -0.3825    0.0000 H   0  0  0  0  0  0  0  0  0  0  0  0
    3.0634    0.8098    0.0000 H   0  0  0  0  0  0  0  0  0  0  0  0
   -0.7266    0.9010    0.0000 H   0  0  0  0  0  0  0  0  0  0  0  0
    1.7298    2.7023    0.0000 H   0  0  0  0  0  0  0  0  0  0  0  0
    3.9934    3.0422    0.0000 H   0  0  0  0  0  0  0  0  0  0  0  0
   -2.7634    1.9622    0.0000 H   0  0  0  0  0  0  0  0  0  0  0  0
   -0.2330   -2.7668    0.0000 H   0  0  0  0  0  0  0  0  0  0  0  0
    0.6020   -1.3471    0.0000 H   0  0  0  0  0  0  0  0  0  0  0  0
   -1.1145    0.2245    0.0000 H   0  0  0  0  0  0  0  0  0  0  0  0
    1.5044    0.7815    0.0000 H   0  0  0  0  0  0  0  0  0  0  0  0
    4.0813    1.1994    0.0000 H   0  0  0  0  0  0  0  0  0  0  0  0
    3.1570    0.6623    0.0000 H   0  0  0  0  0  0  0  0  0  0  0  0
   -3.6230   -0.4472    0.0000 H   0  0  0  0  0  0  0  0  0  0  0  0
   -2.5576   -0.5562    0.0000 H   0  0  0  0  0  0  0  0  0  0  0  0
  2 14  1  0  0  0  0
  2 24  1  0  0  0  0
  3 15  1  0  0  0  0
  3 25  1  0  0  0  0
  4 18  1  0  0  0  0
  5 19  1  0  0  0  0
  6 28  1  0  0  0  0
  7 29  1  0  0  0  0
  8 20  1  0  0  0  0
  8 30  1  0  0  0  0
  9 21  1  0  0  0  0
  9 31  1  0  0  0  0
 10 22  1  0  0  0  0
 10 32  1  0  0  0  0
 11 23  1  0  0  0  0
 11 33  1  0  0  0  0
 12 24  2  0  0  0  0
 13 25  2  0  0  0  0
 14 16  1  0  0  0  0
 14 18  1  0  0  0  0
 14 26  1  1  0  0  0
 15 17  1  0  0  0  0
 15 19  1  0  0  0  0
 15 27  1  6  0  0  0
 16  6  1  0  0  0  0
 16 21  1  0  0  0  0
 16 34  1  1  0  0  0
 17  7  1  0  0  0  0
 17 20  1  0  0  0  0
 17 35  1  6  0  0  0
 18 22  2  0  0  0  0
 19 23  2  0  0  0  0
 20 36  1  0  0  0  0
 20 37  1  0  0  0  0
 21 38  1  0  0  0  0
 21 39  1  0  0  0  0
 22 24  1  0  0  0  0
 23 25  1  0  0  0  0
M  CHG  3   1   2   4  -1   5  -1
M  END
>  <DRUGBANK_ID>
DB14484

>  <SECONDARY_ACCESSION_NUMBERS>
DBSALT002423

>  <COMMON_NAME>
Magnesium ascorbate

>  <CAS_NUMBER>
15431-40-0

>  <UNII>
0N1G678593

>  <SYNONYMS>
Ascorbic acid, magnesium salt; L(+)-ascorbic acid magnesium salt; Vitamin C magnesium salt

$$$$
