
 OpenBabel10282417072D

 37 40  0  0  0  0  0  0  0  0999 V2000
    5.2520    1.1270    0.0000 O   0  0  0  0  0  0  0  0  0  0  0  0
    4.8395    0.4125    0.0000 C   0  0  0  0  0  0  0  0  0  0  0  0
    5.2520   -0.3020    0.0000 O   0  0  0  0  0  0  0  0  0  0  0  0
    4.0145    0.4125    0.0000 C   0  0  0  0  0  0  0  0  0  0  0  0
    3.6020   -0.3020    0.0000 C   0  0  0  0  0  0  0  0  0  0  0  0
    2.7770   -0.3020    0.0000 C   0  0  0  0  0  0  0  0  0  0  0  0
    2.3645    0.4125    0.0000 C   0  0  0  0  0  0  0  0  0  0  0  0
    2.7770    1.1270    0.0000 C   0  0  0  0  0  0  0  0  0  0  0  0
    3.6020    1.1270    0.0000 C   0  0  0  0  0  0  0  0  0  0  0  0
    1.5395    0.4125    0.0000 C   0  0  0  0  0  0  0  0  0  0  0  0
    1.1270   -0.3020    0.0000 C   0  0  0  0  0  0  0  0  0  0  0  0
    0.3020   -0.3020    0.0000 C   0  0  0  0  0  0  0  0  0  0  0  0
   -0.1105    0.4125    0.0000 C   0  0  0  0  0  0  0  0  0  0  0  0
    0.3020    1.1270    0.0000 N   0  0  0  0  0  0  0  0  0  0  0  0
    1.1270    1.1270    0.0000 C   0  0  0  0  0  0  0  0  0  0  0  0
    1.5395   -1.0164    0.0000 C   0  0  0  0  0  0  0  0  0  0  0  0
    1.1270   -1.7309    0.0000 N   0  0  0  0  0  0  0  0  0  0  0  0
    0.3020   -1.7309    0.0000 C   0  0  0  0  0  0  0  0  0  0  0  0
   -0.1105   -2.4454    0.0000 C   0  0  0  0  0  0  0  0  0  0  0  0
   -0.9355   -2.4454    0.0000 C   0  0  0  0  0  0  0  0  0  0  0  0
   -1.3480   -3.1599    0.0000 Cl  0  0  0  0  0  0  0  0  0  0  0  0
   -1.3480   -1.7309    0.0000 C   0  0  0  0  0  0  0  0  0  0  0  0
   -0.9355   -1.0164    0.0000 C   0  0  0  0  0  0  0  0  0  0  0  0
   -0.1105   -1.0164    0.0000 C   0  0  0  0  0  0  0  0  0  0  0  0
    2.3645   -1.0164    0.0000 N   0  0  0  0  0  0  0  0  0  0  0  0
    6.1890    1.1270    0.0000 H   0  0  0  0  0  0  0  0  0  0  0  0
    4.1180   -1.1957    0.0000 H   0  0  0  0  0  0  0  0  0  0  0  0
    2.2610    2.0207    0.0000 H   0  0  0  0  0  0  0  0  0  0  0  0
    4.1180    2.0207    0.0000 H   0  0  0  0  0  0  0  0  0  0  0  0
   -0.2140   -1.1957    0.0000 H   0  0  0  0  0  0  0  0  0  0  0  0
   -1.1425    0.4125    0.0000 H   0  0  0  0  0  0  0  0  0  0  0  0
    1.6430    2.0207    0.0000 H   0  0  0  0  0  0  0  0  0  0  0  0
    1.6193   -2.5835    0.0000 H   0  0  0  0  0  0  0  0  0  0  0  0
    0.4055   -3.3391    0.0000 H   0  0  0  0  0  0  0  0  0  0  0  0
   -2.3800   -1.7309    0.0000 H   0  0  0  0  0  0  0  0  0  0  0  0
   -1.4515   -0.1227    0.0000 H   0  0  0  0  0  0  0  0  0  0  0  0
    0.4055   -0.1227    0.0000 H   0  0  0  0  0  0  0  0  0  0  0  0
  1  2  1  0  0  0  0
  1 26  1  0  0  0  0
  2  3  2  0  0  0  0
  2  4  1  0  0  0  0
  4  5  2  0  0  0  0
  4  9  1  0  0  0  0
  5  6  1  0  0  0  0
  5 27  1  0  0  0  0
  6  7  2  0  0  0  0
  6 25  1  0  0  0  0
  7  8  1  0  0  0  0
  7 10  1  0  0  0  0
  8  9  2  0  0  0  0
  8 28  1  0  0  0  0
  9 29  1  0  0  0  0
 10 11  2  0  0  0  0
 10 15  1  0  0  0  0
 11 12  1  0  0  0  0
 11 16  1  0  0  0  0
 12 13  2  0  0  0  0
 12 30  1  0  0  0  0
 13 14  1  0  0  0  0
 13 31  1  0  0  0  0
 14 15  2  0  0  0  0
 15 32  1  0  0  0  0
 16 17  1  0  0  0  0
 16 25  2  0  0  0  0
 17 18  1  0  0  0  0
 17 33  1  0  0  0  0
 18 19  2  0  0  0  0
 18 24  1  0  0  0  0
 19 20  1  0  0  0  0
 19 34  1  0  0  0  0
 20 21  1  0  0  0  0
 20 22  2  0  0  0  0
 22 23  1  0  0  0  0
 22 35  1  0  0  0  0
 23 24  2  0  0  0  0
 23 36  1  0  0  0  0
 24 37  1  0  0  0  0
M  END
>  <DRUGBANK_ID>
DB15408

>  <COMMON_NAME>
Silmitasertib

>  <CAS_NUMBER>
1009820-21-6

>  <UNII>
C6RWP0N0L2

>  <SYNONYMS>
Silmitasertib

$$$$
