5BP
 OpenBabel10282417072D

 31 34  0  0  0  0  0  0  0  0999 V2000
   -0.4636    2.1865    0.0000 N   0  0  0  0  0  0  0  0  0  0  0  0
    0.3210    1.1065    0.0000 C   0  0  0  0  0  0  0  0  0  0  0  0
    1.0355    0.6940    0.0000 C   0  0  0  0  0  0  0  0  0  0  0  0
    1.7499    1.1065    0.0000 C   0  0  0  0  0  0  0  0  0  0  0  0
    1.7499    1.9315    0.0000 C   0  0  0  0  0  0  0  0  0  0  0  0
   -0.7186    0.0670    0.0000 C   0  0  0  0  0  0  0  0  0  0  0  0
   -1.5256   -0.1046    0.0000 C   0  0  0  0  0  0  0  0  0  0  0  0
    0.9375   -1.7723    0.0000 C   0  0  0  0  0  0  0  0  0  0  0  0
   -0.9486    1.5190    0.0000 C   0  0  0  0  0  0  0  0  0  0  0  0
   -0.4636    0.8516    0.0000 C   0  0  0  0  0  0  0  0  0  0  0  0
    1.0355    2.3440    0.0000 N   0  0  0  0  0  0  0  0  0  0  0  0
    0.3210    1.9315    0.0000 N   0  0  0  0  0  0  0  0  0  0  0  0
   -0.1665   -0.5461    0.0000 N   0  0  0  0  0  0  0  0  0  0  0  0
   -0.4215   -1.3307    0.0000 C   0  0  0  0  0  0  0  0  0  0  0  0
   -1.2285   -1.5023    0.0000 N   0  0  0  0  0  0  0  0  0  0  0  0
   -1.7805   -0.8892    0.0000 C   0  0  0  0  0  0  0  0  0  0  0  0
    0.1305   -1.9438    0.0000 N   0  0  0  0  0  0  0  0  0  0  0  0
    1.7221   -2.0272    0.0000 C   0  0  0  0  0  0  0  0  0  0  0  0
    1.5506   -1.2203    0.0000 C   0  0  0  0  0  0  0  0  0  0  0  0
    1.0355   -0.3380    0.0000 H   0  0  0  0  0  0  0  0  0  0  0  0
    2.6436    0.5905    0.0000 H   0  0  0  0  0  0  0  0  0  0  0  0
    2.6436    2.4475    0.0000 H   0  0  0  0  0  0  0  0  0  0  0  0
   -2.2162    0.6623    0.0000 H   0  0  0  0  0  0  0  0  0  0  0  0
    0.8815   -2.8408    0.0000 H   0  0  0  0  0  0  0  0  0  0  0  0
   -1.9806    1.5190    0.0000 H   0  0  0  0  0  0  0  0  0  0  0  0
   -2.7899   -1.1038    0.0000 H   0  0  0  0  0  0  0  0  0  0  0  0
   -0.1738   -2.8801    0.0000 H   0  0  0  0  0  0  0  0  0  0  0  0
    2.4381   -2.8224    0.0000 H   0  0  0  0  0  0  0  0  0  0  0  0
    2.6755   -1.5414    0.0000 H   0  0  0  0  0  0  0  0  0  0  0  0
    1.8813   -0.2027    0.0000 H   0  0  0  0  0  0  0  0  0  0  0  0
    2.6191   -1.2763    0.0000 H   0  0  0  0  0  0  0  0  0  0  0  0
  1 12  1  0  0  0  0
  2 12  1  0  0  0  0
  2  3  1  0  0  0  0
  3  4  2  0  0  0  0
  3 20  1  0  0  0  0
  4  5  1  0  0  0  0
  4 21  1  0  0  0  0
  5 22  1  0  0  0  0
  6 13  1  0  0  0  0
  6 10  1  0  0  0  0
  7  6  2  0  0  0  0
  7 23  1  0  0  0  0
  8 19  1  0  0  0  0
  8 18  1  0  0  0  0
  8 24  1  0  0  0  0
  9  1  2  0  0  0  0
  9 10  1  0  0  0  0
  9 25  1  0  0  0  0
 10  2  2  0  0  0  0
 11  5  2  0  0  0  0
 12 11  1  0  0  0  0
 14 13  2  0  0  0  0
 14 17  1  0  0  0  0
 15 14  1  0  0  0  0
 16  7  1  0  0  0  0
 16 15  2  0  0  0  0
 16 26  1  0  0  0  0
 17  8  1  0  0  0  0
 17 27  1  0  0  0  0
 18 28  1  0  0  0  0
 18 29  1  0  0  0  0
 19 18  1  0  0  0  0
 19 30  1  0  0  0  0
 19 31  1  0  0  0  0
M  END
>  <DRUGBANK_ID>
DB07164

>  <COMMON_NAME>
N-cyclopropyl-4-pyrazolo[1,5-b]pyridazin-3-ylpyrimidin-2-amine

$$$$
