276
 OpenBabel10282417072D

 47 50  0  0  0  0  0  0  0  0999 V2000
    6.7073    2.0768    0.0000 S   0  0  0  0  0  0  0  0  0  0  0  0
    3.8495    1.2518    0.0000 O   0  0  0  0  0  0  0  0  0  0  0  0
    5.8823    2.0768    0.0000 O   0  0  0  0  0  0  0  0  0  0  0  0
    7.5323    2.0768    0.0000 O   0  0  0  0  0  0  0  0  0  0  0  0
    3.8495   -0.3982    0.0000 N   0  0  0  0  0  0  0  0  0  0  0  0
    3.8495   -2.8732    0.0000 N   0  0  0  0  0  0  0  0  0  0  0  0
    6.7073    1.2518    0.0000 N   0  0  0  0  0  0  0  0  0  0  0  0
    3.8495   -1.2232    0.0000 C   0  0  0  0  0  0  0  0  0  0  0  0
    3.1350   -1.6357    0.0000 C   0  0  0  0  0  0  0  0  0  0  0  0
    4.5640   -1.6357    0.0000 C   0  0  0  0  0  0  0  0  0  0  0  0
    3.1350   -2.4607    0.0000 C   0  0  0  0  0  0  0  0  0  0  0  0
    4.5640   -2.4607    0.0000 C   0  0  0  0  0  0  0  0  0  0  0  0
    4.5640    0.0143    0.0000 C   0  0  0  0  0  0  0  0  0  0  0  0
    2.3975   -1.1946    0.0000 C   0  0  0  0  0  0  0  0  0  0  0  0
    5.3015   -1.1946    0.0000 C   0  0  0  0  0  0  0  0  0  0  0  0
    4.5640    0.8393    0.0000 C   0  0  0  0  0  0  0  0  0  0  0  0
    5.9929    0.8393    0.0000 C   0  0  0  0  0  0  0  0  0  0  0  0
    5.2784   -0.3982    0.0000 C   0  0  0  0  0  0  0  0  0  0  0  0
    2.3975   -2.9018    0.0000 C   0  0  0  0  0  0  0  0  0  0  0  0
    5.3015   -2.9018    0.0000 C   0  0  0  0  0  0  0  0  0  0  0  0
    5.2784    1.2518    0.0000 C   0  0  0  0  0  0  0  0  0  0  0  0
    5.9929    0.0143    0.0000 C   0  0  0  0  0  0  0  0  0  0  0  0
    1.6500   -1.6186    0.0000 C   0  0  0  0  0  0  0  0  0  0  0  0
    6.0490   -1.6186    0.0000 C   0  0  0  0  0  0  0  0  0  0  0  0
    1.6500   -2.4779    0.0000 C   0  0  0  0  0  0  0  0  0  0  0  0
    6.0490   -2.4779    0.0000 C   0  0  0  0  0  0  0  0  0  0  0  0
    6.7073    2.9018    0.0000 C   0  0  0  0  0  0  0  0  0  0  0  0
    3.8495    2.0768    0.0000 C   0  0  0  0  0  0  0  0  0  0  0  0
    2.9969    0.0941    0.0000 H   0  0  0  0  0  0  0  0  0  0  0  0
    7.5599    0.7596    0.0000 H   0  0  0  0  0  0  0  0  0  0  0  0
    2.4094   -0.1627    0.0000 H   0  0  0  0  0  0  0  0  0  0  0  0
    5.2896   -0.1627    0.0000 H   0  0  0  0  0  0  0  0  0  0  0  0
    5.2784   -1.4302    0.0000 H   0  0  0  0  0  0  0  0  0  0  0  0
    2.4094   -3.9337    0.0000 H   0  0  0  0  0  0  0  0  0  0  0  0
    5.2896   -3.9337    0.0000 H   0  0  0  0  0  0  0  0  0  0  0  0
    5.2784    2.2838    0.0000 H   0  0  0  0  0  0  0  0  0  0  0  0
    6.8866   -0.5017    0.0000 H   0  0  0  0  0  0  0  0  0  0  0  0
    0.7582   -1.0992    0.0000 H   0  0  0  0  0  0  0  0  0  0  0  0
    6.9408   -1.0992    0.0000 H   0  0  0  0  0  0  0  0  0  0  0  0
    0.7583   -2.9974    0.0000 H   0  0  0  0  0  0  0  0  0  0  0  0
    6.9407   -2.9974    0.0000 H   0  0  0  0  0  0  0  0  0  0  0  0
    7.6339    3.4368    0.0000 H   0  0  0  0  0  0  0  0  0  0  0  0
    5.7807    3.4368    0.0000 H   0  0  0  0  0  0  0  0  0  0  0  0
    6.7073    3.9718    0.0000 H   0  0  0  0  0  0  0  0  0  0  0  0
    4.7761    2.6118    0.0000 H   0  0  0  0  0  0  0  0  0  0  0  0
    2.9229    2.6118    0.0000 H   0  0  0  0  0  0  0  0  0  0  0  0
    3.8495    3.1468    0.0000 H   0  0  0  0  0  0  0  0  0  0  0  0
  1  3  2  0  0  0  0
  1  4  2  0  0  0  0
  1  7  1  0  0  0  0
  1 27  1  0  0  0  0
  2 16  1  0  0  0  0
  2 28  1  0  0  0  0
  5  8  1  0  0  0  0
  5 13  1  0  0  0  0
  5 29  1  0  0  0  0
  6 11  2  0  0  0  0
  6 12  1  0  0  0  0
  7 17  1  0  0  0  0
  7 30  1  0  0  0  0
  8  9  2  0  0  0  0
  8 10  1  0  0  0  0
  9 11  1  0  0  0  0
  9 14  1  0  0  0  0
 10 12  1  0  0  0  0
 10 15  2  0  0  0  0
 11 19  1  0  0  0  0
 12 20  2  0  0  0  0
 13 16  2  0  0  0  0
 13 18  1  0  0  0  0
 14 23  2  0  0  0  0
 14 31  1  0  0  0  0
 15 24  1  0  0  0  0
 15 32  1  0  0  0  0
 16 21  1  0  0  0  0
 17 21  2  0  0  0  0
 17 22  1  0  0  0  0
 18 22  2  0  0  0  0
 18 33  1  0  0  0  0
 19 25  2  0  0  0  0
 19 34  1  0  0  0  0
 20 26  1  0  0  0  0
 20 35  1  0  0  0  0
 21 36  1  0  0  0  0
 22 37  1  0  0  0  0
 23 25  1  0  0  0  0
 23 38  1  0  0  0  0
 24 26  2  0  0  0  0
 24 39  1  0  0  0  0
 25 40  1  0  0  0  0
 26 41  1  0  0  0  0
 27 42  1  0  0  0  0
 27 43  1  0  0  0  0
 27 44  1  0  0  0  0
 28 45  1  0  0  0  0
 28 46  1  0  0  0  0
 28 47  1  0  0  0  0
M  END
>  <DRUGBANK_ID>
DB00276

>  <SECONDARY_ACCESSION_NUMBERS>
APRD00064

>  <COMMON_NAME>
Amsacrine

>  <CAS_NUMBER>
51264-14-3

>  <UNII>
00DPD30SOY

>  <SYNONYMS>
4'-(9-Acridinylamino)-3'-methoxymethanesulfonanilide; 4'-(9-Acridinylamino)methanesulfon-m-anisidide; 4'-(9-Acridinylamino)methanesulfon-meta-anisidide; 4'-(9-Acridinylamino)methanesulphon-m-anisidide; Acridinyl anisidide; Amsacrina; Amsacrine; Amsacrinum; m-AMSA; mAMSA

$$$$
