
 OpenBabel10282417072D

 47 49  0  0  0  0  0  0  0  0999 V2000
   -1.7861   -1.0312    0.0000 C   0  0  0  0  0  0  0  0  0  0  0  0
   -2.5006   -0.6187    0.0000 C   0  0  0  0  0  0  0  0  0  0  0  0
   -1.0717   -0.6187    0.0000 C   0  0  0  0  0  0  0  0  0  0  0  0
   -2.5006    0.2062    0.0000 C   0  0  0  0  0  0  0  0  0  0  0  0
    1.0717   -1.0312    0.0000 C   0  0  0  0  0  0  0  0  0  0  0  0
    1.0717    3.0937    0.0000 C   0  0  0  0  0  0  0  0  0  0  0  0
    1.0717   -1.8562    0.0000 C   0  0  0  0  0  0  0  0  0  0  0  0
    0.3572    2.6812    0.0000 C   0  0  0  0  0  0  0  0  0  0  0  0
    1.7861    1.8562    0.0000 C   0  0  0  0  0  0  0  0  0  0  0  0
   -0.3572   -1.0312    0.0000 C   0  0  0  0  0  0  0  0  0  0  0  0
   -0.3572    0.6187    0.0000 C   0  0  0  0  0  0  0  0  0  0  0  0
    1.0717    0.6187    0.0000 C   0  0  0  0  0  0  0  0  0  0  0  0
   -1.0717    0.2062    0.0000 C   0  0  0  0  0  0  0  0  0  0  0  0
    1.0717    1.4437    0.0000 C   0  0  0  0  0  0  0  0  0  0  0  0
    0.3572   -0.6187    0.0000 C   0  0  0  0  0  0  0  0  0  0  0  0
    1.7861    2.6812    0.0000 C   0  0  0  0  0  0  0  0  0  0  0  0
   -0.3572   -1.8562    0.0000 C   0  0  0  0  0  0  0  0  0  0  0  0
   -1.7861    0.6187    0.0000 C   0  0  0  0  0  0  0  0  0  0  0  0
    0.3572    1.8562    0.0000 C   0  0  0  0  0  0  0  0  0  0  0  0
    0.3572   -2.2687    0.0000 C   0  0  0  0  0  0  0  0  0  0  0  0
   -1.0717   -2.2687    0.0000 C   0  0  0  0  0  0  0  0  0  0  0  0
    0.3572    0.2062    0.0000 N   0  0  0  0  0  0  0  0  0  0  0  0
    2.5006    3.0937    0.0000 O   0  0  0  0  0  0  0  0  0  0  0  0
   -1.7861    1.4437    0.0000 O   0  0  0  0  0  0  0  0  0  0  0  0
   -0.3572    1.4437    0.0000 O   0  0  0  0  0  0  0  0  0  0  0  0
    0.3572   -3.0937    0.0000 O   0  0  0  0  0  0  0  0  0  0  0  0
   -1.7861   -1.8562    0.0000 O   0  0  0  0  0  0  0  0  0  0  0  0
   -1.0717   -3.0937    0.0000 O   0  0  0  0  0  0  0  0  0  0  0  0
   -1.7861   -2.0632    0.0000 H   0  0  0  0  0  0  0  0  0  0  0  0
   -3.3943   -1.1347    0.0000 H   0  0  0  0  0  0  0  0  0  0  0  0
   -0.1780   -1.1347    0.0000 H   0  0  0  0  0  0  0  0  0  0  0  0
   -3.3943    0.7222    0.0000 H   0  0  0  0  0  0  0  0  0  0  0  0
    1.9654   -0.5152    0.0000 H   0  0  0  0  0  0  0  0  0  0  0  0
    1.0717    4.1257    0.0000 H   0  0  0  0  0  0  0  0  0  0  0  0
    1.9654   -2.3722    0.0000 H   0  0  0  0  0  0  0  0  0  0  0  0
   -0.5365    3.1972    0.0000 H   0  0  0  0  0  0  0  0  0  0  0  0
    2.6798    1.3402    0.0000 H   0  0  0  0  0  0  0  0  0  0  0  0
   -1.2509   -0.5152    0.0000 H   0  0  0  0  0  0  0  0  0  0  0  0
   -0.3572    1.6887    0.0000 H   0  0  0  0  0  0  0  0  0  0  0  0
    0.5695    1.1537    0.0000 H   0  0  0  0  0  0  0  0  0  0  0  0
    1.9983    0.0837    0.0000 H   0  0  0  0  0  0  0  0  0  0  0  0
    1.0717   -0.4513    0.0000 H   0  0  0  0  0  0  0  0  0  0  0  0
    3.3121    2.6252    0.0000 H   0  0  0  0  0  0  0  0  0  0  0  0
   -0.9746    1.9122    0.0000 H   0  0  0  0  0  0  0  0  0  0  0  0
   -1.1687    1.9122    0.0000 H   0  0  0  0  0  0  0  0  0  0  0  0
   -0.4543   -3.5622    0.0000 H   0  0  0  0  0  0  0  0  0  0  0  0
   -1.8832   -3.5622    0.0000 H   0  0  0  0  0  0  0  0  0  0  0  0
  1 29  1  0  0  0  0
  2  1  2  0  0  0  0
  2 30  1  0  0  0  0
  3  1  1  0  0  0  0
  3 31  1  0  0  0  0
  4  2  1  0  0  0  0
  4 32  1  0  0  0  0
  5 33  1  0  0  0  0
  6 34  1  0  0  0  0
  7  5  2  0  0  0  0
  7 35  1  0  0  0  0
  8  6  1  0  0  0  0
  8 36  1  0  0  0  0
  9 37  1  0  0  0  0
 10 38  1  0  0  0  0
 11 39  1  0  0  0  0
 11 40  1  0  0  0  0
 12 41  1  0  0  0  0
 12 42  1  0  0  0  0
 13  3  2  0  0  0  0
 13 11  1  0  0  0  0
 14  9  2  0  0  0  0
 14 12  1  0  0  0  0
 15  5  1  0  0  0  0
 15 10  2  0  0  0  0
 16  6  2  0  0  0  0
 16  9  1  0  0  0  0
 17 10  1  0  0  0  0
 18  4  2  0  0  0  0
 18 13  1  0  0  0  0
 19  8  2  0  0  0  0
 19 14  1  0  0  0  0
 20  7  1  0  0  0  0
 20 17  2  0  0  0  0
 21 17  1  0  0  0  0
 22 11  1  0  0  0  0
 22 12  1  0  0  0  0
 22 15  1  0  0  0  0
 23 16  1  0  0  0  0
 23 43  1  0  0  0  0
 24 18  1  0  0  0  0
 24 44  1  0  0  0  0
 25 19  1  0  0  0  0
 25 45  1  0  0  0  0
 26 20  1  0  0  0  0
 26 46  1  0  0  0  0
 27 21  2  0  0  0  0
 28 21  1  0  0  0  0
 28 47  1  0  0  0  0
M  END
>  <DRUGBANK_ID>
DB16768

>  <COMMON_NAME>
Lavendustin A

>  <CAS_NUMBER>
125697-92-9

>  <UNII>
3Y0G32G2RV

$$$$
