LZC
 OpenBabel10282417072D

 46 48  0  0  0  0  0  0  0  0999 V2000
   13.8240    7.8481    0.0000 C   0  0  0  0  0  0  0  0  0  0  0  0
   13.8240    7.0231    0.0000 C   0  0  0  0  0  0  0  0  0  0  0  0
   13.1096    6.6106    0.0000 C   0  0  0  0  0  0  0  0  0  0  0  0
   14.5385    6.6106    0.0000 N   0  0  0  0  0  0  0  0  0  0  0  0
   14.5385    5.7856    0.0000 C   0  0  0  0  0  0  0  0  0  0  0  0
   15.2530    5.3731    0.0000 C   0  0  0  0  0  0  0  0  0  0  0  0
   15.2530    4.5481    0.0000 C   0  0  0  0  0  0  0  0  0  0  0  0
   15.9675    4.1356    0.0000 N   0  0  0  0  0  0  0  0  0  0  0  0
   15.9675    3.3106    0.0000 C   0  0  1  0  0  0  0  0  0  0  0  0
   16.6819    2.8981    0.0000 C   0  0  0  0  0  0  0  0  0  0  0  0
   16.6819    2.0731    0.0000 C   0  0  0  0  0  0  0  0  0  0  0  0
   15.9675    1.6606    0.0000 C   0  0  2  0  0  0  0  0  0  0  0  0
   15.9675    0.8356    0.0000 N   0  0  0  0  0  0  0  0  0  0  0  0
   15.2530    2.0731    0.0000 C   0  0  0  0  0  0  0  0  0  0  0  0
   15.2530    2.8981    0.0000 C   0  0  0  0  0  0  0  0  0  0  0  0
   14.5385    4.1356    0.0000 N   0  0  0  0  0  0  0  0  0  0  0  0
   13.8240    4.5481    0.0000 C   0  0  0  0  0  0  0  0  0  0  0  0
   13.0394    4.2932    0.0000 C   0  0  0  0  0  0  0  0  0  0  0  0
   12.7845    3.5085    0.0000 C   0  0  0  0  0  0  0  0  0  0  0  0
   12.5295    2.7239    0.0000 N   0  0  0  0  0  0  0  0  0  0  0  0
   12.5545    4.9606    0.0000 C   0  0  0  0  0  0  0  0  0  0  0  0
   13.0394    5.6280    0.0000 N   0  0  0  0  0  0  0  0  0  0  0  0
   13.8240    5.3731    0.0000 N   0  0  0  0  0  0  0  0  0  0  0  0
   16.4732    3.6026    0.0000 H   0  0  0  0  0  0  0  0  0  0  0  0
   16.4732    1.3686    0.0000 H   0  0  0  0  0  0  0  0  0  0  0  0
   14.7506    8.3831    0.0000 H   0  0  0  0  0  0  0  0  0  0  0  0
   12.8974    8.3831    0.0000 H   0  0  0  0  0  0  0  0  0  0  0  0
   13.8240    8.9181    0.0000 H   0  0  0  0  0  0  0  0  0  0  0  0
   13.8240    5.9531    0.0000 H   0  0  0  0  0  0  0  0  0  0  0  0
   12.1829    7.1456    0.0000 H   0  0  0  0  0  0  0  0  0  0  0  0
   13.1096    5.5406    0.0000 H   0  0  0  0  0  0  0  0  0  0  0  0
   12.1830    6.0756    0.0000 H   0  0  0  0  0  0  0  0  0  0  0  0
   15.3911    7.1029    0.0000 H   0  0  0  0  0  0  0  0  0  0  0  0
   16.1467    5.8891    0.0000 H   0  0  0  0  0  0  0  0  0  0  0  0
   16.8201    4.6279    0.0000 H   0  0  0  0  0  0  0  0  0  0  0  0
   17.6086    3.4331    0.0000 H   0  0  0  0  0  0  0  0  0  0  0  0
   17.6085    2.3631    0.0000 H   0  0  0  0  0  0  0  0  0  0  0  0
   17.6086    1.5381    0.0000 H   0  0  0  0  0  0  0  0  0  0  0  0
   16.6819    1.0031    0.0000 H   0  0  0  0  0  0  0  0  0  0  0  0
   15.0842    0.3256    0.0000 H   0  0  0  0  0  0  0  0  0  0  0  0
   16.8508    0.3256    0.0000 H   0  0  0  0  0  0  0  0  0  0  0  0
   14.3264    1.5381    0.0000 H   0  0  0  0  0  0  0  0  0  0  0  0
   14.3264    2.6081    0.0000 H   0  0  0  0  0  0  0  0  0  0  0  0
   14.3264    3.4331    0.0000 H   0  0  0  0  0  0  0  0  0  0  0  0
   14.3264    2.3631    0.0000 H   0  0  0  0  0  0  0  0  0  0  0  0
   11.5225    4.9606    0.0000 H   0  0  0  0  0  0  0  0  0  0  0  0
  1  2  1  0  0  0  0
  1 26  1  0  0  0  0
  1 27  1  0  0  0  0
  1 28  1  0  0  0  0
  2  3  1  0  0  0  0
  2  4  1  0  0  0  0
  2 29  1  0  0  0  0
  3 30  1  0  0  0  0
  3 31  1  0  0  0  0
  3 32  1  0  0  0  0
  4  5  1  0  0  0  0
  4 33  1  0  0  0  0
  5  6  2  0  0  0  0
  5 23  1  0  0  0  0
  6  7  1  0  0  0  0
  6 34  1  0  0  0  0
  7  8  1  0  0  0  0
  7 16  2  0  0  0  0
  8 35  1  0  0  0  0
  9  8  1  0  0  0  0
  9 10  1  0  0  0  0
  9 15  1  0  0  0  0
  9 24  1  6  0  0  0
 10 11  1  0  0  0  0
 10 36  1  0  0  0  0
 10 37  1  0  0  0  0
 11 12  1  0  0  0  0
 11 38  1  0  0  0  0
 11 39  1  0  0  0  0
 12 13  1  0  0  0  0
 12 14  1  0  0  0  0
 12 25  1  1  0  0  0
 13 40  1  0  0  0  0
 13 41  1  0  0  0  0
 14 15  1  0  0  0  0
 14 42  1  0  0  0  0
 14 43  1  0  0  0  0
 15 44  1  0  0  0  0
 15 45  1  0  0  0  0
 16 17  1  0  0  0  0
 17 18  2  0  0  0  0
 17 23  1  0  0  0  0
 18 19  1  0  0  0  0
 18 21  1  0  0  0  0
 19 20  3  0  0  0  0
 21 22  2  0  0  0  0
 21 46  1  0  0  0  0
 22 23  1  0  0  0  0
M  END
>  <DRUGBANK_ID>
DB08140

>  <COMMON_NAME>
5-[(4-AMINOCYCLOHEXYL)AMINO]-7-(PROPAN-2-YLAMINO)PYRAZOLO[1,5-A]PYRIMIDINE-3-CARBONITRILE

$$$$
