
 OpenBabel10282417072D

 77 78  0  0  1  0  0  0  0  0999 V2000
    4.2868   -9.9000    0.0000 C   0  0  0  0  0  0  0  0  0  0  0  0
    5.0013  -10.3125    0.0000 C   0  0  0  0  0  0  0  0  0  0  0  0
    5.7158   -9.9000    0.0000 C   0  0  0  0  0  0  0  0  0  0  0  0
    6.4302  -10.3125    0.0000 C   0  0  0  0  0  0  0  0  0  0  0  0
    7.1447   -9.9000    0.0000 C   0  0  0  0  0  0  0  0  0  0  0  0
    7.8592  -10.3125    0.0000 C   0  0  0  0  0  0  0  0  0  0  0  0
    8.5737   -9.9000    0.0000 C   0  0  0  0  0  0  0  0  0  0  0  0
    9.2881  -10.3125    0.0000 C   0  0  0  0  0  0  0  0  0  0  0  0
   10.0026   -9.9000    0.0000 C   0  0  0  0  0  0  0  0  0  0  0  0
   10.7171  -10.3125    0.0000 C   0  0  0  0  0  0  0  0  0  0  0  0
   11.4315   -9.9000    0.0000 C   0  0  0  0  0  0  0  0  0  0  0  0
   12.1460  -10.3125    0.0000 C   0  0  0  0  0  0  0  0  0  0  0  0
   12.8605   -9.9000    0.0000 C   0  0  0  0  0  0  0  0  0  0  0  0
   13.5749  -10.3125    0.0000 C   0  0  0  0  0  0  0  0  0  0  0  0
   14.2894   -9.9000    0.0000 C   0  0  0  0  0  0  0  0  0  0  0  0
   15.0039  -10.3125    0.0000 C   0  0  0  0  0  0  0  0  0  0  0  0
   15.0039  -11.1375    0.0000 O   0  0  0  0  0  0  0  0  0  0  0  0
   15.7184   -9.9000    0.0000 N   0  0  0  0  0  0  0  0  0  0  0  0
   16.4328  -10.3125    0.0000 C   0  0  0  0  0  0  0  0  0  0  0  0
   17.1473   -9.9000    0.0000 C   0  0  0  0  0  0  0  0  0  0  0  0
   17.8618  -10.3125    0.0000 C   0  0  0  0  0  0  0  0  0  0  0  0
   17.8618  -11.1375    0.0000 N   0  0  0  0  0  0  0  0  0  0  0  0
   17.1473  -11.5500    0.0000 C   0  0  0  0  0  0  0  0  0  0  0  0
   17.1473  -12.3750    0.0000 O   0  0  0  0  0  0  0  0  0  0  0  0
   16.4328  -11.1375    0.0000 N   0  0  0  0  0  0  0  0  0  0  0  0
   18.5762  -11.5500    0.0000 C   0  0  1  0  0  0  0  0  0  0  0  0
   19.3299  -11.2144    0.0000 C   0  0  2  0  0  0  0  0  0  0  0  0
   19.8820  -11.8275    0.0000 C   0  0  1  0  0  0  0  0  0  0  0  0
   19.4695  -12.5420    0.0000 C   0  0  2  0  0  0  0  0  0  0  0  0
   18.6625  -12.3705    0.0000 O   0  0  0  0  0  0  0  0  0  0  0  0
   19.8050  -13.2957    0.0000 C   0  0  0  0  0  0  0  0  0  0  0  0
   20.6255  -13.3819    0.0000 O   0  0  0  0  0  0  0  0  0  0  0  0
   20.7024  -11.7413    0.0000 O   0  0  0  0  0  0  0  0  0  0  0  0
   19.5014  -10.4075    0.0000 C   0  0  0  0  0  0  0  0  0  0  0  0
   19.6730   -9.6005    0.0000 N   0  0  0  0  0  0  0  0  0  0  0  0
    4.2868   -8.8300    0.0000 H   0  0  0  0  0  0  0  0  0  0  0  0
    3.3602  -10.4350    0.0000 H   0  0  0  0  0  0  0  0  0  0  0  0
    3.3601   -9.3650    0.0000 H   0  0  0  0  0  0  0  0  0  0  0  0
    5.0013  -11.3825    0.0000 H   0  0  0  0  0  0  0  0  0  0  0  0
    5.9279  -10.8475    0.0000 H   0  0  0  0  0  0  0  0  0  0  0  0
    5.7158   -8.8300    0.0000 H   0  0  0  0  0  0  0  0  0  0  0  0
    6.6425   -9.3650    0.0000 H   0  0  0  0  0  0  0  0  0  0  0  0
    6.4302  -11.3825    0.0000 H   0  0  0  0  0  0  0  0  0  0  0  0
    7.3568  -10.8475    0.0000 H   0  0  0  0  0  0  0  0  0  0  0  0
    7.1447   -8.8300    0.0000 H   0  0  0  0  0  0  0  0  0  0  0  0
    8.0713   -9.3650    0.0000 H   0  0  0  0  0  0  0  0  0  0  0  0
    7.8592  -11.3825    0.0000 H   0  0  0  0  0  0  0  0  0  0  0  0
    8.7858  -10.8475    0.0000 H   0  0  0  0  0  0  0  0  0  0  0  0
    8.5737   -8.8300    0.0000 H   0  0  0  0  0  0  0  0  0  0  0  0
    9.5004   -9.3650    0.0000 H   0  0  0  0  0  0  0  0  0  0  0  0
    9.2881  -11.3825    0.0000 H   0  0  0  0  0  0  0  0  0  0  0  0
   10.2147  -10.8475    0.0000 H   0  0  0  0  0  0  0  0  0  0  0  0
   10.0026   -8.8300    0.0000 H   0  0  0  0  0  0  0  0  0  0  0  0
   10.9292   -9.3650    0.0000 H   0  0  0  0  0  0  0  0  0  0  0  0
   10.7171  -11.3825    0.0000 H   0  0  0  0  0  0  0  0  0  0  0  0
   11.6438  -10.8475    0.0000 H   0  0  0  0  0  0  0  0  0  0  0  0
   11.4315   -8.8300    0.0000 H   0  0  0  0  0  0  0  0  0  0  0  0
   12.3581   -9.3650    0.0000 H   0  0  0  0  0  0  0  0  0  0  0  0
   12.1460  -11.3825    0.0000 H   0  0  0  0  0  0  0  0  0  0  0  0
   13.0726  -10.8475    0.0000 H   0  0  0  0  0  0  0  0  0  0  0  0
   12.8605   -8.8300    0.0000 H   0  0  0  0  0  0  0  0  0  0  0  0
   13.7872   -9.3650    0.0000 H   0  0  0  0  0  0  0  0  0  0  0  0
   13.5749  -11.3825    0.0000 H   0  0  0  0  0  0  0  0  0  0  0  0
   14.5015  -10.8475    0.0000 H   0  0  0  0  0  0  0  0  0  0  0  0
   14.2894   -8.8300    0.0000 H   0  0  0  0  0  0  0  0  0  0  0  0
   15.2160   -9.3650    0.0000 H   0  0  0  0  0  0  0  0  0  0  0  0
   15.7184   -8.9155    0.0000 H   0  0  0  0  0  0  0  0  0  0  0  0
   17.1473   -8.8680    0.0000 H   0  0  0  0  0  0  0  0  0  0  0  0
   18.7555   -9.7965    0.0000 H   0  0  0  0  0  0  0  0  0  0  0  0
   18.6322  -10.4815    0.0000 H   0  0  0  0  0  0  0  0  0  0  0  0
   18.4983  -10.5410    0.0000 H   0  0  0  0  0  0  0  0  0  0  0  0
   20.2654  -10.8286    0.0000 H   0  0  0  0  0  0  0  0  0  0  0  0
   20.5380  -12.5980    0.0000 H   0  0  0  0  0  0  0  0  0  0  0  0
   19.1761  -14.1613    0.0000 H   0  0  0  0  0  0  0  0  0  0  0  0
   20.2402  -14.2732    0.0000 H   0  0  0  0  0  0  0  0  0  0  0  0
   21.0201  -14.2680    0.0000 H   0  0  0  0  0  0  0  0  0  0  0  0
   21.2725  -12.5261    0.0000 H   0  0  0  0  0  0  0  0  0  0  0  0
  1  2  1  0  0  0  0
  1 36  1  0  0  0  0
  1 37  1  0  0  0  0
  1 38  1  0  0  0  0
  2  3  1  0  0  0  0
  2 39  1  0  0  0  0
  2 40  1  0  0  0  0
  3  4  1  0  0  0  0
  3 41  1  0  0  0  0
  3 42  1  0  0  0  0
  4  5  1  0  0  0  0
  4 43  1  0  0  0  0
  4 44  1  0  0  0  0
  5  6  1  0  0  0  0
  5 45  1  0  0  0  0
  5 46  1  0  0  0  0
  6  7  1  0  0  0  0
  6 47  1  0  0  0  0
  6 48  1  0  0  0  0
  7  8  1  0  0  0  0
  7 49  1  0  0  0  0
  7 50  1  0  0  0  0
  8  9  1  0  0  0  0
  8 51  1  0  0  0  0
  8 52  1  0  0  0  0
  9 10  1  0  0  0  0
  9 53  1  0  0  0  0
  9 54  1  0  0  0  0
 10 11  1  0  0  0  0
 10 55  1  0  0  0  0
 10 56  1  0  0  0  0
 11 12  1  0  0  0  0
 11 57  1  0  0  0  0
 11 58  1  0  0  0  0
 12 13  1  0  0  0  0
 12 59  1  0  0  0  0
 12 60  1  0  0  0  0
 13 14  1  0  0  0  0
 13 61  1  0  0  0  0
 13 62  1  0  0  0  0
 14 15  1  0  0  0  0
 14 63  1  0  0  0  0
 14 64  1  0  0  0  0
 15 16  1  0  0  0  0
 15 65  1  0  0  0  0
 15 66  1  0  0  0  0
 16 17  2  0  0  0  0
 16 18  1  0  0  0  0
 18 19  1  0  0  0  0
 18 67  1  0  0  0  0
 19 20  1  0  0  0  0
 19 25  2  0  0  0  0
 20 21  2  0  0  0  0
 20 68  1  0  0  0  0
 21 22  1  0  0  0  0
 21 69  1  0  0  0  0
 22 23  1  0  0  0  0
 23 24  2  0  0  0  0
 23 25  1  0  0  0  0
 26 22  1  0  0  0  0
 26 27  1  0  0  0  0
 26 30  1  0  0  0  0
 26 70  1  6  0  0  0
 27 28  1  0  0  0  0
 27 34  1  0  0  0  0
 27 71  1  6  0  0  0
 28 29  1  0  0  0  0
 28 33  1  0  0  0  0
 28 72  1  1  0  0  0
 29 30  1  0  0  0  0
 29 31  1  0  0  0  0
 29 73  1  6  0  0  0
 31 32  1  0  0  0  0
 31 74  1  0  0  0  0
 31 75  1  0  0  0  0
 32 76  1  0  0  0  0
 33 77  1  0  0  0  0
 34 35  3  0  0  0  0
M  END
>  <DRUGBANK_ID>
DB06365

>  <COMMON_NAME>
Sapacitabine

>  <CAS_NUMBER>
151823-14-2

>  <UNII>
W335P73C3L

>  <SYNONYMS>
1-(2-C-cyano-2-deoxy- ÃŸ-D-arabino-pentafuranosyl)-N4-palmitoylcytosine; Sapacitabine

$$$$
