
 OpenBabel10282417072D

 45 49  0  0  0  0  0  0  0  0999 V2000
   -0.7594    0.8250    0.0000 C   0  0  0  0  0  0  0  0  0  0  0  0
   -1.4739    0.4125    0.0000 C   0  0  0  0  0  0  0  0  0  0  0  0
   -1.4738    2.0625    0.0000 C   0  0  0  0  0  0  0  0  0  0  0  0
   -2.1883    1.6501    0.0000 C   0  0  0  0  0  0  0  0  0  0  0  0
   -2.1883    0.8250    0.0000 C   0  0  0  0  0  0  0  0  0  0  0  0
   -0.7594    1.6500    0.0000 C   0  0  0  0  0  0  0  0  0  0  0  0
   -2.1883   -0.8250    0.0000 C   0  0  1  0  0  0  0  0  0  0  0  0
   -2.1883   -1.6501    0.0000 C   0  0  0  0  0  0  0  0  0  0  0  0
   -1.4738   -2.0625    0.0000 C   0  0  0  0  0  0  0  0  0  0  0  0
   -0.7594   -1.6500    0.0000 C   0  0  0  0  0  0  0  0  0  0  0  0
   -0.0449   -0.4125    0.0000 C   0  0  1  0  0  0  0  0  0  0  0  0
    0.6695   -0.8250    0.0000 N   0  0  0  0  0  0  0  0  0  0  0  0
   -0.7594   -0.8250    0.0000 C   0  0  2  0  0  0  0  0  0  0  0  0
   -0.0449   -1.2374    0.0000 O   0  0  0  0  0  0  0  0  0  0  0  0
   -0.0450    0.4125    0.0000 C   0  0  0  0  0  0  0  0  0  0  0  0
   -1.4739   -0.4125    0.0000 C   0  0  1  0  0  0  0  0  0  0  0  0
   -0.7594    0.0000    0.0000 C   0  0  0  0  0  0  0  0  0  0  0  0
    0.6840    0.0000    0.0000 C   0  0  0  0  0  0  0  0  0  0  0  0
   -2.9028   -2.0626    0.0000 O   0  0  0  0  0  0  0  0  0  0  0  0
   -2.7215    0.0410    0.0000 O   0  0  0  0  0  0  0  0  0  0  0  0
   -2.9028    2.0626    0.0000 O   0  0  0  0  0  0  0  0  0  0  0  0
    1.4945   -0.8250    0.0000 C   0  0  0  0  0  0  0  0  0  0  0  0
    2.0779   -1.4084    0.0000 C   0  0  0  0  0  0  0  0  0  0  0  0
    2.9029   -1.4084    0.0000 C   0  0  0  0  0  0  0  0  0  0  0  0
   -1.4737    3.0945    0.0000 H   0  0  0  0  0  0  0  0  0  0  0  0
    0.1343    2.1660    0.0000 H   0  0  0  0  0  0  0  0  0  0  0  0
   -1.9260    0.2124    0.0000 H   0  0  0  0  0  0  0  0  0  0  0  0
   -1.4737   -3.1325    0.0000 H   0  0  0  0  0  0  0  0  0  0  0  0
   -0.5471   -2.5974    0.0000 H   0  0  0  0  0  0  0  0  0  0  0  0
    0.1673   -2.1850    0.0000 H   0  0  0  0  0  0  0  0  0  0  0  0
   -0.7594   -2.7200    0.0000 H   0  0  0  0  0  0  0  0  0  0  0  0
   -0.0449   -1.4825    0.0000 H   0  0  0  0  0  0  0  0  0  0  0  0
   -0.0448   -2.2074    0.0000 H   0  0  0  0  0  0  0  0  0  0  0  0
    0.8816    0.9475    0.0000 H   0  0  0  0  0  0  0  0  0  0  0  0
    0.8817   -0.1224    0.0000 H   0  0  0  0  0  0  0  0  0  0  0  0
   -1.0363    1.0335    0.0000 H   0  0  0  0  0  0  0  0  0  0  0  0
   -0.1080    0.8489    0.0000 H   0  0  0  0  0  0  0  0  0  0  0  0
    1.4472    0.7499    0.0000 H   0  0  0  0  0  0  0  0  0  0  0  0
    0.2789    0.9903    0.0000 H   0  0  0  0  0  0  0  0  0  0  0  0
   -2.9028    2.9996    0.0000 H   0  0  0  0  0  0  0  0  0  0  0  0
    1.9040    0.1636    0.0000 H   0  0  0  0  0  0  0  0  0  0  0  0
    2.5439   -0.6163    0.0000 H   0  0  0  0  0  0  0  0  0  0  0  0
    1.6830   -2.3618    0.0000 H   0  0  0  0  0  0  0  0  0  0  0  0
    3.4189   -2.3021    0.0000 H   0  0  0  0  0  0  0  0  0  0  0  0
    3.4189   -0.5147    0.0000 H   0  0  0  0  0  0  0  0  0  0  0  0
  1  6  2  0  0  0  0
  2  1  1  0  0  0  0
  3  4  2  0  0  0  0
  3  6  1  0  0  0  0
  3 25  1  0  0  0  0
  4  5  1  0  0  0  0
  4 21  1  0  0  0  0
  5  2  2  0  0  0  0
  5 20  1  0  0  0  0
  6 26  1  0  0  0  0
  7  8  1  0  0  0  0
  7 20  1  0  0  0  0
  7 27  1  1  0  0  0
  8  9  1  0  0  0  0
  8 19  2  0  0  0  0
  9 10  1  0  0  0  0
  9 28  1  0  0  0  0
  9 29  1  0  0  0  0
 10 13  1  0  0  0  0
 10 30  1  0  0  0  0
 10 31  1  0  0  0  0
 11 12  1  0  0  0  0
 11 15  1  0  0  0  0
 11 32  1  6  0  0  0
 12 18  1  0  0  0  0
 12 22  1  0  0  0  0
 13 11  1  0  0  0  0
 13 14  1  1  0  0  0
 14 33  1  0  0  0  0
 15  1  1  0  0  0  0
 15 34  1  0  0  0  0
 15 35  1  0  0  0  0
 16  2  1  6  0  0  0
 16 13  1  0  0  0  0
 16  7  1  0  0  0  0
 16 17  1  0  0  0  0
 17 18  1  0  0  0  0
 17 36  1  0  0  0  0
 17 37  1  0  0  0  0
 18 38  1  0  0  0  0
 18 39  1  0  0  0  0
 21 40  1  0  0  0  0
 22 23  1  0  0  0  0
 22 41  1  0  0  0  0
 22 42  1  0  0  0  0
 23 24  2  0  0  0  0
 23 43  1  0  0  0  0
 24 44  1  0  0  0  0
 24 45  1  0  0  0  0
M  END
>  <DRUGBANK_ID>
DB01183

>  <SECONDARY_ACCESSION_NUMBERS>
APRD00025

>  <COMMON_NAME>
Naloxone

>  <CAS_NUMBER>
465-65-6

>  <UNII>
36B82AMQ7N

>  <SYNONYMS>
(−)-naloxone; 1-N-Allyl-14-hydroxynordihydromorphinone; 17-allyl-3,14-dihydroxy-4,5α-epoxymorphinan-6-one; Nalossone; Naloxona; Naloxone; Naloxonum

$$$$
