C4F
 OpenBabel10282417072D

 32 34  0  0  0  0  0  0  0  0999 V2000
   -2.3408   -2.2827    0.0000 C   0  0  0  0  0  0  0  0  0  0  0  0
   -1.5339   -2.1111    0.0000 O   0  0  0  0  0  0  0  0  0  0  0  0
   -1.2789   -1.3265    0.0000 C   0  0  0  0  0  0  0  0  0  0  0  0
   -1.8309   -0.7134    0.0000 C   0  0  0  0  0  0  0  0  0  0  0  0
   -1.5760    0.0712    0.0000 C   0  0  0  0  0  0  0  0  0  0  0  0
   -0.7690    0.2427    0.0000 C   0  0  0  0  0  0  0  0  0  0  0  0
   -0.4719   -1.1550    0.0000 C   0  0  0  0  0  0  0  0  0  0  0  0
   -0.2170   -0.3704    0.0000 C   0  0  0  0  0  0  0  0  0  0  0  0
    0.5900   -0.1988    0.0000 C   0  0  0  0  0  0  0  0  0  0  0  0
    0.8449    0.5858    0.0000 C   0  0  0  0  0  0  0  0  0  0  0  0
    1.6295    0.8407    0.0000 C   0  0  0  0  0  0  0  0  0  0  0  0
    0.3600    1.2532    0.0000 C   0  0  0  0  0  0  0  0  0  0  0  0
    0.8449    1.9207    0.0000 N   0  0  0  0  0  0  0  0  0  0  0  0
    1.6295    1.6657    0.0000 C   0  0  0  0  0  0  0  0  0  0  0  0
    2.3440    2.0782    0.0000 N   0  0  0  0  0  0  0  0  0  0  0  0
    3.0585    1.6657    0.0000 C   0  0  0  0  0  0  0  0  0  0  0  0
    3.0585    0.8407    0.0000 C   0  0  0  0  0  0  0  0  0  0  0  0
    2.3440    0.4282    0.0000 C   0  0  0  0  0  0  0  0  0  0  0  0
   -3.0569   -1.4876    0.0000 H   0  0  0  0  0  0  0  0  0  0  0  0
   -2.6713   -3.3004    0.0000 H   0  0  0  0  0  0  0  0  0  0  0  0
   -3.3874   -2.5053    0.0000 H   0  0  0  0  0  0  0  0  0  0  0  0
   -2.8403   -0.9280    0.0000 H   0  0  0  0  0  0  0  0  0  0  0  0
   -2.2665    0.8381    0.0000 H   0  0  0  0  0  0  0  0  0  0  0  0
   -0.4501    1.2242    0.0000 H   0  0  0  0  0  0  0  0  0  0  0  0
    0.2186   -1.9219    0.0000 H   0  0  0  0  0  0  0  0  0  0  0  0
    1.3060   -0.9939    0.0000 H   0  0  0  0  0  0  0  0  0  0  0  0
    1.6366    0.0237    0.0000 H   0  0  0  0  0  0  0  0  0  0  0  0
   -0.6720    1.2532    0.0000 H   0  0  0  0  0  0  0  0  0  0  0  0
    0.5407    2.8570    0.0000 H   0  0  0  0  0  0  0  0  0  0  0  0
    3.9522    2.1817    0.0000 H   0  0  0  0  0  0  0  0  0  0  0  0
    3.9522    0.3247    0.0000 H   0  0  0  0  0  0  0  0  0  0  0  0
    2.3440   -0.6038    0.0000 H   0  0  0  0  0  0  0  0  0  0  0  0
  1  2  1  0  0  0  0
  1 19  1  0  0  0  0
  1 20  1  0  0  0  0
  1 21  1  0  0  0  0
  2  3  1  0  0  0  0
  3  4  2  0  0  0  0
  3  7  1  0  0  0  0
  4  5  1  0  0  0  0
  4 22  1  0  0  0  0
  5  6  2  0  0  0  0
  5 23  1  0  0  0  0
  6  8  1  0  0  0  0
  6 24  1  0  0  0  0
  7  8  2  0  0  0  0
  7 25  1  0  0  0  0
  8  9  1  0  0  0  0
  9 10  1  0  0  0  0
  9 26  1  0  0  0  0
  9 27  1  0  0  0  0
 10 11  1  0  0  0  0
 10 12  2  0  0  0  0
 11 14  2  0  0  0  0
 11 18  1  0  0  0  0
 12 13  1  0  0  0  0
 12 28  1  0  0  0  0
 13 14  1  0  0  0  0
 13 29  1  0  0  0  0
 14 15  1  0  0  0  0
 15 16  2  0  0  0  0
 16 17  1  0  0  0  0
 16 30  1  0  0  0  0
 17 18  2  0  0  0  0
 17 31  1  0  0  0  0
 18 32  1  0  0  0  0
M  END
>  <DRUGBANK_ID>
DB07525

>  <COMMON_NAME>
3-(3-methoxybenzyl)-1H-pyrrolo[2,3-b]pyridine

$$$$
