
 OpenBabel10282417072D

 58 57  0  0  0  0  0  0  0  0999 V2000
    2.4874    1.4437    0.0000 C   0  0  0  0  0  0  0  0  0  0  0  0
    1.7862    1.0312    0.0000 C   0  0  0  0  0  0  0  0  0  0  0  0
    1.0848    1.4437    0.0000 C   0  0  0  0  0  0  0  0  0  0  0  0
    0.3704    1.0312    0.0000 C   0  0  0  0  0  0  0  0  0  0  0  0
    0.3704    0.2062    0.0000 C   0  0  0  0  0  0  0  0  0  0  0  0
    1.0848   -0.2062    0.0000 C   0  0  0  0  0  0  0  0  0  0  0  0
    1.0848   -1.0312    0.0000 C   0  0  0  0  0  0  0  0  0  0  0  0
    0.3704   -1.4437    0.0000 C   0  0  0  0  0  0  0  0  0  0  0  0
    0.3704   -2.2688    0.0000 C   0  0  0  0  0  0  0  0  0  0  0  0
   -0.3440   -2.6813    0.0000 C   0  0  0  0  0  0  0  0  0  0  0  0
   -1.0585   -2.2688    0.0000 C   0  0  0  0  0  0  0  0  0  0  0  0
   -1.7730   -2.6813    0.0000 C   0  0  0  0  0  0  0  0  0  0  0  0
   -2.4875   -2.2688    0.0000 C   0  0  0  0  0  0  0  0  0  0  0  0
   -2.4875   -1.4437    0.0000 C   0  0  0  0  0  0  0  0  0  0  0  0
   -3.2020   -1.0312    0.0000 C   0  0  0  0  0  0  0  0  0  0  0  0
   -3.2020   -0.2062    0.0000 C   0  0  0  0  0  0  0  0  0  0  0  0
   -2.4874    0.2062    0.0000 C   0  0  0  0  0  0  0  0  0  0  0  0
   -2.4874    1.0312    0.0000 C   0  0  0  0  0  0  0  0  0  0  0  0
    3.2052    1.0370    0.0000 C   0  0  0  0  0  0  0  0  0  0  0  0
    3.9163    1.4553    0.0000 O   0  0  0  0  0  0  0  0  0  0  0  0
    3.2119    0.2119    0.0000 O   0  0  0  0  0  0  0  0  0  0  0  0
   -3.2019    1.4437    0.0000 C   0  0  0  0  0  0  0  0  0  0  0  0
   -3.2019    2.2688    0.0000 C   0  0  0  0  0  0  0  0  0  0  0  0
   -3.9163    2.6813    0.0000 C   0  0  0  0  0  0  0  0  0  0  0  0
    2.4787    2.5137    0.0000 H   0  0  0  0  0  0  0  0  0  0  0  0
    3.4097    1.9862    0.0000 H   0  0  0  0  0  0  0  0  0  0  0  0
    1.7863   -0.0388    0.0000 H   0  0  0  0  0  0  0  0  0  0  0  0
    0.8574    0.4999    0.0000 H   0  0  0  0  0  0  0  0  0  0  0  0
    1.0889    2.4757    0.0000 H   0  0  0  0  0  0  0  0  0  0  0  0
   -0.5233    1.5472    0.0000 H   0  0  0  0  0  0  0  0  0  0  0  0
   -0.5562   -0.3288    0.0000 H   0  0  0  0  0  0  0  0  0  0  0  0
    0.3704   -0.8638    0.0000 H   0  0  0  0  0  0  0  0  0  0  0  0
    1.9785    0.3098    0.0000 H   0  0  0  0  0  0  0  0  0  0  0  0
    1.9785   -1.5472    0.0000 H   0  0  0  0  0  0  0  0  0  0  0  0
   -0.5563   -0.9087    0.0000 H   0  0  0  0  0  0  0  0  0  0  0  0
   -0.5562   -1.9787    0.0000 H   0  0  0  0  0  0  0  0  0  0  0  0
    1.2641   -2.7848    0.0000 H   0  0  0  0  0  0  0  0  0  0  0  0
   -0.3440   -3.7133    0.0000 H   0  0  0  0  0  0  0  0  0  0  0  0
   -1.0585   -1.1988    0.0000 H   0  0  0  0  0  0  0  0  0  0  0  0
   -1.9851   -1.7338    0.0000 H   0  0  0  0  0  0  0  0  0  0  0  0
   -1.7730   -3.7133    0.0000 H   0  0  0  0  0  0  0  0  0  0  0  0
   -3.3812   -2.7848    0.0000 H   0  0  0  0  0  0  0  0  0  0  0  0
   -1.5609   -0.9087    0.0000 H   0  0  0  0  0  0  0  0  0  0  0  0
   -2.4875   -0.3737    0.0000 H   0  0  0  0  0  0  0  0  0  0  0  0
   -4.0957   -1.5472    0.0000 H   0  0  0  0  0  0  0  0  0  0  0  0
   -4.0957    0.3099    0.0000 H   0  0  0  0  0  0  0  0  0  0  0  0
   -1.5608   -0.3289    0.0000 H   0  0  0  0  0  0  0  0  0  0  0  0
   -1.5607    0.7412    0.0000 H   0  0  0  0  0  0  0  0  0  0  0  0
   -1.5608    1.5662    0.0000 H   0  0  0  0  0  0  0  0  0  0  0  0
   -2.4874    2.1012    0.0000 H   0  0  0  0  0  0  0  0  0  0  0  0
    4.7315    0.9934    0.0000 H   0  0  0  0  0  0  0  0  0  0  0  0
   -4.1285    0.9087    0.0000 H   0  0  0  0  0  0  0  0  0  0  0  0
   -4.1285    1.9787    0.0000 H   0  0  0  0  0  0  0  0  0  0  0  0
   -2.2752    2.8038    0.0000 H   0  0  0  0  0  0  0  0  0  0  0  0
   -3.2019    3.3388    0.0000 H   0  0  0  0  0  0  0  0  0  0  0  0
   -3.9163    3.7513    0.0000 H   0  0  0  0  0  0  0  0  0  0  0  0
   -4.8430    2.1463    0.0000 H   0  0  0  0  0  0  0  0  0  0  0  0
   -4.8429    3.2163    0.0000 H   0  0  0  0  0  0  0  0  0  0  0  0
  1  2  1  0  0  0  0
  1 19  1  0  0  0  0
  1 25  1  0  0  0  0
  1 26  1  0  0  0  0
  2  3  1  0  0  0  0
  2 27  1  0  0  0  0
  2 28  1  0  0  0  0
  3  4  2  0  0  0  0
  3 29  1  0  0  0  0
  4  5  1  0  0  0  0
  4 30  1  0  0  0  0
  5  6  1  0  0  0  0
  5 31  1  0  0  0  0
  5 32  1  0  0  0  0
  6  7  2  0  0  0  0
  6 33  1  0  0  0  0
  7  8  1  0  0  0  0
  7 34  1  0  0  0  0
  8  9  1  0  0  0  0
  8 35  1  0  0  0  0
  8 36  1  0  0  0  0
  9 10  2  0  0  0  0
  9 37  1  0  0  0  0
 10 11  1  0  0  0  0
 10 38  1  0  0  0  0
 11 12  1  0  0  0  0
 11 39  1  0  0  0  0
 11 40  1  0  0  0  0
 12 13  2  0  0  0  0
 12 41  1  0  0  0  0
 13 14  1  0  0  0  0
 13 42  1  0  0  0  0
 14 15  1  0  0  0  0
 14 43  1  0  0  0  0
 14 44  1  0  0  0  0
 15 16  2  0  0  0  0
 15 45  1  0  0  0  0
 16 17  1  0  0  0  0
 16 46  1  0  0  0  0
 17 18  1  0  0  0  0
 17 47  1  0  0  0  0
 17 48  1  0  0  0  0
 18 22  1  0  0  0  0
 18 49  1  0  0  0  0
 18 50  1  0  0  0  0
 20 19  1  0  0  0  0
 20 51  1  0  0  0  0
 21 19  2  0  0  0  0
 22 23  1  0  0  0  0
 22 52  1  0  0  0  0
 22 53  1  0  0  0  0
 23 24  1  0  0  0  0
 23 54  1  0  0  0  0
 23 55  1  0  0  0  0
 24 56  1  0  0  0  0
 24 57  1  0  0  0  0
 24 58  1  0  0  0  0
M  END
>  <DRUGBANK_ID>
DB14088

>  <COMMON_NAME>
Osbond acid

>  <CAS_NUMBER>
25182-74-5

>  <UNII>
7S686LQT6T

>  <SYNONYMS>
(All-Z)-4,7,10,13,16-docosapentaenoic acid; 4Z,7Z,10Z,13Z,16Z-docosapentaenoic acid; all-cis-docosa-4,7,10,13,16-pentaenoic acid; Docosapentaenoic acid (22n-6)

$$$$
