
 OpenBabel10282417072D

 54 58  0  0  0  0  0  0  0  0999 V2000
   -1.7575    0.3126    0.0000 C   0  0  0  0  0  0  0  0  0  0  0  0
   -1.2054    0.9256    0.0000 C   0  0  0  0  0  0  0  0  0  0  0  0
   -1.4604    1.7103    0.0000 C   0  0  0  0  0  0  0  0  0  0  0  0
   -0.9083    2.3234    0.0000 C   0  0  0  0  0  0  0  0  0  0  0  0
   -0.1014    2.1518    0.0000 C   0  0  0  0  0  0  0  0  0  0  0  0
    0.1536    1.3672    0.0000 C   0  0  0  0  0  0  0  0  0  0  0  0
   -0.3984    0.7541    0.0000 C   0  0  0  0  0  0  0  0  0  0  0  0
   -0.1435   -0.0305    0.0000 N   0  0  0  0  0  0  0  0  0  0  0  0
   -0.6284   -0.6979    0.0000 C   0  0  0  0  0  0  0  0  0  0  0  0
   -0.1435   -1.3654    0.0000 C   0  0  0  0  0  0  0  0  0  0  0  0
    0.6411   -1.1104    0.0000 C   0  0  0  0  0  0  0  0  0  0  0  0
    0.6411   -0.2854    0.0000 C   0  0  0  0  0  0  0  0  0  0  0  0
    1.3556    0.1271    0.0000 N   0  0  0  0  0  0  0  0  0  0  0  0
    2.0701   -0.2854    0.0000 C   0  0  0  0  0  0  0  0  0  0  0  0
    2.0701   -1.1104    0.0000 C   0  0  0  0  0  0  0  0  0  0  0  0
    1.3556   -1.5229    0.0000 C   0  0  0  0  0  0  0  0  0  0  0  0
    1.3556   -2.3479    0.0000 N   0  0  0  0  0  0  0  0  0  0  0  0
    2.0230   -2.8329    0.0000 C   0  0  0  0  0  0  0  0  0  0  0  0
    1.7681   -3.6175    0.0000 C   0  0  0  0  0  0  0  0  0  0  0  0
    0.9431   -3.6175    0.0000 C   0  0  0  0  0  0  0  0  0  0  0  0
    0.6881   -2.8329    0.0000 N   0  0  0  0  0  0  0  0  0  0  0  0
    0.4582   -4.2849    0.0000 N   0  0  0  0  0  0  0  0  0  0  0  0
    0.7131   -5.0695    0.0000 C   0  0  0  0  0  0  0  0  0  0  0  0
    0.0457   -5.5545    0.0000 C   0  0  0  0  0  0  0  0  0  0  0  0
   -0.6218   -5.0695    0.0000 N   0  0  0  0  0  0  0  0  0  0  0  0
   -0.3668   -4.2849    0.0000 C   0  0  0  0  0  0  0  0  0  0  0  0
   -0.8518   -3.6175    0.0000 O   0  0  0  0  0  0  0  0  0  0  0  0
    2.7845    0.1271    0.0000 C   0  0  0  0  0  0  0  0  0  0  0  0
   -1.1633    3.1080    0.0000 O   0  0  0  0  0  0  0  0  0  0  0  0
   -1.9702    3.2795    0.0000 C   0  0  0  0  0  0  0  0  0  0  0  0
   -2.8041    0.5352    0.0000 H   0  0  0  0  0  0  0  0  0  0  0  0
   -1.4270   -0.7051    0.0000 H   0  0  0  0  0  0  0  0  0  0  0  0
   -2.4736   -0.4825    0.0000 H   0  0  0  0  0  0  0  0  0  0  0  0
   -2.4698    1.9249    0.0000 H   0  0  0  0  0  0  0  0  0  0  0  0
    0.5892    2.9187    0.0000 H   0  0  0  0  0  0  0  0  0  0  0  0
    1.1631    1.1527    0.0000 H   0  0  0  0  0  0  0  0  0  0  0  0
   -1.6984   -0.6979    0.0000 H   0  0  0  0  0  0  0  0  0  0  0  0
   -1.1142   -1.6513    0.0000 H   0  0  0  0  0  0  0  0  0  0  0  0
   -0.4741   -2.3830    0.0000 H   0  0  0  0  0  0  0  0  0  0  0  0
    0.6131   -2.1220    0.0000 H   0  0  0  0  0  0  0  0  0  0  0  0
    2.9638   -1.6264    0.0000 H   0  0  0  0  0  0  0  0  0  0  0  0
    3.0045   -2.5140    0.0000 H   0  0  0  0  0  0  0  0  0  0  0  0
    2.3747   -4.4524    0.0000 H   0  0  0  0  0  0  0  0  0  0  0  0
    1.7307   -5.4001    0.0000 H   0  0  0  0  0  0  0  0  0  0  0  0
    0.8806   -6.1263    0.0000 H   0  0  0  0  0  0  0  0  0  0  0  0
    0.0457   -6.6245    0.0000 H   0  0  0  0  0  0  0  0  0  0  0  0
   -0.9077   -6.0403    0.0000 H   0  0  0  0  0  0  0  0  0  0  0  0
   -1.5581   -5.3737    0.0000 H   0  0  0  0  0  0  0  0  0  0  0  0
    3.7112   -0.4079    0.0000 H   0  0  0  0  0  0  0  0  0  0  0  0
    2.7845    1.1971    0.0000 H   0  0  0  0  0  0  0  0  0  0  0  0
    3.7111    0.6621    0.0000 H   0  0  0  0  0  0  0  0  0  0  0  0
   -2.3009    4.2971    0.0000 H   0  0  0  0  0  0  0  0  0  0  0  0
   -2.6862    2.4843    0.0000 H   0  0  0  0  0  0  0  0  0  0  0  0
   -3.0168    3.5020    0.0000 H   0  0  0  0  0  0  0  0  0  0  0  0
  1  2  1  0  0  0  0
  1 31  1  0  0  0  0
  1 32  1  0  0  0  0
  1 33  1  0  0  0  0
  2  3  2  0  0  0  0
  2  7  1  0  0  0  0
  3  4  1  0  0  0  0
  3 34  1  0  0  0  0
  4  5  2  0  0  0  0
  4 29  1  0  0  0  0
  5  6  1  0  0  0  0
  5 35  1  0  0  0  0
  6  7  2  0  0  0  0
  6 36  1  0  0  0  0
  7  8  1  0  0  0  0
  8  9  1  0  0  0  0
  8 12  1  0  0  0  0
  9 10  1  0  0  0  0
  9 37  1  0  0  0  0
  9 38  1  0  0  0  0
 10 11  1  0  0  0  0
 10 39  1  0  0  0  0
 10 40  1  0  0  0  0
 11 12  2  0  0  0  0
 11 16  1  0  0  0  0
 12 13  1  0  0  0  0
 13 14  2  0  0  0  0
 14 15  1  0  0  0  0
 14 28  1  0  0  0  0
 15 16  2  0  0  0  0
 15 41  1  0  0  0  0
 16 17  1  0  0  0  0
 17 18  1  0  0  0  0
 17 21  1  0  0  0  0
 18 19  2  0  0  0  0
 18 42  1  0  0  0  0
 19 20  1  0  0  0  0
 19 43  1  0  0  0  0
 20 21  2  0  0  0  0
 20 22  1  0  0  0  0
 22 23  1  0  0  0  0
 22 26  1  0  0  0  0
 23 24  1  0  0  0  0
 23 44  1  0  0  0  0
 23 45  1  0  0  0  0
 24 25  1  0  0  0  0
 24 46  1  0  0  0  0
 24 47  1  0  0  0  0
 25 26  1  0  0  0  0
 25 48  1  0  0  0  0
 26 27  2  0  0  0  0
 28 49  1  0  0  0  0
 28 50  1  0  0  0  0
 28 51  1  0  0  0  0
 29 30  1  0  0  0  0
 30 52  1  0  0  0  0
 30 53  1  0  0  0  0
 30 54  1  0  0  0  0
M  END
>  <DRUGBANK_ID>
DB12910

>  <COMMON_NAME>
Emicerfont

>  <CAS_NUMBER>
786701-13-1

>  <UNII>
OJ8EG4264P

>  <SYNONYMS>
Emicerfont

$$$$
