
 OpenBabel10282417072D

 83 90  0  0  0  0  0  0  0  0999 V2000
    1.2173    1.9964    0.0000 C   0  0  0  0  0  0  0  0  0  0  0  0
    1.2155    3.6480    0.0000 C   0  0  0  0  0  0  0  0  0  0  0  0
    0.5031    2.4089    0.0000 C   0  0  0  0  0  0  0  0  0  0  0  0
    0.5073    3.2356    0.0000 C   0  0  0  0  0  0  0  0  0  0  0  0
   -0.2025    3.6502    0.0000 C   0  0  0  0  0  0  0  0  0  0  0  0
   -0.9212    3.2428    0.0000 C   0  0  0  0  0  0  0  0  0  0  0  0
   -0.9253    2.4161    0.0000 N   0  0  0  0  0  0  0  0  0  0  0  0
   -0.2109    1.9968    0.0000 C   0  0  1  0  0  0  0  0  0  0  0  0
    1.9303    3.2392    0.0000 C   0  0  0  0  0  0  0  0  0  0  0  0
    1.9350    2.4135    0.0000 C   0  0  0  0  0  0  0  0  0  0  0  0
    2.7219    2.1628    0.0000 O   0  0  0  0  0  0  0  0  0  0  0  0
    3.2035    2.8338    0.0000 C   0  0  0  0  0  0  0  0  0  0  0  0
    2.7141    3.4989    0.0000 O   0  0  0  0  0  0  0  0  0  0  0  0
   -0.2186    2.8234    0.0000 H   0  0  0  0  0  0  0  0  0  0  0  0
    0.0184    1.1273    0.0000 C   0  0  0  0  0  0  0  0  0  0  0  0
   -0.4500    0.4022    0.0000 C   0  0  0  0  0  0  0  0  0  0  0  0
   -1.2486    0.6222    0.0000 C   0  0  0  0  0  0  0  0  0  0  0  0
   -1.8352    0.0402    0.0000 C   0  0  0  0  0  0  0  0  0  0  0  0
   -1.6241   -0.7604    0.0000 C   0  0  0  0  0  0  0  0  0  0  0  0
   -0.8211   -0.9760    0.0000 C   0  0  0  0  0  0  0  0  0  0  0  0
   -0.2378   -0.3924    0.0000 C   0  0  0  0  0  0  0  0  0  0  0  0
   -2.1291   -1.2698    0.0000 O   0  0  0  0  0  0  0  0  0  0  0  0
   -1.5552   -2.1240    0.0000 C   0  0  0  0  0  0  0  0  0  0  0  0
   -1.9706   -2.8328    0.0000 C   0  0  0  0  0  0  0  0  0  0  0  0
   -1.5634   -3.5441    0.0000 C   0  0  0  0  0  0  0  0  0  0  0  0
   -0.7420   -3.5472    0.0000 C   0  0  0  0  0  0  0  0  0  0  0  0
   -0.3296   -2.8330    0.0000 C   0  0  0  0  0  0  0  0  0  0  0  0
   -0.7393   -2.1245    0.0000 C   0  0  0  0  0  0  0  0  0  0  0  0
    0.4930   -2.8317    0.0000 C   0  0  0  0  0  0  0  0  0  0  0  0
    1.2049   -2.4154    0.0000 C   0  0  1  0  0  0  0  0  0  0  0  0
    1.9212   -2.8260    0.0000 N   0  0  0  0  0  0  0  0  0  0  0  0
    2.6309   -2.4131    0.0000 C   0  0  0  0  0  0  0  0  0  0  0  0
    2.6306   -1.5880    0.0000 C   0  0  0  0  0  0  0  0  0  0  0  0
    1.1984   -1.5919    0.0000 C   0  0  0  0  0  0  0  0  0  0  0  0
    1.9140   -1.1778    0.0000 C   0  0  0  0  0  0  0  0  0  0  0  0
    1.9122   -0.3528    0.0000 C   0  0  0  0  0  0  0  0  0  0  0  0
    1.1956    0.0588    0.0000 C   0  0  0  0  0  0  0  0  0  0  0  0
    0.4791   -0.3602    0.0000 C   0  0  0  0  0  0  0  0  0  0  0  0
    0.4844   -1.1838    0.0000 C   0  0  0  0  0  0  0  0  0  0  0  0
    1.2007   -3.2397    0.0000 H   0  0  0  0  0  0  0  0  0  0  0  0
    1.9239   -3.6502    0.0000 C   0  0  0  0  0  0  0  0  0  0  0  0
    1.1883    0.8859    0.0000 O   0  0  0  0  0  0  0  0  0  0  0  0
    1.9001    1.3022    0.0000 C   0  0  0  0  0  0  0  0  0  0  0  0
    0.4888    0.9442    0.0000 O   0  0  0  0  0  0  0  0  0  0  0  0
   -2.7949   -2.8286    0.0000 O   0  0  0  0  0  0  0  0  0  0  0  0
   -3.2035   -2.1126    0.0000 C   0  0  0  0  0  0  0  0  0  0  0  0
   -1.6423    2.0116    0.0000 C   0  0  0  0  0  0  0  0  0  0  0  0
    1.2115    4.6800    0.0000 H   0  0  0  0  0  0  0  0  0  0  0  0
   -0.1956    4.7202    0.0000 H   0  0  0  0  0  0  0  0  0  0  0  0
   -1.1253    4.1919    0.0000 H   0  0  0  0  0  0  0  0  0  0  0  0
   -1.8444    3.7837    0.0000 H   0  0  0  0  0  0  0  0  0  0  0  0
   -1.8509    2.7131    0.0000 H   0  0  0  0  0  0  0  0  0  0  0  0
    4.2735    2.8401    0.0000 H   0  0  0  0  0  0  0  0  0  0  0  0
    3.6836    3.7901    0.0000 H   0  0  0  0  0  0  0  0  0  0  0  0
    1.0751    0.9591    0.0000 H   0  0  0  0  0  0  0  0  0  0  0  0
    0.4544    0.1502    0.0000 H   0  0  0  0  0  0  0  0  0  0  0  0
   -1.5102    1.6205    0.0000 H   0  0  0  0  0  0  0  0  0  0  0  0
   -2.8310    0.3112    0.0000 H   0  0  0  0  0  0  0  0  0  0  0  0
   -0.5541   -1.9729    0.0000 H   0  0  0  0  0  0  0  0  0  0  0  0
    0.7590   -0.6598    0.0000 H   0  0  0  0  0  0  0  0  0  0  0  0
   -2.0827   -4.4359    0.0000 H   0  0  0  0  0  0  0  0  0  0  0  0
   -0.2277   -4.4419    0.0000 H   0  0  0  0  0  0  0  0  0  0  0  0
   -0.2233   -1.2307    0.0000 H   0  0  0  0  0  0  0  0  0  0  0  0
    0.7736   -3.8642    0.0000 H   0  0  0  0  0  0  0  0  0  0  0  0
    1.4834   -3.2367    0.0000 H   0  0  0  0  0  0  0  0  0  0  0  0
    3.5585   -2.9464    0.0000 H   0  0  0  0  0  0  0  0  0  0  0  0
    3.5570   -1.8771    0.0000 H   0  0  0  0  0  0  0  0  0  0  0  0
    3.5562   -1.0511    0.0000 H   0  0  0  0  0  0  0  0  0  0  0  0
    2.6275   -0.5180    0.0000 H   0  0  0  0  0  0  0  0  0  0  0  0
    2.8048    0.1652    0.0000 H   0  0  0  0  0  0  0  0  0  0  0  0
   -0.4065   -1.7046    0.0000 H   0  0  0  0  0  0  0  0  0  0  0  0
    0.9990   -4.1882    0.0000 H   0  0  0  0  0  0  0  0  0  0  0  0
    2.8523   -4.1822    0.0000 H   0  0  0  0  0  0  0  0  0  0  0  0
    1.9274   -4.7202    0.0000 H   0  0  0  0  0  0  0  0  0  0  0  0
    2.8297    0.7724    0.0000 H   0  0  0  0  0  0  0  0  0  0  0  0
    1.8941    2.3722    0.0000 H   0  0  0  0  0  0  0  0  0  0  0  0
    2.8237    1.8424    0.0000 H   0  0  0  0  0  0  0  0  0  0  0  0
   -2.6639   -1.1887    0.0000 H   0  0  0  0  0  0  0  0  0  0  0  0
   -4.2735   -2.1072    0.0000 H   0  0  0  0  0  0  0  0  0  0  0  0
   -3.7338   -1.1833    0.0000 H   0  0  0  0  0  0  0  0  0  0  0  0
   -2.5636    2.5558    0.0000 H   0  0  0  0  0  0  0  0  0  0  0  0
   -1.6529    0.9417    0.0000 H   0  0  0  0  0  0  0  0  0  0  0  0
   -2.5742    1.4858    0.0000 H   0  0  0  0  0  0  0  0  0  0  0  0
  1 44  1  0  0  0  0
  1 10  2  0  0  0  0
  2  4  1  0  0  0  0
  2 48  1  0  0  0  0
  3  4  2  0  0  0  0
  3  8  1  0  0  0  0
  3  1  1  0  0  0  0
  4  5  1  0  0  0  0
  5  6  1  0  0  0  0
  5 49  1  0  0  0  0
  5 50  1  0  0  0  0
  6  7  1  0  0  0  0
  6 51  1  0  0  0  0
  6 52  1  0  0  0  0
  7  8  1  0  0  0  0
  7 47  1  0  0  0  0
  8 14  1  1  0  0  0
  8 15  1  0  0  0  0
  9  2  2  0  0  0  0
  9 10  1  0  0  0  0
 10 11  1  0  0  0  0
 11 12  1  0  0  0  0
 12 13  1  0  0  0  0
 12 53  1  0  0  0  0
 12 54  1  0  0  0  0
 13  9  1  0  0  0  0
 15 16  1  0  0  0  0
 15 55  1  0  0  0  0
 15 56  1  0  0  0  0
 16 17  2  0  0  0  0
 17 18  1  0  0  0  0
 17 57  1  0  0  0  0
 18 19  2  0  0  0  0
 18 58  1  0  0  0  0
 19 22  1  0  0  0  0
 19 20  1  0  0  0  0
 20 21  2  0  0  0  0
 20 59  1  0  0  0  0
 21 16  1  0  0  0  0
 21 60  1  0  0  0  0
 22 23  1  0  0  0  0
 23 24  2  0  0  0  0
 24 25  1  0  0  0  0
 24 45  1  0  0  0  0
 25 26  2  0  0  0  0
 25 61  1  0  0  0  0
 26 27  1  0  0  0  0
 26 62  1  0  0  0  0
 27 28  2  0  0  0  0
 27 29  1  0  0  0  0
 28 23  1  0  0  0  0
 28 63  1  0  0  0  0
 29 30  1  0  0  0  0
 29 64  1  0  0  0  0
 29 65  1  0  0  0  0
 30 31  1  0  0  0  0
 30 34  1  0  0  0  0
 30 40  1  1  0  0  0
 31 32  1  0  0  0  0
 31 41  1  0  0  0  0
 32 33  1  0  0  0  0
 32 66  1  0  0  0  0
 32 67  1  0  0  0  0
 33 35  1  0  0  0  0
 33 68  1  0  0  0  0
 33 69  1  0  0  0  0
 34 35  2  0  0  0  0
 35 36  1  0  0  0  0
 36 37  2  0  0  0  0
 36 70  1  0  0  0  0
 37 38  1  0  0  0  0
 37 42  1  0  0  0  0
 38 39  2  0  0  0  0
 38 44  1  0  0  0  0
 39 34  1  0  0  0  0
 39 71  1  0  0  0  0
 41 72  1  0  0  0  0
 41 73  1  0  0  0  0
 41 74  1  0  0  0  0
 42 43  1  0  0  0  0
 43 75  1  0  0  0  0
 43 76  1  0  0  0  0
 43 77  1  0  0  0  0
 45 46  1  0  0  0  0
 46 78  1  0  0  0  0
 46 79  1  0  0  0  0
 46 80  1  0  0  0  0
 47 81  1  0  0  0  0
 47 82  1  0  0  0  0
 47 83  1  0  0  0  0
M  END
>  <DRUGBANK_ID>
DB16824

>  <COMMON_NAME>
Cepharanthine

>  <CAS_NUMBER>
481-49-2

>  <UNII>
7592YJ0J6T

>  <SYNONYMS>
Cepharanthin; Cepharanthine

$$$$
