
 OpenBabel10282417072D

123123  0  0  0  0  0  0  0  0999 V2000
   -4.3450    5.7096    0.0000 C   0  0  0  0  0  0  0  0  0  0  0  0
   -4.8851    6.3332    0.0000 C   0  0  0  0  0  0  0  0  0  0  0  0
   -4.6150    7.1128    0.0000 C   0  0  0  0  0  0  0  0  0  0  0  0
   -3.8049    7.2687    0.0000 C   0  0  0  0  0  0  0  0  0  0  0  0
   -3.2648    6.6450    0.0000 C   0  0  0  0  0  0  0  0  0  0  0  0
   -2.4547    6.8009    0.0000 C   0  0  0  0  0  0  0  0  0  0  0  0
   -1.9146    6.1773    0.0000 C   0  0  0  0  0  0  0  0  0  0  0  0
   -1.1045    6.3332    0.0000 C   0  0  0  0  0  0  0  0  0  0  0  0
   -0.5644    5.7096    0.0000 C   0  0  0  0  0  0  0  0  0  0  0  0
    0.2458    5.8655    0.0000 C   0  0  0  0  0  0  0  0  0  0  0  0
    0.7859    5.2418    0.0000 C   0  0  0  0  0  0  0  0  0  0  0  0
    1.5960    5.3978    0.0000 C   0  0  0  0  0  0  0  0  0  0  0  0
    1.8660    6.1773    0.0000 C   0  0  0  0  0  0  0  0  0  0  0  0
    2.6762    6.3332    0.0000 C   0  0  0  0  0  0  0  0  0  0  0  0
    3.2163    5.7096    0.0000 C   0  0  0  0  0  0  0  0  0  0  0  0
    4.0264    5.8655    0.0000 C   0  0  0  0  0  0  0  0  0  0  0  0
    4.2964    6.6450    0.0000 O   0  0  0  0  0  0  0  0  0  0  0  0
    5.1066    6.8009    0.0000 C   0  0  0  0  0  0  0  0  0  0  0  0
    5.3766    7.5805    0.0000 C   0  0  3  0  0  0  0  0  0  0  0  0
    4.8365    8.2041    0.0000 C   0  0  0  0  0  0  0  0  0  0  0  0
    4.0264    8.0482    0.0000 O   0  0  0  0  0  0  0  0  0  0  0  0
    3.4863    8.6719    0.0000 P   0  0  3  0  0  0  0  0  0  0  0  0
    4.1630    9.1438    0.0000 O   0  0  0  0  0  0  0  0  0  0  0  0
    2.9225    8.0696    0.0000 N   0  0  0  0  0  0  0  0  0  0  0  0
    2.1755    8.4196    0.0000 C   0  0  0  0  0  0  0  0  0  0  0  0
    2.2775    9.2383    0.0000 C   0  0  0  0  0  0  0  0  0  0  0  0
    3.0877    9.3942    0.0000 O   0  0  0  0  0  0  0  0  0  0  0  0
    6.1867    7.7364    0.0000 O   0  0  0  0  0  0  0  0  0  0  0  0
    6.4568    8.5160    0.0000 C   0  0  0  0  0  0  0  0  0  0  0  0
    5.9167    9.1396    0.0000 O   0  0  0  0  0  0  0  0  0  0  0  0
    7.2669    8.6719    0.0000 C   0  0  0  0  0  0  0  0  0  0  0  0
    7.5370    9.4514    0.0000 C   0  0  0  0  0  0  0  0  0  0  0  0
    8.3471    9.6073    0.0000 C   0  0  0  0  0  0  0  0  0  0  0  0
    8.6171   10.3869    0.0000 C   0  0  0  0  0  0  0  0  0  0  0  0
    8.0771   11.0105    0.0000 C   0  0  0  0  0  0  0  0  0  0  0  0
    7.2669   10.8546    0.0000 C   0  0  0  0  0  0  0  0  0  0  0  0
    6.7268   11.4783    0.0000 C   0  0  0  0  0  0  0  0  0  0  0  0
    6.9969   12.2578    0.0000 C   0  0  0  0  0  0  0  0  0  0  0  0
    7.8070   12.4137    0.0000 C   0  0  0  0  0  0  0  0  0  0  0  0
    8.0771   13.1933    0.0000 C   0  0  0  0  0  0  0  0  0  0  0  0
    7.5370   13.8169    0.0000 C   0  0  0  0  0  0  0  0  0  0  0  0
    7.8070   14.5965    0.0000 C   0  0  0  0  0  0  0  0  0  0  0  0
    7.2669   15.2201    0.0000 C   0  0  0  0  0  0  0  0  0  0  0  0
    6.4568   15.0642    0.0000 C   0  0  0  0  0  0  0  0  0  0  0  0
    5.9167   15.6878    0.0000 C   0  0  0  0  0  0  0  0  0  0  0  0
    5.1066   15.5319    0.0000 C   0  0  0  0  0  0  0  0  0  0  0  0
    4.8365   14.7524    0.0000 C   0  0  0  0  0  0  0  0  0  0  0  0
    4.0264   14.5965    0.0000 C   0  0  0  0  0  0  0  0  0  0  0  0
    3.7563   13.8169    0.0000 C   0  0  0  0  0  0  0  0  0  0  0  0
    4.2964   13.1933    0.0000 C   0  0  0  0  0  0  0  0  0  0  0  0
    4.0264   12.4137    0.0000 C   0  0  0  0  0  0  0  0  0  0  0  0
   -4.6952    4.6985    0.0000 H   0  0  0  0  0  0  0  0  0  0  0  0
   -3.2943    5.9119    0.0000 H   0  0  0  0  0  0  0  0  0  0  0  0
   -3.6445    4.9008    0.0000 H   0  0  0  0  0  0  0  0  0  0  0  0
   -5.9358    6.1310    0.0000 H   0  0  0  0  0  0  0  0  0  0  0  0
   -5.5856    7.1421    0.0000 H   0  0  0  0  0  0  0  0  0  0  0  0
   -5.3155    7.9217    0.0000 H   0  0  0  0  0  0  0  0  0  0  0  0
   -4.2647    8.1238    0.0000 H   0  0  0  0  0  0  0  0  0  0  0  0
   -3.4546    8.2797    0.0000 H   0  0  0  0  0  0  0  0  0  0  0  0
   -2.7542    7.4709    0.0000 H   0  0  0  0  0  0  0  0  0  0  0  0
   -3.6151    5.6340    0.0000 H   0  0  0  0  0  0  0  0  0  0  0  0
   -2.5643    5.8361    0.0000 H   0  0  0  0  0  0  0  0  0  0  0  0
   -2.1045    7.8120    0.0000 H   0  0  0  0  0  0  0  0  0  0  0  0
   -1.4040    7.0031    0.0000 H   0  0  0  0  0  0  0  0  0  0  0  0
   -2.2648    5.1662    0.0000 H   0  0  0  0  0  0  0  0  0  0  0  0
   -1.2141    5.3685    0.0000 H   0  0  0  0  0  0  0  0  0  0  0  0
   -0.7543    7.3443    0.0000 H   0  0  0  0  0  0  0  0  0  0  0  0
   -0.0538    6.5354    0.0000 H   0  0  0  0  0  0  0  0  0  0  0  0
   -0.9146    4.6985    0.0000 H   0  0  0  0  0  0  0  0  0  0  0  0
    0.1361    4.9007    0.0000 H   0  0  0  0  0  0  0  0  0  0  0  0
    0.5961    6.8765    0.0000 H   0  0  0  0  0  0  0  0  0  0  0  0
    1.2965    6.0677    0.0000 H   0  0  0  0  0  0  0  0  0  0  0  0
    0.4357    4.2307    0.0000 H   0  0  0  0  0  0  0  0  0  0  0  0
    1.4864    4.4330    0.0000 H   0  0  0  0  0  0  0  0  0  0  0  0
    2.2965    4.5890    0.0000 H   0  0  0  0  0  0  0  0  0  0  0  0
    2.6467    5.6001    0.0000 H   0  0  0  0  0  0  0  0  0  0  0  0
    1.1655    6.9861    0.0000 H   0  0  0  0  0  0  0  0  0  0  0  0
    2.2163    7.1884    0.0000 H   0  0  0  0  0  0  0  0  0  0  0  0
    3.0264    7.3443    0.0000 H   0  0  0  0  0  0  0  0  0  0  0  0
    3.7269    6.5354    0.0000 H   0  0  0  0  0  0  0  0  0  0  0  0
    2.8785    4.7344    0.0000 H   0  0  0  0  0  0  0  0  0  0  0  0
    4.7020    5.0854    0.0000 H   0  0  0  0  0  0  0  0  0  0  0  0
    5.8071    5.9921    0.0000 H   0  0  0  0  0  0  0  0  0  0  0  0
    6.1573    7.0032    0.0000 H   0  0  0  0  0  0  0  0  0  0  0  0
    4.3259    7.3782    0.0000 H   0  0  0  0  0  0  0  0  0  0  0  0
    5.1867    9.2152    0.0000 H   0  0  0  0  0  0  0  0  0  0  0  0
    4.1360    9.0129    0.0000 H   0  0  0  0  0  0  0  0  0  0  0  0
    3.1153    7.0680    0.0000 H   0  0  0  0  0  0  0  0  0  0  0  0
    1.2387    7.9025    0.0000 H   0  0  0  0  0  0  0  0  0  0  0  0
    1.2895    9.0195    0.0000 H   0  0  0  0  0  0  0  0  0  0  0  0
    1.4963    9.9695    0.0000 H   0  0  0  0  0  0  0  0  0  0  0  0
    2.5743   10.2663    0.0000 H   0  0  0  0  0  0  0  0  0  0  0  0
    7.9673    7.8630    0.0000 H   0  0  0  0  0  0  0  0  0  0  0  0
    8.3176    8.8740    0.0000 H   0  0  0  0  0  0  0  0  0  0  0  0
    6.8366   10.2603    0.0000 H   0  0  0  0  0  0  0  0  0  0  0  0
    7.8873   10.4624    0.0000 H   0  0  0  0  0  0  0  0  0  0  0  0
    9.0227    8.8272    0.0000 H   0  0  0  0  0  0  0  0  0  0  0  0
    9.6305   10.5819    0.0000 H   0  0  0  0  0  0  0  0  0  0  0  0
    8.4274   12.0215    0.0000 H   0  0  0  0  0  0  0  0  0  0  0  0
    7.3766   11.8194    0.0000 H   0  0  0  0  0  0  0  0  0  0  0  0
    6.9291    9.8795    0.0000 H   0  0  0  0  0  0  0  0  0  0  0  0
    5.7134   11.2833    0.0000 H   0  0  0  0  0  0  0  0  0  0  0  0
    6.2965   13.0667    0.0000 H   0  0  0  0  0  0  0  0  0  0  0  0
    7.3472   13.2688    0.0000 H   0  0  0  0  0  0  0  0  0  0  0  0
    8.4826   11.6336    0.0000 H   0  0  0  0  0  0  0  0  0  0  0  0
    9.0905   13.3883    0.0000 H   0  0  0  0  0  0  0  0  0  0  0  0
    6.4863   13.6146    0.0000 H   0  0  0  0  0  0  0  0  0  0  0  0
    6.8365   14.6257    0.0000 H   0  0  0  0  0  0  0  0  0  0  0  0
    8.8204   14.7916    0.0000 H   0  0  0  0  0  0  0  0  0  0  0  0
    7.6047   16.1953    0.0000 H   0  0  0  0  0  0  0  0  0  0  0  0
    6.1066   14.0531    0.0000 H   0  0  0  0  0  0  0  0  0  0  0  0
    5.4061   14.8620    0.0000 H   0  0  0  0  0  0  0  0  0  0  0  0
    6.2545   16.6630    0.0000 H   0  0  0  0  0  0  0  0  0  0  0  0
    4.4310   16.3120    0.0000 H   0  0  0  0  0  0  0  0  0  0  0  0
    5.5369   13.9435    0.0000 H   0  0  0  0  0  0  0  0  0  0  0  0
    4.4862   13.7414    0.0000 H   0  0  0  0  0  0  0  0  0  0  0  0
    3.3508   15.3766    0.0000 H   0  0  0  0  0  0  0  0  0  0  0  0
    2.7429   13.6219    0.0000 H   0  0  0  0  0  0  0  0  0  0  0  0
    5.3471   13.3956    0.0000 H   0  0  0  0  0  0  0  0  0  0  0  0
    4.9969   12.3845    0.0000 H   0  0  0  0  0  0  0  0  0  0  0  0
    2.9757   12.2114    0.0000 H   0  0  0  0  0  0  0  0  0  0  0  0
    4.7269   11.6049    0.0000 H   0  0  0  0  0  0  0  0  0  0  0  0
    3.6762   11.4026    0.0000 H   0  0  0  0  0  0  0  0  0  0  0  0
  1  2  1  0  0  0  0
  1 52  1  0  0  0  0
  1 53  1  0  0  0  0
  1 54  1  0  0  0  0
  2  3  1  0  0  0  0
  2 55  1  0  0  0  0
  2 56  1  0  0  0  0
  3  4  1  0  0  0  0
  3 57  1  0  0  0  0
  3 58  1  0  0  0  0
  4  5  1  0  0  0  0
  4 59  1  0  0  0  0
  4 60  1  0  0  0  0
  5  6  1  0  0  0  0
  5 61  1  0  0  0  0
  5 62  1  0  0  0  0
  6  7  1  0  0  0  0
  6 63  1  0  0  0  0
  6 64  1  0  0  0  0
  7  8  1  0  0  0  0
  7 65  1  0  0  0  0
  7 66  1  0  0  0  0
  8  9  1  0  0  0  0
  8 67  1  0  0  0  0
  8 68  1  0  0  0  0
  9 10  1  0  0  0  0
  9 69  1  0  0  0  0
  9 70  1  0  0  0  0
 10 11  1  0  0  0  0
 10 71  1  0  0  0  0
 10 72  1  0  0  0  0
 11 12  1  0  0  0  0
 11 73  1  0  0  0  0
 11 74  1  0  0  0  0
 12 13  1  0  0  0  0
 12 75  1  0  0  0  0
 12 76  1  0  0  0  0
 13 14  1  0  0  0  0
 13 77  1  0  0  0  0
 13 78  1  0  0  0  0
 14 15  1  0  0  0  0
 14 79  1  0  0  0  0
 14 80  1  0  0  0  0
 15 16  2  0  0  0  0
 15 81  1  0  0  0  0
 16 17  1  0  0  0  0
 16 82  1  0  0  0  0
 17 18  1  0  0  0  0
 18 19  1  0  0  0  0
 18 83  1  0  0  0  0
 18 84  1  0  0  0  0
 19 20  1  0  0  0  0
 19 28  1  0  0  0  0
 19 85  1  0  0  0  0
 20 21  1  0  0  0  0
 20 86  1  0  0  0  0
 20 87  1  0  0  0  0
 21 22  1  0  0  0  0
 22 23  2  0  0  0  0
 22 24  1  0  0  0  0
 22 27  1  0  0  0  0
 24 25  1  0  0  0  0
 24 88  1  0  0  0  0
 25 26  1  0  0  0  0
 25 89  1  0  0  0  0
 25 90  1  0  0  0  0
 26 27  1  0  0  0  0
 26 91  1  0  0  0  0
 26 92  1  0  0  0  0
 28 29  1  0  0  0  0
 29 30  2  0  0  0  0
 29 31  1  0  0  0  0
 31 32  1  0  0  0  0
 31 93  1  0  0  0  0
 31 94  1  0  0  0  0
 32 33  1  0  0  0  0
 32 95  1  0  0  0  0
 32 96  1  0  0  0  0
 33 34  2  0  0  0  0
 33 97  1  0  0  0  0
 34 35  1  0  0  0  0
 34 98  1  0  0  0  0
 35 36  1  0  0  0  0
 35 99  1  0  0  0  0
 35100  1  0  0  0  0
 36 37  2  0  0  0  0
 36101  1  0  0  0  0
 37 38  1  0  0  0  0
 37102  1  0  0  0  0
 38 39  1  0  0  0  0
 38103  1  0  0  0  0
 38104  1  0  0  0  0
 39 40  2  0  0  0  0
 39105  1  0  0  0  0
 40 41  1  0  0  0  0
 40106  1  0  0  0  0
 41 42  1  0  0  0  0
 41107  1  0  0  0  0
 41108  1  0  0  0  0
 42 43  2  0  0  0  0
 42109  1  0  0  0  0
 43 44  1  0  0  0  0
 43110  1  0  0  0  0
 44 45  1  0  0  0  0
 44111  1  0  0  0  0
 44112  1  0  0  0  0
 45 46  2  0  0  0  0
 45113  1  0  0  0  0
 46 47  1  0  0  0  0
 46114  1  0  0  0  0
 47 48  1  0  0  0  0
 47115  1  0  0  0  0
 47116  1  0  0  0  0
 48 49  2  0  0  0  0
 48117  1  0  0  0  0
 49 50  1  0  0  0  0
 49118  1  0  0  0  0
 50 51  1  0  0  0  0
 50119  1  0  0  0  0
 50120  1  0  0  0  0
 51121  1  0  0  0  0
 51122  1  0  0  0  0
 51123  1  0  0  0  0
M  END
>  <DRUGBANK_ID>
DB17620

>  <COMMON_NAME>
PPI-1040

>  <CAS_NUMBER>
1436673-69-6

>  <UNII>
5J560A5O35

>  <SYNONYMS>
1-(((z)-hexadec-1-en-1-yl)oxy)-3-((2-oxido-1,3,2-oxazaphospholidin-2-yl)oxy)propan-2-yl (4z,7z,10z,13z,16z,19z)-docosa-4,7,10,13,16,19-hexaenoate; 4,7,10,13,16,19-docosahexaenoic acid, 2-((1z)-1-hexadecen-1-yloxy)-1-(((2-oxido-1,3,2-oxazaphospholidin-2-yl)oxy)methyl)ethyl ester, (4z,7z,10z,13z,16z,19z)-

$$$$
