
 OpenBabel10282417072D

 45 49  0  0  1  0  0  0  0  0999 V2000
    1.6375   -0.1348    0.0000 O   0  0  0  0  0  0  0  0  0  0  0  0
    3.9656   -1.6359    0.0000 N   0  0  0  0  0  0  0  0  0  0  0  0
    2.8713    2.0345    0.0000 N   0  0  0  0  0  0  0  0  0  0  0  0
    3.1418    3.3313    0.0000 N   0  0  0  0  0  0  0  0  0  0  0  0
    3.7126   -0.8572    0.0000 C   0  0  0  0  0  0  0  0  0  0  0  0
    2.8768    0.6165    0.0000 C   0  0  1  0  0  0  0  0  0  0  0  0
    2.8938   -0.8572    0.0000 C   0  0  0  0  0  0  0  0  0  0  0  0
    4.1504   -0.1253    0.0000 C   0  0  0  0  0  0  0  0  0  0  0  0
    3.3032   -2.1171    0.0000 C   0  0  0  0  0  0  0  0  0  0  0  0
    3.7296    0.6165    0.0000 C   0  0  0  0  0  0  0  0  0  0  0  0
    2.6409   -1.6359    0.0000 C   0  0  0  0  0  0  0  0  0  0  0  0
    4.7498   -1.9707    0.0000 C   0  0  0  0  0  0  0  0  0  0  0  0
    2.4561   -0.1253    0.0000 C   0  0  0  0  0  0  0  0  0  0  0  0
    3.3792   -2.9664    0.0000 C   0  0  0  0  0  0  0  0  0  0  0  0
    4.8456   -2.8181    0.0000 C   0  0  0  0  0  0  0  0  0  0  0  0
    4.1556   -3.3193    0.0000 C   0  0  0  0  0  0  0  0  0  0  0  0
    2.4647    1.3240    0.0000 C   0  0  0  0  0  0  0  0  0  0  0  0
    1.9398   -2.0705    0.0000 C   0  0  0  0  0  0  0  0  0  0  0  0
    2.6395   -3.3313    0.0000 C   0  0  0  0  0  0  0  0  0  0  0  0
    1.9390   -2.8955    0.0000 C   0  0  0  0  0  0  0  0  0  0  0  0
    2.5354    2.7812    0.0000 C   0  0  0  0  0  0  0  0  0  0  0  0
    3.6852    2.1233    0.0000 C   0  0  0  0  0  0  0  0  0  0  0  0
    3.8524    2.9247    0.0000 C   0  0  0  0  0  0  0  0  0  0  0  0
    1.7340    2.9483    0.0000 C   0  0  0  0  0  0  0  0  0  0  0  0
    3.4100    1.5442    0.0000 H   0  0  0  0  0  0  0  0  0  0  0  0
    5.2203   -0.1376    0.0000 H   0  0  0  0  0  0  0  0  0  0  0  0
    4.6942    0.7962    0.0000 H   0  0  0  0  0  0  0  0  0  0  0  0
    4.2681    1.5411    0.0000 H   0  0  0  0  0  0  0  0  0  0  0  0
    4.7996    0.6104    0.0000 H   0  0  0  0  0  0  0  0  0  0  0  0
    5.6081   -1.3318    0.0000 H   0  0  0  0  0  0  0  0  0  0  0  0
    5.7315   -2.3964    0.0000 H   0  0  0  0  0  0  0  0  0  0  0  0
    5.8248   -3.2495    0.0000 H   0  0  0  0  0  0  0  0  0  0  0  0
    4.9594   -3.8820    0.0000 H   0  0  0  0  0  0  0  0  0  0  0  0
    4.2633   -4.3839    0.0000 H   0  0  0  0  0  0  0  0  0  0  0  0
    5.1322   -3.7565    0.0000 H   0  0  0  0  0  0  0  0  0  0  0  0
    1.3947    1.3199    0.0000 H   0  0  0  0  0  0  0  0  0  0  0  0
    1.9333    0.3953    0.0000 H   0  0  0  0  0  0  0  0  0  0  0  0
    1.0383   -1.5681    0.0000 H   0  0  0  0  0  0  0  0  0  0  0  0
    2.5888   -4.3621    0.0000 H   0  0  0  0  0  0  0  0  0  0  0  0
    1.0366   -3.3963    0.0000 H   0  0  0  0  0  0  0  0  0  0  0  0
    4.3787    1.3590    0.0000 H   0  0  0  0  0  0  0  0  0  0  0  0
    4.7936    3.3480    0.0000 H   0  0  0  0  0  0  0  0  0  0  0  0
    1.3994    3.9646    0.0000 H   0  0  0  0  0  0  0  0  0  0  0  0
    1.0211    2.1504    0.0000 H   0  0  0  0  0  0  0  0  0  0  0  0
    0.6865    3.1667    0.0000 H   0  0  0  0  0  0  0  0  0  0  0  0
  1 13  2  0  0  0  0
  2  5  1  0  0  0  0
  2  9  1  0  0  0  0
  2 12  1  0  0  0  0
  3 17  1  0  0  0  0
  3 21  1  0  0  0  0
  3 22  1  0  0  0  0
  4 21  2  0  0  0  0
  4 23  1  0  0  0  0
  5  7  2  0  0  0  0
  5  8  1  0  0  0  0
  6 10  1  0  0  0  0
  6 13  1  0  0  0  0
  6 17  1  0  0  0  0
  6 25  1  6  0  0  0
  7 11  1  0  0  0  0
  7 13  1  0  0  0  0
  8 10  1  0  0  0  0
  8 26  1  0  0  0  0
  8 27  1  0  0  0  0
  9 11  1  0  0  0  0
  9 14  2  0  0  0  0
 10 28  1  0  0  0  0
 10 29  1  0  0  0  0
 11 18  2  0  0  0  0
 12 15  1  0  0  0  0
 12 30  1  0  0  0  0
 12 31  1  0  0  0  0
 14 16  1  0  0  0  0
 14 19  1  0  0  0  0
 15 16  1  0  0  0  0
 15 32  1  0  0  0  0
 15 33  1  0  0  0  0
 16 34  1  0  0  0  0
 16 35  1  0  0  0  0
 17 36  1  0  0  0  0
 17 37  1  0  0  0  0
 18 20  1  0  0  0  0
 18 38  1  0  0  0  0
 19 20  2  0  0  0  0
 19 39  1  0  0  0  0
 20 40  1  0  0  0  0
 21 24  1  0  0  0  0
 22 23  2  0  0  0  0
 22 41  1  0  0  0  0
 23 42  1  0  0  0  0
 24 43  1  0  0  0  0
 24 44  1  0  0  0  0
 24 45  1  0  0  0  0
M  END
>  <DRUGBANK_ID>
DB04885

>  <COMMON_NAME>
Cilansetron

>  <CAS_NUMBER>
120635-74-7

>  <UNII>
2J6DQ1U5B5

>  <SYNONYMS>
Cilansetron

$$$$
