ISA
 OpenBabel10282417072D

 22 22  0  0  0  0  0  0  0  0999 V2000
    2.3669    1.6869    0.0000 I   0  0  0  0  0  0  0  0  0  0  0  0
    1.6524    1.2744    0.0000 C   0  0  0  0  0  0  0  0  0  0  0  0
    1.6524    0.4494    0.0000 C   0  0  0  0  0  0  0  0  0  0  0  0
    0.9379    0.0369    0.0000 C   0  0  0  0  0  0  0  0  0  0  0  0
    0.9379    1.6869    0.0000 C   0  0  0  0  0  0  0  0  0  0  0  0
    0.2234    1.2744    0.0000 C   0  0  0  0  0  0  0  0  0  0  0  0
    0.2234    0.4494    0.0000 C   0  0  0  0  0  0  0  0  0  0  0  0
   -0.4910    0.0369    0.0000 C   0  0  0  0  0  0  0  0  0  0  0  0
   -0.4910   -0.7881    0.0000 C   0  0  2  0  0  0  0  0  0  0  0  0
    0.2234   -1.2006    0.0000 S   0  0  0  0  0  0  0  0  0  0  0  0
   -1.2055   -1.2006    0.0000 C   0  0  0  0  0  0  0  0  0  0  0  0
   -1.2055   -2.0256    0.0000 O   0  0  0  0  0  0  0  0  0  0  0  0
   -1.9200   -0.7881    0.0000 O   0  0  0  0  0  0  0  0  0  0  0  0
    0.0147   -0.4961    0.0000 H   0  0  0  0  0  0  0  0  0  0  0  0
    2.5461   -0.0666    0.0000 H   0  0  0  0  0  0  0  0  0  0  0  0
    0.9379   -0.9951    0.0000 H   0  0  0  0  0  0  0  0  0  0  0  0
    0.9379    2.7189    0.0000 H   0  0  0  0  0  0  0  0  0  0  0  0
   -0.6703    1.7904    0.0000 H   0  0  0  0  0  0  0  0  0  0  0  0
   -1.4177    0.5719    0.0000 H   0  0  0  0  0  0  0  0  0  0  0  0
   -1.4176   -0.4981    0.0000 H   0  0  0  0  0  0  0  0  0  0  0  0
    0.2233   -2.5606    0.0000 H   0  0  0  0  0  0  0  0  0  0  0  0
   -1.9200    0.1489    0.0000 H   0  0  0  0  0  0  0  0  0  0  0  0
  1  2  1  0  0  0  0
  2  3  2  0  0  0  0
  2  5  1  0  0  0  0
  3  4  1  0  0  0  0
  3 15  1  0  0  0  0
  4  7  2  0  0  0  0
  4 16  1  0  0  0  0
  5  6  2  0  0  0  0
  5 17  1  0  0  0  0
  6  7  1  0  0  0  0
  6 18  1  0  0  0  0
  7  8  1  0  0  0  0
  8  9  1  0  0  0  0
  8 19  1  0  0  0  0
  8 20  1  0  0  0  0
  9 10  1  0  0  0  0
  9 11  1  0  0  0  0
  9 14  1  1  0  0  0
 10 21  1  0  0  0  0
 11 12  2  0  0  0  0
 11 13  1  0  0  0  0
 13 22  1  0  0  0  0
M  END
>  <DRUGBANK_ID>
DB02570

>  <SECONDARY_ACCESSION_NUMBERS>
EXPT01931

>  <COMMON_NAME>
PD150606

$$$$
