FAF
 OpenBabel10282417072D

 46 46  0  0  0  0  0  0  0  0999 V2000
   -1.2649   -2.7575    0.0000 C   0  0  0  0  0  0  0  0  0  0  0  0
   -1.2649   -3.5825    0.0000 O   0  0  0  0  0  0  0  0  0  0  0  0
   -1.9794   -2.3450    0.0000 C   0  0  0  0  0  0  0  0  0  0  0  0
   -0.5505   -2.3450    0.0000 N   0  0  0  0  0  0  0  0  0  0  0  0
   -0.5505   -1.5200    0.0000 C   0  0  1  0  0  0  0  0  0  0  0  0
   -1.2649   -1.1075    0.0000 C   0  0  0  0  0  0  0  0  0  0  0  0
   -1.2649   -0.2825    0.0000 C   0  0  0  0  0  0  0  0  0  0  0  0
   -1.9794    0.1300    0.0000 C   0  0  0  0  0  0  0  0  0  0  0  0
   -0.5505    0.1300    0.0000 C   0  0  0  0  0  0  0  0  0  0  0  0
    0.1640   -1.1075    0.0000 C   0  0  0  0  0  0  0  0  0  0  0  0
    0.8785   -1.5200    0.0000 O   0  0  0  0  0  0  0  0  0  0  0  0
    0.1640   -0.2825    0.0000 N   0  0  0  0  0  0  0  0  0  0  0  0
    0.8785    0.1300    0.0000 C   0  0  1  0  0  0  0  0  0  0  0  0
    0.8785    0.9550    0.0000 C   0  0  0  0  0  0  0  0  0  0  0  0
    1.5930    1.3675    0.0000 C   0  0  0  0  0  0  0  0  0  0  0  0
    1.5930    2.1925    0.0000 C   0  0  0  0  0  0  0  0  0  0  0  0
    2.3074    0.9550    0.0000 C   0  0  0  0  0  0  0  0  0  0  0  0
    2.3074    2.6050    0.0000 C   0  0  0  0  0  0  0  0  0  0  0  0
    3.0219    1.3675    0.0000 C   0  0  0  0  0  0  0  0  0  0  0  0
    3.0219    2.1925    0.0000 C   0  0  0  0  0  0  0  0  0  0  0  0
    1.5930   -0.2825    0.0000 C   0  0  0  0  0  0  0  0  0  0  0  0
    1.5930   -1.1075    0.0000 O   0  0  0  0  0  0  0  0  0  0  0  0
   -1.0561   -1.8120    0.0000 H   0  0  0  0  0  0  0  0  0  0  0  0
    0.3728    0.4219    0.0000 H   0  0  0  0  0  0  0  0  0  0  0  0
   -1.9794   -1.2750    0.0000 H   0  0  0  0  0  0  0  0  0  0  0  0
   -2.9060   -2.8800    0.0000 H   0  0  0  0  0  0  0  0  0  0  0  0
   -2.9061   -1.8100    0.0000 H   0  0  0  0  0  0  0  0  0  0  0  0
    0.3021   -2.8372    0.0000 H   0  0  0  0  0  0  0  0  0  0  0  0
   -2.1916   -1.6425    0.0000 H   0  0  0  0  0  0  0  0  0  0  0  0
   -2.1915   -0.5725    0.0000 H   0  0  0  0  0  0  0  0  0  0  0  0
   -1.2649    0.7875    0.0000 H   0  0  0  0  0  0  0  0  0  0  0  0
   -1.9794    1.2000    0.0000 H   0  0  0  0  0  0  0  0  0  0  0  0
   -2.9060   -0.4050    0.0000 H   0  0  0  0  0  0  0  0  0  0  0  0
   -2.9061    0.6650    0.0000 H   0  0  0  0  0  0  0  0  0  0  0  0
    0.3762   -0.4050    0.0000 H   0  0  0  0  0  0  0  0  0  0  0  0
   -0.5505    1.2000    0.0000 H   0  0  0  0  0  0  0  0  0  0  0  0
    0.3761    0.6650    0.0000 H   0  0  0  0  0  0  0  0  0  0  0  0
   -0.6886    0.2098    0.0000 H   0  0  0  0  0  0  0  0  0  0  0  0
   -0.0481    1.4900    0.0000 H   0  0  0  0  0  0  0  0  0  0  0  0
    0.8785    2.0250    0.0000 H   0  0  0  0  0  0  0  0  0  0  0  0
    0.6993    2.7085    0.0000 H   0  0  0  0  0  0  0  0  0  0  0  0
    2.3074   -0.0770    0.0000 H   0  0  0  0  0  0  0  0  0  0  0  0
    2.3074    3.6370    0.0000 H   0  0  0  0  0  0  0  0  0  0  0  0
    3.9156    0.8515    0.0000 H   0  0  0  0  0  0  0  0  0  0  0  0
    3.9156    2.7085    0.0000 H   0  0  0  0  0  0  0  0  0  0  0  0
    2.4867    0.2335    0.0000 H   0  0  0  0  0  0  0  0  0  0  0  0
  1  2  2  0  0  0  0
  1  3  1  0  0  0  0
  1  4  1  0  0  0  0
  3 25  1  0  0  0  0
  3 26  1  0  0  0  0
  3 27  1  0  0  0  0
  4 28  1  0  0  0  0
  5  4  1  0  0  0  0
  5  6  1  0  0  0  0
  5 10  1  0  0  0  0
  5 23  1  6  0  0  0
  6  7  1  0  0  0  0
  6 29  1  0  0  0  0
  6 30  1  0  0  0  0
  7  8  1  0  0  0  0
  7  9  1  0  0  0  0
  7 31  1  0  0  0  0
  8 32  1  0  0  0  0
  8 33  1  0  0  0  0
  8 34  1  0  0  0  0
  9 35  1  0  0  0  0
  9 36  1  0  0  0  0
  9 37  1  0  0  0  0
 10 11  2  0  0  0  0
 10 12  1  0  0  0  0
 12 38  1  0  0  0  0
 13 12  1  0  0  0  0
 13 14  1  0  0  0  0
 13 21  1  0  0  0  0
 13 24  1  6  0  0  0
 14 15  1  0  0  0  0
 14 39  1  0  0  0  0
 14 40  1  0  0  0  0
 15 16  2  0  0  0  0
 15 17  1  0  0  0  0
 16 18  1  0  0  0  0
 16 41  1  0  0  0  0
 17 19  2  0  0  0  0
 17 42  1  0  0  0  0
 18 20  2  0  0  0  0
 18 43  1  0  0  0  0
 19 20  1  0  0  0  0
 19 44  1  0  0  0  0
 20 45  1  0  0  0  0
 21 22  2  0  0  0  0
 21 46  1  0  0  0  0
M  END
>  <DRUGBANK_ID>
DB07749

>  <COMMON_NAME>
2-ACETYLAMINO-4-METHYL-PENTANOIC ACID (1-FORMYL-2-PHENYL-ETHYL)-AMIDE

$$$$
