
 OpenBabel10282417072D

  8  4  0  0  0  0  0  0  0  0999 V2000
   -0.3984    0.1067    0.0000 Fe  0  0  0  0  0  0  0  0  0  0  0  0
   -1.5652   -1.0599    0.0000 Fe  0  0  0  0  0  0  0  0  0  0  0  0
   -0.9818   -0.4766    0.0000 O   0  0  0  0  0  0  0  0  0  0  0  0
    0.3983   -0.1067    0.0000 N   0  5  0  0  0  0  0  0  0  0  0  0
    0.9817    0.4766    0.0000 N   0  3  0  0  0  0  0  0  0  0  0  0
    1.5652    1.0599    0.0000 N   0  5  0  0  0  0  0  0  0  0  0  0
   -0.0118   -0.4766    0.0000 H   0  0  0  0  0  0  0  0  0  0  0  0
   -1.4668    0.3634    0.0000 H   0  0  0  0  0  0  0  0  0  0  0  0
  3  7  1  0  0  0  0
  3  8  1  0  0  0  0
  4  5  2  0  0  0  0
  5  6  2  0  0  0  0
M  CHG  3   4  -1   5   1   6  -1
M  END
>  <DRUGBANK_ID>
DB02013

>  <SECONDARY_ACCESSION_NUMBERS>
EXPT01417

>  <COMMON_NAME>
Iron azide hydrate

>  <SYNONYMS>
Monoazido-mu-oxo-diiron; Monoazido-Î¼-Oxo-Diiron

$$$$
