
 OpenBabel10282417072D

  6  5  0  0  0  0  0  0  0  0999 V2000
    0.0000    0.8250    0.0000 C   0  0  0  0  0  0  0  0  0  0  0  0
    0.0000    0.0000    0.0000 N   0  3  0  0  0  0  0  0  0  0  0  0
    0.0000   -0.8250    0.0000 C   0  5  0  0  0  0  0  0  0  0  0  0
    0.9266    1.3600    0.0000 H   0  0  0  0  0  0  0  0  0  0  0  0
   -0.9266    1.3600    0.0000 H   0  0  0  0  0  0  0  0  0  0  0  0
   -0.0000    1.8950    0.0000 H   0  0  0  0  0  0  0  0  0  0  0  0
  1  4  1  0  0  0  0
  1  5  1  0  0  0  0
  1  6  1  0  0  0  0
  2  1  1  0  0  0  0
  2  3  3  0  0  0  0
M  CHG  2   2   1   3  -1
M  END
>  <DRUGBANK_ID>
DB04337

>  <SECONDARY_ACCESSION_NUMBERS>
EXPT02202

>  <COMMON_NAME>
Isocyanomethane

>  <CAS_NUMBER>
593-75-9

>  <UNII>
B5B6DXM7GG

>  <SYNONYMS>
Methyl isocyanide; Methyl isonitrile; Methylisonitrile

$$$$
