
 OpenBabel10282417072D

 56 58  0  0  1  0  0  0  0  0999 V2000
   -0.7145    6.1875    0.0000 N   0  0  0  0  0  0  0  0  0  0  0  0
    0.0000    5.7750    0.0000 C   0  0  0  0  0  0  0  0  0  0  0  0
    0.0000    4.9500    0.0000 C   0  0  0  0  0  0  0  0  0  0  0  0
    0.7145    4.5375    0.0000 N   0  0  0  0  0  0  0  0  0  0  0  0
    0.7145    3.7125    0.0000 C   0  0  1  0  0  0  0  0  0  0  0  0
    1.4289    3.3000    0.0000 C   0  0  0  0  0  0  0  0  0  0  0  0
    1.4289    2.4750    0.0000 C   0  0  0  0  0  0  0  0  0  0  0  0
    0.7145    2.0625    0.0000 C   0  0  2  0  0  0  0  0  0  0  0  0
    0.7145    1.2375    0.0000 C   0  0  0  0  0  0  0  0  0  0  0  0
    0.0000    0.8250    0.0000 C   0  0  0  0  0  0  0  0  0  0  0  0
   -0.7145    1.2375    0.0000 O   0  0  0  0  0  0  0  0  0  0  0  0
    0.0000    0.0000    0.0000 N   0  0  0  0  0  0  0  0  0  0  0  0
    0.7145   -0.4125    0.0000 C   0  0  1  0  0  0  0  0  0  0  0  0
    1.4289    0.0000    0.0000 C   0  0  0  0  0  0  0  0  0  0  0  0
    2.1434   -0.4125    0.0000 C   0  0  0  0  0  0  0  0  0  0  0  0
    2.8579    0.0000    0.0000 C   0  0  0  0  0  0  0  0  0  0  0  0
    3.5724   -0.4125    0.0000 C   0  0  0  0  0  0  0  0  0  0  0  0
    3.5724   -1.2375    0.0000 C   0  0  0  0  0  0  0  0  0  0  0  0
    2.8579   -1.6500    0.0000 C   0  0  0  0  0  0  0  0  0  0  0  0
    2.8579   -2.4750    0.0000 C   0  0  0  0  0  0  0  0  0  0  0  0
    3.5724   -2.8875    0.0000 O   0  0  0  0  0  0  0  0  0  0  0  0
    2.1434   -2.8875    0.0000 O   0  0  0  0  0  0  0  0  0  0  0  0
    2.1434   -1.2375    0.0000 C   0  0  0  0  0  0  0  0  0  0  0  0
    1.4289   -1.6500    0.0000 O   0  0  0  0  0  0  0  0  0  0  0  0
    0.7145   -1.2375    0.0000 B   0  0  0  0  0  0  0  0  0  0  0  0
    0.0000   -1.6500    0.0000 O   0  0  0  0  0  0  0  0  0  0  0  0
    0.0000    2.4750    0.0000 C   0  0  0  0  0  0  0  0  0  0  0  0
    0.0000    3.3000    0.0000 C   0  0  0  0  0  0  0  0  0  0  0  0
   -0.7145    7.2075    0.0000 H   0  0  0  0  0  0  0  0  0  0  0  0
   -1.5978    5.6775    0.0000 H   0  0  0  0  0  0  0  0  0  0  0  0
    0.9266    6.3100    0.0000 H   0  0  0  0  0  0  0  0  0  0  0  0
    0.9266    5.2400    0.0000 H   0  0  0  0  0  0  0  0  0  0  0  0
   -0.9266    4.4150    0.0000 H   0  0  0  0  0  0  0  0  0  0  0  0
    0.0000    3.8800    0.0000 H   0  0  0  0  0  0  0  0  0  0  0  0
    1.5978    5.0475    0.0000 H   0  0  0  0  0  0  0  0  0  0  0  0
    1.6412    4.2475    0.0000 H   0  0  0  0  0  0  0  0  0  0  0  0
    2.3556    3.8350    0.0000 H   0  0  0  0  0  0  0  0  0  0  0  0
    2.3555    2.7650    0.0000 H   0  0  0  0  0  0  0  0  0  0  0  0
    2.3556    1.9400    0.0000 H   0  0  0  0  0  0  0  0  0  0  0  0
    1.4289    1.4050    0.0000 H   0  0  0  0  0  0  0  0  0  0  0  0
    1.6412    1.5275    0.0000 H   0  0  0  0  0  0  0  0  0  0  0  0
    1.6411    0.7025    0.0000 H   0  0  0  0  0  0  0  0  0  0  0  0
    0.7145    0.1675    0.0000 H   0  0  0  0  0  0  0  0  0  0  0  0
   -0.8526   -0.4923    0.0000 H   0  0  0  0  0  0  0  0  0  0  0  0
    0.7145    0.6575    0.0000 H   0  0  0  0  0  0  0  0  0  0  0  0
    1.4289    1.0700    0.0000 H   0  0  0  0  0  0  0  0  0  0  0  0
    2.3555    0.5350    0.0000 H   0  0  0  0  0  0  0  0  0  0  0  0
    2.8579    1.0320    0.0000 H   0  0  0  0  0  0  0  0  0  0  0  0
    4.4661    0.1035    0.0000 H   0  0  0  0  0  0  0  0  0  0  0  0
    4.4661   -1.7535    0.0000 H   0  0  0  0  0  0  0  0  0  0  0  0
    3.5724   -3.8245    0.0000 H   0  0  0  0  0  0  0  0  0  0  0  0
   -0.8400   -1.1650    0.0000 H   0  0  0  0  0  0  0  0  0  0  0  0
   -0.9266    1.9400    0.0000 H   0  0  0  0  0  0  0  0  0  0  0  0
   -0.9266    3.0100    0.0000 H   0  0  0  0  0  0  0  0  0  0  0  0
   -0.9266    3.8350    0.0000 H   0  0  0  0  0  0  0  0  0  0  0  0
    0.0000    4.3700    0.0000 H   0  0  0  0  0  0  0  0  0  0  0  0
  1  2  1  0  0  0  0
  1 29  1  0  0  0  0
  1 30  1  0  0  0  0
  2  3  1  0  0  0  0
  2 31  1  0  0  0  0
  2 32  1  0  0  0  0
  3  4  1  0  0  0  0
  3 33  1  0  0  0  0
  3 34  1  0  0  0  0
  4 35  1  0  0  0  0
  5  4  1  0  0  0  0
  5  6  1  0  0  0  0
  5 28  1  0  0  0  0
  5 36  1  6  0  0  0
  6  7  1  0  0  0  0
  6 37  1  0  0  0  0
  6 38  1  0  0  0  0
  7 39  1  0  0  0  0
  7 40  1  0  0  0  0
  8  7  1  0  0  0  0
  8  9  1  0  0  0  0
  8 27  1  0  0  0  0
  8 41  1  1  0  0  0
  9 10  1  0  0  0  0
  9 42  1  0  0  0  0
  9 43  1  0  0  0  0
 10 11  2  0  0  0  0
 10 12  1  0  0  0  0
 12 44  1  0  0  0  0
 13 12  1  0  0  0  0
 13 14  1  0  0  0  0
 13 25  1  0  0  0  0
 13 45  1  6  0  0  0
 14 15  1  0  0  0  0
 14 46  1  0  0  0  0
 14 47  1  0  0  0  0
 15 16  2  0  0  0  0
 15 23  1  0  0  0  0
 16 17  1  0  0  0  0
 16 48  1  0  0  0  0
 17 18  2  0  0  0  0
 17 49  1  0  0  0  0
 18 19  1  0  0  0  0
 18 50  1  0  0  0  0
 19 20  1  0  0  0  0
 19 23  2  0  0  0  0
 20 21  1  0  0  0  0
 20 22  2  0  0  0  0
 21 51  1  0  0  0  0
 23 24  1  0  0  0  0
 24 25  1  0  0  0  0
 25 26  1  0  0  0  0
 26 52  1  0  0  0  0
 27 28  1  0  0  0  0
 27 53  1  0  0  0  0
 27 54  1  0  0  0  0
 28 55  1  0  0  0  0
 28 56  1  0  0  0  0
M  END
>  <DRUGBANK_ID>
DB16338

>  <COMMON_NAME>
Taniborbactam

>  <CAS_NUMBER>
1613267-49-4

>  <UNII>
8IGQ156Z07

>  <SYNONYMS>
Taniborbactam

$$$$
