
 OpenBabel10282417072D

 24 25  0  0  1  0  0  0  0  0999 V2000
    1.2695    1.7474    0.0000 C   0  0  0  0  0  0  0  0  0  0  0  0
    0.7846    1.0799    0.0000 C   0  0  0  0  0  0  0  0  0  0  0  0
    3.0937    2.5320    0.0000 C   0  0  0  0  0  0  0  0  0  0  0  0
    3.3237    1.0799    0.0000 C   0  0  0  0  0  0  0  0  0  0  0  0
    2.8388    1.7474    0.0000 C   0  0  0  0  0  0  0  0  0  0  0  0
    2.0542    1.4924    0.0000 C   0  0  0  0  0  0  0  0  0  0  0  0
    2.5417    3.1451    0.0000 C   0  0  1  0  0  0  0  0  0  0  0  0
    2.0542    0.6674    0.0000 C   0  0  0  0  0  0  0  0  0  0  0  0
    2.7966    3.9297    0.0000 C   0  0  0  0  0  0  0  0  0  0  0  0
    1.7347    2.9736    0.0000 N   0  0  0  0  0  0  0  0  0  0  0  0
    2.8388    0.4125    0.0000 N   0  0  0  0  0  0  0  0  0  0  0  0
    2.2446    4.5428    0.0000 O   0  0  0  0  0  0  0  0  0  0  0  0
    3.6036    4.1012    0.0000 O   0  0  0  0  0  0  0  0  0  0  0  0
    1.2695    0.4125    0.0000 Se  0  0  0  0  0  0  0  0  0  0  0  0
    3.3487    3.3166    0.0000 H   0  0  0  0  0  0  0  0  0  0  0  0
    0.9506    2.7289    0.0000 H   0  0  0  0  0  0  0  0  0  0  0  0
   -0.2474    1.0799    0.0000 H   0  0  0  0  0  0  0  0  0  0  0  0
    4.1403    2.7545    0.0000 H   0  0  0  0  0  0  0  0  0  0  0  0
    3.4244    3.5496    0.0000 H   0  0  0  0  0  0  0  0  0  0  0  0
    4.3557    1.0799    0.0000 H   0  0  0  0  0  0  0  0  0  0  0  0
    1.0522    3.7316    0.0000 H   0  0  0  0  0  0  0  0  0  0  0  0
    1.4195    2.0035    0.0000 H   0  0  0  0  0  0  0  0  0  0  0  0
    3.1430   -0.5238    0.0000 H   0  0  0  0  0  0  0  0  0  0  0  0
    4.2305    3.4048    0.0000 H   0  0  0  0  0  0  0  0  0  0  0  0
  1 16  1  0  0  0  0
  2  1  2  0  0  0  0
  2 17  1  0  0  0  0
  3 18  1  0  0  0  0
  3 19  1  0  0  0  0
  4 20  1  0  0  0  0
  5  3  1  0  0  0  0
  5  4  2  0  0  0  0
  6  1  1  0  0  0  0
  6  5  1  0  0  0  0
  7  3  1  0  0  0  0
  7 10  1  0  0  0  0
  7 15  1  1  0  0  0
  8  6  2  0  0  0  0
  9  7  1  0  0  0  0
 10 21  1  0  0  0  0
 10 22  1  0  0  0  0
 11  4  1  0  0  0  0
 11  8  1  0  0  0  0
 11 23  1  0  0  0  0
 12  9  2  0  0  0  0
 13  9  1  0  0  0  0
 13 24  1  0  0  0  0
 14  2  1  0  0  0  0
 14  8  1  0  0  0  0
M  END
>  <DRUGBANK_ID>
DB03043

>  <SECONDARY_ACCESSION_NUMBERS>
EXPT00092

>  <COMMON_NAME>
(S)-2-Amino-3-(6h-Selenolo[2,3-B]-Pyrrol-4-Yl)-Propionic Acid

$$$$
