
 OpenBabel10282417072D

 31 31  0  0  1  0  0  0  0  0999 V2000
   -1.2957    0.8929    0.0000 C   0  0  0  0  0  0  0  0  0  0  0  0
    0.1333    0.8929    0.0000 C   0  0  0  0  0  0  0  0  0  0  0  0
   -0.5812    2.1304    0.0000 C   0  0  0  0  0  0  0  0  0  0  0  0
    1.0307    5.3049    0.0000 C   0  0  0  0  0  0  0  0  0  0  0  0
    0.8007    3.8528    0.0000 C   0  0  0  0  0  0  0  0  0  0  0  0
   -0.5812    1.3054    0.0000 C   0  0  0  0  0  0  0  0  0  0  0  0
    0.5458    4.6374    0.0000 C   0  0  0  0  0  0  0  0  0  0  0  0
    0.1333    2.5429    0.0000 C   0  0  1  0  0  0  0  0  0  0  0  0
    0.8477    2.1304    0.0000 C   0  0  0  0  0  0  0  0  0  0  0  0
    0.6951    6.0586    0.0000 N   0  0  0  0  0  0  0  0  0  0  0  0
   -0.2792    4.6374    0.0000 N   0  0  0  0  0  0  0  0  0  0  0  0
   -0.5342    3.8528    0.0000 N   0  0  0  0  0  0  0  0  0  0  0  0
    0.1333    3.3679    0.0000 N   0  0  0  0  0  0  0  0  0  0  0  0
    1.5622    2.5429    0.0000 O   0  0  0  0  0  0  0  0  0  0  0  0
    0.8477    1.3054    0.0000 O   0  0  0  0  0  0  0  0  0  0  0  0
    0.1333    1.7179    0.0000 H   0  0  0  0  0  0  0  0  0  0  0  0
   -2.2223    1.4279    0.0000 H   0  0  0  0  0  0  0  0  0  0  0  0
   -1.2957   -0.1771    0.0000 H   0  0  0  0  0  0  0  0  0  0  0  0
   -2.2224    0.3579    0.0000 H   0  0  0  0  0  0  0  0  0  0  0  0
    0.1333   -0.1771    0.0000 H   0  0  0  0  0  0  0  0  0  0  0  0
    1.0599    1.4279    0.0000 H   0  0  0  0  0  0  0  0  0  0  0  0
    1.0600    0.3579    0.0000 H   0  0  0  0  0  0  0  0  0  0  0  0
   -1.5078    2.6654    0.0000 H   0  0  0  0  0  0  0  0  0  0  0  0
   -0.5812    3.2004    0.0000 H   0  0  0  0  0  0  0  0  0  0  0  0
    2.0948    5.1931    0.0000 H   0  0  0  0  0  0  0  0  0  0  0  0
    1.6596    6.1706    0.0000 H   0  0  0  0  0  0  0  0  0  0  0  0
    1.7822    3.5339    0.0000 H   0  0  0  0  0  0  0  0  0  0  0  0
    0.3454    1.8404    0.0000 H   0  0  0  0  0  0  0  0  0  0  0  0
    1.2946    6.8838    0.0000 H   0  0  0  0  0  0  0  0  0  0  0  0
   -0.3193    6.1652    0.0000 H   0  0  0  0  0  0  0  0  0  0  0  0
    0.0362    0.8369    0.0000 H   0  0  0  0  0  0  0  0  0  0  0  0
  1 17  1  0  0  0  0
  1 18  1  0  0  0  0
  1 19  1  0  0  0  0
  2 20  1  0  0  0  0
  2 21  1  0  0  0  0
  2 22  1  0  0  0  0
  3 23  1  0  0  0  0
  3 24  1  0  0  0  0
  4 25  1  0  0  0  0
  4 26  1  0  0  0  0
  5 27  1  0  0  0  0
  6  1  1  0  0  0  0
  6  2  1  0  0  0  0
  6  3  1  0  0  0  0
  6 28  1  0  0  0  0
  7  4  1  0  0  0  0
  7  5  2  0  0  0  0
  8  3  1  0  0  0  0
  8 13  1  0  0  0  0
  8 16  1  1  0  0  0
  9  8  1  0  0  0  0
 10  4  1  0  0  0  0
 10 29  1  0  0  0  0
 10 30  1  0  0  0  0
 11  7  1  0  0  0  0
 12 11  2  0  0  0  0
 13  5  1  0  0  0  0
 13 12  1  0  0  0  0
 14  9  2  0  0  0  0
 15  9  1  0  0  0  0
 15 31  1  0  0  0  0
M  END
>  <DRUGBANK_ID>
DB03244

>  <SECONDARY_ACCESSION_NUMBERS>
EXPT03000

>  <COMMON_NAME>
(S)-2-[4-(Aminomethyl)-1h-1,2,3-Triazol-1-Yl]-4-Methylpentanoic Acid

$$$$
