PXX
 OpenBabel10282417072D

 29 31  0  0  0  0  0  0  0  0999 V2000
    0.8283    2.5622    0.0000 C   0  0  0  0  0  0  0  0  0  0  0  0
    0.4158    1.8477    0.0000 C   0  0  0  0  0  0  0  0  0  0  0  0
   -0.4092    1.8477    0.0000 O   0  0  0  0  0  0  0  0  0  0  0  0
    0.8283    1.1332    0.0000 N   0  0  0  0  0  0  0  0  0  0  0  0
    0.4158    0.4188    0.0000 C   0  0  0  0  0  0  0  0  0  0  0  0
    0.8283   -0.2957    0.0000 C   0  0  0  0  0  0  0  0  0  0  0  0
    1.6533   -0.2957    0.0000 C   0  0  0  0  0  0  0  0  0  0  0  0
    2.0658   -1.0102    0.0000 C   0  0  0  0  0  0  0  0  0  0  0  0
    1.6533   -1.7246    0.0000 C   0  0  0  0  0  0  0  0  0  0  0  0
    0.8283   -1.7246    0.0000 N   0  0  0  0  0  0  0  0  0  0  0  0
    0.4158   -1.0102    0.0000 C   0  0  0  0  0  0  0  0  0  0  0  0
   -0.4092   -1.0102    0.0000 C   0  0  0  0  0  0  0  0  0  0  0  0
   -0.8217   -1.7246    0.0000 N   0  0  0  0  0  0  0  0  0  0  0  0
   -1.6467   -1.7246    0.0000 C   0  0  0  0  0  0  0  0  0  0  0  0
   -2.0592   -1.0102    0.0000 C   0  0  0  0  0  0  0  0  0  0  0  0
   -1.6467   -0.2957    0.0000 C   0  0  0  0  0  0  0  0  0  0  0  0
   -0.8217   -0.2957    0.0000 C   0  0  0  0  0  0  0  0  0  0  0  0
   -0.4092    0.4188    0.0000 C   0  0  0  0  0  0  0  0  0  0  0  0
    1.8983    2.5622    0.0000 H   0  0  0  0  0  0  0  0  0  0  0  0
    0.2933    3.4888    0.0000 H   0  0  0  0  0  0  0  0  0  0  0  0
    1.3633    3.4889    0.0000 H   0  0  0  0  0  0  0  0  0  0  0  0
    1.8128    1.1332    0.0000 H   0  0  0  0  0  0  0  0  0  0  0  0
    2.1693    0.5980    0.0000 H   0  0  0  0  0  0  0  0  0  0  0  0
    3.0978   -1.0102    0.0000 H   0  0  0  0  0  0  0  0  0  0  0  0
    2.1693   -2.6183    0.0000 H   0  0  0  0  0  0  0  0  0  0  0  0
   -2.1627   -2.6183    0.0000 H   0  0  0  0  0  0  0  0  0  0  0  0
   -3.0912   -1.0102    0.0000 H   0  0  0  0  0  0  0  0  0  0  0  0
   -2.1627    0.5980    0.0000 H   0  0  0  0  0  0  0  0  0  0  0  0
   -0.9252    1.3125    0.0000 H   0  0  0  0  0  0  0  0  0  0  0  0
  1  2  1  0  0  0  0
  1 19  1  0  0  0  0
  1 20  1  0  0  0  0
  1 21  1  0  0  0  0
  2  3  2  0  0  0  0
  2  4  1  0  0  0  0
  4  5  1  0  0  0  0
  4 22  1  0  0  0  0
  5  6  2  0  0  0  0
  5 18  1  0  0  0  0
  6  7  1  0  0  0  0
  6 11  1  0  0  0  0
  7  8  2  0  0  0  0
  7 23  1  0  0  0  0
  8  9  1  0  0  0  0
  8 24  1  0  0  0  0
  9 10  2  0  0  0  0
  9 25  1  0  0  0  0
 10 11  1  0  0  0  0
 11 12  2  0  0  0  0
 12 13  1  0  0  0  0
 12 17  1  0  0  0  0
 13 14  2  0  0  0  0
 14 15  1  0  0  0  0
 14 26  1  0  0  0  0
 15 16  2  0  0  0  0
 15 27  1  0  0  0  0
 16 17  1  0  0  0  0
 16 28  1  0  0  0  0
 17 18  2  0  0  0  0
 18 29  1  0  0  0  0
M  END
>  <DRUGBANK_ID>
DB08440

>  <COMMON_NAME>
N-1,10-phenanthrolin-5-ylacetamide

$$$$
