
 OpenBabel10282417072D

 30 29  0  0  1  0  0  0  0  0999 V2000
   11.2220   -9.2159    0.0000 P   0  0  0  0  0  0  0  0  0  0  0  0
   10.5075   -9.6285    0.0000 O   0  0  0  0  0  0  0  0  0  0  0  0
   11.6345   -9.9304    0.0000 O   0  0  0  0  0  0  0  0  0  0  0  0
   11.9365   -8.8034    0.0000 O   0  0  0  0  0  0  0  0  0  0  0  0
    8.3640   -8.3909    0.0000 O   0  0  0  0  0  0  0  0  0  0  0  0
    7.6496  -10.4535    0.0000 O   0  0  0  0  0  0  0  0  0  0  0  0
    9.0786  -10.4535    0.0000 O   0  0  0  0  0  0  0  0  0  0  0  0
    6.9351   -8.3909    0.0000 O   0  0  0  0  0  0  0  0  0  0  0  0
    5.5061   -9.2159    0.0000 O   0  0  0  0  0  0  0  0  0  0  0  0
   10.8095   -8.5015    0.0000 O   0  0  0  0  0  0  0  0  0  0  0  0
    6.2206  -10.4535    0.0000 O   0  0  0  0  0  0  0  0  0  0  0  0
    8.3640   -9.2159    0.0000 C   0  0  1  0  0  0  0  0  0  0  0  0
    7.6496   -9.6285    0.0000 C   0  0  1  0  0  0  0  0  0  0  0  0
    9.0786   -9.6285    0.0000 C   0  0  1  0  0  0  0  0  0  0  0  0
    6.9351   -9.2159    0.0000 C   0  0  2  0  0  0  0  0  0  0  0  0
    9.7930   -9.2159    0.0000 C   0  0  0  0  0  0  0  0  0  0  0  0
    6.2206   -9.6285    0.0000 C   0  0  0  0  0  0  0  0  0  0  0  0
   11.1495  -10.7704    0.0000 H   0  0  0  0  0  0  0  0  0  0  0  0
   12.7765   -9.2884    0.0000 H   0  0  0  0  0  0  0  0  0  0  0  0
    9.2040   -7.9059    0.0000 H   0  0  0  0  0  0  0  0  0  0  0  0
    6.8096  -10.9385    0.0000 H   0  0  0  0  0  0  0  0  0  0  0  0
    8.2386  -10.9385    0.0000 H   0  0  0  0  0  0  0  0  0  0  0  0
    7.7751   -7.9059    0.0000 H   0  0  0  0  0  0  0  0  0  0  0  0
    5.5062   -8.2789    0.0000 H   0  0  0  0  0  0  0  0  0  0  0  0
    7.4373   -8.6810    0.0000 H   0  0  0  0  0  0  0  0  0  0  0  0
    8.5763  -10.1634    0.0000 H   0  0  0  0  0  0  0  0  0  0  0  0
    8.1519  -10.1635    0.0000 H   0  0  0  0  0  0  0  0  0  0  0  0
    7.8618   -8.6809    0.0000 H   0  0  0  0  0  0  0  0  0  0  0  0
    9.7930   -8.1459    0.0000 H   0  0  0  0  0  0  0  0  0  0  0  0
    8.8663   -8.6810    0.0000 H   0  0  0  0  0  0  0  0  0  0  0  0
  1  2  1  0  0  0  0
  1  3  1  0  0  0  0
  1  4  1  0  0  0  0
  1 10  2  0  0  0  0
  2 16  1  0  0  0  0
  3 18  1  0  0  0  0
  4 19  1  0  0  0  0
  5 20  1  0  0  0  0
  6 21  1  0  0  0  0
  7 22  1  0  0  0  0
  8 23  1  0  0  0  0
  9 17  1  0  0  0  0
  9 24  1  0  0  0  0
 11 17  2  0  0  0  0
 12  5  1  0  0  0  0
 12 13  1  0  0  0  0
 12 14  1  0  0  0  0
 12 25  1  1  0  0  0
 13  6  1  0  0  0  0
 13 15  1  0  0  0  0
 13 26  1  1  0  0  0
 14  7  1  0  0  0  0
 14 16  1  0  0  0  0
 14 27  1  6  0  0  0
 15  8  1  0  0  0  0
 15 17  1  0  0  0  0
 15 28  1  1  0  0  0
 16 29  1  0  0  0  0
 16 30  1  0  0  0  0
M  END
>  <DRUGBANK_ID>
DB02076

>  <SECONDARY_ACCESSION_NUMBERS>
EXPT00290

>  <COMMON_NAME>
6-phospho-D-gluconic acid

>  <CAS_NUMBER>
921-62-0

>  <UNII>
W31WK7B8U0

$$$$
