
 OpenBabel10282417072D

 39 39  0  0  0  0  0  0  0  0999 V2000
    0.0007   -1.0265    0.0000 C   0  0  2  0  0  0  0  0  0  0  0  0
    0.0007   -1.8515    0.0000 C   0  0  0  0  0  0  0  0  0  0  0  0
   -0.7168   -0.6084    0.0000 C   0  0  0  0  0  0  0  0  0  0  0  0
    0.7155   -0.6178    0.0000 C   0  0  0  0  0  0  0  0  0  0  0  0
    0.0007   -0.2015    0.0000 O   0  0  0  0  0  0  0  0  0  0  0  0
   -0.7186   -2.2614    0.0000 C   0  0  0  0  0  0  0  0  0  0  0  0
    0.7197   -1.4493    0.0000 C   0  0  0  0  0  0  0  0  0  0  0  0
   -0.0044   -2.6855    0.0000 C   0  0  0  0  0  0  0  0  0  0  0  0
   -1.4285   -1.0188    0.0000 C   0  0  0  0  0  0  0  0  0  0  0  0
   -0.7151    0.2196    0.0000 C   0  0  0  0  0  0  0  0  0  0  0  0
    0.7232    0.2066    0.0000 C   0  0  0  0  0  0  0  0  0  0  0  0
   -1.4363   -1.8433    0.0000 C   0  0  0  0  0  0  0  0  0  0  0  0
    1.4379    0.6154    0.0000 C   0  0  0  0  0  0  0  0  0  0  0  0
   -2.1557   -2.2533    0.0000 O   0  0  0  0  0  0  0  0  0  0  0  0
    1.4457    1.4399    0.0000 C   0  0  0  0  0  0  0  0  0  0  0  0
    2.1557    0.1973    0.0000 C   0  0  0  0  0  0  0  0  0  0  0  0
    0.7327    1.8592    0.0000 C   0  0  0  0  0  0  0  0  0  0  0  0
    0.7375    2.6855    0.0000 O   0  0  0  0  0  0  0  0  0  0  0  0
    0.0103    1.4510    0.0000 O   0  0  0  0  0  0  0  0  0  0  0  0
    1.6057   -1.1398    0.0000 H   0  0  0  0  0  0  0  0  0  0  0  0
    0.8407    0.2835    0.0000 H   0  0  0  0  0  0  0  0  0  0  0  0
   -0.7237   -3.3314    0.0000 H   0  0  0  0  0  0  0  0  0  0  0  0
   -1.6476   -2.7924    0.0000 H   0  0  0  0  0  0  0  0  0  0  0  0
    1.6390   -1.9968    0.0000 H   0  0  0  0  0  0  0  0  0  0  0  0
    0.7342   -0.3794    0.0000 H   0  0  0  0  0  0  0  0  0  0  0  0
    1.6535   -0.9269    0.0000 H   0  0  0  0  0  0  0  0  0  0  0  0
   -0.9343   -3.2148    0.0000 H   0  0  0  0  0  0  0  0  0  0  0  0
    0.9190   -3.2262    0.0000 H   0  0  0  0  0  0  0  0  0  0  0  0
   -0.0109   -3.7555    0.0000 H   0  0  0  0  0  0  0  0  0  0  0  0
   -2.3197   -0.4983    0.0000 H   0  0  0  0  0  0  0  0  0  0  0  0
    0.2126    0.7527    0.0000 H   0  0  0  0  0  0  0  0  0  0  0  0
   -1.6406    0.7565    0.0000 H   0  0  0  0  0  0  0  0  0  0  0  0
   -0.7129    1.2896    0.0000 H   0  0  0  0  0  0  0  0  0  0  0  0
   -0.1671    0.7286    0.0000 H   0  0  0  0  0  0  0  0  0  0  0  0
    2.3439    1.9481    0.0000 H   0  0  0  0  0  0  0  0  0  0  0  0
    2.1516   -0.8727    0.0000 H   0  0  0  0  0  0  0  0  0  0  0  0
    3.0844    0.7287    0.0000 H   0  0  0  0  0  0  0  0  0  0  0  0
    3.0803   -0.3412    0.0000 H   0  0  0  0  0  0  0  0  0  0  0  0
   -0.7968    1.9270    0.0000 H   0  0  0  0  0  0  0  0  0  0  0  0
  1  2  1  0  0  0  0
  1  3  1  0  0  0  0
  1  4  1  6  0  0  0
  1  5  1  0  0  0  0
  2  6  1  0  0  0  0
  2  7  1  0  0  0  0
  2  8  1  0  0  0  0
  3  9  2  0  0  0  0
  3 10  1  0  0  0  0
  4 11  2  0  0  0  0
  4 20  1  0  0  0  0
  5 21  1  0  0  0  0
  6 12  1  0  0  0  0
  6 22  1  0  0  0  0
  6 23  1  0  0  0  0
  7 24  1  0  0  0  0
  7 25  1  0  0  0  0
  7 26  1  0  0  0  0
  8 27  1  0  0  0  0
  8 28  1  0  0  0  0
  8 29  1  0  0  0  0
  9 12  1  0  0  0  0
  9 30  1  0  0  0  0
 10 31  1  0  0  0  0
 10 32  1  0  0  0  0
 10 33  1  0  0  0  0
 11 13  1  0  0  0  0
 11 34  1  0  0  0  0
 12 14  2  0  0  0  0
 13 15  2  0  0  0  0
 13 16  1  0  0  0  0
 15 17  1  0  0  0  0
 15 35  1  0  0  0  0
 16 36  1  0  0  0  0
 16 37  1  0  0  0  0
 16 38  1  0  0  0  0
 17 18  2  0  0  0  0
 17 19  1  0  0  0  0
 19 39  1  0  0  0  0
M  END
>  <DRUGBANK_ID>
DB16829

>  <COMMON_NAME>
Abscisic Acid

>  <CAS_NUMBER>
21293-29-8

>  <UNII>
72S9A8J5GW

>  <SYNONYMS>
Abscisin II; Acide abscisique

$$$$
