G12
 OpenBabel10282417072D

 21 22  0  0  0  0  0  0  0  0999 V2000
   -2.1170    1.1979    0.0000 Br  0  0  0  0  0  0  0  0  0  0  0  0
   -1.4025    0.7854    0.0000 C   0  0  0  0  0  0  0  0  0  0  0  0
   -1.4025   -0.0396    0.0000 C   0  0  0  0  0  0  0  0  0  0  0  0
   -2.1170   -0.4521    0.0000 O   0  0  0  0  0  0  0  0  0  0  0  0
   -0.6881   -0.4521    0.0000 O   0  0  0  0  0  0  0  0  0  0  0  0
   -0.6881    1.1979    0.0000 C   0  0  0  0  0  0  0  0  0  0  0  0
   -0.6881    2.0229    0.0000 C   0  0  0  0  0  0  0  0  0  0  0  0
    0.0264    0.7854    0.0000 C   0  0  0  0  0  0  0  0  0  0  0  0
    0.0264   -0.0396    0.0000 C   0  0  0  0  0  0  0  0  0  0  0  0
    0.7409   -0.4521    0.0000 C   0  0  0  0  0  0  0  0  0  0  0  0
    0.7409   -1.2771    0.0000 Br  0  0  0  0  0  0  0  0  0  0  0  0
    0.7409    1.1979    0.0000 C   0  0  0  0  0  0  0  0  0  0  0  0
    1.4553    0.7854    0.0000 C   0  0  0  0  0  0  0  0  0  0  0  0
    1.4553   -0.0396    0.0000 C   0  0  0  0  0  0  0  0  0  0  0  0
    2.1698   -0.4521    0.0000 O   0  0  0  0  0  0  0  0  0  0  0  0
    0.2385    2.5579    0.0000 H   0  0  0  0  0  0  0  0  0  0  0  0
   -1.6147    2.5579    0.0000 H   0  0  0  0  0  0  0  0  0  0  0  0
   -0.6881    3.0929    0.0000 H   0  0  0  0  0  0  0  0  0  0  0  0
    0.7409    2.2299    0.0000 H   0  0  0  0  0  0  0  0  0  0  0  0
    2.3490    1.3014    0.0000 H   0  0  0  0  0  0  0  0  0  0  0  0
    2.1698   -1.3891    0.0000 H   0  0  0  0  0  0  0  0  0  0  0  0
  1  2  1  0  0  0  0
  2  6  2  0  0  0  0
  2  3  1  0  0  0  0
  3  5  1  0  0  0  0
  3  4  2  0  0  0  0
  5  9  1  0  0  0  0
  6  8  1  0  0  0  0
  6  7  1  0  0  0  0
  7 16  1  0  0  0  0
  7 17  1  0  0  0  0
  7 18  1  0  0  0  0
  8 12  2  0  0  0  0
  8  9  1  0  0  0  0
  9 10  2  0  0  0  0
 10 14  1  0  0  0  0
 10 11  1  0  0  0  0
 12 13  1  0  0  0  0
 12 19  1  0  0  0  0
 13 14  2  0  0  0  0
 13 20  1  0  0  0  0
 14 15  1  0  0  0  0
 15 21  1  0  0  0  0
M  END
>  <DRUGBANK_ID>
DB07802

>  <COMMON_NAME>
3,8-DIBROMO-7-HYDROXY-4-METHYL-2H-CHROMEN-2-ONE

$$$$
