1461
 OpenBabel10282417072D

 49 50  0  0  0  0  0  0  0  0999 V2000
    2.8876    0.0000    0.0000 O   0  0  0  0  0  0  0  0  0  0  0  0
    4.9501   -0.7145    0.0000 O   0  0  0  0  0  0  0  0  0  0  0  0
    4.9501    0.7145    0.0000 O   0  0  0  0  0  0  0  0  0  0  0  0
    7.0127   -1.4290    0.0000 N   0  0  0  0  0  0  0  0  0  0  0  0
    3.7126    0.0000    0.0000 C   0  0  0  0  0  0  0  0  0  0  0  0
    3.7126   -0.8250    0.0000 C   0  0  0  0  0  0  0  0  0  0  0  0
    3.7126    0.8250    0.0000 C   0  0  0  0  0  0  0  0  0  0  0  0
    4.5376    0.0000    0.0000 C   0  0  0  0  0  0  0  0  0  0  0  0
    4.4270   -1.2375    0.0000 C   0  0  0  0  0  0  0  0  0  0  0  0
    2.9981    1.2375    0.0000 C   0  0  0  0  0  0  0  0  0  0  0  0
    2.9981   -1.2375    0.0000 C   0  0  0  0  0  0  0  0  0  0  0  0
    4.4270    1.2375    0.0000 C   0  0  0  0  0  0  0  0  0  0  0  0
    2.4751    0.7145    0.0000 C   0  0  0  0  0  0  0  0  0  0  0  0
    5.7751   -0.7145    0.0000 C   0  0  0  0  0  0  0  0  0  0  0  0
    6.1876   -1.4290    0.0000 C   0  0  0  0  0  0  0  0  0  0  0  0
    4.4270   -2.0625    0.0000 C   0  0  0  0  0  0  0  0  0  0  0  0
    2.9981    2.0625    0.0000 C   0  0  0  0  0  0  0  0  0  0  0  0
    2.9981   -2.0625    0.0000 C   0  0  0  0  0  0  0  0  0  0  0  0
    4.4270    2.0625    0.0000 C   0  0  0  0  0  0  0  0  0  0  0  0
    3.7126   -2.4751    0.0000 C   0  0  0  0  0  0  0  0  0  0  0  0
    3.7126    2.4751    0.0000 C   0  0  0  0  0  0  0  0  0  0  0  0
    1.6500    0.7145    0.0000 C   0  0  0  0  0  0  0  0  0  0  0  0
    7.4252   -2.1435    0.0000 C   0  0  0  0  0  0  0  0  0  0  0  0
    7.4252   -0.7145    0.0000 C   0  0  0  0  0  0  0  0  0  0  0  0
    5.3207   -0.7215    0.0000 H   0  0  0  0  0  0  0  0  0  0  0  0
    2.1044    0.7215    0.0000 H   0  0  0  0  0  0  0  0  0  0  0  0
    2.1044   -0.7215    0.0000 H   0  0  0  0  0  0  0  0  0  0  0  0
    5.3207    0.7215    0.0000 H   0  0  0  0  0  0  0  0  0  0  0  0
    3.0101    1.6411    0.0000 H   0  0  0  0  0  0  0  0  0  0  0  0
    1.9401    1.6411    0.0000 H   0  0  0  0  0  0  0  0  0  0  0  0
    6.3101    0.2121    0.0000 H   0  0  0  0  0  0  0  0  0  0  0  0
    6.8451   -0.7145    0.0000 H   0  0  0  0  0  0  0  0  0  0  0  0
    5.6526   -2.3556    0.0000 H   0  0  0  0  0  0  0  0  0  0  0  0
    5.1176   -1.4290    0.0000 H   0  0  0  0  0  0  0  0  0  0  0  0
    5.3208   -2.5784    0.0000 H   0  0  0  0  0  0  0  0  0  0  0  0
    2.1043    2.5785    0.0000 H   0  0  0  0  0  0  0  0  0  0  0  0
    2.1043   -2.5785    0.0000 H   0  0  0  0  0  0  0  0  0  0  0  0
    5.3208    2.5784    0.0000 H   0  0  0  0  0  0  0  0  0  0  0  0
    3.7126   -3.5071    0.0000 H   0  0  0  0  0  0  0  0  0  0  0  0
    3.7126    3.5071    0.0000 H   0  0  0  0  0  0  0  0  0  0  0  0
    1.1150    1.6411    0.0000 H   0  0  0  0  0  0  0  0  0  0  0  0
    1.1150   -0.2121    0.0000 H   0  0  0  0  0  0  0  0  0  0  0  0
    0.5800    0.7145    0.0000 H   0  0  0  0  0  0  0  0  0  0  0  0
    6.8902   -3.0701    0.0000 H   0  0  0  0  0  0  0  0  0  0  0  0
    8.4952   -2.1435    0.0000 H   0  0  0  0  0  0  0  0  0  0  0  0
    7.9602   -3.0702    0.0000 H   0  0  0  0  0  0  0  0  0  0  0  0
    8.4952   -0.7145    0.0000 H   0  0  0  0  0  0  0  0  0  0  0  0
    6.8902    0.2121    0.0000 H   0  0  0  0  0  0  0  0  0  0  0  0
    7.9602    0.2122    0.0000 H   0  0  0  0  0  0  0  0  0  0  0  0
  1  5  1  0  0  0  0
  1 13  1  0  0  0  0
  2  8  1  0  0  0  0
  2 14  1  0  0  0  0
  3  8  2  0  0  0  0
  4 15  1  0  0  0  0
  4 23  1  0  0  0  0
  4 24  1  0  0  0  0
  5  6  1  0  0  0  0
  5  7  1  0  0  0  0
  5  8  1  0  0  0  0
  6  9  2  0  0  0  0
  6 11  1  0  0  0  0
  7 10  2  0  0  0  0
  7 12  1  0  0  0  0
  9 16  1  0  0  0  0
  9 25  1  0  0  0  0
 10 17  1  0  0  0  0
 10 26  1  0  0  0  0
 11 18  2  0  0  0  0
 11 27  1  0  0  0  0
 12 19  2  0  0  0  0
 12 28  1  0  0  0  0
 13 22  1  0  0  0  0
 13 29  1  0  0  0  0
 13 30  1  0  0  0  0
 14 15  1  0  0  0  0
 14 31  1  0  0  0  0
 14 32  1  0  0  0  0
 15 33  1  0  0  0  0
 15 34  1  0  0  0  0
 16 20  2  0  0  0  0
 16 35  1  0  0  0  0
 17 21  2  0  0  0  0
 17 36  1  0  0  0  0
 18 20  1  0  0  0  0
 18 37  1  0  0  0  0
 19 21  1  0  0  0  0
 19 38  1  0  0  0  0
 20 39  1  0  0  0  0
 21 40  1  0  0  0  0
 22 41  1  0  0  0  0
 22 42  1  0  0  0  0
 22 43  1  0  0  0  0
 23 44  1  0  0  0  0
 23 45  1  0  0  0  0
 23 46  1  0  0  0  0
 24 47  1  0  0  0  0
 24 48  1  0  0  0  0
 24 49  1  0  0  0  0
M  END
>  <DRUGBANK_ID>
DB01461

>  <COMMON_NAME>
Dimenoxadol

>  <CAS_NUMBER>
509-78-4

>  <UNII>
4D65PBX0VK

>  <SYNONYMS>
Dimenossadolo; Dimenoxadol; Dimenoxadole; Dimenoxadolum

$$$$
