KMB
 OpenBabel10282417072D

 38 40  0  0  0  0  0  0  0  0999 V2000
   -1.3486   -1.8490    0.0000 C   0  0  0  0  0  0  0  0  0  0  0  0
   -1.3486   -2.6740    0.0000 N   0  0  0  0  0  0  0  0  0  0  0  0
   -0.6341   -1.4365    0.0000 C   0  0  0  0  0  0  0  0  0  0  0  0
   -0.6341   -0.6115    0.0000 C   0  0  0  0  0  0  0  0  0  0  0  0
    0.0804   -0.1990    0.0000 C   0  0  0  0  0  0  0  0  0  0  0  0
    0.7948   -0.6115    0.0000 C   0  0  0  0  0  0  0  0  0  0  0  0
    1.5093   -0.1990    0.0000 N   0  0  0  0  0  0  0  0  0  0  0  0
    2.2238   -0.6115    0.0000 C   0  0  0  0  0  0  0  0  0  0  0  0
    2.9383   -0.1990    0.0000 N   0  0  0  0  0  0  0  0  0  0  0  0
    2.2238   -1.4365    0.0000 N   0  0  0  0  0  0  0  0  0  0  0  0
    1.5093   -1.8490    0.0000 C   0  0  0  0  0  0  0  0  0  0  0  0
    1.5093   -2.6740    0.0000 O   0  0  0  0  0  0  0  0  0  0  0  0
    0.7948   -1.4365    0.0000 C   0  0  0  0  0  0  0  0  0  0  0  0
    0.0804   -1.8490    0.0000 C   0  0  0  0  0  0  0  0  0  0  0  0
    0.0804    0.6260    0.0000 C   0  0  0  0  0  0  0  0  0  0  0  0
   -0.6341    1.0385    0.0000 S   0  0  0  0  0  0  0  0  0  0  0  0
   -0.6341    1.8635    0.0000 C   0  0  0  0  0  0  0  0  0  0  0  0
   -1.3486    2.2760    0.0000 C   0  0  0  0  0  0  0  0  0  0  0  0
   -1.3486    3.1010    0.0000 C   0  0  0  0  0  0  0  0  0  0  0  0
   -0.6341    3.5135    0.0000 C   0  0  0  0  0  0  0  0  0  0  0  0
    0.0804    3.1010    0.0000 C   0  0  0  0  0  0  0  0  0  0  0  0
    0.0804    2.2760    0.0000 C   0  0  0  0  0  0  0  0  0  0  0  0
   -2.2752   -1.3140    0.0000 H   0  0  0  0  0  0  0  0  0  0  0  0
   -1.3486   -0.7790    0.0000 H   0  0  0  0  0  0  0  0  0  0  0  0
   -2.2319   -3.1840    0.0000 H   0  0  0  0  0  0  0  0  0  0  0  0
   -0.4653   -3.1840    0.0000 H   0  0  0  0  0  0  0  0  0  0  0  0
   -1.5278   -0.0955    0.0000 H   0  0  0  0  0  0  0  0  0  0  0  0
    3.7909   -0.6913    0.0000 H   0  0  0  0  0  0  0  0  0  0  0  0
    2.9383    0.7855    0.0000 H   0  0  0  0  0  0  0  0  0  0  0  0
    3.0764   -1.9288    0.0000 H   0  0  0  0  0  0  0  0  0  0  0  0
    0.0804   -2.8810    0.0000 H   0  0  0  0  0  0  0  0  0  0  0  0
    1.0070    1.1610    0.0000 H   0  0  0  0  0  0  0  0  0  0  0  0
    0.0804    1.6960    0.0000 H   0  0  0  0  0  0  0  0  0  0  0  0
   -2.2423    1.7600    0.0000 H   0  0  0  0  0  0  0  0  0  0  0  0
   -2.2423    3.6170    0.0000 H   0  0  0  0  0  0  0  0  0  0  0  0
   -0.6341    4.5455    0.0000 H   0  0  0  0  0  0  0  0  0  0  0  0
    0.9741    3.6170    0.0000 H   0  0  0  0  0  0  0  0  0  0  0  0
    0.9741    1.7600    0.0000 H   0  0  0  0  0  0  0  0  0  0  0  0
  1  2  1  0  0  0  0
  1  3  1  0  0  0  0
  1 23  1  0  0  0  0
  1 24  1  0  0  0  0
  2 25  1  0  0  0  0
  2 26  1  0  0  0  0
  3  4  2  0  0  0  0
  3 14  1  0  0  0  0
  4  5  1  0  0  0  0
  4 27  1  0  0  0  0
  5  6  2  0  0  0  0
  5 15  1  0  0  0  0
  6  7  1  0  0  0  0
  6 13  1  0  0  0  0
  7  8  2  0  0  0  0
  8  9  1  0  0  0  0
  8 10  1  0  0  0  0
  9 28  1  0  0  0  0
  9 29  1  0  0  0  0
 10 11  1  0  0  0  0
 10 30  1  0  0  0  0
 11 12  2  0  0  0  0
 11 13  1  0  0  0  0
 13 14  2  0  0  0  0
 14 31  1  0  0  0  0
 15 16  1  0  0  0  0
 15 32  1  0  0  0  0
 15 33  1  0  0  0  0
 16 17  1  0  0  0  0
 17 18  2  0  0  0  0
 17 22  1  0  0  0  0
 18 19  1  0  0  0  0
 18 34  1  0  0  0  0
 19 20  2  0  0  0  0
 19 35  1  0  0  0  0
 20 21  1  0  0  0  0
 20 36  1  0  0  0  0
 21 22  2  0  0  0  0
 21 37  1  0  0  0  0
 22 38  1  0  0  0  0
M  END
>  <DRUGBANK_ID>
DB04239

>  <SECONDARY_ACCESSION_NUMBERS>
EXPT01975

>  <COMMON_NAME>
2-Amino-6-Aminomethyl-8-Phenylsulfanylmethyl-3h-Quinazolin-4-One

$$$$
