
 OpenBabel10282417072D

 59 60  0  0  1  0  0  0  0  0999 V2000
   -5.0013   -3.7125    0.0000 N   0  0  0  0  0  0  0  0  0  0  0  0
   -4.2868   -4.1250    0.0000 C   0  0  0  0  0  0  0  0  0  0  0  0
   -4.2868   -4.9500    0.0000 N   0  0  0  0  0  0  0  0  0  0  0  0
   -3.5724   -3.7125    0.0000 N   0  0  0  0  0  0  0  0  0  0  0  0
   -3.5724   -2.8875    0.0000 C   0  0  0  0  0  0  0  0  0  0  0  0
   -2.8579   -4.1250    0.0000 C   0  0  0  0  0  0  0  0  0  0  0  0
   -2.1434   -3.7125    0.0000 C   0  0  0  0  0  0  0  0  0  0  0  0
   -1.4289   -4.1250    0.0000 C   0  0  2  0  0  0  0  0  0  0  0  0
   -1.4289   -4.9500    0.0000 N   0  0  0  0  0  0  0  0  0  0  0  0
   -0.7145   -3.7125    0.0000 C   0  0  0  0  0  0  0  0  0  0  0  0
    0.0000   -4.1250    0.0000 C   0  0  0  0  0  0  0  0  0  0  0  0
    0.0000   -4.9500    0.0000 O   0  0  0  0  0  0  0  0  0  0  0  0
    0.7145   -3.7125    0.0000 N   0  0  0  0  0  0  0  0  0  0  0  0
    0.7145   -2.8875    0.0000 C   0  0  1  0  0  0  0  0  0  0  0  0
    0.0000   -2.4750    0.0000 C   0  0  0  0  0  0  0  0  0  0  0  0
    0.0000   -1.6500    0.0000 C   0  0  0  0  0  0  0  0  0  0  0  0
    0.7145   -1.2375    0.0000 C   0  0  1  0  0  0  0  0  0  0  0  0
    1.4289   -1.6500    0.0000 O   0  0  0  0  0  0  0  0  0  0  0  0
    1.4289   -2.4750    0.0000 C   0  0  2  0  0  0  0  0  0  0  0  0
    2.1434   -2.8875    0.0000 C   0  0  0  0  0  0  0  0  0  0  0  0
    2.1434   -3.7125    0.0000 O   0  0  0  0  0  0  0  0  0  0  0  0
    2.8579   -2.4750    0.0000 O   0  0  0  0  0  0  0  0  0  0  0  0
    0.7145   -0.4125    0.0000 N   0  0  0  0  0  0  0  0  0  0  0  0
    0.0000    0.0000    0.0000 C   0  0  0  0  0  0  0  0  0  0  0  0
    0.0000    0.8250    0.0000 C   0  0  0  0  0  0  0  0  0  0  0  0
    0.7145    1.2375    0.0000 C   0  0  1  0  0  0  0  0  0  0  0  0
    0.1842    1.8695    0.0000 N   0  0  0  0  0  0  0  0  0  0  0  0
    1.2448    1.8695    0.0000 O   0  0  0  0  0  0  0  0  0  0  0  0
    1.4289    0.8250    0.0000 N   0  0  0  0  0  0  0  0  0  0  0  0
    1.4289    0.0000    0.0000 C   0  0  0  0  0  0  0  0  0  0  0  0
    2.1434   -0.4125    0.0000 O   0  0  0  0  0  0  0  0  0  0  0  0
   -5.0013   -2.7280    0.0000 H   0  0  0  0  0  0  0  0  0  0  0  0
   -5.1394   -5.4423    0.0000 H   0  0  0  0  0  0  0  0  0  0  0  0
   -3.4342   -5.4423    0.0000 H   0  0  0  0  0  0  0  0  0  0  0  0
   -2.6458   -2.3525    0.0000 H   0  0  0  0  0  0  0  0  0  0  0  0
   -4.4990   -2.3525    0.0000 H   0  0  0  0  0  0  0  0  0  0  0  0
   -3.5724   -1.8175    0.0000 H   0  0  0  0  0  0  0  0  0  0  0  0
   -2.8579   -5.1950    0.0000 H   0  0  0  0  0  0  0  0  0  0  0  0
   -1.9313   -4.6600    0.0000 H   0  0  0  0  0  0  0  0  0  0  0  0
   -2.1434   -2.6425    0.0000 H   0  0  0  0  0  0  0  0  0  0  0  0
   -1.2168   -3.1775    0.0000 H   0  0  0  0  0  0  0  0  0  0  0  0
   -2.3555   -4.6600    0.0000 H   0  0  0  0  0  0  0  0  0  0  0  0
   -2.3122   -5.4600    0.0000 H   0  0  0  0  0  0  0  0  0  0  0  0
   -0.5456   -5.4600    0.0000 H   0  0  0  0  0  0  0  0  0  0  0  0
   -0.7145   -2.6425    0.0000 H   0  0  0  0  0  0  0  0  0  0  0  0
    0.2121   -3.1775    0.0000 H   0  0  0  0  0  0  0  0  0  0  0  0
    1.5671   -4.2048    0.0000 H   0  0  0  0  0  0  0  0  0  0  0  0
   -0.2121   -3.4225    0.0000 H   0  0  0  0  0  0  0  0  0  0  0  0
   -0.8937   -2.9910    0.0000 H   0  0  0  0  0  0  0  0  0  0  0  0
   -0.8937   -1.1340    0.0000 H   0  0  0  0  0  0  0  0  0  0  0  0
   -0.2121   -0.7025    0.0000 H   0  0  0  0  0  0  0  0  0  0  0  0
    2.3555   -1.9400    0.0000 H   0  0  0  0  0  0  0  0  0  0  0  0
    1.3319   -4.1810    0.0000 H   0  0  0  0  0  0  0  0  0  0  0  0
   -0.8937   -0.5160    0.0000 H   0  0  0  0  0  0  0  0  0  0  0  0
   -0.8937    1.3410    0.0000 H   0  0  0  0  0  0  0  0  0  0  0  0
    0.5331    2.8280    0.0000 H   0  0  0  0  0  0  0  0  0  0  0  0
   -0.8203    1.6924    0.0000 H   0  0  0  0  0  0  0  0  0  0  0  0
    2.2001    1.7011    0.0000 H   0  0  0  0  0  0  0  0  0  0  0  0
    2.2815    1.3172    0.0000 H   0  0  0  0  0  0  0  0  0  0  0  0
  1  2  2  0  0  0  0
  1 32  1  0  0  0  0
  2  3  1  0  0  0  0
  2  4  1  0  0  0  0
  3 33  1  0  0  0  0
  3 34  1  0  0  0  0
  4  5  1  0  0  0  0
  4  6  1  0  0  0  0
  5 35  1  0  0  0  0
  5 36  1  0  0  0  0
  5 37  1  0  0  0  0
  6  7  1  0  0  0  0
  6 38  1  0  0  0  0
  6 39  1  0  0  0  0
  7  8  1  0  0  0  0
  7 40  1  0  0  0  0
  7 41  1  0  0  0  0
  8  9  1  0  0  0  0
  8 10  1  0  0  0  0
  8 42  1  6  0  0  0
  9 43  1  0  0  0  0
  9 44  1  0  0  0  0
 10 11  1  0  0  0  0
 10 45  1  0  0  0  0
 10 46  1  0  0  0  0
 11 12  2  0  0  0  0
 11 13  1  0  0  0  0
 13 47  1  0  0  0  0
 14 13  1  0  0  0  0
 14 15  1  0  0  0  0
 14 19  1  0  0  0  0
 14 48  1  6  0  0  0
 15 16  2  0  0  0  0
 15 49  1  0  0  0  0
 16 17  1  0  0  0  0
 16 50  1  0  0  0  0
 17 18  1  0  0  0  0
 17 23  1  0  0  0  0
 17 51  1  1  0  0  0
 18 19  1  0  0  0  0
 19 20  1  0  0  0  0
 19 52  1  1  0  0  0
 20 21  1  0  0  0  0
 20 22  2  0  0  0  0
 21 53  1  0  0  0  0
 23 24  1  0  0  0  0
 23 30  1  0  0  0  0
 24 25  2  0  0  0  0
 24 54  1  0  0  0  0
 25 26  1  0  0  0  0
 25 55  1  0  0  0  0
 26 27  1  0  0  0  0
 26 28  1  1  0  0  0
 26 29  1  0  0  0  0
 27 56  1  0  0  0  0
 27 57  1  0  0  0  0
 28 58  1  0  0  0  0
 29 30  1  0  0  0  0
 29 59  1  0  0  0  0
 30 31  2  0  0  0  0
M  END
>  <DRUGBANK_ID>
DB04649

>  <COMMON_NAME>
TETRAHEDRAL INTERMEDIATE OF BLASTICIDIN S

$$$$
