
 OpenBabel10282417072D

 96 99  0  0  0  0  0  0  0  0999 V2000
   -3.0036   -2.0639    0.0000 C   0  0  2  0  0  0  0  0  0  0  0  0
   -3.5752   -2.6603    0.0000 H   0  0  0  0  0  0  0  0  0  0  0  0
   -3.5433   -1.4510    0.0000 C   0  0  2  0  0  0  0  0  0  0  0  0
   -3.1243   -0.7448    0.0000 C   0  0  0  0  0  0  0  0  0  0  0  0
   -3.4905    0.0002    0.0000 C   0  0  0  0  0  0  0  0  0  0  0  0
   -3.1359    0.7420    0.0000 C   0  0  0  0  0  0  0  0  0  0  0  0
   -3.4676    1.6287    0.0000 C   0  0  0  0  0  0  0  0  0  0  0  0
   -2.8296    2.1099    0.0000 C   0  0  0  0  0  0  0  0  0  0  0  0
   -2.1416    1.6732    0.0000 C   0  0  0  0  0  0  0  0  0  0  0  0
   -1.3945    2.0819    0.0000 C   0  0  0  0  0  0  0  0  0  0  0  0
   -0.6511    1.7140    0.0000 C   0  0  0  0  0  0  0  0  0  0  0  0
   -0.4725    0.9142    0.0000 N   0  0  0  0  0  0  0  0  0  0  0  0
    0.2779    0.6985    0.0000 C   0  0  0  0  0  0  0  0  0  0  0  0
    0.6699    1.5782    0.0000 C   0  0  2  0  0  0  0  0  0  0  0  0
    0.0598    2.1284    0.0000 C   0  0  2  0  0  0  0  0  0  0  0  0
    0.5405    2.7987    0.0000 C   0  0  0  0  0  0  0  0  0  0  0  0
   -0.2826    2.8800    0.0000 H   0  0  0  0  0  0  0  0  0  0  0  0
    0.9866    1.1085    0.0000 H   0  0  0  0  0  0  0  0  0  0  0  0
    1.2674    2.0751    0.0000 C   0  0  0  0  0  0  0  0  0  0  0  0
    1.9972    1.8004    0.0000 C   0  0  0  0  0  0  0  0  0  0  0  0
    2.5901    2.2928    0.0000 C   0  0  0  0  0  0  0  0  0  0  0  0
    3.3312    2.1072    0.0000 O   0  0  0  0  0  0  0  0  0  0  0  0
    2.4195    3.0515    0.0000 O   0  0  0  0  0  0  0  0  0  0  0  0
    0.6854   -0.0200    0.0000 C   0  0  0  0  0  0  0  0  0  0  0  0
    1.5083   -0.0200    0.0000 C   0  0  0  0  0  0  0  0  0  0  0  0
    1.9286    0.6731    0.0000 C   0  0  0  0  0  0  0  0  0  0  0  0
    2.7560    0.6731    0.0000 O   0  0  0  0  0  0  0  0  0  0  0  0
    3.1590   -0.0606    0.0000 C   0  0  0  0  0  0  0  0  0  0  0  0
    1.5348    1.3915    0.0000 O   0  0  0  0  0  0  0  0  0  0  0  0
    0.3237   -0.7667    0.0000 C   0  0  0  0  0  0  0  0  0  0  0  0
   -0.4820   -0.9477    0.0000 N   0  5  0  0  0  0  0  0  0  0  0  0
   -0.5535   -1.7730    0.0000 C   0  0  0  0  0  0  0  0  0  0  0  0
   -1.3854   -2.0749    0.0000 C   0  0  0  0  0  0  0  0  0  0  0  0
   -2.3826   -1.7673    0.0000 C   0  0  0  0  0  0  0  0  0  0  0  0
   -2.3826   -0.9263    0.0000 N   0  0  0  0  0  0  0  0  0  0  0  0
    0.2070   -2.0982    0.0000 C   0  0  0  0  0  0  0  0  0  0  0  0
    0.3924   -2.9075    0.0000 C   0  0  0  0  0  0  0  0  0  0  0  0
    0.7462   -1.4752    0.0000 C   0  0  0  0  0  0  0  0  0  0  0  0
    1.5749   -1.5465    0.0000 C   0  0  0  0  0  0  0  0  0  0  0  0
    1.9218   -2.2987    0.0000 N   0  0  0  0  0  0  0  0  0  0  0  0
    2.7460   -2.3701    0.0000 C   0  0  0  0  0  0  0  0  0  0  0  0
    3.2186   -1.6939    0.0000 C   0  0  0  0  0  0  0  0  0  0  0  0
    4.0428   -1.7653    0.0000 S   0  0  0  0  0  0  0  0  0  0  0  0
    4.5152   -1.0892    0.0000 O   0  0  0  0  0  0  0  0  0  0  0  0
    4.3896   -2.5173    0.0000 O   0  0  0  0  0  0  0  0  0  0  0  0
    4.8567   -1.6221    0.0000 O   0  0  0  0  0  0  0  0  0  0  0  0
    2.0476   -0.8705    0.0000 O   0  0  0  0  0  0  0  0  0  0  0  0
   -2.3351    0.9317    0.0000 N   0  5  0  0  0  0  0  0  0  0  0  0
   -2.9001    2.9809    0.0000 C   0  0  0  0  0  0  0  0  0  0  0  0
   -4.2591    1.8601    0.0000 C   0  0  0  0  0  0  0  0  0  0  0  0
   -4.4575    2.6616    0.0000 C   0  0  0  0  0  0  0  0  0  0  0  0
   -4.8567    1.2855    0.0000 O   0  0  0  0  0  0  0  0  0  0  0  0
   -4.2924   -1.1026    0.0000 C   0  0  0  0  0  0  0  0  0  0  0  0
   -4.2175   -1.9263    0.0000 H   0  0  0  0  0  0  0  0  0  0  0  0
   -2.7742   -2.8605    0.0000 C   0  0  0  0  0  0  0  0  0  0  0  0
   -1.9685   -3.0515    0.0000 C   0  0  0  0  0  0  0  0  0  0  0  0
   -1.6528    0.0763    0.0000 Pd  0  2  0  0  0  0  0  0  0  0  0  0
   -4.5225   -0.0054    0.0000 H   0  0  0  0  0  0  0  0  0  0  0  0
   -1.4157    3.1137    0.0000 H   0  0  0  0  0  0  0  0  0  0  0  0
    1.6053    2.6934    0.0000 H   0  0  0  0  0  0  0  0  0  0  0  0
    0.0993    3.7735    0.0000 H   0  0  0  0  0  0  0  0  0  0  0  0
    1.1641    3.6682    0.0000 H   0  0  0  0  0  0  0  0  0  0  0  0
    1.0897    3.1302    0.0000 H   0  0  0  0  0  0  0  0  0  0  0  0
    2.0934    2.7552    0.0000 H   0  0  0  0  0  0  0  0  0  0  0  0
    2.1746    0.7452    0.0000 H   0  0  0  0  0  0  0  0  0  0  0  0
    3.0003    1.4279    0.0000 H   0  0  0  0  0  0  0  0  0  0  0  0
    3.5885    1.2062    0.0000 H   0  0  0  0  0  0  0  0  0  0  0  0
    2.0333   -0.9523    0.0000 H   0  0  0  0  0  0  0  0  0  0  0  0
    2.5782   -0.0373    0.0000 H   0  0  0  0  0  0  0  0  0  0  0  0
    2.6044   -0.9756    0.0000 H   0  0  0  0  0  0  0  0  0  0  0  0
    4.2288   -0.0834    0.0000 H   0  0  0  0  0  0  0  0  0  0  0  0
    3.6741   -0.9984    0.0000 H   0  0  0  0  0  0  0  0  0  0  0  0
   -1.3602   -3.1066    0.0000 H   0  0  0  0  0  0  0  0  0  0  0  0
   -0.3914   -3.6359    0.0000 H   0  0  0  0  0  0  0  0  0  0  0  0
    1.4151   -3.2221    0.0000 H   0  0  0  0  0  0  0  0  0  0  0  0
    0.6313   -3.9505    0.0000 H   0  0  0  0  0  0  0  0  0  0  0  0
    1.3558   -3.1042    0.0000 H   0  0  0  0  0  0  0  0  0  0  0  0
    3.1990   -3.3395    0.0000 H   0  0  0  0  0  0  0  0  0  0  0  0
    3.8120   -2.4624    0.0000 H   0  0  0  0  0  0  0  0  0  0  0  0
    2.7656   -0.7245    0.0000 H   0  0  0  0  0  0  0  0  0  0  0  0
    3.8316   -0.8169    0.0000 H   0  0  0  0  0  0  0  0  0  0  0  0
    5.4799   -2.3654    0.0000 H   0  0  0  0  0  0  0  0  0  0  0  0
   -2.0196    3.5889    0.0000 H   0  0  0  0  0  0  0  0  0  0  0  0
   -3.8669    3.4394    0.0000 H   0  0  0  0  0  0  0  0  0  0  0  0
   -2.9864    4.0474    0.0000 H   0  0  0  0  0  0  0  0  0  0  0  0
   -3.6866    3.4036    0.0000 H   0  0  0  0  0  0  0  0  0  0  0  0
   -5.4856    2.9583    0.0000 H   0  0  0  0  0  0  0  0  0  0  0  0
   -4.7146    3.7003    0.0000 H   0  0  0  0  0  0  0  0  0  0  0  0
   -4.3867   -0.0368    0.0000 H   0  0  0  0  0  0  0  0  0  0  0  0
   -5.1683   -1.7172    0.0000 H   0  0  0  0  0  0  0  0  0  0  0  0
   -5.2626   -0.6514    0.0000 H   0  0  0  0  0  0  0  0  0  0  0  0
   -3.5126   -3.6349    0.0000 H   0  0  0  0  0  0  0  0  0  0  0  0
   -2.4701   -3.8864    0.0000 H   0  0  0  0  0  0  0  0  0  0  0  0
   -1.6617   -4.0766    0.0000 H   0  0  0  0  0  0  0  0  0  0  0  0
   -1.2342   -2.2732    0.0000 H   0  0  0  0  0  0  0  0  0  0  0  0
   -0.9274   -3.2983    0.0000 H   0  0  0  0  0  0  0  0  0  0  0  0
  1  2  1  1  0  0  0
  1 34  1  0  0  0  0
  1 55  1  0  0  0  0
  3  1  1  0  0  0  0
  3 53  1  0  0  0  0
  3 54  1  6  0  0  0
  4  3  1  0  0  0  0
  4 35  1  0  0  0  0
  5  4  2  0  0  0  0
  5 58  1  0  0  0  0
  6  5  1  0  0  0  0
  6 48  1  0  0  0  0
  7  6  2  0  0  0  0
  7 50  1  0  0  0  0
  8  7  1  0  0  0  0
  8 49  1  0  0  0  0
  9  8  2  0  0  0  0
  9 10  1  0  0  0  0
 10 11  2  0  0  0  0
 10 59  1  0  0  0  0
 11 12  1  0  0  0  0
 12 13  2  0  0  0  0
 13 14  1  0  0  0  0
 14 15  1  0  0  0  0
 14 18  1  1  0  0  0
 14 19  1  0  0  0  0
 15 11  1  0  0  0  0
 15 16  1  0  0  0  0
 15 17  1  6  0  0  0
 16 60  1  0  0  0  0
 16 61  1  0  0  0  0
 16 62  1  0  0  0  0
 19 20  1  0  0  0  0
 19 63  1  0  0  0  0
 19 64  1  0  0  0  0
 20 21  1  0  0  0  0
 20 65  1  0  0  0  0
 20 66  1  0  0  0  0
 21 22  1  0  0  0  0
 21 23  2  0  0  0  0
 22 67  1  0  0  0  0
 24 13  1  0  0  0  0
 24 25  1  0  0  0  0
 24 30  2  0  0  0  0
 25 26  1  0  0  0  0
 25 68  1  0  0  0  0
 25 69  1  0  0  0  0
 26 27  1  0  0  0  0
 26 29  2  0  0  0  0
 27 28  1  0  0  0  0
 28 70  1  0  0  0  0
 28 71  1  0  0  0  0
 28 72  1  0  0  0  0
 30 31  1  0  0  0  0
 31 32  1  0  0  0  0
 32 36  1  0  0  0  0
 33 32  2  0  0  0  0
 33 73  1  0  0  0  0
 34 33  1  0  0  0  0
 34 35  2  0  0  0  0
 36 37  1  0  0  0  0
 36 38  2  0  0  0  0
 37 74  1  0  0  0  0
 37 75  1  0  0  0  0
 37 76  1  0  0  0  0
 38 39  1  0  0  0  0
 38 30  1  0  0  0  0
 39 40  1  0  0  0  0
 39 47  2  0  0  0  0
 40 41  1  0  0  0  0
 40 77  1  0  0  0  0
 41 42  1  0  0  0  0
 41 78  1  0  0  0  0
 41 79  1  0  0  0  0
 42 43  1  0  0  0  0
 42 80  1  0  0  0  0
 42 81  1  0  0  0  0
 43 44  2  0  0  0  0
 43 45  2  0  0  0  0
 43 46  1  0  0  0  0
 46 82  1  0  0  0  0
 48  9  1  0  0  0  0
 49 83  1  0  0  0  0
 49 84  1  0  0  0  0
 49 85  1  0  0  0  0
 50 51  1  0  0  0  0
 50 52  2  0  0  0  0
 51 86  1  0  0  0  0
 51 87  1  0  0  0  0
 51 88  1  0  0  0  0
 53 89  1  0  0  0  0
 53 90  1  0  0  0  0
 53 91  1  0  0  0  0
 55 56  1  0  0  0  0
 55 92  1  0  0  0  0
 55 93  1  0  0  0  0
 56 94  1  0  0  0  0
 56 95  1  0  0  0  0
 56 96  1  0  0  0  0
M  CHG  3  31  -1  48  -1  57   2
M  END
>  <DRUGBANK_ID>
DB15575

>  <COMMON_NAME>
Padeliporfin

>  <CAS_NUMBER>
759457-82-4

>  <UNII>
EEO29FZT86

>  <SYNONYMS>
Padeliporfin

$$$$
