Genistein
 OpenBabel10282417072D

 30 32  0  0  0  0  0  0  0  0999 V2000
    4.5012   -2.8875    0.0000 O   0  0  0  0  0  0  0  0  0  0  0  0
    3.7867   -2.4750    0.0000 C   0  0  0  0  0  0  0  0  0  0  0  0
    3.7867   -1.6500    0.0000 C   0  0  0  0  0  0  0  0  0  0  0  0
    3.0723   -1.2375    0.0000 C   0  0  0  0  0  0  0  0  0  0  0  0
    2.3578   -1.6500    0.0000 C   0  0  0  0  0  0  0  0  0  0  0  0
    2.3578   -2.4750    0.0000 C   0  0  0  0  0  0  0  0  0  0  0  0
    3.0723   -2.8875    0.0000 C   0  0  0  0  0  0  0  0  0  0  0  0
    1.6433   -1.2375    0.0000 C   0  0  0  0  0  0  0  0  0  0  0  0
    1.6433   -0.4125    0.0000 C   0  0  0  0  0  0  0  0  0  0  0  0
    0.9289    0.0000    0.0000 O   0  0  0  0  0  0  0  0  0  0  0  0
    0.2144   -0.4125    0.0000 C   0  0  0  0  0  0  0  0  0  0  0  0
   -0.5001    0.0000    0.0000 C   0  0  0  0  0  0  0  0  0  0  0  0
   -1.2146   -0.4125    0.0000 C   0  0  0  0  0  0  0  0  0  0  0  0
   -1.9290    0.0000    0.0000 O   0  0  0  0  0  0  0  0  0  0  0  0
   -1.2146   -1.2375    0.0000 C   0  0  0  0  0  0  0  0  0  0  0  0
   -0.5001   -1.6500    0.0000 C   0  0  0  0  0  0  0  0  0  0  0  0
   -0.5001   -2.4750    0.0000 O   0  0  0  0  0  0  0  0  0  0  0  0
    0.2144   -1.2375    0.0000 C   0  0  0  0  0  0  0  0  0  0  0  0
    0.9289   -1.6500    0.0000 C   0  0  0  0  0  0  0  0  0  0  0  0
    0.9289   -2.4750    0.0000 O   0  0  0  0  0  0  0  0  0  0  0  0
    4.5012   -3.8245    0.0000 H   0  0  0  0  0  0  0  0  0  0  0  0
    4.6804   -1.1340    0.0000 H   0  0  0  0  0  0  0  0  0  0  0  0
    3.0723   -0.2055    0.0000 H   0  0  0  0  0  0  0  0  0  0  0  0
    1.4641   -2.9910    0.0000 H   0  0  0  0  0  0  0  0  0  0  0  0
    3.0723   -3.9195    0.0000 H   0  0  0  0  0  0  0  0  0  0  0  0
    2.5370    0.1035    0.0000 H   0  0  0  0  0  0  0  0  0  0  0  0
   -0.5001    1.0320    0.0000 H   0  0  0  0  0  0  0  0  0  0  0  0
   -1.9290    0.9370    0.0000 H   0  0  0  0  0  0  0  0  0  0  0  0
   -2.1083   -1.7535    0.0000 H   0  0  0  0  0  0  0  0  0  0  0  0
   -1.3116   -2.9435    0.0000 H   0  0  0  0  0  0  0  0  0  0  0  0
  1  2  1  0  0  0  0
  1 21  1  0  0  0  0
  2  3  2  0  0  0  0
  2  7  1  0  0  0  0
  3  4  1  0  0  0  0
  3 22  1  0  0  0  0
  4  5  2  0  0  0  0
  4 23  1  0  0  0  0
  5  6  1  0  0  0  0
  5  8  1  0  0  0  0
  6  7  2  0  0  0  0
  6 24  1  0  0  0  0
  7 25  1  0  0  0  0
  8  9  2  0  0  0  0
  8 19  1  0  0  0  0
  9 10  1  0  0  0  0
  9 26  1  0  0  0  0
 10 11  1  0  0  0  0
 11 12  2  0  0  0  0
 11 18  1  0  0  0  0
 12 13  1  0  0  0  0
 12 27  1  0  0  0  0
 13 14  1  0  0  0  0
 13 15  2  0  0  0  0
 14 28  1  0  0  0  0
 15 16  1  0  0  0  0
 15 29  1  0  0  0  0
 16 17  1  0  0  0  0
 16 18  2  0  0  0  0
 17 30  1  0  0  0  0
 18 19  1  0  0  0  0
 19 20  2  0  0  0  0
M  END
>  <DRUGBANK_ID>
DB01645

>  <SECONDARY_ACCESSION_NUMBERS>
EXPT01582

>  <COMMON_NAME>
Genistein

>  <CAS_NUMBER>
446-72-0

>  <UNII>
DH2M523P0H

>  <SYNONYMS>
4',5,7-trihydroxyisoflavone; 4H-1-BENZOPYRAN-4-ONE, 5,7-DIHYDROXY-3-(4-HYDROXYPHENYL)-; 5,7-dihydroxy-3-(4-hydroxyphenyl)-4H-1-benzopyran-4-one; 5,7-dihydroxy-3-(4-hydroxyphenyl)-chromen-4-one; 5,7,4'-trihydroxyisoflavone; Genistein; Genisteol; Genisterin

$$$$
