
 OpenBabel10282417072D

 34 36  0  0  0  0  0  0  0  0999 V2000
    1.8047    1.5061    0.0000 N   0  0  0  0  0  0  0  0  0  0  0  0
    1.4955    0.1109    0.0000 N   0  0  0  0  0  0  0  0  0  0  0  0
    2.0530    0.7193    0.0000 C   0  0  0  0  0  0  0  0  0  0  0  0
    0.4418    1.0763    0.0000 C   0  0  0  0  0  0  0  0  0  0  0  0
    0.9991    1.6846    0.0000 C   0  0  0  0  0  0  0  0  0  0  0  0
    0.6901    0.2894    0.0000 C   0  0  0  0  0  0  0  0  0  0  0  0
    0.0184   -0.1897    0.0000 N   0  0  0  0  0  0  0  0  0  0  0  0
   -0.6448    0.3008    0.0000 C   0  0  0  0  0  0  0  0  0  0  0  0
   -0.3830    1.0834    0.0000 C   0  0  0  0  0  0  0  0  0  0  0  0
    0.7510    2.4715    0.0000 N   0  0  0  0  0  0  0  0  0  0  0  0
   -0.8622    1.7550    0.0000 C   0  0  0  0  0  0  0  0  0  0  0  0
   -1.3414    2.4266    0.0000 N   0  0  0  0  0  0  0  0  0  0  0  0
    0.0137   -1.0194    0.0000 C   0  0  1  0  0  0  0  0  0  0  0  0
   -0.2411   -1.8040    0.0000 C   0  0  2  0  0  0  0  0  0  0  0  0
    0.2437   -2.4715    0.0000 O   0  0  0  0  0  0  0  0  0  0  0  0
   -1.0662   -1.8040    0.0000 C   0  0  2  0  0  0  0  0  0  0  0  0
   -1.5511   -2.4715    0.0000 O   0  0  0  0  0  0  0  0  0  0  0  0
   -1.3212   -1.0194    0.0000 C   0  0  2  0  0  0  0  0  0  0  0  0
   -0.6537   -0.5343    0.0000 O   0  0  0  0  0  0  0  0  0  0  0  0
   -1.3332   -0.1951    0.0000 C   0  0  0  0  0  0  0  0  0  0  0  0
   -2.0530    0.2081    0.0000 O   0  0  0  0  0  0  0  0  0  0  0  0
    3.0606    0.4961    0.0000 H   0  0  0  0  0  0  0  0  0  0  0  0
   -1.6290   -0.0097    0.0000 H   0  0  0  0  0  0  0  0  0  0  0  0
    1.4161    3.1973    0.0000 H   0  0  0  0  0  0  0  0  0  0  0  0
   -0.2102    2.6846    0.0000 H   0  0  0  0  0  0  0  0  0  0  0  0
   -1.0427   -0.8491    0.0000 H   0  0  0  0  0  0  0  0  0  0  0  0
    0.8157   -1.6366    0.0000 H   0  0  0  0  0  0  0  0  0  0  0  0
   -0.1510   -3.3576    0.0000 H   0  0  0  0  0  0  0  0  0  0  0  0
   -0.5804   -2.7574    0.0000 H   0  0  0  0  0  0  0  0  0  0  0  0
   -2.5158   -2.3702    0.0000 H   0  0  0  0  0  0  0  0  0  0  0  0
   -0.2656   -0.8443    0.0000 H   0  0  0  0  0  0  0  0  0  0  0  0
   -0.4140    0.3526    0.0000 H   0  0  0  0  0  0  0  0  0  0  0  0
   -1.3475    0.8748    0.0000 H   0  0  0  0  0  0  0  0  0  0  0  0
   -2.0656    1.1780    0.0000 H   0  0  0  0  0  0  0  0  0  0  0  0
  3  1  2  0  0  0  0
  3  2  1  0  0  0  0
  3 22  1  0  0  0  0
  5  1  1  0  0  0  0
  5  4  2  0  0  0  0
  6  2  2  0  0  0  0
  6  4  1  0  0  0  0
  7  6  1  0  0  0  0
  8  7  1  0  0  0  0
  8 23  1  0  0  0  0
  9  4  1  0  0  0  0
  9  8  2  0  0  0  0
 10  5  1  0  0  0  0
 10 24  1  0  0  0  0
 10 25  1  0  0  0  0
 11  9  1  0  0  0  0
 12 11  3  0  0  0  0
 13  7  1  0  0  0  0
 13 26  1  6  0  0  0
 14 13  1  0  0  0  0
 14 15  1  0  0  0  0
 14 27  1  1  0  0  0
 15 28  1  0  0  0  0
 16 14  1  0  0  0  0
 16 17  1  0  0  0  0
 16 29  1  1  0  0  0
 17 30  1  0  0  0  0
 18 16  1  0  0  0  0
 18 20  1  0  0  0  0
 18 31  1  6  0  0  0
 19 13  1  0  0  0  0
 19 18  1  0  0  0  0
 20 32  1  0  0  0  0
 20 33  1  0  0  0  0
 21 20  1  0  0  0  0
 21 34  1  0  0  0  0
M  END
>  <DRUGBANK_ID>
DB13916

>  <COMMON_NAME>
Toyocamycin

>  <CAS_NUMBER>
606-58-6

>  <UNII>
L7995C4D7F

>  <SYNONYMS>
4-amino-5-cyano-7-(D-ribofuranosyl)-7H-pyrrolo(2,3-d)pyrimidine; 7-deaza-7-cyanoadenosine; Ahygroscopin-B; Cyanotubericidin; Siromycin; Uramycin B; Vengicide

$$$$
