1521
 OpenBabel10282417072D

 49 52  0  0  1  0  0  0  0  0999 V2000
    3.1440   -2.2607    0.0000 Cl  0  0  0  0  0  0  0  0  0  0  0  0
    7.1353    2.1553    0.0000 O   0  0  0  0  0  0  0  0  0  0  0  0
    1.6498   -1.3980    0.0000 O   0  0  0  0  0  0  0  0  0  0  0  0
    6.0985    0.2949    0.0000 C   0  0  2  0  0  0  0  0  0  0  0  0
    6.0985    1.1197    0.0000 C   0  0  2  0  0  0  0  0  0  0  0  0
    5.3842   -0.1176    0.0000 C   0  0  1  0  0  0  0  0  0  0  0  0
    4.6697    0.2949    0.0000 C   0  0  1  0  0  0  0  0  0  0  0  0
    3.9191   -0.1232    0.0000 C   0  0  2  0  0  0  0  0  0  0  0  0
    5.3842    1.5322    0.0000 C   0  0  0  0  0  0  0  0  0  0  0  0
    4.6697    1.1197    0.0000 C   0  0  0  0  0  0  0  0  0  0  0  0
    6.8790    1.3712    0.0000 C   0  0  2  0  0  0  0  0  0  0  0  0
    6.8790    0.0436    0.0000 C   0  0  0  0  0  0  0  0  0  0  0  0
    5.3974   -0.9767    0.0000 C   0  0  0  0  0  0  0  0  0  0  0  0
    7.3604    0.7073    0.0000 C   0  0  0  0  0  0  0  0  0  0  0  0
    3.9125   -0.9824    0.0000 C   0  0  0  0  0  0  0  0  0  0  0  0
    4.6566   -1.4120    0.0000 C   0  0  0  0  0  0  0  0  0  0  0  0
    6.0985    1.9446    0.0000 C   0  0  0  0  0  0  0  0  0  0  0  0
    3.1546    0.3422    0.0000 C   0  0  0  0  0  0  0  0  0  0  0  0
    3.9254    0.7017    0.0000 C   0  0  0  0  0  0  0  0  0  0  0  0
    2.3726   -0.0934    0.0000 C   0  0  0  0  0  0  0  0  0  0  0  0
    3.1409   -1.4358    0.0000 C   0  0  0  0  0  0  0  0  0  0  0  0
    2.3657   -0.9883    0.0000 C   0  0  0  0  0  0  0  0  0  0  0  0
    6.1683   -0.3614    0.0000 H   0  0  0  0  0  0  0  0  0  0  0  0
    5.9581   -0.4430    0.0000 H   0  0  0  0  0  0  0  0  0  0  0  0
    5.2413    0.6248    0.0000 H   0  0  0  0  0  0  0  0  0  0  0  0
    8.0845    2.3553    0.0000 H   0  0  0  0  0  0  0  0  0  0  0  0
    5.3843    2.6022    0.0000 H   0  0  0  0  0  0  0  0  0  0  0  0
    4.4576    2.0672    0.0000 H   0  0  0  0  0  0  0  0  0  0  0  0
    3.7431    1.6547    0.0000 H   0  0  0  0  0  0  0  0  0  0  0  0
    4.6697    2.1897    0.0000 H   0  0  0  0  0  0  0  0  0  0  0  0
    6.1240    2.1294    0.0000 H   0  0  0  0  0  0  0  0  0  0  0  0
    7.2114   -0.9735    0.0000 H   0  0  0  0  0  0  0  0  0  0  0  0
    7.9360   -0.1224    0.0000 H   0  0  0  0  0  0  0  0  0  0  0  0
    6.3301   -1.5010    0.0000 H   0  0  0  0  0  0  0  0  0  0  0  0
    5.4077   -2.0467    0.0000 H   0  0  0  0  0  0  0  0  0  0  0  0
    8.4304    0.7072    0.0000 H   0  0  0  0  0  0  0  0  0  0  0  0
    7.8465   -0.2459    0.0000 H   0  0  0  0  0  0  0  0  0  0  0  0
    4.6607   -2.4820    0.0000 H   0  0  0  0  0  0  0  0  0  0  0  0
    3.7310   -1.9488    0.0000 H   0  0  0  0  0  0  0  0  0  0  0  0
    7.0251    2.4796    0.0000 H   0  0  0  0  0  0  0  0  0  0  0  0
    5.1719    2.4796    0.0000 H   0  0  0  0  0  0  0  0  0  0  0  0
    6.0985    3.0146    0.0000 H   0  0  0  0  0  0  0  0  0  0  0  0
    3.1753    1.4120    0.0000 H   0  0  0  0  0  0  0  0  0  0  0  0
    2.2374    0.8932    0.0000 H   0  0  0  0  0  0  0  0  0  0  0  0
    4.8561    1.2296    0.0000 H   0  0  0  0  0  0  0  0  0  0  0  0
    3.0029    1.2438    0.0000 H   0  0  0  0  0  0  0  0  0  0  0  0
    3.9336    1.7717    0.0000 H   0  0  0  0  0  0  0  0  0  0  0  0
    1.4522    0.4523    0.0000 H   0  0  0  0  0  0  0  0  0  0  0  0
    1.4408   -0.6195    0.0000 H   0  0  0  0  0  0  0  0  0  0  0  0
  1 21  1  0  0  0  0
  2 26  1  0  0  0  0
  3 22  2  0  0  0  0
  4  5  1  0  0  0  0
  4  6  1  0  0  0  0
  4 12  1  0  0  0  0
  4 23  1  6  0  0  0
  5  9  1  0  0  0  0
  5 11  1  0  0  0  0
  5 17  1  1  0  0  0
  6  7  1  0  0  0  0
  6 13  1  0  0  0  0
  6 24  1  1  0  0  0
  7  8  1  0  0  0  0
  7 10  1  0  0  0  0
  7 25  1  6  0  0  0
  8 15  1  0  0  0  0
  8 18  1  0  0  0  0
  8 19  1  1  0  0  0
  9 10  1  0  0  0  0
  9 27  1  0  0  0  0
  9 28  1  0  0  0  0
 10 29  1  0  0  0  0
 10 30  1  0  0  0  0
 11  2  1  0  0  0  0
 11 14  1  0  0  0  0
 11 31  1  6  0  0  0
 12 14  1  0  0  0  0
 12 32  1  0  0  0  0
 12 33  1  0  0  0  0
 13 16  1  0  0  0  0
 13 34  1  0  0  0  0
 13 35  1  0  0  0  0
 14 36  1  0  0  0  0
 14 37  1  0  0  0  0
 15 16  1  0  0  0  0
 15 21  2  0  0  0  0
 16 38  1  0  0  0  0
 16 39  1  0  0  0  0
 17 40  1  0  0  0  0
 17 41  1  0  0  0  0
 17 42  1  0  0  0  0
 18 20  1  0  0  0  0
 18 43  1  0  0  0  0
 18 44  1  0  0  0  0
 19 45  1  0  0  0  0
 19 46  1  0  0  0  0
 19 47  1  0  0  0  0
 20 22  1  0  0  0  0
 20 48  1  0  0  0  0
 20 49  1  0  0  0  0
 21 22  1  0  0  0  0
M  END
>  <DRUGBANK_ID>
DB01521

>  <COMMON_NAME>
Clostebol

>  <CAS_NUMBER>
1093-58-9

>  <UNII>
Z7D4G976SH

>  <SYNONYMS>
Clostebol

$$$$
