
 OpenBabel10282417072D

108113  0  0  0  0  0  0  0  0999 V2000
    1.9131   -0.4190    0.0000 C   0  0  1  0  0  0  0  0  0  0  0  0
    2.3255   -1.2439    0.0000 C   0  0  0  0  0  0  0  0  0  0  0  0
    1.5693   -1.2439    0.0000 C   0  0  1  0  0  0  0  0  0  0  0  0
    2.1722   -1.8467    0.0000 C   0  0  0  0  0  0  0  0  0  0  0  0
    2.1722   -2.6992    0.0000 C   0  0  0  0  0  0  0  0  0  0  0  0
    2.6006   -0.1438    0.0000 C   0  0  0  0  0  0  0  0  0  0  0  0
    3.2193   -0.4190    0.0000 N   0  0  0  0  0  0  0  0  0  0  0  0
    3.8864    0.0664    0.0000 S   0  0  0  0  0  0  0  0  0  0  0  0
    4.5536    0.5516    0.0000 C   0  0  0  0  0  0  0  0  0  0  0  0
    5.3739    0.6383    0.0000 C   0  0  0  0  0  0  0  0  0  0  0  0
    4.8886    1.3055    0.0000 C   0  0  0  0  0  0  0  0  0  0  0  0
    3.4011    0.7334    0.0000 O   0  0  0  0  0  0  0  0  0  0  0  0
    4.3716   -0.6007    0.0000 O   0  0  0  0  0  0  0  0  0  0  0  0
    2.6006    0.6810    0.0000 O   0  0  0  0  0  0  0  0  0  0  0  0
    1.2943   -0.1438    0.0000 N   0  0  0  0  0  0  0  0  0  0  0  0
    0.6069   -0.4190    0.0000 C   0  0  0  0  0  0  0  0  0  0  0  0
    0.6069   -1.2439    0.0000 O   0  0  0  0  0  0  0  0  0  0  0  0
   -0.0116   -0.1438    0.0000 C   0  0  1  0  0  0  0  0  0  0  0  0
   -0.6304   -0.6938    0.0000 N   0  0  0  0  0  0  0  0  0  0  0  0
   -1.2491   -0.1438    0.0000 C   0  0  0  0  0  0  0  0  0  0  0  0
   -1.0429    0.6810    0.0000 C   0  0  1  0  0  0  0  0  0  0  0  0
   -0.2867    0.6810    0.0000 C   0  0  0  0  0  0  0  0  0  0  0  0
   -1.6829    1.4620    0.0000 O   0  0  0  0  0  0  0  0  0  0  0  0
   -1.8566    2.2671    0.0000 C   0  0  0  0  0  0  0  0  0  0  0  0
   -2.7879    2.4160    0.0000 N   0  0  0  0  0  0  0  0  0  0  0  0
   -3.1487    3.1687    0.0000 C   0  0  0  0  0  0  0  0  0  0  0  0
   -3.9303    2.8809    0.0000 C   0  0  0  0  0  0  0  0  0  0  0  0
   -3.9303    2.0559    0.0000 C   0  0  0  0  0  0  0  0  0  0  0  0
   -4.6177    1.7810    0.0000 C   0  0  0  0  0  0  0  0  0  0  0  0
   -4.6177    0.9560    0.0000 C   0  0  0  0  0  0  0  0  0  0  0  0
   -5.2365    0.6810    0.0000 C   0  0  0  0  0  0  0  0  0  0  0  0
   -5.2365   -0.1438    0.0000 C   0  0  0  0  0  0  0  0  0  0  0  0
   -4.6177   -0.6938    0.0000 C   0  0  0  0  0  0  0  0  0  0  0  0
   -4.6177   -1.2439    0.0000 C   0  0  0  0  0  0  0  0  0  0  0  0
   -3.9303   -1.7300    0.0000 C   0  0  0  0  0  0  0  0  0  0  0  0
   -3.3115   -1.2439    0.0000 O   0  0  0  0  0  0  0  0  0  0  0  0
   -2.6241   -1.7938    0.0000 C   0  0  0  0  0  0  0  0  0  0  0  0
   -2.6241   -2.6187    0.0000 O   0  0  0  0  0  0  0  0  0  0  0  0
   -2.0054   -1.2439    0.0000 N   0  0  0  0  0  0  0  0  0  0  0  0
   -1.3179   -1.7938    0.0000 C   0  0  2  0  0  0  0  0  0  0  0  0
   -0.6304   -1.2439    0.0000 C   0  0  0  0  0  0  0  0  0  0  0  0
   -0.0116   -1.7938    0.0000 O   0  0  0  0  0  0  0  0  0  0  0  0
   -1.3179   -2.3437    0.0000 C   0  0  0  0  0  0  0  0  0  0  0  0
   -1.9367   -2.8938    0.0000 C   0  0  0  0  0  0  0  0  0  0  0  0
   -0.6304   -2.8938    0.0000 C   0  0  0  0  0  0  0  0  0  0  0  0
   -1.3179   -3.1687    0.0000 C   0  0  0  0  0  0  0  0  0  0  0  0
   -5.3739   -1.2439    0.0000 C   0  0  0  0  0  0  0  0  0  0  0  0
   -4.9189   -2.0476    0.0000 C   0  0  0  0  0  0  0  0  0  0  0  0
   -5.2365    2.0559    0.0000 C   0  0  0  0  0  0  0  0  0  0  0  0
   -5.2365    2.8809    0.0000 C   0  0  0  0  0  0  0  0  0  0  0  0
   -4.6177    3.1559    0.0000 C   0  0  0  0  0  0  0  0  0  0  0  0
   -3.1259    1.8051    0.0000 C   0  0  0  0  0  0  0  0  0  0  0  0
   -1.3638    2.9007    0.0000 O   0  0  0  0  0  0  0  0  0  0  0  0
    0.6069    0.1311    0.0000 H   0  0  0  0  0  0  0  0  0  0  0  0
    3.2357   -1.8065    0.0000 H   0  0  0  0  0  0  0  0  0  0  0  0
    2.0331   -2.2732    0.0000 H   0  0  0  0  0  0  0  0  0  0  0  0
    2.4596   -0.6504    0.0000 H   0  0  0  0  0  0  0  0  0  0  0  0
    3.1607   -1.4372    0.0000 H   0  0  0  0  0  0  0  0  0  0  0  0
    3.0619   -2.4411    0.0000 H   0  0  0  0  0  0  0  0  0  0  0  0
    1.2456   -3.2342    0.0000 H   0  0  0  0  0  0  0  0  0  0  0  0
    3.0988   -3.2342    0.0000 H   0  0  0  0  0  0  0  0  0  0  0  0
    2.1722   -3.7692    0.0000 H   0  0  0  0  0  0  0  0  0  0  0  0
    3.3227   -1.3981    0.0000 H   0  0  0  0  0  0  0  0  0  0  0  0
    5.4188    1.1811    0.0000 H   0  0  0  0  0  0  0  0  0  0  0  0
    6.3516    0.2036    0.0000 H   0  0  0  0  0  0  0  0  0  0  0  0
    6.0468    1.4702    0.0000 H   0  0  0  0  0  0  0  0  0  0  0  0
    4.7761    2.3696    0.0000 H   0  0  0  0  0  0  0  0  0  0  0  0
    3.8317    1.4722    0.0000 H   0  0  0  0  0  0  0  0  0  0  0  0
    1.3128    0.8405    0.0000 H   0  0  0  0  0  0  0  0  0  0  0  0
   -2.2714   -0.4596    0.0000 H   0  0  0  0  0  0  0  0  0  0  0  0
   -2.0261    0.5919    0.0000 H   0  0  0  0  0  0  0  0  0  0  0  0
   -2.0869    0.4467    0.0000 H   0  0  0  0  0  0  0  0  0  0  0  0
    0.3389    1.5491    0.0000 H   0  0  0  0  0  0  0  0  0  0  0  0
    0.7711    0.5198    0.0000 H   0  0  0  0  0  0  0  0  0  0  0  0
   -2.7464    4.1602    0.0000 H   0  0  0  0  0  0  0  0  0  0  0  0
   -3.8928    3.9376    0.0000 H   0  0  0  0  0  0  0  0  0  0  0  0
   -3.7205    0.3729    0.0000 H   0  0  0  0  0  0  0  0  0  0  0  0
   -4.7022   -0.1107    0.0000 H   0  0  0  0  0  0  0  0  0  0  0  0
   -6.1337    1.2641    0.0000 H   0  0  0  0  0  0  0  0  0  0  0  0
   -6.1769    0.1706    0.0000 H   0  0  0  0  0  0  0  0  0  0  0  0
   -6.2126   -0.5822    0.0000 H   0  0  0  0  0  0  0  0  0  0  0  0
   -5.3988   -1.2014    0.0000 H   0  0  0  0  0  0  0  0  0  0  0  0
   -3.6416   -0.2554    0.0000 H   0  0  0  0  0  0  0  0  0  0  0  0
   -3.7194   -1.2751    0.0000 H   0  0  0  0  0  0  0  0  0  0  0  0
   -3.9034   -2.7997    0.0000 H   0  0  0  0  0  0  0  0  0  0  0  0
   -2.9622   -2.1856    0.0000 H   0  0  0  0  0  0  0  0  0  0  0  0
   -2.0310   -0.2597    0.0000 H   0  0  0  0  0  0  0  0  0  0  0  0
   -2.2823   -2.2574    0.0000 H   0  0  0  0  0  0  0  0  0  0  0  0
   -2.9522   -2.5567    0.0000 H   0  0  0  0  0  0  0  0  0  0  0  0
   -1.7209   -3.9418    0.0000 H   0  0  0  0  0  0  0  0  0  0  0  0
   -2.7364   -3.6047    0.0000 H   0  0  0  0  0  0  0  0  0  0  0  0
   -0.7916   -3.9516    0.0000 H   0  0  0  0  0  0  0  0  0  0  0  0
    0.3663   -2.5045    0.0000 H   0  0  0  0  0  0  0  0  0  0  0  0
    0.2051   -3.5623    0.0000 H   0  0  0  0  0  0  0  0  0  0  0  0
   -2.2445   -3.7037    0.0000 H   0  0  0  0  0  0  0  0  0  0  0  0
   -0.3913   -3.7037    0.0000 H   0  0  0  0  0  0  0  0  0  0  0  0
   -1.3179   -4.2387    0.0000 H   0  0  0  0  0  0  0  0  0  0  0  0
   -5.9089   -0.3173    0.0000 H   0  0  0  0  0  0  0  0  0  0  0  0
   -5.9089   -2.1705    0.0000 H   0  0  0  0  0  0  0  0  0  0  0  0
   -6.4439   -1.2439    0.0000 H   0  0  0  0  0  0  0  0  0  0  0  0
   -5.9744   -2.2234    0.0000 H   0  0  0  0  0  0  0  0  0  0  0  0
   -4.2389   -2.8738    0.0000 H   0  0  0  0  0  0  0  0  0  0  0  0
   -5.2944   -3.0495    0.0000 H   0  0  0  0  0  0  0  0  0  0  0  0
   -6.1018    1.4935    0.0000 H   0  0  0  0  0  0  0  0  0  0  0  0
   -6.1018    3.4433    0.0000 H   0  0  0  0  0  0  0  0  0  0  0  0
   -4.6371    4.1877    0.0000 H   0  0  0  0  0  0  0  0  0  0  0  0
   -2.7274    0.8121    0.0000 H   0  0  0  0  0  0  0  0  0  0  0  0
   -2.0579    1.7389    0.0000 H   0  0  0  0  0  0  0  0  0  0  0  0
  1  2  1  0  0  0  0
  1  3  1  0  0  0  0
  1  6  1  1  0  0  0
  1 15  1  0  0  0  0
  2 55  1  0  0  0  0
  2 56  1  0  0  0  0
  3  2  1  0  0  0  0
  3  4  1  0  0  0  0
  3 57  1  6  0  0  0
  4  5  1  0  0  0  0
  4 58  1  0  0  0  0
  4 59  1  0  0  0  0
  5 60  1  0  0  0  0
  5 61  1  0  0  0  0
  5 62  1  0  0  0  0
  6  7  1  0  0  0  0
  6 14  2  0  0  0  0
  7  8  1  0  0  0  0
  7 63  1  0  0  0  0
  8  9  1  0  0  0  0
  8 12  2  0  0  0  0
  8 13  2  0  0  0  0
  9 11  1  0  0  0  0
  9 64  1  0  0  0  0
 10  9  1  0  0  0  0
 10 65  1  0  0  0  0
 10 66  1  0  0  0  0
 11 10  1  0  0  0  0
 11 67  1  0  0  0  0
 11 68  1  0  0  0  0
 15 69  1  0  0  0  0
 16 15  1  0  0  0  0
 16 17  2  0  0  0  0
 18 16  1  0  0  0  0
 18 22  1  0  0  0  0
 18 54  1  6  0  0  0
 19 18  1  0  0  0  0
 20 19  1  0  0  0  0
 20 70  1  0  0  0  0
 20 71  1  0  0  0  0
 21 20  1  0  0  0  0
 21 23  1  0  0  0  0
 21 72  1  1  0  0  0
 22 21  1  0  0  0  0
 22 73  1  0  0  0  0
 22 74  1  0  0  0  0
 24 23  1  0  0  0  0
 24 53  2  0  0  0  0
 25 24  1  0  0  0  0
 25 26  1  0  0  0  0
 26 27  1  0  0  0  0
 26 75  1  0  0  0  0
 26 76  1  0  0  0  0
 27 28  1  0  0  0  0
 27 51  2  0  0  0  0
 28 52  1  0  0  0  0
 29 28  2  0  0  0  0
 29 30  1  0  0  0  0
 30 31  1  0  0  0  0
 30 77  1  0  0  0  0
 30 78  1  0  0  0  0
 31 32  1  0  0  0  0
 31 79  1  0  0  0  0
 31 80  1  0  0  0  0
 32 33  1  0  0  0  0
 32 81  1  0  0  0  0
 32 82  1  0  0  0  0
 33 34  1  0  0  0  0
 33 83  1  0  0  0  0
 33 84  1  0  0  0  0
 34 35  1  0  0  0  0
 34 47  1  0  0  0  0
 34 48  1  0  0  0  0
 35 36  1  0  0  0  0
 35 85  1  0  0  0  0
 35 86  1  0  0  0  0
 36 37  1  0  0  0  0
 37 38  2  0  0  0  0
 37 39  1  0  0  0  0
 39 40  1  0  0  0  0
 39 87  1  0  0  0  0
 40 41  1  0  0  0  0
 40 43  1  0  0  0  0
 40 88  1  1  0  0  0
 41 19  1  0  0  0  0
 41 42  2  0  0  0  0
 43 44  1  0  0  0  0
 43 45  1  0  0  0  0
 43 46  1  0  0  0  0
 44 89  1  0  0  0  0
 44 90  1  0  0  0  0
 44 91  1  0  0  0  0
 45 92  1  0  0  0  0
 45 93  1  0  0  0  0
 45 94  1  0  0  0  0
 46 95  1  0  0  0  0
 46 96  1  0  0  0  0
 46 97  1  0  0  0  0
 47 98  1  0  0  0  0
 47 99  1  0  0  0  0
 47100  1  0  0  0  0
 48101  1  0  0  0  0
 48102  1  0  0  0  0
 48103  1  0  0  0  0
 49 29  1  0  0  0  0
 49104  1  0  0  0  0
 50 49  2  0  0  0  0
 50105  1  0  0  0  0
 51 50  1  0  0  0  0
 51106  1  0  0  0  0
 52 25  1  0  0  0  0
 52107  1  0  0  0  0
 52108  1  0  0  0  0
M  END
>  <DRUGBANK_ID>
DB11929

>  <COMMON_NAME>
Vaniprevir

>  <CAS_NUMBER>
923590-37-8

>  <UNII>
CV3X74AO1H

>  <SYNONYMS>
Vaniprevir; Vaniprévir; Vaniprevirum

$$$$
