
 OpenBabel10282417072D

 41 42  0  0  1  0  0  0  0  0999 V2000
   -0.6110   -1.8216    0.0000 C   0  0  0  0  0  0  0  0  0  0  0  0
   -0.6548    1.8053    0.0000 C   0  0  0  0  0  0  0  0  0  0  0  0
   -0.7604   -0.4005    0.0000 C   0  0  0  0  0  0  0  0  0  0  0  0
   -2.7743    2.0602    0.0000 C   0  0  0  0  0  0  0  0  0  0  0  0
   -0.2754   -1.0679    0.0000 C   0  0  0  0  0  0  0  0  0  0  0  0
   -1.3222    2.2902    0.0000 C   0  0  1  0  0  0  0  0  0  0  0  0
   -1.9897    1.8053    0.0000 C   0  0  2  0  0  0  0  0  0  0  0  0
   -0.9097    1.0206    0.0000 C   0  0  2  0  0  0  0  0  0  0  0  0
    0.5450   -0.9817    0.0000 C   0  0  0  0  0  0  0  0  0  0  0  0
    0.3957    0.4394    0.0000 C   0  0  0  0  0  0  0  0  0  0  0  0
    0.8806   -0.2280    0.0000 N   0  0  0  0  0  0  0  0  0  0  0  0
   -0.4248    0.3532    0.0000 N   0  0  0  0  0  0  0  0  0  0  0  0
    1.0300   -1.6491    0.0000 O   0  0  0  0  0  0  0  0  0  0  0  0
    0.7312    1.1931    0.0000 O   0  0  0  0  0  0  0  0  0  0  0  0
   -4.5151    3.3770    0.0000 O   0  0  0  0  0  0  0  0  0  0  0  0
   -3.4755    3.9067    0.0000 O   0  0  0  0  0  0  0  0  0  0  0  0
   -3.9854    2.3375    0.0000 O   0  0  0  0  0  0  0  0  0  0  0  0
   -0.1953    2.8132    0.0000 O   0  0  0  0  0  0  0  0  0  0  0  0
   -1.0203    4.2422    0.0000 O   0  0  0  0  0  0  0  0  0  0  0  0
    0.1067    3.9402    0.0000 O   0  0  0  0  0  0  0  0  0  0  0  0
   -2.9458    2.8672    0.0000 O   0  0  0  0  0  0  0  0  0  0  0  0
   -1.7347    1.0206    0.0000 O   0  0  0  0  0  0  0  0  0  0  0  0
   -1.3222    3.1152    0.0000 O   0  0  0  0  0  0  0  0  0  0  0  0
   -3.7304    3.1221    0.0000 P   0  0  0  0  0  0  0  0  0  0  0  0
   -0.6078    3.5277    0.0000 P   0  0  0  0  0  0  0  0  0  0  0  0
   -0.5872    2.6647    0.0000 H   0  0  0  0  0  0  0  0  0  0  0  0
   -2.1187    2.6201    0.0000 H   0  0  0  0  0  0  0  0  0  0  0  0
   -0.0949    1.1497    0.0000 H   0  0  0  0  0  0  0  0  0  0  0  0
   -1.6751   -1.9334    0.0000 H   0  0  0  0  0  0  0  0  0  0  0  0
    0.0179   -2.6873    0.0000 H   0  0  0  0  0  0  0  0  0  0  0  0
   -1.0462   -2.7991    0.0000 H   0  0  0  0  0  0  0  0  0  0  0  0
    0.3628    2.1360    0.0000 H   0  0  0  0  0  0  0  0  0  0  0  0
    0.1018    1.0487    0.0000 H   0  0  0  0  0  0  0  0  0  0  0  0
   -1.7867   -0.5084    0.0000 H   0  0  0  0  0  0  0  0  0  0  0  0
   -3.5695    1.3442    0.0000 H   0  0  0  0  0  0  0  0  0  0  0  0
   -3.7919    2.3909    0.0000 H   0  0  0  0  0  0  0  0  0  0  0  0
    1.8597   -0.1251    0.0000 H   0  0  0  0  0  0  0  0  0  0  0  0
   -4.7168    4.3258    0.0000 H   0  0  0  0  0  0  0  0  0  0  0  0
   -2.5267    4.1084    0.0000 H   0  0  0  0  0  0  0  0  0  0  0  0
   -0.6803    1.9732    0.0000 H   0  0  0  0  0  0  0  0  0  0  0  0
   -0.5353    5.0822    0.0000 H   0  0  0  0  0  0  0  0  0  0  0  0
  1 29  1  0  0  0  0
  1 30  1  0  0  0  0
  1 31  1  0  0  0  0
  2 32  1  0  0  0  0
  2 33  1  0  0  0  0
  3 34  1  0  0  0  0
  4 35  1  0  0  0  0
  4 36  1  0  0  0  0
  5  1  1  0  0  0  0
  5  3  2  0  0  0  0
  6  2  1  0  0  0  0
  6 23  1  0  0  0  0
  6 26  1  6  0  0  0
  7  4  1  0  0  0  0
  7  6  1  0  0  0  0
  7 27  1  1  0  0  0
  8  2  1  0  0  0  0
  8 12  1  0  0  0  0
  8 28  1  1  0  0  0
  9  5  1  0  0  0  0
 11  9  1  0  0  0  0
 11 10  1  0  0  0  0
 11 37  1  0  0  0  0
 12  3  1  0  0  0  0
 12 10  1  0  0  0  0
 13  9  2  0  0  0  0
 14 10  2  0  0  0  0
 15 38  1  0  0  0  0
 16 39  1  0  0  0  0
 18 40  1  0  0  0  0
 19 41  1  0  0  0  0
 21  4  1  0  0  0  0
 22  7  1  0  0  0  0
 22  8  1  0  0  0  0
 24 15  1  0  0  0  0
 24 16  1  0  0  0  0
 24 17  2  0  0  0  0
 24 21  1  0  0  0  0
 25 18  1  0  0  0  0
 25 19  1  0  0  0  0
 25 20  2  0  0  0  0
 25 23  1  0  0  0  0
M  END
>  <DRUGBANK_ID>
DB04205

>  <SECONDARY_ACCESSION_NUMBERS>
EXPT03055

>  <COMMON_NAME>
Thymidine-3',5'-Diphosphate

$$$$
