
 OpenBabel10282417072D

 32 33  0  0  1  0  0  0  0  0999 V2000
    0.5020   -0.0194    0.0000 C   0  0  2  0  0  0  0  0  0  0  0  0
    1.3288   -0.1960    0.0000 C   0  0  0  0  0  0  0  0  0  0  0  0
    1.5837   -0.9806    0.0000 O   0  0  0  0  0  0  0  0  0  0  0  0
    0.2471    0.7652    0.0000 C   0  0  0  0  0  0  0  0  0  0  0  0
    1.8822    0.4155    0.0000 C   0  0  0  0  0  0  0  0  0  0  0  0
    0.8005    1.3768    0.0000 C   0  0  0  0  0  0  0  0  0  0  0  0
    1.6273    1.2002    0.0000 C   0  0  0  0  0  0  0  0  0  0  0  0
   -0.3236   -0.0597    0.0000 C   0  0  0  0  0  0  0  0  0  0  0  0
    0.5459   -0.8465    0.0000 N   0  0  0  0  0  0  0  0  0  0  0  0
   -0.7008   -0.7935    0.0000 C   0  0  0  0  0  0  0  0  0  0  0  0
   -1.5248   -0.8337    0.0000 C   0  0  0  0  0  0  0  0  0  0  0  0
   -1.9717   -0.1402    0.0000 C   0  0  0  0  0  0  0  0  0  0  0  0
   -0.7706    0.6337    0.0000 C   0  0  0  0  0  0  0  0  0  0  0  0
   -1.5944    0.5933    0.0000 C   0  0  0  0  0  0  0  0  0  0  0  0
   -0.1455   -1.2963    0.0000 C   0  0  0  0  0  0  0  0  0  0  0  0
   -0.3935    1.3673    0.0000 Cl  0  0  0  0  0  0  0  0  0  0  0  0
   -0.7992    0.9890    0.0000 H   0  0  0  0  0  0  0  0  0  0  0  0
   -0.0817    1.7834    0.0000 H   0  0  0  0  0  0  0  0  0  0  0  0
    2.9285    0.1917    0.0000 H   0  0  0  0  0  0  0  0  0  0  0  0
    2.5987    1.2102    0.0000 H   0  0  0  0  0  0  0  0  0  0  0  0
    0.4716    2.3950    0.0000 H   0  0  0  0  0  0  0  0  0  0  0  0
    1.5175    2.1710    0.0000 H   0  0  0  0  0  0  0  0  0  0  0  0
    2.3437    1.9950    0.0000 H   0  0  0  0  0  0  0  0  0  0  0  0
    1.2974    2.2181    0.0000 H   0  0  0  0  0  0  0  0  0  0  0  0
    1.4551   -1.3089    0.0000 H   0  0  0  0  0  0  0  0  0  0  0  0
   -0.1418   -1.6610    0.0000 H   0  0  0  0  0  0  0  0  0  0  0  0
   -1.9966   -1.7515    0.0000 H   0  0  0  0  0  0  0  0  0  0  0  0
   -3.0025   -0.1904    0.0000 H   0  0  0  0  0  0  0  0  0  0  0  0
   -2.1533    1.4608    0.0000 H   0  0  0  0  0  0  0  0  0  0  0  0
   -1.0993   -0.8113    0.0000 H   0  0  0  0  0  0  0  0  0  0  0  0
   -0.0886   -2.3648    0.0000 H   0  0  0  0  0  0  0  0  0  0  0  0
   -1.0424   -1.8798    0.0000 H   0  0  0  0  0  0  0  0  0  0  0  0
  1  8  1  0  0  0  0
  1  9  1  6  0  0  0
  2  1  1  0  0  0  0
  3  2  2  0  0  0  0
  4  1  1  0  0  0  0
  4 17  1  0  0  0  0
  4 18  1  0  0  0  0
  5  2  1  0  0  0  0
  5 19  1  0  0  0  0
  5 20  1  0  0  0  0
  6  4  1  0  0  0  0
  6 21  1  0  0  0  0
  6 22  1  0  0  0  0
  7  5  1  0  0  0  0
  7  6  1  0  0  0  0
  7 23  1  0  0  0  0
  7 24  1  0  0  0  0
  8 10  2  0  0  0  0
  9 15  1  0  0  0  0
  9 25  1  0  0  0  0
 10 26  1  0  0  0  0
 11 10  1  0  0  0  0
 11 27  1  0  0  0  0
 12 11  2  0  0  0  0
 12 28  1  0  0  0  0
 13  8  1  0  0  0  0
 13 16  1  0  0  0  0
 14 12  1  0  0  0  0
 14 13  2  0  0  0  0
 14 29  1  0  0  0  0
 15 30  1  0  0  0  0
 15 31  1  0  0  0  0
 15 32  1  0  0  0  0
M  END
>  <DRUGBANK_ID>
DB11823

>  <COMMON_NAME>
Esketamine

>  <CAS_NUMBER>
33643-46-8

>  <UNII>
50LFG02TXD

>  <SYNONYMS>
(-)-Ketamine; (−)-ketamine; (S)-(−)-ketamine; (S)-2-(o-chlorophenyl)-2-(methylamino)cyclohexanone; (S)-ketamine; Esketamine; L-ketamine; S-(-)-Ketamine; S-ketamine

$$$$
