
 OpenBabel10282417072D

330344  0  0  0  0  0  0  0  0999 V2000
   -1.3597   -6.7126    0.0000 C   0  0  2  0  0  0  0  0  0  0  0  0
   -1.3597   -7.5325    0.0000 C   0  0  2  0  0  0  0  0  0  0  0  0
   -0.6472   -7.9263    0.0000 C   0  0  1  0  0  0  0  0  0  0  0  0
    0.0653   -7.5325    0.0000 C   0  0  2  0  0  0  0  0  0  0  0  0
    0.0653   -6.7126    0.0000 C   0  0  1  0  0  0  0  0  0  0  0  0
   -0.6472   -6.2940    0.0000 O   0  0  0  0  0  0  0  0  0  0  0  0
   -3.2458   -3.7848    0.0000 C   0  0  2  0  0  0  0  0  0  0  0  0
   -3.2458   -4.6050    0.0000 C   0  0  2  0  0  0  0  0  0  0  0  0
   -2.5252   -5.0150    0.0000 C   0  0  1  0  0  0  0  0  0  0  0  0
   -1.8209   -4.6050    0.0000 C   0  0  2  0  0  0  0  0  0  0  0  0
   -1.8209   -3.7848    0.0000 C   0  0  1  0  0  0  0  0  0  0  0  0
   -2.5252   -3.3828    0.0000 O   0  0  0  0  0  0  0  0  0  0  0  0
    0.7625   -3.4197    0.0000 C   0  0  2  0  0  0  0  0  0  0  0  0
    0.0468   -3.8407    0.0000 C   0  0  2  0  0  0  0  0  0  0  0  0
    0.0627   -4.6523    0.0000 C   0  0  1  0  0  0  0  0  0  0  0  0
    0.7639   -5.0516    0.0000 C   0  0  2  0  0  0  0  0  0  0  0  0
    1.4715   -4.6471    0.0000 C   0  0  1  0  0  0  0  0  0  0  0  0
    1.4779   -3.8271    0.0000 O   0  0  0  0  0  0  0  0  0  0  0  0
    2.1817   -5.0547    0.0000 O   0  0  0  0  0  0  0  0  0  0  0  0
    9.2842   -0.9636    0.0000 O   0  0  0  0  0  0  0  0  0  0  0  0
    9.9895   -1.3654    0.0000 C   0  0  0  0  0  0  0  0  0  0  0  0
    9.9895   -2.1691    0.0000 O   0  0  0  0  0  0  0  0  0  0  0  0
   10.6865   -0.9636    0.0000 C   0  0  0  0  0  0  0  0  0  0  0  0
   11.3919   -1.3573    0.0000 C   0  0  0  0  0  0  0  0  0  0  0  0
   11.4000   -1.9970    0.0000 C   0  0  0  0  0  0  0  0  0  0  0  0
   10.6867   -0.1517    0.0000 C   0  0  0  0  0  0  0  0  0  0  0  0
    8.5716   -1.3654    0.0000 C   0  0  1  0  0  0  0  0  0  0  0  0
    8.5716   -2.1854    0.0000 C   0  0  2  0  0  0  0  0  0  0  0  0
    9.3007   -2.6038    0.0000 O   0  0  0  0  0  0  0  0  0  0  0  0
   10.0624   -3.0384    0.0000 C   0  0  0  0  0  0  0  0  0  0  0  0
   10.0950   -3.8177    0.0000 O   0  0  0  0  0  0  0  0  0  0  0  0
    7.1529   -1.3654    0.0000 C   0  0  0  0  0  0  0  0  0  0  0  0
    7.1529   -2.1854    0.0000 C   0  0  3  0  0  0  0  0  0  0  0  0
    7.8653   -2.6036    0.0000 C   0  0  1  0  0  0  0  0  0  0  0  0
    7.8653   -0.9636    0.0000 C   0  0  0  0  0  0  0  0  0  0  0  0
    6.4377   -2.6038    0.0000 C   0  0  0  0  0  0  0  0  0  0  0  0
    6.4377   -3.4156    0.0000 C   0  0  1  0  0  0  0  0  0  0  0  0
    7.1501   -3.8177    0.0000 C   0  0  0  0  0  0  0  0  0  0  0  0
    7.8625   -3.4156    0.0000 C   0  0  1  0  0  0  0  0  0  0  0  0
    5.0207   -2.6038    0.0000 C   0  0  0  0  0  0  0  0  0  0  0  0
    5.0207   -3.4156    0.0000 C   0  0  3  0  0  0  0  0  0  0  0  0
    5.7333   -3.8177    0.0000 C   0  0  1  0  0  0  0  0  0  0  0  0
    5.7333   -2.1854    0.0000 C   0  0  0  0  0  0  0  0  0  0  0  0
    4.3073   -3.8257    0.0000 C   0  0  2  0  0  0  0  0  0  0  0  0
    4.3073   -4.6459    0.0000 C   0  0  3  0  0  0  0  0  0  0  0  0
    5.0280   -5.0478    0.0000 C   0  0  0  0  0  0  0  0  0  0  0  0
    5.7404   -4.6459    0.0000 C   0  0  0  0  0  0  0  0  0  0  0  0
    2.8965   -3.8257    0.0000 C   0  0  0  0  0  0  0  0  0  0  0  0
    2.8965   -4.6459    0.0000 C   0  0  3  0  0  0  0  0  0  0  0  0
    3.6091   -5.0478    0.0000 C   0  0  1  0  0  0  0  0  0  0  0  0
    3.6091   -3.4156    0.0000 C   0  0  0  0  0  0  0  0  0  0  0  0
    2.8803   -5.4495    0.0000 C   0  0  0  0  0  0  0  0  0  0  0  0
    4.1840   -5.6217    0.0000 C   0  0  0  0  0  0  0  0  0  0  0  0
    4.1760   -6.4337    0.0000 O   0  0  0  0  0  0  0  0  0  0  0  0
    4.3073   -3.0138    0.0000 C   0  0  0  0  0  0  0  0  0  0  0  0
    5.7259   -3.0056    0.0000 C   0  0  0  0  0  0  0  0  0  0  0  0
    6.4312   -4.2276    0.0000 C   0  0  0  0  0  0  0  0  0  0  0  0
    8.5636   -3.8257    0.0000 O   0  0  0  0  0  0  0  0  0  0  0  0
    8.5307   -3.1697    0.0000 C   0  0  0  0  0  0  0  0  0  0  0  0
    9.1540   -3.1697    0.0000 O   0  0  0  0  0  0  0  0  0  0  0  0
    7.1448   -0.5616    0.0000 C   0  0  0  0  0  0  0  0  0  0  0  0
    8.4405   -0.3812    0.0000 C   0  0  0  0  0  0  0  0  0  0  0  0
   10.7369   -2.6448    0.0000 C   0  0  0  0  0  0  0  0  0  0  0  0
    1.4696   -5.4576    0.0000 H   0  0  0  0  0  0  0  0  0  0  0  0
    0.7479   -2.6119    0.0000 C   0  0  0  0  0  0  0  0  0  0  0  0
    0.0426   -2.2019    0.0000 O   0  0  0  0  0  0  0  0  0  0  0  0
    1.4615   -2.1938    0.0000 O   0  0  0  0  0  0  0  0  0  0  0  0
    0.7644   -6.2942    0.0000 O   0  0  0  0  0  0  0  0  0  0  0  0
   -0.5068   -5.0231    0.0000 O   0  0  0  0  0  0  0  0  0  0  0  0
   -0.8840   -3.3255    0.0000 O   0  0  0  0  0  0  0  0  0  0  0  0
   -1.8271   -2.9809    0.0000 H   0  0  0  0  0  0  0  0  0  0  0  0
   -1.3514   -4.9329    0.0000 O   0  0  0  0  0  0  0  0  0  0  0  0
   -2.5486   -5.8266    0.0000 O   0  0  0  0  0  0  0  0  0  0  0  0
   -3.9594   -5.0150    0.0000 O   0  0  0  0  0  0  0  0  0  0  0  0
   -3.9594   -3.3828    0.0000 C   0  0  0  0  0  0  0  0  0  0  0  0
   -4.6811   -3.6618    0.0000 O   0  0  0  0  0  0  0  0  0  0  0  0
    0.7644   -7.9345    0.0000 O   0  0  0  0  0  0  0  0  0  0  0  0
   -0.6542   -8.7463    0.0000 O   0  0  0  0  0  0  0  0  0  0  0  0
   -2.0732   -7.9263    0.0000 O   0  0  0  0  0  0  0  0  0  0  0  0
   -1.9255   -6.3599    0.0000 C   0  0  0  0  0  0  0  0  0  0  0  0
   -2.5651   -6.6959    0.0000 O   0  0  0  0  0  0  0  0  0  0  0  0
    0.7644   -7.1145    0.0000 H   0  0  0  0  0  0  0  0  0  0  0  0
   -8.0131    2.0708    0.0000 C   0  0  2  0  0  0  0  0  0  0  0  0
   -8.0131    1.2342    0.0000 C   0  0  2  0  0  0  0  0  0  0  0  0
   -7.2924    0.8241    0.0000 C   0  0  1  0  0  0  0  0  0  0  0  0
   -6.5635    1.2342    0.0000 C   0  0  2  0  0  0  0  0  0  0  0  0
   -6.5635    2.0708    0.0000 C   0  0  1  0  0  0  0  0  0  0  0  0
   -7.2924    2.4971    0.0000 O   0  0  0  0  0  0  0  0  0  0  0  0
   -9.9404    5.0478    0.0000 C   0  0  2  0  0  0  0  0  0  0  0  0
   -9.9404    4.2113    0.0000 C   0  0  2  0  0  0  0  0  0  0  0  0
   -9.2113    3.8011    0.0000 C   0  0  1  0  0  0  0  0  0  0  0  0
   -8.4826    4.2113    0.0000 C   0  0  2  0  0  0  0  0  0  0  0  0
   -8.4826    5.0478    0.0000 C   0  0  1  0  0  0  0  0  0  0  0  0
   -9.2113    5.4659    0.0000 O   0  0  0  0  0  0  0  0  0  0  0  0
   -5.8498    5.4127    0.0000 C   0  0  2  0  0  0  0  0  0  0  0  0
   -6.5737    4.9999    0.0000 C   0  0  2  0  0  0  0  0  0  0  0  0
   -6.5660    4.1635    0.0000 C   0  0  1  0  0  0  0  0  0  0  0  0
   -5.8485    3.7564    0.0000 C   0  0  2  0  0  0  0  0  0  0  0  0
   -5.1327    4.1690    0.0000 C   0  0  1  0  0  0  0  0  0  0  0  0
   -5.1263    5.0054    0.0000 O   0  0  0  0  0  0  0  0  0  0  0  0
   -4.3978    3.7532    0.0000 O   0  0  0  0  0  0  0  0  0  0  0  0
    2.8357    7.9263    0.0000 O   0  0  0  0  0  0  0  0  0  0  0  0
    3.5575    7.5244    0.0000 C   0  0  0  0  0  0  0  0  0  0  0  0
    3.5575    6.6961    0.0000 O   0  0  0  0  0  0  0  0  0  0  0  0
    4.2710    7.9345    0.0000 C   0  0  0  0  0  0  0  0  0  0  0  0
    4.9845    7.5244    0.0000 C   0  0  0  0  0  0  0  0  0  0  0  0
    5.5587    7.9591    0.0000 C   0  0  0  0  0  0  0  0  0  0  0  0
    4.2629    8.7463    0.0000 C   0  0  0  0  0  0  0  0  0  0  0  0
    2.1150    7.5081    0.0000 C   0  0  1  0  0  0  0  0  0  0  0  0
    2.1150    6.6796    0.0000 C   0  0  2  0  0  0  0  0  0  0  0  0
    2.8604    6.2533    0.0000 O   0  0  0  0  0  0  0  0  0  0  0  0
    3.6386    5.8022    0.0000 C   0  0  0  0  0  0  0  0  0  0  0  0
    3.6630    5.0150    0.0000 O   0  0  0  0  0  0  0  0  0  0  0  0
    0.6634    7.5081    0.0000 C   0  0  0  0  0  0  0  0  0  0  0  0
    0.6634    6.6796    0.0000 C   0  0  3  0  0  0  0  0  0  0  0  0
    1.3925    6.2615    0.0000 C   0  0  1  0  0  0  0  0  0  0  0  0
    1.3925    7.9263    0.0000 C   0  0  0  0  0  0  0  0  0  0  0  0
   -0.0600    6.2533    0.0000 C   0  0  0  0  0  0  0  0  0  0  0  0
   -0.0600    5.4332    0.0000 C   0  0  1  0  0  0  0  0  0  0  0  0
    0.6606    5.0150    0.0000 C   0  0  0  0  0  0  0  0  0  0  0  0
    1.3895    5.4332    0.0000 C   0  0  1  0  0  0  0  0  0  0  0  0
   -1.5096    6.2533    0.0000 C   0  0  0  0  0  0  0  0  0  0  0  0
   -1.5096    5.4332    0.0000 C   0  0  3  0  0  0  0  0  0  0  0  0
   -0.7889    5.0150    0.0000 C   0  0  1  0  0  0  0  0  0  0  0  0
   -0.7889    6.6796    0.0000 C   0  0  0  0  0  0  0  0  0  0  0  0
   -2.2314    4.9986    0.0000 C   0  0  2  0  0  0  0  0  0  0  0  0
   -2.2314    4.1701    0.0000 C   0  0  3  0  0  0  0  0  0  0  0  0
   -1.5024    3.7602    0.0000 C   0  0  0  0  0  0  0  0  0  0  0  0
   -0.7898    4.1701    0.0000 C   0  0  0  0  0  0  0  0  0  0  0  0
   -3.6749    4.9986    0.0000 C   0  0  0  0  0  0  0  0  0  0  0  0
   -3.6749    4.1701    0.0000 C   0  0  3  0  0  0  0  0  0  0  0  0
   -2.9540    3.7602    0.0000 C   0  0  1  0  0  0  0  0  0  0  0  0
   -2.9540    5.4332    0.0000 C   0  0  0  0  0  0  0  0  0  0  0  0
   -3.6913    3.3501    0.0000 C   0  0  0  0  0  0  0  0  0  0  0  0
   -2.3627    3.1780    0.0000 C   0  0  0  0  0  0  0  0  0  0  0  0
   -2.3707    2.3495    0.0000 O   0  0  0  0  0  0  0  0  0  0  0  0
   -2.2314    5.8431    0.0000 C   0  0  0  0  0  0  0  0  0  0  0  0
   -0.7963    5.8433    0.0000 C   0  0  0  0  0  0  0  0  0  0  0  0
   -0.0663    4.5887    0.0000 C   0  0  0  0  0  0  0  0  0  0  0  0
    2.1069    5.0067    0.0000 O   0  0  0  0  0  0  0  0  0  0  0  0
    2.0741    5.6792    0.0000 C   0  0  0  0  0  0  0  0  0  0  0  0
    2.7057    5.6792    0.0000 O   0  0  0  0  0  0  0  0  0  0  0  0
    0.6553    8.3444    0.0000 C   0  0  0  0  0  0  0  0  0  0  0  0
    1.9757    8.5249    0.0000 C   0  0  0  0  0  0  0  0  0  0  0  0
    4.3211    6.2124    0.0000 C   0  0  0  0  0  0  0  0  0  0  0  0
   -5.1346    3.3499    0.0000 H   0  0  0  0  0  0  0  0  0  0  0  0
   -5.8644    6.2451    0.0000 C   0  0  0  0  0  0  0  0  0  0  0  0
   -6.5861    6.6714    0.0000 O   0  0  0  0  0  0  0  0  0  0  0  0
   -5.1426    6.6716    0.0000 O   0  0  0  0  0  0  0  0  0  0  0  0
   -5.8481    2.4891    0.0000 O   0  0  0  0  0  0  0  0  0  0  0  0
   -7.1439    3.7848    0.0000 O   0  0  0  0  0  0  0  0  0  0  0  0
   -7.5291    5.5233    0.0000 O   0  0  0  0  0  0  0  0  0  0  0  0
   -8.4888    5.8760    0.0000 H   0  0  0  0  0  0  0  0  0  0  0  0
   -8.0048    3.8751    0.0000 O   0  0  0  0  0  0  0  0  0  0  0  0
   -9.2267    2.9728    0.0000 O   0  0  0  0  0  0  0  0  0  0  0  0
  -10.6620    3.8011    0.0000 O   0  0  0  0  0  0  0  0  0  0  0  0
  -10.6620    5.4578    0.0000 C   0  0  0  0  0  0  0  0  0  0  0  0
  -11.4000    5.1626    0.0000 O   0  0  0  0  0  0  0  0  0  0  0  0
   -5.8481    0.8241    0.0000 O   0  0  0  0  0  0  0  0  0  0  0  0
   -7.2996    0.0040    0.0000 O   0  0  0  0  0  0  0  0  0  0  0  0
   -8.7512    0.8241    0.0000 O   0  0  0  0  0  0  0  0  0  0  0  0
   -8.5870    2.4316    0.0000 C   0  0  0  0  0  0  0  0  0  0  0  0
   -9.2433    2.0872    0.0000 O   0  0  0  0  0  0  0  0  0  0  0  0
   -5.8481    1.6525    0.0000 H   0  0  0  0  0  0  0  0  0  0  0  0
   -1.3457   -5.6427    0.0000 H   0  0  0  0  0  0  0  0  0  0  0  0
   -1.3600   -8.6025    0.0000 H   0  0  0  0  0  0  0  0  0  0  0  0
   -1.5711   -8.4660    0.0000 H   0  0  0  0  0  0  0  0  0  0  0  0
    0.0562   -8.6025    0.0000 H   0  0  0  0  0  0  0  0  0  0  0  0
   -3.2436   -2.7148    0.0000 H   0  0  0  0  0  0  0  0  0  0  0  0
   -3.2435   -5.6750    0.0000 H   0  0  0  0  0  0  0  0  0  0  0  0
   -3.4578   -5.5395    0.0000 H   0  0  0  0  0  0  0  0  0  0  0  0
   -1.8650   -5.6741    0.0000 H   0  0  0  0  0  0  0  0  0  0  0  0
   -0.1711   -2.8969    0.0000 H   0  0  0  0  0  0  0  0  0  0  0  0
    0.0328   -2.7708    0.0000 H   0  0  0  0  0  0  0  0  0  0  0  0
    0.0945   -5.7218    0.0000 H   0  0  0  0  0  0  0  0  0  0  0  0
   -0.1610   -5.5895    0.0000 H   0  0  0  0  0  0  0  0  0  0  0  0
   12.2785   -0.8292    0.0000 H   0  0  0  0  0  0  0  0  0  0  0  0
   10.4802   -2.5437    0.0000 H   0  0  0  0  0  0  0  0  0  0  0  0
   12.3333   -2.5202    0.0000 H   0  0  0  0  0  0  0  0  0  0  0  0
   11.4135   -3.0669    0.0000 H   0  0  0  0  0  0  0  0  0  0  0  0
   11.6135    0.3831    0.0000 H   0  0  0  0  0  0  0  0  0  0  0  0
    9.7602    0.3835    0.0000 H   0  0  0  0  0  0  0  0  0  0  0  0
   10.6870    0.9183    0.0000 H   0  0  0  0  0  0  0  0  0  0  0  0
    8.5736   -0.2954    0.0000 H   0  0  0  0  0  0  0  0  0  0  0  0
    8.5789   -3.2554    0.0000 H   0  0  0  0  0  0  0  0  0  0  0  0
    6.2290   -0.8257    0.0000 H   0  0  0  0  0  0  0  0  0  0  0  0
    7.1610   -0.2954    0.0000 H   0  0  0  0  0  0  0  0  0  0  0  0
    6.2247   -1.6531    0.0000 H   0  0  0  0  0  0  0  0  0  0  0  0
    7.1501   -4.8877    0.0000 H   0  0  0  0  0  0  0  0  0  0  0  0
    8.0741   -4.3572    0.0000 H   0  0  0  0  0  0  0  0  0  0  0  0
    7.8543   -4.4856    0.0000 H   0  0  0  0  0  0  0  0  0  0  0  0
    4.0921   -2.0722    0.0000 H   0  0  0  0  0  0  0  0  0  0  0  0
    5.0148   -1.5338    0.0000 H   0  0  0  0  0  0  0  0  0  0  0  0
    5.9447   -2.8760    0.0000 H   0  0  0  0  0  0  0  0  0  0  0  0
    5.7359   -1.1534    0.0000 H   0  0  0  0  0  0  0  0  0  0  0  0
    5.2299   -4.1040    0.0000 H   0  0  0  0  0  0  0  0  0  0  0  0
    5.0306   -6.1178    0.0000 H   0  0  0  0  0  0  0  0  0  0  0  0
    5.9526   -5.5863    0.0000 H   0  0  0  0  0  0  0  0  0  0  0  0
    6.6667   -5.1815    0.0000 H   0  0  0  0  0  0  0  0  0  0  0  0
    6.6649   -4.1073    0.0000 H   0  0  0  0  0  0  0  0  0  0  0  0
    1.9702   -3.2901    0.0000 H   0  0  0  0  0  0  0  0  0  0  0  0
    2.8976   -2.7557    0.0000 H   0  0  0  0  0  0  0  0  0  0  0  0
    3.8204   -4.1062    0.0000 H   0  0  0  0  0  0  0  0  0  0  0  0
    3.6138   -2.3456    0.0000 H   0  0  0  0  0  0  0  0  0  0  0  0
    4.5389   -2.8861    0.0000 H   0  0  0  0  0  0  0  0  0  0  0  0
    1.9645   -4.8962    0.0000 H   0  0  0  0  0  0  0  0  0  0  0  0
    2.8591   -6.5193    0.0000 H   0  0  0  0  0  0  0  0  0  0  0  0
    1.9432   -5.9660    0.0000 H   0  0  0  0  0  0  0  0  0  0  0  0
    5.1744   -5.2167    0.0000 H   0  0  0  0  0  0  0  0  0  0  0  0
    5.0694   -6.2225    0.0000 H   0  0  0  0  0  0  0  0  0  0  0  0
    3.3312   -6.9104    0.0000 H   0  0  0  0  0  0  0  0  0  0  0  0
    5.2339   -2.4788    0.0000 H   0  0  0  0  0  0  0  0  0  0  0  0
    3.3807   -2.4788    0.0000 H   0  0  0  0  0  0  0  0  0  0  0  0
    4.3073   -1.9438    0.0000 H   0  0  0  0  0  0  0  0  0  0  0  0
    6.6476   -2.4622    0.0000 H   0  0  0  0  0  0  0  0  0  0  0  0
    4.7944   -2.4791    0.0000 H   0  0  0  0  0  0  0  0  0  0  0  0
    5.7162   -1.9356    0.0000 H   0  0  0  0  0  0  0  0  0  0  0  0
    5.5003   -4.7552    0.0000 H   0  0  0  0  0  0  0  0  0  0  0  0
    7.3535   -4.7700    0.0000 H   0  0  0  0  0  0  0  0  0  0  0  0
    6.4226   -5.2976    0.0000 H   0  0  0  0  0  0  0  0  0  0  0  0
    8.5581   -4.7957    0.0000 H   0  0  0  0  0  0  0  0  0  0  0  0
    8.1613   -4.1739    0.0000 H   0  0  0  0  0  0  0  0  0  0  0  0
    9.1429   -4.0472    0.0000 H   0  0  0  0  0  0  0  0  0  0  0  0
    9.6390   -4.0097    0.0000 H   0  0  0  0  0  0  0  0  0  0  0  0
    7.1291    0.5083    0.0000 H   0  0  0  0  0  0  0  0  0  0  0  0
    6.2261   -1.1101    0.0000 H   0  0  0  0  0  0  0  0  0  0  0  0
    6.2104   -0.0403    0.0000 H   0  0  0  0  0  0  0  0  0  0  0  0
    9.4757   -0.6517    0.0000 H   0  0  0  0  0  0  0  0  0  0  0  0
    8.1571    0.6506    0.0000 H   0  0  0  0  0  0  0  0  0  0  0  0
    9.1924    0.3801    0.0000 H   0  0  0  0  0  0  0  0  0  0  0  0
   11.6660   -3.1755    0.0000 H   0  0  0  0  0  0  0  0  0  0  0  0
   10.7319   -1.5748    0.0000 H   0  0  0  0  0  0  0  0  0  0  0  0
   11.6611   -2.1055    0.0000 H   0  0  0  0  0  0  0  0  0  0  0  0
    0.0454   -1.2649    0.0000 H   0  0  0  0  0  0  0  0  0  0  0  0
   -1.3716   -4.5838    0.0000 H   0  0  0  0  0  0  0  0  0  0  0  0
   -1.4348   -5.8993    0.0000 H   0  0  0  0  0  0  0  0  0  0  0  0
   -3.4023   -6.2872    0.0000 H   0  0  0  0  0  0  0  0  0  0  0  0
   -4.7984   -4.5282    0.0000 H   0  0  0  0  0  0  0  0  0  0  0  0
   -3.8824   -2.3156    0.0000 H   0  0  0  0  0  0  0  0  0  0  0  0
   -4.8196   -2.7464    0.0000 H   0  0  0  0  0  0  0  0  0  0  0  0
   -5.4364   -3.0531    0.0000 H   0  0  0  0  0  0  0  0  0  0  0  0
    0.7661   -8.9045    0.0000 H   0  0  0  0  0  0  0  0  0  0  0  0
   -1.4984   -9.2241    0.0000 H   0  0  0  0  0  0  0  0  0  0  0  0
   -2.9037   -7.4252    0.0000 H   0  0  0  0  0  0  0  0  0  0  0  0
   -1.8861   -5.2906    0.0000 H   0  0  0  0  0  0  0  0  0  0  0  0
   -2.8309   -5.7897    0.0000 H   0  0  0  0  0  0  0  0  0  0  0  0
   -3.3851   -6.1778    0.0000 H   0  0  0  0  0  0  0  0  0  0  0  0
   -8.9497    1.5533    0.0000 H   0  0  0  0  0  0  0  0  0  0  0  0
   -8.9353    1.7768    0.0000 H   0  0  0  0  0  0  0  0  0  0  0  0
   -8.2197    0.2903    0.0000 H   0  0  0  0  0  0  0  0  0  0  0  0
   -6.5678    0.1642    0.0000 H   0  0  0  0  0  0  0  0  0  0  0  0
  -10.8652    4.5096    0.0000 H   0  0  0  0  0  0  0  0  0  0  0  0
  -10.8653    4.7494    0.0000 H   0  0  0  0  0  0  0  0  0  0  0  0
  -10.1399    3.2696    0.0000 H   0  0  0  0  0  0  0  0  0  0  0  0
   -8.5363    3.1426    0.0000 H   0  0  0  0  0  0  0  0  0  0  0  0
   -6.7797    5.9420    0.0000 H   0  0  0  0  0  0  0  0  0  0  0  0
   -6.5828    6.0699    0.0000 H   0  0  0  0  0  0  0  0  0  0  0  0
   -7.5097    4.6678    0.0000 H   0  0  0  0  0  0  0  0  0  0  0  0
   -6.7730    3.2178    0.0000 H   0  0  0  0  0  0  0  0  0  0  0  0
    5.0496    6.4945    0.0000 H   0  0  0  0  0  0  0  0  0  0  0  0
    6.5446    7.5432    0.0000 H   0  0  0  0  0  0  0  0  0  0  0  0
    5.4259    9.0208    0.0000 H   0  0  0  0  0  0  0  0  0  0  0  0
    6.4118    8.6049    0.0000 H   0  0  0  0  0  0  0  0  0  0  0  0
    5.1842    9.2905    0.0000 H   0  0  0  0  0  0  0  0  0  0  0  0
    3.3310    9.2720    0.0000 H   0  0  0  0  0  0  0  0  0  0  0  0
    4.2522    9.8162    0.0000 H   0  0  0  0  0  0  0  0  0  0  0  0
    3.0422    6.9741    0.0000 H   0  0  0  0  0  0  0  0  0  0  0  0
    3.0406    7.2165    0.0000 H   0  0  0  0  0  0  0  0  0  0  0  0
   -0.2625    8.0444    0.0000 H   0  0  0  0  0  0  0  0  0  0  0  0
    0.6657    8.5781    0.0000 H   0  0  0  0  0  0  0  0  0  0  0  0
    1.5893    7.2160    0.0000 H   0  0  0  0  0  0  0  0  0  0  0  0
    0.6579    3.9450    0.0000 H   0  0  0  0  0  0  0  0  0  0  0  0
    1.5859    4.4776    0.0000 H   0  0  0  0  0  0  0  0  0  0  0  0
    1.3812    4.3632    0.0000 H   0  0  0  0  0  0  0  0  0  0  0  0
   -2.4391    6.7834    0.0000 H   0  0  0  0  0  0  0  0  0  0  0  0
   -1.5181    7.3233    0.0000 H   0  0  0  0  0  0  0  0  0  0  0  0
   -0.5824    5.9672    0.0000 H   0  0  0  0  0  0  0  0  0  0  0  0
   -0.7915    7.7116    0.0000 H   0  0  0  0  0  0  0  0  0  0  0  0
   -1.3078    4.7104    0.0000 H   0  0  0  0  0  0  0  0  0  0  0  0
   -1.4972    2.6902    0.0000 H   0  0  0  0  0  0  0  0  0  0  0  0
   -0.5749    3.2267    0.0000 H   0  0  0  0  0  0  0  0  0  0  0  0
    0.1361    3.6339    0.0000 H   0  0  0  0  0  0  0  0  0  0  0  0
    0.1375    4.7040    0.0000 H   0  0  0  0  0  0  0  0  0  0  0  0
   -4.6066    5.5248    0.0000 H   0  0  0  0  0  0  0  0  0  0  0  0
   -3.6901    6.0685    0.0000 H   0  0  0  0  0  0  0  0  0  0  0  0
   -2.7500    4.7082    0.0000 H   0  0  0  0  0  0  0  0  0  0  0  0
   -2.9546    6.5032    0.0000 H   0  0  0  0  0  0  0  0  0  0  0  0
   -2.0227    5.9601    0.0000 H   0  0  0  0  0  0  0  0  0  0  0  0
   -4.6093    3.8999    0.0000 H   0  0  0  0  0  0  0  0  0  0  0  0
   -3.7084    2.2802    0.0000 H   0  0  0  0  0  0  0  0  0  0  0  0
   -4.6264    2.8300    0.0000 H   0  0  0  0  0  0  0  0  0  0  0  0
   -1.3738    3.5865    0.0000 H   0  0  0  0  0  0  0  0  0  0  0  0
   -1.4762    2.5788    0.0000 H   0  0  0  0  0  0  0  0  0  0  0  0
   -3.2154    1.8726    0.0000 H   0  0  0  0  0  0  0  0  0  0  0  0
   -1.3048    6.3781    0.0000 H   0  0  0  0  0  0  0  0  0  0  0  0
   -3.1580    6.3781    0.0000 H   0  0  0  0  0  0  0  0  0  0  0  0
   -2.2314    6.9131    0.0000 H   0  0  0  0  0  0  0  0  0  0  0  0
    0.1255    6.3866    0.0000 H   0  0  0  0  0  0  0  0  0  0  0  0
   -1.7277    6.3700    0.0000 H   0  0  0  0  0  0  0  0  0  0  0  0
   -0.8059    6.9133    0.0000 H   0  0  0  0  0  0  0  0  0  0  0  0
   -0.9969    4.0606    0.0000 H   0  0  0  0  0  0  0  0  0  0  0  0
    0.8563    4.0468    0.0000 H   0  0  0  0  0  0  0  0  0  0  0  0
   -0.0743    3.5187    0.0000 H   0  0  0  0  0  0  0  0  0  0  0  0
    2.0945    4.0368    0.0000 H   0  0  0  0  0  0  0  0  0  0  0  0
    1.7037    4.6754    0.0000 H   0  0  0  0  0  0  0  0  0  0  0  0
    2.6859    4.8013    0.0000 H   0  0  0  0  0  0  0  0  0  0  0  0
    3.1907    4.8392    0.0000 H   0  0  0  0  0  0  0  0  0  0  0  0
    0.6471    9.4144    0.0000 H   0  0  0  0  0  0  0  0  0  0  0  0
   -0.2672    7.8023    0.0000 H   0  0  0  0  0  0  0  0  0  0  0  0
   -0.2754    8.8723    0.0000 H   0  0  0  0  0  0  0  0  0  0  0  0
    3.0128    8.2615    0.0000 H   0  0  0  0  0  0  0  0  0  0  0  0
    1.6853    9.5547    0.0000 H   0  0  0  0  0  0  0  0  0  0  0  0
    2.7224    9.2913    0.0000 H   0  0  0  0  0  0  0  0  0  0  0  0
    5.2570    5.6938    0.0000 H   0  0  0  0  0  0  0  0  0  0  0  0
    4.3023    7.2822    0.0000 H   0  0  0  0  0  0  0  0  0  0  0  0
    5.2382    6.7636    0.0000 H   0  0  0  0  0  0  0  0  0  0  0  0
   -6.5768    7.6084    0.0000 H   0  0  0  0  0  0  0  0  0  0  0  0
   -8.0100    4.2216    0.0000 H   0  0  0  0  0  0  0  0  0  0  0  0
   -8.0916    2.9090    0.0000 H   0  0  0  0  0  0  0  0  0  0  0  0
  -10.0756    2.5035    0.0000 H   0  0  0  0  0  0  0  0  0  0  0  0
  -11.4988    4.2917    0.0000 H   0  0  0  0  0  0  0  0  0  0  0  0
  -10.5892    6.5253    0.0000 H   0  0  0  0  0  0  0  0  0  0  0  0
  -11.5271    6.0875    0.0000 H   0  0  0  0  0  0  0  0  0  0  0  0
  -12.1623    5.7624    0.0000 H   0  0  0  0  0  0  0  0  0  0  0  0
   -5.8451   -0.1459    0.0000 H   0  0  0  0  0  0  0  0  0  0  0  0
   -8.1439   -0.4736    0.0000 H   0  0  0  0  0  0  0  0  0  0  0  0
   -9.5832    1.3229    0.0000 H   0  0  0  0  0  0  0  0  0  0  0  0
   -8.5453    3.5008    0.0000 H   0  0  0  0  0  0  0  0  0  0  0  0
   -9.4917    3.0029    0.0000 H   0  0  0  0  0  0  0  0  0  0  0  0
  -10.0631    2.6057    0.0000 H   0  0  0  0  0  0  0  0  0  0  0  0
  1  6  1  0  0  0  0
  1 80  1  0  0  0  0
  1  2  1  0  0  0  0
  1165  1  6  0  0  0
  2 79  1  0  0  0  0
  2  3  1  0  0  0  0
  2166  1  1  0  0  0
  3 78  1  0  0  0  0
  3  4  1  0  0  0  0
  3167  1  6  0  0  0
  4 77  1  0  0  0  0
  4  5  1  0  0  0  0
  4168  1  1  0  0  0
  5 82  1  6  0  0  0
  5  6  1  0  0  0  0
  7 75  1  0  0  0  0
  7 12  1  0  0  0  0
  7  8  1  0  0  0  0
  7169  1  6  0  0  0
  8 74  1  0  0  0  0
  8  9  1  0  0  0  0
  8170  1  1  0  0  0
  9 73  1  0  0  0  0
  9 10  1  0  0  0  0
  9171  1  6  0  0  0
 10 72  1  0  0  0  0
 10 11  1  0  0  0  0
 10172  1  1  0  0  0
 11 71  1  6  0  0  0
 11 12  1  0  0  0  0
 13 14  1  0  0  0  0
 13 65  1  0  0  0  0
 13 18  1  0  0  0  0
 13173  1  6  0  0  0
 14 70  1  0  0  0  0
 14 15  1  0  0  0  0
 14174  1  1  0  0  0
 15 16  1  0  0  0  0
 15 69  1  0  0  0  0
 15175  1  6  0  0  0
 16 17  1  0  0  0  0
 16 68  1  0  0  0  0
 16176  1  1  0  0  0
 17 18  1  0  0  0  0
 17 19  1  0  0  0  0
 17 64  1  6  0  0  0
 20 21  1  0  0  0  0
 21 22  2  0  0  0  0
 21 23  1  0  0  0  0
 23 24  2  0  0  0  0
 23 26  1  0  0  0  0
 24 25  1  0  0  0  0
 24177  1  0  0  0  0
 25178  1  0  0  0  0
 25179  1  0  0  0  0
 25180  1  0  0  0  0
 26181  1  0  0  0  0
 26182  1  0  0  0  0
 26183  1  0  0  0  0
 27 35  1  0  0  0  0
 27 28  1  0  0  0  0
 27 20  1  0  0  0  0
 27184  1  6  0  0  0
 28 29  1  0  0  0  0
 28185  1  1  0  0  0
 29 30  1  0  0  0  0
 30 31  2  0  0  0  0
 30 63  1  0  0  0  0
 32 33  1  0  0  0  0
 32 35  1  0  0  0  0
 32186  1  0  0  0  0
 32187  1  0  0  0  0
 33 34  1  0  0  0  0
 33188  1  0  0  0  0
 34 28  1  0  0  0  0
 34 59  1  1  0  0  0
 35 61  1  0  0  0  0
 35 62  1  0  0  0  0
 36 37  1  0  0  0  0
 36 33  1  0  0  0  0
 36 43  2  0  0  0  0
 37 38  1  0  0  0  0
 37 57  1  6  0  0  0
 38 39  1  0  0  0  0
 38189  1  0  0  0  0
 38190  1  0  0  0  0
 39 34  1  0  0  0  0
 39 58  1  0  0  0  0
 39191  1  1  0  0  0
 40 41  1  0  0  0  0
 40 43  1  0  0  0  0
 40192  1  0  0  0  0
 40193  1  0  0  0  0
 41 42  1  0  0  0  0
 41194  1  0  0  0  0
 42 37  1  0  0  0  0
 42 56  1  1  0  0  0
 43195  1  0  0  0  0
 44 45  1  0  0  0  0
 44 41  1  0  0  0  0
 44 51  1  0  0  0  0
 44 55  1  1  0  0  0
 45 46  1  0  0  0  0
 45196  1  0  0  0  0
 46 47  1  0  0  0  0
 46197  1  0  0  0  0
 46198  1  0  0  0  0
 47 42  1  0  0  0  0
 47199  1  0  0  0  0
 47200  1  0  0  0  0
 48 49  1  0  0  0  0
 48 51  1  0  0  0  0
 48201  1  0  0  0  0
 48202  1  0  0  0  0
 49 50  1  0  0  0  0
 49 19  1  0  0  0  0
 49203  1  0  0  0  0
 50 45  1  0  0  0  0
 50 52  1  6  0  0  0
 50 53  1  0  0  0  0
 51204  1  0  0  0  0
 51205  1  0  0  0  0
 52206  1  0  0  0  0
 52207  1  0  0  0  0
 52208  1  0  0  0  0
 53 54  1  0  0  0  0
 53209  1  0  0  0  0
 53210  1  0  0  0  0
 54211  1  0  0  0  0
 55212  1  0  0  0  0
 55213  1  0  0  0  0
 55214  1  0  0  0  0
 56215  1  0  0  0  0
 56216  1  0  0  0  0
 56217  1  0  0  0  0
 57218  1  0  0  0  0
 57219  1  0  0  0  0
 57220  1  0  0  0  0
 58221  1  0  0  0  0
 59 60  1  0  0  0  0
 59222  1  0  0  0  0
 59223  1  0  0  0  0
 60224  1  0  0  0  0
 61225  1  0  0  0  0
 61226  1  0  0  0  0
 61227  1  0  0  0  0
 62228  1  0  0  0  0
 62229  1  0  0  0  0
 62230  1  0  0  0  0
 63231  1  0  0  0  0
 63232  1  0  0  0  0
 63233  1  0  0  0  0
 65 66  1  0  0  0  0
 65 67  2  0  0  0  0
 66234  1  0  0  0  0
 68  5  1  0  0  0  0
 69235  1  0  0  0  0
 70 11  1  0  0  0  0
 72236  1  0  0  0  0
 73237  1  0  0  0  0
 74238  1  0  0  0  0
 75 76  1  0  0  0  0
 75239  1  0  0  0  0
 75240  1  0  0  0  0
 76241  1  0  0  0  0
 77242  1  0  0  0  0
 78243  1  0  0  0  0
 79244  1  0  0  0  0
 80 81  1  0  0  0  0
 80245  1  0  0  0  0
 80246  1  0  0  0  0
 81247  1  0  0  0  0
 83 84  1  0  0  0  0
 83 88  1  0  0  0  0
 83162  1  0  0  0  0
 83248  1  6  0  0  0
 84 85  1  0  0  0  0
 84161  1  0  0  0  0
 84249  1  1  0  0  0
 85 86  1  0  0  0  0
 85160  1  0  0  0  0
 85250  1  6  0  0  0
 86 87  1  0  0  0  0
 86159  1  0  0  0  0
 86251  1  1  0  0  0
 87 88  1  0  0  0  0
 87164  1  6  0  0  0
 89 90  1  0  0  0  0
 89 94  1  0  0  0  0
 89157  1  0  0  0  0
 89252  1  6  0  0  0
 90 91  1  0  0  0  0
 90156  1  0  0  0  0
 90253  1  1  0  0  0
 91 92  1  0  0  0  0
 91155  1  0  0  0  0
 91254  1  6  0  0  0
 92 93  1  0  0  0  0
 92154  1  0  0  0  0
 92255  1  1  0  0  0
 93 94  1  0  0  0  0
 93153  1  6  0  0  0
 95 96  1  0  0  0  0
 95100  1  0  0  0  0
 95147  1  0  0  0  0
 95256  1  6  0  0  0
 96 97  1  0  0  0  0
 96152  1  0  0  0  0
 96257  1  1  0  0  0
 97 98  1  0  0  0  0
 97151  1  0  0  0  0
 97258  1  6  0  0  0
 98 99  1  0  0  0  0
 98150  1  0  0  0  0
 98259  1  1  0  0  0
 99100  1  0  0  0  0
 99101  1  0  0  0  0
 99146  1  6  0  0  0
102103  1  0  0  0  0
103104  2  0  0  0  0
103105  1  0  0  0  0
105106  2  0  0  0  0
105108  1  0  0  0  0
106107  1  0  0  0  0
106260  1  0  0  0  0
107261  1  0  0  0  0
107262  1  0  0  0  0
107263  1  0  0  0  0
108264  1  0  0  0  0
108265  1  0  0  0  0
108266  1  0  0  0  0
109110  1  0  0  0  0
109102  1  0  0  0  0
109117  1  0  0  0  0
109267  1  6  0  0  0
110111  1  0  0  0  0
110268  1  1  0  0  0
111112  1  0  0  0  0
112113  2  0  0  0  0
112145  1  0  0  0  0
114115  1  0  0  0  0
114117  1  0  0  0  0
114269  1  0  0  0  0
114270  1  0  0  0  0
115116  1  0  0  0  0
115271  1  0  0  0  0
116110  1  0  0  0  0
116141  1  1  0  0  0
117143  1  0  0  0  0
117144  1  0  0  0  0
118119  1  0  0  0  0
118115  1  0  0  0  0
118125  2  0  0  0  0
119120  1  0  0  0  0
119139  1  6  0  0  0
120121  1  0  0  0  0
120272  1  0  0  0  0
120273  1  0  0  0  0
121116  1  0  0  0  0
121140  1  0  0  0  0
121274  1  1  0  0  0
122123  1  0  0  0  0
122125  1  0  0  0  0
122275  1  0  0  0  0
122276  1  0  0  0  0
123124  1  0  0  0  0
123277  1  0  0  0  0
124119  1  0  0  0  0
124138  1  1  0  0  0
125278  1  0  0  0  0
126127  1  0  0  0  0
126123  1  0  0  0  0
126133  1  0  0  0  0
126137  1  1  0  0  0
127128  1  0  0  0  0
127279  1  0  0  0  0
128129  1  0  0  0  0
128280  1  0  0  0  0
128281  1  0  0  0  0
129124  1  0  0  0  0
129282  1  0  0  0  0
129283  1  0  0  0  0
130131  1  0  0  0  0
130133  1  0  0  0  0
130284  1  0  0  0  0
130285  1  0  0  0  0
131132  1  0  0  0  0
131101  1  0  0  0  0
131286  1  0  0  0  0
132127  1  0  0  0  0
132134  1  6  0  0  0
132135  1  0  0  0  0
133287  1  0  0  0  0
133288  1  0  0  0  0
134289  1  0  0  0  0
134290  1  0  0  0  0
134291  1  0  0  0  0
135136  1  0  0  0  0
135292  1  0  0  0  0
135293  1  0  0  0  0
136294  1  0  0  0  0
137295  1  0  0  0  0
137296  1  0  0  0  0
137297  1  0  0  0  0
138298  1  0  0  0  0
138299  1  0  0  0  0
138300  1  0  0  0  0
139301  1  0  0  0  0
139302  1  0  0  0  0
139303  1  0  0  0  0
140304  1  0  0  0  0
141142  1  0  0  0  0
141305  1  0  0  0  0
141306  1  0  0  0  0
142307  1  0  0  0  0
143308  1  0  0  0  0
143309  1  0  0  0  0
143310  1  0  0  0  0
144311  1  0  0  0  0
144312  1  0  0  0  0
144313  1  0  0  0  0
145314  1  0  0  0  0
145315  1  0  0  0  0
145316  1  0  0  0  0
147148  1  0  0  0  0
147149  2  0  0  0  0
148317  1  0  0  0  0
150 87  1  0  0  0  0
151318  1  0  0  0  0
152 93  1  0  0  0  0
154319  1  0  0  0  0
155320  1  0  0  0  0
156321  1  0  0  0  0
157158  1  0  0  0  0
157322  1  0  0  0  0
157323  1  0  0  0  0
158324  1  0  0  0  0
159325  1  0  0  0  0
160326  1  0  0  0  0
161327  1  0  0  0  0
162163  1  0  0  0  0
162328  1  0  0  0  0
162329  1  0  0  0  0
163330  1  0  0  0  0
M  END
>  <DRUGBANK_ID>
DB15907

>  <COMMON_NAME>
Escin

>  <CAS_NUMBER>
6805-41-0

>  <UNII>
RUU8G67GQM

>  <SYNONYMS>
Aescin

$$$$
