
 OpenBabel10282417072D

 58 60  0  0  1  0  0  0  0  0999 V2000
    1.4289   -0.8250    0.0000 C   0  0  0  0  0  0  0  0  0  0  0  0
    2.1434   -1.2375    0.0000 O   0  0  0  0  0  0  0  0  0  0  0  0
    2.1434   -2.0625    0.0000 C   0  0  0  0  0  0  0  0  0  0  0  0
    2.8579   -2.4750    0.0000 C   0  0  0  0  0  0  0  0  0  0  0  0
    3.5724   -2.0625    0.0000 O   0  0  0  0  0  0  0  0  0  0  0  0
    4.2868   -2.4750    0.0000 C   0  0  0  0  0  0  0  0  0  0  0  0
    5.0013   -2.0625    0.0000 C   0  0  0  0  0  0  0  0  0  0  0  0
    5.7158   -2.4750    0.0000 C   0  0  0  0  0  0  0  0  0  0  0  0
    6.4302   -2.0625    0.0000 F   0  0  0  0  0  0  0  0  0  0  0  0
    2.8579   -3.3000    0.0000 C   0  0  0  0  0  0  0  0  0  0  0  0
    2.1434   -3.7125    0.0000 C   0  0  0  0  0  0  0  0  0  0  0  0
    2.1434   -4.5375    0.0000 C   0  0  0  0  0  0  0  0  0  0  0  0
    1.4289   -4.9500    0.0000 C   0  0  0  0  0  0  0  0  0  0  0  0
    0.7145   -4.5375    0.0000 N   0  0  3  0  0  0  0  0  0  0  0  0
    0.0000   -4.9500    0.0000 C   0  0  0  0  0  0  0  0  0  0  0  0
   -0.7145   -4.5375    0.0000 C   0  0  1  0  0  0  0  0  0  0  0  0
   -1.4289   -4.9500    0.0000 C   0  0  0  0  0  0  0  0  0  0  0  0
   -2.1434   -4.5375    0.0000 C   0  0  0  0  0  0  0  0  0  0  0  0
   -2.8579   -4.9500    0.0000 C   0  0  0  0  0  0  0  0  0  0  0  0
   -2.1434   -3.7125    0.0000 C   0  0  0  0  0  0  0  0  0  0  0  0
   -0.7145   -3.7125    0.0000 C   0  0  2  0  0  0  0  0  0  0  0  0
   -1.4289   -3.3000    0.0000 O   0  0  0  0  0  0  0  0  0  0  0  0
    0.0000   -3.3000    0.0000 C   0  0  0  0  0  0  0  0  0  0  0  0
    0.7145   -3.7125    0.0000 C   0  0  2  0  0  0  0  0  0  0  0  0
    1.4289   -3.3000    0.0000 C   0  0  0  0  0  0  0  0  0  0  0  0
    1.4289   -2.4750    0.0000 C   0  0  0  0  0  0  0  0  0  0  0  0
    1.4289    0.2450    0.0000 H   0  0  0  0  0  0  0  0  0  0  0  0
    0.5023   -1.3600    0.0000 H   0  0  0  0  0  0  0  0  0  0  0  0
    0.5022   -0.2900    0.0000 H   0  0  0  0  0  0  0  0  0  0  0  0
    4.2868   -3.5450    0.0000 H   0  0  0  0  0  0  0  0  0  0  0  0
    5.2134   -3.0100    0.0000 H   0  0  0  0  0  0  0  0  0  0  0  0
    5.0013   -0.9925    0.0000 H   0  0  0  0  0  0  0  0  0  0  0  0
    5.9279   -1.5275    0.0000 H   0  0  0  0  0  0  0  0  0  0  0  0
    5.7158   -3.5450    0.0000 H   0  0  0  0  0  0  0  0  0  0  0  0
    6.6425   -3.0100    0.0000 H   0  0  0  0  0  0  0  0  0  0  0  0
    3.7516   -3.8160    0.0000 H   0  0  0  0  0  0  0  0  0  0  0  0
    3.0700   -5.0725    0.0000 H   0  0  0  0  0  0  0  0  0  0  0  0
    2.1434   -5.6075    0.0000 H   0  0  0  0  0  0  0  0  0  0  0  0
    1.4289   -6.0200    0.0000 H   0  0  0  0  0  0  0  0  0  0  0  0
    0.5022   -5.4850    0.0000 H   0  0  0  0  0  0  0  0  0  0  0  0
    0.0000   -6.0200    0.0000 H   0  0  0  0  0  0  0  0  0  0  0  0
   -0.9266   -5.4850    0.0000 H   0  0  0  0  0  0  0  0  0  0  0  0
   -0.7145   -5.6075    0.0000 H   0  0  0  0  0  0  0  0  0  0  0  0
   -1.4289   -6.0200    0.0000 H   0  0  0  0  0  0  0  0  0  0  0  0
   -2.3555   -5.4850    0.0000 H   0  0  0  0  0  0  0  0  0  0  0  0
   -3.0700   -4.0025    0.0000 H   0  0  0  0  0  0  0  0  0  0  0  0
   -3.7845   -4.4150    0.0000 H   0  0  0  0  0  0  0  0  0  0  0  0
   -2.8579   -6.0200    0.0000 H   0  0  0  0  0  0  0  0  0  0  0  0
   -3.7846   -5.4850    0.0000 H   0  0  0  0  0  0  0  0  0  0  0  0
   -1.2168   -3.1775    0.0000 H   0  0  0  0  0  0  0  0  0  0  0  0
   -3.0700   -3.1775    0.0000 H   0  0  0  0  0  0  0  0  0  0  0  0
   -2.1434   -2.6425    0.0000 H   0  0  0  0  0  0  0  0  0  0  0  0
   -1.6412   -4.2475    0.0000 H   0  0  0  0  0  0  0  0  0  0  0  0
   -1.4289   -2.3300    0.0000 H   0  0  0  0  0  0  0  0  0  0  0  0
    0.0000   -2.2300    0.0000 H   0  0  0  0  0  0  0  0  0  0  0  0
    0.9266   -2.7650    0.0000 H   0  0  0  0  0  0  0  0  0  0  0  0
   -0.2121   -4.2475    0.0000 H   0  0  0  0  0  0  0  0  0  0  0  0
    0.5352   -1.9590    0.0000 H   0  0  0  0  0  0  0  0  0  0  0  0
  1  2  1  0  0  0  0
  1 27  1  0  0  0  0
  1 28  1  0  0  0  0
  1 29  1  0  0  0  0
  2  3  1  0  0  0  0
  3  4  2  0  0  0  0
  3 26  1  0  0  0  0
  4  5  1  0  0  0  0
  4 10  1  0  0  0  0
  5  6  1  0  0  0  0
  6  7  1  0  0  0  0
  6 30  1  0  0  0  0
  6 31  1  0  0  0  0
  7  8  1  0  0  0  0
  7 32  1  0  0  0  0
  7 33  1  0  0  0  0
  8  9  1  0  0  0  0
  8 34  1  0  0  0  0
  8 35  1  0  0  0  0
 10 11  2  0  0  0  0
 10 36  1  0  0  0  0
 11 12  1  0  0  0  0
 11 25  1  0  0  0  0
 12 13  1  0  0  0  0
 12 37  1  0  0  0  0
 12 38  1  0  0  0  0
 13 14  1  0  0  0  0
 13 39  1  0  0  0  0
 13 40  1  0  0  0  0
 14 15  1  0  0  0  0
 15 41  1  0  0  0  0
 15 42  1  0  0  0  0
 16 15  1  0  0  0  0
 16 17  1  0  0  0  0
 16 21  1  0  0  0  0
 16 43  1  6  0  0  0
 17 18  1  0  0  0  0
 17 44  1  0  0  0  0
 17 45  1  0  0  0  0
 18 19  1  0  0  0  0
 18 20  1  0  0  0  0
 18 46  1  0  0  0  0
 19 47  1  0  0  0  0
 19 48  1  0  0  0  0
 19 49  1  0  0  0  0
 20 50  1  0  0  0  0
 20 51  1  0  0  0  0
 20 52  1  0  0  0  0
 21 22  1  0  0  0  0
 21 23  1  0  0  0  0
 21 53  1  1  0  0  0
 22 54  1  0  0  0  0
 23 55  1  0  0  0  0
 23 56  1  0  0  0  0
 24 23  1  0  0  0  0
 24 14  1  0  0  0  0
 24 25  1  0  0  0  0
 24 57  1  1  0  0  0
 25 26  2  0  0  0  0
 26 58  1  0  0  0  0
M  ISO  1   9  18
M  END
>  <DRUGBANK_ID>
DB14945

>  <COMMON_NAME>
Florbenazine F-18

>  <CAS_NUMBER>
956903-29-0

>  <UNII>
KM31LBX59H

>  <SYNONYMS>
18F-AV-133

$$$$
