
 OpenBabel10282417072D

 14 14  0  0  0  0  0  0  0  0999 V2000
   -0.3938    1.4191    0.0000 N   0  0  0  0  0  0  0  0  0  0  0  0
    0.2382    0.8888    0.0000 C   0  0  0  0  0  0  0  0  0  0  0  0
    0.6507    0.1743    0.0000 C   0  0  0  0  0  0  0  0  0  0  0  0
   -0.1743    0.1743    0.0000 C   0  0  0  0  0  0  0  0  0  0  0  0
    0.8701    1.4191    0.0000 C   0  0  0  0  0  0  0  0  0  0  0  0
    0.7269    2.2316    0.0000 O   0  0  0  0  0  0  0  0  0  0  0  0
    1.6454    1.1369    0.0000 O   0  0  0  0  0  0  0  0  0  0  0  0
   -0.2167    2.4236    0.0000 H   0  0  0  0  0  0  0  0  0  0  0  0
   -1.3523    1.0702    0.0000 H   0  0  0  0  0  0  0  0  0  0  0  0
    1.5773   -0.3607    0.0000 H   0  0  0  0  0  0  0  0  0  0  0  0
    0.3738   -0.8592    0.0000 H   0  0  0  0  0  0  0  0  0  0  0  0
   -1.1009   -0.3607    0.0000 H   0  0  0  0  0  0  0  0  0  0  0  0
   -0.9309    0.9309    0.0000 H   0  0  0  0  0  0  0  0  0  0  0  0
    1.4447    2.8338    0.0000 H   0  0  0  0  0  0  0  0  0  0  0  0
  1  2  1  0  0  0  0
  1  8  1  0  0  0  0
  1  9  1  0  0  0  0
  2  3  1  0  0  0  0
  2  4  1  0  0  0  0
  2  5  1  0  0  0  0
  3  4  1  0  0  0  0
  3 10  1  0  0  0  0
  3 11  1  0  0  0  0
  4 12  1  0  0  0  0
  4 13  1  0  0  0  0
  5  6  1  0  0  0  0
  5  7  2  0  0  0  0
  6 14  1  0  0  0  0
M  END
>  <DRUGBANK_ID>
DB02085

>  <SECONDARY_ACCESSION_NUMBERS>
EXPT00065

>  <COMMON_NAME>
1-Aminocyclopropanecarboxylic Acid

>  <CAS_NUMBER>
22059-21-8

>  <UNII>
3K9EJ633GL

$$$$
