
 OpenBabel10282417072D

 61 63  0  0  0  0  0  0  0  0999 V2000
    1.4289   -2.6813    0.0000 Cl  0  0  0  0  0  0  0  0  0  0  0  0
   -3.2704   -1.7457    0.0000 F   0  0  0  0  0  0  0  0  0  0  0  0
   -2.4454   -0.3168    0.0000 F   0  0  0  0  0  0  0  0  0  0  0  0
    0.0000   -0.2062    0.0000 O   0  0  0  0  0  0  0  0  0  0  0  0
    3.5724    2.6813    0.0000 N   0  0  0  0  0  0  0  0  0  0  0  0
    2.1434    0.2062    0.0000 N   0  0  0  0  0  0  0  0  0  0  0  0
    5.0014    2.6813    0.0000 N   0  0  0  0  0  0  0  0  0  0  0  0
    0.7144   -1.4437    0.0000 N   0  0  0  0  0  0  0  0  0  0  0  0
   -1.4290   -1.0312    0.0000 N   0  0  0  0  0  0  0  0  0  0  0  0
   -0.7144   -2.2687    0.0000 N   0  0  0  0  0  0  0  0  0  0  0  0
   -4.2869   -1.0312    0.0000 N   0  0  0  0  0  0  0  0  0  0  0  0
    2.8579    1.4437    0.0000 C   0  0  3  0  0  0  0  0  0  0  0  0
    2.8579    2.2687    0.0000 C   0  0  3  0  0  0  0  0  0  0  0  0
    3.5724    1.0312    0.0000 C   0  0  0  0  0  0  0  0  0  0  0  0
    4.2868    1.4437    0.0000 C   0  0  0  0  0  0  0  0  0  0  0  0
    4.2868    2.2687    0.0000 C   0  0  1  0  0  0  0  0  0  0  0  0
    2.1434    1.0312    0.0000 C   0  0  0  0  0  0  0  0  0  0  0  0
    2.1434    2.6813    0.0000 C   0  0  0  0  0  0  0  0  0  0  0  0
    1.4289   -0.2062    0.0000 C   0  0  0  0  0  0  0  0  0  0  0  0
    1.4289   -1.0312    0.0000 C   0  0  0  0  0  0  0  0  0  0  0  0
    0.0000   -1.0312    0.0000 C   0  0  3  0  0  0  0  0  0  0  0  0
    0.7144   -2.2687    0.0000 C   0  0  0  0  0  0  0  0  0  0  0  0
   -0.7144   -1.4437    0.0000 C   0  0  0  0  0  0  0  0  0  0  0  0
    0.0000   -2.6813    0.0000 C   0  0  0  0  0  0  0  0  0  0  0  0
   -2.1434   -1.4437    0.0000 C   0  0  0  0  0  0  0  0  0  0  0  0
   -2.8579   -1.0312    0.0000 C   0  0  0  0  0  0  0  0  0  0  0  0
   -3.5724   -0.6187    0.0000 C   0  0  0  0  0  0  0  0  0  0  0  0
   -3.5724    0.2062    0.0000 C   0  0  0  0  0  0  0  0  0  0  0  0
   -4.2869    0.6187    0.0000 C   0  0  0  0  0  0  0  0  0  0  0  0
   -5.0014   -0.6187    0.0000 C   0  0  0  0  0  0  0  0  0  0  0  0
   -5.0014    0.2062    0.0000 C   0  0  0  0  0  0  0  0  0  0  0  0
    0.8400    0.2788    0.0000 H   0  0  0  0  0  0  0  0  0  0  0  0
    3.5724    3.7013    0.0000 H   0  0  0  0  0  0  0  0  0  0  0  0
    3.0267   -0.3039    0.0000 H   0  0  0  0  0  0  0  0  0  0  0  0
    5.8848    2.1713    0.0000 H   0  0  0  0  0  0  0  0  0  0  0  0
    5.0014    3.7013    0.0000 H   0  0  0  0  0  0  0  0  0  0  0  0
   -1.4291   -0.0467    0.0000 H   0  0  0  0  0  0  0  0  0  0  0  0
    3.7845    1.9787    0.0000 H   0  0  0  0  0  0  0  0  0  0  0  0
    3.7846    1.7337    0.0000 H   0  0  0  0  0  0  0  0  0  0  0  0
    3.5724   -0.0388    0.0000 H   0  0  0  0  0  0  0  0  0  0  0  0
    4.4991    0.4962    0.0000 H   0  0  0  0  0  0  0  0  0  0  0  0
    5.2135    0.9087    0.0000 H   0  0  0  0  0  0  0  0  0  0  0  0
    5.2134    1.9787    0.0000 H   0  0  0  0  0  0  0  0  0  0  0  0
    4.2869    3.3387    0.0000 H   0  0  0  0  0  0  0  0  0  0  0  0
    1.2168    1.5662    0.0000 H   0  0  0  0  0  0  0  0  0  0  0  0
    2.1434    2.1012    0.0000 H   0  0  0  0  0  0  0  0  0  0  0  0
    2.1435    3.7513    0.0000 H   0  0  0  0  0  0  0  0  0  0  0  0
    1.2167    2.1464    0.0000 H   0  0  0  0  0  0  0  0  0  0  0  0
    1.2168    3.2164    0.0000 H   0  0  0  0  0  0  0  0  0  0  0  0
    0.5023    0.3289    0.0000 H   0  0  0  0  0  0  0  0  0  0  0  0
    0.5022   -0.7412    0.0000 H   0  0  0  0  0  0  0  0  0  0  0  0
    2.3555   -1.5662    0.0000 H   0  0  0  0  0  0  0  0  0  0  0  0
    2.3555   -0.4962    0.0000 H   0  0  0  0  0  0  0  0  0  0  0  0
    0.9267   -0.4962    0.0000 H   0  0  0  0  0  0  0  0  0  0  0  0
    0.0000   -3.7133    0.0000 H   0  0  0  0  0  0  0  0  0  0  0  0
   -2.1434   -2.5137    0.0000 H   0  0  0  0  0  0  0  0  0  0  0  0
   -3.0700   -1.9787    0.0000 H   0  0  0  0  0  0  0  0  0  0  0  0
   -2.6787    0.7222    0.0000 H   0  0  0  0  0  0  0  0  0  0  0  0
   -4.2869    1.6507    0.0000 H   0  0  0  0  0  0  0  0  0  0  0  0
   -5.8951   -1.1347    0.0000 H   0  0  0  0  0  0  0  0  0  0  0  0
   -5.8951    0.7222    0.0000 H   0  0  0  0  0  0  0  0  0  0  0  0
  1 22  1  0  0  0  0
  2 26  1  0  0  0  0
  3 26  1  0  0  0  0
  4 21  1  0  0  0  0
  4 32  1  0  0  0  0
  5 13  1  0  0  0  0
  5 16  1  0  0  0  0
  5 33  1  0  0  0  0
  6 17  1  0  0  0  0
  6 19  1  0  0  0  0
  6 34  1  0  0  0  0
  7 35  1  0  0  0  0
  7 36  1  0  0  0  0
  8 20  1  0  0  0  0
  8 21  1  0  0  0  0
  8 22  1  0  0  0  0
  9 23  1  0  0  0  0
  9 25  1  0  0  0  0
  9 37  1  0  0  0  0
 10 23  2  0  0  0  0
 10 24  1  0  0  0  0
 11 27  1  0  0  0  0
 11 30  2  0  0  0  0
 12 13  1  0  0  0  0
 12 14  1  0  0  0  0
 12 17  1  0  0  0  0
 12 38  1  0  0  0  0
 13 18  1  0  0  0  0
 13 39  1  0  0  0  0
 14 15  1  0  0  0  0
 14 40  1  0  0  0  0
 14 41  1  0  0  0  0
 15 16  1  0  0  0  0
 15 42  1  0  0  0  0
 15 43  1  0  0  0  0
 16  7  1  0  0  0  0
 16 44  1  6  0  0  0
 17 45  1  0  0  0  0
 17 46  1  0  0  0  0
 18 47  1  0  0  0  0
 18 48  1  0  0  0  0
 18 49  1  0  0  0  0
 19 20  1  0  0  0  0
 19 50  1  0  0  0  0
 19 51  1  0  0  0  0
 20 52  1  0  0  0  0
 20 53  1  0  0  0  0
 21 23  1  0  0  0  0
 21 54  1  0  0  0  0
 22 24  2  0  0  0  0
 24 55  1  0  0  0  0
 25 26  1  0  0  0  0
 25 56  1  0  0  0  0
 25 57  1  0  0  0  0
 26 27  1  0  0  0  0
 27 28  2  0  0  0  0
 28 29  1  0  0  0  0
 28 58  1  0  0  0  0
 29 31  2  0  0  0  0
 29 59  1  0  0  0  0
 30 31  1  0  0  0  0
 30 60  1  0  0  0  0
 31 61  1  0  0  0  0
M  END
>  <DRUGBANK_ID>
DB07515

>  <COMMON_NAME>
1-(2-{[(6-amino-2-methylpyridin-3-yl)methyl]amino}ethyl)-6-chloro-3-[(2,2-difluoro-2-pyridin-2-ylethyl)amino]-1,4-dihydropyrazin-2-ol

$$$$
