
 OpenBabel10282417072D

 26 27  0  0  0  0  0  0  0  0999 V2000
    0.5617   -0.7312    0.0000 N   0  0  0  0  0  0  0  0  0  0  0  0
    0.2261   -1.4849    0.0000 C   0  0  0  0  0  0  0  0  0  0  0  0
    0.7110   -2.1523    0.0000 N   0  0  0  0  0  0  0  0  0  0  0  0
    0.0767   -0.0638    0.0000 C   0  0  1  0  0  0  0  0  0  0  0  0
    1.3821   -0.6450    0.0000 C   0  0  0  0  0  0  0  0  0  0  0  0
    0.3317    0.7207    0.0000 O   0  0  0  0  0  0  0  0  0  0  0  0
    1.8671   -1.3124    0.0000 C   0  0  0  0  0  0  0  0  0  0  0  0
    1.5315   -2.0661    0.0000 C   0  0  0  0  0  0  0  0  0  0  0  0
   -1.0031    0.7207    0.0000 O   0  0  0  0  0  0  0  0  0  0  0  0
   -0.3357    1.2056    0.0000 C   0  0  2  0  0  0  0  0  0  0  0  0
   -0.5943   -1.5711    0.0000 O   0  0  0  0  0  0  0  0  0  0  0  0
   -0.7482   -0.0638    0.0000 C   0  0  0  0  0  0  0  0  0  0  0  0
    2.0164   -2.7336    0.0000 N   0  0  0  0  0  0  0  0  0  0  0  0
   -1.0501    2.4431    0.0000 O   0  0  0  0  0  0  0  0  0  0  0  0
   -0.3357    2.0306    0.0000 C   0  0  0  0  0  0  0  0  0  0  0  0
    1.1335    0.1036    0.0000 H   0  0  0  0  0  0  0  0  0  0  0  0
    1.8018    0.2978    0.0000 H   0  0  0  0  0  0  0  0  0  0  0  0
    2.8934   -1.2045    0.0000 H   0  0  0  0  0  0  0  0  0  0  0  0
    0.6177    1.6914    0.0000 H   0  0  0  0  0  0  0  0  0  0  0  0
   -1.3771   -0.9294    0.0000 H   0  0  0  0  0  0  0  0  0  0  0  0
   -0.2624   -1.0172    0.0000 H   0  0  0  0  0  0  0  0  0  0  0  0
    1.6159   -3.6330    0.0000 H   0  0  0  0  0  0  0  0  0  0  0  0
    2.9955   -2.6308    0.0000 H   0  0  0  0  0  0  0  0  0  0  0  0
   -1.0501    3.4131    0.0000 H   0  0  0  0  0  0  0  0  0  0  0  0
    0.5910    2.5656    0.0000 H   0  0  0  0  0  0  0  0  0  0  0  0
    0.5909    1.4956    0.0000 H   0  0  0  0  0  0  0  0  0  0  0  0
  2  1  1  0  0  0  0
  3  2  1  0  0  0  0
  4  1  1  0  0  0  0
  4 16  1  1  0  0  0
  5  1  1  0  0  0  0
  5 17  1  0  0  0  0
  6  4  1  0  0  0  0
  7  5  2  0  0  0  0
  7 18  1  0  0  0  0
  8  7  1  0  0  0  0
  8  3  2  0  0  0  0
  9 12  1  0  0  0  0
 10  6  1  0  0  0  0
 10 15  1  0  0  0  0
 10  9  1  0  0  0  0
 10 19  1  1  0  0  0
 11  2  2  0  0  0  0
 12  4  1  0  0  0  0
 12 20  1  0  0  0  0
 12 21  1  0  0  0  0
 13  8  1  0  0  0  0
 13 22  1  0  0  0  0
 13 23  1  0  0  0  0
 14 15  1  0  0  0  0
 14 24  1  0  0  0  0
 15 25  1  0  0  0  0
 15 26  1  0  0  0  0
M  END
>  <DRUGBANK_ID>
DB04961

>  <COMMON_NAME>
Troxacitabine

>  <CAS_NUMBER>
145918-75-8

>  <UNII>
60KQZ0388Y

>  <SYNONYMS>
(-)-ODDC; Troxacitabina; Troxacitabine; Troxacitabinum

$$$$
