679
 OpenBabel10282417072D

 35 37  0  0  0  0  0  0  0  0999 V2000
   -1.9301    1.5079    0.0000 C   0  0  0  0  0  0  0  0  0  0  0  0
   -1.9301    2.3329    0.0000 C   0  0  0  0  0  0  0  0  0  0  0  0
   -1.2156    2.7454    0.0000 C   0  0  0  0  0  0  0  0  0  0  0  0
   -0.5012    2.3329    0.0000 C   0  0  0  0  0  0  0  0  0  0  0  0
   -0.5012    1.5079    0.0000 C   0  0  0  0  0  0  0  0  0  0  0  0
   -1.2156    1.0954    0.0000 C   0  0  0  0  0  0  0  0  0  0  0  0
    0.2133    2.7454    0.0000 Cl  0  0  0  0  0  0  0  0  0  0  0  0
   -1.2156    0.2704    0.0000 C   0  0  0  0  0  0  0  0  0  0  0  0
   -0.5482   -0.2145    0.0000 C   0  0  0  0  0  0  0  0  0  0  0  0
   -0.8031   -0.9991    0.0000 C   0  0  0  0  0  0  0  0  0  0  0  0
   -1.8831   -0.2145    0.0000 C   0  0  0  0  0  0  0  0  0  0  0  0
   -2.6677    0.0404    0.0000 O   0  0  0  0  0  0  0  0  0  0  0  0
   -0.3182   -1.6666    0.0000 O   0  0  0  0  0  0  0  0  0  0  0  0
   -1.6281   -0.9991    0.0000 N   0  0  0  0  0  0  0  0  0  0  0  0
    0.2364    0.0404    0.0000 N   0  0  0  0  0  0  0  0  0  0  0  0
    0.8495   -0.5116    0.0000 C   0  0  0  0  0  0  0  0  0  0  0  0
    1.6341   -0.2567    0.0000 C   0  0  0  0  0  0  0  0  0  0  0  0
    2.2472   -0.8087    0.0000 C   0  0  0  0  0  0  0  0  0  0  0  0
    2.0757   -1.6157    0.0000 C   0  0  0  0  0  0  0  0  0  0  0  0
    1.2911   -1.8706    0.0000 C   0  0  0  0  0  0  0  0  0  0  0  0
    0.6780   -1.3186    0.0000 C   0  0  0  0  0  0  0  0  0  0  0  0
    2.6888   -2.1677    0.0000 Cl  0  0  0  0  0  0  0  0  0  0  0  0
    1.1195   -2.6776    0.0000 C   0  0  0  0  0  0  0  0  0  0  0  0
    0.3349   -2.9325    0.0000 O   0  0  0  0  0  0  0  0  0  0  0  0
    1.7326   -3.2296    0.0000 O   0  0  0  0  0  0  0  0  0  0  0  0
   -2.8238    0.9919    0.0000 H   0  0  0  0  0  0  0  0  0  0  0  0
   -2.8238    2.8489    0.0000 H   0  0  0  0  0  0  0  0  0  0  0  0
   -1.2156    3.7774    0.0000 H   0  0  0  0  0  0  0  0  0  0  0  0
    0.3925    0.9919    0.0000 H   0  0  0  0  0  0  0  0  0  0  0  0
   -2.2067   -1.7956    0.0000 H   0  0  0  0  0  0  0  0  0  0  0  0
    0.4411    1.0034    0.0000 H   0  0  0  0  0  0  0  0  0  0  0  0
    1.8487    0.7527    0.0000 H   0  0  0  0  0  0  0  0  0  0  0  0
    3.2287   -0.4898    0.0000 H   0  0  0  0  0  0  0  0  0  0  0  0
   -0.3035   -1.6375    0.0000 H   0  0  0  0  0  0  0  0  0  0  0  0
    1.5378   -4.1461    0.0000 H   0  0  0  0  0  0  0  0  0  0  0  0
  1  2  2  0  0  0  0
  1  6  1  0  0  0  0
  1 26  1  0  0  0  0
  2  3  1  0  0  0  0
  2 27  1  0  0  0  0
  3  4  2  0  0  0  0
  3 28  1  0  0  0  0
  4  5  1  0  0  0  0
  4  7  1  0  0  0  0
  5  6  2  0  0  0  0
  5 29  1  0  0  0  0
  6  8  1  0  0  0  0
  8  9  2  0  0  0  0
  8 11  1  0  0  0  0
  9 10  1  0  0  0  0
  9 15  1  0  0  0  0
 10 13  2  0  0  0  0
 10 14  1  0  0  0  0
 11 12  2  0  0  0  0
 11 14  1  0  0  0  0
 14 30  1  0  0  0  0
 15 16  1  0  0  0  0
 15 31  1  0  0  0  0
 16 17  2  0  0  0  0
 16 21  1  0  0  0  0
 17 18  1  0  0  0  0
 17 32  1  0  0  0  0
 18 19  2  0  0  0  0
 18 33  1  0  0  0  0
 19 20  1  0  0  0  0
 19 22  1  0  0  0  0
 20 21  2  0  0  0  0
 20 23  1  0  0  0  0
 21 34  1  0  0  0  0
 23 24  2  0  0  0  0
 23 25  1  0  0  0  0
 25 35  1  0  0  0  0
M  END
>  <DRUGBANK_ID>
DB01793

>  <SECONDARY_ACCESSION_NUMBERS>
EXPT00277

>  <COMMON_NAME>
SB-409513

>  <SYNONYMS>
I-5

$$$$
