
 OpenBabel10282417072D

 38 40  0  0  0  0  0  0  0  0999 V2000
   -3.5723    0.2062    0.0000 C   0  0  0  0  0  0  0  0  0  0  0  0
   -2.8579   -0.2062    0.0000 C   0  0  0  0  0  0  0  0  0  0  0  0
   -2.8579   -1.0312    0.0000 C   0  0  0  0  0  0  0  0  0  0  0  0
   -3.5723   -1.4438    0.0000 C   0  0  0  0  0  0  0  0  0  0  0  0
   -4.2868   -1.0313    0.0000 C   0  0  0  0  0  0  0  0  0  0  0  0
   -4.2869   -0.2062    0.0000 C   0  0  0  0  0  0  0  0  0  0  0  0
   -2.1434    0.2062    0.0000 C   0  0  0  0  0  0  0  0  0  0  0  0
   -1.4289   -0.2062    0.0000 C   0  0  0  0  0  0  0  0  0  0  0  0
   -1.4289   -1.0312    0.0000 C   0  0  0  0  0  0  0  0  0  0  0  0
   -2.1434   -1.4437    0.0000 C   0  0  0  0  0  0  0  0  0  0  0  0
   -0.7144   -1.4437    0.0000 O   0  0  0  0  0  0  0  0  0  0  0  0
   -0.7144    0.2062    0.0000 C   0  0  0  0  0  0  0  0  0  0  0  0
    0.0000   -0.2062    0.0000 N   0  0  0  0  0  0  0  0  0  0  0  0
    0.7145    0.2062    0.0000 N   0  0  0  0  0  0  0  0  0  0  0  0
    1.4290   -0.2062    0.0000 C   0  0  0  0  0  0  0  0  0  0  0  0
    2.1435    0.2062    0.0000 C   0  0  0  0  0  0  0  0  0  0  0  0
   -0.7144    1.0313    0.0000 O   0  0  0  0  0  0  0  0  0  0  0  0
    2.8579   -0.2062    0.0000 C   0  0  0  0  0  0  0  0  0  0  0  0
    3.5724    0.2062    0.0000 C   0  0  0  0  0  0  0  0  0  0  0  0
    3.5724    1.0313    0.0000 C   0  0  0  0  0  0  0  0  0  0  0  0
    2.8579    1.4438    0.0000 C   0  0  0  0  0  0  0  0  0  0  0  0
    2.1435    1.0313    0.0000 C   0  0  0  0  0  0  0  0  0  0  0  0
    4.2869    1.4438    0.0000 O   0  0  0  0  0  0  0  0  0  0  0  0
    4.2869   -0.2062    0.0000 O   0  0  0  0  0  0  0  0  0  0  0  0
   -3.5722    1.2382    0.0000 H   0  0  0  0  0  0  0  0  0  0  0  0
   -3.5722   -2.4758    0.0000 H   0  0  0  0  0  0  0  0  0  0  0  0
   -5.1805   -1.5474    0.0000 H   0  0  0  0  0  0  0  0  0  0  0  0
   -5.1806    0.3098    0.0000 H   0  0  0  0  0  0  0  0  0  0  0  0
   -2.1434    1.2382    0.0000 H   0  0  0  0  0  0  0  0  0  0  0  0
   -2.1434   -2.4757    0.0000 H   0  0  0  0  0  0  0  0  0  0  0  0
   -0.7144   -2.3807    0.0000 H   0  0  0  0  0  0  0  0  0  0  0  0
   -0.0000   -1.1907    0.0000 H   0  0  0  0  0  0  0  0  0  0  0  0
    1.4290   -1.2382    0.0000 H   0  0  0  0  0  0  0  0  0  0  0  0
    2.8579   -1.2382    0.0000 H   0  0  0  0  0  0  0  0  0  0  0  0
    2.8579    2.4758    0.0000 H   0  0  0  0  0  0  0  0  0  0  0  0
    1.2498    1.5473    0.0000 H   0  0  0  0  0  0  0  0  0  0  0  0
    5.0984    0.9753    0.0000 H   0  0  0  0  0  0  0  0  0  0  0  0
    4.2870   -1.1432    0.0000 H   0  0  0  0  0  0  0  0  0  0  0  0
  1  2  1  0  0  0  0
  1 25  1  0  0  0  0
  2  3  2  0  0  0  0
  2  7  1  0  0  0  0
  3  4  1  0  0  0  0
  4  5  2  0  0  0  0
  4 26  1  0  0  0  0
  5  6  1  0  0  0  0
  5 27  1  0  0  0  0
  6  1  2  0  0  0  0
  6 28  1  0  0  0  0
  7  8  2  0  0  0  0
  7 29  1  0  0  0  0
  8  9  1  0  0  0  0
  8 12  1  0  0  0  0
  9 10  2  0  0  0  0
  9 11  1  0  0  0  0
 10  3  1  0  0  0  0
 10 30  1  0  0  0  0
 11 31  1  0  0  0  0
 12 13  1  0  0  0  0
 12 17  2  0  0  0  0
 13 14  1  0  0  0  0
 13 32  1  0  0  0  0
 14 15  2  0  0  0  0
 15 16  1  0  0  0  0
 15 33  1  0  0  0  0
 16 18  1  0  0  0  0
 18 19  2  0  0  0  0
 18 34  1  0  0  0  0
 19 20  1  0  0  0  0
 19 24  1  0  0  0  0
 20 21  2  0  0  0  0
 20 23  1  0  0  0  0
 21 22  1  0  0  0  0
 21 35  1  0  0  0  0
 22 16  2  0  0  0  0
 22 36  1  0  0  0  0
 23 37  1  0  0  0  0
 24 38  1  0  0  0  0
M  END
>  <DRUGBANK_ID>
DB15964

>  <COMMON_NAME>
Dynasore

>  <CAS_NUMBER>
304448-55-3

>  <SYNONYMS>
3-Hydroxynaphthalene-2-carboxylic acid (3,4-dihydroxybenzylidene)hydrazide; Dynamin Inhibitor I

$$$$
