
 OpenBabel10282417072D

 46 47  0  0  1  0  0  0  0  0999 V2000
    2.4454   -3.1895    0.0000 C   0  0  0  0  0  0  0  0  0  0  0  0
    2.8579   -2.4750    0.0000 C   0  0  0  0  0  0  0  0  0  0  0  0
    3.6829   -2.4750    0.0000 C   0  0  0  0  0  0  0  0  0  0  0  0
    8.6329    1.8118    0.0000 C   0  0  0  0  0  0  0  0  0  0  0  0
    7.8079    1.8118    0.0000 C   0  0  0  0  0  0  0  0  0  0  0  0
    9.0454    1.0974    0.0000 C   0  0  0  0  0  0  0  0  0  0  0  0
    7.3954    1.0974    0.0000 C   0  0  0  0  0  0  0  0  0  0  0  0
    8.6329    0.3829    0.0000 C   0  0  0  0  0  0  0  0  0  0  0  0
    4.0954   -1.7605    0.0000 C   0  0  0  0  0  0  0  0  0  0  0  0
    5.3329    0.3829    0.0000 C   0  0  0  0  0  0  0  0  0  0  0  0
    4.9204   -0.3316    0.0000 C   0  0  0  0  0  0  0  0  0  0  0  0
    7.3954   -0.3316    0.0000 C   0  0  0  0  0  0  0  0  0  0  0  0
    7.8079    0.3829    0.0000 C   0  0  0  0  0  0  0  0  0  0  0  0
    6.5704   -0.3316    0.0000 C   0  0  2  0  0  0  0  0  0  0  0  0
    4.9204   -1.7605    0.0000 C   0  0  1  0  0  0  0  0  0  0  0  0
    6.1579   -1.0461    0.0000 C   0  0  0  0  0  0  0  0  0  0  0  0
    5.3329   -2.4750    0.0000 C   0  0  0  0  0  0  0  0  0  0  0  0
    6.1579    0.3829    0.0000 N   0  0  0  0  0  0  0  0  0  0  0  0
    5.3329   -1.0461    0.0000 N   0  0  0  0  0  0  0  0  0  0  0  0
    6.5704   -1.7605    0.0000 O   0  0  0  0  0  0  0  0  0  0  0  0
    6.1579   -2.4750    0.0000 O   0  0  0  0  0  0  0  0  0  0  0  0
    4.9204   -3.1895    0.0000 O   0  0  0  0  0  0  0  0  0  0  0  0
    6.9829   -1.0461    0.0000 H   0  0  0  0  0  0  0  0  0  0  0  0
    4.5079   -2.4750    0.0000 H   0  0  0  0  0  0  0  0  0  0  0  0
    1.3754   -3.1895    0.0000 H   0  0  0  0  0  0  0  0  0  0  0  0
    2.9804   -4.1161    0.0000 H   0  0  0  0  0  0  0  0  0  0  0  0
    1.9104   -4.1162    0.0000 H   0  0  0  0  0  0  0  0  0  0  0  0
    2.3229   -1.5484    0.0000 H   0  0  0  0  0  0  0  0  0  0  0  0
    3.3929   -1.5484    0.0000 H   0  0  0  0  0  0  0  0  0  0  0  0
    4.2179   -3.4016    0.0000 H   0  0  0  0  0  0  0  0  0  0  0  0
    4.7529   -2.4750    0.0000 H   0  0  0  0  0  0  0  0  0  0  0  0
    9.1489    2.7055    0.0000 H   0  0  0  0  0  0  0  0  0  0  0  0
    7.2919    2.7055    0.0000 H   0  0  0  0  0  0  0  0  0  0  0  0
   10.0774    1.0974    0.0000 H   0  0  0  0  0  0  0  0  0  0  0  0
    6.3634    1.0974    0.0000 H   0  0  0  0  0  0  0  0  0  0  0  0
    9.1489   -0.5108    0.0000 H   0  0  0  0  0  0  0  0  0  0  0  0
    3.5604   -0.8339    0.0000 H   0  0  0  0  0  0  0  0  0  0  0  0
    4.6304   -0.8339    0.0000 H   0  0  0  0  0  0  0  0  0  0  0  0
    4.7979    1.3095    0.0000 H   0  0  0  0  0  0  0  0  0  0  0  0
    5.8679    1.3095    0.0000 H   0  0  0  0  0  0  0  0  0  0  0  0
    3.8504   -0.3316    0.0000 H   0  0  0  0  0  0  0  0  0  0  0  0
    4.3854   -1.2582    0.0000 H   0  0  0  0  0  0  0  0  0  0  0  0
    7.9304   -1.2582    0.0000 H   0  0  0  0  0  0  0  0  0  0  0  0
    6.8604   -1.2582    0.0000 H   0  0  0  0  0  0  0  0  0  0  0  0
    6.6679    1.2662    0.0000 H   0  0  0  0  0  0  0  0  0  0  0  0
    3.9834   -3.1895    0.0000 H   0  0  0  0  0  0  0  0  0  0  0  0
  1 25  1  0  0  0  0
  1 26  1  0  0  0  0
  1 27  1  0  0  0  0
  2  1  1  0  0  0  0
  2 28  1  0  0  0  0
  2 29  1  0  0  0  0
  3  2  1  0  0  0  0
  3 30  1  0  0  0  0
  3 31  1  0  0  0  0
  4 32  1  0  0  0  0
  5  4  2  0  0  0  0
  5 33  1  0  0  0  0
  6  4  1  0  0  0  0
  6 34  1  0  0  0  0
  7  5  1  0  0  0  0
  7 35  1  0  0  0  0
  8  6  2  0  0  0  0
  8 36  1  0  0  0  0
  9  3  1  0  0  0  0
  9 37  1  0  0  0  0
  9 38  1  0  0  0  0
 10 39  1  0  0  0  0
 10 40  1  0  0  0  0
 11 10  1  0  0  0  0
 11 41  1  0  0  0  0
 11 42  1  0  0  0  0
 12 43  1  0  0  0  0
 12 44  1  0  0  0  0
 13  7  2  0  0  0  0
 13  8  1  0  0  0  0
 13 12  1  0  0  0  0
 14 12  1  0  0  0  0
 14 23  1  1  0  0  0
 15  9  1  0  0  0  0
 15 19  1  0  0  0  0
 15 24  1  1  0  0  0
 16 14  1  0  0  0  0
 17 15  1  0  0  0  0
 18 10  1  0  0  0  0
 18 14  1  0  0  0  0
 18 45  1  0  0  0  0
 19 11  1  0  0  0  0
 19 16  1  0  0  0  0
 20 16  2  0  0  0  0
 21 17  2  0  0  0  0
 22 17  1  0  0  0  0
 22 46  1  0  0  0  0
M  END
>  <DRUGBANK_ID>
DB03090

>  <SECONDARY_ACCESSION_NUMBERS>
EXPT02676

>  <COMMON_NAME>
Ethylaminobenzylmethylcarbonyl Group

$$$$
