PU0
 OpenBabel10282417072D

 48 50  0  0  0  0  0  0  0  0999 V2000
    0.6116    2.0466    0.0000 C   0  0  0  0  0  0  0  0  0  0  0  0
   -1.0384    2.0466    0.0000 C   0  0  0  0  0  0  0  0  0  0  0  0
    0.1991    1.3321    0.0000 O   0  0  0  0  0  0  0  0  0  0  0  0
   -0.6259    1.3321    0.0000 C   0  0  0  0  0  0  0  0  0  0  0  0
   -1.8634    2.0466    0.0000 C   0  0  0  0  0  0  0  0  0  0  0  0
   -2.2759    1.3321    0.0000 C   0  0  0  0  0  0  0  0  0  0  0  0
   -3.1009    1.3321    0.0000 O   0  0  0  0  0  0  0  0  0  0  0  0
   -3.5134    2.0466    0.0000 C   0  0  0  0  0  0  0  0  0  0  0  0
   -1.8634    0.6176    0.0000 C   0  0  0  0  0  0  0  0  0  0  0  0
   -1.0384    0.6176    0.0000 C   0  0  0  0  0  0  0  0  0  0  0  0
   -0.6259   -0.0968    0.0000 C   0  0  0  0  0  0  0  0  0  0  0  0
    0.1991   -0.0968    0.0000 C   0  0  0  0  0  0  0  0  0  0  0  0
    0.6841    0.5706    0.0000 N   0  0  0  0  0  0  0  0  0  0  0  0
    1.4687    0.3157    0.0000 C   0  0  0  0  0  0  0  0  0  0  0  0
    2.1831    0.7282    0.0000 C   0  0  0  0  0  0  0  0  0  0  0  0
    2.1831    1.5532    0.0000 N   0  0  0  0  0  0  0  0  0  0  0  0
    1.4687   -0.5093    0.0000 C   0  0  0  0  0  0  0  0  0  0  0  0
    2.1831   -0.9218    0.0000 N   0  0  0  0  0  0  0  0  0  0  0  0
    2.8976   -0.5093    0.0000 C   0  0  0  0  0  0  0  0  0  0  0  0
    2.8976    0.3157    0.0000 N   0  0  0  0  0  0  0  0  0  0  0  0
    0.6841   -0.7643    0.0000 N   0  0  0  0  0  0  0  0  0  0  0  0
    0.4291   -1.5489    0.0000 C   0  0  0  0  0  0  0  0  0  0  0  0
    0.9811   -2.1620    0.0000 C   0  0  0  0  0  0  0  0  0  0  0  0
    0.7262   -2.9466    0.0000 C   0  0  0  0  0  0  0  0  0  0  0  0
    1.2782   -3.5597    0.0000 C   0  0  0  0  0  0  0  0  0  0  0  0
    3.6121   -0.9218    0.0000 F   0  0  0  0  0  0  0  0  0  0  0  0
    1.6816    2.0466    0.0000 H   0  0  0  0  0  0  0  0  0  0  0  0
    0.0766    2.9732    0.0000 H   0  0  0  0  0  0  0  0  0  0  0  0
    1.1466    2.9733    0.0000 H   0  0  0  0  0  0  0  0  0  0  0  0
   -0.5224    2.9403    0.0000 H   0  0  0  0  0  0  0  0  0  0  0  0
   -2.3794    2.9403    0.0000 H   0  0  0  0  0  0  0  0  0  0  0  0
   -2.9784    2.9732    0.0000 H   0  0  0  0  0  0  0  0  0  0  0  0
   -4.5834    2.0466    0.0000 H   0  0  0  0  0  0  0  0  0  0  0  0
   -4.0484    2.9733    0.0000 H   0  0  0  0  0  0  0  0  0  0  0  0
   -2.3794   -0.2761    0.0000 H   0  0  0  0  0  0  0  0  0  0  0  0
   -1.1609   -1.0235    0.0000 H   0  0  0  0  0  0  0  0  0  0  0  0
   -0.0909   -1.0234    0.0000 H   0  0  0  0  0  0  0  0  0  0  0  0
    3.0357    2.0455    0.0000 H   0  0  0  0  0  0  0  0  0  0  0  0
    1.3305    2.0454    0.0000 H   0  0  0  0  0  0  0  0  0  0  0  0
   -0.6175   -1.7713    0.0000 H   0  0  0  0  0  0  0  0  0  0  0  0
    0.0984   -2.5665    0.0000 H   0  0  0  0  0  0  0  0  0  0  0  0
    2.0277   -1.9395    0.0000 H   0  0  0  0  0  0  0  0  0  0  0  0
    1.6971   -2.9572    0.0000 H   0  0  0  0  0  0  0  0  0  0  0  0
   -0.3204   -3.1691    0.0000 H   0  0  0  0  0  0  0  0  0  0  0  0
    0.3955   -3.9642    0.0000 H   0  0  0  0  0  0  0  0  0  0  0  0
    0.9475   -4.5773    0.0000 H   0  0  0  0  0  0  0  0  0  0  0  0
    2.3248   -3.3373    0.0000 H   0  0  0  0  0  0  0  0  0  0  0  0
    1.9941   -4.3549    0.0000 H   0  0  0  0  0  0  0  0  0  0  0  0
  1  3  1  0  0  0  0
  1 27  1  0  0  0  0
  1 28  1  0  0  0  0
  1 29  1  0  0  0  0
  2  4  1  0  0  0  0
  2  5  2  0  0  0  0
  2 30  1  0  0  0  0
  3  4  1  0  0  0  0
  4 10  2  0  0  0  0
  5  6  1  0  0  0  0
  5 31  1  0  0  0  0
  6  7  1  0  0  0  0
  6  9  2  0  0  0  0
  7  8  1  0  0  0  0
  8 32  1  0  0  0  0
  8 33  1  0  0  0  0
  8 34  1  0  0  0  0
  9 10  1  0  0  0  0
  9 35  1  0  0  0  0
 10 11  1  0  0  0  0
 11 12  1  0  0  0  0
 11 36  1  0  0  0  0
 11 37  1  0  0  0  0
 12 13  2  0  0  0  0
 12 21  1  0  0  0  0
 13 14  1  0  0  0  0
 14 15  2  0  0  0  0
 14 17  1  0  0  0  0
 15 16  1  0  0  0  0
 15 20  1  0  0  0  0
 16 38  1  0  0  0  0
 16 39  1  0  0  0  0
 17 18  2  0  0  0  0
 17 21  1  0  0  0  0
 18 19  1  0  0  0  0
 19 20  2  0  0  0  0
 19 26  1  0  0  0  0
 21 22  1  0  0  0  0
 22 23  1  0  0  0  0
 22 40  1  0  0  0  0
 22 41  1  0  0  0  0
 23 24  1  0  0  0  0
 23 42  1  0  0  0  0
 23 43  1  0  0  0  0
 24 25  1  0  0  0  0
 24 44  1  0  0  0  0
 24 45  1  0  0  0  0
 25 46  1  0  0  0  0
 25 47  1  0  0  0  0
 25 48  1  0  0  0  0
M  END
>  <DRUGBANK_ID>
DB04054

>  <SECONDARY_ACCESSION_NUMBERS>
EXPT02691

>  <COMMON_NAME>
9-Butyl-8-(2,5-Dimethoxy-Benzyl)-2-Fluoro-9h-Purin-6-Ylamine

$$$$
