
 OpenBabel10282417072D

 34 35  0  0  1  0  0  0  0  0999 V2000
   -1.4289    5.5286    0.0000 C   0  0  0  0  0  0  0  0  0  0  0  0
   -2.1434    4.2911    0.0000 C   0  0  0  0  0  0  0  0  0  0  0  0
   -2.1434    5.9411    0.0000 C   0  0  0  0  0  0  0  0  0  0  0  0
   -2.8579    4.7036    0.0000 C   0  0  0  0  0  0  0  0  0  0  0  0
   -1.6119    1.5291    0.0000 C   0  0  0  0  0  0  0  0  0  0  0  0
   -1.2763    0.7754    0.0000 C   0  0  0  0  0  0  0  0  0  0  0  0
   -0.7145    4.2911    0.0000 C   0  0  0  0  0  0  0  0  0  0  0  0
    0.1830    1.5291    0.0000 C   0  0  0  0  0  0  0  0  0  0  0  0
   -1.4289    4.7036    0.0000 C   0  0  3  0  0  0  0  0  0  0  0  0
   -2.8579    5.5286    0.0000 C   0  0  0  0  0  0  0  0  0  0  0  0
   -0.7145    3.4661    0.0000 C   0  0  1  0  0  0  0  0  0  0  0  0
   -0.3020    2.1965    0.0000 C   0  0  0  0  0  0  0  0  0  0  0  0
   -1.3819    2.9812    0.0000 C   0  0  0  0  0  0  0  0  0  0  0  0
   -0.1526    0.7754    0.0000 N   0  0  0  0  0  0  0  0  0  0  0  0
   -0.0470    2.9812    0.0000 N   0  0  0  0  0  0  0  0  0  0  0  0
   -1.1270    2.1965    0.0000 N   0  0  0  0  0  0  0  0  0  0  0  0
   -1.7613    0.1080    0.0000 O   0  0  0  0  0  0  0  0  0  0  0  0
   -3.5724    5.9411    0.0000 O   0  0  0  0  0  0  0  0  0  0  0  0
   -2.1665    3.2361    0.0000 O   0  0  0  0  0  0  0  0  0  0  0  0
   -1.4496    3.8406    0.0000 H   0  0  0  0  0  0  0  0  0  0  0  0
   -0.5352    6.0446    0.0000 H   0  0  0  0  0  0  0  0  0  0  0  0
   -2.1434    3.2591    0.0000 H   0  0  0  0  0  0  0  0  0  0  0  0
   -2.1434    6.9731    0.0000 H   0  0  0  0  0  0  0  0  0  0  0  0
   -3.7516    4.1876    0.0000 H   0  0  0  0  0  0  0  0  0  0  0  0
   -2.6760    1.6409    0.0000 H   0  0  0  0  0  0  0  0  0  0  0  0
   -2.0471    2.5066    0.0000 H   0  0  0  0  0  0  0  0  0  0  0  0
   -0.2500    0.6675    0.0000 H   0  0  0  0  0  0  0  0  0  0  0  0
    0.2122    4.8261    0.0000 H   0  0  0  0  0  0  0  0  0  0  0  0
    0.2121    3.7561    0.0000 H   0  0  0  0  0  0  0  0  0  0  0  0
    1.2471    1.6410    0.0000 H   0  0  0  0  0  0  0  0  0  0  0  0
    0.8119    0.6635    0.0000 H   0  0  0  0  0  0  0  0  0  0  0  0
   -2.3555    5.2386    0.0000 H   0  0  0  0  0  0  0  0  0  0  0  0
   -1.1670    0.6688    0.0000 H   0  0  0  0  0  0  0  0  0  0  0  0
    0.4469   -0.0498    0.0000 H   0  0  0  0  0  0  0  0  0  0  0  0
  1 21  1  0  0  0  0
  2 22  1  0  0  0  0
  3  1  2  0  0  0  0
  3 23  1  0  0  0  0
  4  2  2  0  0  0  0
  4 24  1  0  0  0  0
  5 25  1  0  0  0  0
  5 26  1  0  0  0  0
  6  5  1  0  0  0  0
  6 27  1  0  0  0  0
  7 28  1  0  0  0  0
  7 29  1  0  0  0  0
  8 30  1  0  0  0  0
  8 31  1  0  0  0  0
  9  1  1  0  0  0  0
  9  2  1  0  0  0  0
  9  7  1  0  0  0  0
  9 32  1  0  0  0  0
 10  3  1  0  0  0  0
 10  4  1  0  0  0  0
 11  7  1  0  0  0  0
 11 20  1  1  0  0  0
 12  8  1  0  0  0  0
 13 11  1  0  0  0  0
 14  8  1  0  0  0  0
 14 33  1  0  0  0  0
 14 34  1  0  0  0  0
 15 11  1  0  0  0  0
 15 12  2  0  0  0  0
 16  5  1  0  0  0  0
 16 12  1  0  0  0  0
 16 13  1  0  0  0  0
 17  6  2  0  0  0  0
 18 10  2  0  0  0  0
 19 13  2  0  0  0  0
M  END
>  <DRUGBANK_ID>
DB02275

>  <SECONDARY_ACCESSION_NUMBERS>
EXPT02508

>  <COMMON_NAME>
[2-Aminomethyl-5-Oxo-4-(4-Oxo-Cyclohexa-2,5-Dienylmethyl)-4,5-Dihydro-Imidazol-1-Yl] -Acetaldehyde

$$$$
