
 OpenBabel10282417072D

 59 61  0  0  0  0  0  0  0  0999 V2000
   -1.5333    3.0009    0.0000 C   0  0  2  0  0  0  0  0  0  0  0  0
   -1.5333    2.1759    0.0000 O   0  0  0  0  0  0  0  0  0  0  0  0
   -0.8188    1.7634    0.0000 P   0  0  3  0  0  0  0  0  0  0  0  0
   -0.4063    2.4777    0.0000 O   0  0  0  0  0  0  0  0  0  0  0  0
   -1.2313    1.0489    0.0000 O   0  0  0  0  0  0  0  0  0  0  0  0
   -0.1043    1.3509    0.0000 O   0  0  0  0  0  0  0  0  0  0  0  0
   -0.1043    0.5259    0.0000 P   0  0  3  0  0  0  0  0  0  0  0  0
    0.7206    0.5259    0.0000 O   0  0  0  0  0  0  0  0  0  0  0  0
   -0.9293    0.5259    0.0000 O   0  0  0  0  0  0  0  0  0  0  0  0
   -0.1043   -0.2990    0.0000 O   0  0  0  0  0  0  0  0  0  0  0  0
    0.6100   -0.7115    0.0000 C   0  0  0  0  0  0  0  0  0  0  0  0
    0.6100   -1.5365    0.0000 C   0  0  1  0  0  0  0  0  0  0  0  0
    1.2775   -2.0214    0.0000 O   0  0  0  0  0  0  0  0  0  0  0  0
    1.0225   -2.8061    0.0000 C   0  0  2  0  0  0  0  0  0  0  0  0
    0.1975   -2.8061    0.0000 C   0  0  1  0  0  0  0  0  0  0  0  0
   -0.0573   -2.0214    0.0000 C   0  0  2  0  0  0  0  0  0  0  0  0
   -0.8419   -1.7666    0.0000 O   0  0  0  0  0  0  0  0  0  0  0  0
   -0.2873   -3.4735    0.0000 O   0  0  0  0  0  0  0  0  0  0  0  0
    1.5074   -3.4735    0.0000 N   0  0  0  0  0  0  0  0  0  0  0  0
    1.1719   -4.2272    0.0000 C   0  0  0  0  0  0  0  0  0  0  0  0
    0.3514   -4.3135    0.0000 O   0  0  0  0  0  0  0  0  0  0  0  0
    1.6568   -4.8946    0.0000 N   0  0  0  0  0  0  0  0  0  0  0  0
    2.4773   -4.8084    0.0000 C   0  0  0  0  0  0  0  0  0  0  0  0
    2.9622   -5.4759    0.0000 O   0  0  0  0  0  0  0  0  0  0  0  0
    2.8129   -4.0548    0.0000 C   0  0  0  0  0  0  0  0  0  0  0  0
    2.3279   -3.3874    0.0000 C   0  0  0  0  0  0  0  0  0  0  0  0
   -2.2478    3.4133    0.0000 C   0  0  2  0  0  0  0  0  0  0  0  0
   -2.9622    3.0009    0.0000 F   0  0  0  0  0  0  0  0  0  0  0  0
   -2.2478    4.2384    0.0000 C   0  0  1  0  0  0  0  0  0  0  0  0
   -2.9622    4.6509    0.0000 O   0  0  0  0  0  0  0  0  0  0  0  0
   -1.5333    4.6509    0.0000 C   0  0  2  0  0  0  0  0  0  0  0  0
   -1.5333    5.4759    0.0000 O   0  0  0  0  0  0  0  0  0  0  0  0
   -0.8188    4.2384    0.0000 C   0  0  1  0  0  0  0  0  0  0  0  0
   -0.1043    4.6509    0.0000 C   0  0  0  0  0  0  0  0  0  0  0  0
    0.6100    4.2384    0.0000 O   0  0  0  0  0  0  0  0  0  0  0  0
   -0.8188    3.4133    0.0000 O   0  0  0  0  0  0  0  0  0  0  0  0
   -2.4599    2.4658    0.0000 H   0  0  0  0  0  0  0  0  0  0  0  0
   -2.2013    1.0489    0.0000 H   0  0  0  0  0  0  0  0  0  0  0  0
   -1.4143    1.3659    0.0000 H   0  0  0  0  0  0  0  0  0  0  0  0
    1.5367   -0.1765    0.0000 H   0  0  0  0  0  0  0  0  0  0  0  0
    1.5366   -1.2465    0.0000 H   0  0  0  0  0  0  0  0  0  0  0  0
    1.5634   -1.0507    0.0000 H   0  0  0  0  0  0  0  0  0  0  0  0
    2.0793   -2.6387    0.0000 H   0  0  0  0  0  0  0  0  0  0  0  0
    0.6833   -3.7595    0.0000 H   0  0  0  0  0  0  0  0  0  0  0  0
   -0.2248   -0.9646    0.0000 H   0  0  0  0  0  0  0  0  0  0  0  0
   -1.0437   -0.8178    0.0000 H   0  0  0  0  0  0  0  0  0  0  0  0
   -1.2520   -3.3722    0.0000 H   0  0  0  0  0  0  0  0  0  0  0  0
    1.2563   -5.7940    0.0000 H   0  0  0  0  0  0  0  0  0  0  0  0
    3.8392   -3.9469    0.0000 H   0  0  0  0  0  0  0  0  0  0  0  0
    2.7477   -2.4446    0.0000 H   0  0  0  0  0  0  0  0  0  0  0  0
   -2.2478    2.3433    0.0000 H   0  0  0  0  0  0  0  0  0  0  0  0
   -3.1745    3.7034    0.0000 H   0  0  0  0  0  0  0  0  0  0  0  0
   -2.9622    5.6209    0.0000 H   0  0  0  0  0  0  0  0  0  0  0  0
   -2.4599    5.1859    0.0000 H   0  0  0  0  0  0  0  0  0  0  0  0
   -0.6933    5.9609    0.0000 H   0  0  0  0  0  0  0  0  0  0  0  0
   -0.8188    5.3084    0.0000 H   0  0  0  0  0  0  0  0  0  0  0  0
   -0.1042    5.7209    0.0000 H   0  0  0  0  0  0  0  0  0  0  0  0
    0.8224    5.1858    0.0000 H   0  0  0  0  0  0  0  0  0  0  0  0
    0.6099    3.2684    0.0000 H   0  0  0  0  0  0  0  0  0  0  0  0
  1  2  1  0  0  0  0
  1 27  1  0  0  0  0
  1 36  1  0  0  0  0
  1 37  1  1  0  0  0
  3  2  1  0  0  0  0
  3  5  1  0  0  0  0
  4  3  2  0  0  0  0
  5 38  1  0  0  0  0
  6  3  1  0  0  0  0
  7  6  1  0  0  0  0
  7  9  1  0  0  0  0
  8  7  2  0  0  0  0
  9 39  1  0  0  0  0
 10  7  1  0  0  0  0
 11 10  1  0  0  0  0
 11 40  1  0  0  0  0
 11 41  1  0  0  0  0
 12 11  1  0  0  0  0
 12 13  1  0  0  0  0
 12 42  1  6  0  0  0
 14 13  1  0  0  0  0
 14 15  1  0  0  0  0
 14 19  1  0  0  0  0
 14 43  1  6  0  0  0
 15 16  1  0  0  0  0
 15 18  1  0  0  0  0
 15 44  1  1  0  0  0
 16 12  1  0  0  0  0
 16 17  1  0  0  0  0
 16 45  1  1  0  0  0
 17 46  1  0  0  0  0
 18 47  1  0  0  0  0
 20 19  1  0  0  0  0
 20 21  2  0  0  0  0
 20 22  1  0  0  0  0
 22 48  1  0  0  0  0
 23 22  1  0  0  0  0
 23 24  2  0  0  0  0
 23 25  1  0  0  0  0
 25 26  2  0  0  0  0
 25 49  1  0  0  0  0
 26 19  1  0  0  0  0
 26 50  1  0  0  0  0
 27 28  1  0  0  0  0
 27 29  1  0  0  0  0
 27 51  1  1  0  0  0
 29 30  1  0  0  0  0
 29 31  1  0  0  0  0
 29 52  1  6  0  0  0
 30 53  1  0  0  0  0
 31 32  1  0  0  0  0
 31 33  1  0  0  0  0
 31 54  1  1  0  0  0
 32 55  1  0  0  0  0
 33 34  1  0  0  0  0
 33 36  1  0  0  0  0
 33 56  1  6  0  0  0
 34 35  1  0  0  0  0
 34 57  1  0  0  0  0
 34 58  1  0  0  0  0
 35 59  1  0  0  0  0
M  END
>  <DRUGBANK_ID>
DB03488

>  <SECONDARY_ACCESSION_NUMBERS>
EXPT03157

>  <COMMON_NAME>
Uridine-5'-diphosphate-2-deoxy-2-fluoro-alpha-D-galactose

$$$$
