0AG
 OpenBabel10282417072D

 31 30  0  0  0  0  0  0  0  0999 V2000
   -3.2731    0.7556    0.0000 C   0  0  0  0  0  0  0  0  0  0  0  0
   -2.5586    0.3431    0.0000 C   0  0  0  0  0  0  0  0  0  0  0  0
   -1.8441    0.7556    0.0000 O   0  0  0  0  0  0  0  0  0  0  0  0
   -1.1297    0.3431    0.0000 C   0  0  0  0  0  0  0  0  0  0  0  0
   -1.1297   -0.4819    0.0000 O   0  0  0  0  0  0  0  0  0  0  0  0
   -0.4152    0.7556    0.0000 N   0  0  0  0  0  0  0  0  0  0  0  0
    0.2993    0.3431    0.0000 C   0  0  2  0  0  0  0  0  0  0  0  0
    0.2993   -0.4819    0.0000 C   0  0  0  0  0  0  0  0  0  0  0  0
    1.0137   -0.8944    0.0000 O   0  0  0  0  0  0  0  0  0  0  0  0
    1.0137    0.7556    0.0000 C   0  0  0  0  0  0  0  0  0  0  0  0
    1.7282    0.3431    0.0000 C   0  0  0  0  0  0  0  0  0  0  0  0
    2.4427    0.7556    0.0000 C   0  0  0  0  0  0  0  0  0  0  0  0
    1.7282   -0.4819    0.0000 C   0  0  0  0  0  0  0  0  0  0  0  0
   -0.4152   -0.8944    0.0000 O   0  0  0  0  0  0  0  0  0  0  0  0
   -0.2064    0.0511    0.0000 H   0  0  0  0  0  0  0  0  0  0  0  0
   -3.2731    1.8256    0.0000 H   0  0  0  0  0  0  0  0  0  0  0  0
   -4.1997    0.2206    0.0000 H   0  0  0  0  0  0  0  0  0  0  0  0
   -4.1998    1.2906    0.0000 H   0  0  0  0  0  0  0  0  0  0  0  0
   -2.5586   -0.7269    0.0000 H   0  0  0  0  0  0  0  0  0  0  0  0
   -1.6320   -0.1919    0.0000 H   0  0  0  0  0  0  0  0  0  0  0  0
   -0.4152    1.7401    0.0000 H   0  0  0  0  0  0  0  0  0  0  0  0
    1.0137    1.8256    0.0000 H   0  0  0  0  0  0  0  0  0  0  0  0
    1.9403    1.2906    0.0000 H   0  0  0  0  0  0  0  0  0  0  0  0
    2.6548   -0.1919    0.0000 H   0  0  0  0  0  0  0  0  0  0  0  0
    3.3693    0.2206    0.0000 H   0  0  0  0  0  0  0  0  0  0  0  0
    2.4427    1.8256    0.0000 H   0  0  0  0  0  0  0  0  0  0  0  0
    3.3694    1.2906    0.0000 H   0  0  0  0  0  0  0  0  0  0  0  0
    0.8016   -1.0169    0.0000 H   0  0  0  0  0  0  0  0  0  0  0  0
    2.6548   -1.0169    0.0000 H   0  0  0  0  0  0  0  0  0  0  0  0
    1.7282   -1.5519    0.0000 H   0  0  0  0  0  0  0  0  0  0  0  0
   -1.2267   -0.4259    0.0000 H   0  0  0  0  0  0  0  0  0  0  0  0
  1  2  1  0  0  0  0
  1 16  1  0  0  0  0
  1 17  1  0  0  0  0
  1 18  1  0  0  0  0
  2  3  1  0  0  0  0
  2 19  1  0  0  0  0
  2 20  1  0  0  0  0
  3  4  1  0  0  0  0
  4  5  2  0  0  0  0
  4  6  1  0  0  0  0
  6 21  1  0  0  0  0
  7  6  1  0  0  0  0
  7  8  1  0  0  0  0
  7 10  1  0  0  0  0
  7 15  1  6  0  0  0
  8  9  2  0  0  0  0
  8 14  1  0  0  0  0
 10 11  1  0  0  0  0
 10 22  1  0  0  0  0
 10 23  1  0  0  0  0
 11 12  1  0  0  0  0
 11 13  1  0  0  0  0
 11 24  1  0  0  0  0
 12 25  1  0  0  0  0
 12 26  1  0  0  0  0
 12 27  1  0  0  0  0
 13 28  1  0  0  0  0
 13 29  1  0  0  0  0
 13 30  1  0  0  0  0
 14 31  1  0  0  0  0
M  END
>  <DRUGBANK_ID>
DB06839

>  <COMMON_NAME>
N-(ethoxycarbonyl)-L-leucine

$$$$
