
 OpenBabel10282417072D

 77 80  0  0  1  0  0  0  0  0999 V2000
    4.1374   -1.1429    0.0000 C   0  0  0  0  0  0  0  0  0  0  0  0
    3.5243   -1.6949    0.0000 C   0  0  2  0  0  0  0  0  0  0  0  0
    3.2693   -0.9103    0.0000 C   0  0  0  0  0  0  0  0  0  0  0  0
    2.4624   -0.7388    0.0000 C   0  0  0  0  0  0  0  0  0  0  0  0
    1.9103   -1.3519    0.0000 C   0  0  1  0  0  0  0  0  0  0  0  0
    2.1653   -2.1365    0.0000 C   0  0  2  0  0  0  0  0  0  0  0  0
    2.9722   -2.3080    0.0000 C   0  0  2  0  0  0  0  0  0  0  0  0
    3.3847   -3.0225    0.0000 C   0  0  0  0  0  0  0  0  0  0  0  0
    4.1917   -2.8510    0.0000 C   0  0  0  0  0  0  0  0  0  0  0  0
    4.2780   -2.0305    0.0000 C   0  0  2  0  0  0  0  0  0  0  0  0
    4.9924   -1.6180    0.0000 O   0  0  0  0  0  0  0  0  0  0  0  0
    5.7069   -2.0305    0.0000 C   0  0  0  0  0  0  0  0  0  0  0  0
    5.7069   -2.8555    0.0000 O   0  0  0  0  0  0  0  0  0  0  0  0
    6.4214   -1.6180    0.0000 C   0  0  0  0  0  0  0  0  0  0  0  0
    7.1358   -2.0305    0.0000 C   0  0  0  0  0  0  0  0  0  0  0  0
    7.8503   -1.6180    0.0000 C   0  0  0  0  0  0  0  0  0  0  0  0
    8.5648   -2.0305    0.0000 C   0  0  0  0  0  0  0  0  0  0  0  0
    9.2792   -1.6180    0.0000 C   0  0  0  0  0  0  0  0  0  0  0  0
    9.9937   -2.0305    0.0000 C   0  0  0  0  0  0  0  0  0  0  0  0
   10.7082   -1.6180    0.0000 C   0  0  0  0  0  0  0  0  0  0  0  0
   11.4227   -2.0305    0.0000 C   0  0  0  0  0  0  0  0  0  0  0  0
   12.1371   -1.6180    0.0000 C   0  0  0  0  0  0  0  0  0  0  0  0
   12.8516   -2.0305    0.0000 C   0  0  0  0  0  0  0  0  0  0  0  0
    1.6132   -2.7496    0.0000 C   0  0  0  0  0  0  0  0  0  0  0  0
    0.8063   -2.5781    0.0000 C   0  0  0  0  0  0  0  0  0  0  0  0
    0.5513   -1.7935    0.0000 C   0  0  0  0  0  0  0  0  0  0  0  0
   -0.2556   -1.6219    0.0000 C   0  0  0  0  0  0  0  0  0  0  0  0
   -0.5106   -0.8373    0.0000 C   0  0  0  0  0  0  0  0  0  0  0  0
   -1.3176   -0.6658    0.0000 O   0  0  0  0  0  0  0  0  0  0  0  0
    0.0414   -0.2242    0.0000 C   0  0  0  0  0  0  0  0  0  0  0  0
    0.8484   -0.3957    0.0000 C   0  0  0  0  0  0  0  0  0  0  0  0
    1.1034   -1.1804    0.0000 C   0  0  2  0  0  0  0  0  0  0  0  0
    1.6554   -0.5673    0.0000 C   0  0  0  0  0  0  0  0  0  0  0  0
    5.1550   -1.4736    0.0000 H   0  0  0  0  0  0  0  0  0  0  0  0
    3.9150   -0.0963    0.0000 H   0  0  0  0  0  0  0  0  0  0  0  0
    4.9326   -0.4270    0.0000 H   0  0  0  0  0  0  0  0  0  0  0  0
    3.9852   -0.1151    0.0000 H   0  0  0  0  0  0  0  0  0  0  0  0
    2.9386    0.1073    0.0000 H   0  0  0  0  0  0  0  0  0  0  0  0
    2.1318    0.2788    0.0000 H   0  0  0  0  0  0  0  0  0  0  0  0
    1.4158   -0.5163    0.0000 H   0  0  0  0  0  0  0  0  0  0  0  0
    2.9569   -1.5744    0.0000 H   0  0  0  0  0  0  0  0  0  0  0  0
    1.1187   -1.9140    0.0000 H   0  0  0  0  0  0  0  0  0  0  0  0
    2.3433   -3.1736    0.0000 H   0  0  0  0  0  0  0  0  0  0  0  0
    2.9495   -4.0000    0.0000 H   0  0  0  0  0  0  0  0  0  0  0  0
    4.0580   -3.8541    0.0000 H   0  0  0  0  0  0  0  0  0  0  0  0
    4.9868   -3.5670    0.0000 H   0  0  0  0  0  0  0  0  0  0  0  0
    5.1907   -2.4676    0.0000 H   0  0  0  0  0  0  0  0  0  0  0  0
    5.1754   -2.6133    0.0000 H   0  0  0  0  0  0  0  0  0  0  0  0
    6.4214   -0.5480    0.0000 H   0  0  0  0  0  0  0  0  0  0  0  0
    7.3481   -1.0830    0.0000 H   0  0  0  0  0  0  0  0  0  0  0  0
    7.1358   -3.1005    0.0000 H   0  0  0  0  0  0  0  0  0  0  0  0
    8.0624   -2.5655    0.0000 H   0  0  0  0  0  0  0  0  0  0  0  0
    7.8503   -0.5480    0.0000 H   0  0  0  0  0  0  0  0  0  0  0  0
    8.7769   -1.0830    0.0000 H   0  0  0  0  0  0  0  0  0  0  0  0
    8.5648   -3.1005    0.0000 H   0  0  0  0  0  0  0  0  0  0  0  0
    9.4915   -2.5655    0.0000 H   0  0  0  0  0  0  0  0  0  0  0  0
    9.2792   -0.5480    0.0000 H   0  0  0  0  0  0  0  0  0  0  0  0
   10.2058   -1.0830    0.0000 H   0  0  0  0  0  0  0  0  0  0  0  0
    9.9937   -3.1005    0.0000 H   0  0  0  0  0  0  0  0  0  0  0  0
   10.9203   -2.5655    0.0000 H   0  0  0  0  0  0  0  0  0  0  0  0
   10.7082   -0.5480    0.0000 H   0  0  0  0  0  0  0  0  0  0  0  0
   11.6348   -1.0830    0.0000 H   0  0  0  0  0  0  0  0  0  0  0  0
   11.4227   -3.1005    0.0000 H   0  0  0  0  0  0  0  0  0  0  0  0
   12.3494   -2.5655    0.0000 H   0  0  0  0  0  0  0  0  0  0  0  0
   12.1371   -0.5860    0.0000 H   0  0  0  0  0  0  0  0  0  0  0  0
   12.8516   -3.0625    0.0000 H   0  0  0  0  0  0  0  0  0  0  0  0
   13.7453   -1.5145    0.0000 H   0  0  0  0  0  0  0  0  0  0  0  0
    1.9438   -3.7672    0.0000 H   0  0  0  0  0  0  0  0  0  0  0  0
    0.8972   -3.5448    0.0000 H   0  0  0  0  0  0  0  0  0  0  0  0
    0.0904   -3.3733    0.0000 H   0  0  0  0  0  0  0  0  0  0  0  0
   -0.2403   -2.3557    0.0000 H   0  0  0  0  0  0  0  0  0  0  0  0
   -0.9462   -2.3888    0.0000 H   0  0  0  0  0  0  0  0  0  0  0  0
   -0.2775    0.7573    0.0000 H   0  0  0  0  0  0  0  0  0  0  0  0
    1.5389    0.3713    0.0000 H   0  0  0  0  0  0  0  0  0  0  0  0
    2.7020   -0.7897    0.0000 H   0  0  0  0  0  0  0  0  0  0  0  0
    1.3247    0.4503    0.0000 H   0  0  0  0  0  0  0  0  0  0  0  0
    2.3713    0.2279    0.0000 H   0  0  0  0  0  0  0  0  0  0  0  0
  1 34  1  0  0  0  0
  1 35  1  0  0  0  0
  1 36  1  0  0  0  0
  2  1  1  1  0  0  0
  2  3  1  0  0  0  0
  2  7  1  0  0  0  0
  2 10  1  0  0  0  0
  3  4  1  0  0  0  0
  3 37  1  0  0  0  0
  3 38  1  0  0  0  0
  4 39  1  0  0  0  0
  4 40  1  0  0  0  0
  5  4  1  0  0  0  0
  5  6  1  0  0  0  0
  5 32  1  0  0  0  0
  5 41  1  6  0  0  0
  6  7  1  0  0  0  0
  6 24  1  0  0  0  0
  6 42  1  1  0  0  0
  7  8  1  0  0  0  0
  7 43  1  6  0  0  0
  8  9  1  0  0  0  0
  8 44  1  0  0  0  0
  8 45  1  0  0  0  0
  9 10  1  0  0  0  0
  9 46  1  0  0  0  0
  9 47  1  0  0  0  0
 10 11  1  0  0  0  0
 10 48  1  6  0  0  0
 11 12  1  0  0  0  0
 12 13  2  0  0  0  0
 12 14  1  0  0  0  0
 14 15  1  0  0  0  0
 14 49  1  0  0  0  0
 14 50  1  0  0  0  0
 15 16  1  0  0  0  0
 15 51  1  0  0  0  0
 15 52  1  0  0  0  0
 16 17  1  0  0  0  0
 16 53  1  0  0  0  0
 16 54  1  0  0  0  0
 17 18  1  0  0  0  0
 17 55  1  0  0  0  0
 17 56  1  0  0  0  0
 18 19  1  0  0  0  0
 18 57  1  0  0  0  0
 18 58  1  0  0  0  0
 19 20  1  0  0  0  0
 19 59  1  0  0  0  0
 19 60  1  0  0  0  0
 20 21  1  0  0  0  0
 20 61  1  0  0  0  0
 20 62  1  0  0  0  0
 21 22  1  0  0  0  0
 21 63  1  0  0  0  0
 21 64  1  0  0  0  0
 22 23  2  0  0  0  0
 22 65  1  0  0  0  0
 23 66  1  0  0  0  0
 23 67  1  0  0  0  0
 24 25  1  0  0  0  0
 24 68  1  0  0  0  0
 24 69  1  0  0  0  0
 25 26  1  0  0  0  0
 25 70  1  0  0  0  0
 25 71  1  0  0  0  0
 26 27  2  0  0  0  0
 26 32  1  0  0  0  0
 27 28  1  0  0  0  0
 27 72  1  0  0  0  0
 28 29  2  0  0  0  0
 28 30  1  0  0  0  0
 30 31  2  0  0  0  0
 30 73  1  0  0  0  0
 31 32  1  0  0  0  0
 31 74  1  0  0  0  0
 32 33  1  1  0  0  0
 33 75  1  0  0  0  0
 33 76  1  0  0  0  0
 33 77  1  0  0  0  0
M  END
>  <DRUGBANK_ID>
DB14639

>  <SECONDARY_ACCESSION_NUMBERS>
DBSALT001616

>  <COMMON_NAME>
Boldenone undecylenate

>  <CAS_NUMBER>
13103-34-9

>  <UNII>
ZS6D2ITA30

>  <SYNONYMS>
17beta-Hydroxyandrosta-1,4-dien-3-one 10-undecenoate; Boldenone 10-undecenoate; Boldenone undecylenate

$$$$
