
 OpenBabel10282417072D

 50 53  0  0  0  0  0  0  0  0999 V2000
   -0.9900   -0.3105    0.0000 O   0  0  0  0  0  0  0  0  0  0  0  0
    0.5753    1.0208    0.0000 O   0  0  0  0  0  0  0  0  0  0  0  0
   -1.2449    1.8090    0.0000 O   0  0  0  0  0  0  0  0  0  0  0  0
    0.8316   -1.0912    0.0000 O   0  0  0  0  0  0  0  0  0  0  0  0
   -4.7701    1.0973    0.0000 N   0  0  0  0  0  0  0  0  0  0  0  0
   -3.7082    0.1411    0.0000 N   0  0  0  0  0  0  0  0  0  0  0  0
    4.3171   -2.5560    0.0000 N   0  0  0  0  0  0  0  0  0  0  0  0
    4.6118   -1.1577    0.0000 N   0  0  0  0  0  0  0  0  0  0  0  0
   -0.2053    0.7694    0.0000 C   0  0  1  0  0  0  0  0  0  0  0  0
   -0.2053   -0.0556    0.0000 C   0  0  1  0  0  0  0  0  0  0  0  0
   -0.9900    1.0243    0.0000 C   0  0  2  0  0  0  0  0  0  0  0  0
    0.5753   -0.3070    0.0000 C   0  0  1  0  0  0  0  0  0  0  0  0
   -1.4749    0.3569    0.0000 C   0  0  0  0  0  0  0  0  0  0  0  0
    1.0568    0.3569    0.0000 C   0  0  0  0  0  0  0  0  0  0  0  0
   -2.0520    1.9806    0.0000 C   0  0  0  0  0  0  0  0  0  0  0  0
    1.6389   -1.2614    0.0000 C   0  0  0  0  0  0  0  0  0  0  0  0
   -2.6040    1.3674    0.0000 C   0  0  0  0  0  0  0  0  0  0  0  0
    2.1899   -0.6473    0.0000 C   0  0  0  0  0  0  0  0  0  0  0  0
    1.8952   -2.0456    0.0000 C   0  0  0  0  0  0  0  0  0  0  0  0
   -2.3069    2.7652    0.0000 C   0  0  0  0  0  0  0  0  0  0  0  0
   -3.4111    1.5389    0.0000 C   0  0  0  0  0  0  0  0  0  0  0  0
    2.9972   -0.8174    0.0000 C   0  0  0  0  0  0  0  0  0  0  0  0
    2.7025   -2.2157    0.0000 C   0  0  0  0  0  0  0  0  0  0  0  0
   -3.1139    2.9367    0.0000 C   0  0  0  0  0  0  0  0  0  0  0  0
    3.2535   -1.6016    0.0000 C   0  0  0  0  0  0  0  0  0  0  0  0
   -3.6660    2.3236    0.0000 C   0  0  0  0  0  0  0  0  0  0  0  0
   -3.9631    0.9258    0.0000 C   0  0  0  0  0  0  0  0  0  0  0  0
    4.0608   -1.7717    0.0000 C   0  0  0  0  0  0  0  0  0  0  0  0
   -0.2044    1.4294    0.0000 H   0  0  0  0  0  0  0  0  0  0  0  0
   -0.2044   -0.7156    0.0000 H   0  0  0  0  0  0  0  0  0  0  0  0
   -4.9282    1.5839    0.0000 H   0  0  0  0  0  0  0  0  0  0  0  0
   -5.1124    0.7172    0.0000 H   0  0  0  0  0  0  0  0  0  0  0  0
   -4.0504   -0.2389    0.0000 H   0  0  0  0  0  0  0  0  0  0  0  0
    3.9755   -2.9367    0.0000 H   0  0  0  0  0  0  0  0  0  0  0  0
    4.8177   -2.6615    0.0000 H   0  0  0  0  0  0  0  0  0  0  0  0
    5.1124   -1.2632    0.0000 H   0  0  0  0  0  0  0  0  0  0  0  0
   -0.2334    1.7809    0.0000 H   0  0  0  0  0  0  0  0  0  0  0  0
   -0.1797   -1.0652    0.0000 H   0  0  0  0  0  0  0  0  0  0  0  0
   -2.5449    0.3569    0.0000 H   0  0  0  0  0  0  0  0  0  0  0  0
   -1.9607    1.3103    0.0000 H   0  0  0  0  0  0  0  0  0  0  0  0
    2.1268    0.3569    0.0000 H   0  0  0  0  0  0  0  0  0  0  0  0
    1.5430   -0.5963    0.0000 H   0  0  0  0  0  0  0  0  0  0  0  0
   -2.2850    0.3859    0.0000 H   0  0  0  0  0  0  0  0  0  0  0  0
    1.8693    0.3336    0.0000 H   0  0  0  0  0  0  0  0  0  0  0  0
    1.2060   -2.8137    0.0000 H   0  0  0  0  0  0  0  0  0  0  0  0
   -1.6164    3.5321    0.0000 H   0  0  0  0  0  0  0  0  0  0  0  0
    3.6864   -0.0493    0.0000 H   0  0  0  0  0  0  0  0  0  0  0  0
    3.0231   -3.1966    0.0000 H   0  0  0  0  0  0  0  0  0  0  0  0
   -3.4328    3.9182    0.0000 H   0  0  0  0  0  0  0  0  0  0  0  0
   -4.6754    2.5382    0.0000 H   0  0  0  0  0  0  0  0  0  0  0  0
  1 10  1  0  0  0  0
  1 13  1  0  0  0  0
  2  9  1  0  0  0  0
  2 14  1  0  0  0  0
  3 15  1  0  0  0  0
  4 16  1  0  0  0  0
  5 27  1  0  0  0  0
  5 31  1  0  0  0  0
  5 32  1  0  0  0  0
  6 27  2  0  0  0  0
  6 33  1  0  0  0  0
  7 28  1  0  0  0  0
  7 34  1  0  0  0  0
  7 35  1  0  0  0  0
  8 28  2  0  0  0  0
  8 36  1  0  0  0  0
  9 10  1  0  0  0  0
  9 11  1  0  0  0  0
  9 29  1  6  0  0  0
 10 12  1  0  0  0  0
 10 30  1  6  0  0  0
 11  3  1  0  0  0  0
 11 13  1  0  0  0  0
 11 37  1  1  0  0  0
 12  4  1  0  0  0  0
 12 14  1  0  0  0  0
 12 38  1  6  0  0  0
 13 39  1  0  0  0  0
 13 40  1  0  0  0  0
 14 41  1  0  0  0  0
 14 42  1  0  0  0  0
 15 17  1  0  0  0  0
 15 20  2  0  0  0  0
 16 18  2  0  0  0  0
 16 19  1  0  0  0  0
 17 21  2  0  0  0  0
 17 43  1  0  0  0  0
 18 22  1  0  0  0  0
 18 44  1  0  0  0  0
 19 23  2  0  0  0  0
 19 45  1  0  0  0  0
 20 24  1  0  0  0  0
 20 46  1  0  0  0  0
 21 26  1  0  0  0  0
 21 27  1  0  0  0  0
 22 25  2  0  0  0  0
 22 47  1  0  0  0  0
 23 25  1  0  0  0  0
 23 48  1  0  0  0  0
 24 26  2  0  0  0  0
 24 49  1  0  0  0  0
 25 28  1  0  0  0  0
 26 50  1  0  0  0  0
M  END
>  <DRUGBANK_ID>
DB04793

>  <COMMON_NAME>
1,4:3,6-Dianhydro-2-O-(3-carbamimidoylphenyl)-5-O-(4-carbamimidoylphenyl)-D-glucitol

$$$$
