
 OpenBabel10282417072D

 42 43  0  0  0  0  0  0  0  0999 V2000
   -1.4256   -0.4162    0.0000 C   0  0  1  0  0  0  0  0  0  0  0  0
   -2.1527    0.0141    0.0000 C   0  0  0  0  0  0  0  0  0  0  0  0
   -2.8566   -0.4162    0.0000 C   0  0  0  0  0  0  0  0  0  0  0  0
   -2.1527    0.7798    0.0000 C   0  0  0  0  0  0  0  0  0  0  0  0
   -0.6935    0.0141    0.0000 C   0  0  2  0  0  0  0  0  0  0  0  0
    0.0103   -0.4162    0.0000 N   0  0  0  0  0  0  0  0  0  0  0  0
   -3.5862    0.8108    0.0000 C   0  0  0  0  0  0  0  0  0  0  0  0
    3.5784    0.8186    0.0000 C   0  0  0  0  0  0  0  0  0  0  0  0
   -2.8566    1.2232    0.0000 C   0  0  0  0  0  0  0  0  0  0  0  0
   -3.5862   -0.0141    0.0000 C   0  0  0  0  0  0  0  0  0  0  0  0
   -1.4256   -1.2388    0.0000 O   0  0  0  0  0  0  0  0  0  0  0  0
    2.1476    0.0141    0.0000 C   0  0  0  0  0  0  0  0  0  0  0  0
    3.5784    0.0141    0.0000 C   0  0  0  0  0  0  0  0  0  0  0  0
    2.8514    1.2388    0.0000 C   0  0  0  0  0  0  0  0  0  0  0  0
    2.8592   -0.3957    0.0000 C   0  0  0  0  0  0  0  0  0  0  0  0
    2.1476    0.8108    0.0000 C   0  0  0  0  0  0  0  0  0  0  0  0
    0.7141   -0.0012    0.0000 C   0  0  0  0  0  0  0  0  0  0  0  0
   -4.2901    1.2232    0.0000 O   0  0  0  0  0  0  0  0  0  0  0  0
    4.2901    1.2388    0.0000 O   0  0  0  0  0  0  0  0  0  0  0  0
    1.4256   -0.4162    0.0000 C   0  0  0  0  0  0  0  0  0  0  0  0
   -0.7141    0.8108    0.0000 C   0  0  0  0  0  0  0  0  0  0  0  0
   -2.3551   -0.9462    0.0000 H   0  0  0  0  0  0  0  0  0  0  0  0
   -2.8334   -1.4479    0.0000 H   0  0  0  0  0  0  0  0  0  0  0  0
   -1.2492    1.2785    0.0000 H   0  0  0  0  0  0  0  0  0  0  0  0
   -1.6290    0.5334    0.0000 H   0  0  0  0  0  0  0  0  0  0  0  0
    0.0022   -1.4362    0.0000 H   0  0  0  0  0  0  0  0  0  0  0  0
   -2.8320    2.2549    0.0000 H   0  0  0  0  0  0  0  0  0  0  0  0
   -4.4748   -0.5390    0.0000 H   0  0  0  0  0  0  0  0  0  0  0  0
   -2.2656   -1.7238    0.0000 H   0  0  0  0  0  0  0  0  0  0  0  0
    4.4707   -0.5044    0.0000 H   0  0  0  0  0  0  0  0  0  0  0  0
    2.8399    2.2707    0.0000 H   0  0  0  0  0  0  0  0  0  0  0  0
    2.8568   -1.4277    0.0000 H   0  0  0  0  0  0  0  0  0  0  0  0
    1.2480    1.3166    0.0000 H   0  0  0  0  0  0  0  0  0  0  0  0
    0.7116    1.0688    0.0000 H   0  0  0  0  0  0  0  0  0  0  0  0
    1.6413    0.5328    0.0000 H   0  0  0  0  0  0  0  0  0  0  0  0
   -4.2841    2.1602    0.0000 H   0  0  0  0  0  0  0  0  0  0  0  0
    5.1061    0.7782    0.0000 H   0  0  0  0  0  0  0  0  0  0  0  0
    1.4306   -1.4862    0.0000 H   0  0  0  0  0  0  0  0  0  0  0  0
    0.4990   -0.9513    0.0000 H   0  0  0  0  0  0  0  0  0  0  0  0
    0.1984    1.3696    0.0000 H   0  0  0  0  0  0  0  0  0  0  0  0
   -1.6543    1.3217    0.0000 H   0  0  0  0  0  0  0  0  0  0  0  0
   -0.7418    1.8804    0.0000 H   0  0  0  0  0  0  0  0  0  0  0  0
  1 11  1  0  0  0  0
  1 22  1  6  0  0  0
  2  1  1  0  0  0  0
  3  2  2  0  0  0  0
  3 23  1  0  0  0  0
  4  2  1  0  0  0  0
  4 24  1  0  0  0  0
  5  1  1  0  0  0  0
  5 21  1  0  0  0  0
  5 25  1  6  0  0  0
  6  5  1  0  0  0  0
  6 26  1  0  0  0  0
  7  9  1  0  0  0  0
  7 10  2  0  0  0  0
  8 14  2  0  0  0  0
  9  4  2  0  0  0  0
  9 27  1  0  0  0  0
 10  3  1  0  0  0  0
 10 28  1  0  0  0  0
 11 29  1  0  0  0  0
 12 20  1  0  0  0  0
 13 15  2  0  0  0  0
 13  8  1  0  0  0  0
 13 30  1  0  0  0  0
 14 16  1  0  0  0  0
 14 31  1  0  0  0  0
 15 12  1  0  0  0  0
 15 32  1  0  0  0  0
 16 12  2  0  0  0  0
 16 33  1  0  0  0  0
 17  6  1  0  0  0  0
 17 34  1  0  0  0  0
 17 35  1  0  0  0  0
 18  7  1  0  0  0  0
 18 36  1  0  0  0  0
 19  8  1  0  0  0  0
 19 37  1  0  0  0  0
 20 17  1  0  0  0  0
 20 38  1  0  0  0  0
 20 39  1  0  0  0  0
 21 40  1  0  0  0  0
 21 41  1  0  0  0  0
 21 42  1  0  0  0  0
M  END
>  <DRUGBANK_ID>
DB00867

>  <SECONDARY_ACCESSION_NUMBERS>
APRD00541

>  <COMMON_NAME>
Ritodrine

>  <CAS_NUMBER>
26652-09-5

>  <UNII>
I0Q6O6740J

>  <SYNONYMS>
p-Hydroxy-alpha-(1-((p-hydroxyphenethyl)amino)ethyl)benzyl alcohol; Ritodrina; Ritodrine; Ritodrinium

$$$$
