
 OpenBabel10282417072D

 19 19  0  0  1  0  0  0  0  0999 V2000
   -0.1467    2.3518    0.0000 N   0  0  0  0  0  0  0  0  0  0  0  0
    0.5678    1.9393    0.0000 C   0  0  0  0  0  0  0  0  0  0  0  0
    0.5678    1.1143    0.0000 C   0  0  2  0  0  0  0  0  0  0  0  0
    1.2352    0.6294    0.0000 C   0  0  0  0  0  0  0  0  0  0  0  0
    0.9803   -0.1553    0.0000 C   0  0  0  0  0  0  0  0  0  0  0  0
    0.1553   -0.1553    0.0000 C   0  0  0  0  0  0  0  0  0  0  0  0
   -0.0997    0.6294    0.0000 N   0  0  0  0  0  0  0  0  0  0  0  0
   -0.1467    3.3718    0.0000 H   0  0  0  0  0  0  0  0  0  0  0  0
   -1.0300    1.8418    0.0000 H   0  0  0  0  0  0  0  0  0  0  0  0
    1.4944    2.4743    0.0000 H   0  0  0  0  0  0  0  0  0  0  0  0
    1.4944    1.4043    0.0000 H   0  0  0  0  0  0  0  0  0  0  0  0
    1.5212    1.6001    0.0000 H   0  0  0  0  0  0  0  0  0  0  0  0
    2.2528    0.9601    0.0000 H   0  0  0  0  0  0  0  0  0  0  0  0
    1.9918   -0.1272    0.0000 H   0  0  0  0  0  0  0  0  0  0  0  0
    1.6093   -1.0209    0.0000 H   0  0  0  0  0  0  0  0  0  0  0  0
    0.4945   -1.1087    0.0000 H   0  0  0  0  0  0  0  0  0  0  0  0
   -0.4736   -1.0210    0.0000 H   0  0  0  0  0  0  0  0  0  0  0  0
   -0.9015    0.0121    0.0000 H   0  0  0  0  0  0  0  0  0  0  0  0
   -1.0698    0.9446    0.0000 H   0  0  0  0  0  0  0  0  0  0  0  0
  1  2  1  0  0  0  0
  1  8  1  0  0  0  0
  1  9  1  0  0  0  0
  2 10  1  0  0  0  0
  2 11  1  0  0  0  0
  3  2  1  0  0  0  0
  3  4  1  0  0  0  0
  3  7  1  0  0  0  0
  3 12  1  1  0  0  0
  4  5  1  0  0  0  0
  4 13  1  0  0  0  0
  4 14  1  0  0  0  0
  5  6  1  0  0  0  0
  5 15  1  0  0  0  0
  5 16  1  0  0  0  0
  6  7  1  0  0  0  0
  6 17  1  0  0  0  0
  6 18  1  0  0  0  0
  7 19  1  0  0  0  0
M  END
>  <DRUGBANK_ID>
DB03253

>  <SECONDARY_ACCESSION_NUMBERS>
EXPT02476

>  <COMMON_NAME>
(2s)-Pyrrolidin-2-Ylmethylamine

$$$$
