798
 OpenBabel10282417072D

 47 50  0  0  0  0  0  0  0  0999 V2000
    3.2701    0.4394    0.0000 O   0  0  0  0  0  0  0  0  0  0  0  0
    2.5556    0.0269    0.0000 C   0  0  0  0  0  0  0  0  0  0  0  0
    2.5556   -0.7981    0.0000 C   0  0  0  0  0  0  0  0  0  0  0  0
    3.2701   -1.2106    0.0000 C   0  0  0  0  0  0  0  0  0  0  0  0
    3.2701   -2.0356    0.0000 C   0  0  0  0  0  0  0  0  0  0  0  0
    2.5556   -2.4481    0.0000 C   0  0  0  0  0  0  0  0  0  0  0  0
    2.5556   -3.2731    0.0000 C   0  0  0  0  0  0  0  0  0  0  0  0
    3.2230   -3.7580    0.0000 C   0  0  0  0  0  0  0  0  0  0  0  0
    2.9681   -4.5426    0.0000 S   0  0  0  0  0  0  0  0  0  0  0  0
    2.1431   -4.5426    0.0000 C   0  0  0  0  0  0  0  0  0  0  0  0
    1.8881   -3.7580    0.0000 C   0  0  0  0  0  0  0  0  0  0  0  0
    1.8411   -2.0356    0.0000 C   0  0  0  0  0  0  0  0  0  0  0  0
    1.8411   -1.2106    0.0000 C   0  0  0  0  0  0  0  0  0  0  0  0
    1.8411    0.4394    0.0000 C   0  0  0  0  0  0  0  0  0  0  0  0
    1.8411    1.2644    0.0000 C   0  0  0  0  0  0  0  0  0  0  0  0
    1.1266    1.6769    0.0000 C   0  0  0  0  0  0  0  0  0  0  0  0
    0.4122    1.2644    0.0000 C   0  0  0  0  0  0  0  0  0  0  0  0
    0.4122    0.4394    0.0000 C   0  0  0  0  0  0  0  0  0  0  0  0
    1.1266    0.0269    0.0000 C   0  0  0  0  0  0  0  0  0  0  0  0
   -0.3023    1.6769    0.0000 O   0  0  0  0  0  0  0  0  0  0  0  0
   -1.0168    1.2644    0.0000 C   0  0  0  0  0  0  0  0  0  0  0  0
   -1.7312    1.6769    0.0000 C   0  0  2  0  0  0  0  0  0  0  0  0
   -2.4849    1.3414    0.0000 N   0  0  0  0  0  0  0  0  0  0  0  0
   -3.0369    1.9544    0.0000 C   0  0  0  0  0  0  0  0  0  0  0  0
   -2.6244    2.6689    0.0000 C   0  0  0  0  0  0  0  0  0  0  0  0
   -1.8175    2.4974    0.0000 C   0  0  0  0  0  0  0  0  0  0  0  0
   -1.7618    1.0938    0.0000 H   0  0  0  0  0  0  0  0  0  0  0  0
    4.1638   -0.6946    0.0000 H   0  0  0  0  0  0  0  0  0  0  0  0
    4.1638   -2.5516    0.0000 H   0  0  0  0  0  0  0  0  0  0  0  0
    4.2045   -3.4391    0.0000 H   0  0  0  0  0  0  0  0  0  0  0  0
    1.5365   -5.3775    0.0000 H   0  0  0  0  0  0  0  0  0  0  0  0
    0.9066   -3.4391    0.0000 H   0  0  0  0  0  0  0  0  0  0  0  0
    0.9474   -2.5516    0.0000 H   0  0  0  0  0  0  0  0  0  0  0  0
    0.9474   -0.6946    0.0000 H   0  0  0  0  0  0  0  0  0  0  0  0
    2.7348    1.7804    0.0000 H   0  0  0  0  0  0  0  0  0  0  0  0
    1.1266    2.7089    0.0000 H   0  0  0  0  0  0  0  0  0  0  0  0
   -0.4815   -0.0766    0.0000 H   0  0  0  0  0  0  0  0  0  0  0  0
    1.1266   -1.0051    0.0000 H   0  0  0  0  0  0  0  0  0  0  0  0
   -1.0168    0.1944    0.0000 H   0  0  0  0  0  0  0  0  0  0  0  0
   -1.9435    0.7294    0.0000 H   0  0  0  0  0  0  0  0  0  0  0  0
   -2.6970    0.3437    0.0000 H   0  0  0  0  0  0  0  0  0  0  0  0
   -4.1010    1.8425    0.0000 H   0  0  0  0  0  0  0  0  0  0  0  0
   -3.6197    2.8518    0.0000 H   0  0  0  0  0  0  0  0  0  0  0  0
   -3.0596    3.6464    0.0000 H   0  0  0  0  0  0  0  0  0  0  0  0
   -1.9510    3.5005    0.0000 H   0  0  0  0  0  0  0  0  0  0  0  0
   -1.0224    3.2134    0.0000 H   0  0  0  0  0  0  0  0  0  0  0  0
   -2.0945    3.5309    0.0000 H   0  0  0  0  0  0  0  0  0  0  0  0
  1  2  2  0  0  0  0
  2  3  1  0  0  0  0
  3  4  1  0  0  0  0
  4  5  2  0  0  0  0
  4 28  1  0  0  0  0
  5 29  1  0  0  0  0
  6  5  1  0  0  0  0
  6  7  1  0  0  0  0
  7  8  2  0  0  0  0
  8  9  1  0  0  0  0
  8 30  1  0  0  0  0
 10  9  1  0  0  0  0
 10 31  1  0  0  0  0
 11  7  1  0  0  0  0
 11 10  2  0  0  0  0
 11 32  1  0  0  0  0
 12  6  2  0  0  0  0
 12 33  1  0  0  0  0
 13  3  2  0  0  0  0
 13 12  1  0  0  0  0
 13 34  1  0  0  0  0
 14  2  1  0  0  0  0
 14 19  1  0  0  0  0
 15 14  2  0  0  0  0
 15 35  1  0  0  0  0
 16 15  1  0  0  0  0
 16 17  2  0  0  0  0
 16 36  1  0  0  0  0
 17 18  1  0  0  0  0
 18 19  2  0  0  0  0
 18 37  1  0  0  0  0
 19 38  1  0  0  0  0
 20 17  1  0  0  0  0
 21 20  1  0  0  0  0
 21 39  1  0  0  0  0
 21 40  1  0  0  0  0
 22 21  1  0  0  0  0
 22 23  1  0  0  0  0
 22 26  1  0  0  0  0
 22 27  1  1  0  0  0
 23 24  1  0  0  0  0
 23 41  1  0  0  0  0
 24 25  1  0  0  0  0
 24 42  1  0  0  0  0
 24 43  1  0  0  0  0
 25 44  1  0  0  0  0
 25 45  1  0  0  0  0
 26 25  1  0  0  0  0
 26 46  1  0  0  0  0
 26 47  1  0  0  0  0
M  END
>  <DRUGBANK_ID>
DB07237

>  <COMMON_NAME>
{4-[(2R)-pyrrolidin-2-ylmethoxy]phenyl}(4-thiophen-3-ylphenyl)methanone

$$$$
