BNI
 OpenBabel10282417072D

 45 47  0  0  0  0  0  0  0  0999 V2000
    1.4557   -0.5096    0.0000 C   0  0  0  0  0  0  0  0  0  0  0  0
    0.7413   -0.0971    0.0000 C   0  0  0  0  0  0  0  0  0  0  0  0
    0.0268   -0.5096    0.0000 C   0  0  0  0  0  0  0  0  0  0  0  0
   -0.6877   -0.0971    0.0000 C   0  0  0  0  0  0  0  0  0  0  0  0
   -1.4021   -0.5096    0.0000 C   0  0  0  0  0  0  0  0  0  0  0  0
   -2.1166   -0.0971    0.0000 C   0  0  1  0  0  0  0  0  0  0  0  0
   -3.4223    0.1804    0.0000 C   0  0  0  0  0  0  0  0  0  0  0  0
   -2.2029    0.7234    0.0000 C   0  0  2  0  0  0  0  0  0  0  0  0
   -3.0098    0.8949    0.0000 C   0  0  1  0  0  0  0  0  0  0  0  0
   -2.3424    2.0509    0.0000 C   0  0  0  0  0  0  0  0  0  0  0  0
    1.4557   -1.3346    0.0000 O   0  0  0  0  0  0  0  0  0  0  0  0
   -2.1709    2.8579    0.0000 O   0  0  0  0  0  0  0  0  0  0  0  0
   -3.0961    1.7154    0.0000 N   0  0  0  0  0  0  0  0  0  0  0  0
   -1.7904    1.4378    0.0000 N   0  0  0  0  0  0  0  0  0  0  0  0
   -2.8703   -0.4327    0.0000 S   0  0  0  0  0  0  0  0  0  0  0  0
    2.1702   -0.0971    0.0000 N   0  0  0  0  0  0  0  0  0  0  0  0
    2.8847   -0.5096    0.0000 C   0  0  0  0  0  0  0  0  0  0  0  0
    3.5991   -0.0971    0.0000 C   0  0  0  0  0  0  0  0  0  0  0  0
    4.3136   -0.5096    0.0000 C   0  0  0  0  0  0  0  0  0  0  0  0
    4.3136   -1.3346    0.0000 C   0  0  0  0  0  0  0  0  0  0  0  0
    3.5991   -1.7471    0.0000 C   0  0  0  0  0  0  0  0  0  0  0  0
    2.8847   -1.3346    0.0000 C   0  0  0  0  0  0  0  0  0  0  0  0
    5.0281   -1.7471    0.0000 N   0  3  0  0  0  0  0  0  0  0  0  0
    5.7426   -1.3346    0.0000 O   0  0  0  0  0  0  0  0  0  0  0  0
    5.0281   -2.5721    0.0000 O   0  5  0  0  0  0  0  0  0  0  0  0
   -1.6269    0.2209    0.0000 H   0  0  0  0  0  0  0  0  0  0  0  0
   -1.6317    0.6020    0.0000 H   0  0  0  0  0  0  0  0  0  0  0  0
   -3.5810    1.0163    0.0000 H   0  0  0  0  0  0  0  0  0  0  0  0
    0.7413    0.9729    0.0000 H   0  0  0  0  0  0  0  0  0  0  0  0
   -0.1853    0.4379    0.0000 H   0  0  0  0  0  0  0  0  0  0  0  0
    0.0268   -1.5796    0.0000 H   0  0  0  0  0  0  0  0  0  0  0  0
   -0.8998   -1.0446    0.0000 H   0  0  0  0  0  0  0  0  0  0  0  0
   -0.6877    0.9729    0.0000 H   0  0  0  0  0  0  0  0  0  0  0  0
   -1.6144    0.4379    0.0000 H   0  0  0  0  0  0  0  0  0  0  0  0
   -1.4021   -1.5796    0.0000 H   0  0  0  0  0  0  0  0  0  0  0  0
   -2.3287   -1.0446    0.0000 H   0  0  0  0  0  0  0  0  0  0  0  0
   -4.4864    0.0686    0.0000 H   0  0  0  0  0  0  0  0  0  0  0  0
   -3.8058   -0.8185    0.0000 H   0  0  0  0  0  0  0  0  0  0  0  0
   -3.9487    2.2077    0.0000 H   0  0  0  0  0  0  0  0  0  0  0  0
   -0.8113    1.5407    0.0000 H   0  0  0  0  0  0  0  0  0  0  0  0
    2.1702    0.8874    0.0000 H   0  0  0  0  0  0  0  0  0  0  0  0
    3.5991    0.9349    0.0000 H   0  0  0  0  0  0  0  0  0  0  0  0
    5.2073    0.0064    0.0000 H   0  0  0  0  0  0  0  0  0  0  0  0
    3.5991   -2.7791    0.0000 H   0  0  0  0  0  0  0  0  0  0  0  0
    1.9910   -1.8506    0.0000 H   0  0  0  0  0  0  0  0  0  0  0  0
  1  2  1  0  0  0  0
  1 11  2  0  0  0  0
  1 16  1  0  0  0  0
  2  3  1  0  0  0  0
  2 29  1  0  0  0  0
  2 30  1  0  0  0  0
  3  4  1  0  0  0  0
  3 31  1  0  0  0  0
  3 32  1  0  0  0  0
  4  5  1  0  0  0  0
  4 33  1  0  0  0  0
  4 34  1  0  0  0  0
  5 35  1  0  0  0  0
  5 36  1  0  0  0  0
  6  5  1  0  0  0  0
  6  8  1  0  0  0  0
  6 15  1  0  0  0  0
  6 26  1  1  0  0  0
  7  9  1  0  0  0  0
  7 15  1  0  0  0  0
  7 37  1  0  0  0  0
  7 38  1  0  0  0  0
  8  9  1  0  0  0  0
  8 14  1  0  0  0  0
  8 27  1  1  0  0  0
  9 13  1  0  0  0  0
  9 28  1  1  0  0  0
 10 12  2  0  0  0  0
 10 13  1  0  0  0  0
 10 14  1  0  0  0  0
 13 39  1  0  0  0  0
 14 40  1  0  0  0  0
 16 17  1  0  0  0  0
 16 41  1  0  0  0  0
 17 18  2  0  0  0  0
 17 22  1  0  0  0  0
 18 19  1  0  0  0  0
 18 42  1  0  0  0  0
 19 20  2  0  0  0  0
 19 43  1  0  0  0  0
 20 21  1  0  0  0  0
 20 23  1  0  0  0  0
 21 22  2  0  0  0  0
 21 44  1  0  0  0  0
 22 45  1  0  0  0  0
 23 24  2  0  0  0  0
 23 25  1  0  0  0  0
M  CHG  2  23   1  25  -1
M  END
>  <DRUGBANK_ID>
DB03549

>  <SECONDARY_ACCESSION_NUMBERS>
EXPT00731

>  <COMMON_NAME>
Biotinyl P-Nitroaniline

$$$$
