
 OpenBabel10282417072D

 30 32  0  0  0  0  0  0  0  0999 V2000
    0.1659   -0.4951    0.0000 C   0  0  0  0  0  0  0  0  0  0  0  0
    1.4710   -0.1459    0.0000 N   0  0  0  0  0  0  0  0  0  0  0  0
    0.6639   -0.0085    0.0000 C   0  0  0  0  0  0  0  0  0  0  0  0
    0.6811   -1.8346    0.0000 N   0  0  0  0  0  0  0  0  0  0  0  0
    0.1602   -1.3307    0.0000 C   0  0  0  0  0  0  0  0  0  0  0  0
    1.4882   -1.6914    0.0000 C   0  0  0  0  0  0  0  0  0  0  0  0
   -0.5552   -0.0944    0.0000 C   0  0  0  0  0  0  0  0  0  0  0  0
    1.8488   -0.9015    0.0000 C   0  0  0  0  0  0  0  0  0  0  0  0
    0.4178    0.7756    0.0000 C   0  0  0  0  0  0  0  0  0  0  0  0
   -0.5552   -1.7429    0.0000 C   0  0  0  0  0  0  0  0  0  0  0  0
    1.9862   -2.3439    0.0000 O   0  0  0  0  0  0  0  0  0  0  0  0
   -1.2650   -0.5066    0.0000 C   0  0  0  0  0  0  0  0  0  0  0  0
   -1.2650   -1.3307    0.0000 C   0  0  0  0  0  0  0  0  0  0  0  0
   -1.9862   -0.0944    0.0000 Cl  0  0  0  0  0  0  0  0  0  0  0  0
    0.9730    1.3823    0.0000 C   0  0  0  0  0  0  0  0  0  0  0  0
   -0.3891    0.9530    0.0000 C   0  0  0  0  0  0  0  0  0  0  0  0
   -0.6410    1.7430    0.0000 C   0  0  0  0  0  0  0  0  0  0  0  0
    0.7326    2.1664    0.0000 C   0  0  0  0  0  0  0  0  0  0  0  0
   -0.0743    2.3439    0.0000 C   0  0  0  0  0  0  0  0  0  0  0  0
    0.3934   -2.7761    0.0000 H   0  0  0  0  0  0  0  0  0  0  0  0
   -0.5650    0.9376    0.0000 H   0  0  0  0  0  0  0  0  0  0  0  0
    2.9186   -0.8826    0.0000 H   0  0  0  0  0  0  0  0  0  0  0  0
    2.4353   -1.7964    0.0000 H   0  0  0  0  0  0  0  0  0  0  0  0
   -0.5570   -2.7749    0.0000 H   0  0  0  0  0  0  0  0  0  0  0  0
   -2.1594   -1.8456    0.0000 H   0  0  0  0  0  0  0  0  0  0  0  0
    1.9797    1.1553    0.0000 H   0  0  0  0  0  0  0  0  0  0  0  0
   -1.0844    0.1904    0.0000 H   0  0  0  0  0  0  0  0  0  0  0  0
   -1.6473    1.9720    0.0000 H   0  0  0  0  0  0  0  0  0  0  0  0
    1.4322    2.9251    0.0000 H   0  0  0  0  0  0  0  0  0  0  0  0
   -0.3784    3.3301    0.0000 H   0  0  0  0  0  0  0  0  0  0  0  0
  2  3  2  0  0  0  0
  3  1  1  0  0  0  0
  4  5  1  0  0  0  0
  4 20  1  0  0  0  0
  5  1  1  0  0  0  0
  6  4  1  0  0  0  0
  7  1  2  0  0  0  0
  7 21  1  0  0  0  0
  8  2  1  0  0  0  0
  8  6  1  0  0  0  0
  8 22  1  0  0  0  0
  8 23  1  0  0  0  0
  9  3  1  0  0  0  0
 10  5  2  0  0  0  0
 10 13  1  0  0  0  0
 10 24  1  0  0  0  0
 11  6  2  0  0  0  0
 12  7  1  0  0  0  0
 13 12  2  0  0  0  0
 13 25  1  0  0  0  0
 14 12  1  0  0  0  0
 15  9  1  0  0  0  0
 15 26  1  0  0  0  0
 16  9  2  0  0  0  0
 16 27  1  0  0  0  0
 17 16  1  0  0  0  0
 17 28  1  0  0  0  0
 18 15  2  0  0  0  0
 18 19  1  0  0  0  0
 18 29  1  0  0  0  0
 19 17  2  0  0  0  0
 19 30  1  0  0  0  0
M  END
>  <DRUGBANK_ID>
DB14028

>  <COMMON_NAME>
Nordazepam

>  <CAS_NUMBER>
1088-11-5

>  <UNII>
67220MCM01

>  <SYNONYMS>
Desmethyldiazepam; N-desmethyldiazepam; Nordazepam; Nordazepam CIV; Nordazepamum; Nordiazepam

$$$$
