PU4
 OpenBabel10282417072D

 44 46  0  0  0  0  0  0  0  0999 V2000
    1.3877    3.5210    0.0000 C   0  0  0  0  0  0  0  0  0  0  0  0
    0.8356    2.9079    0.0000 C   0  0  0  0  0  0  0  0  0  0  0  0
    1.0906    2.1233    0.0000 C   0  0  0  0  0  0  0  0  0  0  0  0
    0.5386    1.5102    0.0000 C   0  0  0  0  0  0  0  0  0  0  0  0
    0.7935    0.7256    0.0000 N   0  0  0  0  0  0  0  0  0  0  0  0
    1.5781    0.4706    0.0000 C   0  0  0  0  0  0  0  0  0  0  0  0
    2.2926    0.8831    0.0000 N   0  0  0  0  0  0  0  0  0  0  0  0
    3.0071    0.4706    0.0000 C   0  0  0  0  0  0  0  0  0  0  0  0
    3.0071   -0.3544    0.0000 N   0  0  0  0  0  0  0  0  0  0  0  0
    1.5781   -0.3544    0.0000 C   0  0  0  0  0  0  0  0  0  0  0  0
    2.2926   -0.7669    0.0000 C   0  0  0  0  0  0  0  0  0  0  0  0
    2.2926   -1.5919    0.0000 N   0  0  0  0  0  0  0  0  0  0  0  0
    0.7935   -0.6093    0.0000 N   0  0  0  0  0  0  0  0  0  0  0  0
    0.3086    0.0581    0.0000 C   0  0  0  0  0  0  0  0  0  0  0  0
   -0.5164    0.0581    0.0000 C   0  0  0  0  0  0  0  0  0  0  0  0
   -0.9289   -0.6564    0.0000 C   0  0  0  0  0  0  0  0  0  0  0  0
   -0.5164   -1.3708    0.0000 C   0  0  0  0  0  0  0  0  0  0  0  0
   -0.9289   -2.0853    0.0000 C   0  0  0  0  0  0  0  0  0  0  0  0
   -1.7539   -0.6564    0.0000 C   0  0  0  0  0  0  0  0  0  0  0  0
   -2.1664   -1.3708    0.0000 C   0  0  0  0  0  0  0  0  0  0  0  0
   -1.7539   -2.0853    0.0000 C   0  0  0  0  0  0  0  0  0  0  0  0
   -2.1664   -2.7998    0.0000 O   0  0  0  0  0  0  0  0  0  0  0  0
   -1.7539   -3.5142    0.0000 C   0  0  0  0  0  0  0  0  0  0  0  0
    2.4343    3.2985    0.0000 H   0  0  0  0  0  0  0  0  0  0  0  0
    1.0571    4.5386    0.0000 H   0  0  0  0  0  0  0  0  0  0  0  0
    2.1037    4.3161    0.0000 H   0  0  0  0  0  0  0  0  0  0  0  0
   -0.2110    3.1304    0.0000 H   0  0  0  0  0  0  0  0  0  0  0  0
    0.1197    2.1127    0.0000 H   0  0  0  0  0  0  0  0  0  0  0  0
    2.1372    1.9009    0.0000 H   0  0  0  0  0  0  0  0  0  0  0  0
    1.4213    1.1057    0.0000 H   0  0  0  0  0  0  0  0  0  0  0  0
   -0.5080    1.7327    0.0000 H   0  0  0  0  0  0  0  0  0  0  0  0
   -0.1774    0.7150    0.0000 H   0  0  0  0  0  0  0  0  0  0  0  0
    3.9008    0.9866    0.0000 H   0  0  0  0  0  0  0  0  0  0  0  0
    1.4400   -2.0842    0.0000 H   0  0  0  0  0  0  0  0  0  0  0  0
    3.1452   -2.0842    0.0000 H   0  0  0  0  0  0  0  0  0  0  0  0
   -1.0514    0.9847    0.0000 H   0  0  0  0  0  0  0  0  0  0  0  0
   -1.5864    0.0581    0.0000 H   0  0  0  0  0  0  0  0  0  0  0  0
    0.5156   -1.3708    0.0000 H   0  0  0  0  0  0  0  0  0  0  0  0
   -0.4129   -2.9790    0.0000 H   0  0  0  0  0  0  0  0  0  0  0  0
   -2.2699    0.2373    0.0000 H   0  0  0  0  0  0  0  0  0  0  0  0
   -3.1984   -1.3708    0.0000 H   0  0  0  0  0  0  0  0  0  0  0  0
   -2.2889   -4.4409    0.0000 H   0  0  0  0  0  0  0  0  0  0  0  0
   -0.6839   -3.5142    0.0000 H   0  0  0  0  0  0  0  0  0  0  0  0
   -1.2189   -4.4408    0.0000 H   0  0  0  0  0  0  0  0  0  0  0  0
  1  2  1  0  0  0  0
  1 24  1  0  0  0  0
  1 25  1  0  0  0  0
  1 26  1  0  0  0  0
  2  3  1  0  0  0  0
  2 27  1  0  0  0  0
  2 28  1  0  0  0  0
  3  4  1  0  0  0  0
  3 29  1  0  0  0  0
  3 30  1  0  0  0  0
  4  5  1  0  0  0  0
  4 31  1  0  0  0  0
  4 32  1  0  0  0  0
  5  6  1  0  0  0  0
  5 14  1  0  0  0  0
  6  7  2  0  0  0  0
  6 10  1  0  0  0  0
  7  8  1  0  0  0  0
  8  9  2  0  0  0  0
  8 33  1  0  0  0  0
  9 11  1  0  0  0  0
 10 11  2  0  0  0  0
 10 13  1  0  0  0  0
 11 12  1  0  0  0  0
 12 34  1  0  0  0  0
 12 35  1  0  0  0  0
 13 14  2  0  0  0  0
 14 15  1  0  0  0  0
 15 16  1  0  0  0  0
 15 36  1  0  0  0  0
 15 37  1  0  0  0  0
 16 17  2  0  0  0  0
 16 19  1  0  0  0  0
 17 18  1  0  0  0  0
 17 38  1  0  0  0  0
 18 21  2  0  0  0  0
 18 39  1  0  0  0  0
 19 20  2  0  0  0  0
 19 40  1  0  0  0  0
 20 21  1  0  0  0  0
 20 41  1  0  0  0  0
 21 22  1  0  0  0  0
 22 23  1  0  0  0  0
 23 42  1  0  0  0  0
 23 43  1  0  0  0  0
 23 44  1  0  0  0  0
M  END
>  <DRUGBANK_ID>
DB03899

>  <SECONDARY_ACCESSION_NUMBERS>
EXPT02695

>  <COMMON_NAME>
9-Butyl-8-(4-Methoxybenzyl)-9h-Purin-6-Amine

$$$$
