
 OpenBabel10282417072D

 85 88  0  0  0  0  0  0  0  0999 V2000
   -2.3805   -1.1587    0.0000 C   0  0  0  0  0  0  0  0  0  0  0  0
   -3.0949   -1.5712    0.0000 C   0  0  0  0  0  0  0  0  0  0  0  0
   -0.9515   -2.8087    0.0000 C   0  0  0  0  0  0  0  0  0  0  0  0
   -0.2371   -2.3962    0.0000 C   0  0  0  0  0  0  0  0  0  0  0  0
   -1.6660   -1.5712    0.0000 C   0  0  2  0  0  0  0  0  0  0  0  0
   -0.2371    0.0787    0.0000 C   0  0  0  0  0  0  0  0  0  0  0  0
    1.2619   -1.4136    0.0000 C   0  0  0  0  0  0  0  0  0  0  0  0
   -1.6660   -0.7462    0.0000 C   0  0  0  0  0  0  0  0  0  0  0  0
   -0.9515   -1.1587    0.0000 C   0  0  1  0  0  0  0  0  0  0  0  0
   -0.9515   -1.9837    0.0000 H   0  0  0  0  0  0  0  0  0  0  0  0
   -0.2371   -1.5712    0.0000 C   0  0  1  0  0  0  0  0  0  0  0  0
    0.4773   -1.1587    0.0000 C   0  0  2  0  0  0  0  0  0  0  0  0
    0.4773   -0.3337    0.0000 C   0  0  2  0  0  0  0  0  0  0  0  0
   -0.2371   -0.7462    0.0000 C   0  0  0  0  0  0  0  0  0  0  0  0
    0.4773    0.4913    0.0000 H   0  0  0  0  0  0  0  0  0  0  0  0
    0.4773   -1.9837    0.0000 C   0  0  0  0  0  0  0  0  0  0  0  0
   -1.6660   -2.3962    0.0000 C   0  0  2  0  0  0  0  0  0  0  0  0
   -1.6660   -3.2212    0.0000 H   0  0  0  0  0  0  0  0  0  0  0  0
   -3.0949   -2.3962    0.0000 C   0  0  1  0  0  0  0  0  0  0  0  0
   -3.8094   -2.8087    0.0000 O   0  0  0  0  0  0  0  0  0  0  0  0
   -2.3805   -2.8087    0.0000 C   0  0  1  0  0  0  0  0  0  0  0  0
   -2.3805   -3.6337    0.0000 C   0  0  0  0  0  0  0  0  0  0  0  0
    1.7469   -0.7462    0.0000 C   0  0  2  0  0  0  0  0  0  0  0  0
    2.5719   -0.7462    0.0000 O   0  0  0  0  0  0  0  0  0  0  0  0
    3.8094   -1.4607    0.0000 C   0  0  0  0  0  0  0  0  0  0  0  0
    2.9844   -1.4607    0.0000 C   0  0  0  0  0  0  0  0  0  0  0  0
    2.5719   -2.1751    0.0000 O   0  0  0  0  0  0  0  0  0  0  0  0
    1.2619   -0.0788    0.0000 C   0  0  0  0  0  0  0  0  0  0  0  0
   -0.9515   -0.3337    0.0000 C   0  0  2  0  0  0  0  0  0  0  0  0
    1.2619    0.7461    0.0000 C   0  0  0  0  0  0  0  0  0  0  0  0
    1.9764    1.9837    0.0000 O   0  0  0  0  0  0  0  0  0  0  0  0
    1.9764    1.1587    0.0000 C   0  0  0  0  0  0  0  0  0  0  0  0
    2.6908    0.7461    0.0000 O   0  0  0  0  0  0  0  0  0  0  0  0
    0.5474    1.1587    0.0000 C   0  0  0  0  0  0  0  0  0  0  0  0
    0.5474    1.9837    0.0000 C   0  0  0  0  0  0  0  0  0  0  0  0
    1.2619    2.3962    0.0000 C   0  0  0  0  0  0  0  0  0  0  0  0
    0.5474    3.6337    0.0000 C   0  0  0  0  0  0  0  0  0  0  0  0
    1.2619    3.2212    0.0000 C   0  0  0  0  0  0  0  0  0  0  0  0
    1.9763    3.6337    0.0000 C   0  0  0  0  0  0  0  0  0  0  0  0
   -1.6660    0.0787    0.0000 O   0  0  0  0  0  0  0  0  0  0  0  0
   -2.3805   -0.0887    0.0000 H   0  0  0  0  0  0  0  0  0  0  0  0
   -3.3072   -0.6237    0.0000 H   0  0  0  0  0  0  0  0  0  0  0  0
   -4.0216   -1.0362    0.0000 H   0  0  0  0  0  0  0  0  0  0  0  0
   -4.0215   -2.1062    0.0000 H   0  0  0  0  0  0  0  0  0  0  0  0
   -0.9515   -3.8787    0.0000 H   0  0  0  0  0  0  0  0  0  0  0  0
   -1.8781   -3.3437    0.0000 H   0  0  0  0  0  0  0  0  0  0  0  0
    0.6896   -2.9312    0.0000 H   0  0  0  0  0  0  0  0  0  0  0  0
   -0.2371   -3.4662    0.0000 H   0  0  0  0  0  0  0  0  0  0  0  0
   -0.2371    1.1487    0.0000 H   0  0  0  0  0  0  0  0  0  0  0  0
   -1.1637    0.6137    0.0000 H   0  0  0  0  0  0  0  0  0  0  0  0
    1.5925   -2.4312    0.0000 H   0  0  0  0  0  0  0  0  0  0  0  0
    2.3187   -1.5811    0.0000 H   0  0  0  0  0  0  0  0  0  0  0  0
   -0.7394   -0.2112    0.0000 H   0  0  0  0  0  0  0  0  0  0  0  0
   -2.5926   -0.2112    0.0000 H   0  0  0  0  0  0  0  0  0  0  0  0
   -1.6660    0.3238    0.0000 H   0  0  0  0  0  0  0  0  0  0  0  0
    0.6895   -0.2112    0.0000 H   0  0  0  0  0  0  0  0  0  0  0  0
   -1.1637   -0.2112    0.0000 H   0  0  0  0  0  0  0  0  0  0  0  0
   -0.2371    0.3238    0.0000 H   0  0  0  0  0  0  0  0  0  0  0  0
   -0.4493   -2.5187    0.0000 H   0  0  0  0  0  0  0  0  0  0  0  0
    1.4039   -2.5187    0.0000 H   0  0  0  0  0  0  0  0  0  0  0  0
    0.4773   -3.0537    0.0000 H   0  0  0  0  0  0  0  0  0  0  0  0
   -3.0949   -3.4662    0.0000 H   0  0  0  0  0  0  0  0  0  0  0  0
   -4.6494   -2.3237    0.0000 H   0  0  0  0  0  0  0  0  0  0  0  0
   -1.4539   -3.3437    0.0000 H   0  0  0  0  0  0  0  0  0  0  0  0
   -3.3071   -4.1687    0.0000 H   0  0  0  0  0  0  0  0  0  0  0  0
   -1.4539   -4.1687    0.0000 H   0  0  0  0  0  0  0  0  0  0  0  0
   -2.3805   -4.7037    0.0000 H   0  0  0  0  0  0  0  0  0  0  0  0
    2.2326    0.2072    0.0000 H   0  0  0  0  0  0  0  0  0  0  0  0
    4.3444   -2.3873    0.0000 H   0  0  0  0  0  0  0  0  0  0  0  0
    4.3444   -0.5341    0.0000 H   0  0  0  0  0  0  0  0  0  0  0  0
    4.8794   -1.4607    0.0000 H   0  0  0  0  0  0  0  0  0  0  0  0
   -1.8781   -0.8688    0.0000 H   0  0  0  0  0  0  0  0  0  0  0  0
    2.6907   -0.1909    0.0000 H   0  0  0  0  0  0  0  0  0  0  0  0
   -0.3793    0.6237    0.0000 H   0  0  0  0  0  0  0  0  0  0  0  0
   -0.3792    1.6937    0.0000 H   0  0  0  0  0  0  0  0  0  0  0  0
   -0.3792    2.5187    0.0000 H   0  0  0  0  0  0  0  0  0  0  0  0
    0.5474    3.0537    0.0000 H   0  0  0  0  0  0  0  0  0  0  0  0
    2.1556    1.8802    0.0000 H   0  0  0  0  0  0  0  0  0  0  0  0
    0.5474    4.7037    0.0000 H   0  0  0  0  0  0  0  0  0  0  0  0
   -0.3792    3.0987    0.0000 H   0  0  0  0  0  0  0  0  0  0  0  0
   -0.3793    4.1687    0.0000 H   0  0  0  0  0  0  0  0  0  0  0  0
    2.9030    3.0987    0.0000 H   0  0  0  0  0  0  0  0  0  0  0  0
    1.9763    4.7037    0.0000 H   0  0  0  0  0  0  0  0  0  0  0  0
    2.9029    4.1687    0.0000 H   0  0  0  0  0  0  0  0  0  0  0  0
   -1.6661    1.0487    0.0000 H   0  0  0  0  0  0  0  0  0  0  0  0
  1 41  1  0  0  0  0
  1 42  1  0  0  0  0
  2  1  1  0  0  0  0
  2 43  1  0  0  0  0
  2 44  1  0  0  0  0
  3  4  1  0  0  0  0
  3 45  1  0  0  0  0
  3 46  1  0  0  0  0
  4 47  1  0  0  0  0
  4 48  1  0  0  0  0
  5 17  1  0  0  0  0
  5  8  1  1  0  0  0
  5  1  1  0  0  0  0
  6 49  1  0  0  0  0
  6 50  1  0  0  0  0
  7 51  1  0  0  0  0
  7 52  1  0  0  0  0
  8 53  1  0  0  0  0
  8 54  1  0  0  0  0
  8 55  1  0  0  0  0
  9 29  1  0  0  0  0
  9  5  1  0  0  0  0
  9 10  1  1  0  0  0
 11  9  1  0  0  0  0
 11  4  1  0  0  0  0
 11 14  1  6  0  0  0
 12 13  1  0  0  0  0
 12 11  1  0  0  0  0
 12  7  1  0  0  0  0
 12 16  1  1  0  0  0
 13 28  1  0  0  0  0
 13  6  1  0  0  0  0
 13 15  1  6  0  0  0
 14 56  1  0  0  0  0
 14 57  1  0  0  0  0
 14 58  1  0  0  0  0
 16 59  1  0  0  0  0
 16 60  1  0  0  0  0
 16 61  1  0  0  0  0
 17 21  1  0  0  0  0
 17  3  1  0  0  0  0
 17 18  1  6  0  0  0
 19 21  1  0  0  0  0
 19  2  1  0  0  0  0
 19 20  1  0  0  0  0
 19 62  1  1  0  0  0
 20 63  1  0  0  0  0
 21 22  1  0  0  0  0
 21 64  1  1  0  0  0
 22 65  1  0  0  0  0
 22 66  1  0  0  0  0
 22 67  1  0  0  0  0
 23 28  1  0  0  0  0
 23  7  1  0  0  0  0
 23 24  1  0  0  0  0
 23 68  1  6  0  0  0
 24 26  1  0  0  0  0
 25 69  1  0  0  0  0
 25 70  1  0  0  0  0
 25 71  1  0  0  0  0
 26 25  1  0  0  0  0
 26 27  2  0  0  0  0
 28 30  2  0  0  0  0
 29  6  1  0  0  0  0
 29 40  1  0  0  0  0
 29 72  1  1  0  0  0
 30 34  1  0  0  0  0
 30 32  1  0  0  0  0
 32 31  2  0  0  0  0
 32 33  1  0  0  0  0
 33 73  1  0  0  0  0
 34 35  1  0  0  0  0
 34 74  1  0  0  0  0
 34 75  1  0  0  0  0
 35 36  1  0  0  0  0
 35 76  1  0  0  0  0
 35 77  1  0  0  0  0
 36 38  2  0  0  0  0
 36 78  1  0  0  0  0
 37 79  1  0  0  0  0
 37 80  1  0  0  0  0
 37 81  1  0  0  0  0
 38 37  1  0  0  0  0
 38 39  1  0  0  0  0
 39 82  1  0  0  0  0
 39 83  1  0  0  0  0
 39 84  1  0  0  0  0
 40 85  1  0  0  0  0
M  END
>  <DRUGBANK_ID>
DB02703

>  <SECONDARY_ACCESSION_NUMBERS>
EXPT01507

>  <COMMON_NAME>
Fusidic acid

>  <CAS_NUMBER>
6990-06-3

>  <UNII>
59XE10C19C

>  <SYNONYMS>
Acide fusidique; Acido fusidico; Acidum fusidicum; Fucidate; Fucidin acid; Fusidate; Fusidic acid; Fusidine; Ramycin

$$$$
