
 OpenBabel10282417072D

 51 54  0  0  0  0  0  0  0  0999 V2000
   -0.1443    0.0000    0.0000 C   0  0  2  0  0  0  0  0  0  0  0  0
   -0.1443   -0.8250    0.0000 N   0  0  0  0  0  0  0  0  0  0  0  0
    0.5981   -1.2375    0.0000 C   0  0  0  0  0  0  0  0  0  0  0  0
    1.2993   -0.8250    0.0000 C   0  0  0  0  0  0  0  0  0  0  0  0
    1.2993    0.0000    0.0000 C   0  0  0  0  0  0  0  0  0  0  0  0
    0.5981    0.4125    0.0000 S   0  0  0  0  0  0  0  0  0  0  0  0
   -0.9281    0.0000    0.0000 C   0  0  1  0  0  0  0  0  0  0  0  0
   -0.9281   -0.8250    0.0000 C   0  0  0  0  0  0  0  0  0  0  0  0
   -1.6706    0.4125    0.0000 N   0  0  0  0  0  0  0  0  0  0  0  0
   -2.3718    0.0000    0.0000 C   0  0  0  0  0  0  0  0  0  0  0  0
   -2.3718   -0.8250    0.0000 O   0  0  0  0  0  0  0  0  0  0  0  0
   -1.6706   -1.2375    0.0000 O   0  0  0  0  0  0  0  0  0  0  0  0
   -3.0731    0.4125    0.0000 C   0  0  0  0  0  0  0  0  0  0  0  0
    2.0006   -1.2375    0.0000 C   0  0  0  0  0  0  0  0  0  0  0  0
   -3.8156    0.0000    0.0000 C   0  0  0  0  0  0  0  0  0  0  0  0
   -0.1443    0.8250    0.0000 H   0  0  0  0  0  0  0  0  0  0  0  0
   -4.4756    0.4950    0.0000 C   0  0  0  0  0  0  0  0  0  0  0  0
   -5.1356    0.0000    0.0000 S   0  0  0  0  0  0  0  0  0  0  0  0
   -4.8881   -0.8250    0.0000 C   0  0  0  0  0  0  0  0  0  0  0  0
   -4.0631   -0.8250    0.0000 N   0  0  0  0  0  0  0  0  0  0  0  0
   -3.0731    1.2375    0.0000 N   0  0  0  0  0  0  0  0  0  0  0  0
    0.5981   -2.0625    0.0000 C   0  0  0  0  0  0  0  0  0  0  0  0
    1.2993   -2.4750    0.0000 O   0  0  0  0  0  0  0  0  0  0  0  0
   -0.1443   -2.4750    0.0000 O   0  0  0  0  0  0  0  0  0  0  0  0
    2.7018   -0.8250    0.0000 S   0  0  0  0  0  0  0  0  0  0  0  0
    3.4031   -1.2375    0.0000 C   0  0  0  0  0  0  0  0  0  0  0  0
    4.1043   -0.8250    0.0000 C   0  0  0  0  0  0  0  0  0  0  0  0
    4.1043    0.0000    0.0000 C   0  0  0  0  0  0  0  0  0  0  0  0
    4.8881   -1.0725    0.0000 O   0  0  0  0  0  0  0  0  0  0  0  0
    5.3831   -0.4125    0.0000 C   0  0  0  0  0  0  0  0  0  0  0  0
    4.8881    0.2475    0.0000 C   0  0  0  0  0  0  0  0  0  0  0  0
   -5.3831   -1.4850    0.0000 N   0  0  0  0  0  0  0  0  0  0  0  0
    3.4031   -2.0625    0.0000 O   0  0  0  0  0  0  0  0  0  0  0  0
   -2.3718    1.6500    0.0000 O   0  0  0  0  0  0  0  0  0  0  0  0
   -2.3718    2.4750    0.0000 C   0  0  0  0  0  0  0  0  0  0  0  0
    2.2281    0.5312    0.0000 H   0  0  0  0  0  0  0  0  0  0  0  0
    1.3058    1.0700    0.0000 H   0  0  0  0  0  0  0  0  0  0  0  0
   -0.6597    1.0358    0.0000 H   0  0  0  0  0  0  0  0  0  0  0  0
   -1.6827    1.3969    0.0000 H   0  0  0  0  0  0  0  0  0  0  0  0
    2.0006   -2.3075    0.0000 H   0  0  0  0  0  0  0  0  0  0  0  0
    2.9294   -1.7687    0.0000 H   0  0  0  0  0  0  0  0  0  0  0  0
   -4.4756    1.5270    0.0000 H   0  0  0  0  0  0  0  0  0  0  0  0
    1.2917   -3.4120    0.0000 H   0  0  0  0  0  0  0  0  0  0  0  0
    3.2719    0.6101    0.0000 H   0  0  0  0  0  0  0  0  0  0  0  0
    6.4151   -0.4125    0.0000 H   0  0  0  0  0  0  0  0  0  0  0  0
    5.2036    1.2301    0.0000 H   0  0  0  0  0  0  0  0  0  0  0  0
   -6.3605   -1.3672    0.0000 H   0  0  0  0  0  0  0  0  0  0  0  0
   -4.9964   -2.3904    0.0000 H   0  0  0  0  0  0  0  0  0  0  0  0
   -1.4452    3.0100    0.0000 H   0  0  0  0  0  0  0  0  0  0  0  0
   -3.2984    3.0100    0.0000 H   0  0  0  0  0  0  0  0  0  0  0  0
   -2.3718    3.5450    0.0000 H   0  0  0  0  0  0  0  0  0  0  0  0
  1  2  1  0  0  0  0
  1  6  1  0  0  0  0
  1  7  1  0  0  0  0
  1 16  1  6  0  0  0
  2  3  1  0  0  0  0
  2  8  1  0  0  0  0
  3  4  2  0  0  0  0
  3 22  1  0  0  0  0
  4  5  1  0  0  0  0
  4 14  1  0  0  0  0
  5  6  1  0  0  0  0
  5 36  1  0  0  0  0
  5 37  1  0  0  0  0
  7  8  1  0  0  0  0
  7  9  1  0  0  0  0
  7 38  1  6  0  0  0
  8 12  2  0  0  0  0
  9 10  1  0  0  0  0
  9 39  1  0  0  0  0
 10 11  2  0  0  0  0
 10 13  1  0  0  0  0
 13 15  1  0  0  0  0
 13 21  2  0  0  0  0
 14 25  1  0  0  0  0
 14 40  1  0  0  0  0
 14 41  1  0  0  0  0
 15 17  2  0  0  0  0
 15 20  1  0  0  0  0
 17 18  1  0  0  0  0
 17 42  1  0  0  0  0
 18 19  1  0  0  0  0
 19 20  2  0  0  0  0
 19 32  1  0  0  0  0
 21 34  1  0  0  0  0
 22 23  1  0  0  0  0
 22 24  2  0  0  0  0
 23 43  1  0  0  0  0
 25 26  1  0  0  0  0
 26 27  1  0  0  0  0
 26 33  2  0  0  0  0
 27 28  2  0  0  0  0
 27 29  1  0  0  0  0
 28 31  1  0  0  0  0
 28 44  1  0  0  0  0
 29 30  1  0  0  0  0
 30 31  2  0  0  0  0
 30 45  1  0  0  0  0
 31 46  1  0  0  0  0
 32 47  1  0  0  0  0
 32 48  1  0  0  0  0
 34 35  1  0  0  0  0
 35 49  1  0  0  0  0
 35 50  1  0  0  0  0
 35 51  1  0  0  0  0
M  END
>  <DRUGBANK_ID>
DB11485

>  <COMMON_NAME>
Ceftiofur

>  <CAS_NUMBER>
80370-57-6

>  <UNII>
83JL932I1C

>  <SYNONYMS>
Ceftiofur; Ceftiofur crystalline free acid

$$$$
