
 OpenBabel10282417072D

 55 59  0  0  1  0  0  0  0  0999 V2000
    3.7097    1.8405    0.0000 C   0  0  0  0  0  0  0  0  0  0  0  0
    3.5382    1.0335    0.0000 C   0  0  2  0  0  0  0  0  0  0  0  0
    4.0902    0.4204    0.0000 C   0  0  0  0  0  0  0  0  0  0  0  0
    3.6777   -0.2941    0.0000 N   0  0  0  0  0  0  0  0  0  0  0  0
    4.0133   -1.0477    0.0000 C   0  0  0  0  0  0  0  0  0  0  0  0
    4.8338   -1.1340    0.0000 C   0  0  0  0  0  0  0  0  0  0  0  0
    5.3187   -0.4665    0.0000 N   0  0  0  0  0  0  0  0  0  0  0  0
    6.1392   -0.5528    0.0000 C   0  0  0  0  0  0  0  0  0  0  0  0
    6.4747   -1.3064    0.0000 C   0  0  0  0  0  0  0  0  0  0  0  0
    5.9898   -1.9739    0.0000 C   0  0  0  0  0  0  0  0  0  0  0  0
    5.1693   -1.8877    0.0000 N   0  0  0  0  0  0  0  0  0  0  0  0
    2.8708   -0.1225    0.0000 C   0  0  0  0  0  0  0  0  0  0  0  0
    2.7845    0.6979    0.0000 C   0  0  1  0  0  0  0  0  0  0  0  0
    2.0701    1.1104    0.0000 C   0  0  0  0  0  0  0  0  0  0  0  0
    1.3556    0.6979    0.0000 C   0  0  0  0  0  0  0  0  0  0  0  0
    0.6411    1.1104    0.0000 N   0  0  0  0  0  0  0  0  0  0  0  0
    0.6411    1.9354    0.0000 C   0  0  0  0  0  0  0  0  0  0  0  0
   -0.1435    2.1904    0.0000 C   0  0  0  0  0  0  0  0  0  0  0  0
   -0.6284    1.5229    0.0000 N   0  0  0  0  0  0  0  0  0  0  0  0
   -0.1435    0.8555    0.0000 C   0  0  0  0  0  0  0  0  0  0  0  0
   -0.3984    0.0709    0.0000 C   0  0  0  0  0  0  0  0  0  0  0  0
    0.1536   -0.5422    0.0000 C   0  0  0  0  0  0  0  0  0  0  0  0
   -0.1014   -1.3268    0.0000 C   0  0  0  0  0  0  0  0  0  0  0  0
   -0.9083   -1.4984    0.0000 O   0  0  0  0  0  0  0  0  0  0  0  0
   -1.4604   -0.8853    0.0000 C   0  0  0  0  0  0  0  0  0  0  0  0
   -1.2054   -0.1006    0.0000 C   0  0  0  0  0  0  0  0  0  0  0  0
    1.3556    2.3479    0.0000 C   0  0  0  0  0  0  0  0  0  0  0  0
    1.3556    3.1729    0.0000 O   0  0  0  0  0  0  0  0  0  0  0  0
    2.0701    1.9354    0.0000 N   0  0  0  0  0  0  0  0  0  0  0  0
    4.7273    2.1712    0.0000 H   0  0  0  0  0  0  0  0  0  0  0  0
    2.9145    2.5564    0.0000 H   0  0  0  0  0  0  0  0  0  0  0  0
    3.9321    2.8871    0.0000 H   0  0  0  0  0  0  0  0  0  0  0  0
    4.5717    1.3104    0.0000 H   0  0  0  0  0  0  0  0  0  0  0  0
    5.1543    0.5322    0.0000 H   0  0  0  0  0  0  0  0  0  0  0  0
    4.6730   -0.4770    0.0000 H   0  0  0  0  0  0  0  0  0  0  0  0
    3.3844   -1.9134    0.0000 H   0  0  0  0  0  0  0  0  0  0  0  0
    4.4485   -2.0252    0.0000 H   0  0  0  0  0  0  0  0  0  0  0  0
    6.7458    0.2821    0.0000 H   0  0  0  0  0  0  0  0  0  0  0  0
    7.5010   -1.4143    0.0000 H   0  0  0  0  0  0  0  0  0  0  0  0
    6.4096   -2.9167    0.0000 H   0  0  0  0  0  0  0  0  0  0  0  0
    2.0756   -0.8385    0.0000 H   0  0  0  0  0  0  0  0  0  0  0  0
    1.8719    0.2609    0.0000 H   0  0  0  0  0  0  0  0  0  0  0  0
    1.8871    0.1151    0.0000 H   0  0  0  0  0  0  0  0  0  0  0  0
    1.3556   -0.3341    0.0000 H   0  0  0  0  0  0  0  0  0  0  0  0
   -0.4624    3.1719    0.0000 H   0  0  0  0  0  0  0  0  0  0  0  0
   -0.7291   -0.9467    0.0000 H   0  0  0  0  0  0  0  0  0  0  0  0
    1.2002   -0.3198    0.0000 H   0  0  0  0  0  0  0  0  0  0  0  0
    0.8695   -1.3374    0.0000 H   0  0  0  0  0  0  0  0  0  0  0  0
    0.6146   -2.1220    0.0000 H   0  0  0  0  0  0  0  0  0  0  0  0
   -0.4320   -2.3444    0.0000 H   0  0  0  0  0  0  0  0  0  0  0  0
   -2.5070   -1.1078    0.0000 H   0  0  0  0  0  0  0  0  0  0  0  0
   -2.1764   -0.0901    0.0000 H   0  0  0  0  0  0  0  0  0  0  0  0
   -1.9213    0.6946    0.0000 H   0  0  0  0  0  0  0  0  0  0  0  0
   -0.8747    0.9170    0.0000 H   0  0  0  0  0  0  0  0  0  0  0  0
    2.9227    2.4277    0.0000 H   0  0  0  0  0  0  0  0  0  0  0  0
  1 30  1  0  0  0  0
  1 31  1  0  0  0  0
  1 32  1  0  0  0  0
  2  1  1  0  0  0  0
  2  3  1  0  0  0  0
  2 13  1  0  0  0  0
  2 33  1  1  0  0  0
  3  4  1  0  0  0  0
  3 34  1  0  0  0  0
  3 35  1  0  0  0  0
  4  5  1  0  0  0  0
  4 12  1  0  0  0  0
  5  6  1  0  0  0  0
  5 36  1  0  0  0  0
  5 37  1  0  0  0  0
  6  7  2  0  0  0  0
  6 11  1  0  0  0  0
  7  8  1  0  0  0  0
  8  9  2  0  0  0  0
  8 38  1  0  0  0  0
  9 10  1  0  0  0  0
  9 39  1  0  0  0  0
 10 11  2  0  0  0  0
 10 40  1  0  0  0  0
 12 41  1  0  0  0  0
 12 42  1  0  0  0  0
 13 12  1  0  0  0  0
 13 14  1  0  0  0  0
 13 43  1  6  0  0  0
 14 15  2  0  0  0  0
 14 29  1  0  0  0  0
 15 16  1  0  0  0  0
 15 44  1  0  0  0  0
 16 17  1  0  0  0  0
 16 20  1  0  0  0  0
 17 18  2  0  0  0  0
 17 27  1  0  0  0  0
 18 19  1  0  0  0  0
 18 45  1  0  0  0  0
 19 20  2  0  0  0  0
 20 21  1  0  0  0  0
 21 22  1  0  0  0  0
 21 26  1  0  0  0  0
 21 46  1  0  0  0  0
 22 23  1  0  0  0  0
 22 47  1  0  0  0  0
 22 48  1  0  0  0  0
 23 24  1  0  0  0  0
 23 49  1  0  0  0  0
 23 50  1  0  0  0  0
 24 25  1  0  0  0  0
 25 26  1  0  0  0  0
 25 51  1  0  0  0  0
 25 52  1  0  0  0  0
 26 53  1  0  0  0  0
 26 54  1  0  0  0  0
 27 28  2  0  0  0  0
 27 29  1  0  0  0  0
 29 55  1  0  0  0  0
M  END
>  <DRUGBANK_ID>
DB16193

>  <COMMON_NAME>
Tovinontrine

>  <CAS_NUMBER>
2062661-53-2

>  <UNII>
W248Y1AKOR

>  <SYNONYMS>
6-((3S,4S)-4-METHYL-1-(2-PYRIMIDINYLMETHYL)-3-PYRROLIDINYL)-3-(TETRAHYDRO-2H-PYRAN-4-YL)IMIDAZO(1,5-A)PYRAZIN-8(7H)-ONE; 6-[(3S,4S-4-methyl-1-(pyrimidin-2-ylmethyl)pyrrolidin-3-yl]-3-tetrahydropyran-4-yl-7H-imadazo[1,5-a]pyrazin-8-one; 6-[(3S,4S)-4-methyl-1-(pyrimidin-2-ylmethyl)pyrrolidin-3-yl]-3- tetrahydropyran-4-yl-7H-imidazo[1,5-a]pyrazin-8-one; IMIDAZO(1,5-A)PYRAZIN-8(7H)-ONE, 6-((3S,4S)-4-METHYL-1-(2-PYRIMIDINYLMETHYL)-3-PYRROLIDINYL)-3-(TETRAHYDRO-2H-PYRAN-4-YL)-

$$$$
