NP2
 OpenBabel10282417072D

 27 27  0  0  0  0  0  0  0  0999 V2000
   -2.3896   -0.5702    0.0000 N   0  0  0  0  0  0  0  0  0  0  0  0
   -1.6750   -0.1577    0.0000 C   0  0  0  0  0  0  0  0  0  0  0  0
   -0.9606   -0.5702    0.0000 C   0  0  0  0  0  0  0  0  0  0  0  0
   -0.2460   -0.1577    0.0000 C   0  0  0  0  0  0  0  0  0  0  0  0
    0.4685   -0.5702    0.0000 N   0  0  0  0  0  0  0  0  0  0  0  0
    1.1831   -0.1577    0.0000 C   0  0  0  0  0  0  0  0  0  0  0  0
    1.1831    0.6673    0.0000 C   0  0  0  0  0  0  0  0  0  0  0  0
    1.8975   -0.5702    0.0000 C   0  0  0  0  0  0  0  0  0  0  0  0
    1.8975   -1.3953    0.0000 N   0  3  0  0  0  0  0  0  0  0  0  0
    2.6121   -1.8078    0.0000 O   0  0  0  0  0  0  0  0  0  0  0  0
    1.1831   -1.8078    0.0000 O   0  5  0  0  0  0  0  0  0  0  0  0
    1.8975    1.0799    0.0000 C   0  0  0  0  0  0  0  0  0  0  0  0
    2.6121   -0.1577    0.0000 C   0  0  0  0  0  0  0  0  0  0  0  0
    2.6121    0.6673    0.0000 C   0  0  0  0  0  0  0  0  0  0  0  0
   -3.2729   -0.0601    0.0000 H   0  0  0  0  0  0  0  0  0  0  0  0
   -2.3897   -1.5902    0.0000 H   0  0  0  0  0  0  0  0  0  0  0  0
   -1.6749    0.9123    0.0000 H   0  0  0  0  0  0  0  0  0  0  0  0
   -0.7483    0.3773    0.0000 H   0  0  0  0  0  0  0  0  0  0  0  0
   -0.9607   -1.6402    0.0000 H   0  0  0  0  0  0  0  0  0  0  0  0
   -0.0340   -1.1053    0.0000 H   0  0  0  0  0  0  0  0  0  0  0  0
   -0.2460    0.9123    0.0000 H   0  0  0  0  0  0  0  0  0  0  0  0
    0.6807    0.3773    0.0000 H   0  0  0  0  0  0  0  0  0  0  0  0
    0.4685   -1.5547    0.0000 H   0  0  0  0  0  0  0  0  0  0  0  0
    0.2893    1.1832    0.0000 H   0  0  0  0  0  0  0  0  0  0  0  0
    1.8974    2.1119    0.0000 H   0  0  0  0  0  0  0  0  0  0  0  0
    3.5058   -0.6737    0.0000 H   0  0  0  0  0  0  0  0  0  0  0  0
    3.5058    1.1833    0.0000 H   0  0  0  0  0  0  0  0  0  0  0  0
  1  2  1  0  0  0  0
  1 15  1  0  0  0  0
  1 16  1  0  0  0  0
  2  3  1  0  0  0  0
  2 17  1  0  0  0  0
  2 18  1  0  0  0  0
  3  4  1  0  0  0  0
  3 19  1  0  0  0  0
  3 20  1  0  0  0  0
  4  5  1  0  0  0  0
  4 21  1  0  0  0  0
  4 22  1  0  0  0  0
  5  6  1  0  0  0  0
  5 23  1  0  0  0  0
  6  7  2  0  0  0  0
  6  8  1  0  0  0  0
  7 12  1  0  0  0  0
  7 24  1  0  0  0  0
  8  9  1  0  0  0  0
  8 13  2  0  0  0  0
  9 10  2  0  0  0  0
  9 11  1  0  0  0  0
 12 14  2  0  0  0  0
 12 25  1  0  0  0  0
 13 14  1  0  0  0  0
 13 26  1  0  0  0  0
 14 27  1  0  0  0  0
M  CHG  2   9   1  11  -1
M  END
>  <DRUGBANK_ID>
DB08291

>  <COMMON_NAME>
N-(3-AMINOPROPYL)-2-NITROBENZENAMINE

>  <UNII>
KSJ78WBX6K

$$$$
