
 OpenBabel10282417072D

 64 65  0  0  0  0  0  0  0  0999 V2000
   -0.1410   -1.5059    0.0000 O   0  0  0  0  0  0  0  0  0  0  0  0
   -1.1676   -1.0489    0.0000 O   0  0  0  0  0  0  0  0  0  0  0  0
    3.2676   -0.3597    0.0000 O   0  0  0  0  0  0  0  0  0  0  0  0
    2.8260   -1.7187    0.0000 O   0  0  0  0  0  0  0  0  0  0  0  0
   -3.3110    1.0136    0.0000 O   0  0  0  0  0  0  0  0  0  0  0  0
   -0.4531    0.1886    0.0000 N   0  0  0  0  0  0  0  0  0  0  0  0
    1.2567   -1.2089    0.0000 N   0  0  0  0  0  0  0  0  0  0  0  0
   -1.8821    1.0136    0.0000 N   0  0  0  0  0  0  0  0  0  0  0  0
    2.5814    2.8681    0.0000 N   0  0  0  0  0  0  0  0  0  0  0  0
    0.3005   -0.1469    0.0000 C   0  0  1  0  0  0  0  0  0  0  0  0
    0.8526    0.4661    0.0000 C   0  0  0  0  0  0  0  0  0  0  0  0
    0.4401    1.1805    0.0000 C   0  0  0  0  0  0  0  0  0  0  0  0
   -0.3669    1.0091    0.0000 C   0  0  0  0  0  0  0  0  0  0  0  0
    0.4721   -0.9539    0.0000 C   0  0  0  0  0  0  0  0  0  0  0  0
   -1.1676   -0.2239    0.0000 C   0  0  0  0  0  0  0  0  0  0  0  0
   -1.8821    0.1886    0.0000 C   0  0  1  0  0  0  0  0  0  0  0  0
    1.8698   -0.6568    0.0000 C   0  0  1  0  0  0  0  0  0  0  0  0
   -2.5966   -0.2239    0.0000 C   0  0  0  0  0  0  0  0  0  0  0  0
    1.6982    0.1501    0.0000 C   0  0  0  0  0  0  0  0  0  0  0  0
    2.3113    0.7021    0.0000 C   0  0  0  0  0  0  0  0  0  0  0  0
   -2.5966   -1.0489    0.0000 C   0  0  0  0  0  0  0  0  0  0  0  0
    2.1399    1.5092    0.0000 C   0  0  0  0  0  0  0  0  0  0  0  0
   -2.5966    1.4261    0.0000 C   0  0  0  0  0  0  0  0  0  0  0  0
    2.7529    2.0612    0.0000 C   0  0  0  0  0  0  0  0  0  0  0  0
   -3.3110   -1.4614    0.0000 C   0  0  0  0  0  0  0  0  0  0  0  0
   -1.8821   -1.4614    0.0000 C   0  0  0  0  0  0  0  0  0  0  0  0
   -2.5966    2.2511    0.0000 C   0  0  0  0  0  0  0  0  0  0  0  0
   -3.3110   -2.2864    0.0000 C   0  0  0  0  0  0  0  0  0  0  0  0
   -1.8821   -2.2864    0.0000 C   0  0  0  0  0  0  0  0  0  0  0  0
   -2.5966   -2.6989    0.0000 C   0  0  0  0  0  0  0  0  0  0  0  0
    2.6544   -0.9118    0.0000 B   0  0  0  0  0  0  0  0  0  0  0  0
    4.1901   -0.6595    0.0000 H   0  0  0  0  0  0  0  0  0  0  0  0
    2.1052   -2.3678    0.0000 H   0  0  0  0  0  0  0  0  0  0  0  0
    1.4614   -2.1719    0.0000 H   0  0  0  0  0  0  0  0  0  0  0  0
   -1.0295    1.5059    0.0000 H   0  0  0  0  0  0  0  0  0  0  0  0
    3.3394    3.5506    0.0000 H   0  0  0  0  0  0  0  0  0  0  0  0
    1.6113    3.1833    0.0000 H   0  0  0  0  0  0  0  0  0  0  0  0
   -0.5310   -0.8203    0.0000 H   0  0  0  0  0  0  0  0  0  0  0  0
    1.9167    0.3542    0.0000 H   0  0  0  0  0  0  0  0  0  0  0  0
    1.4354    1.3635    0.0000 H   0  0  0  0  0  0  0  0  0  0  0  0
    0.8754    2.1580    0.0000 H   0  0  0  0  0  0  0  0  0  0  0  0
   -0.2332    2.0121    0.0000 H   0  0  0  0  0  0  0  0  0  0  0  0
   -1.1620    1.7251    0.0000 H   0  0  0  0  0  0  0  0  0  0  0  0
   -0.0899    2.0426    0.0000 H   0  0  0  0  0  0  0  0  0  0  0  0
   -0.9555    0.7236    0.0000 H   0  0  0  0  0  0  0  0  0  0  0  0
    0.8521   -0.3262    0.0000 H   0  0  0  0  0  0  0  0  0  0  0  0
   -3.5232    0.3111    0.0000 H   0  0  0  0  0  0  0  0  0  0  0  0
   -3.5232   -0.7589    0.0000 H   0  0  0  0  0  0  0  0  0  0  0  0
    0.6806    0.4807    0.0000 H   0  0  0  0  0  0  0  0  0  0  0  0
    1.4757    1.1967    0.0000 H   0  0  0  0  0  0  0  0  0  0  0  0
    3.3289    0.3713    0.0000 H   0  0  0  0  0  0  0  0  0  0  0  0
    3.1066    1.4180    0.0000 H   0  0  0  0  0  0  0  0  0  0  0  0
    1.1223    1.8399    0.0000 H   0  0  0  0  0  0  0  0  0  0  0  0
    1.9174    2.5558    0.0000 H   0  0  0  0  0  0  0  0  0  0  0  0
    3.7705    1.7306    0.0000 H   0  0  0  0  0  0  0  0  0  0  0  0
    2.9754    1.0146    0.0000 H   0  0  0  0  0  0  0  0  0  0  0  0
   -4.2047   -0.9454    0.0000 H   0  0  0  0  0  0  0  0  0  0  0  0
   -0.9884   -0.9454    0.0000 H   0  0  0  0  0  0  0  0  0  0  0  0
   -1.6700    2.7861    0.0000 H   0  0  0  0  0  0  0  0  0  0  0  0
   -3.5232    2.7861    0.0000 H   0  0  0  0  0  0  0  0  0  0  0  0
   -2.5966    3.3211    0.0000 H   0  0  0  0  0  0  0  0  0  0  0  0
   -4.2047   -2.8024    0.0000 H   0  0  0  0  0  0  0  0  0  0  0  0
   -0.9884   -2.8024    0.0000 H   0  0  0  0  0  0  0  0  0  0  0  0
   -2.5966   -3.7309    0.0000 H   0  0  0  0  0  0  0  0  0  0  0  0
  1 14  2  0  0  0  0
  2 15  2  0  0  0  0
  3 31  1  0  0  0  0
  3 32  1  0  0  0  0
  4 31  1  0  0  0  0
  4 33  1  0  0  0  0
  5 23  2  0  0  0  0
  6 10  1  0  0  0  0
  6 13  1  0  0  0  0
  6 15  1  0  0  0  0
  7 14  1  0  0  0  0
  7 34  1  0  0  0  0
  8 23  1  0  0  0  0
  8 35  1  0  0  0  0
  9 24  1  0  0  0  0
  9 36  1  0  0  0  0
  9 37  1  0  0  0  0
 10 11  1  0  0  0  0
 10 14  1  0  0  0  0
 10 38  1  6  0  0  0
 11 12  1  0  0  0  0
 11 39  1  0  0  0  0
 11 40  1  0  0  0  0
 12 13  1  0  0  0  0
 12 41  1  0  0  0  0
 12 42  1  0  0  0  0
 13 43  1  0  0  0  0
 13 44  1  0  0  0  0
 15 16  1  0  0  0  0
 16  8  1  0  0  0  0
 16 18  1  0  0  0  0
 16 45  1  6  0  0  0
 17  7  1  0  0  0  0
 17 19  1  0  0  0  0
 17 31  1  0  0  0  0
 17 46  1  6  0  0  0
 18 21  1  0  0  0  0
 18 47  1  0  0  0  0
 18 48  1  0  0  0  0
 19 20  1  0  0  0  0
 19 49  1  0  0  0  0
 19 50  1  0  0  0  0
 20 22  1  0  0  0  0
 20 51  1  0  0  0  0
 20 52  1  0  0  0  0
 21 25  2  0  0  0  0
 21 26  1  0  0  0  0
 22 24  1  0  0  0  0
 22 53  1  0  0  0  0
 22 54  1  0  0  0  0
 23 27  1  0  0  0  0
 24 55  1  0  0  0  0
 24 56  1  0  0  0  0
 25 28  1  0  0  0  0
 25 57  1  0  0  0  0
 26 29  2  0  0  0  0
 26 58  1  0  0  0  0
 27 59  1  0  0  0  0
 27 60  1  0  0  0  0
 27 61  1  0  0  0  0
 28 30  2  0  0  0  0
 28 62  1  0  0  0  0
 29 30  1  0  0  0  0
 29 63  1  0  0  0  0
 30 64  1  0  0  0  0
M  END
>  <DRUGBANK_ID>
DB07658

>  <COMMON_NAME>
AC-(D)Phe-pro-borolys-OH

$$$$
