
 OpenBabel10282417072D

 45 47  0  0  1  0  0  0  0  0999 V2000
   -1.2105    3.1038    0.0000 C   0  0  0  0  0  0  0  0  0  0  0  0
   -1.2294    2.2790    0.0000 C   0  0  0  0  0  0  0  0  0  0  0  0
   -0.5246    1.8502    0.0000 C   0  0  0  0  0  0  0  0  0  0  0  0
   -0.5435    1.0254    0.0000 C   0  0  0  0  0  0  0  0  0  0  0  0
   -1.2673    0.6294    0.0000 C   0  0  0  0  0  0  0  0  0  0  0  0
   -1.9721    1.0582    0.0000 C   0  0  0  0  0  0  0  0  0  0  0  0
   -1.9532    1.8830    0.0000 C   0  0  0  0  0  0  0  0  0  0  0  0
   -2.6580    2.3118    0.0000 C   0  0  0  0  0  0  0  0  0  0  0  0
   -1.2862   -0.1953    0.0000 O   0  0  0  0  0  0  0  0  0  0  0  0
    0.2733    0.5639    0.0000 C   0  0  1  0  0  0  0  0  0  0  0  0
    0.2543   -0.2609    0.0000 C   0  0  0  0  0  0  0  0  0  0  0  0
    0.8472   -0.6569    0.0000 C   0  0  2  0  0  0  0  0  0  0  0  0
    1.5709   -0.2609    0.0000 C   0  0  0  0  0  0  0  0  0  0  0  0
    1.5899    0.5639    0.0000 C   0  0  0  0  0  0  0  0  0  0  0  0
    0.8850    0.9927    0.0000 C   0  0  1  0  0  0  0  0  0  0  0  0
    0.6599    0.1726    0.0000 C   0  0  0  0  0  0  0  0  0  0  0  0
   -0.3417    0.3751    0.0000 C   0  0  0  0  0  0  0  0  0  0  0  0
   -0.2999   -0.1258    0.0000 C   0  0  0  0  0  0  0  0  0  0  0  0
    1.1273    1.8223    0.0000 C   0  0  0  0  0  0  0  0  0  0  0  0
   -0.2718    3.6174    0.0000 H   0  0  0  0  0  0  0  0  0  0  0  0
   -2.1246    3.6599    0.0000 H   0  0  0  0  0  0  0  0  0  0  0  0
   -1.1860    4.1735    0.0000 H   0  0  0  0  0  0  0  0  0  0  0  0
    0.3807    2.3456    0.0000 H   0  0  0  0  0  0  0  0  0  0  0  0
   -2.8774    0.5628    0.0000 H   0  0  0  0  0  0  0  0  0  0  0  0
   -2.6334    3.3815    0.0000 H   0  0  0  0  0  0  0  0  0  0  0  0
   -3.5967    1.7982    0.0000 H   0  0  0  0  0  0  0  0  0  0  0  0
   -3.5721    2.8679    0.0000 H   0  0  0  0  0  0  0  0  0  0  0  0
   -2.1082   -0.6451    0.0000 H   0  0  0  0  0  0  0  0  0  0  0  0
   -0.6570    0.0353    0.0000 H   0  0  0  0  0  0  0  0  0  0  0  0
   -0.6951   -0.7545    0.0000 H   0  0  0  0  0  0  0  0  0  0  0  0
    0.1958   -1.3293    0.0000 H   0  0  0  0  0  0  0  0  0  0  0  0
    0.8944    0.4121    0.0000 H   0  0  0  0  0  0  0  0  0  0  0  0
    2.4850   -0.8170    0.0000 H   0  0  0  0  0  0  0  0  0  0  0  0
    2.5096    0.2526    0.0000 H   0  0  0  0  0  0  0  0  0  0  0  0
    2.5286    1.0775    0.0000 H   0  0  0  0  0  0  0  0  0  0  0  0
    1.6144    1.6336    0.0000 H   0  0  0  0  0  0  0  0  0  0  0  0
   -0.6825    1.3894    0.0000 H   0  0  0  0  0  0  0  0  0  0  0  0
   -1.0497   -0.4272    0.0000 H   0  0  0  0  0  0  0  0  0  0  0  0
   -1.3905    0.5871    0.0000 H   0  0  0  0  0  0  0  0  0  0  0  0
   -1.0859    0.6002    0.0000 H   0  0  0  0  0  0  0  0  0  0  0  0
   -0.5357   -1.1695    0.0000 H   0  0  0  0  0  0  0  0  0  0  0  0
   -1.3217   -0.4435    0.0000 H   0  0  0  0  0  0  0  0  0  0  0  0
    2.1668    2.0761    0.0000 H   0  0  0  0  0  0  0  0  0  0  0  0
    0.3878    2.5956    0.0000 H   0  0  0  0  0  0  0  0  0  0  0  0
    1.4273    2.8494    0.0000 H   0  0  0  0  0  0  0  0  0  0  0  0
  1  2  1  0  0  0  0
  1 20  1  0  0  0  0
  1 21  1  0  0  0  0
  1 22  1  0  0  0  0
  2  3  2  0  0  0  0
  2  7  1  0  0  0  0
  3  4  1  0  0  0  0
  3 23  1  0  0  0  0
  4  5  2  0  0  0  0
  5  6  1  0  0  0  0
  5  9  1  0  0  0  0
  6  7  2  0  0  0  0
  6 24  1  0  0  0  0
  7  8  1  0  0  0  0
  8 25  1  0  0  0  0
  8 26  1  0  0  0  0
  8 27  1  0  0  0  0
  9 28  1  0  0  0  0
 10  4  1  0  0  0  0
 10 11  1  0  0  0  0
 10 15  1  0  0  0  0
 10 29  1  1  0  0  0
 11 30  1  0  0  0  0
 11 31  1  0  0  0  0
 12 11  1  0  0  0  0
 12 13  1  0  0  0  0
 12 16  1  0  0  0  0
 12 32  1  6  0  0  0
 13 14  1  0  0  0  0
 13 33  1  0  0  0  0
 13 34  1  0  0  0  0
 14 15  1  0  0  0  0
 14 35  1  0  0  0  0
 14 36  1  0  0  0  0
 15 16  1  0  0  0  0
 15 19  1  6  0  0  0
 16 17  1  0  0  0  0
 16 18  1  0  0  0  0
 17 37  1  0  0  0  0
 17 38  1  0  0  0  0
 17 39  1  0  0  0  0
 18 40  1  0  0  0  0
 18 41  1  0  0  0  0
 18 42  1  0  0  0  0
 19 43  1  0  0  0  0
 19 44  1  0  0  0  0
 19 45  1  0  0  0  0
M  END
>  <DRUGBANK_ID>
DB13714

>  <COMMON_NAME>
Xibornol

>  <CAS_NUMBER>
13741-18-9

>  <UNII>
RQ12GMY0FZ

>  <SYNONYMS>
Xibornol

$$$$
