
 OpenBabel10282417072D

 53 54  0  0  0  0  0  0  0  0999 V2000
    0.0000    0.2062    0.0000 C   0  0  0  0  0  0  0  0  0  0  0  0
   -0.7144   -0.2062    0.0000 C   0  0  0  0  0  0  0  0  0  0  0  0
   -0.7144   -1.0312    0.0000 N   0  0  0  0  0  0  0  0  0  0  0  0
   -1.4289   -1.4437    0.0000 C   0  0  0  0  0  0  0  0  0  0  0  0
   -1.4289   -2.2687    0.0000 N   0  0  0  0  0  0  0  0  0  0  0  0
   -0.7144   -2.6812    0.0000 C   0  0  0  0  0  0  0  0  0  0  0  0
   -0.7144   -3.5062    0.0000 O   0  0  0  0  0  0  0  0  0  0  0  0
   -1.4289   -3.9187    0.0000 C   0  0  0  0  0  0  0  0  0  0  0  0
    0.0000   -2.2687    0.0000 O   0  0  0  0  0  0  0  0  0  0  0  0
   -2.1434   -1.0312    0.0000 N   0  0  0  0  0  0  0  0  0  0  0  0
   -2.8578   -1.4437    0.0000 C   0  0  0  0  0  0  0  0  0  0  0  0
   -3.5723   -1.0312    0.0000 O   0  0  0  0  0  0  0  0  0  0  0  0
   -3.5723   -0.2062    0.0000 C   0  0  0  0  0  0  0  0  0  0  0  0
   -2.8578   -2.2687    0.0000 O   0  0  0  0  0  0  0  0  0  0  0  0
   -1.4289    0.2062    0.0000 C   0  0  0  0  0  0  0  0  0  0  0  0
   -1.4289    1.0312    0.0000 C   0  0  0  0  0  0  0  0  0  0  0  0
   -0.7144    1.4437    0.0000 C   0  0  0  0  0  0  0  0  0  0  0  0
    0.0000    1.0312    0.0000 C   0  0  0  0  0  0  0  0  0  0  0  0
   -0.7144    2.2687    0.0000 S   0  0  0  0  0  0  0  0  0  0  0  0
    0.0000    2.6812    0.0000 C   0  0  0  0  0  0  0  0  0  0  0  0
    0.0000    3.5062    0.0000 C   0  0  0  0  0  0  0  0  0  0  0  0
    0.7144    3.9187    0.0000 C   0  0  0  0  0  0  0  0  0  0  0  0
    1.4289    3.5062    0.0000 C   0  0  0  0  0  0  0  0  0  0  0  0
    1.4289    2.6812    0.0000 C   0  0  0  0  0  0  0  0  0  0  0  0
    0.7144    2.2687    0.0000 C   0  0  0  0  0  0  0  0  0  0  0  0
    0.7144   -0.2062    0.0000 N   0  0  0  0  0  0  0  0  0  0  0  0
    1.4289    0.2062    0.0000 C   0  0  0  0  0  0  0  0  0  0  0  0
    2.1434   -0.2062    0.0000 C   0  0  0  0  0  0  0  0  0  0  0  0
    2.8578    0.2062    0.0000 O   0  0  0  0  0  0  0  0  0  0  0  0
    3.5723   -0.2062    0.0000 C   0  0  0  0  0  0  0  0  0  0  0  0
    1.4289    1.0312    0.0000 O   0  0  0  0  0  0  0  0  0  0  0  0
   -2.2815   -2.7610    0.0000 H   0  0  0  0  0  0  0  0  0  0  0  0
   -2.3555   -3.3837    0.0000 H   0  0  0  0  0  0  0  0  0  0  0  0
   -1.4289   -4.9887    0.0000 H   0  0  0  0  0  0  0  0  0  0  0  0
   -2.3556   -4.4537    0.0000 H   0  0  0  0  0  0  0  0  0  0  0  0
   -2.1434   -0.0467    0.0000 H   0  0  0  0  0  0  0  0  0  0  0  0
   -2.6457    0.3288    0.0000 H   0  0  0  0  0  0  0  0  0  0  0  0
   -4.4989    0.3288    0.0000 H   0  0  0  0  0  0  0  0  0  0  0  0
   -3.5723    0.8638    0.0000 H   0  0  0  0  0  0  0  0  0  0  0  0
   -2.3226   -0.3099    0.0000 H   0  0  0  0  0  0  0  0  0  0  0  0
   -2.3226    1.5472    0.0000 H   0  0  0  0  0  0  0  0  0  0  0  0
    0.8937    1.5472    0.0000 H   0  0  0  0  0  0  0  0  0  0  0  0
   -0.8937    4.0222    0.0000 H   0  0  0  0  0  0  0  0  0  0  0  0
    0.7144    4.9507    0.0000 H   0  0  0  0  0  0  0  0  0  0  0  0
    2.3226    4.0222    0.0000 H   0  0  0  0  0  0  0  0  0  0  0  0
    2.3226    2.1652    0.0000 H   0  0  0  0  0  0  0  0  0  0  0  0
    0.7144    1.2367    0.0000 H   0  0  0  0  0  0  0  0  0  0  0  0
    0.7144   -1.1907    0.0000 H   0  0  0  0  0  0  0  0  0  0  0  0
    2.1434   -1.2762    0.0000 H   0  0  0  0  0  0  0  0  0  0  0  0
    3.0700   -0.7412    0.0000 H   0  0  0  0  0  0  0  0  0  0  0  0
    3.5724   -1.2762    0.0000 H   0  0  0  0  0  0  0  0  0  0  0  0
    4.4989    0.3289    0.0000 H   0  0  0  0  0  0  0  0  0  0  0  0
    4.4990   -0.7411    0.0000 H   0  0  0  0  0  0  0  0  0  0  0  0
  1  2  2  0  0  0  0
  1 18  1  0  0  0  0
  1 26  1  0  0  0  0
  2  3  1  0  0  0  0
  2 15  1  0  0  0  0
  3  4  2  0  0  0  0
  4  5  1  0  0  0  0
  4 10  1  0  0  0  0
  5  6  1  0  0  0  0
  5 32  1  0  0  0  0
  6  7  1  0  0  0  0
  6  9  2  0  0  0  0
  7  8  1  0  0  0  0
  8 33  1  0  0  0  0
  8 34  1  0  0  0  0
  8 35  1  0  0  0  0
 10 11  1  0  0  0  0
 10 36  1  0  0  0  0
 11 12  1  0  0  0  0
 11 14  2  0  0  0  0
 12 13  1  0  0  0  0
 13 37  1  0  0  0  0
 13 38  1  0  0  0  0
 13 39  1  0  0  0  0
 15 16  2  0  0  0  0
 15 40  1  0  0  0  0
 16 17  1  0  0  0  0
 16 41  1  0  0  0  0
 17 18  2  0  0  0  0
 17 19  1  0  0  0  0
 18 42  1  0  0  0  0
 19 20  1  0  0  0  0
 20 21  2  0  0  0  0
 20 25  1  0  0  0  0
 21 22  1  0  0  0  0
 21 43  1  0  0  0  0
 22 23  2  0  0  0  0
 22 44  1  0  0  0  0
 23 24  1  0  0  0  0
 23 45  1  0  0  0  0
 24 25  2  0  0  0  0
 24 46  1  0  0  0  0
 25 47  1  0  0  0  0
 26 27  1  0  0  0  0
 26 48  1  0  0  0  0
 27 28  1  0  0  0  0
 27 31  2  0  0  0  0
 28 29  1  0  0  0  0
 28 49  1  0  0  0  0
 28 50  1  0  0  0  0
 29 30  1  0  0  0  0
 30 51  1  0  0  0  0
 30 52  1  0  0  0  0
 30 53  1  0  0  0  0
M  END
>  <DRUGBANK_ID>
DB11409

>  <COMMON_NAME>
Febantel

>  <CAS_NUMBER>
58306-30-2

>  <UNII>
S75C401OS1

>  <SYNONYMS>
Febantel; Febantelum

$$$$
