
 OpenBabel10282417072D

 60 61  0  0  0  0  0  0  0  0999 V2000
    2.1434   -6.1875    0.0000 C   0  0  0  0  0  0  0  0  0  0  0  0
    2.1434   -5.3625    0.0000 C   0  0  0  0  0  0  0  0  0  0  0  0
    2.8579   -4.9500    0.0000 C   0  0  0  0  0  0  0  0  0  0  0  0
    2.8579   -4.1250    0.0000 C   0  0  0  0  0  0  0  0  0  0  0  0
    3.5724   -3.7125    0.0000 C   0  0  0  0  0  0  0  0  0  0  0  0
    4.2868   -4.1250    0.0000 C   0  0  0  0  0  0  0  0  0  0  0  0
    4.2868   -4.9500    0.0000 O   0  0  0  0  0  0  0  0  0  0  0  0
    5.0013   -5.3625    0.0000 C   0  0  0  0  0  0  0  0  0  0  0  0
    5.7158   -4.9500    0.0000 O   0  0  0  0  0  0  0  0  0  0  0  0
    5.0013   -6.1875    0.0000 C   0  0  0  0  0  0  0  0  0  0  0  0
    4.2868   -6.6000    0.0000 C   0  0  0  0  0  0  0  0  0  0  0  0
    4.2868   -7.4250    0.0000 C   0  0  0  0  0  0  0  0  0  0  0  0
    5.0013   -7.8375    0.0000 C   0  0  0  0  0  0  0  0  0  0  0  0
    5.7158   -7.4250    0.0000 C   0  0  0  0  0  0  0  0  0  0  0  0
    5.7158   -6.6000    0.0000 C   0  0  0  0  0  0  0  0  0  0  0  0
    6.4302   -6.1875    0.0000 C   0  0  0  0  0  0  0  0  0  0  0  0
    6.4302   -5.3625    0.0000 O   0  0  0  0  0  0  0  0  0  0  0  0
    7.1447   -6.6000    0.0000 C   0  0  0  0  0  0  0  0  0  0  0  0
    7.8592   -6.1875    0.0000 C   0  0  0  0  0  0  0  0  0  0  0  0
    8.5737   -6.6000    0.0000 C   0  0  0  0  0  0  0  0  0  0  0  0
    8.5737   -7.4250    0.0000 C   0  0  0  0  0  0  0  0  0  0  0  0
    7.8592   -7.8375    0.0000 C   0  0  0  0  0  0  0  0  0  0  0  0
    7.1447   -7.4250    0.0000 C   0  0  0  0  0  0  0  0  0  0  0  0
    6.4302   -7.8375    0.0000 O   0  0  0  0  0  0  0  0  0  0  0  0
    9.2881   -7.8375    0.0000 N   0  0  0  0  0  0  0  0  0  0  0  0
   10.0026   -7.4250    0.0000 C   0  0  0  0  0  0  0  0  0  0  0  0
   10.0026   -6.6000    0.0000 C   0  0  0  0  0  0  0  0  0  0  0  0
    9.2881   -8.6625    0.0000 C   0  0  0  0  0  0  0  0  0  0  0  0
   10.0026   -9.0750    0.0000 C   0  0  0  0  0  0  0  0  0  0  0  0
    1.2168   -6.7225    0.0000 H   0  0  0  0  0  0  0  0  0  0  0  0
    3.0700   -6.7225    0.0000 H   0  0  0  0  0  0  0  0  0  0  0  0
    2.1434   -7.2575    0.0000 H   0  0  0  0  0  0  0  0  0  0  0  0
    1.2168   -4.8275    0.0000 H   0  0  0  0  0  0  0  0  0  0  0  0
    2.1434   -4.2925    0.0000 H   0  0  0  0  0  0  0  0  0  0  0  0
    3.7845   -5.4850    0.0000 H   0  0  0  0  0  0  0  0  0  0  0  0
    3.7845   -4.4150    0.0000 H   0  0  0  0  0  0  0  0  0  0  0  0
    1.9313   -3.5900    0.0000 H   0  0  0  0  0  0  0  0  0  0  0  0
    2.8579   -3.0550    0.0000 H   0  0  0  0  0  0  0  0  0  0  0  0
    3.5724   -2.6425    0.0000 H   0  0  0  0  0  0  0  0  0  0  0  0
    4.4991   -3.1775    0.0000 H   0  0  0  0  0  0  0  0  0  0  0  0
    5.2135   -3.5900    0.0000 H   0  0  0  0  0  0  0  0  0  0  0  0
    5.2134   -4.6600    0.0000 H   0  0  0  0  0  0  0  0  0  0  0  0
    3.3931   -6.0840    0.0000 H   0  0  0  0  0  0  0  0  0  0  0  0
    3.3931   -7.9410    0.0000 H   0  0  0  0  0  0  0  0  0  0  0  0
    5.0013   -8.8695    0.0000 H   0  0  0  0  0  0  0  0  0  0  0  0
    6.6095   -7.9410    0.0000 H   0  0  0  0  0  0  0  0  0  0  0  0
    7.8592   -5.1555    0.0000 H   0  0  0  0  0  0  0  0  0  0  0  0
    9.4674   -6.0840    0.0000 H   0  0  0  0  0  0  0  0  0  0  0  0
    7.8592   -8.8695    0.0000 H   0  0  0  0  0  0  0  0  0  0  0  0
    5.6187   -7.3690    0.0000 H   0  0  0  0  0  0  0  0  0  0  0  0
   10.9292   -7.9600    0.0000 H   0  0  0  0  0  0  0  0  0  0  0  0
   10.9292   -6.8900    0.0000 H   0  0  0  0  0  0  0  0  0  0  0  0
   10.9292   -6.0650    0.0000 H   0  0  0  0  0  0  0  0  0  0  0  0
    9.0760   -6.0650    0.0000 H   0  0  0  0  0  0  0  0  0  0  0  0
   10.0026   -5.5300    0.0000 H   0  0  0  0  0  0  0  0  0  0  0  0
    8.3615   -9.1975    0.0000 H   0  0  0  0  0  0  0  0  0  0  0  0
    9.2881   -9.7325    0.0000 H   0  0  0  0  0  0  0  0  0  0  0  0
   10.0026  -10.1450    0.0000 H   0  0  0  0  0  0  0  0  0  0  0  0
   10.9292   -8.5400    0.0000 H   0  0  0  0  0  0  0  0  0  0  0  0
   10.9293   -9.6100    0.0000 H   0  0  0  0  0  0  0  0  0  0  0  0
  1  2  1  0  0  0  0
  1 30  1  0  0  0  0
  1 31  1  0  0  0  0
  1 32  1  0  0  0  0
  2  3  1  0  0  0  0
  2 33  1  0  0  0  0
  2 34  1  0  0  0  0
  3  4  1  0  0  0  0
  3 35  1  0  0  0  0
  3 36  1  0  0  0  0
  4  5  1  0  0  0  0
  4 37  1  0  0  0  0
  4 38  1  0  0  0  0
  5  6  1  0  0  0  0
  5 39  1  0  0  0  0
  5 40  1  0  0  0  0
  6  7  1  0  0  0  0
  6 41  1  0  0  0  0
  6 42  1  0  0  0  0
  7  8  1  0  0  0  0
  8  9  2  0  0  0  0
  8 10  1  0  0  0  0
 10 11  2  0  0  0  0
 10 15  1  0  0  0  0
 11 12  1  0  0  0  0
 11 43  1  0  0  0  0
 12 13  2  0  0  0  0
 12 44  1  0  0  0  0
 13 14  1  0  0  0  0
 13 45  1  0  0  0  0
 14 15  2  0  0  0  0
 14 46  1  0  0  0  0
 15 16  1  0  0  0  0
 16 17  2  0  0  0  0
 16 18  1  0  0  0  0
 18 19  2  0  0  0  0
 18 23  1  0  0  0  0
 19 20  1  0  0  0  0
 19 47  1  0  0  0  0
 20 21  2  0  0  0  0
 20 48  1  0  0  0  0
 21 22  1  0  0  0  0
 21 25  1  0  0  0  0
 22 23  2  0  0  0  0
 22 49  1  0  0  0  0
 23 24  1  0  0  0  0
 24 50  1  0  0  0  0
 25 26  1  0  0  0  0
 25 28  1  0  0  0  0
 26 27  1  0  0  0  0
 26 51  1  0  0  0  0
 26 52  1  0  0  0  0
 27 53  1  0  0  0  0
 27 54  1  0  0  0  0
 27 55  1  0  0  0  0
 28 29  1  0  0  0  0
 28 56  1  0  0  0  0
 28 57  1  0  0  0  0
 29 58  1  0  0  0  0
 29 59  1  0  0  0  0
 29 60  1  0  0  0  0
M  END
>  <DRUGBANK_ID>
DB11269

>  <COMMON_NAME>
Diethylamino hydroxybenzoyl hexyl benzoate

>  <CAS_NUMBER>
302776-68-7

>  <UNII>
ANQ870JD20

>  <SYNONYMS>
Hexyl 2-(4-(diethylamino)-2-hydroxybenzoyl)benzoate

$$$$
