499
 OpenBabel10282417072D

 30 30  0  0  0  0  0  0  0  0999 V2000
    2.9685    1.8563    0.0000 F   0  0  0  0  0  0  0  0  0  0  0  0
    4.6185    1.8563    0.0000 F   0  0  0  0  0  0  0  0  0  0  0  0
    3.7935    2.6813    0.0000 F   0  0  0  0  0  0  0  0  0  0  0  0
    4.5080   -1.8563    0.0000 O   0  0  0  0  0  0  0  0  0  0  0  0
    1.6500    0.6188    0.0000 O   0  5  0  0  0  0  0  0  0  0  0  0
    2.3645    1.8563    0.0000 O   0  0  0  0  0  0  0  0  0  0  0  0
    5.2224   -0.6188    0.0000 N   0  0  0  0  0  0  0  0  0  0  0  0
    2.3645    1.0313    0.0000 N   0  3  0  0  0  0  0  0  0  0  0  0
    5.9370   -1.8563    0.0000 C   0  0  0  0  0  0  0  0  0  0  0  0
    4.5080   -0.2063    0.0000 C   0  0  0  0  0  0  0  0  0  0  0  0
    5.2224   -1.4438    0.0000 C   0  0  0  0  0  0  0  0  0  0  0  0
    3.7935    1.0313    0.0000 C   0  0  0  0  0  0  0  0  0  0  0  0
    4.5080    0.6188    0.0000 C   0  0  0  0  0  0  0  0  0  0  0  0
    6.6515   -1.4438    0.0000 C   0  0  0  0  0  0  0  0  0  0  0  0
    5.9370   -2.6813    0.0000 C   0  0  0  0  0  0  0  0  0  0  0  0
    3.0791    0.6188    0.0000 C   0  0  0  0  0  0  0  0  0  0  0  0
    3.7935   -0.6188    0.0000 C   0  0  0  0  0  0  0  0  0  0  0  0
    3.0791   -0.2063    0.0000 C   0  0  0  0  0  0  0  0  0  0  0  0
    3.7935    1.8563    0.0000 C   0  0  0  0  0  0  0  0  0  0  0  0
    6.0750   -0.1266    0.0000 H   0  0  0  0  0  0  0  0  0  0  0  0
    6.8636   -2.3913    0.0000 H   0  0  0  0  0  0  0  0  0  0  0  0
    5.4017    1.1348    0.0000 H   0  0  0  0  0  0  0  0  0  0  0  0
    7.5781   -1.9788    0.0000 H   0  0  0  0  0  0  0  0  0  0  0  0
    6.6515   -0.3738    0.0000 H   0  0  0  0  0  0  0  0  0  0  0  0
    7.5782   -0.9088    0.0000 H   0  0  0  0  0  0  0  0  0  0  0  0
    5.0104   -3.2163    0.0000 H   0  0  0  0  0  0  0  0  0  0  0  0
    6.8636   -3.2163    0.0000 H   0  0  0  0  0  0  0  0  0  0  0  0
    5.9370   -3.7513    0.0000 H   0  0  0  0  0  0  0  0  0  0  0  0
    3.7935   -1.6508    0.0000 H   0  0  0  0  0  0  0  0  0  0  0  0
    2.1854   -0.7223    0.0000 H   0  0  0  0  0  0  0  0  0  0  0  0
  1 19  1  0  0  0  0
  2 19  1  0  0  0  0
  3 19  1  0  0  0  0
  4 11  2  0  0  0  0
  5  8  1  0  0  0  0
  6  8  2  0  0  0  0
  7 10  1  0  0  0  0
  7 11  1  0  0  0  0
  7 20  1  0  0  0  0
  8 16  1  0  0  0  0
  9 11  1  0  0  0  0
  9 14  1  0  0  0  0
  9 15  1  0  0  0  0
  9 21  1  0  0  0  0
 10 13  2  0  0  0  0
 10 17  1  0  0  0  0
 12 13  1  0  0  0  0
 12 16  2  0  0  0  0
 12 19  1  0  0  0  0
 13 22  1  0  0  0  0
 14 23  1  0  0  0  0
 14 24  1  0  0  0  0
 14 25  1  0  0  0  0
 15 26  1  0  0  0  0
 15 27  1  0  0  0  0
 15 28  1  0  0  0  0
 16 18  1  0  0  0  0
 17 18  2  0  0  0  0
 17 29  1  0  0  0  0
 18 30  1  0  0  0  0
M  CHG  2   5  -1   8   1
M  END
>  <DRUGBANK_ID>
DB00499

>  <SECONDARY_ACCESSION_NUMBERS>
APRD00984

>  <COMMON_NAME>
Flutamide

>  <CAS_NUMBER>
13311-84-7

>  <UNII>
76W6J0943E

>  <SYNONYMS>
4'-nitro-3'-trifluoromethylisobutyranilide; Flutamid; Flutamida; Flutamide; Flutamidum; FTA; NFBA; Niftolid; Niftolide; α,α,α-trifluoro-2-methyl-4'-nitro-m-propionotoluidide

$$$$
