
 OpenBabel10282417072D

 61 62  0  0  0  0  0  0  0  0999 V2000
    5.2908   -6.5946    0.0000 C   0  0  0  0  0  0  0  0  0  0  0  0
    4.4658   -6.5946    0.0000 C   0  0  0  0  0  0  0  0  0  0  0  0
    4.0533   -7.3091    0.0000 C   0  0  0  0  0  0  0  0  0  0  0  0
    4.0533   -5.8801    0.0000 N   0  0  0  0  0  0  0  0  0  0  0  0
    3.2283   -5.8801    0.0000 C   0  0  0  0  0  0  0  0  0  0  0  0
    2.8158   -5.1657    0.0000 C   0  0  0  0  0  0  0  0  0  0  0  0
    1.9908   -5.1657    0.0000 N   0  0  0  0  0  0  0  0  0  0  0  0
    1.5783   -4.4512    0.0000 C   0  0  0  0  0  0  0  0  0  0  0  0
    1.9908   -3.7367    0.0000 O   0  0  0  0  0  0  0  0  0  0  0  0
    0.7533   -4.4512    0.0000 C   0  0  0  0  0  0  0  0  0  0  0  0
    0.2684   -5.1186    0.0000 C   0  0  0  0  0  0  0  0  0  0  0  0
   -0.5162   -4.8637    0.0000 S   0  0  0  0  0  0  0  0  0  0  0  0
   -0.5162   -4.0387    0.0000 C   0  0  0  0  0  0  0  0  0  0  0  0
    0.2684   -3.7837    0.0000 N   0  0  0  0  0  0  0  0  0  0  0  0
   -1.1837   -3.5538    0.0000 N   0  0  0  0  0  0  0  0  0  0  0  0
   -1.9374   -3.8893    0.0000 C   0  0  0  0  0  0  0  0  0  0  0  0
   -2.0236   -4.7098    0.0000 O   0  0  0  0  0  0  0  0  0  0  0  0
   -2.6048   -3.4044    0.0000 C   0  0  0  0  0  0  0  0  0  0  0  0
   -3.3585   -3.7400    0.0000 C   0  0  0  0  0  0  0  0  0  0  0  0
   -4.0259   -3.2550    0.0000 C   0  0  0  0  0  0  0  0  0  0  0  0
   -3.9397   -2.4346    0.0000 C   0  0  0  0  0  0  0  0  0  0  0  0
   -3.1860   -2.0990    0.0000 C   0  0  0  0  0  0  0  0  0  0  0  0
   -2.5186   -2.5839    0.0000 C   0  0  0  0  0  0  0  0  0  0  0  0
   -1.7649   -2.2484    0.0000 O   0  0  0  0  0  0  0  0  0  0  0  0
   -4.6071   -1.9496    0.0000 O   0  0  0  0  0  0  0  0  0  0  0  0
   -5.3608   -2.2852    0.0000 C   0  0  0  0  0  0  0  0  0  0  0  0
   -4.7796   -3.5906    0.0000 O   0  0  0  0  0  0  0  0  0  0  0  0
   -5.4470   -3.1057    0.0000 C   0  0  0  0  0  0  0  0  0  0  0  0
    4.4658   -5.1657    0.0000 C   0  0  0  0  0  0  0  0  0  0  0  0
    4.0533   -4.4512    0.0000 C   0  0  0  0  0  0  0  0  0  0  0  0
    5.2908   -5.1657    0.0000 C   0  0  0  0  0  0  0  0  0  0  0  0
    5.8258   -7.5212    0.0000 H   0  0  0  0  0  0  0  0  0  0  0  0
    5.8258   -5.6680    0.0000 H   0  0  0  0  0  0  0  0  0  0  0  0
    6.3608   -6.5946    0.0000 H   0  0  0  0  0  0  0  0  0  0  0  0
    3.3958   -6.5946    0.0000 H   0  0  0  0  0  0  0  0  0  0  0  0
    2.9833   -7.3091    0.0000 H   0  0  0  0  0  0  0  0  0  0  0  0
    4.5883   -8.2357    0.0000 H   0  0  0  0  0  0  0  0  0  0  0  0
    3.5183   -8.2358    0.0000 H   0  0  0  0  0  0  0  0  0  0  0  0
    2.6933   -6.8068    0.0000 H   0  0  0  0  0  0  0  0  0  0  0  0
    2.1583   -5.8801    0.0000 H   0  0  0  0  0  0  0  0  0  0  0  0
    3.3508   -4.2390    0.0000 H   0  0  0  0  0  0  0  0  0  0  0  0
    2.2808   -4.2391    0.0000 H   0  0  0  0  0  0  0  0  0  0  0  0
    1.4985   -6.0183    0.0000 H   0  0  0  0  0  0  0  0  0  0  0  0
    0.5873   -6.1001    0.0000 H   0  0  0  0  0  0  0  0  0  0  0  0
   -1.0808   -2.5747    0.0000 H   0  0  0  0  0  0  0  0  0  0  0  0
   -3.4664   -4.7663    0.0000 H   0  0  0  0  0  0  0  0  0  0  0  0
   -3.0781   -1.0727    0.0000 H   0  0  0  0  0  0  0  0  0  0  0  0
   -1.0069   -2.7992    0.0000 H   0  0  0  0  0  0  0  0  0  0  0  0
   -6.2265   -1.6563    0.0000 H   0  0  0  0  0  0  0  0  0  0  0  0
   -5.4726   -3.3493    0.0000 H   0  0  0  0  0  0  0  0  0  0  0  0
   -6.3383   -2.7204    0.0000 H   0  0  0  0  0  0  0  0  0  0  0  0
   -5.3351   -2.0416    0.0000 H   0  0  0  0  0  0  0  0  0  0  0  0
   -6.4245   -3.5409    0.0000 H   0  0  0  0  0  0  0  0  0  0  0  0
   -6.3126   -2.4768    0.0000 H   0  0  0  0  0  0  0  0  0  0  0  0
    5.0008   -4.2391    0.0000 H   0  0  0  0  0  0  0  0  0  0  0  0
    4.5883   -3.5246    0.0000 H   0  0  0  0  0  0  0  0  0  0  0  0
    2.9833   -4.4512    0.0000 H   0  0  0  0  0  0  0  0  0  0  0  0
    3.5183   -3.5245    0.0000 H   0  0  0  0  0  0  0  0  0  0  0  0
    5.8258   -6.0923    0.0000 H   0  0  0  0  0  0  0  0  0  0  0  0
    5.8258   -4.2391    0.0000 H   0  0  0  0  0  0  0  0  0  0  0  0
    6.3608   -5.1657    0.0000 H   0  0  0  0  0  0  0  0  0  0  0  0
  1  2  1  0  0  0  0
  1 32  1  0  0  0  0
  1 33  1  0  0  0  0
  1 34  1  0  0  0  0
  2  3  1  0  0  0  0
  2  4  1  0  0  0  0
  2 35  1  0  0  0  0
  3 36  1  0  0  0  0
  3 37  1  0  0  0  0
  3 38  1  0  0  0  0
  4  5  1  0  0  0  0
  4 29  1  0  0  0  0
  5  6  1  0  0  0  0
  5 39  1  0  0  0  0
  5 40  1  0  0  0  0
  6  7  1  0  0  0  0
  6 41  1  0  0  0  0
  6 42  1  0  0  0  0
  7  8  1  0  0  0  0
  7 43  1  0  0  0  0
  8  9  2  0  0  0  0
  8 10  1  0  0  0  0
 10 11  2  0  0  0  0
 10 14  1  0  0  0  0
 11 12  1  0  0  0  0
 11 44  1  0  0  0  0
 12 13  1  0  0  0  0
 13 14  2  0  0  0  0
 13 15  1  0  0  0  0
 15 16  1  0  0  0  0
 15 45  1  0  0  0  0
 16 17  2  0  0  0  0
 16 18  1  0  0  0  0
 18 19  2  0  0  0  0
 18 23  1  0  0  0  0
 19 20  1  0  0  0  0
 19 46  1  0  0  0  0
 20 21  2  0  0  0  0
 20 27  1  0  0  0  0
 21 22  1  0  0  0  0
 21 25  1  0  0  0  0
 22 23  2  0  0  0  0
 22 47  1  0  0  0  0
 23 24  1  0  0  0  0
 24 48  1  0  0  0  0
 25 26  1  0  0  0  0
 26 49  1  0  0  0  0
 26 50  1  0  0  0  0
 26 51  1  0  0  0  0
 27 28  1  0  0  0  0
 28 52  1  0  0  0  0
 28 53  1  0  0  0  0
 28 54  1  0  0  0  0
 29 30  1  0  0  0  0
 29 31  1  0  0  0  0
 29 55  1  0  0  0  0
 30 56  1  0  0  0  0
 30 57  1  0  0  0  0
 30 58  1  0  0  0  0
 31 59  1  0  0  0  0
 31 60  1  0  0  0  0
 31 61  1  0  0  0  0
M  END
>  <DRUGBANK_ID>
DB12482

>  <COMMON_NAME>
Acotiamide

>  <CAS_NUMBER>
185106-16-5

>  <UNII>
D42OWK5383

>  <SYNONYMS>
Acotiamide

$$$$
