
 OpenBabel10282417072D

 81 85  0  0  1  0  0  0  0  0999 V2000
   -4.5672    0.4130    0.0000 C   0  0  0  0  0  0  0  0  0  0  0  0
   -4.3122    1.1976    0.0000 O   0  0  0  0  0  0  0  0  0  0  0  0
   -4.8643    1.8107    0.0000 C   0  0  2  0  0  0  0  0  0  0  0  0
   -4.6927    2.6177    0.0000 C   0  0  2  0  0  0  0  0  0  0  0  0
   -3.9391    2.9533    0.0000 O   0  0  0  0  0  0  0  0  0  0  0  0
   -3.2716    2.4683    0.0000 P   0  0  3  0  0  0  0  0  0  0  0  0
   -3.7565    1.8009    0.0000 O   0  0  0  0  0  0  0  0  0  0  0  0
   -2.6042    1.9834    0.0000 O   0  0  0  0  0  0  0  0  0  0  0  0
   -1.8505    2.3190    0.0000 C   0  0  0  0  0  0  0  0  0  0  0  0
   -1.1831    1.8341    0.0000 C   0  0  1  0  0  0  0  0  0  0  0  0
   -1.1831    1.0091    0.0000 O   0  0  0  0  0  0  0  0  0  0  0  0
   -0.3984    0.7541    0.0000 C   0  0  2  0  0  0  0  0  0  0  0  0
    0.0865    1.4216    0.0000 C   0  0  0  0  0  0  0  0  0  0  0  0
   -0.3984    2.0890    0.0000 C   0  0  2  0  0  0  0  0  0  0  0  0
   -0.1435    2.8736    0.0000 O   0  0  0  0  0  0  0  0  0  0  0  0
   -0.1435   -0.0305    0.0000 N   0  0  0  0  0  0  0  0  0  0  0  0
   -0.6284   -0.6979    0.0000 C   0  0  0  0  0  0  0  0  0  0  0  0
   -0.1435   -1.3654    0.0000 N   0  0  0  0  0  0  0  0  0  0  0  0
    0.6411   -1.1104    0.0000 C   0  0  0  0  0  0  0  0  0  0  0  0
    0.6411   -0.2854    0.0000 C   0  0  0  0  0  0  0  0  0  0  0  0
    1.3556    0.1271    0.0000 N   0  0  0  0  0  0  0  0  0  0  0  0
    2.0701   -0.2854    0.0000 C   0  0  0  0  0  0  0  0  0  0  0  0
    2.0701   -1.1104    0.0000 N   0  0  0  0  0  0  0  0  0  0  0  0
    1.3556   -1.5229    0.0000 C   0  0  0  0  0  0  0  0  0  0  0  0
    1.3556   -2.3479    0.0000 N   0  0  0  0  0  0  0  0  0  0  0  0
   -2.7867    3.1358    0.0000 S   0  0  0  0  0  0  0  0  0  0  0  0
   -3.1223    3.8895    0.0000 C   0  0  0  0  0  0  0  0  0  0  0  0
   -2.6373    4.5569    0.0000 O   0  0  0  0  0  0  0  0  0  0  0  0
   -2.9729    5.3106    0.0000 C   0  0  0  0  0  0  0  0  0  0  0  0
   -3.7934    5.3968    0.0000 O   0  0  0  0  0  0  0  0  0  0  0  0
   -2.4880    5.9780    0.0000 O   0  0  0  0  0  0  0  0  0  0  0  0
   -2.8235    6.7317    0.0000 C   0  0  0  0  0  0  0  0  0  0  0  0
   -3.6440    6.8179    0.0000 C   0  0  0  0  0  0  0  0  0  0  0  0
   -2.3386    7.3991    0.0000 C   0  0  0  0  0  0  0  0  0  0  0  0
   -5.4072    3.0302    0.0000 C   0  0  1  0  0  0  0  0  0  0  0  0
   -5.4934    3.8507    0.0000 C   0  0  0  0  0  0  0  0  0  0  0  0
   -4.8260    4.3356    0.0000 O   0  0  0  0  0  0  0  0  0  0  0  0
   -6.0203    2.4782    0.0000 O   0  0  0  0  0  0  0  0  0  0  0  0
   -5.6847    1.7245    0.0000 C   0  0  1  0  0  0  0  0  0  0  0  0
   -6.0972    1.0100    0.0000 N   0  0  0  0  0  0  0  0  0  0  0  0
   -5.6847    0.2956    0.0000 C   0  0  0  0  0  0  0  0  0  0  0  0
   -6.0972   -0.4189    0.0000 C   0  0  0  0  0  0  0  0  0  0  0  0
   -6.9222   -0.4189    0.0000 C   0  0  0  0  0  0  0  0  0  0  0  0
   -7.3347   -1.1334    0.0000 O   0  0  0  0  0  0  0  0  0  0  0  0
   -7.3347    0.2956    0.0000 N   0  0  0  0  0  0  0  0  0  0  0  0
   -6.9222    1.0100    0.0000 C   0  0  0  0  0  0  0  0  0  0  0  0
   -7.3347    1.7245    0.0000 O   0  0  0  0  0  0  0  0  0  0  0  0
   -5.6138    0.1906    0.0000 H   0  0  0  0  0  0  0  0  0  0  0  0
   -3.8513   -0.3822    0.0000 H   0  0  0  0  0  0  0  0  0  0  0  0
   -4.8979   -0.6046    0.0000 H   0  0  0  0  0  0  0  0  0  0  0  0
   -3.8308    2.0876    0.0000 H   0  0  0  0  0  0  0  0  0  0  0  0
   -3.8612    1.9443    0.0000 H   0  0  0  0  0  0  0  0  0  0  0  0
   -1.7387    3.3831    0.0000 H   0  0  0  0  0  0  0  0  0  0  0  0
   -0.8730    2.7542    0.0000 H   0  0  0  0  0  0  0  0  0  0  0  0
   -2.1365    1.3483    0.0000 H   0  0  0  0  0  0  0  0  0  0  0  0
   -1.1550   -0.0025    0.0000 H   0  0  0  0  0  0  0  0  0  0  0  0
    1.1565    1.4216    0.0000 H   0  0  0  0  0  0  0  0  0  0  0  0
    0.5723    2.3750    0.0000 H   0  0  0  0  0  0  0  0  0  0  0  0
    0.6584    2.2564    0.0000 H   0  0  0  0  0  0  0  0  0  0  0  0
    0.8053    3.0753    0.0000 H   0  0  0  0  0  0  0  0  0  0  0  0
   -1.6604   -0.6979    0.0000 H   0  0  0  0  0  0  0  0  0  0  0  0
    2.9638    0.2306    0.0000 H   0  0  0  0  0  0  0  0  0  0  0  0
    0.5030   -2.8402    0.0000 H   0  0  0  0  0  0  0  0  0  0  0  0
    2.2082   -2.8401    0.0000 H   0  0  0  0  0  0  0  0  0  0  0  0
   -4.1864    4.0014    0.0000 H   0  0  0  0  0  0  0  0  0  0  0  0
   -3.5574    4.8670    0.0000 H   0  0  0  0  0  0  0  0  0  0  0  0
   -3.2587    7.7092    0.0000 H   0  0  0  0  0  0  0  0  0  0  0  0
   -4.0793    7.7954    0.0000 H   0  0  0  0  0  0  0  0  0  0  0  0
   -4.2729    5.9522    0.0000 H   0  0  0  0  0  0  0  0  0  0  0  0
   -4.7081    6.9297    0.0000 H   0  0  0  0  0  0  0  0  0  0  0  0
   -1.2745    7.2872    0.0000 H   0  0  0  0  0  0  0  0  0  0  0  0
   -2.7738    8.3766    0.0000 H   0  0  0  0  0  0  0  0  0  0  0  0
   -1.7097    8.2647    0.0000 H   0  0  0  0  0  0  0  0  0  0  0  0
   -4.5098    3.6130    0.0000 H   0  0  0  0  0  0  0  0  0  0  0  0
   -6.4709    4.2859    0.0000 H   0  0  0  0  0  0  0  0  0  0  0  0
   -5.6052    4.9148    0.0000 H   0  0  0  0  0  0  0  0  0  0  0  0
   -3.9399    3.9411    0.0000 H   0  0  0  0  0  0  0  0  0  0  0  0
   -6.7532    1.7805    0.0000 H   0  0  0  0  0  0  0  0  0  0  0  0
   -4.6527    0.2956    0.0000 H   0  0  0  0  0  0  0  0  0  0  0  0
   -5.5812   -1.3126    0.0000 H   0  0  0  0  0  0  0  0  0  0  0  0
   -8.3192    0.2956    0.0000 H   0  0  0  0  0  0  0  0  0  0  0  0
  1  2  1  0  0  0  0
  1 48  1  0  0  0  0
  1 49  1  0  0  0  0
  1 50  1  0  0  0  0
  3  2  1  0  0  0  0
  3  4  1  0  0  0  0
  3 39  1  0  0  0  0
  3 51  1  6  0  0  0
  4  5  1  0  0  0  0
  4 35  1  0  0  0  0
  4 52  1  6  0  0  0
  5  6  1  0  0  0  0
  6  7  2  0  0  0  0
  6  8  1  0  0  0  0
  6 26  1  0  0  0  0
  8  9  1  0  0  0  0
  9 53  1  0  0  0  0
  9 54  1  0  0  0  0
 10  9  1  0  0  0  0
 10 11  1  0  0  0  0
 10 14  1  0  0  0  0
 10 55  1  1  0  0  0
 12 11  1  0  0  0  0
 12 13  1  0  0  0  0
 12 16  1  0  0  0  0
 12 56  1  1  0  0  0
 13 57  1  0  0  0  0
 13 58  1  0  0  0  0
 14 13  1  0  0  0  0
 14 15  1  0  0  0  0
 14 59  1  6  0  0  0
 15 60  1  0  0  0  0
 16 17  1  0  0  0  0
 16 20  1  0  0  0  0
 17 18  2  0  0  0  0
 17 61  1  0  0  0  0
 18 19  1  0  0  0  0
 19 20  2  0  0  0  0
 19 24  1  0  0  0  0
 20 21  1  0  0  0  0
 21 22  2  0  0  0  0
 22 23  1  0  0  0  0
 22 62  1  0  0  0  0
 23 24  2  0  0  0  0
 24 25  1  0  0  0  0
 25 63  1  0  0  0  0
 25 64  1  0  0  0  0
 26 27  1  0  0  0  0
 27 28  1  0  0  0  0
 27 65  1  0  0  0  0
 27 66  1  0  0  0  0
 28 29  1  0  0  0  0
 29 30  2  0  0  0  0
 29 31  1  0  0  0  0
 31 32  1  0  0  0  0
 32 33  1  0  0  0  0
 32 34  1  0  0  0  0
 32 67  1  0  0  0  0
 33 68  1  0  0  0  0
 33 69  1  0  0  0  0
 33 70  1  0  0  0  0
 34 71  1  0  0  0  0
 34 72  1  0  0  0  0
 34 73  1  0  0  0  0
 35 36  1  0  0  0  0
 35 38  1  0  0  0  0
 35 74  1  1  0  0  0
 36 37  1  0  0  0  0
 36 75  1  0  0  0  0
 36 76  1  0  0  0  0
 37 77  1  0  0  0  0
 39 38  1  0  0  0  0
 39 40  1  0  0  0  0
 39 78  1  1  0  0  0
 40 41  1  0  0  0  0
 40 46  1  0  0  0  0
 41 42  2  0  0  0  0
 41 79  1  0  0  0  0
 42 43  1  0  0  0  0
 42 80  1  0  0  0  0
 43 44  2  0  0  0  0
 43 45  1  0  0  0  0
 45 46  1  0  0  0  0
 45 81  1  0  0  0  0
 46 47  2  0  0  0  0
M  END
>  <DRUGBANK_ID>
DB15063

>  <COMMON_NAME>
Inarigivir soproxil

>  <CAS_NUMBER>
942123-43-5

>  <UNII>
365052M0DK

>  <SYNONYMS>
Inarigivir soproxil

$$$$
