
 OpenBabel10282417072D

 40 39  0  0  1  0  0  0  0  0999 V2000
    2.0625   -0.7145    0.0000 C   0  0  0  0  0  0  0  0  0  0  0  0
    5.6349   -0.3020    0.0000 C   0  0  0  0  0  0  0  0  0  0  0  0
    0.6336   -0.7145    0.0000 C   0  0  0  0  0  0  0  0  0  0  0  0
    2.7770   -0.3020    0.0000 C   0  0  2  0  0  0  0  0  0  0  0  0
    4.9204   -0.7145    0.0000 C   0  0  2  0  0  0  0  0  0  0  0  0
    3.4914   -0.7145    0.0000 C   0  0  2  0  0  0  0  0  0  0  0  0
    4.2059   -0.3020    0.0000 C   0  0  2  0  0  0  0  0  0  0  0  0
    1.3480   -0.3020    0.0000 N   0  0  0  0  0  0  0  0  0  0  0  0
    2.7770    0.5230    0.0000 O   0  0  0  0  0  0  0  0  0  0  0  0
    4.9204   -1.5395    0.0000 O   0  0  0  0  0  0  0  0  0  0  0  0
    3.4914   -1.5395    0.0000 O   0  0  0  0  0  0  0  0  0  0  0  0
    4.2059    0.5230    0.0000 O   0  0  0  0  0  0  0  0  0  0  0  0
   -0.7954    0.1105    0.0000 O   0  0  0  0  0  0  0  0  0  0  0  0
   -0.4934   -1.0164    0.0000 O   0  0  0  0  0  0  0  0  0  0  0  0
    0.3316    0.4125    0.0000 O   0  0  0  0  0  0  0  0  0  0  0  0
    7.7783    0.1105    0.0000 O   0  0  0  0  0  0  0  0  0  0  0  0
    7.4763   -1.0164    0.0000 O   0  0  0  0  0  0  0  0  0  0  0  0
    6.6513    0.4125    0.0000 O   0  0  0  0  0  0  0  0  0  0  0  0
    6.3493   -0.7145    0.0000 O   0  0  0  0  0  0  0  0  0  0  0  0
   -0.0809   -0.3020    0.0000 P   0  0  0  0  0  0  0  0  0  0  0  0
    7.0638   -0.3020    0.0000 P   0  0  0  0  0  0  0  0  0  0  0  0
    2.7770   -1.1270    0.0000 H   0  0  0  0  0  0  0  0  0  0  0  0
    4.9204    0.1105    0.0000 H   0  0  0  0  0  0  0  0  0  0  0  0
    3.4914    0.1105    0.0000 H   0  0  0  0  0  0  0  0  0  0  0  0
    4.2059   -1.1270    0.0000 H   0  0  0  0  0  0  0  0  0  0  0  0
    2.0625   -1.7845    0.0000 H   0  0  0  0  0  0  0  0  0  0  0  0
    1.1359   -1.2495    0.0000 H   0  0  0  0  0  0  0  0  0  0  0  0
    5.6349    0.7680    0.0000 H   0  0  0  0  0  0  0  0  0  0  0  0
    6.5616    0.2330    0.0000 H   0  0  0  0  0  0  0  0  0  0  0  0
    0.6336   -1.7845    0.0000 H   0  0  0  0  0  0  0  0  0  0  0  0
   -0.2930   -1.2495    0.0000 H   0  0  0  0  0  0  0  0  0  0  0  0
    1.3480    0.7180    0.0000 H   0  0  0  0  0  0  0  0  0  0  0  0
    3.6170    1.0080    0.0000 H   0  0  0  0  0  0  0  0  0  0  0  0
    4.0804   -2.0245    0.0000 H   0  0  0  0  0  0  0  0  0  0  0  0
    2.6514   -2.0245    0.0000 H   0  0  0  0  0  0  0  0  0  0  0  0
    5.0459    1.0080    0.0000 H   0  0  0  0  0  0  0  0  0  0  0  0
   -0.7954    1.0805    0.0000 H   0  0  0  0  0  0  0  0  0  0  0  0
   -1.4634   -1.0164    0.0000 H   0  0  0  0  0  0  0  0  0  0  0  0
    8.6183   -0.3745    0.0000 H   0  0  0  0  0  0  0  0  0  0  0  0
    6.9913   -1.8565    0.0000 H   0  0  0  0  0  0  0  0  0  0  0  0
  1 26  1  0  0  0  0
  1 27  1  0  0  0  0
  2 28  1  0  0  0  0
  2 29  1  0  0  0  0
  3 30  1  0  0  0  0
  3 31  1  0  0  0  0
  4  1  1  0  0  0  0
  4  9  1  0  0  0  0
  4 22  1  6  0  0  0
  5  2  1  0  0  0  0
  5 10  1  0  0  0  0
  5 23  1  6  0  0  0
  6  4  1  0  0  0  0
  6 11  1  0  0  0  0
  6 24  1  1  0  0  0
  7  5  1  0  0  0  0
  7  6  1  0  0  0  0
  7 12  1  0  0  0  0
  7 25  1  1  0  0  0
  8  1  1  0  0  0  0
  8  3  1  0  0  0  0
  8 32  1  0  0  0  0
  9 33  1  0  0  0  0
 10 34  1  0  0  0  0
 11 35  1  0  0  0  0
 12 36  1  0  0  0  0
 13 37  1  0  0  0  0
 14 38  1  0  0  0  0
 16 39  1  0  0  0  0
 17 40  1  0  0  0  0
 19  2  1  0  0  0  0
 20  3  1  0  0  0  0
 20 13  1  0  0  0  0
 20 14  1  0  0  0  0
 20 15  2  0  0  0  0
 21 16  1  0  0  0  0
 21 17  1  0  0  0  0
 21 18  2  0  0  0  0
 21 19  1  0  0  0  0
M  END
>  <DRUGBANK_ID>
DB02992

>  <SECONDARY_ACCESSION_NUMBERS>
EXPT01682

>  <COMMON_NAME>
1-Deoxy-6-O-Phosphono-1-[(Phosphonomethyl)Amino]-L-Threo-Hexitol

$$$$
