[NO NAME]
 OpenBabel10282417072D
Created with ChemWriter - http://chemwriter.com
 57 60  0  0  1  0  0  0  0  0999 V2000
    7.5678   -0.2005    0.0000 O   0  0  0  0  0  0  0  0  0  0  0  0
    6.8533   -3.9131    0.0000 O   0  0  0  0  0  0  0  0  0  0  0  0
    9.7657   -3.1080    0.0000 O   0  0  0  0  0  0  0  0  0  0  0  0
    6.1389    0.6245    0.0000 N   0  0  0  0  0  0  0  0  0  0  0  0
    8.3054   -3.1167    0.0000 N   0  0  0  0  0  0  0  0  0  0  0  0
    5.4244    1.0370    0.0000 C   0  0  0  0  0  0  0  0  0  0  0  0
    4.6755    0.7028    0.0000 C   0  0  0  0  0  0  0  0  0  0  0  0
    5.3394    1.8527    0.0000 C   0  0  0  0  0  0  0  0  0  0  0  0
    4.1251    1.3109    0.0000 C   0  0  0  0  0  0  0  0  0  0  0  0
    4.5376    2.0253    0.0000 C   0  0  0  0  0  0  0  0  0  0  0  0
    3.3001    1.3109    0.0000 C   0  0  0  0  0  0  0  0  0  0  0  0
    4.1251    2.7399    0.0000 C   0  0  0  0  0  0  0  0  0  0  0  0
    6.1389   -0.2005    0.0000 C   0  0  0  0  0  0  0  0  0  0  0  0
    2.8876    2.0253    0.0000 C   0  0  0  0  0  0  0  0  0  0  0  0
    3.3001    2.7399    0.0000 C   0  0  0  0  0  0  0  0  0  0  0  0
    6.8533   -0.6130    0.0000 C   0  0  1  0  0  0  0  0  0  0  0  0
    2.0625    2.0253    0.0000 C   0  0  0  0  0  0  0  0  0  0  0  0
    2.8876    3.4544    0.0000 C   0  0  0  0  0  0  0  0  0  0  0  0
    6.8533   -1.4380    0.0000 C   0  0  0  0  0  0  0  0  0  0  0  0
    7.5678   -1.8505    0.0000 C   0  0  0  0  0  0  0  0  0  0  0  0
    1.6500    1.3109    0.0000 C   0  0  0  0  0  0  0  0  0  0  0  0
    3.3001    4.1688    0.0000 C   0  0  0  0  0  0  0  0  0  0  0  0
    6.1389   -1.8505    0.0000 C   0  0  0  0  0  0  0  0  0  0  0  0
    7.5678   -2.6755    0.0000 C   0  0  0  0  0  0  0  0  0  0  0  0
    6.1389   -2.6755    0.0000 C   0  0  0  0  0  0  0  0  0  0  0  0
    8.3054   -1.4094    0.0000 C   0  0  0  0  0  0  0  0  0  0  0  0
    6.8533   -3.0880    0.0000 C   0  0  0  0  0  0  0  0  0  0  0  0
    9.0529   -1.8334    0.0000 C   0  0  0  0  0  0  0  0  0  0  0  0
    9.0529   -2.6927    0.0000 C   0  0  0  0  0  0  0  0  0  0  0  0
    8.4078   -0.6855    0.0000 H   0  0  0  0  0  0  0  0  0  0  0  0
    6.0418   -4.3816    0.0000 H   0  0  0  0  0  0  0  0  0  0  0  0
    7.0222    1.1345    0.0000 H   0  0  0  0  0  0  0  0  0  0  0  0
    8.2940   -4.1011    0.0000 H   0  0  0  0  0  0  0  0  0  0  0  0
    4.4978    1.5720    0.0000 H   0  0  0  0  0  0  0  0  0  0  0  0
    4.4548   -0.3442    0.0000 H   0  0  0  0  0  0  0  0  0  0  0  0
    3.6426    0.4236    0.0000 H   0  0  0  0  0  0  0  0  0  0  0  0
    6.1358    2.5673    0.0000 H   0  0  0  0  0  0  0  0  0  0  0  0
    5.0647    2.8868    0.0000 H   0  0  0  0  0  0  0  0  0  0  0  0
    2.7841    0.4172    0.0000 H   0  0  0  0  0  0  0  0  0  0  0  0
    4.6411    3.6336    0.0000 H   0  0  0  0  0  0  0  0  0  0  0  0
    5.2122   -0.7355    0.0000 H   0  0  0  0  0  0  0  0  0  0  0  0
    6.1389   -1.2705    0.0000 H   0  0  0  0  0  0  0  0  0  0  0  0
    6.8533    0.4570    0.0000 H   0  0  0  0  0  0  0  0  0  0  0  0
    1.5275    2.9520    0.0000 H   0  0  0  0  0  0  0  0  0  0  0  0
    0.9925    2.0253    0.0000 H   0  0  0  0  0  0  0  0  0  0  0  0
    1.8176    3.4544    0.0000 H   0  0  0  0  0  0  0  0  0  0  0  0
    2.3526    4.3811    0.0000 H   0  0  0  0  0  0  0  0  0  0  0  0
    0.5800    1.3109    0.0000 H   0  0  0  0  0  0  0  0  0  0  0  0
    2.1850    0.3842    0.0000 H   0  0  0  0  0  0  0  0  0  0  0  0
    1.1150    0.3843    0.0000 H   0  0  0  0  0  0  0  0  0  0  0  0
    4.3701    4.1688    0.0000 H   0  0  0  0  0  0  0  0  0  0  0  0
    2.7651    5.0955    0.0000 H   0  0  0  0  0  0  0  0  0  0  0  0
    3.8351    5.0954    0.0000 H   0  0  0  0  0  0  0  0  0  0  0  0
    5.2452   -1.3345    0.0000 H   0  0  0  0  0  0  0  0  0  0  0  0
    5.2452   -3.1915    0.0000 H   0  0  0  0  0  0  0  0  0  0  0  0
    8.2935   -0.3775    0.0000 H   0  0  0  0  0  0  0  0  0  0  0  0
    9.9447   -1.3140    0.0000 H   0  0  0  0  0  0  0  0  0  0  0  0
  1 30  1  0  0  0  0
  2 27  1  0  0  0  0
  2 31  1  0  0  0  0
  3 29  2  0  0  0  0
  4  6  1  0  0  0  0
  4 13  1  0  0  0  0
  4 32  1  0  0  0  0
  5 24  1  0  0  0  0
  5 29  1  0  0  0  0
  5 33  1  0  0  0  0
  6  7  1  0  0  0  0
  6  8  1  0  0  0  0
  6 34  1  0  0  0  0
  7  9  1  0  0  0  0
  7 35  1  0  0  0  0
  7 36  1  0  0  0  0
  8 10  1  0  0  0  0
  8 37  1  0  0  0  0
  8 38  1  0  0  0  0
  9 10  1  0  0  0  0
  9 11  2  0  0  0  0
 10 12  2  0  0  0  0
 11 14  1  0  0  0  0
 11 39  1  0  0  0  0
 12 15  1  0  0  0  0
 12 40  1  0  0  0  0
 13 16  1  0  0  0  0
 13 41  1  0  0  0  0
 13 42  1  0  0  0  0
 14 15  2  0  0  0  0
 14 17  1  0  0  0  0
 15 18  1  0  0  0  0
 16  1  1  0  0  0  0
 16 19  1  0  0  0  0
 16 43  1  1  0  0  0
 17 21  1  0  0  0  0
 17 44  1  0  0  0  0
 17 45  1  0  0  0  0
 18 22  1  0  0  0  0
 18 46  1  0  0  0  0
 18 47  1  0  0  0  0
 19 20  2  0  0  0  0
 19 23  1  0  0  0  0
 20 24  1  0  0  0  0
 20 26  1  0  0  0  0
 21 48  1  0  0  0  0
 21 49  1  0  0  0  0
 21 50  1  0  0  0  0
 22 51  1  0  0  0  0
 22 52  1  0  0  0  0
 22 53  1  0  0  0  0
 23 25  2  0  0  0  0
 23 54  1  0  0  0  0
 24 27  2  0  0  0  0
 25 27  1  0  0  0  0
 25 55  1  0  0  0  0
 26 28  2  0  0  0  0
 26 56  1  0  0  0  0
 28 29  1  0  0  0  0
 28 57  1  0  0  0  0
M  END
>  <DRUGBANK_ID>
DB05039

>  <COMMON_NAME>
Indacaterol

>  <CAS_NUMBER>
312753-06-3

>  <UNII>
8OR09251MQ

>  <SYNONYMS>
Indacaterol

$$$$
