
 OpenBabel10282417072D

 44 46  0  0  0  0  0  0  0  0999 V2000
    3.5724   -0.4125    0.0000 C   0  0  0  0  0  0  0  0  0  0  0  0
    3.5724   -1.2375    0.0000 C   0  0  0  0  0  0  0  0  0  0  0  0
    2.8579   -1.6500    0.0000 C   0  0  0  0  0  0  0  0  0  0  0  0
    2.1434   -1.2375    0.0000 C   0  0  0  0  0  0  0  0  0  0  0  0
    2.1434   -0.4125    0.0000 C   0  0  0  0  0  0  0  0  0  0  0  0
    2.8579    0.0000    0.0000 C   0  0  0  0  0  0  0  0  0  0  0  0
    1.4289   -1.6500    0.0000 C   0  0  0  0  0  0  0  0  0  0  0  0
    1.4289   -2.4750    0.0000 C   0  0  0  0  0  0  0  0  0  0  0  0
    2.1434   -2.8875    0.0000 C   0  0  0  0  0  0  0  0  0  0  0  0
    2.1434   -3.7125    0.0000 N   0  0  0  0  0  0  0  0  0  0  0  0
    2.8109   -4.1974    0.0000 C   0  0  0  0  0  0  0  0  0  0  0  0
    2.5559   -4.9820    0.0000 C   0  0  0  0  0  0  0  0  0  0  0  0
    1.7309   -4.9820    0.0000 C   0  0  0  0  0  0  0  0  0  0  0  0
    1.4760   -4.1974    0.0000 C   0  0  0  0  0  0  0  0  0  0  0  0
    0.7145   -1.2375    0.0000 C   0  0  0  0  0  0  0  0  0  0  0  0
    0.7145   -0.4125    0.0000 C   0  0  0  0  0  0  0  0  0  0  0  0
    0.0000    0.0000    0.0000 C   0  0  0  0  0  0  0  0  0  0  0  0
    0.0000    0.8250    0.0000 C   0  0  0  0  0  0  0  0  0  0  0  0
    0.7145    1.2375    0.0000 C   0  0  0  0  0  0  0  0  0  0  0  0
    1.4289    0.8250    0.0000 C   0  0  0  0  0  0  0  0  0  0  0  0
    1.4289    0.0000    0.0000 C   0  0  0  0  0  0  0  0  0  0  0  0
    0.7145    2.0625    0.0000 Cl  0  0  0  0  0  0  0  0  0  0  0  0
    4.4661    0.1035    0.0000 H   0  0  0  0  0  0  0  0  0  0  0  0
    4.4661   -1.7535    0.0000 H   0  0  0  0  0  0  0  0  0  0  0  0
    2.8579   -2.6820    0.0000 H   0  0  0  0  0  0  0  0  0  0  0  0
    1.2497    0.1035    0.0000 H   0  0  0  0  0  0  0  0  0  0  0  0
    2.8579    1.0320    0.0000 H   0  0  0  0  0  0  0  0  0  0  0  0
    0.5352   -2.9910    0.0000 H   0  0  0  0  0  0  0  0  0  0  0  0
    3.0700   -2.3525    0.0000 H   0  0  0  0  0  0  0  0  0  0  0  0
    3.0700   -3.4225    0.0000 H   0  0  0  0  0  0  0  0  0  0  0  0
    3.8285   -3.8668    0.0000 H   0  0  0  0  0  0  0  0  0  0  0  0
    3.5675   -4.9540    0.0000 H   0  0  0  0  0  0  0  0  0  0  0  0
    3.1848   -5.8477    0.0000 H   0  0  0  0  0  0  0  0  0  0  0  0
    2.0701   -5.9354    0.0000 H   0  0  0  0  0  0  0  0  0  0  0  0
    1.1020   -5.8476    0.0000 H   0  0  0  0  0  0  0  0  0  0  0  0
    0.6741   -4.8146    0.0000 H   0  0  0  0  0  0  0  0  0  0  0  0
    0.4584   -3.8667    0.0000 H   0  0  0  0  0  0  0  0  0  0  0  0
    1.3086   -3.1406    0.0000 H   0  0  0  0  0  0  0  0  0  0  0  0
   -0.2122   -1.7725    0.0000 H   0  0  0  0  0  0  0  0  0  0  0  0
   -0.2121   -0.7025    0.0000 H   0  0  0  0  0  0  0  0  0  0  0  0
   -0.8937   -0.5160    0.0000 H   0  0  0  0  0  0  0  0  0  0  0  0
   -0.8937    1.3410    0.0000 H   0  0  0  0  0  0  0  0  0  0  0  0
    2.3226    1.3410    0.0000 H   0  0  0  0  0  0  0  0  0  0  0  0
    2.3226   -0.5160    0.0000 H   0  0  0  0  0  0  0  0  0  0  0  0
  1  2  2  0  0  0  0
  1  6  1  0  0  0  0
  1 23  1  0  0  0  0
  2  3  1  0  0  0  0
  2 24  1  0  0  0  0
  3  4  2  0  0  0  0
  3 25  1  0  0  0  0
  4  5  1  0  0  0  0
  4  7  1  0  0  0  0
  5  6  2  0  0  0  0
  5 26  1  0  0  0  0
  6 27  1  0  0  0  0
  7  8  2  3  0  0  0
  7 15  1  0  0  0  0
  8  9  1  0  0  0  0
  8 28  1  0  0  0  0
  9 10  1  0  0  0  0
  9 29  1  0  0  0  0
  9 30  1  0  0  0  0
 10 11  1  0  0  0  0
 10 14  1  0  0  0  0
 11 12  1  0  0  0  0
 11 31  1  0  0  0  0
 11 32  1  0  0  0  0
 12 13  1  0  0  0  0
 12 33  1  0  0  0  0
 12 34  1  0  0  0  0
 13 14  1  0  0  0  0
 13 35  1  0  0  0  0
 13 36  1  0  0  0  0
 14 37  1  0  0  0  0
 14 38  1  0  0  0  0
 15 16  1  0  0  0  0
 15 39  1  0  0  0  0
 15 40  1  0  0  0  0
 16 17  2  0  0  0  0
 16 21  1  0  0  0  0
 17 18  1  0  0  0  0
 17 41  1  0  0  0  0
 18 19  2  0  0  0  0
 18 42  1  0  0  0  0
 19 20  1  0  0  0  0
 19 22  1  0  0  0  0
 20 21  2  0  0  0  0
 20 43  1  0  0  0  0
 21 44  1  0  0  0  0
M  END
>  <DRUGBANK_ID>
DB13846

>  <COMMON_NAME>
Pyrrobutamine

>  <CAS_NUMBER>
91-82-7

>  <UNII>
VE6KP18S8X

$$$$
