354
 OpenBabel10282417072D

 64 67  0  0  1  0  0  0  0  0999 V2000
    1.6500   -3.6573    0.0000 Cl  0  0  0  0  0  0  0  0  0  0  0  0
    4.5080   -1.1823    0.0000 N   0  0  0  0  0  0  0  0  0  0  0  0
    4.5080    0.4678    0.0000 N   0  0  0  0  0  0  0  0  0  0  0  0
    3.7935   -0.7697    0.0000 C   0  0  0  0  0  0  0  0  0  0  0  0
    5.2224   -0.7697    0.0000 C   0  0  0  0  0  0  0  0  0  0  0  0
    3.7935    0.0553    0.0000 C   0  0  0  0  0  0  0  0  0  0  0  0
    5.2224    0.0553    0.0000 C   0  0  0  0  0  0  0  0  0  0  0  0
    4.5080   -2.0073    0.0000 C   0  0  3  0  0  0  0  0  0  0  0  0
    4.5080    1.2928    0.0000 C   0  0  0  0  0  0  0  0  0  0  0  0
    3.7935   -2.4198    0.0000 C   0  0  0  0  0  0  0  0  0  0  0  0
    5.2224   -2.4198    0.0000 C   0  0  0  0  0  0  0  0  0  0  0  0
    5.2224    1.7053    0.0000 C   0  0  0  0  0  0  0  0  0  0  0  0
    7.3659    2.9428    0.0000 C   0  0  0  0  0  0  0  0  0  0  0  0
    6.6515    2.5303    0.0000 C   0  0  0  0  0  0  0  0  0  0  0  0
    5.2224    2.5303    0.0000 C   0  0  0  0  0  0  0  0  0  0  0  0
    5.9370    1.2928    0.0000 C   0  0  0  0  0  0  0  0  0  0  0  0
    3.7935   -3.2448    0.0000 C   0  0  0  0  0  0  0  0  0  0  0  0
    3.0791   -2.0073    0.0000 C   0  0  0  0  0  0  0  0  0  0  0  0
    5.9370   -2.0073    0.0000 C   0  0  0  0  0  0  0  0  0  0  0  0
    5.2224   -3.2448    0.0000 C   0  0  0  0  0  0  0  0  0  0  0  0
    5.9370    2.9428    0.0000 C   0  0  0  0  0  0  0  0  0  0  0  0
    6.6515    1.7053    0.0000 C   0  0  0  0  0  0  0  0  0  0  0  0
    8.0804    3.3553    0.0000 C   0  0  0  0  0  0  0  0  0  0  0  0
    6.9534    3.6573    0.0000 C   0  0  0  0  0  0  0  0  0  0  0  0
    7.7784    2.2284    0.0000 C   0  0  0  0  0  0  0  0  0  0  0  0
    3.0791   -3.6573    0.0000 C   0  0  0  0  0  0  0  0  0  0  0  0
    2.3645   -2.4198    0.0000 C   0  0  0  0  0  0  0  0  0  0  0  0
    6.6515   -2.4198    0.0000 C   0  0  0  0  0  0  0  0  0  0  0  0
    5.9370   -3.6573    0.0000 C   0  0  0  0  0  0  0  0  0  0  0  0
    2.3645   -3.2448    0.0000 C   0  0  0  0  0  0  0  0  0  0  0  0
    6.6515   -3.2448    0.0000 C   0  0  0  0  0  0  0  0  0  0  0  0
    2.8668   -1.3047    0.0000 H   0  0  0  0  0  0  0  0  0  0  0  0
    2.8669   -0.2347    0.0000 H   0  0  0  0  0  0  0  0  0  0  0  0
    6.1491   -1.3046    0.0000 H   0  0  0  0  0  0  0  0  0  0  0  0
    6.1490   -0.2347    0.0000 H   0  0  0  0  0  0  0  0  0  0  0  0
    2.8669    0.5903    0.0000 H   0  0  0  0  0  0  0  0  0  0  0  0
    2.8669   -0.4797    0.0000 H   0  0  0  0  0  0  0  0  0  0  0  0
    6.1491    0.5903    0.0000 H   0  0  0  0  0  0  0  0  0  0  0  0
    6.1490   -0.4797    0.0000 H   0  0  0  0  0  0  0  0  0  0  0  0
    3.5814   -1.4723    0.0000 H   0  0  0  0  0  0  0  0  0  0  0  0
    3.5813    1.8278    0.0000 H   0  0  0  0  0  0  0  0  0  0  0  0
    4.5080    2.3628    0.0000 H   0  0  0  0  0  0  0  0  0  0  0  0
    4.3287    3.0463    0.0000 H   0  0  0  0  0  0  0  0  0  0  0  0
    5.9370    0.2608    0.0000 H   0  0  0  0  0  0  0  0  0  0  0  0
    4.6872   -3.7608    0.0000 H   0  0  0  0  0  0  0  0  0  0  0  0
    3.0792   -0.9753    0.0000 H   0  0  0  0  0  0  0  0  0  0  0  0
    5.9370   -0.9753    0.0000 H   0  0  0  0  0  0  0  0  0  0  0  0
    4.3287   -3.7608    0.0000 H   0  0  0  0  0  0  0  0  0  0  0  0
    5.9370    3.9748    0.0000 H   0  0  0  0  0  0  0  0  0  0  0  0
    7.5452    1.1893    0.0000 H   0  0  0  0  0  0  0  0  0  0  0  0
    9.0070    2.8203    0.0000 H   0  0  0  0  0  0  0  0  0  0  0  0
    8.0804    4.4253    0.0000 H   0  0  0  0  0  0  0  0  0  0  0  0
    9.0071    3.8903    0.0000 H   0  0  0  0  0  0  0  0  0  0  0  0
    7.4884    4.5839    0.0000 H   0  0  0  0  0  0  0  0  0  0  0  0
    5.8834    3.6573    0.0000 H   0  0  0  0  0  0  0  0  0  0  0  0
    6.4184    4.5840    0.0000 H   0  0  0  0  0  0  0  0  0  0  0  0
    7.2434    1.3017    0.0000 H   0  0  0  0  0  0  0  0  0  0  0  0
    8.8484    2.2284    0.0000 H   0  0  0  0  0  0  0  0  0  0  0  0
    8.3134    1.3018    0.0000 H   0  0  0  0  0  0  0  0  0  0  0  0
    3.0792   -4.6893    0.0000 H   0  0  0  0  0  0  0  0  0  0  0  0
    1.4708   -1.9038    0.0000 H   0  0  0  0  0  0  0  0  0  0  0  0
    7.5452   -1.9038    0.0000 H   0  0  0  0  0  0  0  0  0  0  0  0
    5.9370   -4.6893    0.0000 H   0  0  0  0  0  0  0  0  0  0  0  0
    7.5452   -3.7608    0.0000 H   0  0  0  0  0  0  0  0  0  0  0  0
  1 30  1  0  0  0  0
  2  4  1  0  0  0  0
  2  5  1  0  0  0  0
  2  8  1  0  0  0  0
  3  6  1  0  0  0  0
  3  7  1  0  0  0  0
  3  9  1  0  0  0  0
  4  6  1  0  0  0  0
  4 32  1  0  0  0  0
  4 33  1  0  0  0  0
  5  7  1  0  0  0  0
  5 34  1  0  0  0  0
  5 35  1  0  0  0  0
  6 36  1  0  0  0  0
  6 37  1  0  0  0  0
  7 38  1  0  0  0  0
  7 39  1  0  0  0  0
  8 10  1  0  0  0  0
  8 11  1  0  0  0  0
  8 40  1  0  0  0  0
  9 12  1  0  0  0  0
  9 41  1  0  0  0  0
  9 42  1  0  0  0  0
 10 17  2  0  0  0  0
 10 18  1  0  0  0  0
 11 19  2  0  0  0  0
 11 20  1  0  0  0  0
 12 15  2  0  0  0  0
 12 16  1  0  0  0  0
 13 14  1  0  0  0  0
 13 23  1  0  0  0  0
 13 24  1  0  0  0  0
 13 25  1  0  0  0  0
 14 21  2  0  0  0  0
 14 22  1  0  0  0  0
 15 21  1  0  0  0  0
 15 43  1  0  0  0  0
 16 22  2  0  0  0  0
 16 44  1  0  0  0  0
 17 26  1  0  0  0  0
 17 45  1  0  0  0  0
 18 27  2  0  0  0  0
 18 46  1  0  0  0  0
 19 28  1  0  0  0  0
 19 47  1  0  0  0  0
 20 29  2  0  0  0  0
 20 48  1  0  0  0  0
 21 49  1  0  0  0  0
 22 50  1  0  0  0  0
 23 51  1  0  0  0  0
 23 52  1  0  0  0  0
 23 53  1  0  0  0  0
 24 54  1  0  0  0  0
 24 55  1  0  0  0  0
 24 56  1  0  0  0  0
 25 57  1  0  0  0  0
 25 58  1  0  0  0  0
 25 59  1  0  0  0  0
 26 30  2  0  0  0  0
 26 60  1  0  0  0  0
 27 30  1  0  0  0  0
 27 61  1  0  0  0  0
 28 31  2  0  0  0  0
 28 62  1  0  0  0  0
 29 31  1  0  0  0  0
 29 63  1  0  0  0  0
 31 64  1  0  0  0  0
M  END
>  <DRUGBANK_ID>
DB00354

>  <SECONDARY_ACCESSION_NUMBERS>
APRD00723

>  <COMMON_NAME>
Buclizine

>  <CAS_NUMBER>
82-95-1

>  <UNII>
0C94V6X681

>  <SYNONYMS>
1-(p-tert-Butylbenzyl)-4-(4-chloro-alpha-phenylbenzyl)piperazine; Buclizina; Buclizine; Buclizinum

$$$$
