1107
 OpenBabel10282417072D

 30 30  0  0  1  0  0  0  0  0999 V2000
    1.6500    0.1106    0.0000 O   0  0  0  0  0  0  0  0  0  0  0  0
    4.5080    0.1106    0.0000 O   0  0  0  0  0  0  0  0  0  0  0  0
    3.7935   -1.1270    0.0000 N   0  0  0  0  0  0  0  0  0  0  0  0
    3.0791    0.1106    0.0000 C   0  0  0  0  0  0  0  0  0  0  0  0
    2.3645   -1.1270    0.0000 C   0  0  3  0  0  0  0  0  0  0  0  0
    2.3645   -0.3020    0.0000 C   0  0  0  0  0  0  0  0  0  0  0  0
    2.6665    0.8250    0.0000 C   0  0  0  0  0  0  0  0  0  0  0  0
    3.4916    0.8250    0.0000 C   0  0  0  0  0  0  0  0  0  0  0  0
    3.7935   -0.3020    0.0000 C   0  0  0  0  0  0  0  0  0  0  0  0
    3.0791   -1.5395    0.0000 C   0  0  0  0  0  0  0  0  0  0  0  0
    1.6500   -1.5395    0.0000 C   0  0  0  0  0  0  0  0  0  0  0  0
    1.8415    0.8250    0.0000 C   0  0  0  0  0  0  0  0  0  0  0  0
    3.0791    1.5395    0.0000 C   0  0  0  0  0  0  0  0  0  0  0  0
    4.6461   -1.6192    0.0000 H   0  0  0  0  0  0  0  0  0  0  0  0
    3.2911   -0.5920    0.0000 H   0  0  0  0  0  0  0  0  0  0  0  0
    3.2014    1.7517    0.0000 H   0  0  0  0  0  0  0  0  0  0  0  0
    2.1315    1.7516    0.0000 H   0  0  0  0  0  0  0  0  0  0  0  0
    4.5616    0.8250    0.0000 H   0  0  0  0  0  0  0  0  0  0  0  0
    4.0266    1.7516    0.0000 H   0  0  0  0  0  0  0  0  0  0  0  0
    3.0792   -2.6095    0.0000 H   0  0  0  0  0  0  0  0  0  0  0  0
    2.1525   -2.0746    0.0000 H   0  0  0  0  0  0  0  0  0  0  0  0
    0.7234   -1.0045    0.0000 H   0  0  0  0  0  0  0  0  0  0  0  0
    1.6500   -2.6095    0.0000 H   0  0  0  0  0  0  0  0  0  0  0  0
    0.7233   -2.0745    0.0000 H   0  0  0  0  0  0  0  0  0  0  0  0
    1.3065    1.7516    0.0000 H   0  0  0  0  0  0  0  0  0  0  0  0
    1.3065   -0.1016    0.0000 H   0  0  0  0  0  0  0  0  0  0  0  0
    0.7715    0.8250    0.0000 H   0  0  0  0  0  0  0  0  0  0  0  0
    3.6141    2.4661    0.0000 H   0  0  0  0  0  0  0  0  0  0  0  0
    2.0091    1.5395    0.0000 H   0  0  0  0  0  0  0  0  0  0  0  0
    2.5441    2.4662    0.0000 H   0  0  0  0  0  0  0  0  0  0  0  0
  1  6  2  0  0  0  0
  2  9  2  0  0  0  0
  3  9  1  0  0  0  0
  3 10  1  0  0  0  0
  3 14  1  0  0  0  0
  4  6  1  0  0  0  0
  4  7  1  0  0  0  0
  4  8  1  0  0  0  0
  4  9  1  0  0  0  0
  5  6  1  0  0  0  0
  5 10  1  0  0  0  0
  5 11  1  0  0  0  0
  5 15  1  0  0  0  0
  7 12  1  0  0  0  0
  7 16  1  0  0  0  0
  7 17  1  0  0  0  0
  8 13  1  0  0  0  0
  8 18  1  0  0  0  0
  8 19  1  0  0  0  0
 10 20  1  0  0  0  0
 10 21  1  0  0  0  0
 11 22  1  0  0  0  0
 11 23  1  0  0  0  0
 11 24  1  0  0  0  0
 12 25  1  0  0  0  0
 12 26  1  0  0  0  0
 12 27  1  0  0  0  0
 13 28  1  0  0  0  0
 13 29  1  0  0  0  0
 13 30  1  0  0  0  0
M  END
>  <DRUGBANK_ID>
DB01107

>  <SECONDARY_ACCESSION_NUMBERS>
APRD00734

>  <COMMON_NAME>
Methyprylon

>  <CAS_NUMBER>
125-64-4

>  <UNII>
CUT48I42ON

>  <SYNONYMS>
Methyprylon; Methyprylone; Methyprylonum; Metiprilon; Metiprilona; Metiprilone

$$$$
