CRV
 OpenBabel10282417072D

 59 61  0  0  0  0  0  0  0  0999 V2000
   -1.3937   -0.0130    0.0000 C   0  0  0  0  0  0  0  0  0  0  0  0
   -1.2991   -0.8325    0.0000 C   0  0  1  0  0  0  0  0  0  0  0  0
   -0.5420   -1.1604    0.0000 N   0  0  0  0  0  0  0  0  0  0  0  0
   -1.9615   -1.3243    0.0000 C   0  0  0  0  0  0  0  0  0  0  0  0
   -0.5742    0.0816    0.0000 F   0  0  0  0  0  0  0  0  0  0  0  0
   -2.2133   -0.1076    0.0000 F   0  0  0  0  0  0  0  0  0  0  0  0
   -1.4884    0.8066    0.0000 F   0  0  0  0  0  0  0  0  0  0  0  0
    0.1204   -0.6686    0.0000 C   0  0  2  0  0  0  0  0  0  0  0  0
    0.0258    0.1509    0.0000 C   0  0  0  0  0  0  0  0  0  0  0  0
    0.8775   -0.9965    0.0000 C   0  0  0  0  0  0  0  0  0  0  0  0
    1.5399   -0.5047    0.0000 S   0  0  0  0  0  0  0  0  0  0  0  0
    2.2024   -0.0130    0.0000 C   0  0  0  0  0  0  0  0  0  0  0  0
   -0.7313    0.4787    0.0000 N   0  0  0  0  0  0  0  0  0  0  0  0
    0.6882    0.6427    0.0000 O   0  0  0  0  0  0  0  0  0  0  0  0
   -0.8259    1.2983    0.0000 C   0  0  0  0  0  0  0  0  0  0  0  0
   -2.0187    2.0852    0.0000 N   0  0  0  0  0  0  0  0  0  0  0  0
   -0.6346    2.1008    0.0000 C   0  0  0  0  0  0  0  0  0  0  0  0
   -0.0353    1.5338    0.0000 C   0  0  0  0  0  0  0  0  0  0  0  0
   -1.8669   -2.1438    0.0000 C   0  0  0  0  0  0  0  0  0  0  0  0
   -2.5293   -2.6356    0.0000 C   0  0  0  0  0  0  0  0  0  0  0  0
   -3.2864   -2.3077    0.0000 C   0  0  0  0  0  0  0  0  0  0  0  0
   -3.3810   -1.4882    0.0000 C   0  0  0  0  0  0  0  0  0  0  0  0
   -2.7186   -0.9965    0.0000 C   0  0  0  0  0  0  0  0  0  0  0  0
   -3.9489   -2.7995    0.0000 O   0  0  0  0  0  0  0  0  0  0  0  0
    2.9594   -0.3408    0.0000 C   0  0  0  0  0  0  0  0  0  0  0  0
    3.6219    0.1509    0.0000 C   0  0  0  0  0  0  0  0  0  0  0  0
    4.3789   -0.1769    0.0000 C   0  0  0  0  0  0  0  0  0  0  0  0
    4.4736   -0.9965    0.0000 C   0  0  0  0  0  0  0  0  0  0  0  0
    3.8111   -1.4882    0.0000 C   0  0  0  0  0  0  0  0  0  0  0  0
    3.0541   -1.1604    0.0000 C   0  0  0  0  0  0  0  0  0  0  0  0
    2.0317   -1.1672    0.0000 O   0  0  0  0  0  0  0  0  0  0  0  0
    1.0482    0.1577    0.0000 O   0  0  0  0  0  0  0  0  0  0  0  0
   -1.6495    1.3474    0.0000 C   0  0  0  0  0  0  0  0  0  0  0  0
   -0.8302   -0.4845    0.0000 H   0  0  0  0  0  0  0  0  0  0  0  0
   -0.4154   -0.4366    0.0000 H   0  0  0  0  0  0  0  0  0  0  0  0
   -0.4250   -2.1737    0.0000 H   0  0  0  0  0  0  0  0  0  0  0  0
    1.0002   -2.0594    0.0000 H   0  0  0  0  0  0  0  0  0  0  0  0
    1.8594   -1.4216    0.0000 H   0  0  0  0  0  0  0  0  0  0  0  0
    2.0797    1.0499    0.0000 H   0  0  0  0  0  0  0  0  0  0  0  0
    3.0616    0.6247    0.0000 H   0  0  0  0  0  0  0  0  0  0  0  0
   -1.5218   -0.1081    0.0000 H   0  0  0  0  0  0  0  0  0  0  0  0
   -1.4570    2.9366    0.0000 H   0  0  0  0  0  0  0  0  0  0  0  0
   -3.0369    2.1460    0.0000 H   0  0  0  0  0  0  0  0  0  0  0  0
   -0.9401    3.1263    0.0000 H   0  0  0  0  0  0  0  0  0  0  0  0
    0.2769    2.6613    0.0000 H   0  0  0  0  0  0  0  0  0  0  0  0
    1.0055    1.2856    0.0000 H   0  0  0  0  0  0  0  0  0  0  0  0
    0.4738    2.4749    0.0000 H   0  0  0  0  0  0  0  0  0  0  0  0
   -0.9199   -2.5538    0.0000 H   0  0  0  0  0  0  0  0  0  0  0  0
   -2.4109   -3.6608    0.0000 H   0  0  0  0  0  0  0  0  0  0  0  0
   -4.3280   -1.0781    0.0000 H   0  0  0  0  0  0  0  0  0  0  0  0
   -2.8370    0.0287    0.0000 H   0  0  0  0  0  0  0  0  0  0  0  0
   -4.8088   -2.4272    0.0000 H   0  0  0  0  0  0  0  0  0  0  0  0
    3.5036    1.1761    0.0000 H   0  0  0  0  0  0  0  0  0  0  0  0
    5.2075    0.4382    0.0000 H   0  0  0  0  0  0  0  0  0  0  0  0
    5.4206   -1.4066    0.0000 H   0  0  0  0  0  0  0  0  0  0  0  0
    3.9294   -2.5134    0.0000 H   0  0  0  0  0  0  0  0  0  0  0  0
    2.2255   -1.7755    0.0000 H   0  0  0  0  0  0  0  0  0  0  0  0
   -2.2387    0.4543    0.0000 H   0  0  0  0  0  0  0  0  0  0  0  0
   -2.7176    1.4111    0.0000 H   0  0  0  0  0  0  0  0  0  0  0  0
  1  2  1  0  0  0  0
  1  5  1  0  0  0  0
  1  6  1  0  0  0  0
  1  7  1  0  0  0  0
  2  3  1  0  0  0  0
  2  4  1  0  0  0  0
  2 34  1  6  0  0  0
  3 36  1  0  0  0  0
  4 19  2  0  0  0  0
  4 23  1  0  0  0  0
  8  3  1  0  0  0  0
  8  9  1  0  0  0  0
  8 10  1  0  0  0  0
  8 35  1  1  0  0  0
  9 13  1  0  0  0  0
  9 14  2  0  0  0  0
 10 11  1  0  0  0  0
 10 37  1  0  0  0  0
 10 38  1  0  0  0  0
 11 12  1  0  0  0  0
 11 31  2  0  0  0  0
 11 32  2  0  0  0  0
 12 25  1  0  0  0  0
 12 39  1  0  0  0  0
 12 40  1  0  0  0  0
 13 15  1  0  0  0  0
 13 41  1  0  0  0  0
 15 17  1  0  0  0  0
 15 18  1  0  0  0  0
 15 33  1  0  0  0  0
 16 33  1  0  0  0  0
 16 42  1  0  0  0  0
 16 43  1  0  0  0  0
 17 18  1  0  0  0  0
 17 44  1  0  0  0  0
 17 45  1  0  0  0  0
 18 46  1  0  0  0  0
 18 47  1  0  0  0  0
 19 20  1  0  0  0  0
 19 48  1  0  0  0  0
 20 21  2  0  0  0  0
 20 49  1  0  0  0  0
 21 22  1  0  0  0  0
 21 24  1  0  0  0  0
 22 23  2  0  0  0  0
 22 50  1  0  0  0  0
 23 51  1  0  0  0  0
 24 52  1  0  0  0  0
 25 26  1  0  0  0  0
 25 30  2  0  0  0  0
 26 27  2  0  0  0  0
 26 53  1  0  0  0  0
 27 28  1  0  0  0  0
 27 54  1  0  0  0  0
 28 29  2  0  0  0  0
 28 55  1  0  0  0  0
 29 30  1  0  0  0  0
 29 56  1  0  0  0  0
 30 57  1  0  0  0  0
 33 58  1  0  0  0  0
 33 59  1  0  0  0  0
M  END
>  <DRUGBANK_ID>
DB07589

>  <COMMON_NAME>
N-[1-(AMINOMETHYL)CYCLOPROPYL]-3-(BENZYLSULFONYL)-N~2~-[(1S)-2,2,2-TRIFLUORO-1-(4-HYDROXYPHENYL)ETHYL]-L-ALANINAMIDE

$$$$
