
 OpenBabel10282417072D

 89 88  0  0  0  0  0  0  0  0999 V2000
   -6.4780   -6.6275    0.0000 S   0  0  0  0  0  0  0  0  0  0  0  0
   -3.6202   -6.6275    0.0000 P   0  0  3  0  0  0  0  0  0  0  0  0
   -0.7623   -4.9775    0.0000 O   0  0  0  0  0  0  0  0  0  0  0  0
   -2.9057   -6.2150    0.0000 O   0  0  0  0  0  0  0  0  0  0  0  0
   -4.3347   -7.0400    0.0000 O   0  0  0  0  0  0  0  0  0  0  0  0
   -0.0478   -5.3900    0.0000 O   0  0  0  0  0  0  0  0  0  0  0  0
   -4.0326   -5.9131    0.0000 O   0  0  0  0  0  0  0  0  0  0  0  0
   -3.2077   -7.3420    0.0000 O   0  0  0  0  0  0  0  0  0  0  0  0
   -0.7623   -6.6274    0.0000 N   0  0  0  0  0  0  0  0  0  0  0  0
    2.0953    0.7972    0.0000 C   0  0  0  0  0  0  0  0  0  0  0  0
    2.0954   -0.0276    0.0000 C   0  0  0  0  0  0  0  0  0  0  0  0
    2.8099    1.2098    0.0000 C   0  0  0  0  0  0  0  0  0  0  0  0
    1.3809   -0.4401    0.0000 C   0  0  0  0  0  0  0  0  0  0  0  0
    2.8099    2.0349    0.0000 C   0  0  0  0  0  0  0  0  0  0  0  0
    1.3809   -1.2651    0.0000 C   0  0  0  0  0  0  0  0  0  0  0  0
    3.5243    2.4473    0.0000 C   0  0  0  0  0  0  0  0  0  0  0  0
    0.6665   -1.6774    0.0000 C   0  0  0  0  0  0  0  0  0  0  0  0
    3.5243    3.2723    0.0000 C   0  0  0  0  0  0  0  0  0  0  0  0
    0.6665   -2.5025    0.0000 C   0  0  0  0  0  0  0  0  0  0  0  0
    4.2388    3.6847    0.0000 C   0  0  0  0  0  0  0  0  0  0  0  0
   -0.0478   -2.9149    0.0000 C   0  0  0  0  0  0  0  0  0  0  0  0
    4.2388    4.5099    0.0000 C   0  0  0  0  0  0  0  0  0  0  0  0
   -0.0478   -3.7399    0.0000 C   0  0  0  0  0  0  0  0  0  0  0  0
    4.9532    4.9224    0.0000 C   0  0  0  0  0  0  0  0  0  0  0  0
   -0.7623   -4.1524    0.0000 C   0  0  0  0  0  0  0  0  0  0  0  0
    4.9532    5.7474    0.0000 C   0  0  0  0  0  0  0  0  0  0  0  0
   -1.4768   -5.3900    0.0000 C   0  0  0  0  0  0  0  0  0  0  0  0
   -1.4768   -6.2149    0.0000 C   0  0  2  0  0  0  0  0  0  0  0  0
    5.6678    6.1598    0.0000 C   0  0  0  0  0  0  0  0  0  0  0  0
   -2.1913   -6.6275    0.0000 C   0  0  0  0  0  0  0  0  0  0  0  0
   -0.0478   -6.2149    0.0000 C   0  0  0  0  0  0  0  0  0  0  0  0
    0.6665   -6.6275    0.0000 C   0  0  0  0  0  0  0  0  0  0  0  0
   -5.0490   -6.6275    0.0000 C   0  0  0  0  0  0  0  0  0  0  0  0
   -5.7636   -7.0401    0.0000 C   0  0  0  0  0  0  0  0  0  0  0  0
   -7.1925   -7.0401    0.0000 C   0  0  0  0  0  0  0  0  0  0  0  0
   -0.7623   -7.1391    0.0000 H   0  0  0  0  0  0  0  0  0  0  0  0
   -3.5475   -5.0731    0.0000 H   0  0  0  0  0  0  0  0  0  0  0  0
    1.1686    1.3321    0.0000 H   0  0  0  0  0  0  0  0  0  0  0  0
    2.0952    1.8672    0.0000 H   0  0  0  0  0  0  0  0  0  0  0  0
    3.0221   -0.5626    0.0000 H   0  0  0  0  0  0  0  0  0  0  0  0
    2.0954   -1.0976    0.0000 H   0  0  0  0  0  0  0  0  0  0  0  0
    3.7366    0.6748    0.0000 H   0  0  0  0  0  0  0  0  0  0  0  0
    3.7365    1.7448    0.0000 H   0  0  0  0  0  0  0  0  0  0  0  0
    0.4543    0.0949    0.0000 H   0  0  0  0  0  0  0  0  0  0  0  0
    0.4543   -0.9751    0.0000 H   0  0  0  0  0  0  0  0  0  0  0  0
    1.8833    2.5699    0.0000 H   0  0  0  0  0  0  0  0  0  0  0  0
    2.8099    3.1049    0.0000 H   0  0  0  0  0  0  0  0  0  0  0  0
    2.3075   -1.8002    0.0000 H   0  0  0  0  0  0  0  0  0  0  0  0
    1.3808   -2.3351    0.0000 H   0  0  0  0  0  0  0  0  0  0  0  0
    4.4509    1.9123    0.0000 H   0  0  0  0  0  0  0  0  0  0  0  0
    4.4510    2.9823    0.0000 H   0  0  0  0  0  0  0  0  0  0  0  0
   -0.2601   -1.1423    0.0000 H   0  0  0  0  0  0  0  0  0  0  0  0
   -0.2602   -2.2124    0.0000 H   0  0  0  0  0  0  0  0  0  0  0  0
    2.5977    3.8074    0.0000 H   0  0  0  0  0  0  0  0  0  0  0  0
    3.5244    4.3423    0.0000 H   0  0  0  0  0  0  0  0  0  0  0  0
    1.5931   -3.0375    0.0000 H   0  0  0  0  0  0  0  0  0  0  0  0
    0.6665   -3.5725    0.0000 H   0  0  0  0  0  0  0  0  0  0  0  0
    5.1654    3.1496    0.0000 H   0  0  0  0  0  0  0  0  0  0  0  0
    5.1655    4.2197    0.0000 H   0  0  0  0  0  0  0  0  0  0  0  0
   -0.9744   -2.3799    0.0000 H   0  0  0  0  0  0  0  0  0  0  0  0
   -0.9744   -3.4499    0.0000 H   0  0  0  0  0  0  0  0  0  0  0  0
    3.3121    5.0449    0.0000 H   0  0  0  0  0  0  0  0  0  0  0  0
    4.2388    5.5799    0.0000 H   0  0  0  0  0  0  0  0  0  0  0  0
    0.8788   -4.2749    0.0000 H   0  0  0  0  0  0  0  0  0  0  0  0
   -0.0478   -4.8099    0.0000 H   0  0  0  0  0  0  0  0  0  0  0  0
    5.8799    4.3874    0.0000 H   0  0  0  0  0  0  0  0  0  0  0  0
    5.8798    5.4574    0.0000 H   0  0  0  0  0  0  0  0  0  0  0  0
   -1.6889   -3.6174    0.0000 H   0  0  0  0  0  0  0  0  0  0  0  0
   -0.7623   -3.0824    0.0000 H   0  0  0  0  0  0  0  0  0  0  0  0
    4.0266    6.2825    0.0000 H   0  0  0  0  0  0  0  0  0  0  0  0
    4.9533    6.8174    0.0000 H   0  0  0  0  0  0  0  0  0  0  0  0
   -2.4034   -4.8550    0.0000 H   0  0  0  0  0  0  0  0  0  0  0  0
   -2.4034   -5.9250    0.0000 H   0  0  0  0  0  0  0  0  0  0  0  0
   -0.5502   -5.6799    0.0000 H   0  0  0  0  0  0  0  0  0  0  0  0
    6.5943    5.6246    0.0000 H   0  0  0  0  0  0  0  0  0  0  0  0
    5.6680    7.2298    0.0000 H   0  0  0  0  0  0  0  0  0  0  0  0
    6.5945    6.6946    0.0000 H   0  0  0  0  0  0  0  0  0  0  0  0
   -2.1913   -7.6975    0.0000 H   0  0  0  0  0  0  0  0  0  0  0  0
   -1.2646   -7.1624    0.0000 H   0  0  0  0  0  0  0  0  0  0  0  0
    0.6663   -7.6975    0.0000 H   0  0  0  0  0  0  0  0  0  0  0  0
    1.5933   -6.0927    0.0000 H   0  0  0  0  0  0  0  0  0  0  0  0
    1.5930   -7.1627    0.0000 H   0  0  0  0  0  0  0  0  0  0  0  0
   -5.0490   -5.5575    0.0000 H   0  0  0  0  0  0  0  0  0  0  0  0
   -5.9756   -6.0925    0.0000 H   0  0  0  0  0  0  0  0  0  0  0  0
   -5.7637   -8.1101    0.0000 H   0  0  0  0  0  0  0  0  0  0  0  0
   -4.8370   -7.5751    0.0000 H   0  0  0  0  0  0  0  0  0  0  0  0
   -8.1192   -6.5052    0.0000 H   0  0  0  0  0  0  0  0  0  0  0  0
   -7.1924   -8.1101    0.0000 H   0  0  0  0  0  0  0  0  0  0  0  0
   -8.1191   -7.5752    0.0000 H   0  0  0  0  0  0  0  0  0  0  0  0
  1 34  1  0  0  0  0
  1 35  1  0  0  0  0
  2  4  1  0  0  0  0
  2  5  1  0  0  0  0
  2  7  1  0  0  0  0
  2  8  2  0  0  0  0
  3 25  1  0  0  0  0
  3 27  1  0  0  0  0
  4 30  1  0  0  0  0
  5 33  1  0  0  0  0
  6 31  2  0  0  0  0
  7 37  1  0  0  0  0
  9 31  1  0  0  0  0
  9 36  1  0  0  0  0
 10 11  1  0  0  0  0
 10 12  1  0  0  0  0
 10 38  1  0  0  0  0
 10 39  1  0  0  0  0
 11 13  1  0  0  0  0
 11 40  1  0  0  0  0
 11 41  1  0  0  0  0
 12 14  1  0  0  0  0
 12 42  1  0  0  0  0
 12 43  1  0  0  0  0
 13 15  1  0  0  0  0
 13 44  1  0  0  0  0
 13 45  1  0  0  0  0
 14 16  1  0  0  0  0
 14 46  1  0  0  0  0
 14 47  1  0  0  0  0
 15 17  1  0  0  0  0
 15 48  1  0  0  0  0
 15 49  1  0  0  0  0
 16 18  1  0  0  0  0
 16 50  1  0  0  0  0
 16 51  1  0  0  0  0
 17 19  1  0  0  0  0
 17 52  1  0  0  0  0
 17 53  1  0  0  0  0
 18 20  1  0  0  0  0
 18 54  1  0  0  0  0
 18 55  1  0  0  0  0
 19 21  1  0  0  0  0
 19 56  1  0  0  0  0
 19 57  1  0  0  0  0
 20 22  1  0  0  0  0
 20 58  1  0  0  0  0
 20 59  1  0  0  0  0
 21 23  1  0  0  0  0
 21 60  1  0  0  0  0
 21 61  1  0  0  0  0
 22 24  1  0  0  0  0
 22 62  1  0  0  0  0
 22 63  1  0  0  0  0
 23 25  1  0  0  0  0
 23 64  1  0  0  0  0
 23 65  1  0  0  0  0
 24 26  1  0  0  0  0
 24 66  1  0  0  0  0
 24 67  1  0  0  0  0
 25 68  1  0  0  0  0
 25 69  1  0  0  0  0
 26 29  1  0  0  0  0
 26 70  1  0  0  0  0
 26 71  1  0  0  0  0
 27 28  1  0  0  0  0
 27 72  1  0  0  0  0
 27 73  1  0  0  0  0
 28  9  1  0  0  0  0
 28 30  1  0  0  0  0
 28 74  1  6  0  0  0
 29 75  1  0  0  0  0
 29 76  1  0  0  0  0
 29 77  1  0  0  0  0
 30 78  1  0  0  0  0
 30 79  1  0  0  0  0
 31 32  1  0  0  0  0
 32 80  1  0  0  0  0
 32 81  1  0  0  0  0
 32 82  1  0  0  0  0
 33 34  1  0  0  0  0
 33 83  1  0  0  0  0
 33 84  1  0  0  0  0
 34 85  1  0  0  0  0
 34 86  1  0  0  0  0
 35 87  1  0  0  0  0
 35 88  1  0  0  0  0
 35 89  1  0  0  0  0
M  END
>  <DRUGBANK_ID>
DB04112

>  <SECONDARY_ACCESSION_NUMBERS>
EXPT01881

>  <COMMON_NAME>
(2R)-2-Acetamido-3-(octadecyloxy)propyl 2-(methylsulfanyl)ethyl hydrogen phosphate

>  <SYNONYMS>
1-Octadecyl-2-acetamido-2-deoxy-SN-glycerol-3-phosphoethylmethyl sulfide

$$$$
