
 OpenBabel10282417072D

 92 93  0  0  0  0  0  0  0  0999 V2000
    4.5828    0.1271    0.0000 C   0  0  0  0  0  0  0  0  0  0  0  0
    4.5732   -0.6649    0.0000 N   0  0  0  0  0  0  0  0  0  0  0  0
    5.3078    0.5161    0.0000 N   0  0  0  0  0  0  0  0  0  0  0  0
    3.8914    0.5449    0.0000 N   0  0  0  0  0  0  0  0  0  0  0  0
    2.4366   -1.0634    0.0000 N   0  3  0  0  0  0  0  0  0  0  0  0
    5.2789   -1.0922    0.0000 C   0  0  0  0  0  0  0  0  0  0  0  0
    3.8530   -1.0827    0.0000 C   0  0  0  0  0  0  0  0  0  0  0  0
    3.1472   -0.6361    0.0000 C   0  0  0  0  0  0  0  0  0  0  0  0
    6.0232   -0.7081    0.0000 C   0  0  0  0  0  0  0  0  0  0  0  0
    7.4491    0.0888    0.0000 C   0  0  0  0  0  0  0  0  0  0  0  0
    6.7194   -1.1115    0.0000 C   0  0  0  0  0  0  0  0  0  0  0  0
    5.9992    0.0983    0.0000 C   0  0  0  0  0  0  0  0  0  0  0  0
    6.7338    0.5209    0.0000 C   0  0  0  0  0  0  0  0  0  0  0  0
    7.4108   -0.7226    0.0000 C   0  0  0  0  0  0  0  0  0  0  0  0
    4.6308    1.7692    0.0000 C   0  0  0  0  0  0  0  0  0  0  0  0
    8.1550    0.5161    0.0000 O   0  0  0  0  0  0  0  0  0  0  0  0
    3.8914    1.3659    0.0000 C   0  0  0  0  0  0  0  0  0  0  0  0
    5.3366    1.3420    0.0000 C   0  0  0  0  0  0  0  0  0  0  0  0
    1.7212   -0.6505    0.0000 C   0  0  0  0  0  0  0  0  0  0  0  0
    2.8399   -1.7692    0.0000 C   0  0  0  0  0  0  0  0  0  0  0  0
    2.0237   -1.7692    0.0000 C   0  0  0  0  0  0  0  0  0  0  0  0
    8.8944    0.1465    0.0000 C   0  0  0  0  0  0  0  0  0  0  0  0
    1.0155   -1.0539    0.0000 C   0  0  0  0  0  0  0  0  0  0  0  0
   -8.2030   -0.7226    0.0000 C   0  0  0  0  0  0  0  0  0  0  0  0
   -7.4972   -1.1115    0.0000 C   0  0  0  0  0  0  0  0  0  0  0  0
   -4.6452   -1.0971    0.0000 C   0  0  0  0  0  0  0  0  0  0  0  0
   -5.3510   -0.6793    0.0000 C   0  0  0  0  0  0  0  0  0  0  0  0
   -6.0856   -1.1066    0.0000 C   0  0  0  0  0  0  0  0  0  0  0  0
   -6.7770   -0.7081    0.0000 C   0  0  0  0  0  0  0  0  0  0  0  0
    0.2952   -0.6505    0.0000 C   0  0  0  0  0  0  0  0  0  0  0  0
   -0.4104   -1.0634    0.0000 C   0  0  0  0  0  0  0  0  0  0  0  0
   -1.0923   -0.6457    0.0000 C   0  0  0  0  0  0  0  0  0  0  0  0
   -1.7932   -1.0827    0.0000 C   0  0  0  0  0  0  0  0  0  0  0  0
   -2.5135   -0.6649    0.0000 C   0  0  0  0  0  0  0  0  0  0  0  0
   -3.2192   -1.0922    0.0000 C   0  0  0  0  0  0  0  0  0  0  0  0
   -3.9251   -0.6793    0.0000 C   0  0  0  0  0  0  0  0  0  0  0  0
   -8.8944   -1.1210    0.0000 C   0  0  0  0  0  0  0  0  0  0  0  0
    5.2425   -2.1616    0.0000 H   0  0  0  0  0  0  0  0  0  0  0  0
    6.1831   -1.6644    0.0000 H   0  0  0  0  0  0  0  0  0  0  0  0
    3.8324   -2.1525    0.0000 H   0  0  0  0  0  0  0  0  0  0  0  0
    2.9108   -1.5898    0.0000 H   0  0  0  0  0  0  0  0  0  0  0  0
    3.1594    0.4338    0.0000 H   0  0  0  0  0  0  0  0  0  0  0  0
    4.0874   -0.1253    0.0000 H   0  0  0  0  0  0  0  0  0  0  0  0
    6.7128   -2.1435    0.0000 H   0  0  0  0  0  0  0  0  0  0  0  0
    5.0983    0.6016    0.0000 H   0  0  0  0  0  0  0  0  0  0  0  0
    6.7448    1.5528    0.0000 H   0  0  0  0  0  0  0  0  0  0  0  0
    8.2891   -1.2645    0.0000 H   0  0  0  0  0  0  0  0  0  0  0  0
    4.6540    2.8009    0.0000 H   0  0  0  0  0  0  0  0  0  0  0  0
    3.0040    1.8927    0.0000 H   0  0  0  0  0  0  0  0  0  0  0  0
    6.2443    1.8330    0.0000 H   0  0  0  0  0  0  0  0  0  0  0  0
    1.7234    0.4195    0.0000 H   0  0  0  0  0  0  0  0  0  0  0  0
    0.7963   -0.1125    0.0000 H   0  0  0  0  0  0  0  0  0  0  0  0
    2.3008   -2.6934    0.0000 H   0  0  0  0  0  0  0  0  0  0  0  0
    3.9099   -1.7740    0.0000 H   0  0  0  0  0  0  0  0  0  0  0  0
    3.3708   -2.6982    0.0000 H   0  0  0  0  0  0  0  0  0  0  0  0
    0.9537   -1.7631    0.0000 H   0  0  0  0  0  0  0  0  0  0  0  0
    2.5534   -2.6989    0.0000 H   0  0  0  0  0  0  0  0  0  0  0  0
    1.4834   -2.6928    0.0000 H   0  0  0  0  0  0  0  0  0  0  0  0
    8.9586   -0.9216    0.0000 H   0  0  0  0  0  0  0  0  0  0  0  0
    9.7873    0.7362    0.0000 H   0  0  0  0  0  0  0  0  0  0  0  0
    9.8515   -0.3319    0.0000 H   0  0  0  0  0  0  0  0  0  0  0  0
    1.0202   -2.1239    0.0000 H   0  0  0  0  0  0  0  0  0  0  0  0
    0.0936   -1.5970    0.0000 H   0  0  0  0  0  0  0  0  0  0  0  0
   -8.2132    0.3474    0.0000 H   0  0  0  0  0  0  0  0  0  0  0  0
   -9.1320   -0.1916    0.0000 H   0  0  0  0  0  0  0  0  0  0  0  0
   -7.4935   -2.1815    0.0000 H   0  0  0  0  0  0  0  0  0  0  0  0
   -6.5731   -1.6509    0.0000 H   0  0  0  0  0  0  0  0  0  0  0  0
   -4.6499   -2.1671    0.0000 H   0  0  0  0  0  0  0  0  0  0  0  0
   -5.5759   -1.6250    0.0000 H   0  0  0  0  0  0  0  0  0  0  0  0
   -5.3469    0.3907    0.0000 H   0  0  0  0  0  0  0  0  0  0  0  0
   -6.2775   -0.1440    0.0000 H   0  0  0  0  0  0  0  0  0  0  0  0
   -6.0835   -2.1766    0.0000 H   0  0  0  0  0  0  0  0  0  0  0  0
   -7.0115   -1.6429    0.0000 H   0  0  0  0  0  0  0  0  0  0  0  0
   -6.7704    0.3619    0.0000 H   0  0  0  0  0  0  0  0  0  0  0  0
   -5.8489   -0.1756    0.0000 H   0  0  0  0  0  0  0  0  0  0  0  0
    0.2851    0.4195    0.0000 H   0  0  0  0  0  0  0  0  0  0  0  0
   -0.6355   -0.1226    0.0000 H   0  0  0  0  0  0  0  0  0  0  0  0
   -0.4212   -2.1333    0.0000 H   0  0  0  0  0  0  0  0  0  0  0  0
   -1.3465   -1.5816    0.0000 H   0  0  0  0  0  0  0  0  0  0  0  0
   -1.0965    0.4243    0.0000 H   0  0  0  0  0  0  0  0  0  0  0  0
   -2.0289   -0.1283    0.0000 H   0  0  0  0  0  0  0  0  0  0  0  0
   -1.7761   -2.1526    0.0000 H   0  0  0  0  0  0  0  0  0  0  0  0
   -2.7161   -1.6241    0.0000 H   0  0  0  0  0  0  0  0  0  0  0  0
   -2.5236    0.4051    0.0000 H   0  0  0  0  0  0  0  0  0  0  0  0
   -3.4481   -0.1440    0.0000 H   0  0  0  0  0  0  0  0  0  0  0  0
   -3.2111   -2.1622    0.0000 H   0  0  0  0  0  0  0  0  0  0  0  0
   -4.1453   -1.6281    0.0000 H   0  0  0  0  0  0  0  0  0  0  0  0
   -3.9232    0.3907    0.0000 H   0  0  0  0  0  0  0  0  0  0  0  0
   -2.9965   -0.1477    0.0000 H   0  0  0  0  0  0  0  0  0  0  0  0
   -9.8206   -0.5852    0.0000 H   0  0  0  0  0  0  0  0  0  0  0  0
   -8.8953   -2.1910    0.0000 H   0  0  0  0  0  0  0  0  0  0  0  0
   -9.8215   -1.6552    0.0000 H   0  0  0  0  0  0  0  0  0  0  0  0
  2  1  1  0  0  0  0
  3  1  2  0  0  0  0
  4  1  1  0  0  0  0
  5  8  1  0  0  0  0
  6  2  1  0  0  0  0
  6 38  1  0  0  0  0
  6 39  1  0  0  0  0
  7  2  1  0  0  0  0
  7 40  1  0  0  0  0
  7 41  1  0  0  0  0
  8  7  1  0  0  0  0
  8 42  1  0  0  0  0
  8 43  1  0  0  0  0
  9  6  1  0  0  0  0
 10 14  2  0  0  0  0
 10 13  1  0  0  0  0
 11  9  2  0  0  0  0
 11 44  1  0  0  0  0
 12  9  1  0  0  0  0
 12 45  1  0  0  0  0
 13 12  2  0  0  0  0
 13 46  1  0  0  0  0
 14 11  1  0  0  0  0
 14 47  1  0  0  0  0
 15 17  1  0  0  0  0
 15 18  2  0  0  0  0
 15 48  1  0  0  0  0
 16 10  1  0  0  0  0
 17  4  2  0  0  0  0
 17 49  1  0  0  0  0
 18  3  1  0  0  0  0
 18 50  1  0  0  0  0
 19  5  1  0  0  0  0
 19 51  1  0  0  0  0
 19 52  1  0  0  0  0
 20  5  1  0  0  0  0
 20 53  1  0  0  0  0
 20 54  1  0  0  0  0
 20 55  1  0  0  0  0
 21  5  1  0  0  0  0
 21 56  1  0  0  0  0
 21 57  1  0  0  0  0
 21 58  1  0  0  0  0
 22 16  1  0  0  0  0
 22 59  1  0  0  0  0
 22 60  1  0  0  0  0
 22 61  1  0  0  0  0
 23 19  1  0  0  0  0
 23 62  1  0  0  0  0
 23 63  1  0  0  0  0
 24 25  1  0  0  0  0
 24 64  1  0  0  0  0
 24 65  1  0  0  0  0
 25 29  1  0  0  0  0
 25 66  1  0  0  0  0
 25 67  1  0  0  0  0
 26 36  1  0  0  0  0
 26 68  1  0  0  0  0
 26 69  1  0  0  0  0
 27 26  1  0  0  0  0
 27 70  1  0  0  0  0
 27 71  1  0  0  0  0
 28 27  1  0  0  0  0
 28 72  1  0  0  0  0
 28 73  1  0  0  0  0
 29 28  1  0  0  0  0
 29 74  1  0  0  0  0
 29 75  1  0  0  0  0
 30 23  1  0  0  0  0
 30 76  1  0  0  0  0
 30 77  1  0  0  0  0
 31 30  1  0  0  0  0
 31 78  1  0  0  0  0
 31 79  1  0  0  0  0
 32 31  1  0  0  0  0
 32 80  1  0  0  0  0
 32 81  1  0  0  0  0
 33 32  1  0  0  0  0
 33 82  1  0  0  0  0
 33 83  1  0  0  0  0
 34 33  1  0  0  0  0
 34 84  1  0  0  0  0
 34 85  1  0  0  0  0
 35 34  1  0  0  0  0
 35 86  1  0  0  0  0
 35 87  1  0  0  0  0
 36 35  1  0  0  0  0
 36 88  1  0  0  0  0
 36 89  1  0  0  0  0
 37 24  1  0  0  0  0
 37 90  1  0  0  0  0
 37 91  1  0  0  0  0
 37 92  1  0  0  0  0
M  CHG  1   5   1
M  END
>  <DRUGBANK_ID>
DB09552

>  <COMMON_NAME>
Thonzonium

>  <CAS_NUMBER>
25466-36-8

>  <UNII>
Z05ZE98FV8

>  <SYNONYMS>
Tonzonium

$$$$
