
 OpenBabel10282417072D

 98105  0  0  1  0  0  0  0  0999 V2000
    2.0630   -1.4167    0.0000 C   0  0  0  0  0  0  0  0  0  0  0  0
    2.8390   -1.6970    0.0000 C   0  0  2  0  0  0  0  0  0  0  0  0
    3.5218   -1.2340    0.0000 C   0  0  0  0  0  0  0  0  0  0  0  0
    4.1731   -1.7404    0.0000 C   0  0  1  0  0  0  0  0  0  0  0  0
    4.9853   -1.5952    0.0000 C   0  0  2  0  0  0  0  0  0  0  0  0
    5.2655   -0.8192    0.0000 C   0  0  0  0  0  0  0  0  0  0  0  0
    6.0777   -0.6740    0.0000 C   0  0  0  0  0  0  0  0  0  0  0  0
    6.6095   -1.3047    0.0000 C   0  0  0  0  0  0  0  0  0  0  0  0
    7.4216   -1.1595    0.0000 C   0  0  0  0  0  0  0  0  0  0  0  0
    7.9534   -1.7902    0.0000 C   0  0  0  0  0  0  0  0  0  0  0  0
    8.7655   -1.6450    0.0000 O   0  0  0  0  0  0  0  0  0  0  0  0
    7.6731   -2.5662    0.0000 C   0  0  0  0  0  0  0  0  0  0  0  0
    6.8610   -2.7114    0.0000 C   0  0  0  0  0  0  0  0  0  0  0  0
    6.3292   -2.0807    0.0000 C   0  0  2  0  0  0  0  0  0  0  0  0
    5.5171   -2.2259    0.0000 C   0  0  0  0  0  0  0  0  0  0  0  0
    5.2368   -3.0018    0.0000 C   0  0  0  0  0  0  0  0  0  0  0  0
    4.4247   -3.1470    0.0000 C   0  0  0  0  0  0  0  0  0  0  0  0
    3.8928   -2.5163    0.0000 C   0  0  2  0  0  0  0  0  0  0  0  0
    3.0683   -2.4895    0.0000 C   0  0  1  0  0  0  0  0  0  0  0  0
    2.5619   -3.1408    0.0000 C   0  0  0  0  0  0  0  0  0  0  0  0
    1.7447   -3.0280    0.0000 O   0  0  0  0  0  0  0  0  0  0  0  0
    2.8728   -3.9050    0.0000 C   0  0  0  0  0  0  0  0  0  0  0  0
    2.3665   -4.5563    0.0000 N   0  0  0  0  0  0  0  0  0  0  0  0
    2.6773   -5.3205    0.0000 C   0  0  0  0  0  0  0  0  0  0  0  0
    2.1710   -5.9718    0.0000 C   0  0  0  0  0  0  0  0  0  0  0  0
    1.3537   -5.8590    0.0000 N   0  0  0  0  0  0  0  0  0  0  0  0
    1.0429   -5.0948    0.0000 C   0  0  0  0  0  0  0  0  0  0  0  0
    1.5492   -4.4435    0.0000 C   0  0  0  0  0  0  0  0  0  0  0  0
    0.8474   -6.5103    0.0000 C   0  0  0  0  0  0  0  0  0  0  0  0
    1.1583   -7.2745    0.0000 C   0  0  0  0  0  0  0  0  0  0  0  0
    0.6519   -7.9258    0.0000 C   0  0  0  0  0  0  0  0  0  0  0  0
   -0.1653   -7.8130    0.0000 N   0  0  0  0  0  0  0  0  0  0  0  0
   -0.4762   -7.0488    0.0000 C   0  0  0  0  0  0  0  0  0  0  0  0
    0.0301   -6.3975    0.0000 N   0  0  0  0  0  0  0  0  0  0  0  0
   -1.2935   -6.9360    0.0000 N   0  0  0  0  0  0  0  0  0  0  0  0
   -1.8651   -7.5308    0.0000 C   0  0  0  0  0  0  0  0  0  0  0  0
   -2.6075   -7.1709    0.0000 C   0  0  0  0  0  0  0  0  0  0  0  0
   -2.4946   -6.3537    0.0000 C   0  0  0  0  0  0  0  0  0  0  0  0
   -1.6825   -6.2085    0.0000 C   0  0  0  0  0  0  0  0  0  0  0  0
    0.9628   -8.6900    0.0000 N   0  0  0  0  0  0  0  0  0  0  0  0
    1.7638   -8.8877    0.0000 C   0  0  0  0  0  0  0  0  0  0  0  0
    1.8233   -9.7105    0.0000 C   0  0  0  0  0  0  0  0  0  0  0  0
    1.0591  -10.0214    0.0000 C   0  0  0  0  0  0  0  0  0  0  0  0
    0.5273   -9.3907    0.0000 C   0  0  0  0  0  0  0  0  0  0  0  0
    3.5330   -3.2587    0.0000 C   0  0  0  0  0  0  0  0  0  0  0  0
    6.0489   -2.8566    0.0000 C   0  0  0  0  0  0  0  0  0  0  0  0
    1.8746   -0.3634    0.0000 H   0  0  0  0  0  0  0  0  0  0  0  0
    1.2450   -2.1065    0.0000 H   0  0  0  0  0  0  0  0  0  0  0  0
    1.0566   -1.0532    0.0000 H   0  0  0  0  0  0  0  0  0  0  0  0
    2.7060   -0.6353    0.0000 H   0  0  0  0  0  0  0  0  0  0  0  0
    3.5566   -0.1646    0.0000 H   0  0  0  0  0  0  0  0  0  0  0  0
    4.4905   -0.7795    0.0000 H   0  0  0  0  0  0  0  0  0  0  0  0
    4.4295   -0.7016    0.0000 H   0  0  0  0  0  0  0  0  0  0  0  0
    4.2955   -0.7772    0.0000 H   0  0  0  0  0  0  0  0  0  0  0  0
    4.5757   -0.0012    0.0000 H   0  0  0  0  0  0  0  0  0  0  0  0
    5.6290    0.1872    0.0000 H   0  0  0  0  0  0  0  0  0  0  0  0
    6.4413    0.3323    0.0000 H   0  0  0  0  0  0  0  0  0  0  0  0
    7.1310   -0.4857    0.0000 H   0  0  0  0  0  0  0  0  0  0  0  0
    7.7722   -0.1889    0.0000 H   0  0  0  0  0  0  0  0  0  0  0  0
    8.3384   -3.3552    0.0000 H   0  0  0  0  0  0  0  0  0  0  0  0
    6.5104   -3.6820    0.0000 H   0  0  0  0  0  0  0  0  0  0  0  0
    5.9020   -3.7908    0.0000 H   0  0  0  0  0  0  0  0  0  0  0  0
    4.0612   -4.1534    0.0000 H   0  0  0  0  0  0  0  0  0  0  0  0
    3.3714   -3.3354    0.0000 H   0  0  0  0  0  0  0  0  0  0  0  0
    3.5228   -3.4582    0.0000 H   0  0  0  0  0  0  0  0  0  0  0  0
    3.9327   -4.0513    0.0000 H   0  0  0  0  0  0  0  0  0  0  0  0
    3.2760   -4.8961    0.0000 H   0  0  0  0  0  0  0  0  0  0  0  0
    3.7372   -5.4669    0.0000 H   0  0  0  0  0  0  0  0  0  0  0  0
    3.0805   -6.3116    0.0000 H   0  0  0  0  0  0  0  0  0  0  0  0
    2.5743   -6.9629    0.0000 H   0  0  0  0  0  0  0  0  0  0  0  0
    1.5143   -6.8166    0.0000 H   0  0  0  0  0  0  0  0  0  0  0  0
   -0.0170   -4.9484    0.0000 H   0  0  0  0  0  0  0  0  0  0  0  0
    0.6397   -4.1037    0.0000 H   0  0  0  0  0  0  0  0  0  0  0  0
    1.1459   -3.4524    0.0000 H   0  0  0  0  0  0  0  0  0  0  0  0
    2.2059   -3.5987    0.0000 H   0  0  0  0  0  0  0  0  0  0  0  0
    2.1806   -7.4157    0.0000 H   0  0  0  0  0  0  0  0  0  0  0  0
   -1.6768   -8.5841    0.0000 H   0  0  0  0  0  0  0  0  0  0  0  0
   -2.7181   -8.1768    0.0000 H   0  0  0  0  0  0  0  0  0  0  0  0
   -3.5511   -7.6755    0.0000 H   0  0  0  0  0  0  0  0  0  0  0  0
   -3.4854   -6.5592    0.0000 H   0  0  0  0  0  0  0  0  0  0  0  0
   -3.2661   -5.6122    0.0000 H   0  0  0  0  0  0  0  0  0  0  0  0
   -2.1842   -5.3297    0.0000 H   0  0  0  0  0  0  0  0  0  0  0  0
   -1.2157   -5.2457    0.0000 H   0  0  0  0  0  0  0  0  0  0  0  0
   -0.6127   -6.1873    0.0000 H   0  0  0  0  0  0  0  0  0  0  0  0
    2.5818   -8.1980    0.0000 H   0  0  0  0  0  0  0  0  0  0  0  0
    2.7497   -9.3034    0.0000 H   0  0  0  0  0  0  0  0  0  0  0  0
    2.7321  -10.2753    0.0000 H   0  0  0  0  0  0  0  0  0  0  0  0
    1.7326  -10.7766    0.0000 H   0  0  0  0  0  0  0  0  0  0  0  0
    0.8027  -11.0602    0.0000 H   0  0  0  0  0  0  0  0  0  0  0  0
    0.0171  -10.2646    0.0000 H   0  0  0  0  0  0  0  0  0  0  0  0
   -0.5399   -9.4679    0.0000 H   0  0  0  0  0  0  0  0  0  0  0  0
   -0.0260   -8.4749    0.0000 H   0  0  0  0  0  0  0  0  0  0  0  0
    2.4658   -3.3360    0.0000 H   0  0  0  0  0  0  0  0  0  0  0  0
    4.1336   -4.1443    0.0000 H   0  0  0  0  0  0  0  0  0  0  0  0
    3.0663   -4.2216    0.0000 H   0  0  0  0  0  0  0  0  0  0  0  0
    4.9956   -3.0449    0.0000 H   0  0  0  0  0  0  0  0  0  0  0  0
    6.7386   -3.6746    0.0000 H   0  0  0  0  0  0  0  0  0  0  0  0
    5.6853   -3.8629    0.0000 H   0  0  0  0  0  0  0  0  0  0  0  0
  1 47  1  0  0  0  0
  1 48  1  0  0  0  0
  1 49  1  0  0  0  0
  2  1  1  0  0  0  0
  2  3  1  0  0  0  0
  2 19  1  0  0  0  0
  2 50  1  1  0  0  0
  3 51  1  0  0  0  0
  3 52  1  0  0  0  0
  4  3  1  0  0  0  0
  4  5  1  0  0  0  0
  4 18  1  0  0  0  0
  4 53  1  6  0  0  0
  5  6  1  0  0  0  0
  5 15  1  0  0  0  0
  5 54  1  1  0  0  0
  6  7  1  0  0  0  0
  6 55  1  0  0  0  0
  6 56  1  0  0  0  0
  7  8  1  0  0  0  0
  7 57  1  0  0  0  0
  7 58  1  0  0  0  0
  8  9  2  0  0  0  0
  8 14  1  0  0  0  0
  9 10  1  0  0  0  0
  9 59  1  0  0  0  0
 10 11  2  0  0  0  0
 10 12  1  0  0  0  0
 12 13  2  0  0  0  0
 12 60  1  0  0  0  0
 13 14  1  0  0  0  0
 13 61  1  0  0  0  0
 14 15  1  0  0  0  0
 14 46  1  1  0  0  0
 15 16  2  0  0  0  0
 16 17  1  0  0  0  0
 16 62  1  0  0  0  0
 17 18  1  0  0  0  0
 17 63  1  0  0  0  0
 17 64  1  0  0  0  0
 18 19  1  0  0  0  0
 18 45  1  1  0  0  0
 19 20  1  0  0  0  0
 19 65  1  6  0  0  0
 20 21  2  0  0  0  0
 20 22  1  0  0  0  0
 22 23  1  0  0  0  0
 22 66  1  0  0  0  0
 22 67  1  0  0  0  0
 23 24  1  0  0  0  0
 23 28  1  0  0  0  0
 24 25  1  0  0  0  0
 24 68  1  0  0  0  0
 24 69  1  0  0  0  0
 25 26  1  0  0  0  0
 25 70  1  0  0  0  0
 25 71  1  0  0  0  0
 26 27  1  0  0  0  0
 26 29  1  0  0  0  0
 27 28  1  0  0  0  0
 27 72  1  0  0  0  0
 27 73  1  0  0  0  0
 28 74  1  0  0  0  0
 28 75  1  0  0  0  0
 29 30  2  0  0  0  0
 29 34  1  0  0  0  0
 30 31  1  0  0  0  0
 30 76  1  0  0  0  0
 31 32  2  0  0  0  0
 31 40  1  0  0  0  0
 32 33  1  0  0  0  0
 33 34  2  0  0  0  0
 33 35  1  0  0  0  0
 35 36  1  0  0  0  0
 35 39  1  0  0  0  0
 36 37  1  0  0  0  0
 36 77  1  0  0  0  0
 36 78  1  0  0  0  0
 37 38  1  0  0  0  0
 37 79  1  0  0  0  0
 37 80  1  0  0  0  0
 38 39  1  0  0  0  0
 38 81  1  0  0  0  0
 38 82  1  0  0  0  0
 39 83  1  0  0  0  0
 39 84  1  0  0  0  0
 40 41  1  0  0  0  0
 40 44  1  0  0  0  0
 41 42  1  0  0  0  0
 41 85  1  0  0  0  0
 41 86  1  0  0  0  0
 42 43  1  0  0  0  0
 42 87  1  0  0  0  0
 42 88  1  0  0  0  0
 43 44  1  0  0  0  0
 43 89  1  0  0  0  0
 43 90  1  0  0  0  0
 44 91  1  0  0  0  0
 44 92  1  0  0  0  0
 45 93  1  0  0  0  0
 45 94  1  0  0  0  0
 45 95  1  0  0  0  0
 46 96  1  0  0  0  0
 46 97  1  0  0  0  0
 46 98  1  0  0  0  0
M  END
>  <DRUGBANK_ID>
DB13050

>  <COMMON_NAME>
Tirilazad

>  <CAS_NUMBER>
110101-66-1

>  <UNII>
YD064E883I

>  <SYNONYMS>
Tirilazad

$$$$
