F6F
 OpenBabel10282417072D

 32 32  0  0  0  0  0  0  0  0999 V2000
   -2.1831    0.4089    0.0000 C   0  0  0  0  0  0  0  0  0  0  0  0
   -1.4686    0.8214    0.0000 C   0  0  0  0  0  0  0  0  0  0  0  0
   -0.7541    0.4089    0.0000 C   0  0  0  0  0  0  0  0  0  0  0  0
   -0.7541   -0.4161    0.0000 C   0  0  0  0  0  0  0  0  0  0  0  0
   -1.4686   -0.8286    0.0000 C   0  0  0  0  0  0  0  0  0  0  0  0
   -2.1831   -0.4161    0.0000 C   0  0  0  0  0  0  0  0  0  0  0  0
   -2.8976    0.8214    0.0000 O   0  0  0  0  0  0  0  0  0  0  0  0
   -3.6120    0.4089    0.0000 C   0  0  0  0  0  0  0  0  0  0  0  0
   -4.3265   -0.0036    0.0000 F   0  0  0  0  0  0  0  0  0  0  0  0
   -3.1995   -0.3055    0.0000 F   0  0  0  0  0  0  0  0  0  0  0  0
   -4.0245    1.1234    0.0000 F   0  0  0  0  0  0  0  0  0  0  0  0
   -0.0397   -0.8286    0.0000 C   0  0  0  0  0  0  0  0  0  0  0  0
    0.6748   -0.4161    0.0000 N   0  0  0  0  0  0  0  0  0  0  0  0
   -0.0397   -1.6536    0.0000 O   0  0  0  0  0  0  0  0  0  0  0  0
    1.3893   -0.8286    0.0000 C   0  0  0  0  0  0  0  0  0  0  0  0
    2.1037   -0.4161    0.0000 C   0  0  0  0  0  0  0  0  0  0  0  0
    2.8182   -0.8286    0.0000 O   0  0  0  0  0  0  0  0  0  0  0  0
    3.5327   -0.4161    0.0000 P   0  0  0  0  0  0  0  0  0  0  0  0
    4.2472   -0.0036    0.0000 O   0  0  0  0  0  0  0  0  0  0  0  0
    3.9452   -1.1305    0.0000 O   0  0  0  0  0  0  0  0  0  0  0  0
    3.1202    0.2984    0.0000 O   0  0  0  0  0  0  0  0  0  0  0  0
   -1.4686    1.8534    0.0000 H   0  0  0  0  0  0  0  0  0  0  0  0
    0.1396    0.9249    0.0000 H   0  0  0  0  0  0  0  0  0  0  0  0
   -1.4686   -1.8606    0.0000 H   0  0  0  0  0  0  0  0  0  0  0  0
   -3.0768   -0.9321    0.0000 H   0  0  0  0  0  0  0  0  0  0  0  0
    0.6748    0.5684    0.0000 H   0  0  0  0  0  0  0  0  0  0  0  0
    1.3893   -1.8986    0.0000 H   0  0  0  0  0  0  0  0  0  0  0  0
    2.3160   -1.3636    0.0000 H   0  0  0  0  0  0  0  0  0  0  0  0
    2.1037    0.6539    0.0000 H   0  0  0  0  0  0  0  0  0  0  0  0
    3.0303    0.1189    0.0000 H   0  0  0  0  0  0  0  0  0  0  0  0
    5.0872   -0.4886    0.0000 H   0  0  0  0  0  0  0  0  0  0  0  0
    3.6052    1.1384    0.0000 H   0  0  0  0  0  0  0  0  0  0  0  0
  1  2  1  0  0  0  0
  1  6  2  0  0  0  0
  1  7  1  0  0  0  0
  2  3  2  0  0  0  0
  2 22  1  0  0  0  0
  3  4  1  0  0  0  0
  3 23  1  0  0  0  0
  4  5  2  0  0  0  0
  4 12  1  0  0  0  0
  5  6  1  0  0  0  0
  5 24  1  0  0  0  0
  6 25  1  0  0  0  0
  7  8  1  0  0  0  0
  8  9  1  0  0  0  0
  8 10  1  0  0  0  0
  8 11  1  0  0  0  0
 12 13  1  0  0  0  0
 12 14  2  0  0  0  0
 13 15  1  0  0  0  0
 13 26  1  0  0  0  0
 15 16  1  0  0  0  0
 15 27  1  0  0  0  0
 15 28  1  0  0  0  0
 16 17  1  0  0  0  0
 16 29  1  0  0  0  0
 16 30  1  0  0  0  0
 17 18  1  0  0  0  0
 18 19  1  0  0  0  0
 18 20  2  0  0  0  0
 18 21  1  0  0  0  0
 19 31  1  0  0  0  0
 21 32  1  0  0  0  0
M  END
>  <DRUGBANK_ID>
DB07745

>  <COMMON_NAME>
2-{[4-(TRIFLUOROMETHOXY)BENZOYL]AMINO}ETHYL DIHYDROGEN PHOSPHATE

$$$$
