
 OpenBabel10282417072D

 85 89  0  0  0  0  0  0  0  0999 V2000
   -0.0882    1.9805    0.0000 P   0  0  3  0  0  0  0  0  0  0  0  0
   -1.5094    1.8336    0.0000 P   0  0  3  0  0  0  0  0  0  0  0  0
    2.2564    0.9833    0.0000 O   0  0  0  0  0  0  0  0  0  0  0  0
   -3.6006    0.3779    0.0000 O   0  0  0  0  0  0  0  0  0  0  0  0
    4.2209    1.8188    0.0000 O   0  0  0  0  0  0  0  0  0  0  0  0
    2.8890    3.0222    0.0000 O   0  0  0  0  0  0  0  0  0  0  0  0
   -4.6370    2.2442    0.0000 O   0  0  0  0  0  0  0  0  0  0  0  0
   -5.6945    0.7942    0.0000 O   0  0  0  0  0  0  0  0  0  0  0  0
    0.6647    1.6437    0.0000 O   0  0  0  0  0  0  0  0  0  0  0  0
   -2.1777    1.3498    0.0000 O   0  0  0  0  0  0  0  0  0  0  0  0
   -0.8413    2.3175    0.0000 O   0  0  0  0  0  0  0  0  0  0  0  0
    0.2486    2.7337    0.0000 O   0  0  0  0  0  0  0  0  0  0  0  0
   -0.4249    1.2273    0.0000 O   0  0  0  0  0  0  0  0  0  0  0  0
   -1.0258    1.1654    0.0000 O   0  5  0  0  0  0  0  0  0  0  0  0
   -1.9933    2.5019    0.0000 O   0  0  0  0  0  0  0  0  0  0  0  0
    3.4830   -2.6774    0.0000 O   0  0  0  0  0  0  0  0  0  0  0  0
    5.9607   -1.2527    0.0000 O   0  0  0  0  0  0  0  0  0  0  0  0
    3.4880    0.1805    0.0000 N   0  3  0  0  0  0  0  0  0  0  0  0
   -4.6420   -0.6596    0.0000 N   0  0  0  0  0  0  0  0  0  0  0  0
   -4.6420   -1.9875    0.0000 N   0  0  0  0  0  0  0  0  0  0  0  0
   -6.1372   -0.4985    0.0000 N   0  0  0  0  0  0  0  0  0  0  0  0
   -6.8517   -1.7362    0.0000 N   0  0  0  0  0  0  0  0  0  0  0  0
   -6.1372   -2.9737    0.0000 N   0  0  0  0  0  0  0  0  0  0  0  0
    2.2467   -1.9607    0.0000 N   0  0  0  0  0  0  0  0  0  0  0  0
    3.4135    1.6487    0.0000 C   0  0  2  0  0  0  0  0  0  0  0  0
    2.8014    2.2017    0.0000 C   0  0  1  0  0  0  0  0  0  0  0  0
    3.0767    0.8957    0.0000 C   0  0  1  0  0  0  0  0  0  0  0  0
    2.0861    1.7905    0.0000 C   0  0  1  0  0  0  0  0  0  0  0  0
   -4.3835    1.4591    0.0000 C   0  0  1  0  0  0  0  0  0  0  0  0
   -4.8695    0.7927    0.0000 C   0  0  2  0  0  0  0  0  0  0  0  0
   -3.5992    1.2030    0.0000 C   0  0  1  0  0  0  0  0  0  0  0  0
   -4.3858    0.1244    0.0000 C   0  0  1  0  0  0  0  0  0  0  0  0
    1.3330    2.1273    0.0000 C   0  0  0  0  0  0  0  0  0  0  0  0
   -2.9308    1.6867    0.0000 C   0  0  0  0  0  0  0  0  0  0  0  0
    3.0742   -0.5331    0.0000 C   0  0  0  0  0  0  0  0  0  0  0  0
    4.3130    0.1790    0.0000 C   0  0  0  0  0  0  0  0  0  0  0  0
   -5.4228   -0.9112    0.0000 C   0  0  0  0  0  0  0  0  0  0  0  0
   -4.1606   -1.3236    0.0000 C   0  0  0  0  0  0  0  0  0  0  0  0
    3.4855   -1.2484    0.0000 C   0  0  0  0  0  0  0  0  0  0  0  0
    4.3105   -1.2498    0.0000 C   0  0  0  0  0  0  0  0  0  0  0  0
    4.7243   -0.5359    0.0000 C   0  0  0  0  0  0  0  0  0  0  0  0
   -5.4228   -1.7362    0.0000 C   0  0  0  0  0  0  0  0  0  0  0  0
    4.7218   -1.9650    0.0000 C   0  0  2  0  0  0  0  0  0  0  0  0
   -6.1372   -2.1486    0.0000 C   0  0  0  0  0  0  0  0  0  0  0  0
    3.0718   -1.9621    0.0000 C   0  0  0  0  0  0  0  0  0  0  0  0
    4.3081   -2.6788    0.0000 C   0  0  0  0  0  0  0  0  0  0  0  0
    5.5468   -1.9664    0.0000 C   0  0  0  0  0  0  0  0  0  0  0  0
   -6.8517   -0.9112    0.0000 C   0  0  0  0  0  0  0  0  0  0  0  0
    5.9582   -2.6817    0.0000 C   0  0  0  0  0  0  0  0  0  0  0  0
    6.7832   -2.6831    0.0000 C   0  0  0  0  0  0  0  0  0  0  0  0
    4.8687    1.0968    0.0000 H   0  0  0  0  0  0  0  0  0  0  0  0
    3.7758    3.4153    0.0000 H   0  0  0  0  0  0  0  0  0  0  0  0
   -3.9866    2.9639    0.0000 H   0  0  0  0  0  0  0  0  0  0  0  0
   -6.1780    1.6351    0.0000 H   0  0  0  0  0  0  0  0  0  0  0  0
    1.2134    2.8335    0.0000 H   0  0  0  0  0  0  0  0  0  0  0  0
   -6.9898   -3.4660    0.0000 H   0  0  0  0  0  0  0  0  0  0  0  0
   -5.2846   -3.4659    0.0000 H   0  0  0  0  0  0  0  0  0  0  0  0
    1.7559   -1.1073    0.0000 H   0  0  0  0  0  0  0  0  0  0  0  0
    1.7530   -2.8125    0.0000 H   0  0  0  0  0  0  0  0  0  0  0  0
    3.6922    2.6818    0.0000 H   0  0  0  0  0  0  0  0  0  0  0  0
    3.8010    2.5835    0.0000 H   0  0  0  0  0  0  0  0  0  0  0  0
    2.4924   -0.0007    0.0000 H   0  0  0  0  0  0  0  0  0  0  0  0
    1.2535    1.1184    0.0000 H   0  0  0  0  0  0  0  0  0  0  0  0
   -5.4400    1.6284    0.0000 H   0  0  0  0  0  0  0  0  0  0  0  0
   -5.3535    1.7470    0.0000 H   0  0  0  0  0  0  0  0  0  0  0  0
   -2.6467    0.7155    0.0000 H   0  0  0  0  0  0  0  0  0  0  0  0
   -3.6305   -0.6336    0.0000 H   0  0  0  0  0  0  0  0  0  0  0  0
    1.2231    3.1916    0.0000 H   0  0  0  0  0  0  0  0  0  0  0  0
    2.1997    2.7547    0.0000 H   0  0  0  0  0  0  0  0  0  0  0  0
   -3.0407    2.7510    0.0000 H   0  0  0  0  0  0  0  0  0  0  0  0
   -3.9075    2.1237    0.0000 H   0  0  0  0  0  0  0  0  0  0  0  0
    2.0422   -0.5312    0.0000 H   0  0  0  0  0  0  0  0  0  0  0  0
    4.8305    1.0719    0.0000 H   0  0  0  0  0  0  0  0  0  0  0  0
   -3.1286   -1.3236    0.0000 H   0  0  0  0  0  0  0  0  0  0  0  0
    5.7563   -0.5376    0.0000 H   0  0  0  0  0  0  0  0  0  0  0  0
    3.6518   -1.9632    0.0000 H   0  0  0  0  0  0  0  0  0  0  0  0
    3.2381   -2.6770    0.0000 H   0  0  0  0  0  0  0  0  0  0  0  0
    4.8416   -3.6063    0.0000 H   0  0  0  0  0  0  0  0  0  0  0  0
    3.7716   -3.6046    0.0000 H   0  0  0  0  0  0  0  0  0  0  0  0
   -7.7455   -0.3953    0.0000 H   0  0  0  0  0  0  0  0  0  0  0  0
    5.4216   -3.6074    0.0000 H   0  0  0  0  0  0  0  0  0  0  0  0
    6.4916   -3.6092    0.0000 H   0  0  0  0  0  0  0  0  0  0  0  0
    7.3166   -3.6107    0.0000 H   0  0  0  0  0  0  0  0  0  0  0  0
    7.3198   -1.7574    0.0000 H   0  0  0  0  0  0  0  0  0  0  0  0
    7.8532   -2.6849    0.0000 H   0  0  0  0  0  0  0  0  0  0  0  0
  1  9  1  0  0  0  0
  1 11  1  0  0  0  0
  1 12  1  0  0  0  0
  1 13  2  0  0  0  0
  2 10  1  0  0  0  0
  2 11  1  0  0  0  0
  2 14  1  0  0  0  0
  2 15  2  0  0  0  0
  3 27  1  0  0  0  0
  3 28  1  0  0  0  0
  4 31  1  0  0  0  0
  4 32  1  0  0  0  0
  5 51  1  0  0  0  0
  6 52  1  0  0  0  0
  7 53  1  0  0  0  0
  8 54  1  0  0  0  0
  9 33  1  0  0  0  0
 10 34  1  0  0  0  0
 12 55  1  0  0  0  0
 16 45  2  0  0  0  0
 17 47  2  0  0  0  0
 18 35  2  0  0  0  0
 18 36  1  0  0  0  0
 19 37  1  0  0  0  0
 19 38  1  0  0  0  0
 20 38  2  0  0  0  0
 20 42  1  0  0  0  0
 21 37  2  0  0  0  0
 21 48  1  0  0  0  0
 22 44  1  0  0  0  0
 22 48  2  0  0  0  0
 23 44  1  0  0  0  0
 23 56  1  0  0  0  0
 23 57  1  0  0  0  0
 24 45  1  0  0  0  0
 24 58  1  0  0  0  0
 24 59  1  0  0  0  0
 25  5  1  0  0  0  0
 25 26  1  0  0  0  0
 25 27  1  0  0  0  0
 25 60  1  6  0  0  0
 26  6  1  0  0  0  0
 26 28  1  0  0  0  0
 26 61  1  6  0  0  0
 27 18  1  0  0  0  0
 27 62  1  1  0  0  0
 28 33  1  0  0  0  0
 28 63  1  1  0  0  0
 29  7  1  0  0  0  0
 29 30  1  0  0  0  0
 29 31  1  0  0  0  0
 29 64  1  1  0  0  0
 30  8  1  0  0  0  0
 30 32  1  0  0  0  0
 30 65  1  1  0  0  0
 31 34  1  0  0  0  0
 31 66  1  6  0  0  0
 32 19  1  0  0  0  0
 32 67  1  6  0  0  0
 33 68  1  0  0  0  0
 33 69  1  0  0  0  0
 34 70  1  0  0  0  0
 34 71  1  0  0  0  0
 35 39  1  0  0  0  0
 35 72  1  0  0  0  0
 36 41  2  0  0  0  0
 36 73  1  0  0  0  0
 37 42  1  0  0  0  0
 38 74  1  0  0  0  0
 39 40  2  0  0  0  0
 39 45  1  0  0  0  0
 40 41  1  0  0  0  0
 40 43  1  0  0  0  0
 41 75  1  0  0  0  0
 42 44  2  0  0  0  0
 43 46  1  0  0  0  0
 43 47  1  0  0  0  0
 43 76  1  6  0  0  0
 46 77  1  0  0  0  0
 46 78  1  0  0  0  0
 46 79  1  0  0  0  0
 47 49  1  0  0  0  0
 48 80  1  0  0  0  0
 49 50  1  0  0  0  0
 49 81  1  0  0  0  0
 49 82  1  0  0  0  0
 50 83  1  0  0  0  0
 50 84  1  0  0  0  0
 50 85  1  0  0  0  0
M  CHG  2  14  -1  18   1
M  END
>  <DRUGBANK_ID>
DB04421

>  <SECONDARY_ACCESSION_NUMBERS>
EXPT02294

>  <COMMON_NAME>
Nicotinamide adenine dinucleotide 3-pentanone adduct

$$$$
