HMDB02269.mol
 OpenBabel10282417072D

 47 48  0  0  0  0  0  0  0  0999 V2000
   -4.2907    0.6195    0.0000 C   0  0  0  0  0  0  0  0  0  0  0  0
   -4.2907   -0.2065    0.0000 C   0  0  0  0  0  0  0  0  0  0  0  0
   -3.5766   -0.6195    0.0000 C   0  0  0  0  0  0  0  0  0  0  0  0
   -2.8624   -0.2065    0.0000 C   0  0  0  0  0  0  0  0  0  0  0  0
   -2.8624    0.6195    0.0000 C   0  0  0  0  0  0  0  0  0  0  0  0
   -3.5766    1.0325    0.0000 C   0  0  0  0  0  0  0  0  0  0  0  0
   -5.0049   -0.6195    0.0000 O   0  0  0  0  0  0  0  0  0  0  0  0
   -3.5766   -1.4455    0.0000 O   0  0  0  0  0  0  0  0  0  0  0  0
   -2.1453    1.0325    0.0000 C   0  0  0  0  0  0  0  0  0  0  0  0
   -1.4312    0.6195    0.0000 C   0  0  0  0  0  0  0  0  0  0  0  0
   -0.7142    1.0325    0.0000 C   0  0  0  0  0  0  0  0  0  0  0  0
    0.0000    0.6195    0.0000 C   0  0  0  0  0  0  0  0  0  0  0  0
   -0.7142    1.8585    0.0000 O   0  0  0  0  0  0  0  0  0  0  0  0
    0.7170    1.0325    0.0000 C   0  0  0  0  0  0  0  0  0  0  0  0
    1.4312    0.6195    0.0000 C   0  0  0  0  0  0  0  0  0  0  0  0
    0.7170    1.8585    0.0000 O   0  0  0  0  0  0  0  0  0  0  0  0
    2.1482    1.0325    0.0000 C   0  0  0  0  0  0  0  0  0  0  0  0
    2.8652    0.6195    0.0000 C   0  0  0  0  0  0  0  0  0  0  0  0
    2.8652   -0.2065    0.0000 C   0  0  0  0  0  0  0  0  0  0  0  0
    3.5794   -0.6195    0.0000 C   0  0  0  0  0  0  0  0  0  0  0  0
    4.2907   -0.2065    0.0000 C   0  0  0  0  0  0  0  0  0  0  0  0
    4.2907    0.6195    0.0000 C   0  0  0  0  0  0  0  0  0  0  0  0
    3.5794    1.0325    0.0000 C   0  0  0  0  0  0  0  0  0  0  0  0
    3.5794   -1.4455    0.0000 O   0  0  0  0  0  0  0  0  0  0  0  0
    5.0078   -0.6195    0.0000 O   0  0  0  0  0  0  0  0  0  0  0  0
   -4.2907   -1.8585    0.0000 C   0  0  0  0  0  0  0  0  0  0  0  0
    4.2936   -1.8585    0.0000 C   0  0  0  0  0  0  0  0  0  0  0  0
   -5.1846    1.1352    0.0000 H   0  0  0  0  0  0  0  0  0  0  0  0
   -1.9685   -0.7222    0.0000 H   0  0  0  0  0  0  0  0  0  0  0  0
   -3.5766    2.0645    0.0000 H   0  0  0  0  0  0  0  0  0  0  0  0
   -5.8167   -0.1516    0.0000 H   0  0  0  0  0  0  0  0  0  0  0  0
   -2.1444    2.0645    0.0000 H   0  0  0  0  0  0  0  0  0  0  0  0
   -1.4321   -0.4125    0.0000 H   0  0  0  0  0  0  0  0  0  0  0  0
   -0.0009   -0.4505    0.0000 H   0  0  0  0  0  0  0  0  0  0  0  0
    0.9262    0.0836    0.0000 H   0  0  0  0  0  0  0  0  0  0  0  0
    1.4303   -0.4125    0.0000 H   0  0  0  0  0  0  0  0  0  0  0  0
    2.1482    2.0645    0.0000 H   0  0  0  0  0  0  0  0  0  0  0  0
    1.9713   -0.7222    0.0000 H   0  0  0  0  0  0  0  0  0  0  0  0
    5.1851    1.1344    0.0000 H   0  0  0  0  0  0  0  0  0  0  0  0
    3.5803    2.0645    0.0000 H   0  0  0  0  0  0  0  0  0  0  0  0
    5.0088   -1.5565    0.0000 H   0  0  0  0  0  0  0  0  0  0  0  0
   -5.2177   -1.3242    0.0000 H   0  0  0  0  0  0  0  0  0  0  0  0
   -4.2899   -2.9285    0.0000 H   0  0  0  0  0  0  0  0  0  0  0  0
   -5.2169   -2.3942    0.0000 H   0  0  0  0  0  0  0  0  0  0  0  0
    4.2929   -2.9285    0.0000 H   0  0  0  0  0  0  0  0  0  0  0  0
    5.2206   -1.3241    0.0000 H   0  0  0  0  0  0  0  0  0  0  0  0
    5.2199   -2.3941    0.0000 H   0  0  0  0  0  0  0  0  0  0  0  0
  1  2  2  0  0  0  0
  1  6  1  0  0  0  0
  1 28  1  0  0  0  0
  2  3  1  0  0  0  0
  2  7  1  0  0  0  0
  3  4  2  0  0  0  0
  3  8  1  0  0  0  0
  4  5  1  0  0  0  0
  4 29  1  0  0  0  0
  5  6  2  0  0  0  0
  5  9  1  0  0  0  0
  6 30  1  0  0  0  0
  7 31  1  0  0  0  0
  8 26  1  0  0  0  0
  9 10  2  0  0  0  0
  9 32  1  0  0  0  0
 10 11  1  0  0  0  0
 10 33  1  0  0  0  0
 11 12  1  0  0  0  0
 11 13  2  0  0  0  0
 12 14  1  0  0  0  0
 12 34  1  0  0  0  0
 12 35  1  0  0  0  0
 14 15  1  0  0  0  0
 14 16  2  0  0  0  0
 15 17  2  0  0  0  0
 15 36  1  0  0  0  0
 17 18  1  0  0  0  0
 17 37  1  0  0  0  0
 18 19  2  0  0  0  0
 18 23  1  0  0  0  0
 19 20  1  0  0  0  0
 19 38  1  0  0  0  0
 20 21  2  0  0  0  0
 20 24  1  0  0  0  0
 21 22  1  0  0  0  0
 21 25  1  0  0  0  0
 22 23  2  0  0  0  0
 22 39  1  0  0  0  0
 23 40  1  0  0  0  0
 24 27  1  0  0  0  0
 25 41  1  0  0  0  0
 26 42  1  0  0  0  0
 26 43  1  0  0  0  0
 26 44  1  0  0  0  0
 27 45  1  0  0  0  0
 27 46  1  0  0  0  0
 27 47  1  0  0  0  0
M  END
>  <DRUGBANK_ID>
DB11672

>  <COMMON_NAME>
Curcumin

>  <CAS_NUMBER>
458-37-7

>  <UNII>
IT942ZTH98

>  <SYNONYMS>
Curcumin; Diferuloylmethane

$$$$
