
 OpenBabel10282417072D

 32 34  0  0  0  0  0  0  0  0999 V2000
   -1.0717   -0.6187    0.0000 C   0  0  0  0  0  0  0  0  0  0  0  0
   -1.0717    0.2062    0.0000 C   0  0  0  0  0  0  0  0  0  0  0  0
   -0.3572   -1.0312    0.0000 C   0  0  0  0  0  0  0  0  0  0  0  0
   -1.7861   -1.0312    0.0000 C   0  0  0  0  0  0  0  0  0  0  0  0
   -0.3572    0.6187    0.0000 O   0  0  0  0  0  0  0  0  0  0  0  0
   -1.7861    0.6187    0.0000 C   0  0  0  0  0  0  0  0  0  0  0  0
    0.3572   -0.6187    0.0000 C   0  0  0  0  0  0  0  0  0  0  0  0
   -0.3572   -1.8562    0.0000 O   0  0  0  0  0  0  0  0  0  0  0  0
   -2.5006   -0.6187    0.0000 C   0  0  0  0  0  0  0  0  0  0  0  0
   -1.7862   -1.8562    0.0000 O   0  0  0  0  0  0  0  0  0  0  0  0
    0.3572    0.2062    0.0000 C   0  0  0  0  0  0  0  0  0  0  0  0
   -2.5006    0.2062    0.0000 C   0  0  0  0  0  0  0  0  0  0  0  0
    1.0716   -1.0312    0.0000 O   0  0  0  0  0  0  0  0  0  0  0  0
    1.0717    0.6187    0.0000 C   0  0  0  0  0  0  0  0  0  0  0  0
   -3.2151    0.6188    0.0000 O   0  0  0  0  0  0  0  0  0  0  0  0
    1.0717    1.4437    0.0000 C   0  0  0  0  0  0  0  0  0  0  0  0
    1.7861    0.2061    0.0000 C   0  0  0  0  0  0  0  0  0  0  0  0
    1.7861    1.8561    0.0000 C   0  0  0  0  0  0  0  0  0  0  0  0
    0.3572    1.8562    0.0000 O   0  0  0  0  0  0  0  0  0  0  0  0
    2.5006    0.6186    0.0000 C   0  0  0  0  0  0  0  0  0  0  0  0
    2.5006    1.4436    0.0000 C   0  0  0  0  0  0  0  0  0  0  0  0
    3.2151    1.8561    0.0000 O   0  0  0  0  0  0  0  0  0  0  0  0
   -1.7861    1.6507    0.0000 H   0  0  0  0  0  0  0  0  0  0  0  0
   -3.3943   -1.1347    0.0000 H   0  0  0  0  0  0  0  0  0  0  0  0
   -2.5977   -2.3246    0.0000 H   0  0  0  0  0  0  0  0  0  0  0  0
    1.0716   -1.9682    0.0000 H   0  0  0  0  0  0  0  0  0  0  0  0
   -3.2150    1.5558    0.0000 H   0  0  0  0  0  0  0  0  0  0  0  0
    1.7860   -0.8259    0.0000 H   0  0  0  0  0  0  0  0  0  0  0  0
    1.7861    2.8881    0.0000 H   0  0  0  0  0  0  0  0  0  0  0  0
    0.3572    2.7932    0.0000 H   0  0  0  0  0  0  0  0  0  0  0  0
    3.3943    0.1026    0.0000 H   0  0  0  0  0  0  0  0  0  0  0  0
    4.0266    1.3876    0.0000 H   0  0  0  0  0  0  0  0  0  0  0  0
  1  2  1  0  0  0  0
  1  3  1  0  0  0  0
  1  4  2  0  0  0  0
  2  5  1  0  0  0  0
  2  6  2  0  0  0  0
  3  7  1  0  0  0  0
  3  8  2  0  0  0  0
  4  9  1  0  0  0  0
  4 10  1  0  0  0  0
  5 11  1  0  0  0  0
  6 12  1  0  0  0  0
  6 23  1  0  0  0  0
  7 13  1  0  0  0  0
  7 11  2  0  0  0  0
  9 12  2  0  0  0  0
  9 24  1  0  0  0  0
 10 25  1  0  0  0  0
 11 14  1  0  0  0  0
 12 15  1  0  0  0  0
 13 26  1  0  0  0  0
 14 16  1  0  0  0  0
 14 17  2  0  0  0  0
 15 27  1  0  0  0  0
 16 18  2  0  0  0  0
 16 19  1  0  0  0  0
 17 20  1  0  0  0  0
 17 28  1  0  0  0  0
 18 21  1  0  0  0  0
 18 29  1  0  0  0  0
 19 30  1  0  0  0  0
 20 21  2  0  0  0  0
 20 31  1  0  0  0  0
 21 22  1  0  0  0  0
 22 32  1  0  0  0  0
M  END
>  <DRUGBANK_ID>
DB16770

>  <COMMON_NAME>
Morin

>  <CAS_NUMBER>
480-16-0

>  <UNII>
8NFQ3F76WR

>  <SYNONYMS>
2-(2,4-Dihydroxyphenyl)-3,5,7-trihydroxy-4h-1-benzopyran-4-one; 2',3,4',5,7-Pentahydroxyflavone; Al-Morin; Aurantica; C.I. Natural yellow 8; Calico Yellow

$$$$
