
 OpenBabel10282417072D

113121  0  0  1  0  0  0  0  0999 V2000
   -2.2352   -2.3214    0.0000 C   0  0  0  0  0  0  0  0  0  0  0  0
   -1.4646   -2.6162    0.0000 C   0  0  0  0  0  0  0  0  0  0  0  0
   -0.8240   -2.0963    0.0000 C   0  0  1  0  0  0  0  0  0  0  0  0
   -1.5946   -1.8015    0.0000 C   0  0  0  0  0  0  0  0  0  0  0  0
   -1.7245   -0.9868    0.0000 C   0  0  0  0  0  0  0  0  0  0  0  0
   -1.0839   -0.4669    0.0000 C   0  0  0  0  0  0  0  0  0  0  0  0
   -0.3134   -0.7618    0.0000 N   0  0  3  0  0  0  0  0  0  0  0  0
   -0.1834   -1.5765    0.0000 C   0  0  2  0  0  0  0  0  0  0  0  0
    0.5871   -1.8713    0.0000 C   0  0  1  0  0  0  0  0  0  0  0  0
    1.1056   -1.2296    0.0000 C   0  0  0  0  0  0  0  0  0  0  0  0
    0.6555   -0.5382    0.0000 C   0  0  0  0  0  0  0  0  0  0  0  0
    1.3218   -1.4960    0.0000 C   0  0  0  0  0  0  0  0  0  0  0  0
    1.5344   -0.6989    0.0000 C   0  0  0  0  0  0  0  0  0  0  0  0
    2.3311   -0.4845    0.0000 C   0  0  0  0  0  0  0  0  0  0  0  0
    2.9151   -1.0673    0.0000 C   0  0  0  0  0  0  0  0  0  0  0  0
    2.7024   -1.8644    0.0000 C   0  0  0  0  0  0  0  0  0  0  0  0
    1.9057   -2.0787    0.0000 C   0  0  0  0  0  0  0  0  0  0  0  0
    1.5320   -2.8142    0.0000 N   0  0  0  0  0  0  0  0  0  0  0  0
    0.7170   -2.6860    0.0000 C   0  0  1  0  0  0  0  0  0  0  0  0
    0.0764   -3.2059    0.0000 C   0  0  2  0  0  0  0  0  0  0  0  0
   -0.6941   -2.9110    0.0000 C   0  0  2  0  0  0  0  0  0  0  0  0
   -1.3347   -3.4309    0.0000 O   0  0  0  0  0  0  0  0  0  0  0  0
   -2.1052   -3.1361    0.0000 C   0  0  0  0  0  0  0  0  0  0  0  0
   -2.6892   -2.5533    0.0000 O   0  0  0  0  0  0  0  0  0  0  0  0
   -2.7458   -3.6559    0.0000 C   0  0  0  0  0  0  0  0  0  0  0  0
   -0.1914   -3.9862    0.0000 C   0  0  0  0  0  0  0  0  0  0  0  0
   -1.0011   -4.1445    0.0000 O   0  0  0  0  0  0  0  0  0  0  0  0
    0.3505   -4.6083    0.0000 O   0  0  0  0  0  0  0  0  0  0  0  0
    0.0827   -5.3886    0.0000 C   0  0  0  0  0  0  0  0  0  0  0  0
    0.5736   -3.8642    0.0000 O   0  0  0  0  0  0  0  0  0  0  0  0
    1.9073   -3.5489    0.0000 C   0  0  0  0  0  0  0  0  0  0  0  0
    3.7117   -0.8529    0.0000 O   0  0  0  0  0  0  0  0  0  0  0  0
    4.2957   -1.4356    0.0000 C   0  0  0  0  0  0  0  0  0  0  0  0
    2.2871    0.3393    0.0000 C   0  0  1  0  0  0  0  0  0  0  0  0
    1.8413    1.0698    0.0000 C   0  0  0  0  0  0  0  0  0  0  0  0
    1.9744    1.9327    0.0000 C   0  0  2  0  0  0  0  0  0  0  0  0
    1.8379    2.7882    0.0000 C   0  0  0  0  0  0  0  0  0  0  0  0
    2.4488    3.3726    0.0000 C   0  0  2  0  0  0  0  0  0  0  0  0
    3.2410    3.0777    0.0000 C   0  0  0  0  0  0  0  0  0  0  0  0
    3.4542    2.2380    0.0000 N   0  0  1  0  0  0  0  0  0  0  0  0
    2.7278    2.0200    0.0000 C   0  0  0  0  0  0  0  0  0  0  0  0
    3.9179    1.4982    0.0000 C   0  0  0  0  0  0  0  0  0  0  0  0
    3.7976    0.6509    0.0000 C   0  0  0  0  0  0  0  0  0  0  0  0
    3.1237    0.1751    0.0000 C   0  0  0  0  0  0  0  0  0  0  0  0
    3.3680   -0.6129    0.0000 N   0  0  0  0  0  0  0  0  0  0  0  0
    4.1929   -0.6241    0.0000 C   0  0  0  0  0  0  0  0  0  0  0  0
    4.4585    0.1570    0.0000 C   0  0  0  0  0  0  0  0  0  0  0  0
    5.2677    0.3176    0.0000 C   0  0  0  0  0  0  0  0  0  0  0  0
    5.8114   -0.3029    0.0000 C   0  0  0  0  0  0  0  0  0  0  0  0
    5.5458   -1.0840    0.0000 C   0  0  0  0  0  0  0  0  0  0  0  0
    4.7366   -1.2446    0.0000 C   0  0  0  0  0  0  0  0  0  0  0  0
    2.2821    4.1805    0.0000 C   0  0  0  0  0  0  0  0  0  0  0  0
    3.0901    4.3472    0.0000 C   0  0  0  0  0  0  0  0  0  0  0  0
    2.1154    4.9885    0.0000 F   0  0  0  0  0  0  0  0  0  0  0  0
    1.4741    4.0139    0.0000 F   0  0  0  0  0  0  0  0  0  0  0  0
    1.4991    0.0950    0.0000 C   0  0  0  0  0  0  0  0  0  0  0  0
    1.0770   -0.6139    0.0000 O   0  0  0  0  0  0  0  0  0  0  0  0
    0.8935    0.6552    0.0000 O   0  0  0  0  0  0  0  0  0  0  0  0
    0.1055    0.4109    0.0000 C   0  0  0  0  0  0  0  0  0  0  0  0
   -2.4038   -1.2648    0.0000 H   0  0  0  0  0  0  0  0  0  0  0  0
   -3.0660   -2.9957    0.0000 H   0  0  0  0  0  0  0  0  0  0  0  0
   -3.2346   -1.9391    0.0000 H   0  0  0  0  0  0  0  0  0  0  0  0
   -1.2960   -3.6728    0.0000 H   0  0  0  0  0  0  0  0  0  0  0  0
   -0.4652   -2.9986    0.0000 H   0  0  0  0  0  0  0  0  0  0  0  0
   -2.3959   -2.4518    0.0000 H   0  0  0  0  0  0  0  0  0  0  0  0
   -2.6883   -0.6180    0.0000 H   0  0  0  0  0  0  0  0  0  0  0  0
   -1.2524    0.5898    0.0000 H   0  0  0  0  0  0  0  0  0  0  0  0
   -0.2530    0.2073    0.0000 H   0  0  0  0  0  0  0  0  0  0  0  0
   -1.1827   -1.1941    0.0000 H   0  0  0  0  0  0  0  0  0  0  0  0
    2.1742   -1.2844    0.0000 H   0  0  0  0  0  0  0  0  0  0  0  0
    1.6396   -0.3024    0.0000 H   0  0  0  0  0  0  0  0  0  0  0  0
    1.0558    0.4541    0.0000 H   0  0  0  0  0  0  0  0  0  0  0  0
   -0.0396    0.2753    0.0000 H   0  0  0  0  0  0  0  0  0  0  0  0
    0.8039    0.0300    0.0000 H   0  0  0  0  0  0  0  0  0  0  0  0
    3.4329   -2.5934    0.0000 H   0  0  0  0  0  0  0  0  0  0  0  0
    1.4728   -1.9286    0.0000 H   0  0  0  0  0  0  0  0  0  0  0  0
   -0.5256   -3.9677    0.0000 H   0  0  0  0  0  0  0  0  0  0  0  0
   -3.7451   -3.2734    0.0000 H   0  0  0  0  0  0  0  0  0  0  0  0
   -2.5774   -4.7126    0.0000 H   0  0  0  0  0  0  0  0  0  0  0  0
   -3.5767   -4.3301    0.0000 H   0  0  0  0  0  0  0  0  0  0  0  0
   -0.9674   -5.5938    0.0000 H   0  0  0  0  0  0  0  0  0  0  0  0
    0.7855   -6.1954    0.0000 H   0  0  0  0  0  0  0  0  0  0  0  0
   -0.2646   -6.4007    0.0000 H   0  0  0  0  0  0  0  0  0  0  0  0
    0.1956   -4.7575    0.0000 H   0  0  0  0  0  0  0  0  0  0  0  0
    1.3255   -4.4469    0.0000 H   0  0  0  0  0  0  0  0  0  0  0  0
    2.9759   -3.6038    0.0000 H   0  0  0  0  0  0  0  0  0  0  0  0
    2.3940   -4.5018    0.0000 H   0  0  0  0  0  0  0  0  0  0  0  0
    4.0199   -2.4694    0.0000 H   0  0  0  0  0  0  0  0  0  0  0  0
    5.3289   -1.1575    0.0000 H   0  0  0  0  0  0  0  0  0  0  0  0
    5.0531   -2.1914    0.0000 H   0  0  0  0  0  0  0  0  0  0  0  0
    0.7921    0.8599    0.0000 H   0  0  0  0  0  0  0  0  0  0  0  0
    1.0681    1.8094    0.0000 H   0  0  0  0  0  0  0  0  0  0  0  0
    2.7166    1.1620    0.0000 H   0  0  0  0  0  0  0  0  0  0  0  0
    0.8238    3.1295    0.0000 H   0  0  0  0  0  0  0  0  0  0  0  0
    1.6051    3.8326    0.0000 H   0  0  0  0  0  0  0  0  0  0  0  0
    1.4272    3.6909    0.0000 H   0  0  0  0  0  0  0  0  0  0  0  0
    4.0372    3.7925    0.0000 H   0  0  0  0  0  0  0  0  0  0  0  0
    4.2647    2.7663    0.0000 H   0  0  0  0  0  0  0  0  0  0  0  0
    2.9440    0.9721    0.0000 H   0  0  0  0  0  0  0  0  0  0  0  0
    2.1009    1.1529    0.0000 H   0  0  0  0  0  0  0  0  0  0  0  0
    4.9645    1.7206    0.0000 H   0  0  0  0  0  0  0  0  0  0  0  0
    4.6999    0.7679    0.0000 H   0  0  0  0  0  0  0  0  0  0  0  0
    2.7786   -1.4015    0.0000 H   0  0  0  0  0  0  0  0  0  0  0  0
    5.5998    1.2947    0.0000 H   0  0  0  0  0  0  0  0  0  0  0  0
    6.8237   -0.1020    0.0000 H   0  0  0  0  0  0  0  0  0  0  0  0
    6.2259   -1.8602    0.0000 H   0  0  0  0  0  0  0  0  0  0  0  0
    4.4045   -2.2217    0.0000 H   0  0  0  0  0  0  0  0  0  0  0  0
    3.8013    3.5478    0.0000 H   0  0  0  0  0  0  0  0  0  0  0  0
    3.4268    5.3628    0.0000 H   0  0  0  0  0  0  0  0  0  0  0  0
    4.1380    4.5634    0.0000 H   0  0  0  0  0  0  0  0  0  0  0  0
   -0.6799    1.1376    0.0000 H   0  0  0  0  0  0  0  0  0  0  0  0
   -0.1311   -0.6326    0.0000 H   0  0  0  0  0  0  0  0  0  0  0  0
   -0.9165    0.0941    0.0000 H   0  0  0  0  0  0  0  0  0  0  0  0
  1  2  1  0  0  0  0
  1 60  1  0  0  0  0
  1 61  1  0  0  0  0
  1 62  1  0  0  0  0
  2 63  1  0  0  0  0
  2 64  1  0  0  0  0
  3  2  1  1  0  0  0
  3  4  1  0  0  0  0
  3  8  1  0  0  0  0
  3 21  1  0  0  0  0
  4  5  2  0  0  0  0
  4 65  1  0  0  0  0
  5  6  1  0  0  0  0
  5 66  1  0  0  0  0
  6  7  1  0  0  0  0
  6 67  1  0  0  0  0
  6 68  1  0  0  0  0
  7 11  1  0  0  0  0
  8  7  1  0  0  0  0
  8  9  1  0  0  0  0
  8 69  1  1  0  0  0
  9 10  1  0  0  0  0
  9 12  1  1  0  0  0
  9 19  1  0  0  0  0
 10 11  1  0  0  0  0
 10 70  1  0  0  0  0
 10 71  1  0  0  0  0
 11 72  1  0  0  0  0
 11 73  1  0  0  0  0
 12 13  2  0  0  0  0
 12 17  1  0  0  0  0
 13 14  1  0  0  0  0
 13 74  1  0  0  0  0
 14 15  2  0  0  0  0
 15 16  1  0  0  0  0
 15 32  1  0  0  0  0
 16 17  2  0  0  0  0
 16 75  1  0  0  0  0
 17 18  1  0  0  0  0
 18 31  1  0  0  0  0
 19 18  1  0  0  0  0
 19 20  1  0  0  0  0
 19 76  1  6  0  0  0
 20 21  1  0  0  0  0
 20 26  1  1  0  0  0
 20 30  1  0  0  0  0
 21 22  1  0  0  0  0
 21 77  1  1  0  0  0
 22 23  1  0  0  0  0
 23 24  2  0  0  0  0
 23 25  1  0  0  0  0
 25 78  1  0  0  0  0
 25 79  1  0  0  0  0
 25 80  1  0  0  0  0
 26 27  2  0  0  0  0
 26 28  1  0  0  0  0
 28 29  1  0  0  0  0
 29 81  1  0  0  0  0
 29 82  1  0  0  0  0
 29 83  1  0  0  0  0
 30 84  1  0  0  0  0
 31 85  1  0  0  0  0
 31 86  1  0  0  0  0
 31 87  1  0  0  0  0
 32 33  1  0  0  0  0
 33 88  1  0  0  0  0
 33 89  1  0  0  0  0
 33 90  1  0  0  0  0
 34 14  1  0  0  0  0
 34 35  1  0  0  0  0
 34 44  1  0  0  0  0
 34 56  1  6  0  0  0
 35 36  1  0  0  0  0
 35 91  1  0  0  0  0
 35 92  1  0  0  0  0
 36 37  1  0  0  0  0
 36 41  1  0  0  0  0
 36 93  1  1  0  0  0
 37 38  1  0  0  0  0
 37 94  1  0  0  0  0
 37 95  1  0  0  0  0
 38 39  1  0  0  0  0
 38 52  1  0  0  0  0
 38 96  1  6  0  0  0
 39 97  1  0  0  0  0
 39 98  1  0  0  0  0
 40 39  1  6  0  0  0
 40 41  1  0  0  0  0
 40 42  1  0  0  0  0
 41 99  1  0  0  0  0
 41100  1  0  0  0  0
 42 43  1  0  0  0  0
 42101  1  0  0  0  0
 42102  1  0  0  0  0
 43 44  2  0  0  0  0
 43 47  1  0  0  0  0
 44 45  1  0  0  0  0
 45 46  1  0  0  0  0
 45103  1  0  0  0  0
 46 47  1  0  0  0  0
 46 51  2  0  0  0  0
 47 48  2  0  0  0  0
 48 49  1  0  0  0  0
 48104  1  0  0  0  0
 49 50  2  0  0  0  0
 49105  1  0  0  0  0
 50 51  1  0  0  0  0
 50106  1  0  0  0  0
 51107  1  0  0  0  0
 52 53  1  0  0  0  0
 52 54  1  0  0  0  0
 52 55  1  0  0  0  0
 53108  1  0  0  0  0
 53109  1  0  0  0  0
 53110  1  0  0  0  0
 56 57  2  0  0  0  0
 56 58  1  0  0  0  0
 58 59  1  0  0  0  0
 59111  1  0  0  0  0
 59112  1  0  0  0  0
 59113  1  0  0  0  0
M  END
>  <DRUGBANK_ID>
DB11641

>  <COMMON_NAME>
Vinflunine

>  <CAS_NUMBER>
162652-95-1

>  <UNII>
5BF646324K

>  <SYNONYMS>
20',20'-difluoro-3',4'-dihydrovinorelbine; 4'-deoxy-20',20'-difluoro-5'-norvincaleukoblastine; 4'-deoxy-20',20'-difluoro-8'-norvincaleukoblastine; Vinflunina; Vinflunine; Vinfluninum

$$$$
