BZC
 OpenBabel10282417072D

 33 35  0  0  0  0  0  0  0  0999 V2000
    1.0314    0.1002    0.0000 C   0  0  0  0  0  0  0  0  0  0  0  0
    0.2467   -0.1547    0.0000 N   0  0  0  0  0  0  0  0  0  0  0  0
   -0.2382    0.5127    0.0000 C   0  0  0  0  0  0  0  0  0  0  0  0
    0.2467    1.1802    0.0000 N   0  0  0  0  0  0  0  0  0  0  0  0
    1.0314    0.9252    0.0000 C   0  0  0  0  0  0  0  0  0  0  0  0
    1.7458    1.3377    0.0000 C   0  0  0  0  0  0  0  0  0  0  0  0
    1.7458   -0.3123    0.0000 C   0  0  0  0  0  0  0  0  0  0  0  0
   -1.0632    0.5127    0.0000 C   0  0  0  0  0  0  0  0  0  0  0  0
    2.4603    0.1002    0.0000 C   0  0  0  0  0  0  0  0  0  0  0  0
    2.4603    0.9252    0.0000 C   0  0  0  0  0  0  0  0  0  0  0  0
    1.7458   -1.1373    0.0000 C   0  0  0  0  0  0  0  0  0  0  0  0
    2.4603   -1.5498    0.0000 N   0  0  0  0  0  0  0  0  0  0  0  0
    1.0314   -1.5498    0.0000 O   0  0  0  0  0  0  0  0  0  0  0  0
   -1.4757   -0.2018    0.0000 C   0  0  0  0  0  0  0  0  0  0  0  0
   -1.4757    1.2272    0.0000 C   0  0  0  0  0  0  0  0  0  0  0  0
   -2.3007   -0.2018    0.0000 C   0  0  0  0  0  0  0  0  0  0  0  0
   -2.7132   -0.9162    0.0000 O   0  0  0  0  0  0  0  0  0  0  0  0
   -2.7132    0.5127    0.0000 C   0  0  0  0  0  0  0  0  0  0  0  0
   -2.3007    1.2272    0.0000 C   0  0  0  0  0  0  0  0  0  0  0  0
   -2.3007   -1.6307    0.0000 C   0  0  0  0  0  0  0  0  0  0  0  0
   -0.0575    2.1165    0.0000 H   0  0  0  0  0  0  0  0  0  0  0  0
    1.7458    2.3697    0.0000 H   0  0  0  0  0  0  0  0  0  0  0  0
    3.3540   -0.4158    0.0000 H   0  0  0  0  0  0  0  0  0  0  0  0
    3.3540    1.4412    0.0000 H   0  0  0  0  0  0  0  0  0  0  0  0
    2.4603   -2.5343    0.0000 H   0  0  0  0  0  0  0  0  0  0  0  0
    3.3129   -1.0575    0.0000 H   0  0  0  0  0  0  0  0  0  0  0  0
   -0.9597   -1.0955    0.0000 H   0  0  0  0  0  0  0  0  0  0  0  0
   -0.9597    2.1209    0.0000 H   0  0  0  0  0  0  0  0  0  0  0  0
   -3.7452    0.5127    0.0000 H   0  0  0  0  0  0  0  0  0  0  0  0
   -2.8167    2.1209    0.0000 H   0  0  0  0  0  0  0  0  0  0  0  0
   -2.8357   -2.5573    0.0000 H   0  0  0  0  0  0  0  0  0  0  0  0
   -1.2307   -1.6307    0.0000 H   0  0  0  0  0  0  0  0  0  0  0  0
   -1.7657   -2.5574    0.0000 H   0  0  0  0  0  0  0  0  0  0  0  0
  1  2  1  0  0  0  0
  1  5  2  0  0  0  0
  1  7  1  0  0  0  0
  2  3  2  0  0  0  0
  3  4  1  0  0  0  0
  3  8  1  0  0  0  0
  4  5  1  0  0  0  0
  4 21  1  0  0  0  0
  5  6  1  0  0  0  0
  6 10  2  0  0  0  0
  6 22  1  0  0  0  0
  7  9  2  0  0  0  0
  7 11  1  0  0  0  0
  8 14  2  0  0  0  0
  8 15  1  0  0  0  0
  9 10  1  0  0  0  0
  9 23  1  0  0  0  0
 10 24  1  0  0  0  0
 11 12  1  0  0  0  0
 11 13  2  0  0  0  0
 12 25  1  0  0  0  0
 12 26  1  0  0  0  0
 14 16  1  0  0  0  0
 14 27  1  0  0  0  0
 15 19  2  0  0  0  0
 15 28  1  0  0  0  0
 16 17  1  0  0  0  0
 16 18  2  0  0  0  0
 17 20  1  0  0  0  0
 18 19  1  0  0  0  0
 18 29  1  0  0  0  0
 19 30  1  0  0  0  0
 20 31  1  0  0  0  0
 20 32  1  0  0  0  0
 20 33  1  0  0  0  0
M  END
>  <DRUGBANK_ID>
DB04010

>  <SECONDARY_ACCESSION_NUMBERS>
EXPT00788

>  <COMMON_NAME>
2-(3'-Methoxyphenyl) Benzimidazole-4-Carboxamide

$$$$
