
 OpenBabel10282417072D

 63 68  0  0  1  0  0  0  0  0999 V2000
   -1.2654    4.6668    0.0000 O   0  0  0  0  0  0  0  0  0  0  0  0
   -0.5510    4.2543    0.0000 C   0  0  0  0  0  0  0  0  0  0  0  0
    0.1635    4.6668    0.0000 O   0  0  0  0  0  0  0  0  0  0  0  0
   -0.5510    3.4293    0.0000 C   0  0  0  0  0  0  0  0  0  0  0  0
    0.1635    3.0168    0.0000 C   0  0  0  0  0  0  0  0  0  0  0  0
    0.1635    2.1918    0.0000 C   0  0  0  0  0  0  0  0  0  0  0  0
   -0.5510    1.7793    0.0000 C   0  0  0  0  0  0  0  0  0  0  0  0
   -0.5510    0.9543    0.0000 C   0  0  0  0  0  0  0  0  0  0  0  0
    0.1635    0.5418    0.0000 N   0  0  0  0  0  0  0  0  0  0  0  0
    0.1635   -0.2832    0.0000 C   0  0  0  0  0  0  0  0  0  0  0  0
    0.8780   -0.6957    0.0000 C   0  0  2  0  0  0  0  0  0  0  0  0
    0.6717    0.1293    0.0000 C   0  0  0  0  0  0  0  0  0  0  0  0
    0.8780    0.9543    0.0000 C   0  0  1  0  0  0  0  0  0  0  0  0
    1.5925    0.5418    0.0000 C   0  0  0  0  0  0  0  0  0  0  0  0
    1.5925   -0.2832    0.0000 N   0  0  0  0  0  0  0  0  0  0  0  0
    2.3069   -0.6957    0.0000 C   0  0  0  0  0  0  0  0  0  0  0  0
    2.3069   -1.5207    0.0000 C   0  0  0  0  0  0  0  0  0  0  0  0
    3.0214   -1.9332    0.0000 C   0  0  0  0  0  0  0  0  0  0  0  0
    3.0214   -2.7582    0.0000 C   0  0  0  0  0  0  0  0  0  0  0  0
    2.3069   -3.1707    0.0000 C   0  0  0  0  0  0  0  0  0  0  0  0
    2.3069   -3.9957    0.0000 O   0  0  0  0  0  0  0  0  0  0  0  0
    1.5925   -4.4082    0.0000 C   0  0  0  0  0  0  0  0  0  0  0  0
    1.5925   -5.2332    0.0000 C   0  0  0  0  0  0  0  0  0  0  0  0
    0.8780   -5.6457    0.0000 C   0  0  0  0  0  0  0  0  0  0  0  0
    0.1635   -5.2332    0.0000 C   0  0  0  0  0  0  0  0  0  0  0  0
    0.1635   -4.4082    0.0000 C   0  0  0  0  0  0  0  0  0  0  0  0
    0.8780   -3.9957    0.0000 C   0  0  0  0  0  0  0  0  0  0  0  0
   -0.5510   -5.6457    0.0000 C   0  0  0  0  0  0  0  0  0  0  0  0
   -0.6372   -6.4662    0.0000 N   0  0  0  0  0  0  0  0  0  0  0  0
   -1.4442   -6.6377    0.0000 C   0  0  0  0  0  0  0  0  0  0  0  0
   -1.8567   -5.9233    0.0000 C   0  0  0  0  0  0  0  0  0  0  0  0
   -1.3046   -5.3102    0.0000 O   0  0  0  0  0  0  0  0  0  0  0  0
    1.5925   -2.7582    0.0000 C   0  0  0  0  0  0  0  0  0  0  0  0
    1.5925   -1.9332    0.0000 C   0  0  0  0  0  0  0  0  0  0  0  0
   -1.2654    2.1918    0.0000 C   0  0  0  0  0  0  0  0  0  0  0  0
   -1.2654    3.0168    0.0000 C   0  0  0  0  0  0  0  0  0  0  0  0
   -1.2654    5.6038    0.0000 H   0  0  0  0  0  0  0  0  0  0  0  0
    1.0572    3.5328    0.0000 H   0  0  0  0  0  0  0  0  0  0  0  0
    1.0572    1.6758    0.0000 H   0  0  0  0  0  0  0  0  0  0  0  0
   -1.4776    0.4193    0.0000 H   0  0  0  0  0  0  0  0  0  0  0  0
   -0.5510   -0.1157    0.0000 H   0  0  0  0  0  0  0  0  0  0  0  0
   -0.7631   -0.8182    0.0000 H   0  0  0  0  0  0  0  0  0  0  0  0
    0.1635   -1.3532    0.0000 H   0  0  0  0  0  0  0  0  0  0  0  0
    0.2338    0.1586    0.0000 H   0  0  0  0  0  0  0  0  0  0  0  0
   -0.3983    0.1293    0.0000 H   0  0  0  0  0  0  0  0  0  0  0  0
    0.0132    0.9727    0.0000 H   0  0  0  0  0  0  0  0  0  0  0  0
    0.2338    0.1000    0.0000 H   0  0  0  0  0  0  0  0  0  0  0  0
    2.5191    1.0768    0.0000 H   0  0  0  0  0  0  0  0  0  0  0  0
    2.5191    0.0068    0.0000 H   0  0  0  0  0  0  0  0  0  0  0  0
    3.2336   -0.1607    0.0000 H   0  0  0  0  0  0  0  0  0  0  0  0
    3.2335   -1.2307    0.0000 H   0  0  0  0  0  0  0  0  0  0  0  0
    3.9151   -1.4172    0.0000 H   0  0  0  0  0  0  0  0  0  0  0  0
    3.9151   -3.2742    0.0000 H   0  0  0  0  0  0  0  0  0  0  0  0
    2.4862   -5.7492    0.0000 H   0  0  0  0  0  0  0  0  0  0  0  0
    0.8780   -6.6777    0.0000 H   0  0  0  0  0  0  0  0  0  0  0  0
   -0.7302   -3.8922    0.0000 H   0  0  0  0  0  0  0  0  0  0  0  0
    0.8780   -2.9637    0.0000 H   0  0  0  0  0  0  0  0  0  0  0  0
   -1.8640   -7.5805    0.0000 H   0  0  0  0  0  0  0  0  0  0  0  0
   -2.8830   -5.8154    0.0000 H   0  0  0  0  0  0  0  0  0  0  0  0
    0.6988   -3.2742    0.0000 H   0  0  0  0  0  0  0  0  0  0  0  0
    0.6988   -1.4172    0.0000 H   0  0  0  0  0  0  0  0  0  0  0  0
   -2.1591    1.6758    0.0000 H   0  0  0  0  0  0  0  0  0  0  0  0
   -2.1591    3.5328    0.0000 H   0  0  0  0  0  0  0  0  0  0  0  0
  1  2  1  0  0  0  0
  1 37  1  0  0  0  0
  2  3  2  0  0  0  0
  2  4  1  0  0  0  0
  4  5  2  0  0  0  0
  4 36  1  0  0  0  0
  5  6  1  0  0  0  0
  5 38  1  0  0  0  0
  6  7  2  0  0  0  0
  6 39  1  0  0  0  0
  7  8  1  0  0  0  0
  7 35  1  0  0  0  0
  8  9  1  0  0  0  0
  8 40  1  0  0  0  0
  8 41  1  0  0  0  0
  9 10  1  0  0  0  0
 10 42  1  0  0  0  0
 10 43  1  0  0  0  0
 11 10  1  0  0  0  0
 11 12  1  0  0  0  0
 11 15  1  0  0  0  0
 11 44  1  1  0  0  0
 12 45  1  0  0  0  0
 12 46  1  0  0  0  0
 13 12  1  0  0  0  0
 13  9  1  0  0  0  0
 13 14  1  0  0  0  0
 13 47  1  1  0  0  0
 14 15  1  0  0  0  0
 14 48  1  0  0  0  0
 14 49  1  0  0  0  0
 15 16  1  0  0  0  0
 16 17  1  0  0  0  0
 16 50  1  0  0  0  0
 16 51  1  0  0  0  0
 17 18  2  0  0  0  0
 17 34  1  0  0  0  0
 18 19  1  0  0  0  0
 18 52  1  0  0  0  0
 19 20  2  0  0  0  0
 19 53  1  0  0  0  0
 20 21  1  0  0  0  0
 20 33  1  0  0  0  0
 21 22  1  0  0  0  0
 22 23  2  0  0  0  0
 22 27  1  0  0  0  0
 23 24  1  0  0  0  0
 23 54  1  0  0  0  0
 24 25  2  0  0  0  0
 24 55  1  0  0  0  0
 25 26  1  0  0  0  0
 25 28  1  0  0  0  0
 26 27  2  0  0  0  0
 26 56  1  0  0  0  0
 27 57  1  0  0  0  0
 28 29  2  0  0  0  0
 28 32  1  0  0  0  0
 29 30  1  0  0  0  0
 30 31  2  0  0  0  0
 30 58  1  0  0  0  0
 31 32  1  0  0  0  0
 31 59  1  0  0  0  0
 33 34  2  0  0  0  0
 33 60  1  0  0  0  0
 34 61  1  0  0  0  0
 35 36  2  0  0  0  0
 35 62  1  0  0  0  0
 36 63  1  0  0  0  0
M  END
>  <DRUGBANK_ID>
DB15385

>  <COMMON_NAME>
Acebilustat

>  <CAS_NUMBER>
943764-99-6

>  <UNII>
J64RI4D29U

>  <SYNONYMS>
Acebilustat

$$$$
