
 OpenBabel10282417072D

 99103  0  0  1  0  0  0  0  0999 V2000
   15.4840    1.7295    0.0000 C   0  0  0  0  0  0  0  0  0  0  0  0
   16.1985    1.3170    0.0000 O   0  0  0  0  0  0  0  0  0  0  0  0
   16.9130    1.7295    0.0000 C   0  0  0  0  0  0  0  0  0  0  0  0
   17.6274    1.3170    0.0000 C   0  0  0  0  0  0  0  0  0  0  0  0
   18.3419    1.7295    0.0000 O   0  0  0  0  0  0  0  0  0  0  0  0
   19.0564    1.3170    0.0000 C   0  0  0  0  0  0  0  0  0  0  0  0
   19.7708    1.7295    0.0000 C   0  0  0  0  0  0  0  0  0  0  0  0
   20.4853    1.3170    0.0000 O   0  0  0  0  0  0  0  0  0  0  0  0
   21.1998    1.7295    0.0000 C   0  0  0  0  0  0  0  0  0  0  0  0
   21.9142    1.3170    0.0000 C   0  0  0  0  0  0  0  0  0  0  0  0
   22.6287    1.7295    0.0000 O   0  0  0  0  0  0  0  0  0  0  0  0
   23.3432    1.3170    0.0000 C   0  0  0  0  0  0  0  0  0  0  0  0
   24.0577    1.7295    0.0000 C   0  0  0  0  0  0  0  0  0  0  0  0
   24.7721    1.3170    0.0000 O   0  0  0  0  0  0  0  0  0  0  0  0
   25.4866    1.7295    0.0000 C   0  0  0  0  0  0  0  0  0  0  0  0
   26.2011    1.3170    0.0000 C   0  0  0  0  0  0  0  0  0  0  0  0
   26.9155    1.7295    0.0000 O   0  0  0  0  0  0  0  0  0  0  0  0
   27.6300    1.3170    0.0000 C   0  0  0  0  0  0  0  0  0  0  0  0
   28.3445    1.7295    0.0000 C   0  0  0  0  0  0  0  0  0  0  0  0
   29.0590    1.3170    0.0000 O   0  0  0  0  0  0  0  0  0  0  0  0
   29.7734    1.7295    0.0000 C   0  0  0  0  0  0  0  0  0  0  0  0
   30.4879    1.3170    0.0000 C   0  0  0  0  0  0  0  0  0  0  0  0
   31.2024    1.7295    0.0000 O   0  0  0  0  0  0  0  0  0  0  0  0
   31.9168    1.3170    0.0000 C   0  0  1  0  0  0  0  0  0  0  0  0
   32.6200    1.7393    0.0000 C   0  0  0  0  0  0  0  0  0  0  0  0
   33.2801    1.2795    0.0000 C   0  0  0  0  0  0  0  0  0  0  0  0
   33.2220    0.2963    0.0000 C   0  0  1  0  0  0  0  0  0  0  0  0
   33.8679   -0.4439    0.0000 C   0  0  1  0  0  0  0  0  0  0  0  0
   33.6877   -1.2424    0.0000 C   0  0  0  0  0  0  0  0  0  0  0  0
   32.8932   -1.3793    0.0000 C   0  0  0  0  0  0  0  0  0  0  0  0
   32.6381   -2.1683    0.0000 C   0  0  0  0  0  0  0  0  0  0  0  0
   31.8246   -2.3144    0.0000 C   0  0  0  0  0  0  0  0  0  0  0  0
   31.2906   -1.6696    0.0000 C   0  0  0  0  0  0  0  0  0  0  0  0
   31.5587   -0.8590    0.0000 C   0  0  0  0  0  0  0  0  0  0  0  0
   32.3699   -0.7339    0.0000 C   0  0  0  0  0  0  0  0  0  0  0  0
   32.6717    0.0934    0.0000 C   0  0  1  0  0  0  0  0  0  0  0  0
   31.9023    0.4759    0.0000 C   0  0  1  0  0  0  0  0  0  0  0  0
   31.2725   -0.0708    0.0000 O   0  0  0  0  0  0  0  0  0  0  0  0
   33.4327    0.7959    0.0000 C   0  0  0  0  0  0  0  0  0  0  0  0
   34.3303    0.7511    0.0000 C   0  0  0  0  0  0  0  0  0  0  0  0
   34.5561   -0.0341    0.0000 N   0  0  0  0  0  0  0  0  0  0  0  0
   35.3232   -0.3378    0.0000 C   0  0  0  0  0  0  0  0  0  0  0  0
   35.9697    0.1747    0.0000 C   0  0  0  0  0  0  0  0  0  0  0  0
   35.8491    0.9908    0.0000 C   0  0  0  0  0  0  0  0  0  0  0  0
   30.4799   -1.8223    0.0000 O   0  0  0  0  0  0  0  0  0  0  0  0
   34.0027    0.5630    0.0000 O   0  0  0  0  0  0  0  0  0  0  0  0
   15.4840    2.7995    0.0000 H   0  0  0  0  0  0  0  0  0  0  0  0
   14.5574    1.1945    0.0000 H   0  0  0  0  0  0  0  0  0  0  0  0
   14.5573    2.2645    0.0000 H   0  0  0  0  0  0  0  0  0  0  0  0
   16.9130    2.7995    0.0000 H   0  0  0  0  0  0  0  0  0  0  0  0
   17.8397    2.2645    0.0000 H   0  0  0  0  0  0  0  0  0  0  0  0
   17.6274    0.2470    0.0000 H   0  0  0  0  0  0  0  0  0  0  0  0
   18.5540    0.7820    0.0000 H   0  0  0  0  0  0  0  0  0  0  0  0
   19.0564    0.2470    0.0000 H   0  0  0  0  0  0  0  0  0  0  0  0
   19.9831    0.7820    0.0000 H   0  0  0  0  0  0  0  0  0  0  0  0
   19.7708    2.7995    0.0000 H   0  0  0  0  0  0  0  0  0  0  0  0
   20.6974    2.2645    0.0000 H   0  0  0  0  0  0  0  0  0  0  0  0
   21.1998    2.7995    0.0000 H   0  0  0  0  0  0  0  0  0  0  0  0
   22.1265    2.2645    0.0000 H   0  0  0  0  0  0  0  0  0  0  0  0
   21.9142    0.2470    0.0000 H   0  0  0  0  0  0  0  0  0  0  0  0
   22.8408    0.7820    0.0000 H   0  0  0  0  0  0  0  0  0  0  0  0
   23.3432    0.2470    0.0000 H   0  0  0  0  0  0  0  0  0  0  0  0
   24.2698    0.7820    0.0000 H   0  0  0  0  0  0  0  0  0  0  0  0
   24.0577    2.7995    0.0000 H   0  0  0  0  0  0  0  0  0  0  0  0
   24.9844    2.2645    0.0000 H   0  0  0  0  0  0  0  0  0  0  0  0
   25.4866    2.7995    0.0000 H   0  0  0  0  0  0  0  0  0  0  0  0
   26.4132    2.2645    0.0000 H   0  0  0  0  0  0  0  0  0  0  0  0
   26.2011    0.2470    0.0000 H   0  0  0  0  0  0  0  0  0  0  0  0
   27.1278    0.7820    0.0000 H   0  0  0  0  0  0  0  0  0  0  0  0
   27.6300    0.2470    0.0000 H   0  0  0  0  0  0  0  0  0  0  0  0
   28.5566    0.7820    0.0000 H   0  0  0  0  0  0  0  0  0  0  0  0
   28.3445    2.7995    0.0000 H   0  0  0  0  0  0  0  0  0  0  0  0
   29.2711    2.2645    0.0000 H   0  0  0  0  0  0  0  0  0  0  0  0
   29.7734    2.7995    0.0000 H   0  0  0  0  0  0  0  0  0  0  0  0
   30.7000    2.2645    0.0000 H   0  0  0  0  0  0  0  0  0  0  0  0
   30.4879    0.2470    0.0000 H   0  0  0  0  0  0  0  0  0  0  0  0
   31.4145    0.7820    0.0000 H   0  0  0  0  0  0  0  0  0  0  0  0
   31.9076    2.3870    0.0000 H   0  0  0  0  0  0  0  0  0  0  0  0
   32.6562    2.8087    0.0000 H   0  0  0  0  0  0  0  0  0  0  0  0
   33.5767    2.2184    0.0000 H   0  0  0  0  0  0  0  0  0  0  0  0
   34.2428    1.7465    0.0000 H   0  0  0  0  0  0  0  0  0  0  0  0
   34.1698    0.6850    0.0000 H   0  0  0  0  0  0  0  0  0  0  0  0
   34.0364    0.6128    0.0000 H   0  0  0  0  0  0  0  0  0  0  0  0
   34.4246   -2.0182    0.0000 H   0  0  0  0  0  0  0  0  0  0  0  0
   33.3509   -2.2580    0.0000 H   0  0  0  0  0  0  0  0  0  0  0  0
   33.3169   -2.9456    0.0000 H   0  0  0  0  0  0  0  0  0  0  0  0
   31.4700   -3.2836    0.0000 H   0  0  0  0  0  0  0  0  0  0  0  0
   32.0376   -0.5855    0.0000 H   0  0  0  0  0  0  0  0  0  0  0  0
   33.0680    1.8018    0.0000 H   0  0  0  0  0  0  0  0  0  0  0  0
   34.0686    1.6564    0.0000 H   0  0  0  0  0  0  0  0  0  0  0  0
   34.9950    1.5896    0.0000 H   0  0  0  0  0  0  0  0  0  0  0  0
   35.3800    0.5436    0.0000 H   0  0  0  0  0  0  0  0  0  0  0  0
   35.4796   -1.3963    0.0000 H   0  0  0  0  0  0  0  0  0  0  0  0
   36.3181   -0.7316    0.0000 H   0  0  0  0  0  0  0  0  0  0  0  0
   36.9293   -0.2051    0.0000 H   0  0  0  0  0  0  0  0  0  0  0  0
   36.6578    1.6319    0.0000 H   0  0  0  0  0  0  0  0  0  0  0  0
   34.8895    1.3706    0.0000 H   0  0  0  0  0  0  0  0  0  0  0  0
   29.8693   -1.1116    0.0000 H   0  0  0  0  0  0  0  0  0  0  0  0
   34.7332   -0.0752    0.0000 H   0  0  0  0  0  0  0  0  0  0  0  0
  1  2  1  0  0  0  0
  1 47  1  0  0  0  0
  1 48  1  0  0  0  0
  1 49  1  0  0  0  0
  2  3  1  0  0  0  0
  3  4  1  0  0  0  0
  3 50  1  0  0  0  0
  3 51  1  0  0  0  0
  4  5  1  0  0  0  0
  4 52  1  0  0  0  0
  4 53  1  0  0  0  0
  5  6  1  0  0  0  0
  6  7  1  0  0  0  0
  6 54  1  0  0  0  0
  6 55  1  0  0  0  0
  7  8  1  0  0  0  0
  7 56  1  0  0  0  0
  7 57  1  0  0  0  0
  8  9  1  0  0  0  0
  9 10  1  0  0  0  0
  9 58  1  0  0  0  0
  9 59  1  0  0  0  0
 10 11  1  0  0  0  0
 10 60  1  0  0  0  0
 10 61  1  0  0  0  0
 11 12  1  0  0  0  0
 12 13  1  0  0  0  0
 12 62  1  0  0  0  0
 12 63  1  0  0  0  0
 13 14  1  0  0  0  0
 13 64  1  0  0  0  0
 13 65  1  0  0  0  0
 14 15  1  0  0  0  0
 15 16  1  0  0  0  0
 15 66  1  0  0  0  0
 15 67  1  0  0  0  0
 16 17  1  0  0  0  0
 16 68  1  0  0  0  0
 16 69  1  0  0  0  0
 17 18  1  0  0  0  0
 18 19  1  0  0  0  0
 18 70  1  0  0  0  0
 18 71  1  0  0  0  0
 19 20  1  0  0  0  0
 19 72  1  0  0  0  0
 19 73  1  0  0  0  0
 20 21  1  0  0  0  0
 21 22  1  0  0  0  0
 21 74  1  0  0  0  0
 21 75  1  0  0  0  0
 22 23  1  0  0  0  0
 22 76  1  0  0  0  0
 22 77  1  0  0  0  0
 24 23  1  0  0  0  0
 24 25  1  0  0  0  0
 24 37  1  0  0  0  0
 24 78  1  6  0  0  0
 25 26  1  0  0  0  0
 25 79  1  0  0  0  0
 25 80  1  0  0  0  0
 26 27  1  0  0  0  0
 26 81  1  0  0  0  0
 26 82  1  0  0  0  0
 27 28  1  0  0  0  0
 27 36  1  0  0  0  0
 27 46  1  6  0  0  0
 28 29  1  0  0  0  0
 28 41  1  0  0  0  0
 28 83  1  1  0  0  0
 29 30  1  0  0  0  0
 29 84  1  0  0  0  0
 29 85  1  0  0  0  0
 30 31  2  0  0  0  0
 30 35  1  0  0  0  0
 31 32  1  0  0  0  0
 31 86  1  0  0  0  0
 32 33  2  0  0  0  0
 32 87  1  0  0  0  0
 33 34  1  0  0  0  0
 33 45  1  0  0  0  0
 34 35  2  0  0  0  0
 34 38  1  0  0  0  0
 36 35  1  6  0  0  0
 36 37  1  0  0  0  0
 36 39  1  0  0  0  0
 37 38  1  0  0  0  0
 37 88  1  6  0  0  0
 39 40  1  0  0  0  0
 39 89  1  0  0  0  0
 39 90  1  0  0  0  0
 40 41  1  0  0  0  0
 40 91  1  0  0  0  0
 40 92  1  0  0  0  0
 41 42  1  0  0  0  0
 42 43  1  0  0  0  0
 42 93  1  0  0  0  0
 42 94  1  0  0  0  0
 43 44  2  0  0  0  0
 43 95  1  0  0  0  0
 44 96  1  0  0  0  0
 44 97  1  0  0  0  0
 45 98  1  0  0  0  0
 46 99  1  0  0  0  0
M  END
>  <DRUGBANK_ID>
DB09049

>  <COMMON_NAME>
Naloxegol

>  <CAS_NUMBER>
854601-70-0

>  <UNII>
44T7335BKE

>  <SYNONYMS>
(5α,6α)-17-Allyl-6-[(20-hydroxy-3,6,9,12,15,18-hexaoxaicos-1-yl)oxy]-4,5-epoxymorphinan-3,14-diol; Naloxegol

$$$$
