
 OpenBabel10282417072D

 87 91  0  0  0  0  0  0  0  0999 V2000
   -5.7136    2.2391    0.0000 C   0  0  0  0  0  0  0  0  0  0  0  0
   -5.7148    1.4112    0.0000 C   0  0  0  0  0  0  0  0  0  0  0  0
   -4.9989    0.9959    0.0000 C   0  0  0  0  0  0  0  0  0  0  0  0
   -5.0007    2.6500    0.0000 C   0  0  0  0  0  0  0  0  0  0  0  0
   -4.2844    2.2427    0.0000 C   0  0  0  0  0  0  0  0  0  0  0  0
   -4.2810    1.4138    0.0000 C   0  0  0  0  0  0  0  0  0  0  0  0
   -3.5647    1.0022    0.0000 C   0  0  0  0  0  0  0  0  0  0  0  0
   -3.5715    2.6604    0.0000 C   0  0  0  0  0  0  0  0  0  0  0  0
   -2.8506    2.2485    0.0000 C   0  0  0  0  0  0  0  0  0  0  0  0
   -2.8481    1.4235    0.0000 C   0  0  0  0  0  0  0  0  0  0  0  0
   -2.1373    1.0129    0.0000 C   0  0  0  0  0  0  0  0  0  0  0  0
   -2.1461    2.6612    0.0000 C   0  0  0  0  0  0  0  0  0  0  0  0
   -3.5759    3.4858    0.0000 O   0  0  0  0  0  0  0  0  0  0  0  0
   -3.5604    0.1767    0.0000 O   0  0  0  0  0  0  0  0  0  0  0  0
   -4.9932    0.1709    0.0000 O   0  0  0  0  0  0  0  0  0  0  0  0
   -4.2775   -0.2394    0.0000 C   0  0  0  0  0  0  0  0  0  0  0  0
   -2.1522    3.4866    0.0000 O   0  0  0  0  0  0  0  0  0  0  0  0
   -2.1339    0.1874    0.0000 O   0  0  0  0  0  0  0  0  0  0  0  0
   -1.4305    2.2583    0.0000 C   0  0  0  0  0  0  0  0  0  0  0  0
   -1.4271    1.4346    0.0000 C   0  0  0  0  0  0  0  0  0  0  0  0
   -0.7152    1.0258    0.0000 C   0  0  2  0  0  0  0  0  0  0  0  0
   -0.0024    1.4406    0.0000 C   0  0  0  0  0  0  0  0  0  0  0  0
   -0.0059    2.2645    0.0000 C   0  0  1  0  0  0  0  0  0  0  0  0
   -0.7223    2.6735    0.0000 C   0  0  0  0  0  0  0  0  0  0  0  0
    0.7081    2.6775    0.0000 C   0  0  0  0  0  0  0  0  0  0  0  0
    1.4260    2.2704    0.0000 C   0  0  0  0  0  0  0  0  0  0  0  0
    0.7063    3.5043    0.0000 O   0  0  0  0  0  0  0  0  0  0  0  0
    2.1393    2.6850    0.0000 O   0  0  0  0  0  0  0  0  0  0  0  0
    2.8528    2.2779    0.0000 C   0  0  0  0  0  0  0  0  0  0  0  0
    0.7054    1.8532    0.0000 O   0  0  0  0  0  0  0  0  0  0  0  0
   -0.7129    0.2003    0.0000 O   0  0  0  0  0  0  0  0  0  0  0  0
   -0.0038    0.6170    0.0000 H   0  0  0  0  0  0  0  0  0  0  0  0
    2.8571    1.4525    0.0000 O   0  0  0  0  0  0  0  0  0  0  0  0
    3.5661    2.6925    0.0000 C   0  0  0  0  0  0  0  0  0  0  0  0
    4.2838    2.2857    0.0000 C   0  0  0  0  0  0  0  0  0  0  0  0
    4.9970    2.7002    0.0000 C   0  0  0  0  0  0  0  0  0  0  0  0
    5.7148    2.2933    0.0000 C   0  0  0  0  0  0  0  0  0  0  0  0
    0.0037   -0.2082    0.0000 C   0  0  1  0  0  0  0  0  0  0  0  0
    0.0003   -1.0305    0.0000 C   0  0  0  0  0  0  0  0  0  0  0  0
    0.7129   -1.4431    0.0000 C   0  0  1  0  0  0  0  0  0  0  0  0
    1.4297   -1.0296    0.0000 C   0  0  1  0  0  0  0  0  0  0  0  0
    1.4293   -0.2032    0.0000 C   0  0  1  0  0  0  0  0  0  0  0  0
    0.7121    0.2098    0.0000 O   0  0  0  0  0  0  0  0  0  0  0  0
    2.1449    0.2070    0.0000 C   0  0  0  0  0  0  0  0  0  0  0  0
    2.1448   -1.4451    0.0000 O   0  0  0  0  0  0  0  0  0  0  0  0
    0.7122   -2.2688    0.0000 N   0  0  0  0  0  0  0  0  0  0  0  0
   -0.0035   -2.6788    0.0000 C   0  0  0  0  0  0  0  0  0  0  0  0
   -0.7186   -2.2675    0.0000 C   0  0  0  0  0  0  0  0  0  0  0  0
   -0.0042   -3.5043    0.0000 O   0  0  0  0  0  0  0  0  0  0  0  0
   -0.7179   -1.4420    0.0000 F   0  0  0  0  0  0  0  0  0  0  0  0
   -1.4345   -2.6776    0.0000 F   0  0  0  0  0  0  0  0  0  0  0  0
   -1.4392   -1.8513    0.0000 F   0  0  0  0  0  0  0  0  0  0  0  0
   -6.6068    2.7561    0.0000 H   0  0  0  0  0  0  0  0  0  0  0  0
   -6.6094    0.8968    0.0000 H   0  0  0  0  0  0  0  0  0  0  0  0
   -5.0037    3.6820    0.0000 H   0  0  0  0  0  0  0  0  0  0  0  0
   -4.2742   -1.3094    0.0000 H   0  0  0  0  0  0  0  0  0  0  0  0
   -3.3525    0.2984    0.0000 H   0  0  0  0  0  0  0  0  0  0  0  0
   -3.3492   -0.7716    0.0000 H   0  0  0  0  0  0  0  0  0  0  0  0
   -1.3442    3.9611    0.0000 H   0  0  0  0  0  0  0  0  0  0  0  0
   -2.9434   -0.2844    0.0000 H   0  0  0  0  0  0  0  0  0  0  0  0
    0.9263    0.9092    0.0000 H   0  0  0  0  0  0  0  0  0  0  0  0
    0.9221    1.9793    0.0000 H   0  0  0  0  0  0  0  0  0  0  0  0
   -0.7285    3.7435    0.0000 H   0  0  0  0  0  0  0  0  0  0  0  0
    0.2015    3.2134    0.0000 H   0  0  0  0  0  0  0  0  0  0  0  0
    1.4317    1.2004    0.0000 H   0  0  0  0  0  0  0  0  0  0  0  0
    2.3548    1.7392    0.0000 H   0  0  0  0  0  0  0  0  0  0  0  0
    0.7048    0.8832    0.0000 H   0  0  0  0  0  0  0  0  0  0  0  0
    3.5603    3.7625    0.0000 H   0  0  0  0  0  0  0  0  0  0  0  0
    4.4892    3.2337    0.0000 H   0  0  0  0  0  0  0  0  0  0  0  0
    4.2896    1.2157    0.0000 H   0  0  0  0  0  0  0  0  0  0  0  0
    5.2127    1.7545    0.0000 H   0  0  0  0  0  0  0  0  0  0  0  0
    4.9912    3.7702    0.0000 H   0  0  0  0  0  0  0  0  0  0  0  0
    5.9201    3.2413    0.0000 H   0  0  0  0  0  0  0  0  0  0  0  0
    5.7232    1.2233    0.0000 H   0  0  0  0  0  0  0  0  0  0  0  0
    6.6372    2.8356    0.0000 H   0  0  0  0  0  0  0  0  0  0  0  0
    6.6456    1.7656    0.0000 H   0  0  0  0  0  0  0  0  0  0  0  0
   -0.9226   -0.7438    0.0000 H   0  0  0  0  0  0  0  0  0  0  0  0
   -0.9278   -1.5630    0.0000 H   0  0  0  0  0  0  0  0  0  0  0  0
   -0.0018   -2.1005    0.0000 H   0  0  0  0  0  0  0  0  0  0  0  0
   -0.2143   -1.9771    0.0000 H   0  0  0  0  0  0  0  0  0  0  0  0
    1.4280   -2.0996    0.0000 H   0  0  0  0  0  0  0  0  0  0  0  0
    2.3552   -0.7394    0.0000 H   0  0  0  0  0  0  0  0  0  0  0  0
    3.0699   -0.3309    0.0000 H   0  0  0  0  0  0  0  0  0  0  0  0
    2.1482    1.2770    0.0000 H   0  0  0  0  0  0  0  0  0  0  0  0
    3.0732    0.7391    0.0000 H   0  0  0  0  0  0  0  0  0  0  0  0
    2.1421   -2.4151    0.0000 H   0  0  0  0  0  0  0  0  0  0  0  0
    1.5638   -2.7628    0.0000 H   0  0  0  0  0  0  0  0  0  0  0  0
  1  2  2  0  0  0  0
  1 53  1  0  0  0  0
  2  3  1  0  0  0  0
  2 54  1  0  0  0  0
  3  6  2  0  0  0  0
  3 15  1  0  0  0  0
  4  1  1  0  0  0  0
  4 55  1  0  0  0  0
  5  8  1  0  0  0  0
  5  4  2  0  0  0  0
  5  6  1  0  0  0  0
  6  7  1  0  0  0  0
  7 14  2  0  0  0  0
  7 10  1  0  0  0  0
  8 13  2  0  0  0  0
  9  8  1  0  0  0  0
  9 10  2  0  0  0  0
 10 11  1  0  0  0  0
 11 20  2  0  0  0  0
 11 18  1  0  0  0  0
 12  9  1  0  0  0  0
 12 17  1  0  0  0  0
 15 16  1  0  0  0  0
 16 56  1  0  0  0  0
 16 57  1  0  0  0  0
 16 58  1  0  0  0  0
 17 59  1  0  0  0  0
 18 60  1  0  0  0  0
 19 12  2  0  0  0  0
 19 20  1  0  0  0  0
 19 24  1  0  0  0  0
 20 21  1  0  0  0  0
 21 31  1  0  0  0  0
 21 32  1  1  0  0  0
 21 22  1  0  0  0  0
 22 23  1  0  0  0  0
 22 61  1  0  0  0  0
 22 62  1  0  0  0  0
 23 25  1  1  0  0  0
 23 30  1  0  0  0  0
 23 24  1  0  0  0  0
 24 63  1  0  0  0  0
 24 64  1  0  0  0  0
 25 26  1  0  0  0  0
 25 27  2  0  0  0  0
 26 28  1  0  0  0  0
 26 65  1  0  0  0  0
 26 66  1  0  0  0  0
 28 29  1  0  0  0  0
 29 33  2  0  0  0  0
 29 34  1  0  0  0  0
 30 67  1  0  0  0  0
 34 35  1  0  0  0  0
 34 68  1  0  0  0  0
 34 69  1  0  0  0  0
 35 36  1  0  0  0  0
 35 70  1  0  0  0  0
 35 71  1  0  0  0  0
 36 37  1  0  0  0  0
 36 72  1  0  0  0  0
 36 73  1  0  0  0  0
 37 74  1  0  0  0  0
 37 75  1  0  0  0  0
 37 76  1  0  0  0  0
 38 31  1  0  0  0  0
 38 39  1  0  0  0  0
 38 43  1  0  0  0  0
 38 77  1  1  0  0  0
 39 40  1  0  0  0  0
 39 78  1  0  0  0  0
 39 79  1  0  0  0  0
 40 41  1  0  0  0  0
 40 46  1  0  0  0  0
 40 80  1  6  0  0  0
 41 42  1  0  0  0  0
 41 45  1  0  0  0  0
 41 81  1  6  0  0  0
 42 43  1  0  0  0  0
 42 44  1  0  0  0  0
 42 82  1  6  0  0  0
 44 83  1  0  0  0  0
 44 84  1  0  0  0  0
 44 85  1  0  0  0  0
 45 86  1  0  0  0  0
 46 47  1  0  0  0  0
 46 87  1  0  0  0  0
 47 48  1  0  0  0  0
 47 49  2  0  0  0  0
 48 50  1  0  0  0  0
 48 51  1  0  0  0  0
 48 52  1  0  0  0  0
M  END
>  <DRUGBANK_ID>
DB00385

>  <SECONDARY_ACCESSION_NUMBERS>
APRD00662

>  <COMMON_NAME>
Valrubicin

>  <CAS_NUMBER>
56124-62-0

>  <UNII>
2C6NUM6878

>  <SYNONYMS>
(8S, 10S)-8-glycoloyl-7,8,9,10-tetrahydro-6,8,11-trihydroxy-1-methoxy-10-[[2,3,6-trideoxy-3-(2,2,2-trifluoroacetamido)-α-L-lyxo-hexopyranosyl]oxy]-5,12-naphthacenedione 8²-valerate; 2-oxo-2-[(2S,4S)-2,5,12-trihydroxy-7-methoxy-6,11-dioxo-4-({2,3,6-trideoxy-3-[(trifluoroacetyl)amino]hexopyranosyl}oxy)-1,2,3,4,6,11-hexahydrotetracen-2-yl]ethyl pentanoate; Valrubicin; Valrubicina; Valrubicine; Valrubicinum

$$$$
