N69
 OpenBabel10282417072D

 44 46  0  0  0  0  0  0  0  0999 V2000
    2.0302    2.5315    0.0000 N   0  0  0  0  0  0  0  0  0  0  0  0
    1.3157    2.1190    0.0000 C   0  0  0  0  0  0  0  0  0  0  0  0
    1.3157    1.2940    0.0000 N   0  0  0  0  0  0  0  0  0  0  0  0
    0.6013    2.5315    0.0000 N   0  0  0  0  0  0  0  0  0  0  0  0
   -0.1132    2.1190    0.0000 C   0  0  0  0  0  0  0  0  0  0  0  0
   -0.8978    2.3739    0.0000 N   0  0  0  0  0  0  0  0  0  0  0  0
   -1.3828    1.7065    0.0000 C   0  0  0  0  0  0  0  0  0  0  0  0
   -2.2078    1.7065    0.0000 C   0  0  0  0  0  0  0  0  0  0  0  0
   -2.6203    2.4209    0.0000 C   0  0  0  0  0  0  0  0  0  0  0  0
   -2.6203    0.9920    0.0000 C   0  0  0  0  0  0  0  0  0  0  0  0
   -0.1132    1.2940    0.0000 C   0  0  0  0  0  0  0  0  0  0  0  0
   -0.8978    1.0390    0.0000 N   0  0  0  0  0  0  0  0  0  0  0  0
    0.6013    0.8815    0.0000 C   0  0  0  0  0  0  0  0  0  0  0  0
    0.6013    0.0565    0.0000 O   0  0  0  0  0  0  0  0  0  0  0  0
    1.3157   -0.3560    0.0000 C   0  0  0  0  0  0  0  0  0  0  0  0
    1.3157   -1.1810    0.0000 C   0  0  0  0  0  0  0  0  0  0  0  0
    2.0302   -1.5935    0.0000 C   0  0  0  0  0  0  0  0  0  0  0  0
    2.0302   -2.4185    0.0000 C   0  0  0  0  0  0  0  0  0  0  0  0
    1.3157   -2.8310    0.0000 C   0  0  0  0  0  0  0  0  0  0  0  0
    0.6013   -2.4185    0.0000 C   0  0  0  0  0  0  0  0  0  0  0  0
    0.6013   -1.5935    0.0000 C   0  0  0  0  0  0  0  0  0  0  0  0
    2.8828    2.0392    0.0000 H   0  0  0  0  0  0  0  0  0  0  0  0
    2.0302    3.5160    0.0000 H   0  0  0  0  0  0  0  0  0  0  0  0
   -1.2020    3.3102    0.0000 H   0  0  0  0  0  0  0  0  0  0  0  0
   -3.2778    1.7065    0.0000 H   0  0  0  0  0  0  0  0  0  0  0  0
   -2.0853    3.3476    0.0000 H   0  0  0  0  0  0  0  0  0  0  0  0
   -3.6903    2.4209    0.0000 H   0  0  0  0  0  0  0  0  0  0  0  0
   -3.1553    3.3475    0.0000 H   0  0  0  0  0  0  0  0  0  0  0  0
   -3.6903    0.9920    0.0000 H   0  0  0  0  0  0  0  0  0  0  0  0
   -2.0853    0.0654    0.0000 H   0  0  0  0  0  0  0  0  0  0  0  0
   -3.1553    0.0653    0.0000 H   0  0  0  0  0  0  0  0  0  0  0  0
    2.2424    0.1790    0.0000 H   0  0  0  0  0  0  0  0  0  0  0  0
    2.2423   -0.8910    0.0000 H   0  0  0  0  0  0  0  0  0  0  0  0
    1.3157   -2.2510    0.0000 H   0  0  0  0  0  0  0  0  0  0  0  0
    2.9568   -1.0585    0.0000 H   0  0  0  0  0  0  0  0  0  0  0  0
    2.9568   -2.1285    0.0000 H   0  0  0  0  0  0  0  0  0  0  0  0
    2.9568   -2.9535    0.0000 H   0  0  0  0  0  0  0  0  0  0  0  0
    2.0302   -3.4885    0.0000 H   0  0  0  0  0  0  0  0  0  0  0  0
    1.3157   -3.9010    0.0000 H   0  0  0  0  0  0  0  0  0  0  0  0
    0.3890   -3.3660    0.0000 H   0  0  0  0  0  0  0  0  0  0  0  0
   -0.3254   -2.9535    0.0000 H   0  0  0  0  0  0  0  0  0  0  0  0
   -0.3253   -1.8835    0.0000 H   0  0  0  0  0  0  0  0  0  0  0  0
   -0.3254   -1.0585    0.0000 H   0  0  0  0  0  0  0  0  0  0  0  0
   -0.3253   -2.1285    0.0000 H   0  0  0  0  0  0  0  0  0  0  0  0
  1  2  1  0  0  0  0
  1 22  1  0  0  0  0
  1 23  1  0  0  0  0
  2  3  2  0  0  0  0
  2  4  1  0  0  0  0
  3 13  1  0  0  0  0
  4  5  2  0  0  0  0
  5  6  1  0  0  0  0
  5 11  1  0  0  0  0
  6  7  1  0  0  0  0
  6 24  1  0  0  0  0
  7  8  1  0  0  0  0
  7 12  2  0  0  0  0
  8  9  1  0  0  0  0
  8 10  1  0  0  0  0
  8 25  1  0  0  0  0
  9 26  1  0  0  0  0
  9 27  1  0  0  0  0
  9 28  1  0  0  0  0
 10 29  1  0  0  0  0
 10 30  1  0  0  0  0
 10 31  1  0  0  0  0
 11 12  1  0  0  0  0
 11 13  2  0  0  0  0
 13 14  1  0  0  0  0
 14 15  1  0  0  0  0
 15 16  1  0  0  0  0
 15 32  1  0  0  0  0
 15 33  1  0  0  0  0
 16 17  1  0  0  0  0
 16 21  1  0  0  0  0
 16 34  1  0  0  0  0
 17 18  1  0  0  0  0
 17 35  1  0  0  0  0
 17 36  1  0  0  0  0
 18 19  1  0  0  0  0
 18 37  1  0  0  0  0
 18 38  1  0  0  0  0
 19 20  1  0  0  0  0
 19 39  1  0  0  0  0
 19 40  1  0  0  0  0
 20 21  1  0  0  0  0
 20 41  1  0  0  0  0
 20 42  1  0  0  0  0
 21 43  1  0  0  0  0
 21 44  1  0  0  0  0
M  END
>  <DRUGBANK_ID>
DB08247

>  <COMMON_NAME>
6-(CYCLOHEXYLMETHOXY)-8-ISOPROPYL-9H-PURIN-2-AMINE

$$$$
