TBL
 OpenBabel10282417072D

 30 30  0  0  0  0  0  0  0  0999 V2000
   -0.2088   -0.9116    0.0000 O   0  0  0  0  0  0  0  0  0  0  0  0
    0.2037   -0.1972    0.0000 S   0  0  0  0  0  0  0  0  0  0  0  0
    0.6162    0.5173    0.0000 O   0  0  0  0  0  0  0  0  0  0  0  0
    0.9181   -0.6097    0.0000 N   0  0  0  0  0  0  0  0  0  0  0  0
    1.6326   -0.1972    0.0000 C   0  0  2  0  0  0  0  0  0  0  0  0
    1.6326    0.6278    0.0000 C   0  0  0  0  0  0  0  0  0  0  0  0
    2.3471   -0.6097    0.0000 C   0  0  0  0  0  0  0  0  0  0  0  0
    3.0616   -0.1972    0.0000 O   0  0  0  0  0  0  0  0  0  0  0  0
    2.3471   -1.4347    0.0000 O   0  0  0  0  0  0  0  0  0  0  0  0
   -0.5108    0.2153    0.0000 C   0  0  0  0  0  0  0  0  0  0  0  0
   -1.2253   -0.1972    0.0000 C   0  0  0  0  0  0  0  0  0  0  0  0
   -1.9397    0.2153    0.0000 C   0  0  0  0  0  0  0  0  0  0  0  0
   -1.9397    1.0403    0.0000 C   0  0  0  0  0  0  0  0  0  0  0  0
   -1.2253    1.4528    0.0000 C   0  0  0  0  0  0  0  0  0  0  0  0
   -0.5108    1.0403    0.0000 C   0  0  0  0  0  0  0  0  0  0  0  0
   -2.6542    1.4528    0.0000 O   0  0  0  0  0  0  0  0  0  0  0  0
   -3.3687    1.0403    0.0000 C   0  0  0  0  0  0  0  0  0  0  0  0
    1.1269    0.0948    0.0000 H   0  0  0  0  0  0  0  0  0  0  0  0
    0.9181   -1.6297    0.0000 H   0  0  0  0  0  0  0  0  0  0  0  0
    2.5592    1.1628    0.0000 H   0  0  0  0  0  0  0  0  0  0  0  0
    0.7060    1.1628    0.0000 H   0  0  0  0  0  0  0  0  0  0  0  0
    1.6326    1.6978    0.0000 H   0  0  0  0  0  0  0  0  0  0  0  0
    1.5356   -1.9032    0.0000 H   0  0  0  0  0  0  0  0  0  0  0  0
   -1.2253   -1.2292    0.0000 H   0  0  0  0  0  0  0  0  0  0  0  0
   -2.8334   -0.3007    0.0000 H   0  0  0  0  0  0  0  0  0  0  0  0
   -1.2253    2.4848    0.0000 H   0  0  0  0  0  0  0  0  0  0  0  0
    0.3829    1.5563    0.0000 H   0  0  0  0  0  0  0  0  0  0  0  0
   -4.2953    1.5753    0.0000 H   0  0  0  0  0  0  0  0  0  0  0  0
   -3.3687   -0.0297    0.0000 H   0  0  0  0  0  0  0  0  0  0  0  0
   -4.2954    0.5053    0.0000 H   0  0  0  0  0  0  0  0  0  0  0  0
  2  1  2  0  0  0  0
  2  4  1  0  0  0  0
  3  2  2  0  0  0  0
  4 19  1  0  0  0  0
  5  4  1  0  0  0  0
  5  6  1  0  0  0  0
  5 18  1  1  0  0  0
  6 20  1  0  0  0  0
  6 21  1  0  0  0  0
  6 22  1  0  0  0  0
  7  5  1  0  0  0  0
  7  9  1  0  0  0  0
  8  7  2  0  0  0  0
  9 23  1  0  0  0  0
 10  2  1  0  0  0  0
 10 11  1  0  0  0  0
 11 24  1  0  0  0  0
 12 11  2  0  0  0  0
 12 25  1  0  0  0  0
 13 12  1  0  0  0  0
 14 13  2  0  0  0  0
 14 15  1  0  0  0  0
 14 26  1  0  0  0  0
 15 10  2  0  0  0  0
 15 27  1  0  0  0  0
 16 13  1  0  0  0  0
 17 16  1  0  0  0  0
 17 28  1  0  0  0  0
 17 29  1  0  0  0  0
 17 30  1  0  0  0  0
M  END
>  <DRUGBANK_ID>
DB08599

>  <COMMON_NAME>
N-[(4-methoxyphenyl)sulfonyl]-D-alanine

$$$$
