8NH
 OpenBabel10282417072D

 33 35  0  0  0  0  0  0  0  0999 V2000
   -0.6015   -0.0534    0.0000 Cl  0  0  0  0  0  0  0  0  0  0  0  0
   -0.1890    0.6611    0.0000 C   0  0  0  0  0  0  0  0  0  0  0  0
    0.6360    0.6611    0.0000 C   0  0  0  0  0  0  0  0  0  0  0  0
    1.0485    1.3756    0.0000 C   0  0  0  0  0  0  0  0  0  0  0  0
    0.6360    2.0900    0.0000 C   0  0  0  0  0  0  0  0  0  0  0  0
   -0.1890    2.0900    0.0000 C   0  0  0  0  0  0  0  0  0  0  0  0
   -0.6015    1.3756    0.0000 C   0  0  0  0  0  0  0  0  0  0  0  0
   -1.4265    1.3756    0.0000 C   0  0  0  0  0  0  0  0  0  0  0  0
   -2.2515    1.3756    0.0000 N   0  0  0  0  0  0  0  0  0  0  0  0
    1.8735    1.3756    0.0000 N   0  0  0  0  0  0  0  0  0  0  0  0
    2.3584    2.0430    0.0000 C   0  0  0  0  0  0  0  0  0  0  0  0
    3.1431    1.7881    0.0000 N   0  0  0  0  0  0  0  0  0  0  0  0
    3.1431    0.9631    0.0000 C   0  0  1  0  0  0  0  0  0  0  0  0
    3.9277    0.7081    0.0000 C   0  0  1  0  0  0  0  0  0  0  0  0
    4.4126    1.3756    0.0000 C   0  0  0  0  0  0  0  0  0  0  0  0
    3.9277    2.0430    0.0000 C   0  0  0  0  0  0  0  0  0  0  0  0
    4.1826   -0.0765    0.0000 O   0  0  0  0  0  0  0  0  0  0  0  0
    2.3584    0.7081    0.0000 C   0  0  0  0  0  0  0  0  0  0  0  0
    2.1035   -0.0765    0.0000 O   0  0  0  0  0  0  0  0  0  0  0  0
    2.1035    2.8276    0.0000 O   0  0  0  0  0  0  0  0  0  0  0  0
    1.0485   -0.0534    0.0000 C   0  0  0  0  0  0  0  0  0  0  0  0
    3.1431    0.3791    0.0000 H   0  0  0  0  0  0  0  0  0  0  0  0
    3.5148    0.2952    0.0000 H   0  0  0  0  0  0  0  0  0  0  0  0
    1.1520    2.9837    0.0000 H   0  0  0  0  0  0  0  0  0  0  0  0
   -0.7050    2.9837    0.0000 H   0  0  0  0  0  0  0  0  0  0  0  0
    5.4826    1.3756    0.0000 H   0  0  0  0  0  0  0  0  0  0  0  0
    4.8984    2.3290    0.0000 H   0  0  0  0  0  0  0  0  0  0  0  0
    4.2584    3.0606    0.0000 H   0  0  0  0  0  0  0  0  0  0  0  0
    4.9845    2.2104    0.0000 H   0  0  0  0  0  0  0  0  0  0  0  0
    3.5335   -0.7973    0.0000 H   0  0  0  0  0  0  0  0  0  0  0  0
    0.5135   -0.9800    0.0000 H   0  0  0  0  0  0  0  0  0  0  0  0
    2.1185   -0.0534    0.0000 H   0  0  0  0  0  0  0  0  0  0  0  0
    1.5835   -0.9801    0.0000 H   0  0  0  0  0  0  0  0  0  0  0  0
  1  2  1  0  0  0  0
  2  7  2  0  0  0  0
  2  3  1  0  0  0  0
  3  4  2  0  0  0  0
  3 21  1  0  0  0  0
  4  5  1  0  0  0  0
  4 10  1  0  0  0  0
  5  6  2  0  0  0  0
  5 24  1  0  0  0  0
  6  7  1  0  0  0  0
  6 25  1  0  0  0  0
  7  8  1  0  0  0  0
  8  9  3  0  0  0  0
 10 11  1  0  0  0  0
 10 18  1  0  0  0  0
 11 20  2  0  0  0  0
 11 12  1  0  0  0  0
 12 16  1  0  0  0  0
 12 13  1  0  0  0  0
 13 14  1  0  0  0  0
 13 18  1  0  0  0  0
 13 22  1  6  0  0  0
 14 15  1  0  0  0  0
 14 17  1  0  0  0  0
 14 23  1  6  0  0  0
 15 16  1  0  0  0  0
 15 26  1  0  0  0  0
 15 27  1  0  0  0  0
 16 28  1  0  0  0  0
 16 29  1  0  0  0  0
 17 30  1  0  0  0  0
 18 19  2  0  0  0  0
 21 31  1  0  0  0  0
 21 32  1  0  0  0  0
 21 33  1  0  0  0  0
M  END
>  <DRUGBANK_ID>
DB07286

>  <COMMON_NAME>
BMS-564929

>  <CAS_NUMBER>
627530-84-1

>  <UNII>
9BLW27W4X7

$$$$
