
 OpenBabel10282417072D

 67 70  0  0  0  0  0  0  0  0999 V2000
   -5.6091   -3.3616    0.0000 C   0  0  0  0  0  0  0  0  0  0  0  0
   -4.8946   -2.9491    0.0000 C   0  0  0  0  0  0  0  0  0  0  0  0
   -4.4821   -3.6636    0.0000 C   0  0  0  0  0  0  0  0  0  0  0  0
   -5.3071   -2.2346    0.0000 C   0  0  0  0  0  0  0  0  0  0  0  0
   -4.1801   -2.5366    0.0000 C   0  0  0  0  0  0  0  0  0  0  0  0
   -4.1801   -1.7116    0.0000 C   0  0  0  0  0  0  0  0  0  0  0  0
   -3.4656   -1.2991    0.0000 C   0  0  0  0  0  0  0  0  0  0  0  0
   -2.7512   -1.7116    0.0000 C   0  0  0  0  0  0  0  0  0  0  0  0
   -2.7512   -2.5366    0.0000 C   0  0  0  0  0  0  0  0  0  0  0  0
   -3.4656   -2.9491    0.0000 C   0  0  0  0  0  0  0  0  0  0  0  0
   -3.4656   -3.7741    0.0000 N   0  0  0  0  0  0  0  0  0  0  0  0
   -2.7982   -4.2590    0.0000 C   0  0  0  0  0  0  0  0  0  0  0  0
   -3.0531   -5.0437    0.0000 C   0  0  0  0  0  0  0  0  0  0  0  0
   -3.8781   -5.0437    0.0000 C   0  0  0  0  0  0  0  0  0  0  0  0
   -4.1331   -4.2590    0.0000 C   0  0  0  0  0  0  0  0  0  0  0  0
   -3.4656   -0.4741    0.0000 C   0  0  0  0  0  0  0  0  0  0  0  0
   -4.1801   -0.0616    0.0000 C   0  0  0  0  0  0  0  0  0  0  0  0
   -4.1801    0.7634    0.0000 C   0  0  0  0  0  0  0  0  0  0  0  0
   -3.4656    1.1759    0.0000 C   0  0  0  0  0  0  0  0  0  0  0  0
   -2.7512    0.7634    0.0000 C   0  0  0  0  0  0  0  0  0  0  0  0
   -2.7512   -0.0616    0.0000 C   0  0  0  0  0  0  0  0  0  0  0  0
   -2.0367   -0.4741    0.0000 O   0  0  0  0  0  0  0  0  0  0  0  0
   -2.0367   -1.2991    0.0000 C   0  0  0  0  0  0  0  0  0  0  0  0
   -1.3222   -1.7116    0.0000 C   0  0  0  0  0  0  0  0  0  0  0  0
   -1.3222   -2.5366    0.0000 O   0  0  0  0  0  0  0  0  0  0  0  0
   -4.8946    1.1759    0.0000 C   0  0  0  0  0  0  0  0  0  0  0  0
   -5.6091    0.7634    0.0000 C   0  0  0  0  0  0  0  0  0  0  0  0
   -6.3235    1.1759    0.0000 C   0  0  0  0  0  0  0  0  0  0  0  0
   -6.3235    2.0009    0.0000 C   0  0  0  0  0  0  0  0  0  0  0  0
   -5.6091    2.4134    0.0000 C   0  0  0  0  0  0  0  0  0  0  0  0
   -4.8946    2.0009    0.0000 C   0  0  0  0  0  0  0  0  0  0  0  0
   -7.0380    2.4134    0.0000 C   0  0  0  0  0  0  0  0  0  0  0  0
   -7.7525    2.0009    0.0000 O   0  0  0  0  0  0  0  0  0  0  0  0
   -7.0380    3.2384    0.0000 O   0  0  0  0  0  0  0  0  0  0  0  0
   -6.5357   -2.8266    0.0000 H   0  0  0  0  0  0  0  0  0  0  0  0
   -5.6091   -4.4316    0.0000 H   0  0  0  0  0  0  0  0  0  0  0  0
   -6.5358   -3.8966    0.0000 H   0  0  0  0  0  0  0  0  0  0  0  0
   -5.0171   -4.5902    0.0000 H   0  0  0  0  0  0  0  0  0  0  0  0
   -3.4121   -3.6636    0.0000 H   0  0  0  0  0  0  0  0  0  0  0  0
   -3.9471   -4.5903    0.0000 H   0  0  0  0  0  0  0  0  0  0  0  0
   -4.7721   -1.3080    0.0000 H   0  0  0  0  0  0  0  0  0  0  0  0
   -6.3771   -2.2346    0.0000 H   0  0  0  0  0  0  0  0  0  0  0  0
   -5.8421   -1.3079    0.0000 H   0  0  0  0  0  0  0  0  0  0  0  0
   -5.0738   -1.1956    0.0000 H   0  0  0  0  0  0  0  0  0  0  0  0
   -1.8575   -1.1956    0.0000 H   0  0  0  0  0  0  0  0  0  0  0  0
   -1.8575   -3.0526    0.0000 H   0  0  0  0  0  0  0  0  0  0  0  0
   -1.7806   -3.9283    0.0000 H   0  0  0  0  0  0  0  0  0  0  0  0
   -2.0416   -5.0156    0.0000 H   0  0  0  0  0  0  0  0  0  0  0  0
   -2.4241   -5.9093    0.0000 H   0  0  0  0  0  0  0  0  0  0  0  0
   -3.5389   -5.9971    0.0000 H   0  0  0  0  0  0  0  0  0  0  0  0
   -4.5070   -5.9094    0.0000 H   0  0  0  0  0  0  0  0  0  0  0  0
   -4.9349   -4.8763    0.0000 H   0  0  0  0  0  0  0  0  0  0  0  0
   -5.1507   -3.9283    0.0000 H   0  0  0  0  0  0  0  0  0  0  0  0
   -4.3004   -3.2022    0.0000 H   0  0  0  0  0  0  0  0  0  0  0  0
   -5.0738   -0.5776    0.0000 H   0  0  0  0  0  0  0  0  0  0  0  0
   -3.4656    2.2079    0.0000 H   0  0  0  0  0  0  0  0  0  0  0  0
   -1.8575    1.2794    0.0000 H   0  0  0  0  0  0  0  0  0  0  0  0
   -2.9633   -1.8341    0.0000 H   0  0  0  0  0  0  0  0  0  0  0  0
   -2.0367   -2.3691    0.0000 H   0  0  0  0  0  0  0  0  0  0  0  0
   -0.3956   -1.1766    0.0000 H   0  0  0  0  0  0  0  0  0  0  0  0
   -0.3956   -2.2466    0.0000 H   0  0  0  0  0  0  0  0  0  0  0  0
   -2.1622   -3.0216    0.0000 H   0  0  0  0  0  0  0  0  0  0  0  0
   -5.6091   -0.2686    0.0000 H   0  0  0  0  0  0  0  0  0  0  0  0
   -7.2172    0.6599    0.0000 H   0  0  0  0  0  0  0  0  0  0  0  0
   -5.6091    3.4454    0.0000 H   0  0  0  0  0  0  0  0  0  0  0  0
   -4.0009    2.5169    0.0000 H   0  0  0  0  0  0  0  0  0  0  0  0
   -6.2265    3.7069    0.0000 H   0  0  0  0  0  0  0  0  0  0  0  0
  1  2  1  0  0  0  0
  1 35  1  0  0  0  0
  1 36  1  0  0  0  0
  1 37  1  0  0  0  0
  2  3  1  0  0  0  0
  2  4  1  0  0  0  0
  2  5  1  0  0  0  0
  3 38  1  0  0  0  0
  3 39  1  0  0  0  0
  3 40  1  0  0  0  0
  4 41  1  0  0  0  0
  4 42  1  0  0  0  0
  4 43  1  0  0  0  0
  5  6  2  0  0  0  0
  5 10  1  0  0  0  0
  6  7  1  0  0  0  0
  6 44  1  0  0  0  0
  7  8  2  0  0  0  0
  7 16  1  0  0  0  0
  8  9  1  0  0  0  0
  8 45  1  0  0  0  0
  9 10  2  0  0  0  0
  9 46  1  0  0  0  0
 10 11  1  0  0  0  0
 11 12  1  0  0  0  0
 11 15  1  0  0  0  0
 12 13  1  0  0  0  0
 12 47  1  0  0  0  0
 12 48  1  0  0  0  0
 13 14  1  0  0  0  0
 13 49  1  0  0  0  0
 13 50  1  0  0  0  0
 14 15  1  0  0  0  0
 14 51  1  0  0  0  0
 14 52  1  0  0  0  0
 15 53  1  0  0  0  0
 15 54  1  0  0  0  0
 16 17  2  0  0  0  0
 16 21  1  0  0  0  0
 17 18  1  0  0  0  0
 17 55  1  0  0  0  0
 18 19  2  0  0  0  0
 18 26  1  0  0  0  0
 19 20  1  0  0  0  0
 19 56  1  0  0  0  0
 20 21  2  0  0  0  0
 20 57  1  0  0  0  0
 21 22  1  0  0  0  0
 22 23  1  0  0  0  0
 23 24  1  0  0  0  0
 23 58  1  0  0  0  0
 23 59  1  0  0  0  0
 24 25  1  0  0  0  0
 24 60  1  0  0  0  0
 24 61  1  0  0  0  0
 25 62  1  0  0  0  0
 26 27  2  0  0  0  0
 26 31  1  0  0  0  0
 27 28  1  0  0  0  0
 27 63  1  0  0  0  0
 28 29  2  0  0  0  0
 28 64  1  0  0  0  0
 29 30  1  0  0  0  0
 29 32  1  0  0  0  0
 30 31  2  0  0  0  0
 30 65  1  0  0  0  0
 31 66  1  0  0  0  0
 32 33  2  0  0  0  0
 32 34  1  0  0  0  0
 34 67  1  0  0  0  0
M  END
>  <DRUGBANK_ID>
DB12808

>  <COMMON_NAME>
Trifarotene

>  <CAS_NUMBER>
895542-09-3

>  <UNII>
0J8RN2W0HK

>  <SYNONYMS>
Trifarotene

$$$$
