EBP
 OpenBabel10282417072D

 35 35  0  0  0  0  0  0  0  0999 V2000
    0.3294   -1.0026    0.0000 C   0  0  0  0  0  0  0  0  0  0  0  0
    0.9127   -1.5860    0.0000 C   0  0  0  0  0  0  0  0  0  0  0  0
    0.6992   -2.3829    0.0000 C   0  0  0  0  0  0  0  0  0  0  0  0
   -0.0977   -2.5964    0.0000 C   0  0  0  0  0  0  0  0  0  0  0  0
   -0.6810   -2.0130    0.0000 C   0  0  0  0  0  0  0  0  0  0  0  0
   -0.4675   -1.2161    0.0000 C   0  0  0  0  0  0  0  0  0  0  0  0
    0.5429   -0.2057    0.0000 C   0  0  0  0  0  0  0  0  0  0  0  0
   -0.3112   -3.3933    0.0000 C   0  0  0  0  0  0  0  0  0  0  0  0
   -0.4103    1.7579    0.0000 C   0  0  0  0  0  0  0  0  0  0  0  0
   -0.9937    2.3413    0.0000 C   0  0  0  0  0  0  0  0  0  0  0  0
    0.3294    1.7579    0.0000 C   0  0  0  0  0  0  0  0  0  0  0  0
    0.9127    2.3413    0.0000 C   0  0  0  0  0  0  0  0  0  0  0  0
   -0.0405    0.3776    0.0000 P   0  0  0  0  0  0  0  0  0  0  0  0
   -0.6238    0.9610    0.0000 O   0  0  0  0  0  0  0  0  0  0  0  0
    0.5429    0.9610    0.0000 O   0  0  0  0  0  0  0  0  0  0  0  0
   -0.6238   -0.2057    0.0000 O   0  0  0  0  0  0  0  0  0  0  0  0
    1.9095   -1.3189    0.0000 H   0  0  0  0  0  0  0  0  0  0  0  0
    1.4289   -3.1126    0.0000 H   0  0  0  0  0  0  0  0  0  0  0  0
   -1.6778   -2.2801    0.0000 H   0  0  0  0  0  0  0  0  0  0  0  0
   -1.1972   -0.4864    0.0000 H   0  0  0  0  0  0  0  0  0  0  0  0
    1.5764    0.0713    0.0000 H   0  0  0  0  0  0  0  0  0  0  0  0
    0.8198    0.8279    0.0000 H   0  0  0  0  0  0  0  0  0  0  0  0
   -1.3447   -3.6703    0.0000 H   0  0  0  0  0  0  0  0  0  0  0  0
    0.4454   -4.1499    0.0000 H   0  0  0  0  0  0  0  0  0  0  0  0
   -0.5881   -4.4268    0.0000 H   0  0  0  0  0  0  0  0  0  0  0  0
    0.6232    2.0349    0.0000 H   0  0  0  0  0  0  0  0  0  0  0  0
    0.3463    1.0013    0.0000 H   0  0  0  0  0  0  0  0  0  0  0  0
   -0.7168    3.3748    0.0000 H   0  0  0  0  0  0  0  0  0  0  0  0
   -2.0272    2.0644    0.0000 H   0  0  0  0  0  0  0  0  0  0  0  0
   -1.7503    3.0979    0.0000 H   0  0  0  0  0  0  0  0  0  0  0  0
   -0.7041    2.0348    0.0000 H   0  0  0  0  0  0  0  0  0  0  0  0
   -0.4272    1.0013    0.0000 H   0  0  0  0  0  0  0  0  0  0  0  0
    1.9463    2.0645    0.0000 H   0  0  0  0  0  0  0  0  0  0  0  0
    0.6357    3.3748    0.0000 H   0  0  0  0  0  0  0  0  0  0  0  0
    1.6692    3.0980    0.0000 H   0  0  0  0  0  0  0  0  0  0  0  0
  1  2  2  0  0  0  0
  1  6  1  0  0  0  0
  1  7  1  0  0  0  0
  2  3  1  0  0  0  0
  2 17  1  0  0  0  0
  3  4  2  0  0  0  0
  3 18  1  0  0  0  0
  4  5  1  0  0  0  0
  4  8  1  0  0  0  0
  5  6  2  0  0  0  0
  5 19  1  0  0  0  0
  6 20  1  0  0  0  0
  7 13  1  0  0  0  0
  7 21  1  0  0  0  0
  7 22  1  0  0  0  0
  8 23  1  0  0  0  0
  8 24  1  0  0  0  0
  8 25  1  0  0  0  0
  9 10  1  0  0  0  0
  9 14  1  0  0  0  0
  9 26  1  0  0  0  0
  9 27  1  0  0  0  0
 10 28  1  0  0  0  0
 10 29  1  0  0  0  0
 10 30  1  0  0  0  0
 11 12  1  0  0  0  0
 11 15  1  0  0  0  0
 11 31  1  0  0  0  0
 11 32  1  0  0  0  0
 12 33  1  0  0  0  0
 12 34  1  0  0  0  0
 12 35  1  0  0  0  0
 13 14  1  0  0  0  0
 13 15  1  0  0  0  0
 13 16  2  0  0  0  0
M  END
>  <DRUGBANK_ID>
DB02138

>  <SECONDARY_ACCESSION_NUMBERS>
EXPT01324

>  <COMMON_NAME>
Diethyl 4-Methylbenzylphosphonate

>  <CAS_NUMBER>
3762-25-2

>  <UNII>
KR7824QXJ2

$$$$
