
 OpenBabel10282417072D

 17 18  0  0  0  0  0  0  0  0999 V2000
    1.3556    0.6979    0.0000 C   0  0  0  0  0  0  0  0  0  0  0  0
    2.0701    1.1104    0.0000 C   0  0  0  0  0  0  0  0  0  0  0  0
    1.3556    2.3479    0.0000 C   0  0  0  0  0  0  0  0  0  0  0  0
   -0.1435    0.8555    0.0000 C   0  0  0  0  0  0  0  0  0  0  0  0
    0.6411    1.1104    0.0000 C   0  0  0  0  0  0  0  0  0  0  0  0
    2.0701    1.9354    0.0000 C   0  0  0  0  0  0  0  0  0  0  0  0
    0.6411    1.9354    0.0000 C   0  0  0  0  0  0  0  0  0  0  0  0
   -0.6284    1.5229    0.0000 N   0  0  0  0  0  0  0  0  0  0  0  0
   -0.1435    2.1904    0.0000 N   0  0  0  0  0  0  0  0  0  0  0  0
    2.7845    2.3479    0.0000 N   0  0  0  0  0  0  0  0  0  0  0  0
    2.7845    3.1729    0.0000 O   0  0  0  0  0  0  0  0  0  0  0  0
    3.4990    1.9354    0.0000 O   0  0  0  0  0  0  0  0  0  0  0  0
    1.3556   -0.3341    0.0000 H   0  0  0  0  0  0  0  0  0  0  0  0
    2.9638    0.5944    0.0000 H   0  0  0  0  0  0  0  0  0  0  0  0
    1.3556    3.3799    0.0000 H   0  0  0  0  0  0  0  0  0  0  0  0
   -0.4624   -0.1260    0.0000 H   0  0  0  0  0  0  0  0  0  0  0  0
   -1.6129    1.5229    0.0000 H   0  0  0  0  0  0  0  0  0  0  0  0
  1 13  1  0  0  0  0
  2  1  2  0  0  0  0
  2 14  1  0  0  0  0
  3 15  1  0  0  0  0
  4 16  1  0  0  0  0
  5  1  1  0  0  0  0
  5  4  2  0  0  0  0
  6  2  1  0  0  0  0
  6  3  2  0  0  0  0
  7  3  1  0  0  0  0
  7  5  1  0  0  0  0
  8  4  1  0  0  0  0
  8 17  1  0  0  0  0
  9  7  2  0  0  0  0
  9  8  1  0  0  0  0
 10  6  1  0  0  0  0
 11 10  2  0  0  0  0
 12 10  2  0  0  0  0
M  END
>  <DRUGBANK_ID>
DB03100

>  <SECONDARY_ACCESSION_NUMBERS>
EXPT00288

>  <COMMON_NAME>
6-Nitroindazole

$$$$
