1089
 OpenBabel10282417072D

 80 85  0  0  1  0  0  0  0  0999 V2000
    7.6757   -1.7074    0.0000 O   0  0  0  0  0  0  0  0  0  0  0  0
    8.8303   -0.4251    0.0000 O   0  0  0  0  0  0  0  0  0  0  0  0
    6.2364   -2.1232    0.0000 O   0  0  0  0  0  0  0  0  0  0  0  0
    5.1858   -1.1549    0.0000 O   0  0  0  0  0  0  0  0  0  0  0  0
    9.1220    0.9737    0.0000 O   0  0  0  0  0  0  0  0  0  0  0  0
   11.5111   -1.7140    0.0000 O   0  0  0  0  0  0  0  0  0  0  0  0
   12.0944    1.0837    0.0000 O   0  0  0  0  0  0  0  0  0  0  0  0
   12.6103   -0.4836    0.0000 O   0  0  0  0  0  0  0  0  0  0  0  0
    5.7462    1.7459    0.0000 N   0  0  3  0  0  0  0  0  0  0  0  0
    3.7226    0.8240    0.0000 N   0  0  0  0  0  0  0  0  0  0  0  0
    6.2863    0.1264    0.0000 C   0  0  2  0  0  0  0  0  0  0  0  0
    6.8613    0.7650    0.0000 C   0  0  1  0  0  0  0  0  0  0  0  0
    5.4471    0.3115    0.0000 C   0  0  0  0  0  0  0  0  0  0  0  0
    6.5497   -0.7290    0.0000 C   0  0  1  0  0  0  0  0  0  0  0  0
    5.1942    1.1328    0.0000 C   0  0  2  0  0  0  0  0  0  0  0  0
    6.5894    1.5801    0.0000 C   0  0  0  0  0  0  0  0  0  0  0  0
    7.7395    0.5924    0.0000 C   0  0  0  0  0  0  0  0  0  0  0  0
    7.4237   -0.9219    0.0000 C   0  0  2  0  0  0  0  0  0  0  0  0
    8.0227   -0.2567    0.0000 C   0  0  2  0  0  0  0  0  0  0  0  0
    4.3873    1.3043    0.0000 C   0  0  0  0  0  0  0  0  0  0  0  0
    5.4913    2.5304    0.0000 C   0  0  0  0  0  0  0  0  0  0  0  0
    4.6843    2.7019    0.0000 C   0  0  0  0  0  0  0  0  0  0  0  0
    4.1324    2.0889    0.0000 C   0  0  0  0  0  0  0  0  0  0  0  0
    5.9906   -1.3357    0.0000 C   0  0  0  0  0  0  0  0  0  0  0  0
    3.3123    2.0868    0.0000 C   0  0  0  0  0  0  0  0  0  0  0  0
    3.0595    1.3066    0.0000 C   0  0  0  0  0  0  0  0  0  0  0  0
    8.4819   -1.8821    0.0000 C   0  0  0  0  0  0  0  0  0  0  0  0
    2.7500    2.7298    0.0000 C   0  0  0  0  0  0  0  0  0  0  0  0
    9.3799    0.1901    0.0000 C   0  0  0  0  0  0  0  0  0  0  0  0
    2.2269    1.1154    0.0000 C   0  0  0  0  0  0  0  0  0  0  0  0
    1.9132    2.5580    0.0000 C   0  0  0  0  0  0  0  0  0  0  0  0
    5.6774   -2.7298    0.0000 C   0  0  0  0  0  0  0  0  0  0  0  0
    1.6499    1.7453    0.0000 C   0  0  0  0  0  0  0  0  0  0  0  0
   10.1876    0.0217    0.0000 C   0  0  0  0  0  0  0  0  0  0  0  0
   10.7372    0.6369    0.0000 C   0  0  0  0  0  0  0  0  0  0  0  0
   10.4455   -0.7619    0.0000 C   0  0  0  0  0  0  0  0  0  0  0  0
   11.2531   -0.9303    0.0000 C   0  0  0  0  0  0  0  0  0  0  0  0
   11.5448    0.4684    0.0000 C   0  0  0  0  0  0  0  0  0  0  0  0
   11.8028   -0.3151    0.0000 C   0  0  0  0  0  0  0  0  0  0  0  0
   10.9614   -2.3291    0.0000 C   0  0  0  0  0  0  0  0  0  0  0  0
   11.8365    1.8672    0.0000 C   0  0  0  0  0  0  0  0  0  0  0  0
   13.1600    0.1317    0.0000 C   0  0  0  0  0  0  0  0  0  0  0  0
    5.8390   -0.3589    0.0000 H   0  0  0  0  0  0  0  0  0  0  0  0
    7.2972    1.2606    0.0000 H   0  0  0  0  0  0  0  0  0  0  0  0
    4.7489    0.6457    0.0000 H   0  0  0  0  0  0  0  0  0  0  0  0
    3.7209   -0.1605    0.0000 H   0  0  0  0  0  0  0  0  0  0  0  0
    4.7220   -0.4753    0.0000 H   0  0  0  0  0  0  0  0  0  0  0  0
    4.4036    0.5481    0.0000 H   0  0  0  0  0  0  0  0  0  0  0  0
    5.5062   -0.4924    0.0000 H   0  0  0  0  0  0  0  0  0  0  0  0
    7.2961    2.3835    0.0000 H   0  0  0  0  0  0  0  0  0  0  0  0
    7.6381    1.3678    0.0000 H   0  0  0  0  0  0  0  0  0  0  0  0
    8.4462    1.3958    0.0000 H   0  0  0  0  0  0  0  0  0  0  0  0
    8.7882    0.3801    0.0000 H   0  0  0  0  0  0  0  0  0  0  0  0
    6.7032   -1.7129    0.0000 H   0  0  0  0  0  0  0  0  0  0  0  0
    8.7340    0.5426    0.0000 H   0  0  0  0  0  0  0  0  0  0  0  0
    6.2073    3.3256    0.0000 H   0  0  0  0  0  0  0  0  0  0  0  0
    5.1606    3.5480    0.0000 H   0  0  0  0  0  0  0  0  0  0  0  0
    4.3536    3.7195    0.0000 H   0  0  0  0  0  0  0  0  0  0  0  0
    3.6377    2.9243    0.0000 H   0  0  0  0  0  0  0  0  0  0  0  0
    8.8085   -2.9010    0.0000 H   0  0  0  0  0  0  0  0  0  0  0  0
    9.2010   -1.0898    0.0000 H   0  0  0  0  0  0  0  0  0  0  0  0
    9.5276   -2.1087    0.0000 H   0  0  0  0  0  0  0  0  0  0  0  0
    3.0794    3.7078    0.0000 H   0  0  0  0  0  0  0  0  0  0  0  0
    1.9202    0.1300    0.0000 H   0  0  0  0  0  0  0  0  0  0  0  0
    1.2250    3.3270    0.0000 H   0  0  0  0  0  0  0  0  0  0  0  0
    4.6334   -2.4953    0.0000 H   0  0  0  0  0  0  0  0  0  0  0  0
    5.9963   -3.7512    0.0000 H   0  0  0  0  0  0  0  0  0  0  0  0
    4.9523   -3.5166    0.0000 H   0  0  0  0  0  0  0  0  0  0  0  0
    0.6415    1.5260    0.0000 H   0  0  0  0  0  0  0  0  0  0  0  0
   10.4145    1.6172    0.0000 H   0  0  0  0  0  0  0  0  0  0  0  0
    9.7579   -1.5315    0.0000 H   0  0  0  0  0  0  0  0  0  0  0  0
    9.9140   -2.1105    0.0000 H   0  0  0  0  0  0  0  0  0  0  0  0
   11.2958   -3.3455    0.0000 H   0  0  0  0  0  0  0  0  0  0  0  0
   10.2484   -3.1269    0.0000 H   0  0  0  0  0  0  0  0  0  0  0  0
   12.5494    2.6651    0.0000 H   0  0  0  0  0  0  0  0  0  0  0  0
   10.7890    2.0857    0.0000 H   0  0  0  0  0  0  0  0  0  0  0  0
   11.5020    2.8836    0.0000 H   0  0  0  0  0  0  0  0  0  0  0  0
   14.2075   -0.0867    0.0000 H   0  0  0  0  0  0  0  0  0  0  0  0
   12.8254    1.1480    0.0000 H   0  0  0  0  0  0  0  0  0  0  0  0
   13.8729    0.9296    0.0000 H   0  0  0  0  0  0  0  0  0  0  0  0
  1 27  1  0  0  0  0
  2 29  1  0  0  0  0
  3 24  1  0  0  0  0
  3 32  1  0  0  0  0
  4 24  2  0  0  0  0
  5 29  2  0  0  0  0
  6 37  1  0  0  0  0
  6 40  1  0  0  0  0
  7 38  1  0  0  0  0
  7 41  1  0  0  0  0
  8 39  1  0  0  0  0
  8 42  1  0  0  0  0
  9 15  1  0  0  0  0
  9 16  1  0  0  0  0
  9 21  1  0  0  0  0
 10 20  1  0  0  0  0
 10 26  1  0  0  0  0
 10 46  1  0  0  0  0
 11 12  1  0  0  0  0
 11 13  1  0  0  0  0
 11 14  1  0  0  0  0
 11 43  1  6  0  0  0
 12 16  1  0  0  0  0
 12 17  1  0  0  0  0
 12 44  1  6  0  0  0
 13 15  1  0  0  0  0
 13 47  1  0  0  0  0
 13 48  1  0  0  0  0
 14 18  1  0  0  0  0
 14 24  1  0  0  0  0
 14 49  1  6  0  0  0
 15 20  1  0  0  0  0
 15 45  1  1  0  0  0
 16 50  1  0  0  0  0
 16 51  1  0  0  0  0
 17 19  1  0  0  0  0
 17 52  1  0  0  0  0
 17 53  1  0  0  0  0
 18  1  1  0  0  0  0
 18 19  1  0  0  0  0
 18 54  1  1  0  0  0
 19  2  1  0  0  0  0
 19 55  1  6  0  0  0
 20 23  2  0  0  0  0
 21 22  1  0  0  0  0
 21 56  1  0  0  0  0
 21 57  1  0  0  0  0
 22 23  1  0  0  0  0
 22 58  1  0  0  0  0
 22 59  1  0  0  0  0
 23 25  1  0  0  0  0
 25 26  1  0  0  0  0
 25 28  2  0  0  0  0
 26 30  2  0  0  0  0
 27 60  1  0  0  0  0
 27 61  1  0  0  0  0
 27 62  1  0  0  0  0
 28 31  1  0  0  0  0
 28 63  1  0  0  0  0
 29 34  1  0  0  0  0
 30 33  1  0  0  0  0
 30 64  1  0  0  0  0
 31 33  2  0  0  0  0
 31 65  1  0  0  0  0
 32 66  1  0  0  0  0
 32 67  1  0  0  0  0
 32 68  1  0  0  0  0
 33 69  1  0  0  0  0
 34 35  2  0  0  0  0
 34 36  1  0  0  0  0
 35 38  1  0  0  0  0
 35 70  1  0  0  0  0
 36 37  2  0  0  0  0
 36 71  1  0  0  0  0
 37 39  1  0  0  0  0
 38 39  2  0  0  0  0
 40 72  1  0  0  0  0
 40 73  1  0  0  0  0
 40 74  1  0  0  0  0
 41 75  1  0  0  0  0
 41 76  1  0  0  0  0
 41 77  1  0  0  0  0
 42 78  1  0  0  0  0
 42 79  1  0  0  0  0
 42 80  1  0  0  0  0
M  END
>  <DRUGBANK_ID>
DB01089

>  <SECONDARY_ACCESSION_NUMBERS>
APRD00906

>  <COMMON_NAME>
Deserpidine

>  <CAS_NUMBER>
131-01-1

>  <UNII>
9016E3VB47

>  <SYNONYMS>
(3β,16β,17α,18β,20α)-17-methoxy-18-[(3,4,5-trimethoxybenzoyl)oxy]yohimban-16-carboxylic acid methyl ester; 11-demethoxyreserpine; 11-desmethoxyreserpine; Canescine; Deserpidina; Deserpidine; Deserpidinum; Raunormine; Recanescine

$$$$
