
 OpenBabel10282417072D

 40 40  0  0  0  0  0  0  0  0999 V2000
    0.7145    1.0312    0.0000 O   0  0  0  0  0  0  0  0  0  0  0  0
    0.0000    0.6186    0.0000 C   0  0  2  0  0  0  0  0  0  0  0  0
    0.0000   -0.2063    0.0000 C   0  0  1  0  0  0  0  0  0  0  0  0
    0.7145   -0.6188    0.0000 C   0  0  2  0  0  0  0  0  0  0  0  0
    1.4290   -0.2063    0.0000 C   0  0  0  0  0  0  0  0  0  0  0  0
    2.1436    1.0311    0.0000 C   0  0  0  0  0  0  0  0  0  0  0  0
    0.7144   -1.4438    0.0000 O   0  0  0  0  0  0  0  0  0  0  0  0
    2.8579    0.6185    0.0000 O   0  0  0  0  0  0  0  0  0  0  0  0
    2.1436    1.8562    0.0000 O   0  0  0  0  0  0  0  0  0  0  0  0
   -0.7145    1.0313    0.0000 C   0  0  1  0  0  0  0  0  0  0  0  0
   -1.4290    0.6187    0.0000 C   0  0  1  0  0  0  0  0  0  0  0  0
   -0.7144    1.8562    0.0000 O   0  0  0  0  0  0  0  0  0  0  0  0
   -2.1435    1.0313    0.0000 C   0  0  0  0  0  0  0  0  0  0  0  0
   -1.4290   -0.2062    0.0000 O   0  0  0  0  0  0  0  0  0  0  0  0
   -2.8579    0.6188    0.0000 O   0  0  0  0  0  0  0  0  0  0  0  0
    0.0000    1.4437    0.0000 H   0  0  0  0  0  0  0  0  0  0  0  0
    1.4290    0.6186    0.0000 C   0  0  2  0  0  0  0  0  0  0  0  0
    1.4290    1.4437    0.0000 O   0  0  0  0  0  0  0  0  0  0  0  0
   -0.7145   -0.6187    0.0000 N   0  0  0  0  0  0  0  0  0  0  0  0
    0.0000   -1.8563    0.0000 C   0  0  0  0  0  0  0  0  0  0  0  0
   -0.7145   -1.4438    0.0000 C   0  0  0  0  0  0  0  0  0  0  0  0
   -1.4290   -1.8563    0.0000 O   0  0  0  0  0  0  0  0  0  0  0  0
   -0.9266    0.3288    0.0000 H   0  0  0  0  0  0  0  0  0  0  0  0
   -0.2122   -1.1538    0.0000 H   0  0  0  0  0  0  0  0  0  0  0  0
    2.3556   -0.7413    0.0000 H   0  0  0  0  0  0  0  0  0  0  0  0
    2.3556    0.3287    0.0000 H   0  0  0  0  0  0  0  0  0  0  0  0
   -0.1257   -1.9287    0.0000 H   0  0  0  0  0  0  0  0  0  0  0  0
    2.8577   -0.3185    0.0000 H   0  0  0  0  0  0  0  0  0  0  0  0
    0.2122    1.5662    0.0000 H   0  0  0  0  0  0  0  0  0  0  0  0
   -0.5023    0.0837    0.0000 H   0  0  0  0  0  0  0  0  0  0  0  0
    0.1257    2.3411    0.0000 H   0  0  0  0  0  0  0  0  0  0  0  0
   -2.1435    2.1013    0.0000 H   0  0  0  0  0  0  0  0  0  0  0  0
   -3.0702    1.5663    0.0000 H   0  0  0  0  0  0  0  0  0  0  0  0
   -2.2690   -0.6912    0.0000 H   0  0  0  0  0  0  0  0  0  0  0  0
   -3.6980    1.1038    0.0000 H   0  0  0  0  0  0  0  0  0  0  0  0
    2.2690    1.9287    0.0000 H   0  0  0  0  0  0  0  0  0  0  0  0
   -1.5671   -0.1264    0.0000 H   0  0  0  0  0  0  0  0  0  0  0  0
    0.0000   -2.9263    0.0000 H   0  0  0  0  0  0  0  0  0  0  0  0
    0.9266   -1.3213    0.0000 H   0  0  0  0  0  0  0  0  0  0  0  0
    0.9267   -2.3913    0.0000 H   0  0  0  0  0  0  0  0  0  0  0  0
  2  1  1  0  0  0  0
  2 10  1  0  0  0  0
  2 16  1  1  0  0  0
  2  3  1  0  0  0  0
  3 19  1  0  0  0  0
  3  4  1  0  0  0  0
  3 23  1  6  0  0  0
  4  7  1  0  0  0  0
  4  5  1  0  0  0  0
  4 24  1  1  0  0  0
  5 25  1  0  0  0  0
  5 26  1  0  0  0  0
  6  8  1  0  0  0  0
  6  9  2  0  0  0  0
  7 27  1  0  0  0  0
  8 28  1  0  0  0  0
 10 11  1  0  0  0  0
 10 12  1  0  0  0  0
 10 29  1  6  0  0  0
 11 13  1  0  0  0  0
 11 14  1  0  0  0  0
 11 30  1  1  0  0  0
 12 31  1  0  0  0  0
 13 15  1  0  0  0  0
 13 32  1  0  0  0  0
 13 33  1  0  0  0  0
 14 34  1  0  0  0  0
 15 35  1  0  0  0  0
 17  1  1  0  0  0  0
 17  5  1  0  0  0  0
 17  6  1  1  0  0  0
 17 18  1  0  0  0  0
 18 36  1  0  0  0  0
 19 21  1  0  0  0  0
 19 37  1  0  0  0  0
 20 38  1  0  0  0  0
 20 39  1  0  0  0  0
 20 40  1  0  0  0  0
 21 20  1  0  0  0  0
 21 22  2  0  0  0  0
M  END
>  <DRUGBANK_ID>
DB03721

>  <SECONDARY_ACCESSION_NUMBERS>
EXPT02292; EXPT02908; EXPT02909; DB01894; DB02344

>  <COMMON_NAME>
N-acetyl-alpha-neuraminic acid

>  <CAS_NUMBER>
21646-00-4

>  <UNII>
04A90EXP8V

>  <SYNONYMS>
N-Acetyl-alpha-D-neuraminic acid; O-sialic acid; Î±-Neu5Ac

$$$$
