
 OpenBabel10282417072D

 26 26  0  0  1  0  0  0  0  0999 V2000
    1.5783    2.2433    0.0000 N   0  0  0  0  0  0  0  0  0  0  0  0
    2.1913    1.6913    0.0000 C   0  0  1  0  0  0  0  0  0  0  0  0
    2.0198    0.8843    0.0000 C   0  0  0  0  0  0  0  0  0  0  0  0
    1.2352    0.6294    0.0000 C   0  0  0  0  0  0  0  0  0  0  0  0
    0.9803   -0.1553    0.0000 C   0  0  0  0  0  0  0  0  0  0  0  0
    0.1553   -0.1553    0.0000 N   0  3  0  0  0  0  0  0  0  0  0  0
   -0.0997    0.6294    0.0000 C   0  0  0  0  0  0  0  0  0  0  0  0
    0.5678    1.1143    0.0000 N   0  0  0  0  0  0  0  0  0  0  0  0
    0.5678    1.9393    0.0000 P   0  0  0  0  0  0  0  0  0  0  0  0
    0.5678    2.7643    0.0000 O   0  0  0  0  0  0  0  0  0  0  0  0
   -0.2572    1.9393    0.0000 O   0  0  0  0  0  0  0  0  0  0  0  0
    1.3928    1.9393    0.0000 O   0  0  0  0  0  0  0  0  0  0  0  0
    2.9760    1.9462    0.0000 C   0  0  0  0  0  0  0  0  0  0  0  0
    3.1475    2.7532    0.0000 O   0  0  0  0  0  0  0  0  0  0  0  0
    3.5891    1.3942    0.0000 O   0  0  0  0  0  0  0  0  0  0  0  0
    1.7904    3.2410    0.0000 H   0  0  0  0  0  0  0  0  0  0  0  0
    0.6082    1.9281    0.0000 H   0  0  0  0  0  0  0  0  0  0  0  0
    1.1737    1.3607    0.0000 H   0  0  0  0  0  0  0  0  0  0  0  0
    2.8150    0.1683    0.0000 H   0  0  0  0  0  0  0  0  0  0  0  0
    1.7973   -0.1623    0.0000 H   0  0  0  0  0  0  0  0  0  0  0  0
    1.5869   -0.9902    0.0000 H   0  0  0  0  0  0  0  0  0  0  0  0
   -0.4234   -0.9518    0.0000 H   0  0  0  0  0  0  0  0  0  0  0  0
   -1.0812    0.9483    0.0000 H   0  0  0  0  0  0  0  0  0  0  0  0
    1.4078    3.2493    0.0000 H   0  0  0  0  0  0  0  0  0  0  0  0
   -0.7422    2.7793    0.0000 H   0  0  0  0  0  0  0  0  0  0  0  0
    4.0386    3.0428    0.0000 H   0  0  0  0  0  0  0  0  0  0  0  0
  1 16  1  0  0  0  0
  1 17  1  0  0  0  0
  2  1  1  0  0  0  0
  2  3  1  0  0  0  0
  2 13  1  0  0  0  0
  2 18  1  1  0  0  0
  3  4  1  0  0  0  0
  3 19  1  0  0  0  0
  3 20  1  0  0  0  0
  4  5  2  0  0  0  0
  4  8  1  0  0  0  0
  5  6  1  0  0  0  0
  5 21  1  0  0  0  0
  6  7  2  0  0  0  0
  6 22  1  0  0  0  0
  7  8  1  0  0  0  0
  7 23  1  0  0  0  0
  8  9  1  0  0  0  0
  9 10  1  0  0  0  0
  9 11  1  0  0  0  0
  9 12  2  0  0  0  0
 10 24  1  0  0  0  0
 11 25  1  0  0  0  0
 13 14  1  0  0  0  0
 13 15  2  0  0  0  0
 14 26  1  0  0  0  0
M  CHG  1   6   1
M  END
>  <DRUGBANK_ID>
DB01899

>  <SECONDARY_ACCESSION_NUMBERS>
EXPT01752

>  <COMMON_NAME>
Nd1-Phosphonohistidine

$$$$
