
 OpenBabel10282417072D

 59 61  0  0  0  0  0  0  0  0999 V2000
    3.6434   -1.0746    0.0000 C   0  0  0  0  0  0  0  0  0  0  0  0
    2.9289   -1.4870    0.0000 C   0  0  0  0  0  0  0  0  0  0  0  0
    2.2145   -1.0745    0.0000 C   0  0  0  0  0  0  0  0  0  0  0  0
    2.2144   -0.2495    0.0000 C   0  0  0  0  0  0  0  0  0  0  0  0
    2.9290    0.1629    0.0000 C   0  0  0  0  0  0  0  0  0  0  0  0
    3.6434   -0.2496    0.0000 C   0  0  0  0  0  0  0  0  0  0  0  0
    4.3591   -1.4858    0.0000 O   0  0  0  0  0  0  0  0  0  0  0  0
    4.9302   -1.1551    0.0000 C   0  0  0  0  0  0  0  0  0  0  0  0
    2.9272   -2.3125    0.0000 O   0  0  0  0  0  0  0  0  0  0  0  0
    2.3552   -2.6417    0.0000 C   0  0  0  0  0  0  0  0  0  0  0  0
    1.5004    0.1646    0.0000 C   0  0  0  0  0  0  0  0  0  0  0  0
    1.5016    0.9900    0.0000 C   0  0  0  0  0  0  0  0  0  0  0  0
    0.7876    1.4042    0.0000 N   0  0  0  0  0  0  0  0  0  0  0  0
    0.7876    2.2292    0.0000 C   0  0  0  0  0  0  0  0  0  0  0  0
    0.0731    2.6417    0.0000 C   0  0  0  0  0  0  0  0  0  0  0  0
   -0.6413    2.2292    0.0000 N   0  0  0  0  0  0  0  0  0  0  0  0
   -0.6413    1.4042    0.0000 C   0  0  0  0  0  0  0  0  0  0  0  0
    0.0731    0.9917    0.0000 C   0  0  0  0  0  0  0  0  0  0  0  0
   -1.3570    2.6404    0.0000 C   0  0  0  0  0  0  0  0  0  0  0  0
   -2.0713    2.2267    0.0000 C   0  0  0  0  0  0  0  0  0  0  0  0
   -2.7870    2.6380    0.0000 C   0  0  0  0  0  0  0  0  0  0  0  0
   -3.5013    2.2242    0.0000 C   0  0  0  0  0  0  0  0  0  0  0  0
   -4.2172    2.6342    0.0000 C   0  0  0  0  0  0  0  0  0  0  0  0
   -4.9302    2.2193    0.0000 C   0  0  0  0  0  0  0  0  0  0  0  0
   -4.9273    1.3943    0.0000 C   0  0  0  0  0  0  0  0  0  0  0  0
   -4.2115    0.9842    0.0000 C   0  0  0  0  0  0  0  0  0  0  0  0
   -3.4984    1.3992    0.0000 C   0  0  0  0  0  0  0  0  0  0  0  0
    1.3208   -1.5905    0.0000 H   0  0  0  0  0  0  0  0  0  0  0  0
    2.9291    1.1949    0.0000 H   0  0  0  0  0  0  0  0  0  0  0  0
    4.5371    0.2664    0.0000 H   0  0  0  0  0  0  0  0  0  0  0  0
    5.8575   -1.6889    0.0000 H   0  0  0  0  0  0  0  0  0  0  0  0
    4.9288   -0.0851    0.0000 H   0  0  0  0  0  0  0  0  0  0  0  0
    5.8562   -0.6189    0.0000 H   0  0  0  0  0  0  0  0  0  0  0  0
    1.4293   -2.1054    0.0000 H   0  0  0  0  0  0  0  0  0  0  0  0
    2.3537   -3.7117    0.0000 H   0  0  0  0  0  0  0  0  0  0  0  0
    1.4278   -3.1754    0.0000 H   0  0  0  0  0  0  0  0  0  0  0  0
    0.5728   -0.3688    0.0000 H   0  0  0  0  0  0  0  0  0  0  0  0
    0.5746    0.7011    0.0000 H   0  0  0  0  0  0  0  0  0  0  0  0
    2.4292    1.5234    0.0000 H   0  0  0  0  0  0  0  0  0  0  0  0
    1.5036    2.0600    0.0000 H   0  0  0  0  0  0  0  0  0  0  0  0
    1.7142    2.7642    0.0000 H   0  0  0  0  0  0  0  0  0  0  0  0
    0.7876    3.2992    0.0000 H   0  0  0  0  0  0  0  0  0  0  0  0
    0.0731    3.7117    0.0000 H   0  0  0  0  0  0  0  0  0  0  0  0
   -0.8536    3.1767    0.0000 H   0  0  0  0  0  0  0  0  0  0  0  0
   -1.5680    0.8692    0.0000 H   0  0  0  0  0  0  0  0  0  0  0  0
   -0.6413    0.3342    0.0000 H   0  0  0  0  0  0  0  0  0  0  0  0
    0.0731   -0.0783    0.0000 H   0  0  0  0  0  0  0  0  0  0  0  0
   -0.8536    0.4567    0.0000 H   0  0  0  0  0  0  0  0  0  0  0  0
   -1.3589    3.7104    0.0000 H   0  0  0  0  0  0  0  0  0  0  0  0
   -2.2845    3.1740    0.0000 H   0  0  0  0  0  0  0  0  0  0  0  0
   -2.0695    1.1567    0.0000 H   0  0  0  0  0  0  0  0  0  0  0  0
   -2.9970    1.6900    0.0000 H   0  0  0  0  0  0  0  0  0  0  0  0
   -2.7889    3.7080    0.0000 H   0  0  0  0  0  0  0  0  0  0  0  0
   -3.7145    3.1715    0.0000 H   0  0  0  0  0  0  0  0  0  0  0  0
   -4.2208    3.6662    0.0000 H   0  0  0  0  0  0  0  0  0  0  0  0
   -5.8257    2.7322    0.0000 H   0  0  0  0  0  0  0  0  0  0  0  0
   -5.8193    0.8752    0.0000 H   0  0  0  0  0  0  0  0  0  0  0  0
   -4.2080   -0.0478    0.0000 H   0  0  0  0  0  0  0  0  0  0  0  0
   -2.6029    0.8863    0.0000 H   0  0  0  0  0  0  0  0  0  0  0  0
  1  2  2  0  0  0  0
  1  7  1  0  0  0  0
  2  9  1  0  0  0  0
  2  3  1  0  0  0  0
  3  4  2  0  0  0  0
  3 28  1  0  0  0  0
  4  5  1  0  0  0  0
  4 11  1  0  0  0  0
  5  6  2  0  0  0  0
  5 29  1  0  0  0  0
  6  1  1  0  0  0  0
  6 30  1  0  0  0  0
  7  8  1  0  0  0  0
  8 31  1  0  0  0  0
  8 32  1  0  0  0  0
  8 33  1  0  0  0  0
  9 10  1  0  0  0  0
 10 34  1  0  0  0  0
 10 35  1  0  0  0  0
 10 36  1  0  0  0  0
 11 12  1  0  0  0  0
 11 37  1  0  0  0  0
 11 38  1  0  0  0  0
 12 13  1  0  0  0  0
 12 39  1  0  0  0  0
 12 40  1  0  0  0  0
 13 14  1  0  0  0  0
 13 18  1  0  0  0  0
 14 15  1  0  0  0  0
 14 41  1  0  0  0  0
 14 42  1  0  0  0  0
 15 16  1  0  0  0  0
 15 43  1  0  0  0  0
 15 44  1  0  0  0  0
 16 17  1  0  0  0  0
 16 19  1  0  0  0  0
 17 18  1  0  0  0  0
 17 45  1  0  0  0  0
 17 46  1  0  0  0  0
 18 47  1  0  0  0  0
 18 48  1  0  0  0  0
 19 20  1  0  0  0  0
 19 49  1  0  0  0  0
 19 50  1  0  0  0  0
 20 21  1  0  0  0  0
 20 51  1  0  0  0  0
 20 52  1  0  0  0  0
 21 22  1  0  0  0  0
 21 53  1  0  0  0  0
 21 54  1  0  0  0  0
 22 23  2  0  0  0  0
 23 24  1  0  0  0  0
 23 55  1  0  0  0  0
 24 25  2  0  0  0  0
 24 56  1  0  0  0  0
 25 26  1  0  0  0  0
 25 57  1  0  0  0  0
 26 27  2  0  0  0  0
 26 58  1  0  0  0  0
 27 22  1  0  0  0  0
 27 59  1  0  0  0  0
M  END
>  <DRUGBANK_ID>
DB06618

>  <COMMON_NAME>
Cutamesine

>  <CAS_NUMBER>
165377-43-5

>  <UNII>
9J7A4144BX

>  <SYNONYMS>
Cutamesine

$$$$
