NDT
 OpenBabel10282417072D

 34 36  0  0  0  0  0  0  0  0999 V2000
   -1.6276   -1.5210    0.0000 C   0  0  0  0  0  0  0  0  0  0  0  0
   -1.6276   -0.6960    0.0000 C   0  0  0  0  0  0  0  0  0  0  0  0
   -2.3421   -0.2835    0.0000 C   0  0  0  0  0  0  0  0  0  0  0  0
   -3.0566   -0.6960    0.0000 C   0  0  0  0  0  0  0  0  0  0  0  0
   -3.0566   -1.5210    0.0000 C   0  0  0  0  0  0  0  0  0  0  0  0
   -2.3421   -1.9335    0.0000 C   0  0  0  0  0  0  0  0  0  0  0  0
   -0.9132   -1.9335    0.0000 C   0  0  0  0  0  0  0  0  0  0  0  0
   -0.1987   -1.5210    0.0000 N   0  0  0  0  0  0  0  0  0  0  0  0
   -0.1987   -0.6960    0.0000 N   0  0  0  0  0  0  0  0  0  0  0  0
   -0.9132   -0.2835    0.0000 B   0  0  0  0  0  0  0  0  0  0  0  0
   -0.9132    0.5415    0.0000 O   0  0  0  0  0  0  0  0  0  0  0  0
    0.5158   -0.2835    0.0000 S   0  0  0  0  0  0  0  0  0  0  0  0
    0.9283   -0.9979    0.0000 O   0  0  0  0  0  0  0  0  0  0  0  0
    0.1033    0.4310    0.0000 O   0  0  0  0  0  0  0  0  0  0  0  0
    1.2303    0.1290    0.0000 C   0  0  0  0  0  0  0  0  0  0  0  0
    1.2303    0.9540    0.0000 C   0  0  0  0  0  0  0  0  0  0  0  0
    1.9447    1.3665    0.0000 C   0  0  0  0  0  0  0  0  0  0  0  0
    2.6592    0.9540    0.0000 C   0  0  0  0  0  0  0  0  0  0  0  0
    2.6592    0.1290    0.0000 C   0  0  0  0  0  0  0  0  0  0  0  0
    1.9447   -0.2835    0.0000 C   0  0  0  0  0  0  0  0  0  0  0  0
    3.3737    1.3665    0.0000 C   0  0  0  0  0  0  0  0  0  0  0  0
   -2.3421    0.7485    0.0000 H   0  0  0  0  0  0  0  0  0  0  0  0
   -3.9503   -0.1800    0.0000 H   0  0  0  0  0  0  0  0  0  0  0  0
   -3.9503   -2.0370    0.0000 H   0  0  0  0  0  0  0  0  0  0  0  0
   -2.3421   -2.9655    0.0000 H   0  0  0  0  0  0  0  0  0  0  0  0
   -0.9132   -2.9655    0.0000 H   0  0  0  0  0  0  0  0  0  0  0  0
   -0.0732    1.0265    0.0000 H   0  0  0  0  0  0  0  0  0  0  0  0
    0.3366    1.4700    0.0000 H   0  0  0  0  0  0  0  0  0  0  0  0
    1.9447    2.3985    0.0000 H   0  0  0  0  0  0  0  0  0  0  0  0
    3.5529   -0.3870    0.0000 H   0  0  0  0  0  0  0  0  0  0  0  0
    1.9447   -1.3155    0.0000 H   0  0  0  0  0  0  0  0  0  0  0  0
    4.3003    0.8315    0.0000 H   0  0  0  0  0  0  0  0  0  0  0  0
    3.3737    2.4365    0.0000 H   0  0  0  0  0  0  0  0  0  0  0  0
    4.3004    1.9015    0.0000 H   0  0  0  0  0  0  0  0  0  0  0  0
  1  2  2  0  0  0  0
  1  6  1  0  0  0  0
  1  7  1  0  0  0  0
  2  3  1  0  0  0  0
  2 10  1  0  0  0  0
  3  4  2  0  0  0  0
  3 22  1  0  0  0  0
  4  5  1  0  0  0  0
  4 23  1  0  0  0  0
  5  6  2  0  0  0  0
  5 24  1  0  0  0  0
  6 25  1  0  0  0  0
  7  8  2  0  0  0  0
  7 26  1  0  0  0  0
  8  9  1  0  0  0  0
  9 10  1  0  0  0  0
  9 12  1  0  0  0  0
 10 11  1  0  0  0  0
 11 27  1  0  0  0  0
 12 13  2  0  0  0  0
 12 14  2  0  0  0  0
 12 15  1  0  0  0  0
 15 16  2  0  0  0  0
 15 20  1  0  0  0  0
 16 17  1  0  0  0  0
 16 28  1  0  0  0  0
 17 18  2  0  0  0  0
 17 29  1  0  0  0  0
 18 19  1  0  0  0  0
 18 21  1  0  0  0  0
 19 20  2  0  0  0  0
 19 30  1  0  0  0  0
 20 31  1  0  0  0  0
 21 32  1  0  0  0  0
 21 33  1  0  0  0  0
 21 34  1  0  0  0  0
M  END
>  <DRUGBANK_ID>
DB08265

>  <COMMON_NAME>
2-(TOLUENE-4-SULFONYL)-2H-BENZO[D][1,2,3]DIAZABORININ-1-OL

>  <UNII>
YEB3W2L5P3

$$$$
