1553
 OpenBabel10282417072D

 37 40  0  0  1  0  0  0  0  0999 V2000
    5.1559   -1.7086    0.0000 Cl  0  0  0  0  0  0  0  0  0  0  0  0
    1.6500   -0.7747    0.0000 Cl  0  0  0  0  0  0  0  0  0  0  0  0
    4.5520   -1.0344    0.0000 O   0  0  0  0  0  0  0  0  0  0  0  0
    5.2103    2.3286    0.0000 O   0  0  0  0  0  0  0  0  0  0  0  0
    5.1832    0.1360    0.0000 N   0  0  3  0  0  0  0  0  0  0  0  0
    4.0273    1.5853    0.0000 N   0  0  0  0  0  0  0  0  0  0  0  0
    4.4398   -0.2220    0.0000 C   0  0  3  0  0  0  0  0  0  0  0  0
    5.7484   -0.4583    0.0000 C   0  0  0  0  0  0  0  0  0  0  0  0
    3.6966    0.1360    0.0000 C   0  0  0  0  0  0  0  0  0  0  0  0
    5.3591   -1.1802    0.0000 C   0  0  0  0  0  0  0  0  0  0  0  0
    5.3667    0.9403    0.0000 C   0  0  0  0  0  0  0  0  0  0  0  0
    3.9751   -0.9036    0.0000 C   0  0  0  0  0  0  0  0  0  0  0  0
    3.5130    0.9403    0.0000 C   0  0  0  0  0  0  0  0  0  0  0  0
    4.8523    1.5853    0.0000 C   0  0  0  0  0  0  0  0  0  0  0  0
    3.0757   -0.4582    0.0000 C   0  0  0  0  0  0  0  0  0  0  0  0
    4.3331   -1.6470    0.0000 C   0  0  0  0  0  0  0  0  0  0  0  0
    3.1524   -0.8420    0.0000 C   0  0  0  0  0  0  0  0  0  0  0  0
    2.6958    1.2062    0.0000 C   0  0  0  0  0  0  0  0  0  0  0  0
    2.2526   -0.2112    0.0000 C   0  0  0  0  0  0  0  0  0  0  0  0
    2.0614    0.6266    0.0000 C   0  0  0  0  0  0  0  0  0  0  0  0
    3.8684   -2.3286    0.0000 C   0  0  0  0  0  0  0  0  0  0  0  0
    2.6876   -1.5236    0.0000 C   0  0  0  0  0  0  0  0  0  0  0  0
    3.0456   -2.2669    0.0000 C   0  0  0  0  0  0  0  0  0  0  0  0
    3.6001    2.4723    0.0000 H   0  0  0  0  0  0  0  0  0  0  0  0
    6.8090   -0.3165    0.0000 H   0  0  0  0  0  0  0  0  0  0  0  0
    6.3566   -1.3387    0.0000 H   0  0  0  0  0  0  0  0  0  0  0  0
    5.8233   -2.1443    0.0000 H   0  0  0  0  0  0  0  0  0  0  0  0
    6.4288   -1.2047    0.0000 H   0  0  0  0  0  0  0  0  0  0  0  0
    6.4099    1.1785    0.0000 H   0  0  0  0  0  0  0  0  0  0  0  0
    5.7201    1.9503    0.0000 H   0  0  0  0  0  0  0  0  0  0  0  0
    3.3169   -1.4616    0.0000 H   0  0  0  0  0  0  0  0  0  0  0  0
    2.7046    0.0878    0.0000 H   0  0  0  0  0  0  0  0  0  0  0  0
    2.4778    2.2149    0.0000 H   0  0  0  0  0  0  0  0  0  0  0  0
    1.0764    0.9346    0.0000 H   0  0  0  0  0  0  0  0  0  0  0  0
    4.3161   -3.2584    0.0000 H   0  0  0  0  0  0  0  0  0  0  0  0
    1.6585   -1.4465    0.0000 H   0  0  0  0  0  0  0  0  0  0  0  0
    2.4643   -3.1196    0.0000 H   0  0  0  0  0  0  0  0  0  0  0  0
  1 16  1  0  0  0  0
  2 19  1  0  0  0  0
  3  7  1  0  0  0  0
  3 10  1  0  0  0  0
  4 14  2  0  0  0  0
  5  7  1  0  0  0  0
  5  8  1  0  0  0  0
  5 11  1  0  0  0  0
  6 13  1  0  0  0  0
  6 14  1  0  0  0  0
  6 24  1  0  0  0  0
  7  9  1  0  0  0  0
  7 12  1  0  0  0  0
  8 10  1  0  0  0  0
  8 25  1  0  0  0  0
  8 26  1  0  0  0  0
  9 13  2  0  0  0  0
  9 15  1  0  0  0  0
 10 27  1  0  0  0  0
 10 28  1  0  0  0  0
 11 14  1  0  0  0  0
 11 29  1  0  0  0  0
 11 30  1  0  0  0  0
 12 16  1  0  0  0  0
 12 17  2  0  0  0  0
 13 18  1  0  0  0  0
 15 19  2  0  0  0  0
 15 31  1  0  0  0  0
 16 21  2  0  0  0  0
 17 22  1  0  0  0  0
 17 32  1  0  0  0  0
 18 20  2  0  0  0  0
 18 33  1  0  0  0  0
 19 20  1  0  0  0  0
 20 34  1  0  0  0  0
 21 23  1  0  0  0  0
 21 35  1  0  0  0  0
 22 23  2  0  0  0  0
 22 36  1  0  0  0  0
 23 37  1  0  0  0  0
M  END
>  <DRUGBANK_ID>
DB01553

>  <COMMON_NAME>
Cloxazolam

>  <CAS_NUMBER>
24166-13-0

>  <UNII>
GYL649Z0HY

>  <SYNONYMS>
Cloxazolam; Cloxazolamum; Cloxazolazepam

$$$$
