
 OpenBabel10282417072D

 36 38  0  0  0  0  0  0  0  0999 V2000
    2.5012    1.2560    0.0000 C   0  0  0  0  0  0  0  0  0  0  0  0
    1.7861    1.6685    0.0000 C   0  0  0  0  0  0  0  0  0  0  0  0
    1.0711    1.2560    0.0000 C   0  0  0  0  0  0  0  0  0  0  0  0
    1.7861    0.0185    0.0000 C   0  0  0  0  0  0  0  0  0  0  0  0
    2.5012    0.4310    0.0000 C   0  0  0  0  0  0  0  0  0  0  0  0
    0.3575   -0.8064    0.0000 C   0  0  1  0  0  0  0  0  0  0  0  0
    0.3575    0.0185    0.0000 C   0  0  2  0  0  0  0  0  0  0  0  0
   -0.3573    0.4310    0.0000 O   0  0  0  0  0  0  0  0  0  0  0  0
   -0.3573   -1.2189    0.0000 C   0  0  0  0  0  0  0  0  0  0  0  0
   -1.0711   -0.8064    0.0000 C   0  0  0  0  0  0  0  0  0  0  0  0
   -1.0711    0.0185    0.0000 C   0  0  0  0  0  0  0  0  0  0  0  0
   -1.7861    0.4310    0.0000 C   0  0  0  0  0  0  0  0  0  0  0  0
   -2.5012    0.0171    0.0000 C   0  0  0  0  0  0  0  0  0  0  0  0
   -2.5012   -0.8078    0.0000 C   0  0  0  0  0  0  0  0  0  0  0  0
   -1.7861   -1.2189    0.0000 C   0  0  0  0  0  0  0  0  0  0  0  0
   -1.7855   -2.0439    0.0000 O   0  0  0  0  0  0  0  0  0  0  0  0
   -3.2159    0.4293    0.0000 O   0  0  0  0  0  0  0  0  0  0  0  0
    1.0719   -1.2189    0.0000 O   0  0  0  0  0  0  0  0  0  0  0  0
    1.7861    2.4935    0.0000 O   0  0  0  0  0  0  0  0  0  0  0  0
    3.2156    1.6687    0.0000 O   0  0  0  0  0  0  0  0  0  0  0  0
    3.2156    0.0184    0.0000 O   0  0  0  0  0  0  0  0  0  0  0  0
    1.0719    0.4311    0.0000 C   0  0  0  0  0  0  0  0  0  0  0  0
    0.1772    1.7717    0.0000 H   0  0  0  0  0  0  0  0  0  0  0  0
    1.7858   -1.0135    0.0000 H   0  0  0  0  0  0  0  0  0  0  0  0
    1.2842   -0.2714    0.0000 H   0  0  0  0  0  0  0  0  0  0  0  0
    1.2842   -0.5164    0.0000 H   0  0  0  0  0  0  0  0  0  0  0  0
   -0.3576   -2.2889    0.0000 H   0  0  0  0  0  0  0  0  0  0  0  0
   -1.2841   -1.7536    0.0000 H   0  0  0  0  0  0  0  0  0  0  0  0
   -1.7868    1.4630    0.0000 H   0  0  0  0  0  0  0  0  0  0  0  0
   -3.3945   -1.3246    0.0000 H   0  0  0  0  0  0  0  0  0  0  0  0
   -2.5966   -2.5130    0.0000 H   0  0  0  0  0  0  0  0  0  0  0  0
   -3.2163    1.3663    0.0000 H   0  0  0  0  0  0  0  0  0  0  0  0
    1.0719   -2.1889    0.0000 H   0  0  0  0  0  0  0  0  0  0  0  0
    2.5976    2.9620    0.0000 H   0  0  0  0  0  0  0  0  0  0  0  0
    4.0272    1.2004    0.0000 H   0  0  0  0  0  0  0  0  0  0  0  0
    3.2155   -0.9186    0.0000 H   0  0  0  0  0  0  0  0  0  0  0  0
  1  2  2  0  0  0  0
  1  5  1  0  0  0  0
  1 20  1  0  0  0  0
  2  3  1  0  0  0  0
  2 19  1  0  0  0  0
  3 22  2  0  0  0  0
  3 23  1  0  0  0  0
  4  5  2  0  0  0  0
  4 24  1  0  0  0  0
  5 21  1  0  0  0  0
  6  7  1  0  0  0  0
  6  9  1  0  0  0  0
  6 18  1  0  0  0  0
  6 25  1  1  0  0  0
  7  8  1  0  0  0  0
  7 22  1  0  0  0  0
  7 26  1  1  0  0  0
  8 11  1  0  0  0  0
  9 10  1  0  0  0  0
  9 27  1  0  0  0  0
  9 28  1  0  0  0  0
 10 11  2  0  0  0  0
 10 15  1  0  0  0  0
 11 12  1  0  0  0  0
 12 13  2  0  0  0  0
 12 29  1  0  0  0  0
 13 14  1  0  0  0  0
 13 17  1  0  0  0  0
 14 15  2  0  0  0  0
 14 30  1  0  0  0  0
 15 16  1  0  0  0  0
 16 31  1  0  0  0  0
 17 32  1  0  0  0  0
 18 33  1  0  0  0  0
 19 34  1  0  0  0  0
 20 35  1  0  0  0  0
 21 36  1  0  0  0  0
 22  4  1  0  0  0  0
M  END
>  <DRUGBANK_ID>
DB03823

>  <SECONDARY_ACCESSION_NUMBERS>
EXPT01331

>  <COMMON_NAME>
Epigallocatechin

>  <CAS_NUMBER>
970-74-1

>  <UNII>
7Z197MG6QL

>  <SYNONYMS>
(-)-epi-gallocatechin; (-)-epigallocatechin; (-)-epigallocatechol; (âˆ’)-epigallocatechin; 3,3',4',5,5',7-flavanhexol; Antiscurvy factor C2; EGC; Epi-gallocatechin; Galloepicatechin; L-epigallocatechin

$$$$
