XE4
 OpenBabel10282417072D

 63 65  0  0  0  0  0  0  0  0999 V2000
    2.1226   -3.1473    0.0000 C   0  0  0  0  0  0  0  0  0  0  0  0
    2.1226   -3.9723    0.0000 C   0  0  2  0  0  0  0  0  0  0  0  0
    1.4081   -4.3848    0.0000 C   0  0  0  0  0  0  0  0  0  0  0  0
    0.6937   -3.9723    0.0000 C   0  0  1  0  0  0  0  0  0  0  0  0
    0.6937   -3.1473    0.0000 C   0  0  0  0  0  0  0  0  0  0  0  0
    1.4081   -2.7348    0.0000 C   0  0  0  0  0  0  0  0  0  0  0  0
    1.4081   -1.9098    0.0000 C   0  0  0  0  0  0  0  0  0  0  0  0
    0.6937   -1.4973    0.0000 C   0  0  0  0  0  0  0  0  0  0  0  0
    0.6937   -0.6723    0.0000 C   0  0  0  0  0  0  0  0  0  0  0  0
   -0.0208   -2.7348    0.0000 C   0  0  0  0  0  0  0  0  0  0  0  0
    2.8371   -4.3848    0.0000 O   0  0  0  0  0  0  0  0  0  0  0  0
   -0.0208   -4.3848    0.0000 O   0  0  0  0  0  0  0  0  0  0  0  0
   -0.0208   -0.2598    0.0000 C   0  0  1  0  0  0  0  0  0  0  0  0
   -0.0208    0.5652    0.0000 C   0  0  2  0  0  0  0  0  0  0  0  0
    0.6937    0.9777    0.0000 C   0  0  0  0  0  0  0  0  0  0  0  0
    1.4081    0.5652    0.0000 C   0  0  0  0  0  0  0  0  0  0  0  0
    1.4081   -0.2598    0.0000 C   0  0  0  0  0  0  0  0  0  0  0  0
   -0.8054   -0.5147    0.0000 C   0  0  0  0  0  0  0  0  0  0  0  0
   -1.2904    0.1527    0.0000 C   0  0  0  0  0  0  0  0  0  0  0  0
   -0.8054    0.8202    0.0000 C   0  0  2  0  0  0  0  0  0  0  0  0
   -1.0604    1.6048    0.0000 C   0  0  0  0  0  0  0  0  0  0  0  0
   -1.3153    2.3894    0.0000 C   0  0  0  0  0  0  0  0  0  0  0  0
   -1.5702    3.1740    0.0000 C   0  0  0  0  0  0  0  0  0  0  0  0
   -1.8252    3.9587    0.0000 C   0  0  0  0  0  0  0  0  0  0  0  0
   -2.0801    4.7433    0.0000 C   0  0  0  0  0  0  0  0  0  0  0  0
   -2.3351    5.5279    0.0000 C   0  0  0  0  0  0  0  0  0  0  0  0
   -1.2955    4.9982    0.0000 O   0  0  0  0  0  0  0  0  0  0  0  0
   -2.8647    4.4883    0.0000 C   0  0  0  0  0  0  0  0  0  0  0  0
   -0.1070    1.3857    0.0000 C   0  0  0  0  0  0  0  0  0  0  0  0
    2.6283   -3.6803    0.0000 H   0  0  0  0  0  0  0  0  0  0  0  0
    0.6937   -4.5562    0.0000 H   0  0  0  0  0  0  0  0  0  0  0  0
   -0.0818   -0.8405    0.0000 H   0  0  0  0  0  0  0  0  0  0  0  0
   -0.3925    1.2331    0.0000 H   0  0  0  0  0  0  0  0  0  0  0  0
    3.0492   -2.6123    0.0000 H   0  0  0  0  0  0  0  0  0  0  0  0
    2.1226   -2.0773    0.0000 H   0  0  0  0  0  0  0  0  0  0  0  0
    1.4081   -5.4548    0.0000 H   0  0  0  0  0  0  0  0  0  0  0  0
    0.4814   -4.9198    0.0000 H   0  0  0  0  0  0  0  0  0  0  0  0
    2.3018   -1.3938    0.0000 H   0  0  0  0  0  0  0  0  0  0  0  0
   -0.2000   -2.0133    0.0000 H   0  0  0  0  0  0  0  0  0  0  0  0
   -0.0208   -1.7028    0.0000 H   0  0  0  0  0  0  0  0  0  0  0  0
   -0.9145   -3.2508    0.0000 H   0  0  0  0  0  0  0  0  0  0  0  0
    2.8371   -5.3548    0.0000 H   0  0  0  0  0  0  0  0  0  0  0  0
   -0.8608   -3.8998    0.0000 H   0  0  0  0  0  0  0  0  0  0  0  0
    0.6937    2.0477    0.0000 H   0  0  0  0  0  0  0  0  0  0  0  0
    1.6204    1.5127    0.0000 H   0  0  0  0  0  0  0  0  0  0  0  0
    2.3348    1.1002    0.0000 H   0  0  0  0  0  0  0  0  0  0  0  0
    2.3347    0.0302    0.0000 H   0  0  0  0  0  0  0  0  0  0  0  0
    2.3348   -0.7948    0.0000 H   0  0  0  0  0  0  0  0  0  0  0  0
    2.3347    0.2752    0.0000 H   0  0  0  0  0  0  0  0  0  0  0  0
   -1.1360   -1.5323    0.0000 H   0  0  0  0  0  0  0  0  0  0  0  0
   -1.8622   -0.6822    0.0000 H   0  0  0  0  0  0  0  0  0  0  0  0
   -2.3604    0.1527    0.0000 H   0  0  0  0  0  0  0  0  0  0  0  0
   -1.7762    1.1061    0.0000 H   0  0  0  0  0  0  0  0  0  0  0  0
   -1.6192    6.3231    0.0000 H   0  0  0  0  0  0  0  0  0  0  0  0
   -3.3817    5.7503    0.0000 H   0  0  0  0  0  0  0  0  0  0  0  0
   -2.6658    6.5455    0.0000 H   0  0  0  0  0  0  0  0  0  0  0  0
   -0.5747    4.3491    0.0000 H   0  0  0  0  0  0  0  0  0  0  0  0
   -3.6599    5.2042    0.0000 H   0  0  0  0  0  0  0  0  0  0  0  0
   -3.0871    3.4417    0.0000 H   0  0  0  0  0  0  0  0  0  0  0  0
   -3.8823    4.1576    0.0000 H   0  0  0  0  0  0  0  0  0  0  0  0
    0.7587    2.0146    0.0000 H   0  0  0  0  0  0  0  0  0  0  0  0
   -1.0845    1.8210    0.0000 H   0  0  0  0  0  0  0  0  0  0  0  0
   -0.2188    2.4498    0.0000 H   0  0  0  0  0  0  0  0  0  0  0  0
  1  2  1  0  0  0  0
  1  6  1  0  0  0  0
  1 34  1  0  0  0  0
  1 35  1  0  0  0  0
  2  3  1  0  0  0  0
  2 11  1  0  0  0  0
  2 30  1  6  0  0  0
  3  4  1  0  0  0  0
  3 36  1  0  0  0  0
  3 37  1  0  0  0  0
  4  5  1  0  0  0  0
  4 12  1  0  0  0  0
  4 31  1  1  0  0  0
  5  6  1  0  0  0  0
  5 10  2  0  0  0  0
  6  7  2  0  0  0  0
  7  8  1  0  0  0  0
  7 38  1  0  0  0  0
  8  9  2  0  0  0  0
  8 39  1  0  0  0  0
  9 13  1  0  0  0  0
  9 17  1  0  0  0  0
 10 40  1  0  0  0  0
 10 41  1  0  0  0  0
 11 42  1  0  0  0  0
 12 43  1  0  0  0  0
 13 14  1  0  0  0  0
 13 18  1  0  0  0  0
 13 32  1  1  0  0  0
 14 15  1  0  0  0  0
 14 20  1  0  0  0  0
 14 29  1  6  0  0  0
 15 16  1  0  0  0  0
 15 44  1  0  0  0  0
 15 45  1  0  0  0  0
 16 17  1  0  0  0  0
 16 46  1  0  0  0  0
 16 47  1  0  0  0  0
 17 48  1  0  0  0  0
 17 49  1  0  0  0  0
 18 19  1  0  0  0  0
 18 50  1  0  0  0  0
 18 51  1  0  0  0  0
 19 20  1  0  0  0  0
 19 52  1  0  0  0  0
 19 53  1  0  0  0  0
 20 21  1  0  0  0  0
 20 33  1  1  0  0  0
 21 22  3  0  0  0  0
 22 23  1  0  0  0  0
 23 24  3  0  0  0  0
 24 25  1  0  0  0  0
 25 26  1  0  0  0  0
 25 27  1  0  0  0  0
 25 28  1  0  0  0  0
 26 54  1  0  0  0  0
 26 55  1  0  0  0  0
 26 56  1  0  0  0  0
 27 57  1  0  0  0  0
 28 58  1  0  0  0  0
 28 59  1  0  0  0  0
 28 60  1  0  0  0  0
 29 61  1  0  0  0  0
 29 62  1  0  0  0  0
 29 63  1  0  0  0  0
M  END
>  <DRUGBANK_ID>
DB08742

>  <COMMON_NAME>
1,3-CYCLOHEXANEDIOL, 4-METHYLENE-5-[(2E)-[(1S,3AS,7AS)-OCTAHYDRO-1-(5-HYDROXY-5-METHYL-1,3-HEXADIYNYL)-7A-METHYL-4H-INDEN-4-YLIDENE]ETHYLIDENE]-, (1R,3S,5Z)

$$$$
