
 OpenBabel10282417072D

 49 51  0  0  0  0  0  0  0  0999 V2000
    0.9207   -2.7769    0.0000 C   0  0  0  0  0  0  0  0  0  0  0  0
    0.9207   -3.6019    0.0000 C   0  0  0  0  0  0  0  0  0  0  0  0
    1.6351   -4.0144    0.0000 C   0  0  0  0  0  0  0  0  0  0  0  0
    2.3496   -3.6019    0.0000 C   0  0  0  0  0  0  0  0  0  0  0  0
    2.3496   -2.7769    0.0000 C   0  0  0  0  0  0  0  0  0  0  0  0
    1.6351   -2.3644    0.0000 C   0  0  0  0  0  0  0  0  0  0  0  0
    1.6351   -1.5394    0.0000 C   0  0  0  0  0  0  0  0  0  0  0  0
    0.9207   -1.1269    0.0000 C   0  0  0  0  0  0  0  0  0  0  0  0
    2.3496   -1.1269    0.0000 C   0  0  0  0  0  0  0  0  0  0  0  0
    2.3496   -0.3019    0.0000 C   0  0  0  0  0  0  0  0  0  0  0  0
    1.6351    0.1105    0.0000 C   0  0  0  0  0  0  0  0  0  0  0  0
    0.9207   -0.3019    0.0000 C   0  0  0  0  0  0  0  0  0  0  0  0
    0.2062    0.1105    0.0000 C   0  0  0  0  0  0  0  0  0  0  0  0
    0.2062    0.9355    0.0000 C   0  0  0  0  0  0  0  0  0  0  0  0
   -0.5082   -0.3019    0.0000 C   0  0  0  0  0  0  0  0  0  0  0  0
   -1.2227    0.1105    0.0000 C   0  0  0  0  0  0  0  0  0  0  0  0
   -1.2227    0.9355    0.0000 C   0  0  0  0  0  0  0  0  0  0  0  0
   -0.5082    1.3480    0.0000 C   0  0  0  0  0  0  0  0  0  0  0  0
   -0.5082    2.1730    0.0000 C   0  0  0  0  0  0  0  0  0  0  0  0
   -1.2227    2.5855    0.0000 C   0  0  0  0  0  0  0  0  0  0  0  0
   -1.6352    1.8710    0.0000 P   0  0  0  0  0  0  0  0  0  0  0  0
   -2.3496    2.2835    0.0000 O   0  0  0  0  0  0  0  0  0  0  0  0
   -0.9207    1.4585    0.0000 O   0  0  0  0  0  0  0  0  0  0  0  0
   -2.0477    1.1565    0.0000 O   0  0  0  0  0  0  0  0  0  0  0  0
   -0.8102    3.2999    0.0000 P   0  0  0  0  0  0  0  0  0  0  0  0
   -0.3977    4.0144    0.0000 O   0  0  0  0  0  0  0  0  0  0  0  0
   -0.0957    2.8874    0.0000 O   0  0  0  0  0  0  0  0  0  0  0  0
   -1.5246    3.7124    0.0000 O   0  0  0  0  0  0  0  0  0  0  0  0
   -1.9371    2.9980    0.0000 O   0  0  0  0  0  0  0  0  0  0  0  0
    0.0270   -2.2609    0.0000 H   0  0  0  0  0  0  0  0  0  0  0  0
    0.0270   -4.1179    0.0000 H   0  0  0  0  0  0  0  0  0  0  0  0
    1.6351   -5.0464    0.0000 H   0  0  0  0  0  0  0  0  0  0  0  0
    3.2433   -4.1179    0.0000 H   0  0  0  0  0  0  0  0  0  0  0  0
    3.2433   -2.2609    0.0000 H   0  0  0  0  0  0  0  0  0  0  0  0
    0.0270   -1.6429    0.0000 H   0  0  0  0  0  0  0  0  0  0  0  0
    3.2433   -1.6429    0.0000 H   0  0  0  0  0  0  0  0  0  0  0  0
    3.2433    0.2142    0.0000 H   0  0  0  0  0  0  0  0  0  0  0  0
    1.6351    1.1425    0.0000 H   0  0  0  0  0  0  0  0  0  0  0  0
    1.0999    1.4515    0.0000 H   0  0  0  0  0  0  0  0  0  0  0  0
   -0.5082   -1.3339    0.0000 H   0  0  0  0  0  0  0  0  0  0  0  0
   -2.1164   -0.4056    0.0000 H   0  0  0  0  0  0  0  0  0  0  0  0
   -2.1164    1.4515    0.0000 H   0  0  0  0  0  0  0  0  0  0  0  0
    0.4184    2.7080    0.0000 H   0  0  0  0  0  0  0  0  0  0  0  0
   -0.5082    3.2430    0.0000 H   0  0  0  0  0  0  0  0  0  0  0  0
   -0.9207    0.4885    0.0000 H   0  0  0  0  0  0  0  0  0  0  0  0
   -3.0177    1.1565    0.0000 H   0  0  0  0  0  0  0  0  0  0  0  0
   -0.0957    1.9174    0.0000 H   0  0  0  0  0  0  0  0  0  0  0  0
   -1.5246    4.6824    0.0000 H   0  0  0  0  0  0  0  0  0  0  0  0
   -1.9371    3.9680    0.0000 H   0  0  0  0  0  0  0  0  0  0  0  0
  1  6  1  0  0  0  0
  1 30  1  0  0  0  0
  2  1  2  0  0  0  0
  2 31  1  0  0  0  0
  3  2  1  0  0  0  0
  3  4  2  0  0  0  0
  3 32  1  0  0  0  0
  4  5  1  0  0  0  0
  4 33  1  0  0  0  0
  5  6  2  0  0  0  0
  5 34  1  0  0  0  0
  6  7  1  0  0  0  0
  8  7  1  0  0  0  0
  8 12  2  0  0  0  0
  8 35  1  0  0  0  0
  9  7  2  0  0  0  0
  9 36  1  0  0  0  0
 10  9  1  0  0  0  0
 10 11  2  0  0  0  0
 10 37  1  0  0  0  0
 11 12  1  0  0  0  0
 11 38  1  0  0  0  0
 13 12  1  0  0  0  0
 14 13  2  0  0  0  0
 14 18  1  0  0  0  0
 14 39  1  0  0  0  0
 15 13  1  0  0  0  0
 15 40  1  0  0  0  0
 16 15  2  0  0  0  0
 16 17  1  0  0  0  0
 16 41  1  0  0  0  0
 17 18  2  0  0  0  0
 17 42  1  0  0  0  0
 19 18  1  0  0  0  0
 19 20  1  0  0  0  0
 19 43  1  0  0  0  0
 19 44  1  0  0  0  0
 20 21  1  0  0  0  0
 20 29  1  0  0  0  0
 20 25  1  0  0  0  0
 22 21  2  0  0  0  0
 23 21  1  0  0  0  0
 23 45  1  0  0  0  0
 24 21  1  0  0  0  0
 24 46  1  0  0  0  0
 26 25  2  0  0  0  0
 27 25  1  0  0  0  0
 27 47  1  0  0  0  0
 28 25  1  0  0  0  0
 28 48  1  0  0  0  0
 29 49  1  0  0  0  0
M  END
>  <DRUGBANK_ID>
DB07404

>  <COMMON_NAME>
BPH-608

>  <SYNONYMS>
(1-hydroxy-1-phosphono-2-[1,1';3',1'']terphenyl-3-yl-ethyl)-phosphonic acid

$$$$
