
 OpenBabel10282417072D

 38 39  0  0  1  0  0  0  0  0999 V2000
    1.5326   -5.3934    0.0000 Cl  0  0  0  0  0  0  0  0  0  0  0  0
    5.8217   -3.7368    0.0000 C   0  0  0  0  0  0  0  0  0  0  0  0
    5.1061   -1.6848    0.0000 N   0  0  0  0  0  0  0  0  0  0  0  0
    4.4004   -3.7368    0.0000 C   0  0  1  0  0  0  0  0  0  0  0  0
    3.6747   -4.1572    0.0000 C   0  0  0  0  0  0  0  0  0  0  0  0
    5.1111   -4.1472    0.0000 C   0  0  0  0  0  0  0  0  0  0  0  0
    2.9590   -3.7468    0.0000 C   0  0  0  0  0  0  0  0  0  0  0  0
    3.6747   -4.9830    0.0000 C   0  0  0  0  0  0  0  0  0  0  0  0
    4.4004   -2.9210    0.0000 C   0  0  0  0  0  0  0  0  0  0  0  0
    5.1111   -4.9830    0.0000 N   0  0  0  0  0  0  0  0  0  0  0  0
    2.2483   -4.9830    0.0000 C   0  0  0  0  0  0  0  0  0  0  0  0
    2.2483   -4.1572    0.0000 C   0  0  0  0  0  0  0  0  0  0  0  0
    2.9590   -5.3934    0.0000 C   0  0  0  0  0  0  0  0  0  0  0  0
    5.1061   -2.5106    0.0000 C   0  0  0  0  0  0  0  0  0  0  0  0
    6.5375   -4.1472    0.0000 C   0  0  0  0  0  0  0  0  0  0  0  0
    5.8217   -5.3934    0.0000 C   0  0  0  0  0  0  0  0  0  0  0  0
    6.5375   -4.9830    0.0000 C   0  0  0  0  0  0  0  0  0  0  0  0
    4.3804   -1.2644    0.0000 C   0  0  0  0  0  0  0  0  0  0  0  0
    5.8067   -1.2794    0.0000 C   0  0  0  0  0  0  0  0  0  0  0  0
    5.8201   -2.7048    0.0000 H   0  0  0  0  0  0  0  0  0  0  0  0
    3.4734   -3.2025    0.0000 H   0  0  0  0  0  0  0  0  0  0  0  0
    2.9574   -2.7148    0.0000 H   0  0  0  0  0  0  0  0  0  0  0  0
    4.5677   -5.5003    0.0000 H   0  0  0  0  0  0  0  0  0  0  0  0
    3.4729   -2.3875    0.0000 H   0  0  0  0  0  0  0  0  0  0  0  0
    4.3979   -1.8510    0.0000 H   0  0  0  0  0  0  0  0  0  0  0  0
    1.3545   -3.6412    0.0000 H   0  0  0  0  0  0  0  0  0  0  0  0
    2.9574   -6.4254    0.0000 H   0  0  0  0  0  0  0  0  0  0  0  0
    6.0336   -3.0441    0.0000 H   0  0  0  0  0  0  0  0  0  0  0  0
    5.1086   -3.5806    0.0000 H   0  0  0  0  0  0  0  0  0  0  0  0
    7.4305   -3.6299    0.0000 H   0  0  0  0  0  0  0  0  0  0  0  0
    5.8201   -6.4254    0.0000 H   0  0  0  0  0  0  0  0  0  0  0  0
    7.4305   -5.5003    0.0000 H   0  0  0  0  0  0  0  0  0  0  0  0
    4.3820   -0.1944    0.0000 H   0  0  0  0  0  0  0  0  0  0  0  0
    3.4530   -1.7980    0.0000 H   0  0  0  0  0  0  0  0  0  0  0  0
    3.4545   -0.7280    0.0000 H   0  0  0  0  0  0  0  0  0  0  0  0
    6.7339   -1.8135    0.0000 H   0  0  0  0  0  0  0  0  0  0  0  0
    5.8057   -0.2094    0.0000 H   0  0  0  0  0  0  0  0  0  0  0  0
    6.7328   -0.7435    0.0000 H   0  0  0  0  0  0  0  0  0  0  0  0
  1 11  1  0  0  0  0
  2  6  1  0  0  0  0
  2 15  2  0  0  0  0
  2 20  1  0  0  0  0
  3 14  1  0  0  0  0
  3 18  1  0  0  0  0
  3 19  1  0  0  0  0
  4  5  1  0  0  0  0
  4  6  1  0  0  0  0
  4  9  1  0  0  0  0
  4 21  1  1  0  0  0
  5  7  2  0  0  0  0
  5  8  1  0  0  0  0
  6 10  2  0  0  0  0
  7 12  1  0  0  0  0
  7 22  1  0  0  0  0
  8 13  2  0  0  0  0
  8 23  1  0  0  0  0
  9 14  1  0  0  0  0
  9 24  1  0  0  0  0
  9 25  1  0  0  0  0
 10 16  1  0  0  0  0
 11 12  2  0  0  0  0
 11 13  1  0  0  0  0
 12 26  1  0  0  0  0
 13 27  1  0  0  0  0
 14 28  1  0  0  0  0
 14 29  1  0  0  0  0
 15 17  1  0  0  0  0
 15 30  1  0  0  0  0
 16 17  2  0  0  0  0
 16 31  1  0  0  0  0
 17 32  1  0  0  0  0
 18 33  1  0  0  0  0
 18 34  1  0  0  0  0
 18 35  1  0  0  0  0
 19 36  1  0  0  0  0
 19 37  1  0  0  0  0
 19 38  1  0  0  0  0
M  END
>  <DRUGBANK_ID>
DB13679

>  <COMMON_NAME>
Dexchlorpheniramine

>  <CAS_NUMBER>
25523-97-1

>  <UNII>
3Q9Q0B929N

>  <SYNONYMS>
Dexchlorpheniramine; dexclorfeniramina

$$$$
