6EA
 OpenBabel10282417072D

 51 55  0  0  0  0  0  0  0  0999 V2000
   -5.3215    2.1346    0.0000 N   0  0  0  0  0  0  0  0  0  0  0  0
   -4.7695    2.7477    0.0000 C   0  0  0  0  0  0  0  0  0  0  0  0
   -3.9625    2.5762    0.0000 C   0  0  0  0  0  0  0  0  0  0  0  0
   -3.7076    1.7916    0.0000 C   0  0  0  0  0  0  0  0  0  0  0  0
   -4.2596    1.1785    0.0000 C   0  0  0  0  0  0  0  0  0  0  0  0
   -5.0666    1.3500    0.0000 C   0  0  0  0  0  0  0  0  0  0  0  0
   -2.9006    1.6200    0.0000 C   0  0  0  0  0  0  0  0  0  0  0  0
   -2.6457    0.8354    0.0000 C   0  0  0  0  0  0  0  0  0  0  0  0
   -1.8387    0.6639    0.0000 C   0  0  0  0  0  0  0  0  0  0  0  0
   -1.2867    1.2770    0.0000 C   0  0  0  0  0  0  0  0  0  0  0  0
   -1.5416    2.0616    0.0000 C   0  0  0  0  0  0  0  0  0  0  0  0
   -2.3486    2.2331    0.0000 N   0  0  0  0  0  0  0  0  0  0  0  0
   -0.4797    1.1055    0.0000 C   0  0  0  0  0  0  0  0  0  0  0  0
    0.0723    1.7185    0.0000 C   0  0  0  0  0  0  0  0  0  0  0  0
   -0.1826    2.5032    0.0000 N   0  0  0  0  0  0  0  0  0  0  0  0
   -0.9896    2.6747    0.0000 C   0  0  0  0  0  0  0  0  0  0  0  0
   -0.2248    0.3208    0.0000 O   0  0  0  0  0  0  0  0  0  0  0  0
    0.5822    0.1493    0.0000 C   0  0  0  0  0  0  0  0  0  0  0  0
    0.8371   -0.6353    0.0000 C   0  0  1  0  0  0  0  0  0  0  0  0
    0.2851   -1.2484    0.0000 N   0  0  0  0  0  0  0  0  0  0  0  0
    1.6441   -0.8068    0.0000 C   0  0  0  0  0  0  0  0  0  0  0  0
    1.8990   -1.5915    0.0000 C   0  0  0  0  0  0  0  0  0  0  0  0
    1.4141   -2.2589    0.0000 C   0  0  0  0  0  0  0  0  0  0  0  0
    1.8990   -2.9263    0.0000 N   0  0  0  0  0  0  0  0  0  0  0  0
    2.6837   -2.6714    0.0000 C   0  0  0  0  0  0  0  0  0  0  0  0
    2.6837   -1.8464    0.0000 C   0  0  0  0  0  0  0  0  0  0  0  0
    3.3981   -3.0839    0.0000 C   0  0  0  0  0  0  0  0  0  0  0  0
    4.1126   -2.6714    0.0000 C   0  0  0  0  0  0  0  0  0  0  0  0
    4.1126   -1.8464    0.0000 C   0  0  0  0  0  0  0  0  0  0  0  0
    3.3981   -1.4339    0.0000 C   0  0  0  0  0  0  0  0  0  0  0  0
    0.2660   -0.5139    0.0000 H   0  0  0  0  0  0  0  0  0  0  0  0
   -5.0884    3.7292    0.0000 H   0  0  0  0  0  0  0  0  0  0  0  0
   -3.2720    3.3431    0.0000 H   0  0  0  0  0  0  0  0  0  0  0  0
   -3.9407    0.1970    0.0000 H   0  0  0  0  0  0  0  0  0  0  0  0
   -5.7571    0.5831    0.0000 H   0  0  0  0  0  0  0  0  0  0  0  0
   -3.3362    0.0685    0.0000 H   0  0  0  0  0  0  0  0  0  0  0  0
   -1.5198   -0.3176    0.0000 H   0  0  0  0  0  0  0  0  0  0  0  0
    1.0817    1.5039    0.0000 H   0  0  0  0  0  0  0  0  0  0  0  0
   -1.3085    3.6562    0.0000 H   0  0  0  0  0  0  0  0  0  0  0  0
    1.2982    0.9445    0.0000 H   0  0  0  0  0  0  0  0  0  0  0  0
    1.6288   -0.0732    0.0000 H   0  0  0  0  0  0  0  0  0  0  0  0
   -0.7126   -1.0364    0.0000 H   0  0  0  0  0  0  0  0  0  0  0  0
    0.6003   -2.2185    0.0000 H   0  0  0  0  0  0  0  0  0  0  0  0
    2.3601   -0.0116    0.0000 H   0  0  0  0  0  0  0  0  0  0  0  0
    2.6907   -1.0293    0.0000 H   0  0  0  0  0  0  0  0  0  0  0  0
    0.3821   -2.2589    0.0000 H   0  0  0  0  0  0  0  0  0  0  0  0
    1.5947   -3.8626    0.0000 H   0  0  0  0  0  0  0  0  0  0  0  0
    3.3981   -4.1159    0.0000 H   0  0  0  0  0  0  0  0  0  0  0  0
    5.0063   -3.1874    0.0000 H   0  0  0  0  0  0  0  0  0  0  0  0
    5.0063   -1.3304    0.0000 H   0  0  0  0  0  0  0  0  0  0  0  0
    3.3981   -0.4019    0.0000 H   0  0  0  0  0  0  0  0  0  0  0  0
  1  2  1  0  0  0  0
  1  6  2  0  0  0  0
  2  3  2  0  0  0  0
  2 32  1  0  0  0  0
  3  4  1  0  0  0  0
  3 33  1  0  0  0  0
  4  5  2  0  0  0  0
  4  7  1  0  0  0  0
  5  6  1  0  0  0  0
  5 34  1  0  0  0  0
  6 35  1  0  0  0  0
  7  8  1  0  0  0  0
  7 12  2  0  0  0  0
  8  9  2  0  0  0  0
  8 36  1  0  0  0  0
  9 10  1  0  0  0  0
  9 37  1  0  0  0  0
 10 11  1  0  0  0  0
 10 13  2  0  0  0  0
 11 12  1  0  0  0  0
 11 16  2  0  0  0  0
 13 14  1  0  0  0  0
 13 17  1  0  0  0  0
 14 15  2  0  0  0  0
 14 38  1  0  0  0  0
 15 16  1  0  0  0  0
 16 39  1  0  0  0  0
 17 18  1  0  0  0  0
 18 19  1  0  0  0  0
 18 40  1  0  0  0  0
 18 41  1  0  0  0  0
 19 20  1  0  0  0  0
 19 21  1  0  0  0  0
 19 31  1  1  0  0  0
 20 42  1  0  0  0  0
 20 43  1  0  0  0  0
 21 22  1  0  0  0  0
 21 44  1  0  0  0  0
 21 45  1  0  0  0  0
 22 23  2  0  0  0  0
 22 26  1  0  0  0  0
 23 24  1  0  0  0  0
 23 46  1  0  0  0  0
 24 25  1  0  0  0  0
 24 47  1  0  0  0  0
 25 26  2  0  0  0  0
 25 27  1  0  0  0  0
 26 30  1  0  0  0  0
 27 28  2  0  0  0  0
 27 48  1  0  0  0  0
 28 29  1  0  0  0  0
 28 49  1  0  0  0  0
 29 30  2  0  0  0  0
 29 50  1  0  0  0  0
 30 51  1  0  0  0  0
M  END
>  <DRUGBANK_ID>
DB07204

>  <COMMON_NAME>
(1S)-1-(1H-INDOL-3-YLMETHYL)-2-(2-PYRIDIN-4-YL-[1,7]NAPHTYRIDIN-5-YLOXY)-EHYLAMINE

$$$$
