
 OpenBabel10282417072D

 48 48  0  0  0  0  0  0  0  0999 V2000
   -3.2152    0.7373    0.0000 N   0  0  0  0  0  0  0  0  0  0  0  0
   -1.7863    0.7373    0.0000 C   0  0  0  0  0  0  0  0  0  0  0  0
   -1.7863    1.5623    0.0000 O   0  0  0  0  0  0  0  0  0  0  0  0
   -2.5006    0.3249    0.0000 C   0  0  0  0  0  0  0  0  0  0  0  0
   -1.0719    0.3249    0.0000 N   0  0  0  0  0  0  0  0  0  0  0  0
    0.3573    0.3251    0.0000 C   0  0  0  0  0  0  0  0  0  0  0  0
   -0.3574    1.5628    0.0000 C   0  0  0  0  0  0  0  0  0  0  0  0
   -0.3572    0.7376    0.0000 C   0  0  2  0  0  0  0  0  0  0  0  0
    0.3574   -0.5000    0.0000 O   0  0  0  0  0  0  0  0  0  0  0  0
    1.0719    0.7378    0.0000 N   0  0  0  0  0  0  0  0  0  0  0  0
    1.1178    1.6403    0.0000 N   0  0  0  0  0  0  0  0  0  0  0  0
    0.3604    1.9774    0.0000 C   0  0  0  0  0  0  0  0  0  0  0  0
    1.2580    2.9745    0.0000 N   0  0  0  0  0  0  0  0  0  0  0  0
    1.6725    2.2565    0.0000 C   0  0  0  0  0  0  0  0  0  0  0  0
    0.4470    2.8019    0.0000 C   0  0  0  0  0  0  0  0  0  0  0  0
    2.5006    0.7378    0.0000 C   0  0  0  0  0  0  0  0  0  0  0  0
    2.5006    1.5628    0.0000 O   0  0  0  0  0  0  0  0  0  0  0  0
    1.7863    0.3254    0.0000 C   0  0  2  0  0  0  0  0  0  0  0  0
    1.7863   -0.4995    0.0000 C   0  0  0  0  0  0  0  0  0  0  0  0
    2.5008   -0.9120    0.0000 C   0  0  0  0  0  0  0  0  0  0  0  0
    2.5008   -1.7370    0.0000 C   0  0  0  0  0  0  0  0  0  0  0  0
    3.2152   -2.1495    0.0000 C   0  0  0  0  0  0  0  0  0  0  0  0
    3.2152   -2.9745    0.0000 N   0  0  0  0  0  0  0  0  0  0  0  0
    3.2151    0.3253    0.0000 O   0  0  0  0  0  0  0  0  0  0  0  0
   -3.2154    1.7573    0.0000 H   0  0  0  0  0  0  0  0  0  0  0  0
   -4.0985    0.2271    0.0000 H   0  0  0  0  0  0  0  0  0  0  0  0
   -2.5005   -0.7451    0.0000 H   0  0  0  0  0  0  0  0  0  0  0  0
   -3.4272   -0.2102    0.0000 H   0  0  0  0  0  0  0  0  0  0  0  0
   -1.0718   -0.6596    0.0000 H   0  0  0  0  0  0  0  0  0  0  0  0
   -1.2842    2.0976    0.0000 H   0  0  0  0  0  0  0  0  0  0  0  0
   -0.3576    2.6328    0.0000 H   0  0  0  0  0  0  0  0  0  0  0  0
   -0.3572   -0.3324    0.0000 H   0  0  0  0  0  0  0  0  0  0  0  0
    1.0718    1.7223    0.0000 H   0  0  0  0  0  0  0  0  0  0  0  0
    1.6583    3.8739    0.0000 H   0  0  0  0  0  0  0  0  0  0  0  0
    2.6989    2.1487    0.0000 H   0  0  0  0  0  0  0  0  0  0  0  0
   -0.3200    3.4923    0.0000 H   0  0  0  0  0  0  0  0  0  0  0  0
    1.7863    1.3954    0.0000 H   0  0  0  0  0  0  0  0  0  0  0  0
    0.8597   -1.0345    0.0000 H   0  0  0  0  0  0  0  0  0  0  0  0
    1.7863   -1.5695    0.0000 H   0  0  0  0  0  0  0  0  0  0  0  0
    3.4274   -0.3770    0.0000 H   0  0  0  0  0  0  0  0  0  0  0  0
    3.4274   -1.4470    0.0000 H   0  0  0  0  0  0  0  0  0  0  0  0
    1.5741   -2.2720    0.0000 H   0  0  0  0  0  0  0  0  0  0  0  0
    2.5008   -2.8070    0.0000 H   0  0  0  0  0  0  0  0  0  0  0  0
    4.1419   -1.6145    0.0000 H   0  0  0  0  0  0  0  0  0  0  0  0
    4.1418   -2.6845    0.0000 H   0  0  0  0  0  0  0  0  0  0  0  0
    2.3319   -3.4845    0.0000 H   0  0  0  0  0  0  0  0  0  0  0  0
    4.0985   -3.4845    0.0000 H   0  0  0  0  0  0  0  0  0  0  0  0
    3.2151   -0.6117    0.0000 H   0  0  0  0  0  0  0  0  0  0  0  0
  1 25  1  0  0  0  0
  1 26  1  0  0  0  0
  3  2  2  0  0  0  0
  4  2  1  0  0  0  0
  4  1  1  0  0  0  0
  4 27  1  0  0  0  0
  4 28  1  0  0  0  0
  5  2  1  0  0  0  0
  5 29  1  0  0  0  0
  7 12  1  0  0  0  0
  7 30  1  0  0  0  0
  7 31  1  0  0  0  0
  8  6  1  0  0  0  0
  8  7  1  0  0  0  0
  8  5  1  0  0  0  0
  8 32  1  6  0  0  0
  9  6  2  0  0  0  0
 10  6  1  0  0  0  0
 10 33  1  0  0  0  0
 12 11  1  0  0  0  0
 13 34  1  0  0  0  0
 14 11  2  0  0  0  0
 14 13  1  0  0  0  0
 14 35  1  0  0  0  0
 15 12  2  0  0  0  0
 15 13  1  0  0  0  0
 15 36  1  0  0  0  0
 16 24  1  0  0  0  0
 17 16  2  0  0  0  0
 18 16  1  0  0  0  0
 18 10  1  0  0  0  0
 18 37  1  1  0  0  0
 19 18  1  0  0  0  0
 19 20  1  0  0  0  0
 19 38  1  0  0  0  0
 19 39  1  0  0  0  0
 20 21  1  0  0  0  0
 20 40  1  0  0  0  0
 20 41  1  0  0  0  0
 21 22  1  0  0  0  0
 21 42  1  0  0  0  0
 21 43  1  0  0  0  0
 22 23  1  0  0  0  0
 22 44  1  0  0  0  0
 22 45  1  0  0  0  0
 23 46  1  0  0  0  0
 23 47  1  0  0  0  0
 24 48  1  0  0  0  0
M  END
>  <DRUGBANK_ID>
DB11296

>  <COMMON_NAME>
Prezatide

>  <CAS_NUMBER>
49557-75-7

>  <UNII>
39TG2H631E

>  <SYNONYMS>
GHK; Gly-His-Lys; Glycyl-L-histidyl-L-lysine; Glycylhistidyllysine; Growth-modulating peptide (human); Liver cell growth factor; Tripeptide-1

$$$$
