
 OpenBabel10282417072D

 77 81  0  0  0  0  0  0  0  0999 V2000
   -1.0983    0.0159    0.0000 C   0  0  1  0  0  0  0  0  0  0  0  0
   -1.0876   -0.8052    0.0000 C   0  0  2  0  0  0  0  0  0  0  0  0
   -0.3868    0.4336    0.0000 C   0  0  2  0  0  0  0  0  0  0  0  0
   -1.7956    0.4229    0.0000 C   0  0  0  0  0  0  0  0  0  0  0  0
   -1.1341    0.8087    0.0000 C   0  0  0  0  0  0  0  0  0  0  0  0
   -1.7848   -1.2193    0.0000 C   0  0  1  0  0  0  0  0  0  0  0  0
    0.3388   -0.8334    0.0000 C   0  0  0  0  0  0  0  0  0  0  0  0
    0.3316    0.0301    0.0000 C   0  0  0  0  0  0  0  0  0  0  0  0
   -0.3939    1.2582    0.0000 C   0  0  0  0  0  0  0  0  0  0  0  0
    0.4271    0.6069    0.0000 O   0  0  0  0  0  0  0  0  0  0  0  0
   -2.5141    0.0053    0.0000 C   0  0  1  0  0  0  0  0  0  0  0  0
   -2.5104   -0.8123    0.0000 C   0  0  2  0  0  0  0  0  0  0  0  0
   -1.7848   -2.0406    0.0000 C   0  0  0  0  0  0  0  0  0  0  0  0
    0.3564    1.6546    0.0000 C   0  0  0  0  0  0  0  0  0  0  0  0
   -1.1337    1.6866    0.0000 O   0  0  0  0  0  0  0  0  0  0  0  0
   -3.2502    0.4299    0.0000 O   0  0  0  0  0  0  0  0  0  0  0  0
   -3.2077   -1.2229    0.0000 C   0  0  2  0  0  0  0  0  0  0  0  0
   -2.4963   -2.4546    0.0000 C   0  0  0  0  0  0  0  0  0  0  0  0
    1.0855    1.2051    0.0000 O   0  0  0  0  0  0  0  0  0  0  0  0
   -3.2007   -2.0476    0.0000 C   0  0  0  0  0  0  0  0  0  0  0  0
   -3.9228   -0.8194    0.0000 C   0  0  0  0  0  0  0  0  0  0  0  0
   -3.2543   -0.4372    0.0000 C   0  0  0  0  0  0  0  0  0  0  0  0
    1.8148    1.6264    0.0000 C   0  0  0  0  0  0  0  0  0  0  0  0
   -3.9157   -2.4653    0.0000 C   0  0  0  0  0  0  0  0  0  0  0  0
   -4.6378   -1.2299    0.0000 C   0  0  0  0  0  0  0  0  0  0  0  0
    2.5476    1.2051    0.0000 C   0  0  0  0  0  0  0  0  0  0  0  0
    1.8077    2.4830    0.0000 O   0  0  0  0  0  0  0  0  0  0  0  0
   -4.6485   -2.0971    0.0000 C   0  0  0  0  0  0  0  0  0  0  0  0
    3.2801    1.6264    0.0000 C   0  0  0  0  0  0  0  0  0  0  0  0
   -5.3670   -2.4830    0.0000 O   0  0  0  0  0  0  0  0  0  0  0  0
    4.0060    1.2056    0.0000 C   0  0  0  0  0  0  0  0  0  0  0  0
    4.2688    0.4046    0.0000 C   0  0  0  0  0  0  0  0  0  0  0  0
    4.6850    1.6958    0.0000 C   0  0  0  0  0  0  0  0  0  0  0  0
    5.1087    0.4107    0.0000 C   0  0  0  0  0  0  0  0  0  0  0  0
    5.3670    1.2079    0.0000 C   0  0  0  0  0  0  0  0  0  0  0  0
   -1.0983   -1.5737    0.0000 H   0  0  0  0  0  0  0  0  0  0  0  0
   -1.7956   -0.4017    0.0000 H   0  0  0  0  0  0  0  0  0  0  0  0
   -2.5141   -1.6300    0.0000 H   0  0  0  0  0  0  0  0  0  0  0  0
   -1.7946    1.4929    0.0000 H   0  0  0  0  0  0  0  0  0  0  0  0
   -2.7228    0.9570    0.0000 H   0  0  0  0  0  0  0  0  0  0  0  0
   -0.2325    1.3850    0.0000 H   0  0  0  0  0  0  0  0  0  0  0  0
   -2.0839    1.3014    0.0000 H   0  0  0  0  0  0  0  0  0  0  0  0
   -1.1824    1.8776    0.0000 H   0  0  0  0  0  0  0  0  0  0  0  0
    1.0911   -1.5943    0.0000 H   0  0  0  0  0  0  0  0  0  0  0  0
    1.3268   -0.4226    0.0000 H   0  0  0  0  0  0  0  0  0  0  0  0
    1.2528    0.5744    0.0000 H   0  0  0  0  0  0  0  0  0  0  0  0
    1.2631   -0.4963    0.0000 H   0  0  0  0  0  0  0  0  0  0  0  0
    1.0764   -0.1137    0.0000 H   0  0  0  0  0  0  0  0  0  0  0  0
   -2.5159    1.0753    0.0000 H   0  0  0  0  0  0  0  0  0  0  0  0
   -0.8572   -2.5740    0.0000 H   0  0  0  0  0  0  0  0  0  0  0  0
   -1.7821   -3.1106    0.0000 H   0  0  0  0  0  0  0  0  0  0  0  0
    0.3919    2.7240    0.0000 H   0  0  0  0  0  0  0  0  0  0  0  0
    1.2992    2.1606    0.0000 H   0  0  0  0  0  0  0  0  0  0  0  0
   -3.2506    1.3999    0.0000 H   0  0  0  0  0  0  0  0  0  0  0  0
   -2.4947   -3.5246    0.0000 H   0  0  0  0  0  0  0  0  0  0  0  0
   -3.4226   -2.9902    0.0000 H   0  0  0  0  0  0  0  0  0  0  0  0
   -3.9268    0.2506    0.0000 H   0  0  0  0  0  0  0  0  0  0  0  0
   -4.8498   -0.2850    0.0000 H   0  0  0  0  0  0  0  0  0  0  0  0
   -2.3610    0.1517    0.0000 H   0  0  0  0  0  0  0  0  0  0  0  0
   -4.2110    0.0420    0.0000 H   0  0  0  0  0  0  0  0  0  0  0  0
   -3.3177    0.6309    0.0000 H   0  0  0  0  0  0  0  0  0  0  0  0
   -3.8831   -3.4968    0.0000 H   0  0  0  0  0  0  0  0  0  0  0  0
   -5.5605   -0.6881    0.0000 H   0  0  0  0  0  0  0  0  0  0  0  0
   -5.5697   -1.7557    0.0000 H   0  0  0  0  0  0  0  0  0  0  0  0
    2.5477    0.1351    0.0000 H   0  0  0  0  0  0  0  0  0  0  0  0
    3.4738    0.6694    0.0000 H   0  0  0  0  0  0  0  0  0  0  0  0
    3.2819    2.6964    0.0000 H   0  0  0  0  0  0  0  0  0  0  0  0
    4.2077    2.1598    0.0000 H   0  0  0  0  0  0  0  0  0  0  0  0
    5.0236    0.8749    0.0000 H   0  0  0  0  0  0  0  0  0  0  0  0
    3.6443   -0.4642    0.0000 H   0  0  0  0  0  0  0  0  0  0  0  0
    4.7604   -0.5458    0.0000 H   0  0  0  0  0  0  0  0  0  0  0  0
    4.6827    2.7658    0.0000 H   0  0  0  0  0  0  0  0  0  0  0  0
    5.6361    2.1861    0.0000 H   0  0  0  0  0  0  0  0  0  0  0  0
    5.7411   -0.4524    0.0000 H   0  0  0  0  0  0  0  0  0  0  0  0
    6.1651    0.5807    0.0000 H   0  0  0  0  0  0  0  0  0  0  0  0
    6.3833    1.5427    0.0000 H   0  0  0  0  0  0  0  0  0  0  0  0
    6.1255    0.4532    0.0000 H   0  0  0  0  0  0  0  0  0  0  0  0
  1  2  1  0  0  0  0
  1  3  1  0  0  0  0
  1  4  1  0  0  0  0
  1  5  1  1  0  0  0
  2  6  1  0  0  0  0
  2  7  1  0  0  0  0
  2 36  1  6  0  0  0
  3  8  1  0  0  0  0
  3  9  1  1  0  0  0
  3 10  1  0  0  0  0
  4 11  1  0  0  0  0
  4 39  1  0  0  0  0
  4 40  1  0  0  0  0
  5 41  1  0  0  0  0
  5 42  1  0  0  0  0
  5 43  1  0  0  0  0
  6 12  1  0  0  0  0
  6 13  1  0  0  0  0
  6 37  1  1  0  0  0
  7  8  1  0  0  0  0
  7 44  1  0  0  0  0
  7 45  1  0  0  0  0
  8 46  1  0  0  0  0
  8 47  1  0  0  0  0
  9 14  1  0  0  0  0
  9 15  2  0  0  0  0
 10 48  1  0  0  0  0
 11 16  1  0  0  0  0
 11 12  1  0  0  0  0
 11 49  1  6  0  0  0
 12 17  1  0  0  0  0
 12 38  1  6  0  0  0
 13 18  1  0  0  0  0
 13 50  1  0  0  0  0
 13 51  1  0  0  0  0
 14 19  1  0  0  0  0
 14 52  1  0  0  0  0
 14 53  1  0  0  0  0
 16 54  1  0  0  0  0
 17 20  1  0  0  0  0
 17 21  1  0  0  0  0
 17 22  1  1  0  0  0
 18 20  1  0  0  0  0
 18 55  1  0  0  0  0
 18 56  1  0  0  0  0
 19 23  1  0  0  0  0
 20 24  2  0  0  0  0
 21 25  1  0  0  0  0
 21 57  1  0  0  0  0
 21 58  1  0  0  0  0
 22 59  1  0  0  0  0
 22 60  1  0  0  0  0
 22 61  1  0  0  0  0
 23 26  1  0  0  0  0
 23 27  2  0  0  0  0
 24 28  1  0  0  0  0
 24 62  1  0  0  0  0
 25 28  1  0  0  0  0
 25 63  1  0  0  0  0
 25 64  1  0  0  0  0
 26 29  1  0  0  0  0
 26 65  1  0  0  0  0
 26 66  1  0  0  0  0
 28 30  2  0  0  0  0
 29 31  1  0  0  0  0
 29 67  1  0  0  0  0
 29 68  1  0  0  0  0
 31 32  1  0  0  0  0
 31 33  1  0  0  0  0
 31 69  1  0  0  0  0
 32 34  1  0  0  0  0
 32 70  1  0  0  0  0
 32 71  1  0  0  0  0
 33 35  1  0  0  0  0
 33 72  1  0  0  0  0
 33 73  1  0  0  0  0
 34 35  1  0  0  0  0
 34 74  1  0  0  0  0
 34 75  1  0  0  0  0
 35 76  1  0  0  0  0
 35 77  1  0  0  0  0
M  END
>  <DRUGBANK_ID>
DB14541

>  <SECONDARY_ACCESSION_NUMBERS>
DBSALT001388

>  <COMMON_NAME>
Hydrocortisone cypionate

>  <CAS_NUMBER>
508-99-6

>  <UNII>
4XDY25L70B

>  <SYNONYMS>
Cortisol 21-cyclopentanepropionate; Hydrocortisone cipionate

$$$$
