
 OpenBabel10282417072D

 42 44  0  0  0  0  0  0  0  0999 V2000
   -0.0921    0.0381    0.0000 Zn  0  2  0  0  0  0  0  0  0  0  0  0
   -0.7822   -0.3602    0.0000 N   0  5  0  0  0  0  0  0  0  0  0  0
   -0.0921    0.8348    0.0000 N   0  5  0  0  0  0  0  0  0  0  0  0
   -2.0595   -0.4934    0.0000 N   0  0  0  0  0  0  0  0  0  0  0  0
   -0.6155    2.0076    0.0000 N   0  0  0  0  0  0  0  0  0  0  0  0
   -2.7256   -3.4425    0.0000 N   0  3  0  0  0  0  0  0  0  0  0  0
    1.6054    4.0591    0.0000 N   0  3  0  0  0  0  0  0  0  0  0  0
   -1.4675   -4.0097    0.0000 N   0  0  0  0  0  0  0  0  0  0  0  0
    2.7257    3.2531    0.0000 N   0  0  0  0  0  0  0  0  0  0  0  0
   -1.4722    0.8348    0.0000 C   0  0  0  0  0  0  0  0  0  0  0  0
   -1.4722    0.0381    0.0000 C   0  0  0  0  0  0  0  0  0  0  0  0
   -0.7822    1.2332    0.0000 C   0  0  0  0  0  0  0  0  0  0  0  0
   -0.9489   -1.1346    0.0000 C   0  0  0  0  0  0  0  0  0  0  0  0
    0.4950    1.3664    0.0000 C   0  0  0  0  0  0  0  0  0  0  0  0
   -1.7367   -1.2167    0.0000 C   0  0  0  0  0  0  0  0  0  0  0  0
    0.1722    2.0897    0.0000 C   0  0  0  0  0  0  0  0  0  0  0  0
   -0.4542   -1.7949    0.0000 C   0  0  0  0  0  0  0  0  0  0  0  0
    1.3143    1.2682    0.0000 C   0  0  0  0  0  0  0  0  0  0  0  0
   -2.0845   -1.9648    0.0000 C   0  0  0  0  0  0  0  0  0  0  0  0
    0.6463    2.7650    0.0000 C   0  0  0  0  0  0  0  0  0  0  0  0
   -1.6053   -2.6365    0.0000 C   0  0  0  0  0  0  0  0  0  0  0  0
    1.4675    2.6858    0.0000 C   0  0  0  0  0  0  0  0  0  0  0  0
   -0.7846   -2.5510    0.0000 C   0  0  0  0  0  0  0  0  0  0  0  0
    1.8037    1.9324    0.0000 C   0  0  0  0  0  0  0  0  0  0  0  0
   -1.9328   -3.3628    0.0000 C   0  0  0  0  0  0  0  0  0  0  0  0
    1.9329    3.3327    0.0000 C   0  0  0  0  0  0  0  0  0  0  0  0
   -3.3007   -2.6434    0.0000 H   0  0  0  0  0  0  0  0  0  0  0  0
   -3.1301   -4.3401    0.0000 H   0  0  0  0  0  0  0  0  0  0  0  0
    2.1803    4.8583    0.0000 H   0  0  0  0  0  0  0  0  0  0  0  0
    0.6258    4.1574    0.0000 H   0  0  0  0  0  0  0  0  0  0  0  0
   -1.8722   -4.9072    0.0000 H   0  0  0  0  0  0  0  0  0  0  0  0
   -0.4879   -3.9115    0.0000 H   0  0  0  0  0  0  0  0  0  0  0  0
    3.1303    2.3556    0.0000 H   0  0  0  0  0  0  0  0  0  0  0  0
    3.3007    4.0523    0.0000 H   0  0  0  0  0  0  0  0  0  0  0  0
   -2.3989    1.3698    0.0000 H   0  0  0  0  0  0  0  0  0  0  0  0
   -1.4722    1.9048    0.0000 H   0  0  0  0  0  0  0  0  0  0  0  0
    0.5709   -1.6760    0.0000 H   0  0  0  0  0  0  0  0  0  0  0  0
    1.7240    0.3210    0.0000 H   0  0  0  0  0  0  0  0  0  0  0  0
   -3.1121   -2.0599    0.0000 H   0  0  0  0  0  0  0  0  0  0  0  0
    0.2149    3.7025    0.0000 H   0  0  0  0  0  0  0  0  0  0  0  0
   -0.1755   -3.3841    0.0000 H   0  0  0  0  0  0  0  0  0  0  0  0
    2.8297    1.8215    0.0000 H   0  0  0  0  0  0  0  0  0  0  0  0
  2 11  1  0  0  0  0
  2 13  1  0  0  0  0
  3 12  1  0  0  0  0
  3 14  1  0  0  0  0
  4 11  2  0  0  0  0
  4 15  1  0  0  0  0
  5 12  2  0  0  0  0
  5 16  1  0  0  0  0
  6 25  2  0  0  0  0
  6 27  1  0  0  0  0
  6 28  1  0  0  0  0
  7 26  2  0  0  0  0
  7 29  1  0  0  0  0
  7 30  1  0  0  0  0
  8 25  1  0  0  0  0
  8 31  1  0  0  0  0
  8 32  1  0  0  0  0
  9 26  1  0  0  0  0
  9 33  1  0  0  0  0
  9 34  1  0  0  0  0
 10 11  1  0  0  0  0
 10 12  1  0  0  0  0
 10 35  1  0  0  0  0
 10 36  1  0  0  0  0
 13 15  2  0  0  0  0
 13 17  1  0  0  0  0
 14 16  2  0  0  0  0
 14 18  1  0  0  0  0
 15 19  1  0  0  0  0
 16 20  1  0  0  0  0
 17 23  2  0  0  0  0
 17 37  1  0  0  0  0
 18 24  2  0  0  0  0
 18 38  1  0  0  0  0
 19 21  2  0  0  0  0
 19 39  1  0  0  0  0
 20 22  2  0  0  0  0
 20 40  1  0  0  0  0
 21 23  1  0  0  0  0
 21 25  1  0  0  0  0
 22 24  1  0  0  0  0
 22 26  1  0  0  0  0
 23 41  1  0  0  0  0
 24 42  1  0  0  0  0
M  CHG  5   1   2   2  -1   3  -1   6   1   7   1
M  END
>  <DRUGBANK_ID>
DB04008

>  <SECONDARY_ACCESSION_NUMBERS>
EXPT00628

>  <COMMON_NAME>
Zinc;[amino-[2-[[5-[amino(azaniumylidene)methyl]benzimidazol-1-id-2-yl]methyl]benzimidazol-1-id-5-yl]methylidene]azanium

>  <SYNONYMS>
bis(5-amidino-benzimidazolyl)methane zinc

$$$$
