
 OpenBabel10282417072D

 52 55  0  0  1  0  0  0  0  0999 V2000
   -5.5184   -1.7046    0.0000 C   0  0  0  0  0  0  0  0  0  0  0  0
   -4.7338   -1.9596    0.0000 C   0  0  0  0  0  0  0  0  0  0  0  0
   -4.1207   -1.4075    0.0000 O   0  0  0  0  0  0  0  0  0  0  0  0
   -3.3361   -1.6625    0.0000 C   0  0  0  0  0  0  0  0  0  0  0  0
   -2.7230   -1.1104    0.0000 C   0  0  0  0  0  0  0  0  0  0  0  0
   -1.9384   -1.3654    0.0000 C   0  0  0  0  0  0  0  0  0  0  0  0
   -1.7668   -2.1724    0.0000 N   0  0  0  0  0  0  0  0  0  0  0  0
   -2.3799   -2.7244    0.0000 C   0  0  0  0  0  0  0  0  0  0  0  0
   -3.1645   -2.4694    0.0000 N   0  0  0  0  0  0  0  0  0  0  0  0
   -2.2084   -3.5314    0.0000 N   0  0  0  0  0  0  0  0  0  0  0  0
   -1.4534   -0.6979    0.0000 N   0  0  0  0  0  0  0  0  0  0  0  0
   -1.9384   -0.0305    0.0000 C   0  0  0  0  0  0  0  0  0  0  0  0
   -2.7230   -0.2854    0.0000 N   0  0  0  0  0  0  0  0  0  0  0  0
   -0.6284   -0.6979    0.0000 C   0  0  1  0  0  0  0  0  0  0  0  0
   -0.1435   -1.3654    0.0000 C   0  0  2  0  0  0  0  0  0  0  0  0
    0.6411   -1.1104    0.0000 C   0  0  1  0  0  0  0  0  0  0  0  0
    0.6411   -0.2854    0.0000 C   0  0  2  0  0  0  0  0  0  0  0  0
   -0.1435   -0.0305    0.0000 O   0  0  0  0  0  0  0  0  0  0  0  0
    1.3556    0.1271    0.0000 C   0  0  0  0  0  0  0  0  0  0  0  0
    2.0701   -0.2854    0.0000 O   0  0  0  0  0  0  0  0  0  0  0  0
    2.0701   -1.1104    0.0000 P   0  0  2  0  0  0  0  0  0  0  0  0
    2.8825   -0.9672    0.0000 O   0  0  0  0  0  0  0  0  0  0  0  0
    1.3556   -1.5229    0.0000 O   0  0  0  0  0  0  0  0  0  0  0  0
    2.3522   -1.8857    0.0000 O   0  0  0  0  0  0  0  0  0  0  0  0
    1.8219   -2.5177    0.0000 C   0  0  0  0  0  0  0  0  0  0  0  0
    2.1041   -3.2929    0.0000 C   0  0  0  0  0  0  0  0  0  0  0  0
    1.0095   -2.3744    0.0000 C   0  0  0  0  0  0  0  0  0  0  0  0
   -0.7508   -1.9238    0.0000 C   0  0  0  0  0  0  0  0  0  0  0  0
    0.0196   -2.1741    0.0000 F   0  0  0  0  0  0  0  0  0  0  0  0
   -5.7408   -0.6580    0.0000 H   0  0  0  0  0  0  0  0  0  0  0  0
   -6.3136   -2.4205    0.0000 H   0  0  0  0  0  0  0  0  0  0  0  0
   -6.5360   -1.3739    0.0000 H   0  0  0  0  0  0  0  0  0  0  0  0
   -4.5113   -3.0062    0.0000 H   0  0  0  0  0  0  0  0  0  0  0  0
   -3.7162   -2.2902    0.0000 H   0  0  0  0  0  0  0  0  0  0  0  0
   -2.9401   -4.1901    0.0000 H   0  0  0  0  0  0  0  0  0  0  0  0
   -1.2721   -3.8357    0.0000 H   0  0  0  0  0  0  0  0  0  0  0  0
   -1.6195    0.9510    0.0000 H   0  0  0  0  0  0  0  0  0  0  0  0
   -1.1142   -1.6513    0.0000 H   0  0  0  0  0  0  0  0  0  0  0  0
    0.5293   -2.1745    0.0000 H   0  0  0  0  0  0  0  0  0  0  0  0
   -0.2245   -0.9143    0.0000 H   0  0  0  0  0  0  0  0  0  0  0  0
    1.3556    1.1971    0.0000 H   0  0  0  0  0  0  0  0  0  0  0  0
    2.2822    0.6621    0.0000 H   0  0  0  0  0  0  0  0  0  0  0  0
    1.1341   -3.3374    0.0000 H   0  0  0  0  0  0  0  0  0  0  0  0
    1.4164   -4.1126    0.0000 H   0  0  0  0  0  0  0  0  0  0  0  0
    3.1579   -3.4786    0.0000 H   0  0  0  0  0  0  0  0  0  0  0  0
    2.4701   -4.2984    0.0000 H   0  0  0  0  0  0  0  0  0  0  0  0
    0.6436   -1.3689    0.0000 H   0  0  0  0  0  0  0  0  0  0  0  0
    0.3217   -3.1940    0.0000 H   0  0  0  0  0  0  0  0  0  0  0  0
   -0.0442   -2.1885    0.0000 H   0  0  0  0  0  0  0  0  0  0  0  0
   -1.7718   -1.6038    0.0000 H   0  0  0  0  0  0  0  0  0  0  0  0
   -0.5174   -2.9680    0.0000 H   0  0  0  0  0  0  0  0  0  0  0  0
   -1.5385   -2.6480    0.0000 H   0  0  0  0  0  0  0  0  0  0  0  0
  1  2  1  0  0  0  0
  1 30  1  0  0  0  0
  1 31  1  0  0  0  0
  1 32  1  0  0  0  0
  2  3  1  0  0  0  0
  2 33  1  0  0  0  0
  2 34  1  0  0  0  0
  3  4  1  0  0  0  0
  4  5  2  0  0  0  0
  4  9  1  0  0  0  0
  5  6  1  0  0  0  0
  5 13  1  0  0  0  0
  6  7  2  0  0  0  0
  6 11  1  0  0  0  0
  7  8  1  0  0  0  0
  8  9  2  0  0  0  0
  8 10  1  0  0  0  0
 10 35  1  0  0  0  0
 10 36  1  0  0  0  0
 11 12  1  0  0  0  0
 12 13  2  0  0  0  0
 12 37  1  0  0  0  0
 14 11  1  0  0  0  0
 14 15  1  0  0  0  0
 14 18  1  0  0  0  0
 14 38  1  1  0  0  0
 15 16  1  0  0  0  0
 15 28  1  0  0  0  0
 15 29  1  1  0  0  0
 16 17  1  0  0  0  0
 16 23  1  0  0  0  0
 16 39  1  6  0  0  0
 17 18  1  0  0  0  0
 17 19  1  0  0  0  0
 17 40  1  1  0  0  0
 19 20  1  0  0  0  0
 19 41  1  0  0  0  0
 19 42  1  0  0  0  0
 21 20  1  0  0  0  0
 21 22  2  6  0  0  0
 21 23  1  0  0  0  0
 21 24  1  0  0  0  0
 24 25  1  0  0  0  0
 25 26  1  0  0  0  0
 25 27  1  0  0  0  0
 25 43  1  0  0  0  0
 26 44  1  0  0  0  0
 26 45  1  0  0  0  0
 26 46  1  0  0  0  0
 27 47  1  0  0  0  0
 27 48  1  0  0  0  0
 27 49  1  0  0  0  0
 28 50  1  0  0  0  0
 28 51  1  0  0  0  0
 28 52  1  0  0  0  0
M  END
>  <DRUGBANK_ID>
DB12896

>  <COMMON_NAME>
PSI-352938

>  <CAS_NUMBER>
1199809-32-9

>  <UNII>
3Z30JH9QX1

$$$$
