
 OpenBabel10282417072D

 43 45  0  0  0  0  0  0  0  0999 V2000
   -1.4292    1.2431    0.0000 C   0  0  0  0  0  0  0  0  0  0  0  0
   -0.7245    0.0057    0.0000 N   0  0  0  0  0  0  0  0  0  0  0  0
   -0.0200   -1.2317    0.0000 C   0  0  0  0  0  0  0  0  0  0  0  0
   -0.7074    1.6441    0.0000 C   0  0  0  0  0  0  0  0  0  0  0  0
   -1.4350    0.4181    0.0000 C   0  0  0  0  0  0  0  0  0  0  0  0
   -0.7245   -0.8192    0.0000 C   0  0  0  0  0  0  0  0  0  0  0  0
   -0.0200   -2.0567    0.0000 C   0  0  0  0  0  0  0  0  0  0  0  0
    0.6960   -2.4691    0.0000 C   0  0  0  0  0  0  0  0  0  0  0  0
    0.6960   -0.8192    0.0000 C   0  0  0  0  0  0  0  0  0  0  0  0
   -0.7418   -2.4691    0.0000 N   0  0  0  0  0  0  0  0  0  0  0  0
   -0.0028    1.2259    0.0000 O   0  0  0  0  0  0  0  0  0  0  0  0
   -0.7074    2.4691    0.0000 O   0  0  0  0  0  0  0  0  0  0  0  0
    1.4007   -2.0567    0.0000 C   0  0  0  0  0  0  0  0  0  0  0  0
   -1.4465   -1.2317    0.0000 C   0  0  0  0  0  0  0  0  0  0  0  0
    1.4007   -1.2317    0.0000 C   0  0  0  0  0  0  0  0  0  0  0  0
    0.7189    1.6270    0.0000 C   0  0  0  0  0  0  0  0  0  0  0  0
   -1.4465   -2.0567    0.0000 C   0  0  0  0  0  0  0  0  0  0  0  0
    1.4237    1.2088    0.0000 C   0  0  3  0  0  0  0  0  0  0  0  0
    2.1110   -2.4691    0.0000 Cl  0  0  0  0  0  0  0  0  0  0  0  0
   -2.1338    1.6556    0.0000 C   0  0  0  0  0  0  0  0  0  0  0  0
    1.4237    0.3839    0.0000 O   0  0  0  0  0  0  0  0  0  0  0  0
   -2.1511    0.0057    0.0000 C   0  0  0  0  0  0  0  0  0  0  0  0
    2.8616    1.1973    0.0000 O   0  0  0  0  0  0  0  0  0  0  0  0
    2.1455    1.6212    0.0000 C   0  0  0  0  0  0  0  0  0  0  0  0
   -2.8557    1.2489    0.0000 C   0  0  0  0  0  0  0  0  0  0  0  0
   -2.8616    0.4239    0.0000 C   0  0  0  0  0  0  0  0  0  0  0  0
    0.1287    0.4970    0.0000 H   0  0  0  0  0  0  0  0  0  0  0  0
    0.6996   -3.5011    0.0000 H   0  0  0  0  0  0  0  0  0  0  0  0
    0.6996    0.2128    0.0000 H   0  0  0  0  0  0  0  0  0  0  0  0
   -2.3391   -0.7137    0.0000 H   0  0  0  0  0  0  0  0  0  0  0  0
    2.2960   -0.7184    0.0000 H   0  0  0  0  0  0  0  0  0  0  0  0
    0.7340    2.6969    0.0000 H   0  0  0  0  0  0  0  0  0  0  0  0
    1.6524    2.1499    0.0000 H   0  0  0  0  0  0  0  0  0  0  0  0
   -2.3418   -2.5701    0.0000 H   0  0  0  0  0  0  0  0  0  0  0  0
    0.4939    0.6793    0.0000 H   0  0  0  0  0  0  0  0  0  0  0  0
   -2.1252    2.6876    0.0000 H   0  0  0  0  0  0  0  0  0  0  0  0
    0.5837   -0.1011    0.0000 H   0  0  0  0  0  0  0  0  0  0  0  0
   -2.1560   -1.0263    0.0000 H   0  0  0  0  0  0  0  0  0  0  0  0
    2.8510    0.2274    0.0000 H   0  0  0  0  0  0  0  0  0  0  0  0
    2.1537    2.6912    0.0000 H   0  0  0  0  0  0  0  0  0  0  0  0
    1.2221    2.1618    0.0000 H   0  0  0  0  0  0  0  0  0  0  0  0
   -3.7448    1.7728    0.0000 H   0  0  0  0  0  0  0  0  0  0  0  0
   -3.7593   -0.0851    0.0000 H   0  0  0  0  0  0  0  0  0  0  0  0
  2  5  1  0  0  0  0
  2 27  1  0  0  0  0
  3  6  2  0  0  0  0
  4  1  1  0  0  0  0
  5  1  2  0  0  0  0
  6  2  1  0  0  0  0
  7  3  1  0  0  0  0
  8  7  1  0  0  0  0
  8 28  1  0  0  0  0
  9  3  1  0  0  0  0
  9 29  1  0  0  0  0
 10 17  1  0  0  0  0
 10  7  2  0  0  0  0
 11  4  1  0  0  0  0
 12  4  2  0  0  0  0
 13 15  1  0  0  0  0
 13  8  2  0  0  0  0
 14  6  1  0  0  0  0
 14 30  1  0  0  0  0
 15  9  2  0  0  0  0
 15 31  1  0  0  0  0
 16 11  1  0  0  0  0
 16 32  1  0  0  0  0
 16 33  1  0  0  0  0
 17 14  2  0  0  0  0
 17 34  1  0  0  0  0
 18 16  1  0  0  0  0
 18 35  1  0  0  0  0
 19 13  1  0  0  0  0
 20  1  1  0  0  0  0
 20 36  1  0  0  0  0
 21 18  1  0  0  0  0
 21 37  1  0  0  0  0
 22  5  1  0  0  0  0
 22 38  1  0  0  0  0
 23 24  1  0  0  0  0
 23 39  1  0  0  0  0
 24 18  1  0  0  0  0
 24 40  1  0  0  0  0
 24 41  1  0  0  0  0
 25 20  2  0  0  0  0
 25 42  1  0  0  0  0
 26 25  1  0  0  0  0
 26 22  2  0  0  0  0
 26 43  1  0  0  0  0
M  END
>  <DRUGBANK_ID>
DB08963

>  <COMMON_NAME>
Glafenine

>  <CAS_NUMBER>
3820-67-5

>  <UNII>
46HL4I09AH

>  <SYNONYMS>
Glafenina; Glafenine; Glaf√©nine; Glafeninum; Glycerylaminophenaquine

$$$$
