
 OpenBabel10282417072D

 41 43  0  0  1  0  0  0  0  0999 V2000
    4.7079   -1.2375    0.0000 C   0  0  0  0  0  0  0  0  0  0  0  0
    3.9934    0.8250    0.0000 C   0  0  0  0  0  0  0  0  0  0  0  0
    3.2789    1.2375    0.0000 C   0  0  0  0  0  0  0  0  0  0  0  0
    3.2789   -0.4125    0.0000 C   0  0  0  0  0  0  0  0  0  0  0  0
    1.7798    3.9841    0.0000 C   0  0  0  0  0  0  0  0  0  0  0  0
    1.2949    0.4125    0.0000 C   0  0  0  0  0  0  0  0  0  0  0  0
    3.9934    0.0000    0.0000 C   0  0  0  0  0  0  0  0  0  0  0  0
    2.5645    0.0000    0.0000 C   0  0  0  0  0  0  0  0  0  0  0  0
    2.5645    0.8250    0.0000 C   0  0  0  0  0  0  0  0  0  0  0  0
    1.5249    3.1994    0.0000 C   0  0  2  0  0  0  0  0  0  0  0  0
    0.7403    2.9445    0.0000 C   0  0  2  0  0  0  0  0  0  0  0  0
    0.7403    2.1195    0.0000 C   0  0  2  0  0  0  0  0  0  0  0  0
    1.5249    1.8646    0.0000 C   0  0  1  0  0  0  0  0  0  0  0  0
    1.7798   -0.2549    0.0000 N   0  0  0  0  0  0  0  0  0  0  0  0
    1.7798    1.0799    0.0000 N   0  0  0  0  0  0  0  0  0  0  0  0
    0.0728    3.4294    0.0000 O   0  0  0  0  0  0  0  0  0  0  0  0
    0.0728    1.6346    0.0000 O   0  0  0  0  0  0  0  0  0  0  0  0
    3.0967    5.7248    0.0000 O   0  0  0  0  0  0  0  0  0  0  0  0
    3.6264    4.6853    0.0000 O   0  0  0  0  0  0  0  0  0  0  0  0
    2.0571    5.1951    0.0000 O   0  0  0  0  0  0  0  0  0  0  0  0
    4.7079   -0.4125    0.0000 O   0  0  0  0  0  0  0  0  0  0  0  0
    2.5868    4.1556    0.0000 O   0  0  0  0  0  0  0  0  0  0  0  0
    2.0098    2.5320    0.0000 O   0  0  0  0  0  0  0  0  0  0  0  0
    2.8417    4.9402    0.0000 P   0  0  0  0  0  0  0  0  0  0  0  0
    0.7772    3.5481    0.0000 H   0  0  0  0  0  0  0  0  0  0  0  0
    0.5829    3.7543    0.0000 H   0  0  0  0  0  0  0  0  0  0  0  0
    0.0052    2.4940    0.0000 H   0  0  0  0  0  0  0  0  0  0  0  0
    0.9415    1.2812    0.0000 H   0  0  0  0  0  0  0  0  0  0  0  0
    3.7813   -1.7725    0.0000 H   0  0  0  0  0  0  0  0  0  0  0  0
    5.6345   -1.7725    0.0000 H   0  0  0  0  0  0  0  0  0  0  0  0
    4.7079   -2.3075    0.0000 H   0  0  0  0  0  0  0  0  0  0  0  0
    4.8871    1.3410    0.0000 H   0  0  0  0  0  0  0  0  0  0  0  0
    3.2789    2.2695    0.0000 H   0  0  0  0  0  0  0  0  0  0  0  0
    3.2789   -1.4445    0.0000 H   0  0  0  0  0  0  0  0  0  0  0  0
    1.0638    4.7793    0.0000 H   0  0  0  0  0  0  0  0  0  0  0  0
    2.1105    5.0017    0.0000 H   0  0  0  0  0  0  0  0  0  0  0  0
    0.2629    0.4125    0.0000 H   0  0  0  0  0  0  0  0  0  0  0  0
    0.1741    4.3941    0.0000 H   0  0  0  0  0  0  0  0  0  0  0  0
   -0.8133    2.0292    0.0000 H   0  0  0  0  0  0  0  0  0  0  0  0
    4.0455    5.9264    0.0000 H   0  0  0  0  0  0  0  0  0  0  0  0
    3.8281    3.7365    0.0000 H   0  0  0  0  0  0  0  0  0  0  0  0
  1 29  1  0  0  0  0
  1 30  1  0  0  0  0
  1 31  1  0  0  0  0
  2 32  1  0  0  0  0
  3  2  2  0  0  0  0
  3 33  1  0  0  0  0
  4 34  1  0  0  0  0
  5 35  1  0  0  0  0
  5 36  1  0  0  0  0
  6 37  1  0  0  0  0
  7  2  1  0  0  0  0
  7  4  2  0  0  0  0
  8  4  1  0  0  0  0
  9  3  1  0  0  0  0
  9  8  2  0  0  0  0
 10  5  1  0  0  0  0
 10 25  1  6  0  0  0
 11 10  1  0  0  0  0
 11 16  1  0  0  0  0
 11 26  1  1  0  0  0
 12 11  1  0  0  0  0
 12 17  1  0  0  0  0
 12 27  1  1  0  0  0
 13 12  1  0  0  0  0
 13 15  1  0  0  0  0
 13 28  1  1  0  0  0
 14  6  2  0  0  0  0
 14  8  1  0  0  0  0
 15  6  1  0  0  0  0
 15  9  1  0  0  0  0
 16 38  1  0  0  0  0
 17 39  1  0  0  0  0
 18 40  1  0  0  0  0
 19 41  1  0  0  0  0
 21  1  1  0  0  0  0
 21  7  1  0  0  0  0
 22  5  1  0  0  0  0
 23 10  1  0  0  0  0
 23 13  1  0  0  0  0
 24 18  1  0  0  0  0
 24 19  1  0  0  0  0
 24 20  2  0  0  0  0
 24 22  1  0  0  0  0
M  END
>  <DRUGBANK_ID>
DB04176

>  <SECONDARY_ACCESSION_NUMBERS>
EXPT02620

>  <COMMON_NAME>
Phosporic Acid Mono-[3,4-Dihydroxy-5-(5-Methoxy-Benzoimidazol-1-Yl)-Tetrahydro-Furan-2-Ylmethyl] Ester

$$$$
