
 OpenBabel10282417072D

127129  0  0  0  0  0  0  0  0999 V2000
    2.5033   -1.8512    0.0000 O   0  0  0  0  0  0  0  0  0  0  0  0
    2.5033   -2.6762    0.0000 C   0  0  0  0  0  0  0  0  0  0  0  0
    3.2179   -1.4388    0.0000 C   0  0  0  0  0  0  0  0  0  0  0  0
    3.2179   -3.0887    0.0000 O   0  0  0  0  0  0  0  0  0  0  0  0
    3.9323   -1.8512    0.0000 C   0  0  0  0  0  0  0  0  0  0  0  0
    3.9323   -2.6762    0.0000 C   0  0  1  0  0  0  0  0  0  0  0  0
    1.7889   -1.4389    0.0000 O   0  0  0  0  0  0  0  0  0  0  0  0
    1.0744   -1.8513    0.0000 C   0  0  1  0  0  0  0  0  0  0  0  0
    1.7889   -3.0887    0.0000 C   0  0  0  0  0  0  0  0  0  0  0  0
    1.0745   -2.6763    0.0000 C   0  0  1  0  0  0  0  0  0  0  0  0
    3.2179   -0.6138    0.0000 C   0  0  0  0  0  0  0  0  0  0  0  0
    2.5035   -0.2012    0.0000 C   0  0  0  0  0  0  0  0  0  0  0  0
    1.0742   -0.2014    0.0000 C   0  0  0  0  0  0  0  0  0  0  0  0
    0.3600   -1.4390    0.0000 C   0  0  2  0  0  0  0  0  0  0  0  0
    0.3599   -0.6141    0.0000 C   0  0  1  0  0  0  0  0  0  0  0  0
    2.5028    0.6242    0.0000 C   0  0  0  0  0  0  0  0  0  0  0  0
    1.0738    0.6234    0.0000 C   0  0  2  0  0  0  0  0  0  0  0  0
    1.7881    1.0362    0.0000 C   0  0  1  0  0  0  0  0  0  0  0  0
    4.6491   -3.0887    0.0000 C   0  0  0  0  0  0  0  0  0  0  0  0
    0.3552   -3.0986    0.0000 O   0  0  0  0  0  0  0  0  0  0  0  0
    1.7864   -0.6138    0.0000 C   0  0  0  0  0  0  0  0  0  0  0  0
    0.3552    1.0361    0.0000 C   0  0  0  0  0  0  0  0  0  0  0  0
    1.7864    1.8611    0.0000 O   0  0  0  0  0  0  0  0  0  0  0  0
   -0.3604   -0.2062    0.0000 C   0  0  0  0  0  0  0  0  0  0  0  0
   -0.3604    0.6187    0.0000 C   0  0  0  0  0  0  0  0  0  0  0  0
   -1.0761    1.0361    0.0000 O   0  0  0  0  0  0  0  0  0  0  0  0
    0.3552   -3.9236    0.0000 C   0  0  0  0  0  0  0  0  0  0  0  0
   -0.3592   -4.3361    0.0000 O   0  0  0  0  0  0  0  0  0  0  0  0
    1.0696   -4.3361    0.0000 C   0  0  0  0  0  0  0  0  0  0  0  0
   -0.3604   -1.8562    0.0000 O   0  0  0  0  0  0  0  0  0  0  0  0
   -1.0755   -1.4448    0.0000 C   0  0  2  0  0  0  0  0  0  0  0  0
   -1.0766   -0.6198    0.0000 O   0  0  0  0  0  0  0  0  0  0  0  0
   -1.7894   -1.8581    0.0000 C   0  0  1  0  0  0  0  0  0  0  0  0
   -1.7917   -0.2081    0.0000 C   0  0  1  0  0  0  0  0  0  0  0  0
   -2.5044   -1.4467    0.0000 C   0  0  2  0  0  0  0  0  0  0  0  0
   -2.5055   -0.6217    0.0000 C   0  0  2  0  0  0  0  0  0  0  0  0
   -1.7917    0.6187    0.0000 C   0  0  0  0  0  0  0  0  0  0  0  0
   -3.2231   -0.2062    0.0000 O   0  0  0  0  0  0  0  0  0  0  0  0
   -3.2231   -1.8661    0.0000 N   0  0  0  0  0  0  0  0  0  0  0  0
   -3.2191   -2.6911    0.0000 C   0  0  0  0  0  0  0  0  0  0  0  0
   -3.9395   -1.4572    0.0000 C   0  0  0  0  0  0  0  0  0  0  0  0
   -1.7917   -2.6812    0.0000 O   0  0  0  0  0  0  0  0  0  0  0  0
   -3.2221    0.6187    0.0000 C   0  0  1  0  0  0  0  0  0  0  0  0
   -2.5071    1.0303    0.0000 C   0  0  0  0  0  0  0  0  0  0  0  0
   -3.9361    1.0320    0.0000 O   0  0  0  0  0  0  0  0  0  0  0  0
   -2.5062    1.8553    0.0000 C   0  0  1  0  0  0  0  0  0  0  0  0
   -3.9352    1.8570    0.0000 C   0  0  2  0  0  0  0  0  0  0  0  0
   -3.2202    2.2686    0.0000 C   0  0  2  0  0  0  0  0  0  0  0  0
   -1.6812    1.8544    0.0000 C   0  0  0  0  0  0  0  0  0  0  0  0
   -2.0929    2.5694    0.0000 O   0  0  0  0  0  0  0  0  0  0  0  0
   -3.2231    3.0936    0.0000 O   0  0  0  0  0  0  0  0  0  0  0  0
   -2.5074    3.5111    0.0000 C   0  0  0  0  0  0  0  0  0  0  0  0
   -2.5074    4.3361    0.0000 O   0  0  0  0  0  0  0  0  0  0  0  0
   -1.7920    3.1002    0.0000 C   0  0  0  0  0  0  0  0  0  0  0  0
   -1.0761    3.5111    0.0000 C   0  0  0  0  0  0  0  0  0  0  0  0
   -0.3627    3.0967    0.0000 C   0  0  0  0  0  0  0  0  0  0  0  0
   -1.0740    4.3361    0.0000 C   0  0  0  0  0  0  0  0  0  0  0  0
   -4.6491    2.2703    0.0000 C   0  0  0  0  0  0  0  0  0  0  0  0
    2.3242   -1.9548    0.0000 H   0  0  0  0  0  0  0  0  0  0  0  0
    4.8589   -1.3162    0.0000 H   0  0  0  0  0  0  0  0  0  0  0  0
    4.8590   -2.3862    0.0000 H   0  0  0  0  0  0  0  0  0  0  0  0
    3.9331   -3.7462    0.0000 H   0  0  0  0  0  0  0  0  0  0  0  0
    2.0010   -2.3863    0.0000 H   0  0  0  0  0  0  0  0  0  0  0  0
    1.7890   -4.1587    0.0000 H   0  0  0  0  0  0  0  0  0  0  0  0
    0.8623   -3.6238    0.0000 H   0  0  0  0  0  0  0  0  0  0  0  0
    0.1459   -2.1447    0.0000 H   0  0  0  0  0  0  0  0  0  0  0  0
    4.1117   -0.0979    0.0000 H   0  0  0  0  0  0  0  0  0  0  0  0
    1.6099   -0.7175    0.0000 H   0  0  0  0  0  0  0  0  0  0  0  0
    2.0011   -0.7360    0.0000 H   0  0  0  0  0  0  0  0  0  0  0  0
    2.0006    0.3340    0.0000 H   0  0  0  0  0  0  0  0  0  0  0  0
    0.3608   -2.5090    0.0000 H   0  0  0  0  0  0  0  0  0  0  0  0
    0.3553    0.4559    0.0000 H   0  0  0  0  0  0  0  0  0  0  0  0
    3.3961    1.1409    0.0000 H   0  0  0  0  0  0  0  0  0  0  0  0
    0.1479    0.0871    0.0000 H   0  0  0  0  0  0  0  0  0  0  0  0
    2.7140    1.5725    0.0000 H   0  0  0  0  0  0  0  0  0  0  0  0
    4.6506   -4.1587    0.0000 H   0  0  0  0  0  0  0  0  0  0  0  0
    5.5750   -2.5524    0.0000 H   0  0  0  0  0  0  0  0  0  0  0  0
    5.5765   -3.6224    0.0000 H   0  0  0  0  0  0  0  0  0  0  0  0
    2.7114   -0.0760    0.0000 H   0  0  0  0  0  0  0  0  0  0  0  0
    0.8581   -0.0816    0.0000 H   0  0  0  0  0  0  0  0  0  0  0  0
    1.7832    0.4562    0.0000 H   0  0  0  0  0  0  0  0  0  0  0  0
    0.3528    2.1061    0.0000 H   0  0  0  0  0  0  0  0  0  0  0  0
   -0.5702    0.4990    0.0000 H   0  0  0  0  0  0  0  0  0  0  0  0
   -0.5727    1.5690    0.0000 H   0  0  0  0  0  0  0  0  0  0  0  0
    2.6254    2.3478    0.0000 H   0  0  0  0  0  0  0  0  0  0  0  0
   -1.2848   -0.7451    0.0000 H   0  0  0  0  0  0  0  0  0  0  0  0
   -1.2882    0.3269    0.0000 H   0  0  0  0  0  0  0  0  0  0  0  0
    0.5345    1.1327    0.0000 H   0  0  0  0  0  0  0  0  0  0  0  0
    1.0696   -5.4061    0.0000 H   0  0  0  0  0  0  0  0  0  0  0  0
    1.9963   -3.8011    0.0000 H   0  0  0  0  0  0  0  0  0  0  0  0
    1.9962   -4.8711    0.0000 H   0  0  0  0  0  0  0  0  0  0  0  0
   -0.1496   -0.9085    0.0000 H   0  0  0  0  0  0  0  0  0  0  0  0
   -0.8632   -2.3938    0.0000 H   0  0  0  0  0  0  0  0  0  0  0  0
   -0.8654    0.3275    0.0000 H   0  0  0  0  0  0  0  0  0  0  0  0
   -2.5011   -2.5167    0.0000 H   0  0  0  0  0  0  0  0  0  0  0  0
   -2.5057    0.4483    0.0000 H   0  0  0  0  0  0  0  0  0  0  0  0
   -0.8651    1.1537    0.0000 H   0  0  0  0  0  0  0  0  0  0  0  0
   -2.7183    1.1537    0.0000 H   0  0  0  0  0  0  0  0  0  0  0  0
   -1.7917    1.6887    0.0000 H   0  0  0  0  0  0  0  0  0  0  0  0
   -4.1431   -3.2306    0.0000 H   0  0  0  0  0  0  0  0  0  0  0  0
   -2.2899   -3.2216    0.0000 H   0  0  0  0  0  0  0  0  0  0  0  0
   -3.2139   -3.7611    0.0000 H   0  0  0  0  0  0  0  0  0  0  0  0
   -3.9448   -0.3872    0.0000 H   0  0  0  0  0  0  0  0  0  0  0  0
   -4.8635   -1.9968    0.0000 H   0  0  0  0  0  0  0  0  0  0  0  0
   -4.8688   -0.9268    0.0000 H   0  0  0  0  0  0  0  0  0  0  0  0
   -2.6331   -3.1639    0.0000 H   0  0  0  0  0  0  0  0  0  0  0  0
   -2.2961    0.0826    0.0000 H   0  0  0  0  0  0  0  0  0  0  0  0
   -1.5811    0.4942    0.0000 H   0  0  0  0  0  0  0  0  0  0  0  0
   -1.5798    1.5642    0.0000 H   0  0  0  0  0  0  0  0  0  0  0  0
   -4.8625    1.3231    0.0000 H   0  0  0  0  0  0  0  0  0  0  0  0
   -2.2942    2.8047    0.0000 H   0  0  0  0  0  0  0  0  0  0  0  0
   -1.1472    0.9272    0.0000 H   0  0  0  0  0  0  0  0  0  0  0  0
   -1.1452    2.7805    0.0000 H   0  0  0  0  0  0  0  0  0  0  0  0
   -0.6112    1.8532    0.0000 H   0  0  0  0  0  0  0  0  0  0  0  0
   -1.1229    2.5684    0.0000 H   0  0  0  0  0  0  0  0  0  0  0  0
   -1.7922    2.0302    0.0000 H   0  0  0  0  0  0  0  0  0  0  0  0
   -0.8661    2.5640    0.0000 H   0  0  0  0  0  0  0  0  0  0  0  0
   -0.1481    4.0437    0.0000 H   0  0  0  0  0  0  0  0  0  0  0  0
   -0.3655    2.0267    0.0000 H   0  0  0  0  0  0  0  0  0  0  0  0
    0.5654    3.6292    0.0000 H   0  0  0  0  0  0  0  0  0  0  0  0
    0.5625    2.5593    0.0000 H   0  0  0  0  0  0  0  0  0  0  0  0
   -0.1460    4.8687    0.0000 H   0  0  0  0  0  0  0  0  0  0  0  0
   -1.9993    4.8735    0.0000 H   0  0  0  0  0  0  0  0  0  0  0  0
   -1.0713    5.4061    0.0000 H   0  0  0  0  0  0  0  0  0  0  0  0
   -4.6478    3.3403    0.0000 H   0  0  0  0  0  0  0  0  0  0  0  0
   -5.5764    1.7364    0.0000 H   0  0  0  0  0  0  0  0  0  0  0  0
   -5.5751    2.8064    0.0000 H   0  0  0  0  0  0  0  0  0  0  0  0
  2  1  2  0  0  0  0
  3 59  1  0  0  0  0
  4  2  1  0  0  0  0
  5  3  1  0  0  0  0
  5 60  1  0  0  0  0
  5 61  1  0  0  0  0
  6  4  1  0  0  0  0
  6  5  1  0  0  0  0
  6 19  1  0  0  0  0
  6 62  1  6  0  0  0
  7 21  1  0  0  0  0
  8  7  1  0  0  0  0
  8 63  1  6  0  0  0
  9  2  1  0  0  0  0
  9 64  1  0  0  0  0
  9 65  1  0  0  0  0
 10  8  1  0  0  0  0
 10  9  1  0  0  0  0
 10 20  1  0  0  0  0
 10 66  1  6  0  0  0
 11  3  2  0  0  0  0
 11 67  1  0  0  0  0
 12 11  1  0  0  0  0
 12 68  1  0  0  0  0
 13 69  1  0  0  0  0
 13 70  1  0  0  0  0
 14  8  1  0  0  0  0
 14 30  1  0  0  0  0
 14 71  1  6  0  0  0
 15 13  1  0  0  0  0
 15 14  1  0  0  0  0
 15 24  1  0  0  0  0
 15 72  1  6  0  0  0
 16 12  2  0  0  0  0
 16 73  1  0  0  0  0
 17 13  1  0  0  0  0
 17 22  1  0  0  0  0
 17 74  1  6  0  0  0
 18 16  1  0  0  0  0
 18 17  1  0  0  0  0
 18 23  1  0  0  0  0
 18 75  1  6  0  0  0
 19 76  1  0  0  0  0
 19 77  1  0  0  0  0
 19 78  1  0  0  0  0
 20 27  1  0  0  0  0
 21 79  1  0  0  0  0
 21 80  1  0  0  0  0
 21 81  1  0  0  0  0
 22 82  1  0  0  0  0
 22 83  1  0  0  0  0
 22 84  1  0  0  0  0
 23 85  1  0  0  0  0
 24 25  1  0  0  0  0
 24 86  1  0  0  0  0
 24 87  1  0  0  0  0
 25 88  1  0  0  0  0
 26 25  2  0  0  0  0
 27 28  2  0  0  0  0
 27 29  1  0  0  0  0
 29 89  1  0  0  0  0
 29 90  1  0  0  0  0
 29 91  1  0  0  0  0
 31 30  1  0  0  0  0
 31 92  1  6  0  0  0
 32 31  1  0  0  0  0
 33 31  1  0  0  0  0
 33 42  1  0  0  0  0
 33 93  1  1  0  0  0
 34 32  1  0  0  0  0
 34 37  1  0  0  0  0
 34 94  1  6  0  0  0
 35 33  1  0  0  0  0
 35 39  1  0  0  0  0
 35 95  1  6  0  0  0
 36 34  1  0  0  0  0
 36 35  1  0  0  0  0
 36 38  1  0  0  0  0
 36 96  1  1  0  0  0
 37 97  1  0  0  0  0
 37 98  1  0  0  0  0
 37 99  1  0  0  0  0
 39 40  1  0  0  0  0
 39 41  1  0  0  0  0
 40100  1  0  0  0  0
 40101  1  0  0  0  0
 40102  1  0  0  0  0
 41103  1  0  0  0  0
 41104  1  0  0  0  0
 41105  1  0  0  0  0
 42106  1  0  0  0  0
 43 38  1  0  0  0  0
 43107  1  1  0  0  0
 44 43  1  0  0  0  0
 44108  1  0  0  0  0
 44109  1  0  0  0  0
 45 43  1  0  0  0  0
 46 44  1  0  0  0  0
 46 49  1  0  0  0  0
 46 50  1  6  0  0  0
 47 45  1  0  0  0  0
 47 58  1  0  0  0  0
 47110  1  6  0  0  0
 48 46  1  0  0  0  0
 48 47  1  0  0  0  0
 48 51  1  0  0  0  0
 48111  1  1  0  0  0
 49112  1  0  0  0  0
 49113  1  0  0  0  0
 49114  1  0  0  0  0
 50115  1  0  0  0  0
 51 52  1  0  0  0  0
 52 53  2  0  0  0  0
 52 54  1  0  0  0  0
 54 55  1  0  0  0  0
 54116  1  0  0  0  0
 54117  1  0  0  0  0
 55 56  1  0  0  0  0
 55 57  1  0  0  0  0
 55118  1  0  0  0  0
 56119  1  0  0  0  0
 56120  1  0  0  0  0
 56121  1  0  0  0  0
 57122  1  0  0  0  0
 57123  1  0  0  0  0
 57124  1  0  0  0  0
 58125  1  0  0  0  0
 58126  1  0  0  0  0
 58127  1  0  0  0  0
M  END
>  <DRUGBANK_ID>
DB01321

>  <COMMON_NAME>
Josamycin

>  <CAS_NUMBER>
16846-24-5

>  <UNII>
HV13HFS217

>  <SYNONYMS>
JM; Josamicina; Josamycin; Josamycine; Josamycinum; Kitasamycin A3; Leucomycin A3; leucomycin V 3-acetate 4B-(3-methylbutanoate); leucomycin V 3-acetate 4Î²-(3-methylbutanoate); Turimycin A5

$$$$
