
 OpenBabel10282417072D

 52 58  0  0  1  0  0  0  0  0999 V2000
   -5.9339   -1.5382    0.0000 F   0  0  0  0  0  0  0  0  0  0  0  0
   -5.4287   -2.1904    0.0000 C   0  0  0  0  0  0  0  0  0  0  0  0
   -6.0809   -2.6956    0.0000 F   0  0  0  0  0  0  0  0  0  0  0  0
   -4.7765   -1.6852    0.0000 F   0  0  0  0  0  0  0  0  0  0  0  0
   -4.9235   -2.8426    0.0000 C   0  0  0  0  0  0  0  0  0  0  0  0
   -4.1061   -2.7312    0.0000 C   0  0  0  0  0  0  0  0  0  0  0  0
   -3.6009   -3.3834    0.0000 C   0  0  0  0  0  0  0  0  0  0  0  0
   -3.9131   -4.1471    0.0000 C   0  0  0  0  0  0  0  0  0  0  0  0
   -4.7305   -4.2585    0.0000 C   0  0  0  0  0  0  0  0  0  0  0  0
   -5.2357   -3.6063    0.0000 C   0  0  0  0  0  0  0  0  0  0  0  0
   -3.2833   -4.6800    0.0000 N   0  0  0  0  0  0  0  0  0  0  0  0
   -2.5819   -4.2457    0.0000 C   0  0  0  0  0  0  0  0  0  0  0  0
   -2.7781   -3.4444    0.0000 N   0  0  0  0  0  0  0  0  0  0  0  0
   -1.8182   -4.5580    0.0000 C   0  0  2  0  0  0  0  0  0  0  0  0
   -1.3130   -5.2102    0.0000 C   0  0  1  0  0  0  0  0  0  0  0  0
   -0.6833   -5.7431    0.0000 O   0  0  0  0  0  0  0  0  0  0  0  0
    0.0182   -5.3089    0.0000 C   0  0  0  0  0  0  0  0  0  0  0  0
   -0.1781   -4.5075    0.0000 C   0  0  0  0  0  0  0  0  0  0  0  0
    0.4178   -3.9369    0.0000 C   0  0  0  0  0  0  0  0  0  0  0  0
    1.2099   -4.1676    0.0000 C   0  0  0  0  0  0  0  0  0  0  0  0
    1.8057   -3.5970    0.0000 O   0  0  0  0  0  0  0  0  0  0  0  0
    2.5978   -3.8277    0.0000 C   0  0  0  0  0  0  0  0  0  0  0  0
    3.1936   -3.2571    0.0000 C   0  0  0  0  0  0  0  0  0  0  0  0
    2.9974   -2.4558    0.0000 C   0  0  0  0  0  0  0  0  0  0  0  0
    3.5932   -1.8852    0.0000 C   0  0  0  0  0  0  0  0  0  0  0  0
    4.3853   -2.1159    0.0000 C   0  0  0  0  0  0  0  0  0  0  0  0
    4.9812   -1.5452    0.0000 O   0  0  0  0  0  0  0  0  0  0  0  0
    4.5816   -2.9172    0.0000 N   0  0  0  0  0  0  0  0  0  0  0  0
    3.9857   -3.4878    0.0000 C   0  0  0  0  0  0  0  0  0  0  0  0
    4.1820   -4.2891    0.0000 N   0  0  0  0  0  0  0  0  0  0  0  0
    3.5861   -4.8597    0.0000 C   0  0  0  0  0  0  0  0  0  0  0  0
    2.7940   -4.6290    0.0000 C   0  0  0  0  0  0  0  0  0  0  0  0
    1.4061   -4.9689    0.0000 C   0  0  0  0  0  0  0  0  0  0  0  0
    0.8103   -5.5396    0.0000 C   0  0  0  0  0  0  0  0  0  0  0  0
   -1.0008   -4.4466    0.0000 C   0  0  1  0  0  0  0  0  0  0  0  0
   -3.7155   -1.7760    0.0000 H   0  0  0  0  0  0  0  0  0  0  0  0
   -5.1211   -5.2137    0.0000 H   0  0  0  0  0  0  0  0  0  0  0  0
   -6.2582   -3.7457    0.0000 H   0  0  0  0  0  0  0  0  0  0  0  0
   -2.1421   -2.6929    0.0000 H   0  0  0  0  0  0  0  0  0  0  0  0
   -2.4657   -5.4098    0.0000 H   0  0  0  0  0  0  0  0  0  0  0  0
   -0.5402   -4.4701    0.0000 H   0  0  0  0  0  0  0  0  0  0  0  0
    0.1723   -2.9345    0.0000 H   0  0  0  0  0  0  0  0  0  0  0  0
    1.9701   -2.1566    0.0000 H   0  0  0  0  0  0  0  0  0  0  0  0
    2.7429   -1.4165    0.0000 H   0  0  0  0  0  0  0  0  0  0  0  0
    3.3387   -0.8459    0.0000 H   0  0  0  0  0  0  0  0  0  0  0  0
    4.3660   -1.1451    0.0000 H   0  0  0  0  0  0  0  0  0  0  0  0
    5.5268   -3.1925    0.0000 H   0  0  0  0  0  0  0  0  0  0  0  0
    3.8316   -5.8621    0.0000 H   0  0  0  0  0  0  0  0  0  0  0  0
    2.0486   -5.3428    0.0000 H   0  0  0  0  0  0  0  0  0  0  0  0
    2.3969   -5.2575    0.0000 H   0  0  0  0  0  0  0  0  0  0  0  0
    1.0558   -6.5420    0.0000 H   0  0  0  0  0  0  0  0  0  0  0  0
   -0.9679   -5.5161    0.0000 H   0  0  0  0  0  0  0  0  0  0  0  0
  1  2  1  0  0  0  0
  2  3  1  0  0  0  0
  2  4  1  0  0  0  0
  2  5  1  0  0  0  0
  5  6  2  0  0  0  0
  5 10  1  0  0  0  0
  6  7  1  0  0  0  0
  6 36  1  0  0  0  0
  7  8  2  0  0  0  0
  7 13  1  0  0  0  0
  8  9  1  0  0  0  0
  8 11  1  0  0  0  0
  9 10  2  0  0  0  0
  9 37  1  0  0  0  0
 10 38  1  0  0  0  0
 11 12  2  0  0  0  0
 12 13  1  0  0  0  0
 13 39  1  0  0  0  0
 14 12  1  0  0  0  0
 14 15  1  0  0  0  0
 14 35  1  0  0  0  0
 14 40  1  6  0  0  0
 15 16  1  0  0  0  0
 15 35  1  0  0  0  0
 15 41  1  1  0  0  0
 16 17  1  0  0  0  0
 17 18  2  0  0  0  0
 17 34  1  0  0  0  0
 18 19  1  0  0  0  0
 19 20  2  0  0  0  0
 19 42  1  0  0  0  0
 20 21  1  0  0  0  0
 20 33  1  0  0  0  0
 21 22  1  0  0  0  0
 22 23  2  0  0  0  0
 22 32  1  0  0  0  0
 23 24  1  0  0  0  0
 23 29  1  0  0  0  0
 24 25  1  0  0  0  0
 24 43  1  0  0  0  0
 24 44  1  0  0  0  0
 25 26  1  0  0  0  0
 25 45  1  0  0  0  0
 25 46  1  0  0  0  0
 26 27  2  0  0  0  0
 26 28  1  0  0  0  0
 28 29  1  0  0  0  0
 28 47  1  0  0  0  0
 29 30  2  0  0  0  0
 30 31  1  0  0  0  0
 31 32  2  0  0  0  0
 31 48  1  0  0  0  0
 32 49  1  0  0  0  0
 33 34  2  0  0  0  0
 33 50  1  0  0  0  0
 34 51  1  0  0  0  0
 35 18  1  0  0  0  0
 35 52  1  1  0  0  0
M  END
>  <DRUGBANK_ID>
DB14773

>  <COMMON_NAME>
Lifirafenib

>  <CAS_NUMBER>
1446090-79-4

>  <UNII>
8762XZS5ZF

>  <SYNONYMS>
Lifirafenib

$$$$
