
 OpenBabel10282417072D

 30 31  0  0  1  0  0  0  0  0999 V2000
    1.8500    2.0625    0.0000 N   0  0  0  0  0  0  0  0  0  0  0  0
    2.5645    2.4750    0.0000 C   0  0  1  0  0  0  0  0  0  0  0  0
    3.2789    2.0625    0.0000 C   0  0  0  0  0  0  0  0  0  0  0  0
    3.2789    1.2375    0.0000 N   0  0  0  0  0  0  0  0  0  0  0  0
    3.9934    0.8250    0.0000 C   0  0  0  0  0  0  0  0  0  0  0  0
    4.7079    1.2375    0.0000 O   0  0  0  0  0  0  0  0  0  0  0  0
    3.9934    0.0000    0.0000 N   0  0  0  0  0  0  0  0  0  0  0  0
    3.2789   -0.4125    0.0000 C   0  0  0  0  0  0  0  0  0  0  0  0
    3.2789   -1.2375    0.0000 O   0  0  0  0  0  0  0  0  0  0  0  0
    2.5645    0.0000    0.0000 C   0  0  0  0  0  0  0  0  0  0  0  0
    2.5645    0.8250    0.0000 C   0  0  0  0  0  0  0  0  0  0  0  0
    1.7798    1.0799    0.0000 C   0  0  0  0  0  0  0  0  0  0  0  0
    1.2949    0.4125    0.0000 C   0  0  0  0  0  0  0  0  0  0  0  0
    1.7798   -0.2549    0.0000 C   0  0  0  0  0  0  0  0  0  0  0  0
    2.5645    3.3000    0.0000 C   0  0  0  0  0  0  0  0  0  0  0  0
    1.8500    3.7125    0.0000 O   0  0  0  0  0  0  0  0  0  0  0  0
    3.2789    3.7125    0.0000 O   0  0  0  0  0  0  0  0  0  0  0  0
    0.9667    2.5725    0.0000 H   0  0  0  0  0  0  0  0  0  0  0  0
    1.8500    1.0425    0.0000 H   0  0  0  0  0  0  0  0  0  0  0  0
    2.5645    1.4050    0.0000 H   0  0  0  0  0  0  0  0  0  0  0  0
    4.2056    2.5975    0.0000 H   0  0  0  0  0  0  0  0  0  0  0  0
    4.2055    1.5275    0.0000 H   0  0  0  0  0  0  0  0  0  0  0  0
    4.8460   -0.4923    0.0000 H   0  0  0  0  0  0  0  0  0  0  0  0
    1.4491    2.0975    0.0000 H   0  0  0  0  0  0  0  0  0  0  0  0
    0.7230    1.2473    0.0000 H   0  0  0  0  0  0  0  0  0  0  0  0
    0.2249    0.4125    0.0000 H   0  0  0  0  0  0  0  0  0  0  0  0
    0.8091   -0.5409    0.0000 H   0  0  0  0  0  0  0  0  0  0  0  0
    1.4491   -1.2725    0.0000 H   0  0  0  0  0  0  0  0  0  0  0  0
    2.5364   -1.0115    0.0000 H   0  0  0  0  0  0  0  0  0  0  0  0
    1.8500    4.6495    0.0000 H   0  0  0  0  0  0  0  0  0  0  0  0
  1 18  1  0  0  0  0
  1 19  1  0  0  0  0
  2  1  1  0  0  0  0
  2  3  1  0  0  0  0
  2 15  1  0  0  0  0
  2 20  1  1  0  0  0
  3  4  1  0  0  0  0
  3 21  1  0  0  0  0
  3 22  1  0  0  0  0
  4  5  1  0  0  0  0
  4 11  1  0  0  0  0
  5  6  2  0  0  0  0
  5  7  1  0  0  0  0
  7  8  1  0  0  0  0
  7 23  1  0  0  0  0
  8  9  2  0  0  0  0
  8 10  1  0  0  0  0
 10 11  2  0  0  0  0
 10 14  1  0  0  0  0
 11 12  1  0  0  0  0
 12 13  1  0  0  0  0
 12 24  1  0  0  0  0
 12 25  1  0  0  0  0
 13 14  1  0  0  0  0
 13 26  1  0  0  0  0
 13 27  1  0  0  0  0
 14 28  1  0  0  0  0
 14 29  1  0  0  0  0
 15 16  1  0  0  0  0
 15 17  2  0  0  0  0
 16 30  1  0  0  0  0
M  END
>  <DRUGBANK_ID>
DB03240

>  <SECONDARY_ACCESSION_NUMBERS>
EXPT01007

>  <COMMON_NAME>
(S)-2-Amino-3-(1,3,5,7-Pentahydro-2,4-Dioxo-Cyclopenta[E]Pyrimidin-1-Yl) Proionic Acid

$$$$
