M04
 OpenBabel10282417072D

 47 50  0  0  0  0  0  0  0  0999 V2000
    5.0181    4.1572    0.0000 N   0  0  0  0  0  0  0  0  0  0  0  0
    4.3036    4.5697    0.0000 C   0  0  0  0  0  0  0  0  0  0  0  0
    4.3036    5.3947    0.0000 C   0  0  0  0  0  0  0  0  0  0  0  0
    4.4878    6.4392    0.0000 C   0  0  0  0  0  0  0  0  0  0  0  0
    3.6753    6.2959    0.0000 N   0  0  0  0  0  0  0  0  0  0  0  0
    5.7325    5.3947    0.0000 C   0  0  0  0  0  0  0  0  0  0  0  0
    5.7325    4.5697    0.0000 C   0  0  0  0  0  0  0  0  0  0  0  0
    5.2662    7.2144    0.0000 C   0  0  0  0  0  0  0  0  0  0  0  0
    4.4537    7.3577    0.0000 C   0  0  0  0  0  0  0  0  0  0  0  0
    4.1716    8.1329    0.0000 C   0  0  0  0  0  0  0  0  0  0  0  0
    4.7019    8.7649    0.0000 C   0  0  0  0  0  0  0  0  0  0  0  0
    4.4197    9.5401    0.0000 Cl  0  0  0  0  0  0  0  0  0  0  0  0
    5.5143    8.6216    0.0000 C   0  0  0  0  0  0  0  0  0  0  0  0
    5.7965    7.8464    0.0000 C   0  0  0  0  0  0  0  0  0  0  0  0
    5.0181    3.3322    0.0000 C   0  0  0  0  0  0  0  0  0  0  0  0
    5.7325    2.9197    0.0000 N   0  0  0  0  0  0  0  0  0  0  0  0
    5.5484    6.4392    0.0000 C   0  0  0  0  0  0  0  0  0  0  0  0
    5.7325    2.0947    0.0000 C   0  0  0  0  0  0  0  0  0  0  0  0
    5.0181    1.6822    0.0000 N   0  0  0  0  0  0  0  0  0  0  0  0
    4.3036    2.0947    0.0000 C   0  0  0  0  0  0  0  0  0  0  0  0
    3.5190    1.8397    0.0000 N   0  0  0  0  0  0  0  0  0  0  0  0
    3.0340    2.5072    0.0000 C   0  0  0  0  0  0  0  0  0  0  0  0
    3.5190    3.1746    0.0000 C   0  0  0  0  0  0  0  0  0  0  0  0
    4.3036    2.9197    0.0000 C   0  0  0  0  0  0  0  0  0  0  0  0
    5.0181    5.8072    0.0000 C   0  0  0  0  0  0  0  0  0  0  0  0
    3.3770    4.0347    0.0000 H   0  0  0  0  0  0  0  0  0  0  0  0
    3.3770    5.1047    0.0000 H   0  0  0  0  0  0  0  0  0  0  0  0
    3.3770    5.9297    0.0000 H   0  0  0  0  0  0  0  0  0  0  0  0
    4.3036    6.4647    0.0000 H   0  0  0  0  0  0  0  0  0  0  0  0
    4.8537    7.4447    0.0000 H   0  0  0  0  0  0  0  0  0  0  0  0
    5.5415    6.6250    0.0000 H   0  0  0  0  0  0  0  0  0  0  0  0
    3.0196    7.0772    0.0000 H   0  0  0  0  0  0  0  0  0  0  0  0
    3.3265    5.3374    0.0000 H   0  0  0  0  0  0  0  0  0  0  0  0
    6.6592    5.9297    0.0000 H   0  0  0  0  0  0  0  0  0  0  0  0
    5.7325    6.4647    0.0000 H   0  0  0  0  0  0  0  0  0  0  0  0
    6.6592    4.0347    0.0000 H   0  0  0  0  0  0  0  0  0  0  0  0
    6.6591    5.1047    0.0000 H   0  0  0  0  0  0  0  0  0  0  0  0
    3.7903    6.5672    0.0000 H   0  0  0  0  0  0  0  0  0  0  0  0
    3.1553    8.3121    0.0000 H   0  0  0  0  0  0  0  0  0  0  0  0
    6.1777    9.4122    0.0000 H   0  0  0  0  0  0  0  0  0  0  0  0
    6.8128    7.6672    0.0000 H   0  0  0  0  0  0  0  0  0  0  0  0
    6.6022    6.2534    0.0000 H   0  0  0  0  0  0  0  0  0  0  0  0
    5.9144    5.4337    0.0000 H   0  0  0  0  0  0  0  0  0  0  0  0
    6.6262    1.5787    0.0000 H   0  0  0  0  0  0  0  0  0  0  0  0
    3.2148    0.9034    0.0000 H   0  0  0  0  0  0  0  0  0  0  0  0
    2.0020    2.5072    0.0000 H   0  0  0  0  0  0  0  0  0  0  0  0
    3.2001    4.1561    0.0000 H   0  0  0  0  0  0  0  0  0  0  0  0
  1  2  1  0  0  0  0
  1  7  1  0  0  0  0
  1 15  1  0  0  0  0
  2  3  1  0  0  0  0
  2 26  1  0  0  0  0
  2 27  1  0  0  0  0
  3 25  1  0  0  0  0
  3 28  1  0  0  0  0
  3 29  1  0  0  0  0
  4  5  1  0  0  0  0
  4 25  1  0  0  0  0
  4 30  1  0  0  0  0
  4 31  1  0  0  0  0
  5 32  1  0  0  0  0
  5 33  1  0  0  0  0
  6  7  1  0  0  0  0
  6 25  1  0  0  0  0
  6 34  1  0  0  0  0
  6 35  1  0  0  0  0
  7 36  1  0  0  0  0
  7 37  1  0  0  0  0
  8  9  1  0  0  0  0
  8 14  2  0  0  0  0
  8 17  1  0  0  0  0
  9 10  2  0  0  0  0
  9 38  1  0  0  0  0
 10 11  1  0  0  0  0
 10 39  1  0  0  0  0
 11 12  1  0  0  0  0
 11 13  2  0  0  0  0
 13 14  1  0  0  0  0
 13 40  1  0  0  0  0
 14 41  1  0  0  0  0
 15 16  1  0  0  0  0
 15 24  2  0  0  0  0
 16 18  2  0  0  0  0
 17 25  1  0  0  0  0
 17 42  1  0  0  0  0
 17 43  1  0  0  0  0
 18 19  1  0  0  0  0
 18 44  1  0  0  0  0
 19 20  2  0  0  0  0
 20 21  1  0  0  0  0
 20 24  1  0  0  0  0
 21 22  1  0  0  0  0
 21 45  1  0  0  0  0
 22 23  2  0  0  0  0
 22 46  1  0  0  0  0
 23 24  1  0  0  0  0
 23 47  1  0  0  0  0
M  END
>  <DRUGBANK_ID>
DB08149

>  <COMMON_NAME>
1-[4-(4-chlorobenzyl)-1-(7H-pyrrolo[2,3-d]pyrimidin-4-yl)piperidin-4-yl]methanamine

>  <UNII>
WA4499B7GU

$$$$
