
 OpenBabel10282417072D

 34 35  0  0  1  0  0  0  0  0999 V2000
    1.3231    0.3051    0.0000 N   0  0  0  0  0  0  0  0  0  0  0  0
    0.5347    0.0480    0.0000 C   0  0  2  0  0  0  0  0  0  0  0  0
    1.9401   -0.2434    0.0000 C   0  0  0  0  0  0  0  0  0  0  0  0
    1.4946    1.1106    0.0000 C   0  0  0  0  0  0  0  0  0  0  0  0
   -0.1063    0.5176    0.0000 O   0  0  0  0  0  0  0  0  0  0  0  0
    0.2948   -0.7576    0.0000 C   0  0  0  0  0  0  0  0  0  0  0  0
    2.7252    0.0171    0.0000 N   0  0  0  0  0  0  0  0  0  0  0  0
    1.7756   -1.0455    0.0000 O   0  0  0  0  0  0  0  0  0  0  0  0
    2.2727    1.3711    0.0000 C   0  0  0  0  0  0  0  0  0  0  0  0
   -0.7747    0.0274    0.0000 C   0  0  1  0  0  0  0  0  0  0  0  0
   -0.5313   -0.7576    0.0000 C   0  0  1  0  0  0  0  0  0  0  0  0
    2.8931    0.8227    0.0000 C   0  0  0  0  0  0  0  0  0  0  0  0
   -1.5597    0.2811    0.0000 C   0  0  0  0  0  0  0  0  0  0  0  0
   -1.0180   -1.4157    0.0000 O   0  0  0  0  0  0  0  0  0  0  0  0
    3.6747    1.0798    0.0000 N   0  0  0  0  0  0  0  0  0  0  0  0
   -2.1664   -0.2708    0.0000 O   0  0  0  0  0  0  0  0  0  0  0  0
   -2.9857   -0.2708    0.0000 P   0  0  0  0  0  0  0  0  0  0  0  0
   -2.9891   -1.0901    0.0000 O   0  0  0  0  0  0  0  0  0  0  0  0
   -3.8049   -0.2708    0.0000 O   0  0  0  0  0  0  0  0  0  0  0  0
   -2.9891    0.5484    0.0000 O   0  0  0  0  0  0  0  0  0  0  0  0
    0.7036    1.1046    0.0000 H   0  0  0  0  0  0  0  0  0  0  0  0
    0.7247    1.7979    0.0000 H   0  0  0  0  0  0  0  0  0  0  0  0
    0.9344   -1.6154    0.0000 H   0  0  0  0  0  0  0  0  0  0  0  0
   -0.1851   -1.7140    0.0000 H   0  0  0  0  0  0  0  0  0  0  0  0
    2.4781    2.3824    0.0000 H   0  0  0  0  0  0  0  0  0  0  0  0
   -0.9453    1.0837    0.0000 H   0  0  0  0  0  0  0  0  0  0  0  0
   -0.0496   -1.7130    0.0000 H   0  0  0  0  0  0  0  0  0  0  0  0
   -1.7857    1.3270    0.0000 H   0  0  0  0  0  0  0  0  0  0  0  0
   -2.5787    0.6075    0.0000 H   0  0  0  0  0  0  0  0  0  0  0  0
   -1.9818   -1.3061    0.0000 H   0  0  0  0  0  0  0  0  0  0  0  0
    4.4087    0.4237    0.0000 H   0  0  0  0  0  0  0  0  0  0  0  0
    3.8759    2.0435    0.0000 H   0  0  0  0  0  0  0  0  0  0  0  0
   -3.8312   -1.5716    0.0000 H   0  0  0  0  0  0  0  0  0  0  0  0
   -4.2899    0.5692    0.0000 H   0  0  0  0  0  0  0  0  0  0  0  0
  1  3  1  0  0  0  0
  1  4  1  0  0  0  0
  2  1  1  0  0  0  0
  2  5  1  0  0  0  0
  2  6  1  0  0  0  0
  2 21  1  6  0  0  0
  3  7  1  0  0  0  0
  3  8  2  0  0  0  0
  4  9  2  0  0  0  0
  4 22  1  0  0  0  0
  5 10  1  0  0  0  0
  6 11  1  0  0  0  0
  6 23  1  0  0  0  0
  6 24  1  0  0  0  0
  7 12  2  0  0  0  0
  9 12  1  0  0  0  0
  9 25  1  0  0  0  0
 10 13  1  0  0  0  0
 10 11  1  0  0  0  0
 10 26  1  6  0  0  0
 11 14  1  0  0  0  0
 11 27  1  1  0  0  0
 12 15  1  0  0  0  0
 13 16  1  0  0  0  0
 13 28  1  0  0  0  0
 13 29  1  0  0  0  0
 14 30  1  0  0  0  0
 15 31  1  0  0  0  0
 15 32  1  0  0  0  0
 16 17  1  0  0  0  0
 17 18  1  0  0  0  0
 17 19  1  0  0  0  0
 17 20  2  0  0  0  0
 18 33  1  0  0  0  0
 19 34  1  0  0  0  0
M  END
>  <DRUGBANK_ID>
DB03798

>  <SECONDARY_ACCESSION_NUMBERS>
EXPT01134

>  <COMMON_NAME>
2'-Deoxycytidine-5'-Monophosphate

>  <CAS_NUMBER>
1032-65-1

>  <UNII>
W7A9174XQL

$$$$
