
 OpenBabel10282417072D

 27 27  0  0  0  0  0  0  0  0999 V2000
   -1.5088   -0.2117    0.0000 C   0  0  3  0  0  0  0  0  0  0  0  0
   -1.6616   -0.9891    0.0000 C   0  0  0  0  0  0  0  0  0  0  0  0
   -2.1874    0.2411    0.0000 S   0  0  0  0  0  0  0  0  0  0  0  0
   -0.7817    0.1786    0.0000 C   0  0  0  0  0  0  0  0  0  0  0  0
   -2.5396   -0.9891    0.0000 C   0  0  0  0  0  0  0  0  0  0  0  0
   -2.7912   -0.3002    0.0000 S   0  0  0  0  0  0  0  0  0  0  0  0
   -0.0616   -0.2239    0.0000 C   0  0  0  0  0  0  0  0  0  0  0  0
    0.6168    0.1665    0.0000 C   0  0  0  0  0  0  0  0  0  0  0  0
    1.3353   -0.2430    0.0000 C   0  0  0  0  0  0  0  0  0  0  0  0
    2.0711    0.1162    0.0000 C   0  0  0  0  0  0  0  0  0  0  0  0
    2.7912   -0.2742    0.0000 N   0  0  0  0  0  0  0  0  0  0  0  0
    2.0642    0.9891    0.0000 O   0  0  0  0  0  0  0  0  0  0  0  0
   -2.4968   -0.6226    0.0000 H   0  0  0  0  0  0  0  0  0  0  0  0
   -0.9819   -1.8154    0.0000 H   0  0  0  0  0  0  0  0  0  0  0  0
   -2.1185   -1.9566    0.0000 H   0  0  0  0  0  0  0  0  0  0  0  0
   -0.7726    1.2486    0.0000 H   0  0  0  0  0  0  0  0  0  0  0  0
    0.1435    0.7161    0.0000 H   0  0  0  0  0  0  0  0  0  0  0  0
   -3.1528   -1.8659    0.0000 H   0  0  0  0  0  0  0  0  0  0  0  0
   -3.6006   -0.8503    0.0000 H   0  0  0  0  0  0  0  0  0  0  0  0
   -0.0549   -1.2939    0.0000 H   0  0  0  0  0  0  0  0  0  0  0  0
    0.8663   -0.7567    0.0000 H   0  0  0  0  0  0  0  0  0  0  0  0
    0.6146    1.2365    0.0000 H   0  0  0  0  0  0  0  0  0  0  0  0
    1.5414    0.7050    0.0000 H   0  0  0  0  0  0  0  0  0  0  0  0
    1.3011   -1.3125    0.0000 H   0  0  0  0  0  0  0  0  0  0  0  0
    2.2336   -0.8243    0.0000 H   0  0  0  0  0  0  0  0  0  0  0  0
    2.8176   -1.2583    0.0000 H   0  0  0  0  0  0  0  0  0  0  0  0
    3.6303    0.2407    0.0000 H   0  0  0  0  0  0  0  0  0  0  0  0
  1  2  1  0  0  0  0
  1  3  1  0  0  0  0
  1  4  1  0  0  0  0
  1 13  1  0  0  0  0
  2  5  1  0  0  0  0
  2 14  1  0  0  0  0
  2 15  1  0  0  0  0
  3  6  1  0  0  0  0
  4  7  1  0  0  0  0
  4 16  1  0  0  0  0
  4 17  1  0  0  0  0
  5  6  1  0  0  0  0
  5 18  1  0  0  0  0
  5 19  1  0  0  0  0
  7  8  1  0  0  0  0
  7 20  1  0  0  0  0
  7 21  1  0  0  0  0
  8  9  1  0  0  0  0
  8 22  1  0  0  0  0
  8 23  1  0  0  0  0
  9 10  1  0  0  0  0
  9 24  1  0  0  0  0
  9 25  1  0  0  0  0
 10 11  1  0  0  0  0
 10 12  2  0  0  0  0
 11 26  1  0  0  0  0
 11 27  1  0  0  0  0
M  END
>  <DRUGBANK_ID>
DB15963

>  <COMMON_NAME>
Thioctamide

>  <CAS_NUMBER>
940-69-2

>  <UNII>
Q1GT04827L

>  <SYNONYMS>
Lipoamide; Thioctic acid amide

$$$$
