
 OpenBabel10282417072D

 19 18  0  0  0  0  0  0  0  0999 V2000
    0.3576    0.2009    0.0000 C   0  0  0  0  0  0  0  0  0  0  0  0
   -0.3637   -0.1996    0.0000 C   0  0  3  0  0  0  0  0  0  0  0  0
    1.0751   -0.1996    0.0000 C   0  0  0  0  0  0  0  0  0  0  0  0
    0.3576    1.0497    0.0000 O   0  0  0  0  0  0  0  0  0  0  0  0
   -1.0837    0.2009    0.0000 C   0  0  0  0  0  0  0  0  0  0  0  0
   -0.3637   -1.0497    0.0000 C   0  0  0  0  0  0  0  0  0  0  0  0
    1.0751   -1.0497    0.0000 O   0  0  0  0  0  0  0  0  0  0  0  0
    1.7976    0.2009    0.0000 O   0  0  0  0  0  0  0  0  0  0  0  0
   -1.7976   -0.2299    0.0000 C   0  0  0  0  0  0  0  0  0  0  0  0
   -0.3633    0.8704    0.0000 H   0  0  0  0  0  0  0  0  0  0  0  0
   -1.1026    1.2707    0.0000 H   0  0  0  0  0  0  0  0  0  0  0  0
   -2.0201    0.7187    0.0000 H   0  0  0  0  0  0  0  0  0  0  0  0
   -1.2903   -1.5847    0.0000 H   0  0  0  0  0  0  0  0  0  0  0  0
    0.5629   -1.5847    0.0000 H   0  0  0  0  0  0  0  0  0  0  0  0
   -0.3637   -2.1197    0.0000 H   0  0  0  0  0  0  0  0  0  0  0  0
    0.2636   -1.5182    0.0000 H   0  0  0  0  0  0  0  0  0  0  0  0
   -2.7344    0.2871    0.0000 H   0  0  0  0  0  0  0  0  0  0  0  0
   -1.7769   -1.2997    0.0000 H   0  0  0  0  0  0  0  0  0  0  0  0
   -2.7137   -0.7827    0.0000 H   0  0  0  0  0  0  0  0  0  0  0  0
  1  2  1  0  0  0  0
  1  3  1  0  0  0  0
  1  4  2  0  0  0  0
  2  5  1  0  0  0  0
  2  6  1  0  0  0  0
  2 10  1  0  0  0  0
  3  7  1  0  0  0  0
  3  8  2  0  0  0  0
  5  9  1  0  0  0  0
  5 11  1  0  0  0  0
  5 12  1  0  0  0  0
  6 13  1  0  0  0  0
  6 14  1  0  0  0  0
  6 15  1  0  0  0  0
  7 16  1  0  0  0  0
  9 17  1  0  0  0  0
  9 18  1  0  0  0  0
  9 19  1  0  0  0  0
M  END
>  <DRUGBANK_ID>
DB15831

>  <COMMON_NAME>
alpha-Keto-beta-methylvaleric acid

>  <CAS_NUMBER>
1460-34-0

>  <UNII>
787T50HCIV

$$$$
