
 OpenBabel10282417072D

 61 65  0  0  0  0  0  0  0  0999 V2000
    2.9167   -1.1089    0.0000 N   0  0  0  0  0  0  0  0  0  0  0  0
    2.9167   -0.2839    0.0000 C   0  0  1  0  0  0  0  0  0  0  0  0
    2.0868   -1.1138    0.0000 C   0  0  0  0  0  0  0  0  0  0  0  0
    2.0868   -0.2839    0.0000 C   0  0  1  0  0  0  0  0  0  0  0  0
    3.7029   -1.3613    0.0000 C   0  0  2  0  0  0  0  0  0  0  0  0
    3.6980   -0.0267    0.0000 S   0  0  0  0  0  0  0  0  0  0  0  0
    4.1883   -0.6915    0.0000 C   0  0  0  0  0  0  0  0  0  0  0  0
    0.6503   -0.2839    0.0000 C   0  0  0  0  0  0  0  0  0  0  0  0
    1.3637    0.1334    0.0000 N   0  0  0  0  0  0  0  0  0  0  0  0
   -0.7764   -0.2839    0.0000 C   0  0  0  0  0  0  0  0  0  0  0  0
   -0.0630    0.1286    0.0000 C   0  0  3  0  0  0  0  0  0  0  0  0
    3.6932   -2.1815    0.0000 C   0  0  0  0  0  0  0  0  0  0  0  0
   -1.4899    0.1286    0.0000 O   0  0  0  0  0  0  0  0  0  0  0  0
    1.5044   -1.6961    0.0000 O   0  0  0  0  0  0  0  0  0  0  0  0
   -3.6301   -0.2888    0.0000 C   0  0  0  0  0  0  0  0  0  0  0  0
    0.6503   -1.1089    0.0000 O   0  0  0  0  0  0  0  0  0  0  0  0
   -0.7764   -1.1089    0.0000 O   0  0  0  0  0  0  0  0  0  0  0  0
   -2.2082   -0.2839    0.0000 C   0  0  0  0  0  0  0  0  0  0  0  0
    4.4066   -2.6037    0.0000 O   0  0  0  0  0  0  0  0  0  0  0  0
   -2.9167    0.1286    0.0000 C   0  0  0  0  0  0  0  0  0  0  0  0
   -0.0630    0.9536    0.0000 C   0  0  0  0  0  0  0  0  0  0  0  0
   -3.6301   -1.1138    0.0000 C   0  0  0  0  0  0  0  0  0  0  0  0
    2.9749   -2.5892    0.0000 O   0  0  0  0  0  0  0  0  0  0  0  0
   -2.9167   -1.5263    0.0000 C   0  0  0  0  0  0  0  0  0  0  0  0
   -2.2033   -1.1138    0.0000 C   0  0  0  0  0  0  0  0  0  0  0  0
    4.9017   -0.2742    0.0000 C   0  0  0  0  0  0  0  0  0  0  0  0
    4.9017   -1.1041    0.0000 C   0  0  0  0  0  0  0  0  0  0  0  0
   -4.4163   -0.0315    0.0000 C   0  0  0  0  0  0  0  0  0  0  0  0
   -4.9017   -0.6964    0.0000 C   0  0  0  0  0  0  0  0  0  0  0  0
   -4.4163   -1.3662    0.0000 C   0  0  0  0  0  0  0  0  0  0  0  0
    0.6551    1.3662    0.0000 C   0  0  0  0  0  0  0  0  0  0  0  0
   -0.7717    1.3613    0.0000 C   0  0  0  0  0  0  0  0  0  0  0  0
   -0.7764    2.1863    0.0000 C   0  0  0  0  0  0  0  0  0  0  0  0
    0.6551    2.1912    0.0000 C   0  0  0  0  0  0  0  0  0  0  0  0
   -0.0582    2.6037    0.0000 C   0  0  0  0  0  0  0  0  0  0  0  0
    2.9070    0.5410    0.0000 H   0  0  0  0  0  0  0  0  0  0  0  0
    1.1602   -0.8190    0.0000 H   0  0  0  0  0  0  0  0  0  0  0  0
    2.8346   -1.9866    0.0000 H   0  0  0  0  0  0  0  0  0  0  0  0
    1.3608    1.1179    0.0000 H   0  0  0  0  0  0  0  0  0  0  0  0
   -0.0630   -0.9414    0.0000 H   0  0  0  0  0  0  0  0  0  0  0  0
    4.3965   -3.5406    0.0000 H   0  0  0  0  0  0  0  0  0  0  0  0
   -2.9178    1.1606    0.0000 H   0  0  0  0  0  0  0  0  0  0  0  0
   -2.9167   -2.5583    0.0000 H   0  0  0  0  0  0  0  0  0  0  0  0
   -1.3079   -1.6269    0.0000 H   0  0  0  0  0  0  0  0  0  0  0  0
    5.8314   -0.8039    0.0000 H   0  0  0  0  0  0  0  0  0  0  0  0
    4.8956    0.7958    0.0000 H   0  0  0  0  0  0  0  0  0  0  0  0
    5.8253    0.2661    0.0000 H   0  0  0  0  0  0  0  0  0  0  0  0
    4.9009   -2.1741    0.0000 H   0  0  0  0  0  0  0  0  0  0  0  0
    5.8288   -0.5698    0.0000 H   0  0  0  0  0  0  0  0  0  0  0  0
    5.8279   -1.6398    0.0000 H   0  0  0  0  0  0  0  0  0  0  0  0
   -4.7447    0.9869    0.0000 H   0  0  0  0  0  0  0  0  0  0  0  0
   -5.4727    0.1383    0.0000 H   0  0  0  0  0  0  0  0  0  0  0  0
   -5.9717   -0.6945    0.0000 H   0  0  0  0  0  0  0  0  0  0  0  0
   -5.3889   -1.6491    0.0000 H   0  0  0  0  0  0  0  0  0  0  0  0
   -4.7494   -2.3830    0.0000 H   0  0  0  0  0  0  0  0  0  0  0  0
   -5.4734   -1.5317    0.0000 H   0  0  0  0  0  0  0  0  0  0  0  0
    1.5483    0.8493    0.0000 H   0  0  0  0  0  0  0  0  0  0  0  0
   -1.6636    0.8421    0.0000 H   0  0  0  0  0  0  0  0  0  0  0  0
   -1.6723    2.6985    0.0000 H   0  0  0  0  0  0  0  0  0  0  0  0
    1.5490    2.7069    0.0000 H   0  0  0  0  0  0  0  0  0  0  0  0
   -0.0593    3.6357    0.0000 H   0  0  0  0  0  0  0  0  0  0  0  0
  2  1  1  0  0  0  0
  2 36  1  6  0  0  0
  3  1  1  0  0  0  0
  4  3  1  0  0  0  0
  4  9  1  0  0  0  0
  4  2  1  0  0  0  0
  4 37  1  6  0  0  0
  5  1  1  0  0  0  0
  5 12  1  0  0  0  0
  5 38  1  1  0  0  0
  6  2  1  0  0  0  0
  6  7  1  0  0  0  0
  7  5  1  0  0  0  0
  8  9  1  0  0  0  0
  9 39  1  0  0  0  0
 10 11  1  0  0  0  0
 11  8  1  0  0  0  0
 11 40  1  0  0  0  0
 13 10  1  0  0  0  0
 14  3  2  0  0  0  0
 15 20  1  0  0  0  0
 16  8  2  0  0  0  0
 17 10  2  0  0  0  0
 18 13  1  0  0  0  0
 19 12  1  0  0  0  0
 19 41  1  0  0  0  0
 20 18  2  0  0  0  0
 20 42  1  0  0  0  0
 21 11  1  0  0  0  0
 22 15  2  0  0  0  0
 23 12  2  0  0  0  0
 24 25  2  0  0  0  0
 24 22  1  0  0  0  0
 24 43  1  0  0  0  0
 25 18  1  0  0  0  0
 25 44  1  0  0  0  0
 26  7  1  0  0  0  0
 26 45  1  0  0  0  0
 26 46  1  0  0  0  0
 26 47  1  0  0  0  0
 27  7  1  0  0  0  0
 27 48  1  0  0  0  0
 27 49  1  0  0  0  0
 27 50  1  0  0  0  0
 28 15  1  0  0  0  0
 28 51  1  0  0  0  0
 28 52  1  0  0  0  0
 29 28  1  0  0  0  0
 29 53  1  0  0  0  0
 29 54  1  0  0  0  0
 30 22  1  0  0  0  0
 30 29  1  0  0  0  0
 30 55  1  0  0  0  0
 30 56  1  0  0  0  0
 31 21  2  0  0  0  0
 31 57  1  0  0  0  0
 32 21  1  0  0  0  0
 32 58  1  0  0  0  0
 33 32  2  0  0  0  0
 33 59  1  0  0  0  0
 34 31  1  0  0  0  0
 34 60  1  0  0  0  0
 35 33  1  0  0  0  0
 35 34  2  0  0  0  0
 35 61  1  0  0  0  0
M  END
>  <DRUGBANK_ID>
DB09319

>  <COMMON_NAME>
Carindacillin

>  <CAS_NUMBER>
35531-88-5

>  <UNII>
5V278481KE

>  <SYNONYMS>
6β-{2-[(2,3-dihydro-1H-inden-5-yloxy)carbonyl]-2-phenylacetamido}-2,2-dimethylpenam-3α-carboxylic acid; Carbenicillin indanyl; Carindacilina; Carindacillin; Carindacilline; Carindacillinum; Indanyl carbenicillin

$$$$
