PR2
 OpenBabel10282417072D

 46 50  0  0  0  0  0  0  0  0999 V2000
   -2.1840   -2.7632    0.0000 C   0  0  0  0  0  0  0  0  0  0  0  0
   -2.5196   -3.5169    0.0000 C   0  0  0  0  0  0  0  0  0  0  0  0
   -3.3401   -3.6031    0.0000 C   0  0  0  0  0  0  0  0  0  0  0  0
   -3.8250   -2.9357    0.0000 C   0  0  0  0  0  0  0  0  0  0  0  0
   -3.4895   -2.1820    0.0000 N   0  0  0  0  0  0  0  0  0  0  0  0
   -2.6690   -2.0957    0.0000 C   0  0  0  0  0  0  0  0  0  0  0  0
   -2.1840   -1.4283    0.0000 C   0  0  0  0  0  0  0  0  0  0  0  0
   -1.3994   -1.6832    0.0000 C   0  0  0  0  0  0  0  0  0  0  0  0
   -1.3994   -2.5082    0.0000 S   0  0  0  0  0  0  0  0  0  0  0  0
    0.1268    1.4128    0.0000 N   0  0  0  0  0  0  0  0  0  0  0  0
    0.4623    0.6591    0.0000 C   0  0  0  0  0  0  0  0  0  0  0  0
   -0.1508    0.1071    0.0000 C   0  0  2  0  0  0  0  0  0  0  0  0
   -0.8653    0.5196    0.0000 C   0  0  0  0  0  0  0  0  0  0  0  0
   -0.6937    1.3266    0.0000 C   0  0  0  0  0  0  0  0  0  0  0  0
   -0.0645   -0.7134    0.0000 N   0  0  0  0  0  0  0  0  0  0  0  0
   -0.7320   -1.1983    0.0000 S   0  0  0  0  0  0  0  0  0  0  0  0
   -0.2471   -1.8658    0.0000 O   0  0  0  0  0  0  0  0  0  0  0  0
   -1.2169   -0.5309    0.0000 O   0  0  0  0  0  0  0  0  0  0  0  0
    1.2693    0.4876    0.0000 O   0  0  0  0  0  0  0  0  0  0  0  0
    0.5393    2.1273    0.0000 C   0  0  0  0  0  0  0  0  0  0  0  0
    2.6338    1.7148    0.0000 C   0  0  0  0  0  0  0  0  0  0  0  0
    2.6338    2.5398    0.0000 C   0  0  0  0  0  0  0  0  0  0  0  0
    3.3483    2.9523    0.0000 C   0  0  0  0  0  0  0  0  0  0  0  0
    4.0627    2.5398    0.0000 C   0  0  0  0  0  0  0  0  0  0  0  0
    4.0627    1.7148    0.0000 N   0  0  0  0  0  0  0  0  0  0  0  0
    3.3483    1.3023    0.0000 C   0  0  0  0  0  0  0  0  0  0  0  0
    1.8492    2.7947    0.0000 C   0  0  0  0  0  0  0  0  0  0  0  0
    1.3643    2.1273    0.0000 C   0  0  0  0  0  0  0  0  0  0  0  0
    1.8492    1.4598    0.0000 N   0  0  0  0  0  0  0  0  0  0  0  0
    0.3944   -0.1022    0.0000 H   0  0  0  0  0  0  0  0  0  0  0  0
   -1.9130   -4.3518    0.0000 H   0  0  0  0  0  0  0  0  0  0  0  0
   -3.7599   -4.5459    0.0000 H   0  0  0  0  0  0  0  0  0  0  0  0
   -4.8513   -3.0436    0.0000 H   0  0  0  0  0  0  0  0  0  0  0  0
   -2.5029   -0.4468    0.0000 H   0  0  0  0  0  0  0  0  0  0  0  0
   -1.8428    0.0844    0.0000 H   0  0  0  0  0  0  0  0  0  0  0  0
   -1.6968    1.1930    0.0000 H   0  0  0  0  0  0  0  0  0  0  0  0
   -1.4096    2.1218    0.0000 H   0  0  0  0  0  0  0  0  0  0  0  0
   -1.7273    1.0497    0.0000 H   0  0  0  0  0  0  0  0  0  0  0  0
    0.8673   -1.1283    0.0000 H   0  0  0  0  0  0  0  0  0  0  0  0
    0.0043    3.0539    0.0000 H   0  0  0  0  0  0  0  0  0  0  0  0
    1.0743    3.0539    0.0000 H   0  0  0  0  0  0  0  0  0  0  0  0
    3.3483    3.9843    0.0000 H   0  0  0  0  0  0  0  0  0  0  0  0
    4.9564    3.0558    0.0000 H   0  0  0  0  0  0  0  0  0  0  0  0
    3.3483    0.2703    0.0000 H   0  0  0  0  0  0  0  0  0  0  0  0
    1.5303    3.7762    0.0000 H   0  0  0  0  0  0  0  0  0  0  0  0
    1.5450    0.5235    0.0000 H   0  0  0  0  0  0  0  0  0  0  0  0
  1  2  1  0  0  0  0
  1  6  2  0  0  0  0
  1  9  1  0  0  0  0
  2  3  2  0  0  0  0
  2 31  1  0  0  0  0
  3  4  1  0  0  0  0
  3 32  1  0  0  0  0
  4  5  2  0  0  0  0
  4 33  1  0  0  0  0
  5  6  1  0  0  0  0
  6  7  1  0  0  0  0
  7  8  2  0  0  0  0
  7 34  1  0  0  0  0
  8  9  1  0  0  0  0
  8 16  1  0  0  0  0
 10 11  1  0  0  0  0
 10 14  1  0  0  0  0
 10 20  1  0  0  0  0
 11 12  1  0  0  0  0
 11 19  2  0  0  0  0
 12 13  1  0  0  0  0
 12 15  1  0  0  0  0
 12 30  1  6  0  0  0
 13 14  1  0  0  0  0
 13 35  1  0  0  0  0
 13 36  1  0  0  0  0
 14 37  1  0  0  0  0
 14 38  1  0  0  0  0
 15 16  1  0  0  0  0
 15 39  1  0  0  0  0
 16 17  2  0  0  0  0
 16 18  2  0  0  0  0
 20 28  1  0  0  0  0
 20 40  1  0  0  0  0
 20 41  1  0  0  0  0
 21 22  2  0  0  0  0
 21 26  1  0  0  0  0
 21 29  1  0  0  0  0
 22 23  1  0  0  0  0
 22 27  1  0  0  0  0
 23 24  2  0  0  0  0
 23 42  1  0  0  0  0
 24 25  1  0  0  0  0
 24 43  1  0  0  0  0
 25 26  2  0  0  0  0
 26 44  1  0  0  0  0
 27 28  2  0  0  0  0
 27 45  1  0  0  0  0
 28 29  1  0  0  0  0
 29 46  1  0  0  0  0
M  END
>  <DRUGBANK_ID>
DB08426

>  <COMMON_NAME>
THIENO[3,2-B]PYRIDINE-2-SULFONIC ACID [2-OXO-1-(1H-PYRROLO[2,3-C]PYRIDIN-2-YLMETHYL)-PYRROLIDIN-3-YL]-AMIDE

$$$$
