
 OpenBabel10282417072D

268271  0  0  0  0  0  0  0  0999 V2000
   -7.2617   -5.4935    0.0000 C   0  0  0  0  0  0  0  0  0  0  0  0
   -7.5167   -4.7089    0.0000 C   0  0  0  0  0  0  0  0  0  0  0  0
   -8.3236   -4.5372    0.0000 O   0  0  0  0  0  0  0  0  0  0  0  0
   -6.9646   -4.0957    0.0000 N   0  0  0  0  0  0  0  0  0  0  0  0
   -7.2195   -3.3111    0.0000 C   0  0  1  0  0  0  0  0  0  0  0  0
   -8.0265   -3.1397    0.0000 C   0  0  0  0  0  0  0  0  0  0  0  0
   -8.2814   -2.3549    0.0000 C   0  0  0  0  0  0  0  0  0  0  0  0
   -9.0883   -2.1834    0.0000 C   0  0  0  0  0  0  0  0  0  0  0  0
   -9.6403   -2.7964    0.0000 N   0  0  0  0  0  0  0  0  0  0  0  0
  -10.4474   -2.6250    0.0000 C   0  0  0  0  0  0  0  0  0  0  0  0
  -10.9994   -3.2380    0.0000 N   0  0  0  0  0  0  0  0  0  0  0  0
  -10.7021   -1.8402    0.0000 N   0  0  0  0  0  0  0  0  0  0  0  0
   -6.6676   -2.6981    0.0000 C   0  0  0  0  0  0  0  0  0  0  0  0
   -5.8605   -2.8697    0.0000 O   0  0  0  0  0  0  0  0  0  0  0  0
   -6.9223   -1.9135    0.0000 N   0  0  0  0  0  0  0  0  0  0  0  0
   -6.3703   -1.3003    0.0000 C   0  0  1  0  0  0  0  0  0  0  0  0
   -6.6252   -0.5157    0.0000 C   0  0  0  0  0  0  0  0  0  0  0  0
   -7.4322   -0.3442    0.0000 C   0  0  0  0  0  0  0  0  0  0  0  0
   -7.6860    0.4451    0.0000 C   0  0  0  0  0  0  0  0  0  0  0  0
   -8.4986    0.6103    0.0000 C   0  0  0  0  0  0  0  0  0  0  0  0
   -9.0517   -0.0074    0.0000 C   0  0  0  0  0  0  0  0  0  0  0  0
   -8.7922   -0.7906    0.0000 C   0  0  0  0  0  0  0  0  0  0  0  0
   -7.9853   -0.9620    0.0000 C   0  0  0  0  0  0  0  0  0  0  0  0
   -9.8595    0.1605    0.0000 O   0  0  0  0  0  0  0  0  0  0  0  0
   -5.5634   -1.4720    0.0000 C   0  0  0  0  0  0  0  0  0  0  0  0
   -5.0114   -0.8589    0.0000 O   0  0  0  0  0  0  0  0  0  0  0  0
   -5.3084   -2.2565    0.0000 N   0  0  0  0  0  0  0  0  0  0  0  0
   -4.5015   -2.4282    0.0000 C   0  0  1  0  0  0  0  0  0  0  0  0
   -4.2466   -3.2128    0.0000 C   0  0  0  0  0  0  0  0  0  0  0  0
   -3.4397   -3.3843    0.0000 C   0  0  0  0  0  0  0  0  0  0  0  0
   -2.8866   -2.7664    0.0000 C   0  0  0  0  0  0  0  0  0  0  0  0
   -2.0770   -2.9461    0.0000 C   0  0  0  0  0  0  0  0  0  0  0  0
   -1.8232   -3.7355    0.0000 C   0  0  0  0  0  0  0  0  0  0  0  0
   -2.3789   -4.3455    0.0000 C   0  0  0  0  0  0  0  0  0  0  0  0
   -3.1858   -4.1738    0.0000 C   0  0  0  0  0  0  0  0  0  0  0  0
   -1.0171   -3.9106    0.0000 O   0  0  0  0  0  0  0  0  0  0  0  0
   -3.9494   -1.8151    0.0000 C   0  0  0  0  0  0  0  0  0  0  0  0
   -4.2043   -1.0305    0.0000 O   0  0  0  0  0  0  0  0  0  0  0  0
   -3.1425   -1.9866    0.0000 N   0  0  0  0  0  0  0  0  0  0  0  0
   -2.5904   -1.3736    0.0000 C   0  0  1  0  0  0  0  0  0  0  0  0
   -2.8454   -0.5890    0.0000 C   0  0  0  0  0  0  0  0  0  0  0  0
   -3.6523   -0.4174    0.0000 C   0  0  0  0  0  0  0  0  0  0  0  0
   -3.9072    0.3672    0.0000 C   0  0  0  0  0  0  0  0  0  0  0  0
   -3.3552    0.9802    0.0000 N   0  0  0  0  0  0  0  0  0  0  0  0
   -3.6101    1.7647    0.0000 C   0  0  0  0  0  0  0  0  0  0  0  0
   -3.0581    2.3778    0.0000 N   0  0  0  0  0  0  0  0  0  0  0  0
   -4.4170    1.9364    0.0000 N   0  0  0  0  0  0  0  0  0  0  0  0
   -1.7835   -1.5452    0.0000 C   0  0  0  0  0  0  0  0  0  0  0  0
   -1.5286   -2.3298    0.0000 O   0  0  0  0  0  0  0  0  0  0  0  0
   -1.2314   -0.9321    0.0000 N   0  0  0  0  0  0  0  0  0  0  0  0
   -0.4245   -1.1036    0.0000 C   0  0  1  0  0  0  0  0  0  0  0  0
    0.1274   -0.4906    0.0000 C   0  0  0  0  0  0  0  0  0  0  0  0
   -0.1274    0.2939    0.0000 C   0  0  0  0  0  0  0  0  0  0  0  0
   -0.9175    0.5507    0.0000 C   0  0  0  0  0  0  0  0  0  0  0  0
   -0.9175    1.3815    0.0000 C   0  0  0  0  0  0  0  0  0  0  0  0
   -0.1274    1.6381    0.0000 N   0  0  0  0  0  0  0  0  0  0  0  0
    0.3609    0.9660    0.0000 C   0  0  0  0  0  0  0  0  0  0  0  0
   -1.6336    1.8005    0.0000 C   0  0  0  0  0  0  0  0  0  0  0  0
   -2.3497    1.3815    0.0000 C   0  0  0  0  0  0  0  0  0  0  0  0
   -2.3497    0.5517    0.0000 C   0  0  0  0  0  0  0  0  0  0  0  0
   -1.6336    0.1410    0.0000 C   0  0  0  0  0  0  0  0  0  0  0  0
   -0.1696   -1.8883    0.0000 C   0  0  0  0  0  0  0  0  0  0  0  0
   -0.7217   -2.5013    0.0000 O   0  0  0  0  0  0  0  0  0  0  0  0
    0.6372   -2.0599    0.0000 N   0  0  0  0  0  0  0  0  0  0  0  0
    0.8921   -2.8445    0.0000 C   0  0  1  0  0  0  0  0  0  0  0  0
    0.3401   -3.4575    0.0000 C   0  0  0  0  0  0  0  0  0  0  0  0
    0.5950   -4.2421    0.0000 C   0  0  0  0  0  0  0  0  0  0  0  0
    0.0429   -4.8551    0.0000 C   0  0  0  0  0  0  0  0  0  0  0  0
    0.2978   -5.6398    0.0000 C   0  0  0  0  0  0  0  0  0  0  0  0
   -0.2542   -6.2529    0.0000 N   0  0  0  0  0  0  0  0  0  0  0  0
    1.6990   -3.0160    0.0000 C   0  0  0  0  0  0  0  0  0  0  0  0
    1.9540   -3.8006    0.0000 O   0  0  0  0  0  0  0  0  0  0  0  0
    2.2511   -2.4030    0.0000 N   0  0  0  0  0  0  0  0  0  0  0  0
    3.0581   -2.5746    0.0000 C   0  0  1  0  0  0  0  0  0  0  0  0
    3.3129   -3.3592    0.0000 C   0  0  0  0  0  0  0  0  0  0  0  0
    2.7609   -3.9722    0.0000 C   0  0  0  0  0  0  0  0  0  0  0  0
    3.0158   -4.7568    0.0000 C   0  0  0  0  0  0  0  0  0  0  0  0
    2.4637   -5.3698    0.0000 C   0  0  0  0  0  0  0  0  0  0  0  0
    2.7187   -6.1546    0.0000 N   0  0  0  0  0  0  0  0  0  0  0  0
    3.6101   -1.9614    0.0000 C   0  0  0  0  0  0  0  0  0  0  0  0
    4.4170   -2.1330    0.0000 O   0  0  0  0  0  0  0  0  0  0  0  0
    3.3552   -1.1768    0.0000 N   0  0  0  0  0  0  0  0  0  0  0  0
    3.9073   -0.5638    0.0000 C   0  0  1  0  0  0  0  0  0  0  0  0
    3.6523    0.2207    0.0000 C   0  0  0  0  0  0  0  0  0  0  0  0
    2.8454    0.3922    0.0000 C   0  0  0  0  0  0  0  0  0  0  0  0
    2.5905    1.1768    0.0000 C   0  0  0  0  0  0  0  0  0  0  0  0
    1.7836    1.3484    0.0000 C   0  0  0  0  0  0  0  0  0  0  0  0
    1.5287    2.1331    0.0000 N   0  0  0  0  0  0  0  0  0  0  0  0
    4.7142   -0.7354    0.0000 C   0  0  0  0  0  0  0  0  0  0  0  0
    5.2663   -0.1224    0.0000 O   0  0  0  0  0  0  0  0  0  0  0  0
    4.9691   -1.5200    0.0000 N   0  0  0  0  0  0  0  0  0  0  0  0
    5.7761   -1.6916    0.0000 C   0  0  1  0  0  0  0  0  0  0  0  0
    6.0309   -2.4762    0.0000 C   0  0  0  0  0  0  0  0  0  0  0  0
    5.4789   -3.0892    0.0000 C   0  0  0  0  0  0  0  0  0  0  0  0
    5.7338   -3.8739    0.0000 C   0  0  0  0  0  0  0  0  0  0  0  0
    5.1817   -4.4869    0.0000 C   0  0  0  0  0  0  0  0  0  0  0  0
    5.4367   -5.2715    0.0000 N   0  0  0  0  0  0  0  0  0  0  0  0
    6.3281   -1.0784    0.0000 C   0  0  0  0  0  0  0  0  0  0  0  0
    6.0732   -0.2939    0.0000 O   0  0  0  0  0  0  0  0  0  0  0  0
    7.1350   -1.2501    0.0000 N   0  0  0  0  0  0  0  0  0  0  0  0
    7.6871   -0.6371    0.0000 C   0  0  1  0  0  0  0  0  0  0  0  0
    8.4940   -0.8085    0.0000 C   0  0  0  0  0  0  0  0  0  0  0  0
    8.7489   -1.5931    0.0000 C   0  0  0  0  0  0  0  0  0  0  0  0
    9.5559   -1.7648    0.0000 C   0  0  0  0  0  0  0  0  0  0  0  0
    9.8108   -2.5493    0.0000 C   0  0  0  0  0  0  0  0  0  0  0  0
   10.6178   -2.7210    0.0000 N   0  0  0  0  0  0  0  0  0  0  0  0
    7.4322    0.1475    0.0000 C   0  0  0  0  0  0  0  0  0  0  0  0
    6.6253    0.3191    0.0000 O   0  0  0  0  0  0  0  0  0  0  0  0
    7.9843    0.7606    0.0000 N   0  0  0  0  0  0  0  0  0  0  0  0
    7.7294    1.5452    0.0000 C   0  0  1  0  0  0  0  0  0  0  0  0
    8.2814    2.1583    0.0000 C   0  0  0  0  0  0  0  0  0  0  0  0
    9.0883    1.9866    0.0000 C   0  0  0  0  0  0  0  0  0  0  0  0
    9.6404    2.5997    0.0000 C   0  0  0  0  0  0  0  0  0  0  0  0
   10.4474    2.4282    0.0000 C   0  0  0  0  0  0  0  0  0  0  0  0
   10.9994    3.0412    0.0000 N   0  0  0  0  0  0  0  0  0  0  0  0
    6.9224    1.7167    0.0000 C   0  0  0  0  0  0  0  0  0  0  0  0
    6.3703    1.1037    0.0000 O   0  0  0  0  0  0  0  0  0  0  0  0
    6.6676    2.5013    0.0000 N   0  0  0  0  0  0  0  0  0  0  0  0
    5.8606    2.6729    0.0000 C   0  0  1  0  0  0  0  0  0  0  0  0
    5.6056    3.4575    0.0000 C   0  0  0  0  0  0  0  0  0  0  0  0
    6.1578    4.0705    0.0000 C   0  0  0  0  0  0  0  0  0  0  0  0
    5.9029    4.8552    0.0000 C   0  0  0  0  0  0  0  0  0  0  0  0
    6.4549    5.4683    0.0000 C   0  0  0  0  0  0  0  0  0  0  0  0
    6.2000    6.2529    0.0000 N   0  0  0  0  0  0  0  0  0  0  0  0
    5.3085    2.0599    0.0000 C   0  0  0  0  0  0  0  0  0  0  0  0
    4.5016    2.2315    0.0000 N   0  0  0  0  0  0  0  0  0  0  0  0
    5.5634    1.2753    0.0000 O   0  0  0  0  0  0  0  0  0  0  0  0
   -7.9776   -6.2887    0.0000 H   0  0  0  0  0  0  0  0  0  0  0  0
   -6.2151   -5.7159    0.0000 H   0  0  0  0  0  0  0  0  0  0  0  0
   -6.9310   -6.5111    0.0000 H   0  0  0  0  0  0  0  0  0  0  0  0
   -6.0016   -4.3004    0.0000 H   0  0  0  0  0  0  0  0  0  0  0  0
   -7.9354   -4.1063    0.0000 H   0  0  0  0  0  0  0  0  0  0  0  0
   -8.7425   -3.9349    0.0000 H   0  0  0  0  0  0  0  0  0  0  0  0
   -9.0731   -2.9172    0.0000 H   0  0  0  0  0  0  0  0  0  0  0  0
   -7.5654   -1.5598    0.0000 H   0  0  0  0  0  0  0  0  0  0  0  0
   -8.6120   -1.3373    0.0000 H   0  0  0  0  0  0  0  0  0  0  0  0
   -9.4189   -1.1658    0.0000 H   0  0  0  0  0  0  0  0  0  0  0  0
  -10.1349   -1.9609    0.0000 H   0  0  0  0  0  0  0  0  0  0  0  0
   -9.3360   -3.7327    0.0000 H   0  0  0  0  0  0  0  0  0  0  0  0
  -11.9624   -3.0333    0.0000 H   0  0  0  0  0  0  0  0  0  0  0  0
  -10.6952   -4.1743    0.0000 H   0  0  0  0  0  0  0  0  0  0  0  0
  -10.0431   -1.1088    0.0000 H   0  0  0  0  0  0  0  0  0  0  0  0
   -7.8853   -1.7087    0.0000 H   0  0  0  0  0  0  0  0  0  0  0  0
   -7.4169   -1.0779    0.0000 H   0  0  0  0  0  0  0  0  0  0  0  0
   -5.9092    0.2795    0.0000 H   0  0  0  0  0  0  0  0  0  0  0  0
   -6.9559    0.5019    0.0000 H   0  0  0  0  0  0  0  0  0  0  0  0
   -6.9977    1.2140    0.0000 H   0  0  0  0  0  0  0  0  0  0  0  0
   -8.8232    1.5899    0.0000 H   0  0  0  0  0  0  0  0  0  0  0  0
   -9.4805   -1.5596    0.0000 H   0  0  0  0  0  0  0  0  0  0  0  0
   -7.6649   -1.9430    0.0000 H   0  0  0  0  0  0  0  0  0  0  0  0
  -10.1531    1.0503    0.0000 H   0  0  0  0  0  0  0  0  0  0  0  0
   -5.9672   -2.9881    0.0000 H   0  0  0  0  0  0  0  0  0  0  0  0
   -4.8320   -1.4105    0.0000 H   0  0  0  0  0  0  0  0  0  0  0  0
   -4.9626   -4.0080    0.0000 H   0  0  0  0  0  0  0  0  0  0  0  0
   -3.9160   -4.2304    0.0000 H   0  0  0  0  0  0  0  0  0  0  0  0
   -3.2025   -1.7839    0.0000 H   0  0  0  0  0  0  0  0  0  0  0  0
   -1.3818   -2.1834    0.0000 H   0  0  0  0  0  0  0  0  0  0  0  0
   -2.0630   -5.3279    0.0000 H   0  0  0  0  0  0  0  0  0  0  0  0
   -3.8776   -4.9396    0.0000 H   0  0  0  0  0  0  0  0  0  0  0  0
   -0.7315   -4.8030    0.0000 H   0  0  0  0  0  0  0  0  0  0  0  0
   -2.8383   -2.9229    0.0000 H   0  0  0  0  0  0  0  0  0  0  0  0
   -3.6370   -1.1511    0.0000 H   0  0  0  0  0  0  0  0  0  0  0  0
   -2.1294    0.2062    0.0000 H   0  0  0  0  0  0  0  0  0  0  0  0
   -3.1760    0.4286    0.0000 H   0  0  0  0  0  0  0  0  0  0  0  0
   -4.3683   -1.2125    0.0000 H   0  0  0  0  0  0  0  0  0  0  0  0
   -4.6989   -0.1949    0.0000 H   0  0  0  0  0  0  0  0  0  0  0  0
   -4.9538    0.5897    0.0000 H   0  0  0  0  0  0  0  0  0  0  0  0
   -4.2378    1.3848    0.0000 H   0  0  0  0  0  0  0  0  0  0  0  0
   -2.3922    0.7755    0.0000 H   0  0  0  0  0  0  0  0  0  0  0  0
   -2.0951    2.1731    0.0000 H   0  0  0  0  0  0  0  0  0  0  0  0
   -3.3624    3.3141    0.0000 H   0  0  0  0  0  0  0  0  0  0  0  0
   -4.7210    2.8728    0.0000 H   0  0  0  0  0  0  0  0  0  0  0  0
   -1.5356    0.0042    0.0000 H   0  0  0  0  0  0  0  0  0  0  0  0
   -0.7552   -0.0860    0.0000 H   0  0  0  0  0  0  0  0  0  0  0  0
    1.1740   -0.7131    0.0000 H   0  0  0  0  0  0  0  0  0  0  0  0
    0.8434    0.3045    0.0000 H   0  0  0  0  0  0  0  0  0  0  0  0
    0.1769    2.5744    0.0000 H   0  0  0  0  0  0  0  0  0  0  0  0
    1.3929    0.9660    0.0000 H   0  0  0  0  0  0  0  0  0  0  0  0
   -1.6336    2.8325    0.0000 H   0  0  0  0  0  0  0  0  0  0  0  0
   -3.2449    1.8949    0.0000 H   0  0  0  0  0  0  0  0  0  0  0  0
   -3.2427    0.0344    0.0000 H   0  0  0  0  0  0  0  0  0  0  0  0
   -1.6341   -0.8910    0.0000 H   0  0  0  0  0  0  0  0  0  0  0  0
    1.2960   -1.3283    0.0000 H   0  0  0  0  0  0  0  0  0  0  0  0
    1.6081   -2.0493    0.0000 H   0  0  0  0  0  0  0  0  0  0  0  0
   -0.7065   -3.2350    0.0000 H   0  0  0  0  0  0  0  0  0  0  0  0
   -0.3759   -4.2526    0.0000 H   0  0  0  0  0  0  0  0  0  0  0  0
    1.6416   -4.4647    0.0000 H   0  0  0  0  0  0  0  0  0  0  0  0
    0.9255   -5.2598    0.0000 H   0  0  0  0  0  0  0  0  0  0  0  0
   -1.0037   -4.6325    0.0000 H   0  0  0  0  0  0  0  0  0  0  0  0
   -0.6731   -5.6502    0.0000 H   0  0  0  0  0  0  0  0  0  0  0  0
    1.3444   -5.8623    0.0000 H   0  0  0  0  0  0  0  0  0  0  0  0
    0.6285   -6.6574    0.0000 H   0  0  0  0  0  0  0  0  0  0  0  0
   -1.2519   -6.0409    0.0000 H   0  0  0  0  0  0  0  0  0  0  0  0
    0.0610   -7.2230    0.0000 H   0  0  0  0  0  0  0  0  0  0  0  0
    1.9470   -1.4667    0.0000 H   0  0  0  0  0  0  0  0  0  0  0  0
    2.7274   -1.5570    0.0000 H   0  0  0  0  0  0  0  0  0  0  0  0
    4.3595   -3.5818    0.0000 H   0  0  0  0  0  0  0  0  0  0  0  0
    3.6435   -4.3769    0.0000 H   0  0  0  0  0  0  0  0  0  0  0  0
    1.7143   -3.7497    0.0000 H   0  0  0  0  0  0  0  0  0  0  0  0
    2.0449   -4.7673    0.0000 H   0  0  0  0  0  0  0  0  0  0  0  0
    4.0624   -4.9794    0.0000 H   0  0  0  0  0  0  0  0  0  0  0  0
    3.3463   -5.7745    0.0000 H   0  0  0  0  0  0  0  0  0  0  0  0
    1.4171   -5.1473    0.0000 H   0  0  0  0  0  0  0  0  0  0  0  0
    1.7477   -6.1649    0.0000 H   0  0  0  0  0  0  0  0  0  0  0  0
    2.0362   -6.9126    0.0000 H   0  0  0  0  0  0  0  0  0  0  0  0
    3.7164   -6.3667    0.0000 H   0  0  0  0  0  0  0  0  0  0  0  0
    2.3922   -0.9720    0.0000 H   0  0  0  0  0  0  0  0  0  0  0  0
    2.8607   -0.3413    0.0000 H   0  0  0  0  0  0  0  0  0  0  0  0
    4.3682    1.0159    0.0000 H   0  0  0  0  0  0  0  0  0  0  0  0
    3.3216    1.2383    0.0000 H   0  0  0  0  0  0  0  0  0  0  0  0
    2.1294   -0.4030    0.0000 H   0  0  0  0  0  0  0  0  0  0  0  0
    1.7988    0.6147    0.0000 H   0  0  0  0  0  0  0  0  0  0  0  0
    3.3065    1.9719    0.0000 H   0  0  0  0  0  0  0  0  0  0  0  0
    2.2599    2.1945    0.0000 H   0  0  0  0  0  0  0  0  0  0  0  0
    1.0676    0.5533    0.0000 H   0  0  0  0  0  0  0  0  0  0  0  0
    0.7370    1.5710    0.0000 H   0  0  0  0  0  0  0  0  0  0  0  0
    2.2113    2.8911    0.0000 H   0  0  0  0  0  0  0  0  0  0  0  0
    0.5310    2.3452    0.0000 H   0  0  0  0  0  0  0  0  0  0  0  0
    4.3103   -2.2516    0.0000 H   0  0  0  0  0  0  0  0  0  0  0  0
    5.4454   -0.6740    0.0000 H   0  0  0  0  0  0  0  0  0  0  0  0
    7.0775   -2.6988    0.0000 H   0  0  0  0  0  0  0  0  0  0  0  0
    6.3615   -3.4939    0.0000 H   0  0  0  0  0  0  0  0  0  0  0  0
    4.4323   -2.8667    0.0000 H   0  0  0  0  0  0  0  0  0  0  0  0
    4.7629   -3.8843    0.0000 H   0  0  0  0  0  0  0  0  0  0  0  0
    6.7804   -4.0965    0.0000 H   0  0  0  0  0  0  0  0  0  0  0  0
    6.0643   -4.8916    0.0000 H   0  0  0  0  0  0  0  0  0  0  0  0
    4.1351   -4.2644    0.0000 H   0  0  0  0  0  0  0  0  0  0  0  0
    4.4657   -5.2821    0.0000 H   0  0  0  0  0  0  0  0  0  0  0  0
    4.7542   -6.0296    0.0000 H   0  0  0  0  0  0  0  0  0  0  0  0
    6.4344   -5.4835    0.0000 H   0  0  0  0  0  0  0  0  0  0  0  0
    7.4391   -2.1865    0.0000 H   0  0  0  0  0  0  0  0  0  0  0  0
    6.6405   -0.4145    0.0000 H   0  0  0  0  0  0  0  0  0  0  0  0
    9.2099   -0.0133    0.0000 H   0  0  0  0  0  0  0  0  0  0  0  0
    9.5406   -1.0310    0.0000 H   0  0  0  0  0  0  0  0  0  0  0  0
    8.0328   -2.3882    0.0000 H   0  0  0  0  0  0  0  0  0  0  0  0
    9.0794   -2.6108    0.0000 H   0  0  0  0  0  0  0  0  0  0  0  0
   10.2719   -0.9697    0.0000 H   0  0  0  0  0  0  0  0  0  0  0  0
   10.6025   -1.9873    0.0000 H   0  0  0  0  0  0  0  0  0  0  0  0
    9.0948   -3.3444    0.0000 H   0  0  0  0  0  0  0  0  0  0  0  0
   10.1413   -3.5670    0.0000 H   0  0  0  0  0  0  0  0  0  0  0  0
   10.9328   -3.6911    0.0000 H   0  0  0  0  0  0  0  0  0  0  0  0
   11.3005   -1.9631    0.0000 H   0  0  0  0  0  0  0  0  0  0  0  0
    8.9473    0.5559    0.0000 H   0  0  0  0  0  0  0  0  0  0  0  0
    7.0134    0.7500    0.0000 H   0  0  0  0  0  0  0  0  0  0  0  0
    7.9508    3.1760    0.0000 H   0  0  0  0  0  0  0  0  0  0  0  0
    8.9975    2.9534    0.0000 H   0  0  0  0  0  0  0  0  0  0  0  0
    9.4188    0.9689    0.0000 H   0  0  0  0  0  0  0  0  0  0  0  0
   10.1349    1.7640    0.0000 H   0  0  0  0  0  0  0  0  0  0  0  0
    9.3098    3.6173    0.0000 H   0  0  0  0  0  0  0  0  0  0  0  0
   10.3564    3.3949    0.0000 H   0  0  0  0  0  0  0  0  0  0  0  0
   10.7780    1.4106    0.0000 H   0  0  0  0  0  0  0  0  0  0  0  0
   11.4940    2.2057    0.0000 H   0  0  0  0  0  0  0  0  0  0  0  0
   11.9971    2.8291    0.0000 H   0  0  0  0  0  0  0  0  0  0  0  0
   10.6842    4.0113    0.0000 H   0  0  0  0  0  0  0  0  0  0  0  0
    7.3264    3.2328    0.0000 H   0  0  0  0  0  0  0  0  0  0  0  0
    6.1911    1.6552    0.0000 H   0  0  0  0  0  0  0  0  0  0  0  0
    4.5590    3.6800    0.0000 H   0  0  0  0  0  0  0  0  0  0  0  0
    5.2751    4.4752    0.0000 H   0  0  0  0  0  0  0  0  0  0  0  0
    7.2044    3.8479    0.0000 H   0  0  0  0  0  0  0  0  0  0  0  0
    6.8739    4.8656    0.0000 H   0  0  0  0  0  0  0  0  0  0  0  0
    4.8563    5.0777    0.0000 H   0  0  0  0  0  0  0  0  0  0  0  0
    5.5722    5.8728    0.0000 H   0  0  0  0  0  0  0  0  0  0  0  0
    7.5015    5.2458    0.0000 H   0  0  0  0  0  0  0  0  0  0  0  0
    7.1709    6.2635    0.0000 H   0  0  0  0  0  0  0  0  0  0  0  0
    6.8825    7.0109    0.0000 H   0  0  0  0  0  0  0  0  0  0  0  0
    5.2023    6.4650    0.0000 H   0  0  0  0  0  0  0  0  0  0  0  0
    4.1975    3.1678    0.0000 H   0  0  0  0  0  0  0  0  0  0  0  0
    3.8428    1.4999    0.0000 H   0  0  0  0  0  0  0  0  0  0  0  0
  1  2  1  0  0  0  0
  1128  1  0  0  0  0
  1129  1  0  0  0  0
  1130  1  0  0  0  0
  2  3  2  0  0  0  0
  2  4  1  0  0  0  0
  4  5  1  0  0  0  0
  4131  1  0  0  0  0
  5  6  1  0  0  0  0
  5 13  1  0  0  0  0
  5132  1  6  0  0  0
  6  7  1  0  0  0  0
  6133  1  0  0  0  0
  6134  1  0  0  0  0
  7  8  1  0  0  0  0
  7135  1  0  0  0  0
  7136  1  0  0  0  0
  8  9  1  0  0  0  0
  8137  1  0  0  0  0
  8138  1  0  0  0  0
  9 10  1  0  0  0  0
  9139  1  0  0  0  0
 10 11  1  0  0  0  0
 10 12  2  0  0  0  0
 11140  1  0  0  0  0
 11141  1  0  0  0  0
 12142  1  0  0  0  0
 13 14  2  0  0  0  0
 13 15  1  0  0  0  0
 15 16  1  0  0  0  0
 15143  1  0  0  0  0
 16 17  1  0  0  0  0
 16 25  1  0  0  0  0
 16144  1  6  0  0  0
 17 18  1  0  0  0  0
 17145  1  0  0  0  0
 17146  1  0  0  0  0
 18 19  1  0  0  0  0
 18 23  2  0  0  0  0
 19147  1  0  0  0  0
 20 19  2  0  0  0  0
 20148  1  0  0  0  0
 21 20  1  0  0  0  0
 21 24  1  0  0  0  0
 22 21  2  0  0  0  0
 22149  1  0  0  0  0
 23 22  1  0  0  0  0
 23150  1  0  0  0  0
 24151  1  0  0  0  0
 25 26  2  0  0  0  0
 25 27  1  0  0  0  0
 27 28  1  0  0  0  0
 27152  1  0  0  0  0
 28 29  1  0  0  0  0
 28 37  1  0  0  0  0
 28153  1  1  0  0  0
 29 30  1  0  0  0  0
 29154  1  0  0  0  0
 29155  1  0  0  0  0
 30 31  1  0  0  0  0
 30 35  2  0  0  0  0
 31156  1  0  0  0  0
 32 31  2  0  0  0  0
 32157  1  0  0  0  0
 33 32  1  0  0  0  0
 33 36  1  0  0  0  0
 34 33  2  0  0  0  0
 34158  1  0  0  0  0
 35 34  1  0  0  0  0
 35159  1  0  0  0  0
 36160  1  0  0  0  0
 37 38  2  0  0  0  0
 37 39  1  0  0  0  0
 39 40  1  0  0  0  0
 39161  1  0  0  0  0
 40 41  1  0  0  0  0
 40 48  1  0  0  0  0
 40162  1  6  0  0  0
 41 42  1  0  0  0  0
 41163  1  0  0  0  0
 41164  1  0  0  0  0
 42 43  1  0  0  0  0
 42165  1  0  0  0  0
 42166  1  0  0  0  0
 43 44  1  0  0  0  0
 43167  1  0  0  0  0
 43168  1  0  0  0  0
 44 45  1  0  0  0  0
 44169  1  0  0  0  0
 45 46  1  0  0  0  0
 45 47  2  0  0  0  0
 46170  1  0  0  0  0
 46171  1  0  0  0  0
 47172  1  0  0  0  0
 48 49  2  0  0  0  0
 48 50  1  0  0  0  0
 50 51  1  0  0  0  0
 50173  1  0  0  0  0
 51 52  1  0  0  0  0
 51 62  1  0  0  0  0
 51174  1  6  0  0  0
 52 53  1  0  0  0  0
 52175  1  0  0  0  0
 52176  1  0  0  0  0
 53 54  1  0  0  0  0
 53 57  2  0  0  0  0
 54 61  1  0  0  0  0
 55 54  2  0  0  0  0
 55 58  1  0  0  0  0
 56 55  1  0  0  0  0
 56177  1  0  0  0  0
 57 56  1  0  0  0  0
 57178  1  0  0  0  0
 58179  1  0  0  0  0
 59 58  2  0  0  0  0
 59180  1  0  0  0  0
 60 59  1  0  0  0  0
 60181  1  0  0  0  0
 61 60  2  0  0  0  0
 61182  1  0  0  0  0
 62 63  2  0  0  0  0
 62 64  1  0  0  0  0
 64 65  1  0  0  0  0
 64183  1  0  0  0  0
 65 66  1  0  0  0  0
 65 71  1  0  0  0  0
 65184  1  1  0  0  0
 66 67  1  0  0  0  0
 66185  1  0  0  0  0
 66186  1  0  0  0  0
 67 68  1  0  0  0  0
 67187  1  0  0  0  0
 67188  1  0  0  0  0
 68 69  1  0  0  0  0
 68189  1  0  0  0  0
 68190  1  0  0  0  0
 69 70  1  0  0  0  0
 69191  1  0  0  0  0
 69192  1  0  0  0  0
 70193  1  0  0  0  0
 70194  1  0  0  0  0
 71 72  2  0  0  0  0
 71 73  1  0  0  0  0
 73 74  1  0  0  0  0
 73195  1  0  0  0  0
 74 75  1  0  0  0  0
 74 80  1  0  0  0  0
 74196  1  1  0  0  0
 75 76  1  0  0  0  0
 75197  1  0  0  0  0
 75198  1  0  0  0  0
 76 77  1  0  0  0  0
 76199  1  0  0  0  0
 76200  1  0  0  0  0
 77 78  1  0  0  0  0
 77201  1  0  0  0  0
 77202  1  0  0  0  0
 78 79  1  0  0  0  0
 78203  1  0  0  0  0
 78204  1  0  0  0  0
 79205  1  0  0  0  0
 79206  1  0  0  0  0
 80 81  2  0  0  0  0
 80 82  1  0  0  0  0
 82 83  1  0  0  0  0
 82207  1  0  0  0  0
 83 84  1  0  0  0  0
 83 89  1  0  0  0  0
 83208  1  6  0  0  0
 84 85  1  0  0  0  0
 84209  1  0  0  0  0
 84210  1  0  0  0  0
 85 86  1  0  0  0  0
 85211  1  0  0  0  0
 85212  1  0  0  0  0
 86 87  1  0  0  0  0
 86213  1  0  0  0  0
 86214  1  0  0  0  0
 87 88  1  0  0  0  0
 87215  1  0  0  0  0
 87216  1  0  0  0  0
 88217  1  0  0  0  0
 88218  1  0  0  0  0
 89 90  2  0  0  0  0
 89 91  1  0  0  0  0
 91 92  1  0  0  0  0
 91219  1  0  0  0  0
 92 93  1  0  0  0  0
 92 98  1  0  0  0  0
 92220  1  1  0  0  0
 93 94  1  0  0  0  0
 93221  1  0  0  0  0
 93222  1  0  0  0  0
 94 95  1  0  0  0  0
 94223  1  0  0  0  0
 94224  1  0  0  0  0
 95 96  1  0  0  0  0
 95225  1  0  0  0  0
 95226  1  0  0  0  0
 96 97  1  0  0  0  0
 96227  1  0  0  0  0
 96228  1  0  0  0  0
 97229  1  0  0  0  0
 97230  1  0  0  0  0
 98 99  2  0  0  0  0
 98100  1  0  0  0  0
100101  1  0  0  0  0
100231  1  0  0  0  0
101102  1  0  0  0  0
101107  1  0  0  0  0
101232  1  1  0  0  0
102103  1  0  0  0  0
102233  1  0  0  0  0
102234  1  0  0  0  0
103104  1  0  0  0  0
103235  1  0  0  0  0
103236  1  0  0  0  0
104105  1  0  0  0  0
104237  1  0  0  0  0
104238  1  0  0  0  0
105106  1  0  0  0  0
105239  1  0  0  0  0
105240  1  0  0  0  0
106241  1  0  0  0  0
106242  1  0  0  0  0
107108  2  0  0  0  0
107109  1  0  0  0  0
109110  1  0  0  0  0
109243  1  0  0  0  0
110111  1  0  0  0  0
110116  1  0  0  0  0
110244  1  1  0  0  0
111112  1  0  0  0  0
111245  1  0  0  0  0
111246  1  0  0  0  0
112113  1  0  0  0  0
112247  1  0  0  0  0
112248  1  0  0  0  0
113114  1  0  0  0  0
113249  1  0  0  0  0
113250  1  0  0  0  0
114115  1  0  0  0  0
114251  1  0  0  0  0
114252  1  0  0  0  0
115253  1  0  0  0  0
115254  1  0  0  0  0
116117  2  0  0  0  0
116118  1  0  0  0  0
118119  1  0  0  0  0
118255  1  0  0  0  0
119120  1  0  0  0  0
119125  1  0  0  0  0
119256  1  1  0  0  0
120121  1  0  0  0  0
120257  1  0  0  0  0
120258  1  0  0  0  0
121122  1  0  0  0  0
121259  1  0  0  0  0
121260  1  0  0  0  0
122123  1  0  0  0  0
122261  1  0  0  0  0
122262  1  0  0  0  0
123124  1  0  0  0  0
123263  1  0  0  0  0
123264  1  0  0  0  0
124265  1  0  0  0  0
124266  1  0  0  0  0
125126  1  0  0  0  0
125127  2  0  0  0  0
126267  1  0  0  0  0
126268  1  0  0  0  0
M  END
>  <DRUGBANK_ID>
DB16013

>  <COMMON_NAME>
SER-100

>  <CAS_NUMBER>
383123-18-0

>  <UNII>
VJ98TJ922K

>  <SYNONYMS>
AC-RYYRWKKKKKKK-NH2; Acetyl-Arg-Tyr-Tyr-Arg-Trp-Lys-Lys-Lys-Lys-Lys-Lys-Lys-NH2

$$$$
