HQQ
 OpenBabel10282417072D

 37 39  0  0  0  0  0  0  0  0999 V2000
   -0.4477   -2.3748    0.0000 N   0  0  0  0  0  0  0  0  0  0  0  0
   -1.1621   -2.7873    0.0000 C   0  0  0  0  0  0  0  0  0  0  0  0
   -1.1621   -3.6123    0.0000 O   0  0  0  0  0  0  0  0  0  0  0  0
   -1.8766   -2.3748    0.0000 N   0  0  0  0  0  0  0  0  0  0  0  0
   -1.8766   -1.5498    0.0000 C   0  0  0  0  0  0  0  0  0  0  0  0
   -2.5911   -1.1373    0.0000 O   0  0  0  0  0  0  0  0  0  0  0  0
   -1.1621   -1.1373    0.0000 C   0  0  0  0  0  0  0  0  0  0  0  0
   -0.4477   -1.5498    0.0000 C   0  0  0  0  0  0  0  0  0  0  0  0
    0.2668   -1.1373    0.0000 O   0  0  0  0  0  0  0  0  0  0  0  0
   -1.5494   -0.4088    0.0000 C   0  0  0  0  0  0  0  0  0  0  0  0
   -0.7748   -0.4088    0.0000 C   0  0  0  0  0  0  0  0  0  0  0  0
   -1.2120    0.2908    0.0000 C   0  0  0  0  0  0  0  0  0  0  0  0
   -0.8247    1.0192    0.0000 C   0  0  0  0  0  0  0  0  0  0  0  0
   -0.0002    1.0480    0.0000 C   0  0  0  0  0  0  0  0  0  0  0  0
    0.4370    0.3484    0.0000 C   0  0  0  0  0  0  0  0  0  0  0  0
    0.0497   -0.3800    0.0000 C   0  0  0  0  0  0  0  0  0  0  0  0
    0.3871    1.7765    0.0000 O   0  0  0  0  0  0  0  0  0  0  0  0
    1.2116    1.8052    0.0000 C   0  0  0  0  0  0  0  0  0  0  0  0
    1.5989    2.5337    0.0000 C   0  0  0  0  0  0  0  0  0  0  0  0
    2.4234    2.5625    0.0000 C   0  0  0  0  0  0  0  0  0  0  0  0
    2.8606    1.8628    0.0000 C   0  0  0  0  0  0  0  0  0  0  0  0
    2.4733    1.1344    0.0000 C   0  0  0  0  0  0  0  0  0  0  0  0
    1.6488    1.1056    0.0000 C   0  0  0  0  0  0  0  0  0  0  0  0
    0.4049   -2.8670    0.0000 H   0  0  0  0  0  0  0  0  0  0  0  0
   -2.7292   -2.8671    0.0000 H   0  0  0  0  0  0  0  0  0  0  0  0
   -0.9823    0.4986    0.0000 H   0  0  0  0  0  0  0  0  0  0  0  0
   -2.6187   -0.3714    0.0000 H   0  0  0  0  0  0  0  0  0  0  0  0
   -2.0517    0.5360    0.0000 H   0  0  0  0  0  0  0  0  0  0  0  0
   -2.2434    0.2548    0.0000 H   0  0  0  0  0  0  0  0  0  0  0  0
   -1.3716    1.8944    0.0000 H   0  0  0  0  0  0  0  0  0  0  0  0
    1.4684    0.3844    0.0000 H   0  0  0  0  0  0  0  0  0  0  0  0
    0.5966   -1.2552    0.0000 H   0  0  0  0  0  0  0  0  0  0  0  0
    1.0520    3.4089    0.0000 H   0  0  0  0  0  0  0  0  0  0  0  0
    2.9079    3.4737    0.0000 H   0  0  0  0  0  0  0  0  0  0  0  0
    3.8920    1.8988    0.0000 H   0  0  0  0  0  0  0  0  0  0  0  0
    3.0202    0.2592    0.0000 H   0  0  0  0  0  0  0  0  0  0  0  0
    1.1643    0.1944    0.0000 H   0  0  0  0  0  0  0  0  0  0  0  0
  1  2  1  0  0  0  0
  1  8  1  0  0  0  0
  1 24  1  0  0  0  0
  2  3  2  0  0  0  0
  2  4  1  0  0  0  0
  4  5  1  0  0  0  0
  4 25  1  0  0  0  0
  5  6  2  0  0  0  0
  5  7  1  0  0  0  0
  7  8  1  0  0  0  0
  7 10  1  0  0  0  0
  7 11  1  0  0  0  0
  8  9  2  0  0  0  0
 10 26  1  0  0  0  0
 10 27  1  0  0  0  0
 10 28  1  0  0  0  0
 11 12  2  0  0  0  0
 11 16  1  0  0  0  0
 12 13  1  0  0  0  0
 12 29  1  0  0  0  0
 13 14  2  0  0  0  0
 13 30  1  0  0  0  0
 14 15  1  0  0  0  0
 14 17  1  0  0  0  0
 15 16  2  0  0  0  0
 15 31  1  0  0  0  0
 16 32  1  0  0  0  0
 17 18  1  0  0  0  0
 18 19  2  0  0  0  0
 18 23  1  0  0  0  0
 19 20  1  0  0  0  0
 19 33  1  0  0  0  0
 20 21  2  0  0  0  0
 20 34  1  0  0  0  0
 21 22  1  0  0  0  0
 21 35  1  0  0  0  0
 22 23  2  0  0  0  0
 22 36  1  0  0  0  0
 23 37  1  0  0  0  0
M  END
>  <DRUGBANK_ID>
DB03368

>  <SECONDARY_ACCESSION_NUMBERS>
EXPT01778

>  <COMMON_NAME>
5-Methyl-5-(4-Phenoxy-Phenyl)-Pyrimidine-2,4,6-Trione

>  <UNII>
4MPM14604G

$$$$
