
 OpenBabel10282417072D

 41 43  0  0  0  0  0  0  0  0999 V2000
   -1.2302   -0.7736    0.0000 C   0  0  0  0  0  0  0  0  0  0  0  0
    3.0565   -0.7736    0.0000 C   0  0  0  0  0  0  0  0  0  0  0  0
    3.7710   -0.3611    0.0000 C   0  0  0  0  0  0  0  0  0  0  0  0
    1.6276   -0.7736    0.0000 C   0  0  0  0  0  0  0  0  0  0  0  0
    3.2280    1.6832    0.0000 C   0  0  0  0  0  0  0  0  0  0  0  0
   -1.9447   -0.3611    0.0000 C   0  0  0  0  0  0  0  0  0  0  0  0
   -0.5158   -0.3611    0.0000 C   0  0  0  0  0  0  0  0  0  0  0  0
    0.9131   -0.3611    0.0000 C   0  0  0  0  0  0  0  0  0  0  0  0
    4.0485    1.7695    0.0000 C   0  0  0  0  0  0  0  0  0  0  0  0
    2.3420    0.4638    0.0000 C   0  0  0  0  0  0  0  0  0  0  0  0
   -3.4561   -0.5601    0.0000 C   0  0  0  0  0  0  0  0  0  0  0  0
   -2.8727   -1.5705    0.0000 C   0  0  0  0  0  0  0  0  0  0  0  0
    2.3420   -0.3611    0.0000 C   0  0  0  0  0  0  0  0  0  0  0  0
    3.0565    0.8763    0.0000 C   0  0  0  0  0  0  0  0  0  0  0  0
   -3.6696   -1.3570    0.0000 C   0  0  0  0  0  0  0  0  0  0  0  0
    3.7710    0.4638    0.0000 C   0  0  0  0  0  0  0  0  0  0  0  0
   -2.6592   -0.7736    0.0000 N   0  0  0  0  0  0  0  0  0  0  0  0
   -4.3841   -1.7695    0.0000 O   0  0  0  0  0  0  0  0  0  0  0  0
    0.1986   -0.7736    0.0000 O   0  0  0  0  0  0  0  0  0  0  0  0
    4.3841    1.0158    0.0000 S   0  0  0  0  0  0  0  0  0  0  0  0
   -1.2302   -1.8436    0.0000 H   0  0  0  0  0  0  0  0  0  0  0  0
   -0.3035   -1.3086    0.0000 H   0  0  0  0  0  0  0  0  0  0  0  0
    3.0565   -1.8056    0.0000 H   0  0  0  0  0  0  0  0  0  0  0  0
    4.6647   -0.8771    0.0000 H   0  0  0  0  0  0  0  0  0  0  0  0
    1.6276   -1.8436    0.0000 H   0  0  0  0  0  0  0  0  0  0  0  0
    2.5543   -1.3086    0.0000 H   0  0  0  0  0  0  0  0  0  0  0  0
    2.5374    2.4501    0.0000 H   0  0  0  0  0  0  0  0  0  0  0  0
   -1.9447    0.7089    0.0000 H   0  0  0  0  0  0  0  0  0  0  0  0
   -2.8713    0.1739    0.0000 H   0  0  0  0  0  0  0  0  0  0  0  0
   -0.5158    0.7089    0.0000 H   0  0  0  0  0  0  0  0  0  0  0  0
    0.4109    0.1739    0.0000 H   0  0  0  0  0  0  0  0  0  0  0  0
    0.9131    0.7089    0.0000 H   0  0  0  0  0  0  0  0  0  0  0  0
   -0.0135    0.1739    0.0000 H   0  0  0  0  0  0  0  0  0  0  0  0
    4.5645    2.6633    0.0000 H   0  0  0  0  0  0  0  0  0  0  0  0
    1.4483    0.9798    0.0000 H   0  0  0  0  0  0  0  0  0  0  0  0
   -3.9911    0.3665    0.0000 H   0  0  0  0  0  0  0  0  0  0  0  0
   -2.8048    0.2888    0.0000 H   0  0  0  0  0  0  0  0  0  0  0  0
   -2.3377   -2.4971    0.0000 H   0  0  0  0  0  0  0  0  0  0  0  0
   -1.8119   -1.4308    0.0000 H   0  0  0  0  0  0  0  0  0  0  0  0
   -3.5299   -2.4178    0.0000 H   0  0  0  0  0  0  0  0  0  0  0  0
   -5.2241   -1.2845    0.0000 H   0  0  0  0  0  0  0  0  0  0  0  0
  1 21  1  0  0  0  0
  1 22  1  0  0  0  0
  2 23  1  0  0  0  0
  3  2  2  0  0  0  0
  3 24  1  0  0  0  0
  4 25  1  0  0  0  0
  4 26  1  0  0  0  0
  5 27  1  0  0  0  0
  6  1  1  0  0  0  0
  6 28  1  0  0  0  0
  6 29  1  0  0  0  0
  7  1  1  0  0  0  0
  7 30  1  0  0  0  0
  7 31  1  0  0  0  0
  8  4  1  0  0  0  0
  8 32  1  0  0  0  0
  8 33  1  0  0  0  0
  9  5  2  0  0  0  0
  9 34  1  0  0  0  0
 10 35  1  0  0  0  0
 11 36  1  0  0  0  0
 11 37  1  0  0  0  0
 12 38  1  0  0  0  0
 12 39  1  0  0  0  0
 13  2  1  0  0  0  0
 13  4  1  0  0  0  0
 13 10  2  0  0  0  0
 14  5  1  0  0  0  0
 14 10  1  0  0  0  0
 15 11  1  0  0  0  0
 15 12  1  0  0  0  0
 15 40  1  0  0  0  0
 16  3  1  0  0  0  0
 16 14  2  0  0  0  0
 17  6  1  0  0  0  0
 17 11  1  0  0  0  0
 17 12  1  0  0  0  0
 18 15  1  0  0  0  0
 18 41  1  0  0  0  0
 19  7  1  0  0  0  0
 19  8  1  0  0  0  0
 20  9  1  0  0  0  0
 20 16  1  0  0  0  0
M  END
>  <DRUGBANK_ID>
DB05938

>  <COMMON_NAME>
Edonerpic

>  <CAS_NUMBER>
519187-23-6

>  <UNII>
QY49O94S2W

>  <SYNONYMS>
Edonerpic

$$$$
