CRI
 OpenBabel10282417072D

 54 56  0  0  0  0  0  0  0  0999 V2000
    3.0943    3.4647    0.0000 N   0  0  0  0  0  0  0  0  0  0  0  0
    3.8087    3.8772    0.0000 O   0  0  0  0  0  0  0  0  0  0  0  0
    3.8087    2.2272    0.0000 O   0  0  0  0  0  0  0  0  0  0  0  0
    3.0943    2.6397    0.0000 C   0  0  0  0  0  0  0  0  0  0  0  0
    1.6653    2.6397    0.0000 C   0  0  0  0  0  0  0  0  0  0  0  0
    2.3798    2.2272    0.0000 C   0  0  0  0  0  0  0  0  0  0  0  0
    2.3798    1.4022    0.0000 C   0  0  0  0  0  0  0  0  0  0  0  0
    1.6653    0.9897    0.0000 C   0  0  0  0  0  0  0  0  0  0  0  0
    0.9509    1.4022    0.0000 C   0  0  0  0  0  0  0  0  0  0  0  0
    0.9509    2.2272    0.0000 C   0  0  0  0  0  0  0  0  0  0  0  0
    0.2364    0.9897    0.0000 C   0  0  0  0  0  0  0  0  0  0  0  0
    0.2364    0.1647    0.0000 C   0  0  0  0  0  0  0  0  0  0  0  0
   -0.4781   -0.2478    0.0000 C   0  0  0  0  0  0  0  0  0  0  0  0
   -1.1926    0.1647    0.0000 C   0  0  0  0  0  0  0  0  0  0  0  0
   -1.1926    0.9897    0.0000 C   0  0  0  0  0  0  0  0  0  0  0  0
   -0.4781    1.4022    0.0000 C   0  0  0  0  0  0  0  0  0  0  0  0
   -1.9070    1.4022    0.0000 C   0  0  0  0  0  0  0  0  0  0  0  0
   -1.9070    2.2272    0.0000 O   0  0  0  0  0  0  0  0  0  0  0  0
   -2.6215    0.9897    0.0000 N   0  0  0  0  0  0  0  0  0  0  0  0
   -2.6215    0.1647    0.0000 C   0  0  0  0  0  0  0  0  0  0  0  0
   -3.3360    1.4022    0.0000 C   0  0  0  0  0  0  0  0  0  0  0  0
   -0.4781   -1.0728    0.0000 N   0  0  0  0  0  0  0  0  0  0  0  0
    0.2364   -1.4853    0.0000 C   0  0  0  0  0  0  0  0  0  0  0  0
    0.9509   -1.0728    0.0000 O   0  0  0  0  0  0  0  0  0  0  0  0
    0.9509   -2.7228    0.0000 C   0  0  0  0  0  0  0  0  0  0  0  0
    0.9509   -3.5478    0.0000 C   0  0  0  0  0  0  0  0  0  0  0  0
    0.2364   -3.9603    0.0000 C   0  0  0  0  0  0  0  0  0  0  0  0
   -0.4781   -3.5478    0.0000 C   0  0  0  0  0  0  0  0  0  0  0  0
   -0.4781   -2.7228    0.0000 C   0  0  0  0  0  0  0  0  0  0  0  0
    0.2364   -2.3103    0.0000 C   0  0  0  0  0  0  0  0  0  0  0  0
    0.2364   -4.7853    0.0000 C   0  0  0  0  0  0  0  0  0  0  0  0
    2.2417    3.9569    0.0000 H   0  0  0  0  0  0  0  0  0  0  0  0
    4.6488    3.3922    0.0000 H   0  0  0  0  0  0  0  0  0  0  0  0
    1.6653    3.6717    0.0000 H   0  0  0  0  0  0  0  0  0  0  0  0
    3.2735    0.8862    0.0000 H   0  0  0  0  0  0  0  0  0  0  0  0
    1.6653   -0.0423    0.0000 H   0  0  0  0  0  0  0  0  0  0  0  0
    0.0572    2.7432    0.0000 H   0  0  0  0  0  0  0  0  0  0  0  0
    1.1301   -0.3513    0.0000 H   0  0  0  0  0  0  0  0  0  0  0  0
   -2.0863   -0.3513    0.0000 H   0  0  0  0  0  0  0  0  0  0  0  0
   -0.4781    2.4342    0.0000 H   0  0  0  0  0  0  0  0  0  0  0  0
   -3.5481   -0.3703    0.0000 H   0  0  0  0  0  0  0  0  0  0  0  0
   -1.6949   -0.3703    0.0000 H   0  0  0  0  0  0  0  0  0  0  0  0
   -2.6215   -0.9053    0.0000 H   0  0  0  0  0  0  0  0  0  0  0  0
   -3.3360    2.4722    0.0000 H   0  0  0  0  0  0  0  0  0  0  0  0
   -4.2626    0.8672    0.0000 H   0  0  0  0  0  0  0  0  0  0  0  0
   -4.2627    1.9372    0.0000 H   0  0  0  0  0  0  0  0  0  0  0  0
   -1.3307   -1.5651    0.0000 H   0  0  0  0  0  0  0  0  0  0  0  0
    1.8446   -2.2068    0.0000 H   0  0  0  0  0  0  0  0  0  0  0  0
    1.8446   -4.0638    0.0000 H   0  0  0  0  0  0  0  0  0  0  0  0
   -1.3718   -4.0638    0.0000 H   0  0  0  0  0  0  0  0  0  0  0  0
   -1.3718   -2.2068    0.0000 H   0  0  0  0  0  0  0  0  0  0  0  0
   -0.6902   -5.3203    0.0000 H   0  0  0  0  0  0  0  0  0  0  0  0
    1.1630   -5.3203    0.0000 H   0  0  0  0  0  0  0  0  0  0  0  0
    0.2364   -5.8553    0.0000 H   0  0  0  0  0  0  0  0  0  0  0  0
  1  2  1  0  0  0  0
  1  4  1  0  0  0  0
  1 32  1  0  0  0  0
  2 33  1  0  0  0  0
  3  4  2  0  0  0  0
  4  6  1  0  0  0  0
  5  6  2  0  0  0  0
  5 10  1  0  0  0  0
  5 34  1  0  0  0  0
  6  7  1  0  0  0  0
  7  8  2  0  0  0  0
  7 35  1  0  0  0  0
  8  9  1  0  0  0  0
  8 36  1  0  0  0  0
  9 10  2  0  0  0  0
  9 11  1  0  0  0  0
 10 37  1  0  0  0  0
 11 12  2  0  0  0  0
 11 16  1  0  0  0  0
 12 13  1  0  0  0  0
 12 38  1  0  0  0  0
 13 14  2  0  0  0  0
 13 22  1  0  0  0  0
 14 15  1  0  0  0  0
 14 39  1  0  0  0  0
 15 16  2  0  0  0  0
 15 17  1  0  0  0  0
 16 40  1  0  0  0  0
 17 18  2  0  0  0  0
 17 19  1  0  0  0  0
 19 20  1  0  0  0  0
 19 21  1  0  0  0  0
 20 41  1  0  0  0  0
 20 42  1  0  0  0  0
 20 43  1  0  0  0  0
 21 44  1  0  0  0  0
 21 45  1  0  0  0  0
 21 46  1  0  0  0  0
 22 23  1  0  0  0  0
 22 47  1  0  0  0  0
 23 24  2  0  0  0  0
 23 30  1  0  0  0  0
 25 26  2  0  0  0  0
 25 30  1  0  0  0  0
 25 48  1  0  0  0  0
 26 27  1  0  0  0  0
 26 49  1  0  0  0  0
 27 28  2  0  0  0  0
 27 31  1  0  0  0  0
 28 29  1  0  0  0  0
 28 50  1  0  0  0  0
 29 30  2  0  0  0  0
 29 51  1  0  0  0  0
 31 52  1  0  0  0  0
 31 53  1  0  0  0  0
 31 54  1  0  0  0  0
M  END
>  <DRUGBANK_ID>
DB07586

>  <COMMON_NAME>
5-(4-METHYL-BENZOYLAMINO)-BIPHENYL-3,4'-DICARBOXYLIC ACID 3-DIMETHYLAMIDE-4'-HYDROXYAMIDE

$$$$
