
 OpenBabel10282417072D

 60 60  0  0  0  0  0  0  0  0999 V2000
   -0.7477    0.8930    0.0000 C   0  0  0  0  0  0  0  0  0  0  0  0
   -1.4538    0.4776    0.0000 C   0  0  0  0  0  0  0  0  0  0  0  0
    0.0000    0.4776    0.0000 C   0  0  0  0  0  0  0  0  0  0  0  0
   -0.7477    1.7238    0.0000 O   0  0  0  0  0  0  0  0  0  0  0  0
   -2.1600    0.8515    0.0000 C   0  0  0  0  0  0  0  0  0  0  0  0
    0.0000   -0.3531    0.0000 C   0  0  0  0  0  0  0  0  0  0  0  0
   -0.0415    2.1392    0.0000 C   0  0  0  0  0  0  0  0  0  0  0  0
   -0.7061   -0.7684    0.0000 C   0  0  0  0  0  0  0  0  0  0  0  0
   -2.8661    0.4361    0.0000 C   0  0  0  0  0  0  0  0  0  0  0  0
   -2.1600    1.6823    0.0000 O   0  0  0  0  0  0  0  0  0  0  0  0
    0.7061    1.7238    0.0000 C   0  0  3  0  0  0  0  0  0  0  0  0
   -0.7061   -1.6407    0.0000 N   0  0  0  0  0  0  0  0  0  0  0  0
    1.4123    2.1808    0.0000 C   0  0  0  0  0  0  0  0  0  0  0  0
    0.7061    0.8930    0.0000 O   0  0  0  0  0  0  0  0  0  0  0  0
   -1.4123   -2.0561    0.0000 C   0  0  0  0  0  0  0  0  0  0  0  0
    2.1600    1.7654    0.0000 N   0  0  0  0  0  0  0  0  0  0  0  0
   -2.1600   -1.6823    0.0000 N   0  0  0  0  0  0  0  0  0  0  0  0
   -1.4123   -2.8869    0.0000 O   0  0  0  0  0  0  0  0  0  0  0  0
    2.8661    2.1808    0.0000 C   0  0  0  0  0  0  0  0  0  0  0  0
   -2.8247   -2.0977    0.0000 C   0  0  0  0  0  0  0  0  0  0  0  0
   -3.5724   -1.6823    0.0000 C   0  0  0  0  0  0  0  0  0  0  0  0
    3.5724    2.5962    0.0000 C   0  0  0  0  0  0  0  0  0  0  0  0
   -2.1600   -0.8099    0.0000 C   0  0  0  0  0  0  0  0  0  0  0  0
   -1.4538   -0.3531    0.0000 C   0  0  0  0  0  0  0  0  0  0  0  0
   -2.8661   -0.3945    0.0000 C   0  0  0  0  0  0  0  0  0  0  0  0
    3.2815    1.4746    0.0000 C   0  0  0  0  0  0  0  0  0  0  0  0
    2.4508    2.8869    0.0000 C   0  0  0  0  0  0  0  0  0  0  0  0
    0.8895    1.0010    0.0000 H   0  0  0  0  0  0  0  0  0  0  0  0
    0.8958   -0.8655    0.0000 H   0  0  0  0  0  0  0  0  0  0  0  0
   -0.0546    3.2091    0.0000 H   0  0  0  0  0  0  0  0  0  0  0  0
    0.8774    2.6874    0.0000 H   0  0  0  0  0  0  0  0  0  0  0  0
   -3.7971    0.9635    0.0000 H   0  0  0  0  0  0  0  0  0  0  0  0
   -2.8574   -0.6339    0.0000 H   0  0  0  0  0  0  0  0  0  0  0  0
   -3.7883   -0.1065    0.0000 H   0  0  0  0  0  0  0  0  0  0  0  0
    0.6702    2.7932    0.0000 H   0  0  0  0  0  0  0  0  0  0  0  0
    0.1485   -2.1295    0.0000 H   0  0  0  0  0  0  0  0  0  0  0  0
    1.3763    3.2502    0.0000 H   0  0  0  0  0  0  0  0  0  0  0  0
    2.3253    2.7388    0.0000 H   0  0  0  0  0  0  0  0  0  0  0  0
   -0.1339    0.4080    0.0000 H   0  0  0  0  0  0  0  0  0  0  0  0
    2.1726    0.7455    0.0000 H   0  0  0  0  0  0  0  0  0  0  0  0
   -2.7972   -3.1673    0.0000 H   0  0  0  0  0  0  0  0  0  0  0  0
   -3.7398   -2.6521    0.0000 H   0  0  0  0  0  0  0  0  0  0  0  0
   -3.5900   -0.6124    0.0000 H   0  0  0  0  0  0  0  0  0  0  0  0
   -4.4901   -2.2325    0.0000 H   0  0  0  0  0  0  0  0  0  0  0  0
   -4.5077   -1.1627    0.0000 H   0  0  0  0  0  0  0  0  0  0  0  0
    4.5033    2.0687    0.0000 H   0  0  0  0  0  0  0  0  0  0  0  0
    3.5638    3.6662    0.0000 H   0  0  0  0  0  0  0  0  0  0  0  0
    4.4947    3.1386    0.0000 H   0  0  0  0  0  0  0  0  0  0  0  0
   -1.2312   -0.2787    0.0000 H   0  0  0  0  0  0  0  0  0  0  0  0
   -2.1534    0.2601    0.0000 H   0  0  0  0  0  0  0  0  0  0  0  0
   -2.3432   -0.8765    0.0000 H   0  0  0  0  0  0  0  0  0  0  0  0
   -2.8574    0.6755    0.0000 H   0  0  0  0  0  0  0  0  0  0  0  0
   -3.7971   -0.9219    0.0000 H   0  0  0  0  0  0  0  0  0  0  0  0
   -3.7883    0.1481    0.0000 H   0  0  0  0  0  0  0  0  0  0  0  0
    2.7540    0.5436    0.0000 H   0  0  0  0  0  0  0  0  0  0  0  0
    4.3515    1.4833    0.0000 H   0  0  0  0  0  0  0  0  0  0  0  0
    3.8240    0.5523    0.0000 H   0  0  0  0  0  0  0  0  0  0  0  0
    2.9783    3.8178    0.0000 H   0  0  0  0  0  0  0  0  0  0  0  0
    1.3808    2.8783    0.0000 H   0  0  0  0  0  0  0  0  0  0  0  0
    1.9083    3.8092    0.0000 H   0  0  0  0  0  0  0  0  0  0  0  0
  1  2  1  0  0  0  0
  1  3  2  0  0  0  0
  1  4  1  0  0  0  0
  2 24  2  0  0  0  0
  2  5  1  0  0  0  0
  3  6  1  0  0  0  0
  3 28  1  0  0  0  0
  4  7  1  0  0  0  0
  5  9  1  0  0  0  0
  5 10  2  0  0  0  0
  6  8  2  0  0  0  0
  6 29  1  0  0  0  0
  7 11  1  0  0  0  0
  7 30  1  0  0  0  0
  7 31  1  0  0  0  0
  8 12  1  0  0  0  0
  9 32  1  0  0  0  0
  9 33  1  0  0  0  0
  9 34  1  0  0  0  0
 11 13  1  0  0  0  0
 11 14  1  0  0  0  0
 11 35  1  0  0  0  0
 12 15  1  0  0  0  0
 12 36  1  0  0  0  0
 13 16  1  0  0  0  0
 13 37  1  0  0  0  0
 13 38  1  0  0  0  0
 14 39  1  0  0  0  0
 15 17  1  0  0  0  0
 15 18  2  0  0  0  0
 16 19  1  0  0  0  0
 16 40  1  0  0  0  0
 17 20  1  0  0  0  0
 17 23  1  0  0  0  0
 19 22  1  0  0  0  0
 19 26  1  0  0  0  0
 19 27  1  0  0  0  0
 20 21  1  0  0  0  0
 20 41  1  0  0  0  0
 20 42  1  0  0  0  0
 21 43  1  0  0  0  0
 21 44  1  0  0  0  0
 21 45  1  0  0  0  0
 22 46  1  0  0  0  0
 22 47  1  0  0  0  0
 22 48  1  0  0  0  0
 23 25  1  0  0  0  0
 23 49  1  0  0  0  0
 23 50  1  0  0  0  0
 24  8  1  0  0  0  0
 24 51  1  0  0  0  0
 25 52  1  0  0  0  0
 25 53  1  0  0  0  0
 25 54  1  0  0  0  0
 26 55  1  0  0  0  0
 26 56  1  0  0  0  0
 26 57  1  0  0  0  0
 27 58  1  0  0  0  0
 27 59  1  0  0  0  0
 27 60  1  0  0  0  0
M  END
>  <DRUGBANK_ID>
DB04846

>  <COMMON_NAME>
Celiprolol

>  <CAS_NUMBER>
56980-93-9

>  <UNII>
DRB57K47QC

>  <SYNONYMS>
Celiprolol; Celiprololum; RS)-N'-{3-acetyl-4-[3-(tert-butylamino)-2-hydroxypropoxy]phenyl}-N,N-diethylurea

$$$$
