
 OpenBabel10282417072D

 60 63  0  0  0  0  0  0  0  0999 V2000
   -2.0124   -2.4931    0.0000 C   0  0  0  0  0  0  0  0  0  0  0  0
   -1.2054   -2.3215    0.0000 C   0  0  0  0  0  0  0  0  0  0  0  0
   -1.0339   -3.1285    0.0000 C   0  0  0  0  0  0  0  0  0  0  0  0
   -1.3769   -1.5146    0.0000 C   0  0  0  0  0  0  0  0  0  0  0  0
   -0.3984   -2.1500    0.0000 C   0  0  0  0  0  0  0  0  0  0  0  0
   -0.1435   -1.3654    0.0000 N   0  0  0  0  0  0  0  0  0  0  0  0
    0.6411   -1.1104    0.0000 C   0  0  0  0  0  0  0  0  0  0  0  0
    0.6411   -0.2854    0.0000 C   0  0  0  0  0  0  0  0  0  0  0  0
    1.3556    0.1271    0.0000 C   0  0  0  0  0  0  0  0  0  0  0  0
    2.0701   -0.2854    0.0000 C   0  0  0  0  0  0  0  0  0  0  0  0
    2.0701   -1.1104    0.0000 C   0  0  0  0  0  0  0  0  0  0  0  0
    1.3556   -1.5229    0.0000 N   0  0  0  0  0  0  0  0  0  0  0  0
    2.7845   -1.5229    0.0000 C   0  0  0  0  0  0  0  0  0  0  0  0
    3.5382   -1.1874    0.0000 C   0  0  0  0  0  0  0  0  0  0  0  0
    4.0902   -1.8005    0.0000 N   0  0  0  0  0  0  0  0  0  0  0  0
    3.6777   -2.5150    0.0000 C   0  0  0  0  0  0  0  0  0  0  0  0
    2.8708   -2.3434    0.0000 N   0  0  0  0  0  0  0  0  0  0  0  0
    4.0133   -3.2686    0.0000 C   0  0  0  0  0  0  0  0  0  0  0  0
    4.3489   -4.0223    0.0000 C   0  0  0  0  0  0  0  0  0  0  0  0
    3.2596   -3.6042    0.0000 C   0  0  0  0  0  0  0  0  0  0  0  0
    4.7670   -2.9331    0.0000 C   0  0  0  0  0  0  0  0  0  0  0  0
    3.7097   -0.3804    0.0000 C   0  0  0  0  0  0  0  0  0  0  0  0
    3.0966    0.1716    0.0000 C   0  0  0  0  0  0  0  0  0  0  0  0
    3.2682    0.9786    0.0000 C   0  0  0  0  0  0  0  0  0  0  0  0
    4.0528    1.2335    0.0000 C   0  0  0  0  0  0  0  0  0  0  0  0
    4.6659    0.6815    0.0000 C   0  0  0  0  0  0  0  0  0  0  0  0
    4.4944   -0.1255    0.0000 C   0  0  0  0  0  0  0  0  0  0  0  0
    4.2243    2.0405    0.0000 F   0  0  0  0  0  0  0  0  0  0  0  0
   -0.1435   -0.0305    0.0000 N   0  0  0  0  0  0  0  0  0  0  0  0
   -0.6284   -0.6979    0.0000 C   0  0  0  0  0  0  0  0  0  0  0  0
   -1.4534   -0.6979    0.0000 N   0  0  0  0  0  0  0  0  0  0  0  0
   -2.7284   -1.6980    0.0000 H   0  0  0  0  0  0  0  0  0  0  0  0
   -2.3430   -3.5108    0.0000 H   0  0  0  0  0  0  0  0  0  0  0  0
   -3.0590   -2.7156    0.0000 H   0  0  0  0  0  0  0  0  0  0  0  0
   -1.8291   -3.8444    0.0000 H   0  0  0  0  0  0  0  0  0  0  0  0
   -0.0163   -3.4592    0.0000 H   0  0  0  0  0  0  0  0  0  0  0  0
   -0.8115   -4.1751    0.0000 H   0  0  0  0  0  0  0  0  0  0  0  0
   -0.5817   -0.7986    0.0000 H   0  0  0  0  0  0  0  0  0  0  0  0
   -2.3945   -1.1839    0.0000 H   0  0  0  0  0  0  0  0  0  0  0  0
   -1.5994   -0.4680    0.0000 H   0  0  0  0  0  0  0  0  0  0  0  0
    0.3176   -2.9452    0.0000 H   0  0  0  0  0  0  0  0  0  0  0  0
    0.6482   -1.9275    0.0000 H   0  0  0  0  0  0  0  0  0  0  0  0
    1.3556    1.1591    0.0000 H   0  0  0  0  0  0  0  0  0  0  0  0
    2.9638    0.2306    0.0000 H   0  0  0  0  0  0  0  0  0  0  0  0
    5.0693   -1.6976    0.0000 H   0  0  0  0  0  0  0  0  0  0  0  0
    3.7200   -4.8880    0.0000 H   0  0  0  0  0  0  0  0  0  0  0  0
    5.4130   -4.1341    0.0000 H   0  0  0  0  0  0  0  0  0  0  0  0
    4.7841   -4.9998    0.0000 H   0  0  0  0  0  0  0  0  0  0  0  0
    2.3939   -2.9753    0.0000 H   0  0  0  0  0  0  0  0  0  0  0  0
    3.1478   -4.6683    0.0000 H   0  0  0  0  0  0  0  0  0  0  0  0
    2.2821   -4.0394    0.0000 H   0  0  0  0  0  0  0  0  0  0  0  0
    5.6326   -3.5621    0.0000 H   0  0  0  0  0  0  0  0  0  0  0  0
    4.8789   -1.8690    0.0000 H   0  0  0  0  0  0  0  0  0  0  0  0
    5.7445   -2.4980    0.0000 H   0  0  0  0  0  0  0  0  0  0  0  0
    2.1151   -0.1473    0.0000 H   0  0  0  0  0  0  0  0  0  0  0  0
    2.5013    1.6692    0.0000 H   0  0  0  0  0  0  0  0  0  0  0  0
    5.6474    1.0004    0.0000 H   0  0  0  0  0  0  0  0  0  0  0  0
    5.2613   -0.8161    0.0000 H   0  0  0  0  0  0  0  0  0  0  0  0
   -1.9457    0.1547    0.0000 H   0  0  0  0  0  0  0  0  0  0  0  0
   -1.9457   -1.5505    0.0000 H   0  0  0  0  0  0  0  0  0  0  0  0
  1  2  1  0  0  0  0
  1 32  1  0  0  0  0
  1 33  1  0  0  0  0
  1 34  1  0  0  0  0
  2  3  1  0  0  0  0
  2  4  1  0  0  0  0
  2  5  1  0  0  0  0
  3 35  1  0  0  0  0
  3 36  1  0  0  0  0
  3 37  1  0  0  0  0
  4 38  1  0  0  0  0
  4 39  1  0  0  0  0
  4 40  1  0  0  0  0
  5  6  1  0  0  0  0
  5 41  1  0  0  0  0
  5 42  1  0  0  0  0
  6  7  1  0  0  0  0
  6 30  1  0  0  0  0
  7  8  1  0  0  0  0
  7 12  2  0  0  0  0
  8  9  2  0  0  0  0
  8 29  1  0  0  0  0
  9 10  1  0  0  0  0
  9 43  1  0  0  0  0
 10 11  2  0  0  0  0
 10 44  1  0  0  0  0
 11 12  1  0  0  0  0
 11 13  1  0  0  0  0
 13 14  2  0  0  0  0
 13 17  1  0  0  0  0
 14 15  1  0  0  0  0
 14 22  1  0  0  0  0
 15 16  1  0  0  0  0
 15 45  1  0  0  0  0
 16 17  2  0  0  0  0
 16 18  1  0  0  0  0
 18 19  1  0  0  0  0
 18 20  1  0  0  0  0
 18 21  1  0  0  0  0
 19 46  1  0  0  0  0
 19 47  1  0  0  0  0
 19 48  1  0  0  0  0
 20 49  1  0  0  0  0
 20 50  1  0  0  0  0
 20 51  1  0  0  0  0
 21 52  1  0  0  0  0
 21 53  1  0  0  0  0
 21 54  1  0  0  0  0
 22 23  2  0  0  0  0
 22 27  1  0  0  0  0
 23 24  1  0  0  0  0
 23 55  1  0  0  0  0
 24 25  2  0  0  0  0
 24 56  1  0  0  0  0
 25 26  1  0  0  0  0
 25 28  1  0  0  0  0
 26 27  2  0  0  0  0
 26 57  1  0  0  0  0
 27 58  1  0  0  0  0
 29 30  2  0  0  0  0
 30 31  1  0  0  0  0
 31 59  1  0  0  0  0
 31 60  1  0  0  0  0
M  END
>  <DRUGBANK_ID>
DB11787

>  <COMMON_NAME>
Ralimetinib

>  <CAS_NUMBER>
862505-00-8

>  <UNII>
73I34XW4HD

>  <SYNONYMS>
Ralimetinib

$$$$
