
 OpenBabel10282417072D

 55 57  0  0  0  0  0  0  0  0999 V2000
    0.3019    5.7750    0.0000 C   0  0  0  0  0  0  0  0  0  0  0  0
   -0.5230    4.9500    0.0000 C   0  0  0  0  0  0  0  0  0  0  0  0
    1.1269    4.9500    0.0000 C   0  0  0  0  0  0  0  0  0  0  0  0
    1.0164   -5.3625    0.0000 C   0  0  0  0  0  0  0  0  0  0  0  0
    1.0164   -4.5375    0.0000 C   0  0  0  0  0  0  0  0  0  0  0  0
   -1.1269   -0.8250    0.0000 C   0  0  0  0  0  0  0  0  0  0  0  0
    0.3019   -0.8250    0.0000 C   0  0  0  0  0  0  0  0  0  0  0  0
   -1.1269   -1.6500    0.0000 C   0  0  0  0  0  0  0  0  0  0  0  0
    0.3019   -1.6500    0.0000 C   0  0  0  0  0  0  0  0  0  0  0  0
   -0.4125    3.7125    0.0000 C   0  0  0  0  0  0  0  0  0  0  0  0
    1.0164    3.7125    0.0000 C   0  0  0  0  0  0  0  0  0  0  0  0
   -0.4125    2.8875    0.0000 C   0  0  0  0  0  0  0  0  0  0  0  0
    1.0164    2.8875    0.0000 C   0  0  0  0  0  0  0  0  0  0  0  0
    0.3019   -5.7750    0.0000 C   0  0  0  0  0  0  0  0  0  0  0  0
   -0.4125    0.4125    0.0000 C   0  0  0  0  0  0  0  0  0  0  0  0
   -0.4125   -4.5375    0.0000 C   0  0  0  0  0  0  0  0  0  0  0  0
   -0.4125   -0.4125    0.0000 C   0  0  0  0  0  0  0  0  0  0  0  0
   -0.4125   -2.0625    0.0000 C   0  0  0  0  0  0  0  0  0  0  0  0
    0.3019    4.1250    0.0000 C   0  0  0  0  0  0  0  0  0  0  0  0
    0.3019   -4.1250    0.0000 C   0  0  0  0  0  0  0  0  0  0  0  0
    0.3019    2.4750    0.0000 C   0  0  0  0  0  0  0  0  0  0  0  0
   -0.4125   -2.8875    0.0000 C   0  0  0  0  0  0  0  0  0  0  0  0
    0.3019    4.9500    0.0000 C   0  0  0  0  0  0  0  0  0  0  0  0
   -0.4125   -5.3625    0.0000 N   0  0  0  0  0  0  0  0  0  0  0  0
    0.3019    0.8250    0.0000 N   0  0  0  0  0  0  0  0  0  0  0  0
    0.3019   -3.3000    0.0000 N   0  0  0  0  0  0  0  0  0  0  0  0
   -1.1269   -3.3000    0.0000 O   0  0  0  0  0  0  0  0  0  0  0  0
   -0.5230    1.6500    0.0000 O   0  0  0  0  0  0  0  0  0  0  0  0
    1.1269    1.6500    0.0000 O   0  0  0  0  0  0  0  0  0  0  0  0
    0.3019    1.6500    0.0000 S   0  0  0  0  0  0  0  0  0  0  0  0
    1.2285    6.3100    0.0000 H   0  0  0  0  0  0  0  0  0  0  0  0
   -0.6247    6.3100    0.0000 H   0  0  0  0  0  0  0  0  0  0  0  0
    0.3019    6.8450    0.0000 H   0  0  0  0  0  0  0  0  0  0  0  0
   -1.0580    5.8766    0.0000 H   0  0  0  0  0  0  0  0  0  0  0  0
   -1.0580    4.0234    0.0000 H   0  0  0  0  0  0  0  0  0  0  0  0
   -1.5930    4.9500    0.0000 H   0  0  0  0  0  0  0  0  0  0  0  0
    1.6619    4.0234    0.0000 H   0  0  0  0  0  0  0  0  0  0  0  0
    1.6619    5.8766    0.0000 H   0  0  0  0  0  0  0  0  0  0  0  0
    2.1969    4.9500    0.0000 H   0  0  0  0  0  0  0  0  0  0  0  0
    1.9101   -5.8785    0.0000 H   0  0  0  0  0  0  0  0  0  0  0  0
    1.9101   -4.0215    0.0000 H   0  0  0  0  0  0  0  0  0  0  0  0
   -2.0206   -0.3090    0.0000 H   0  0  0  0  0  0  0  0  0  0  0  0
    1.1956   -0.3090    0.0000 H   0  0  0  0  0  0  0  0  0  0  0  0
   -2.0206   -2.1660    0.0000 H   0  0  0  0  0  0  0  0  0  0  0  0
    1.1956   -2.1660    0.0000 H   0  0  0  0  0  0  0  0  0  0  0  0
   -1.3062    4.2285    0.0000 H   0  0  0  0  0  0  0  0  0  0  0  0
    1.9101    4.2285    0.0000 H   0  0  0  0  0  0  0  0  0  0  0  0
   -1.3062    2.3715    0.0000 H   0  0  0  0  0  0  0  0  0  0  0  0
    1.9101    2.3715    0.0000 H   0  0  0  0  0  0  0  0  0  0  0  0
    0.3019   -6.8070    0.0000 H   0  0  0  0  0  0  0  0  0  0  0  0
   -1.3392    0.9475    0.0000 H   0  0  0  0  0  0  0  0  0  0  0  0
   -0.4125    1.4825    0.0000 H   0  0  0  0  0  0  0  0  0  0  0  0
   -1.3062   -4.0215    0.0000 H   0  0  0  0  0  0  0  0  0  0  0  0
    1.1853    0.3150    0.0000 H   0  0  0  0  0  0  0  0  0  0  0  0
    1.1545   -2.8078    0.0000 H   0  0  0  0  0  0  0  0  0  0  0  0
  1 31  1  0  0  0  0
  1 32  1  0  0  0  0
  1 33  1  0  0  0  0
  2 34  1  0  0  0  0
  2 35  1  0  0  0  0
  2 36  1  0  0  0  0
  3 37  1  0  0  0  0
  3 38  1  0  0  0  0
  3 39  1  0  0  0  0
  4 40  1  0  0  0  0
  5  4  2  0  0  0  0
  5 41  1  0  0  0  0
  6 42  1  0  0  0  0
  7 43  1  0  0  0  0
  8  6  1  0  0  0  0
  8 44  1  0  0  0  0
  9  7  2  0  0  0  0
  9 45  1  0  0  0  0
 10 46  1  0  0  0  0
 11 47  1  0  0  0  0
 12 10  1  0  0  0  0
 12 48  1  0  0  0  0
 13 11  2  0  0  0  0
 13 49  1  0  0  0  0
 14  4  1  0  0  0  0
 14 50  1  0  0  0  0
 15 51  1  0  0  0  0
 15 52  1  0  0  0  0
 16 53  1  0  0  0  0
 17  6  2  0  0  0  0
 17  7  1  0  0  0  0
 17 15  1  0  0  0  0
 18  8  2  0  0  0  0
 18  9  1  0  0  0  0
 19 10  2  0  0  0  0
 19 11  1  0  0  0  0
 20  5  1  0  0  0  0
 20 16  2  0  0  0  0
 21 12  2  0  0  0  0
 21 13  1  0  0  0  0
 22 18  1  0  0  0  0
 23  1  1  0  0  0  0
 23  2  1  0  0  0  0
 23  3  1  0  0  0  0
 23 19  1  0  0  0  0
 24 14  2  0  0  0  0
 24 16  1  0  0  0  0
 25 15  1  0  0  0  0
 25 54  1  0  0  0  0
 26 20  1  0  0  0  0
 26 22  1  0  0  0  0
 26 55  1  0  0  0  0
 27 22  2  0  0  0  0
 30 21  1  0  0  0  0
 30 25  1  0  0  0  0
 30 28  2  0  0  0  0
 30 29  2  0  0  0  0
M  END
>  <DRUGBANK_ID>
DB16761

>  <COMMON_NAME>
STF-31

>  <CAS_NUMBER>
724741-75-7

>  <SYNONYMS>
STF 31; STF31

$$$$
