
 OpenBabel10282417072D

 30 30  0  0  0  0  0  0  0  0999 V2000
   -1.7535   -0.4125    0.0000 C   0  0  0  0  0  0  0  0  0  0  0  0
   -1.0521   -0.8251    0.0000 C   0  0  0  0  0  0  0  0  0  0  0  0
   -1.7535    0.4125    0.0000 C   0  0  0  0  0  0  0  0  0  0  0  0
   -2.4549   -0.8251    0.0000 C   0  0  0  0  0  0  0  0  0  0  0  0
   -0.3094   -0.4125    0.0000 C   0  0  0  0  0  0  0  0  0  0  0  0
   -2.4549    0.8251    0.0000 C   0  0  0  0  0  0  0  0  0  0  0  0
   -3.1975   -0.4125    0.0000 C   0  0  0  0  0  0  0  0  0  0  0  0
    0.3507   -0.8251    0.0000 N   0  0  0  0  0  0  0  0  0  0  0  0
   -3.1975    0.4125    0.0000 C   0  0  0  0  0  0  0  0  0  0  0  0
    1.0520   -0.4125    0.0000 C   0  0  0  0  0  0  0  0  0  0  0  0
    1.7947   -0.8251    0.0000 N   0  0  0  0  0  0  0  0  0  0  0  0
    1.0520    0.4125    0.0000 N   0  0  0  0  0  0  0  0  0  0  0  0
    2.4960   -0.4125    0.0000 C   0  0  0  0  0  0  0  0  0  0  0  0
    3.1975   -0.8251    0.0000 N   0  0  0  0  0  0  0  0  0  0  0  0
    2.4960    0.4125    0.0000 N   0  0  0  0  0  0  0  0  0  0  0  0
   -1.0653   -1.8950    0.0000 H   0  0  0  0  0  0  0  0  0  0  0  0
   -0.1333   -1.3734    0.0000 H   0  0  0  0  0  0  0  0  0  0  0  0
   -0.8577    0.9249    0.0000 H   0  0  0  0  0  0  0  0  0  0  0  0
   -2.4422   -1.8570    0.0000 H   0  0  0  0  0  0  0  0  0  0  0  0
   -0.2818    0.6571    0.0000 H   0  0  0  0  0  0  0  0  0  0  0  0
    0.6331    0.0941    0.0000 H   0  0  0  0  0  0  0  0  0  0  0  0
   -2.4422    1.8570    0.0000 H   0  0  0  0  0  0  0  0  0  0  0  0
   -4.0870   -0.9358    0.0000 H   0  0  0  0  0  0  0  0  0  0  0  0
    0.3375   -1.8095    0.0000 H   0  0  0  0  0  0  0  0  0  0  0  0
   -4.0870    0.9358    0.0000 H   0  0  0  0  0  0  0  0  0  0  0  0
    1.8069   -1.8095    0.0000 H   0  0  0  0  0  0  0  0  0  0  0  0
    1.9046    0.9048    0.0000 H   0  0  0  0  0  0  0  0  0  0  0  0
    3.1895   -1.8096    0.0000 H   0  0  0  0  0  0  0  0  0  0  0  0
    4.0540   -0.3398    0.0000 H   0  0  0  0  0  0  0  0  0  0  0  0
    3.3486    0.9048    0.0000 H   0  0  0  0  0  0  0  0  0  0  0  0
  1  2  1  0  0  0  0
  1  3  2  0  0  0  0
  1  4  1  0  0  0  0
  2  5  1  0  0  0  0
  2 16  1  0  0  0  0
  2 17  1  0  0  0  0
  3  6  1  0  0  0  0
  3 18  1  0  0  0  0
  4  7  2  0  0  0  0
  4 19  1  0  0  0  0
  5  8  1  0  0  0  0
  5 20  1  0  0  0  0
  5 21  1  0  0  0  0
  6  9  2  0  0  0  0
  6 22  1  0  0  0  0
  7  9  1  0  0  0  0
  7 23  1  0  0  0  0
  8 10  1  0  0  0  0
  8 24  1  0  0  0  0
  9 25  1  0  0  0  0
 10 11  1  0  0  0  0
 10 12  2  0  0  0  0
 11 13  1  0  0  0  0
 11 26  1  0  0  0  0
 12 27  1  0  0  0  0
 13 14  1  0  0  0  0
 13 15  2  0  0  0  0
 14 28  1  0  0  0  0
 14 29  1  0  0  0  0
 15 30  1  0  0  0  0
M  END
>  <DRUGBANK_ID>
DB00914

>  <SECONDARY_ACCESSION_NUMBERS>
APRD00511

>  <COMMON_NAME>
Phenformin

>  <CAS_NUMBER>
114-86-3

>  <UNII>
DD5K7529CE

>  <SYNONYMS>
Fenformin; Fenformina; Phenformin; Phenformine; Phenforminum; Î²-Phenethybiguanide

$$$$
