187
 OpenBabel10282417072D

 46 46  0  0  1  0  0  0  0  0999 V2000
    3.0790    1.0313    0.0000 O   0  0  0  0  0  0  0  0  0  0  0  0
    3.0790    2.6812    0.0000 O   0  0  0  0  0  0  0  0  0  0  0  0
    1.6500   -3.9188    0.0000 O   0  0  0  0  0  0  0  0  0  0  0  0
    3.0790   -3.9188    0.0000 O   0  0  0  0  0  0  0  0  0  0  0  0
    4.5079    3.5062    0.0000 N   0  0  0  0  0  0  0  0  0  0  0  0
    3.7934    2.2688    0.0000 C   0  0  3  0  0  0  0  0  0  0  0  0
    4.5079    2.6812    0.0000 C   0  0  0  0  0  0  0  0  0  0  0  0
    5.2223    3.9188    0.0000 C   0  0  0  0  0  0  0  0  0  0  0  0
    3.7934    1.4438    0.0000 C   0  0  0  0  0  0  0  0  0  0  0  0
    5.2223    4.7438    0.0000 C   0  0  0  0  0  0  0  0  0  0  0  0
    5.9369    3.5062    0.0000 C   0  0  0  0  0  0  0  0  0  0  0  0
    3.0790   -1.4438    0.0000 C   0  0  0  0  0  0  0  0  0  0  0  0
    3.0790   -2.2688    0.0000 C   0  0  0  0  0  0  0  0  0  0  0  0
    3.0790    0.2063    0.0000 C   0  0  0  0  0  0  0  0  0  0  0  0
    2.3644   -1.0313    0.0000 C   0  0  0  0  0  0  0  0  0  0  0  0
    3.7934   -1.0313    0.0000 C   0  0  0  0  0  0  0  0  0  0  0  0
    2.3644   -0.2063    0.0000 C   0  0  0  0  0  0  0  0  0  0  0  0
    3.7934   -0.2063    0.0000 C   0  0  0  0  0  0  0  0  0  0  0  0
    2.3644   -2.6812    0.0000 C   0  0  0  0  0  0  0  0  0  0  0  0
    2.3644   -3.5062    0.0000 C   0  0  0  0  0  0  0  0  0  0  0  0
    1.6500   -4.7438    0.0000 C   0  0  0  0  0  0  0  0  0  0  0  0
    3.0789    3.6512    0.0000 H   0  0  0  0  0  0  0  0  0  0  0  0
    3.6245    4.0161    0.0000 H   0  0  0  0  0  0  0  0  0  0  0  0
    3.7934    3.3388    0.0000 H   0  0  0  0  0  0  0  0  0  0  0  0
    5.4345    2.1461    0.0000 H   0  0  0  0  0  0  0  0  0  0  0  0
    4.5078    1.6112    0.0000 H   0  0  0  0  0  0  0  0  0  0  0  0
    6.1490    4.4538    0.0000 H   0  0  0  0  0  0  0  0  0  0  0  0
    4.7201    0.9088    0.0000 H   0  0  0  0  0  0  0  0  0  0  0  0
    4.7200    1.9788    0.0000 H   0  0  0  0  0  0  0  0  0  0  0  0
    6.1489    5.2788    0.0000 H   0  0  0  0  0  0  0  0  0  0  0  0
    4.2957    5.2788    0.0000 H   0  0  0  0  0  0  0  0  0  0  0  0
    5.2223    5.8138    0.0000 H   0  0  0  0  0  0  0  0  0  0  0  0
    5.9369    2.4362    0.0000 H   0  0  0  0  0  0  0  0  0  0  0  0
    6.8636    4.0412    0.0000 H   0  0  0  0  0  0  0  0  0  0  0  0
    6.8635    2.9712    0.0000 H   0  0  0  0  0  0  0  0  0  0  0  0
    4.0056   -2.8039    0.0000 H   0  0  0  0  0  0  0  0  0  0  0  0
    3.0789   -3.3388    0.0000 H   0  0  0  0  0  0  0  0  0  0  0  0
    1.4707   -1.5473    0.0000 H   0  0  0  0  0  0  0  0  0  0  0  0
    4.6871   -1.5473    0.0000 H   0  0  0  0  0  0  0  0  0  0  0  0
    1.4707    0.3097    0.0000 H   0  0  0  0  0  0  0  0  0  0  0  0
    4.6872    0.3096    0.0000 H   0  0  0  0  0  0  0  0  0  0  0  0
    1.4378   -2.1461    0.0000 H   0  0  0  0  0  0  0  0  0  0  0  0
    1.4377   -3.2162    0.0000 H   0  0  0  0  0  0  0  0  0  0  0  0
    0.7234   -5.2788    0.0000 H   0  0  0  0  0  0  0  0  0  0  0  0
    2.5766   -5.2788    0.0000 H   0  0  0  0  0  0  0  0  0  0  0  0
    1.6500   -5.8138    0.0000 H   0  0  0  0  0  0  0  0  0  0  0  0
  1  9  1  0  0  0  0
  1 14  1  0  0  0  0
  2  6  1  0  0  0  0
  2 22  1  0  0  0  0
  3 20  1  0  0  0  0
  3 21  1  0  0  0  0
  4 20  2  0  0  0  0
  5  7  1  0  0  0  0
  5  8  1  0  0  0  0
  5 23  1  0  0  0  0
  6  7  1  0  0  0  0
  6  9  1  0  0  0  0
  6 24  1  0  0  0  0
  7 25  1  0  0  0  0
  7 26  1  0  0  0  0
  8 10  1  0  0  0  0
  8 11  1  0  0  0  0
  8 27  1  0  0  0  0
  9 28  1  0  0  0  0
  9 29  1  0  0  0  0
 10 30  1  0  0  0  0
 10 31  1  0  0  0  0
 10 32  1  0  0  0  0
 11 33  1  0  0  0  0
 11 34  1  0  0  0  0
 11 35  1  0  0  0  0
 12 13  1  0  0  0  0
 12 15  2  0  0  0  0
 12 16  1  0  0  0  0
 13 19  1  0  0  0  0
 13 36  1  0  0  0  0
 13 37  1  0  0  0  0
 14 17  2  0  0  0  0
 14 18  1  0  0  0  0
 15 17  1  0  0  0  0
 15 38  1  0  0  0  0
 16 18  2  0  0  0  0
 16 39  1  0  0  0  0
 17 40  1  0  0  0  0
 18 41  1  0  0  0  0
 19 20  1  0  0  0  0
 19 42  1  0  0  0  0
 19 43  1  0  0  0  0
 21 44  1  0  0  0  0
 21 45  1  0  0  0  0
 21 46  1  0  0  0  0
M  END
>  <DRUGBANK_ID>
DB00187

>  <SECONDARY_ACCESSION_NUMBERS>
APRD00954

>  <COMMON_NAME>
Esmolol

>  <CAS_NUMBER>
81147-92-4

>  <UNII>
MDY902UXSR

>  <SYNONYMS>
(±)-esmolol; (±)-methyl p-(2-hydroxy-3-(isopropylamino)propoxy)hydrocinnamate; 3-[4-(2-Hydroxy-3-isopropylamino-propoxy)-phenyl]-propionic acid methyl ester; Esmolol; Methyl 4-(2-hydroxy-3-((1-methylethyl)amino)propoxy)benzenepropanoate; methyl p-(2-hydroxy-3-(isopropylamino)propoxy)hydrocinnamate

$$$$
