
 OpenBabel10282417072D

 58 59  0  0  1  0  0  0  0  0999 V2000
   -0.2227    9.2161    0.0000 C   0  0  0  0  0  0  0  0  0  0  0  0
   -0.2227    8.3911    0.0000 C   0  0  0  0  0  0  0  0  0  0  0  0
   -0.9372    9.6286    0.0000 C   0  0  0  0  0  0  0  0  0  0  0  0
    0.4917    7.9786    0.0000 C   0  0  0  0  0  0  0  0  0  0  0  0
   -0.6861   15.8851    0.0000 C   0  0  0  0  0  0  0  0  0  0  0  0
   -1.4707   16.1400    0.0000 C   0  0  0  0  0  0  0  0  0  0  0  0
   -0.5146   15.0781    0.0000 C   0  0  0  0  0  0  0  0  0  0  0  0
   -1.6517    9.2161    0.0000 C   0  0  0  0  0  0  0  0  0  0  0  0
    1.2062    8.3911    0.0000 C   0  0  0  0  0  0  0  0  0  0  0  0
   -2.0108   11.8081    0.0000 C   0  0  0  0  0  0  0  0  0  0  0  0
   -1.8393   11.0011    0.0000 C   0  0  0  0  0  0  0  0  0  0  0  0
   -1.9123   14.7810    0.0000 C   0  0  0  0  0  0  0  0  0  0  0  0
   -3.6718    9.9061    0.0000 C   0  0  0  0  0  0  0  0  0  0  0  0
   -1.5692   13.1671    0.0000 C   0  0  0  0  0  0  0  0  0  0  0  0
   -2.0838   15.5880    0.0000 C   0  0  0  0  0  0  0  0  0  0  0  0
   -1.3977   12.3601    0.0000 C   0  0  2  0  0  0  0  0  0  0  0  0
   -1.1277   14.5261    0.0000 C   0  0  0  0  0  0  0  0  0  0  0  0
   -2.3661    9.6286    0.0000 C   0  0  2  0  0  0  0  0  0  0  0  0
   -2.4524   10.4491    0.0000 C   0  0  2  0  0  0  0  0  0  0  0  0
   -3.1198    9.2931    0.0000 C   0  0  1  0  0  0  0  0  0  0  0  0
   -3.2593   10.6206    0.0000 C   0  0  2  0  0  0  0  0  0  0  0  0
    1.9207    7.9786    0.0000 C   0  0  0  0  0  0  0  0  0  0  0  0
   -2.8684   15.8430    0.0000 Cl  0  0  0  0  0  0  0  0  0  0  0  0
   -0.6131   12.1052    0.0000 O   0  0  0  0  0  0  0  0  0  0  0  0
   -3.2913    8.4861    0.0000 O   0  0  0  0  0  0  0  0  0  0  0  0
   -3.5949   11.3743    0.0000 O   0  0  0  0  0  0  0  0  0  0  0  0
    2.6352    8.3911    0.0000 O   0  0  0  0  0  0  0  0  0  0  0  0
    1.9207    7.1536    0.0000 O   0  0  0  0  0  0  0  0  0  0  0  0
   -0.9561   13.7191    0.0000 O   0  0  0  0  0  0  0  0  0  0  0  0
    0.4917    9.6286    0.0000 H   0  0  0  0  0  0  0  0  0  0  0  0
   -0.9372   10.4536    0.0000 H   0  0  0  0  0  0  0  0  0  0  0  0
   -2.7954   12.0630    0.0000 H   0  0  0  0  0  0  0  0  0  0  0  0
   -1.0547   10.7462    0.0000 H   0  0  0  0  0  0  0  0  0  0  0  0
   -2.1823   12.6151    0.0000 H   0  0  0  0  0  0  0  0  0  0  0  0
   -2.4093    8.8047    0.0000 H   0  0  0  0  0  0  0  0  0  0  0  0
   -1.6822   10.1534    0.0000 H   0  0  0  0  0  0  0  0  0  0  0  0
   -3.9167    9.0795    0.0000 H   0  0  0  0  0  0  0  0  0  0  0  0
   -2.7402   11.2618    0.0000 H   0  0  0  0  0  0  0  0  0  0  0  0
   -1.1494    7.8561    0.0000 H   0  0  0  0  0  0  0  0  0  0  0  0
   -0.2227    7.3211    0.0000 H   0  0  0  0  0  0  0  0  0  0  0  0
    0.4917    6.9086    0.0000 H   0  0  0  0  0  0  0  0  0  0  0  0
    1.4183    7.4436    0.0000 H   0  0  0  0  0  0  0  0  0  0  0  0
    0.0808   16.5756    0.0000 H   0  0  0  0  0  0  0  0  0  0  0  0
   -1.6853   17.1494    0.0000 H   0  0  0  0  0  0  0  0  0  0  0  0
    0.4669   14.7592    0.0000 H   0  0  0  0  0  0  0  0  0  0  0  0
   -1.6517    8.1461    0.0000 H   0  0  0  0  0  0  0  0  0  0  0  0
   -2.5784    8.6811    0.0000 H   0  0  0  0  0  0  0  0  0  0  0  0
    1.2062    9.4611    0.0000 H   0  0  0  0  0  0  0  0  0  0  0  0
    2.1328    8.9261    0.0000 H   0  0  0  0  0  0  0  0  0  0  0  0
   -2.6792   14.0905    0.0000 H   0  0  0  0  0  0  0  0  0  0  0  0
   -4.7359    9.7942    0.0000 H   0  0  0  0  0  0  0  0  0  0  0  0
   -4.2546   10.8035    0.0000 H   0  0  0  0  0  0  0  0  0  0  0  0
   -2.5868   13.4978    0.0000 H   0  0  0  0  0  0  0  0  0  0  0  0
   -1.7916   14.2137    0.0000 H   0  0  0  0  0  0  0  0  0  0  0  0
   -0.4114   11.1564    0.0000 H   0  0  0  0  0  0  0  0  0  0  0  0
   -4.2138    8.1863    0.0000 H   0  0  0  0  0  0  0  0  0  0  0  0
   -3.0248   12.1591    0.0000 H   0  0  0  0  0  0  0  0  0  0  0  0
    1.1092    6.6851    0.0000 H   0  0  0  0  0  0  0  0  0  0  0  0
  2  1  1  0  0  0  0
  2 39  1  0  0  0  0
  2 40  1  0  0  0  0
  3  1  2  0  0  0  0
  4  2  1  0  0  0  0
  4 41  1  0  0  0  0
  4 42  1  0  0  0  0
  5 43  1  0  0  0  0
  6  5  2  0  0  0  0
  6 44  1  0  0  0  0
  7  5  1  0  0  0  0
  7 45  1  0  0  0  0
  8  3  1  0  0  0  0
  8 46  1  0  0  0  0
  8 47  1  0  0  0  0
  9  4  1  0  0  0  0
  9 48  1  0  0  0  0
  9 49  1  0  0  0  0
 11 10  2  0  0  0  0
 12 50  1  0  0  0  0
 13 51  1  0  0  0  0
 13 52  1  0  0  0  0
 14 53  1  0  0  0  0
 14 54  1  0  0  0  0
 15  6  1  0  0  0  0
 15 12  2  0  0  0  0
 16 10  1  0  0  0  0
 16 14  1  0  0  0  0
 16 24  1  0  0  0  0
 16 34  1  1  0  0  0
 17  7  2  0  0  0  0
 17 12  1  0  0  0  0
 18  8  1  0  0  0  0
 18 35  1  6  0  0  0
 19 11  1  0  0  0  0
 19 18  1  0  0  0  0
 19 36  1  1  0  0  0
 20 13  1  0  0  0  0
 20 18  1  0  0  0  0
 20 25  1  0  0  0  0
 20 37  1  6  0  0  0
 21 13  1  0  0  0  0
 21 19  1  0  0  0  0
 21 26  1  0  0  0  0
 21 38  1  6  0  0  0
 22  9  1  0  0  0  0
 23 15  1  0  0  0  0
 24 55  1  0  0  0  0
 25 56  1  0  0  0  0
 26 57  1  0  0  0  0
 27 22  2  0  0  0  0
 28 22  1  0  0  0  0
 28 58  1  0  0  0  0
 29 14  1  0  0  0  0
 29 17  1  0  0  0  0
 30  1  1  0  0  0  0
 31  3  1  0  0  0  0
 32 10  1  0  0  0  0
 33 11  1  0  0  0  0
M  END
>  <DRUGBANK_ID>
DB11507

>  <COMMON_NAME>
Cloprostenol

>  <CAS_NUMBER>
54276-21-0

>  <UNII>
4208238832

>  <SYNONYMS>
Cloprostenol

$$$$
