
 OpenBabel10282417072D

 57 58  0  0  0  0  0  0  0  0999 V2000
   11.8440    1.7605    0.0000 C   0  0  0  0  0  0  0  0  0  0  0  0
   11.0190    3.1895    0.0000 C   0  0  0  0  0  0  0  0  0  0  0  0
   15.1144    7.4250    0.0000 C   0  0  0  0  0  0  0  0  0  0  0  0
   13.4644    7.4250    0.0000 C   0  0  0  0  0  0  0  0  0  0  0  0
   12.8605    4.9500    0.0000 C   0  0  0  0  0  0  0  0  0  0  0  0
   11.4315    0.0000    0.0000 C   0  0  0  0  0  0  0  0  0  0  0  0
   10.0026    0.0000    0.0000 C   0  0  0  0  0  0  0  0  0  0  0  0
   15.7184    9.9000    0.0000 C   0  0  0  0  0  0  0  0  0  0  0  0
   16.4328    8.6625    0.0000 C   0  0  0  0  0  0  0  0  0  0  0  0
   11.4315    0.8250    0.0000 C   0  0  0  0  0  0  0  0  0  0  0  0
   10.0026    0.8250    0.0000 C   0  0  0  0  0  0  0  0  0  0  0  0
   15.0039    9.4875    0.0000 C   0  0  0  0  0  0  0  0  0  0  0  0
   15.7184    8.2500    0.0000 C   0  0  0  0  0  0  0  0  0  0  0  0
   12.8605    4.1250    0.0000 C   0  0  0  0  0  0  0  0  0  0  0  0
   13.5749    5.3625    0.0000 C   0  0  0  0  0  0  0  0  0  0  0  0
   10.7171   -0.4125    0.0000 C   0  0  0  0  0  0  0  0  0  0  0  0
   16.4328    9.4875    0.0000 C   0  0  0  0  0  0  0  0  0  0  0  0
   10.7171    1.2375    0.0000 C   0  0  0  0  0  0  0  0  0  0  0  0
   15.0039    8.6625    0.0000 C   0  0  0  0  0  0  0  0  0  0  0  0
   12.1460    2.8875    0.0000 C   0  0  0  0  0  0  0  0  0  0  0  0
   14.2894    6.6000    0.0000 C   0  0  0  0  0  0  0  0  0  0  0  0
   11.4315    2.4750    0.0000 C   0  0  0  0  0  0  0  0  0  0  0  0
   14.2894    7.4250    0.0000 C   0  0  0  0  0  0  0  0  0  0  0  0
   10.7171   -1.2375    0.0000 Cl  0  0  0  0  0  0  0  0  0  0  0  0
   17.1473    9.9000    0.0000 Cl  0  0  0  0  0  0  0  0  0  0  0  0
   12.8605    2.4750    0.0000 O   0  0  0  0  0  0  0  0  0  0  0  0
   15.0039    6.1875    0.0000 O   0  0  0  0  0  0  0  0  0  0  0  0
   12.1460    3.7125    0.0000 O   0  0  0  0  0  0  0  0  0  0  0  0
   13.5749    6.1875    0.0000 O   0  0  0  0  0  0  0  0  0  0  0  0
   10.7171    2.0625    0.0000 O   0  0  0  0  0  0  0  0  0  0  0  0
   14.2894    8.2500    0.0000 O   0  0  0  0  0  0  0  0  0  0  0  0
   11.3090    0.8339    0.0000 H   0  0  0  0  0  0  0  0  0  0  0  0
   12.9140    1.7605    0.0000 H   0  0  0  0  0  0  0  0  0  0  0  0
   12.3790    0.8338    0.0000 H   0  0  0  0  0  0  0  0  0  0  0  0
   11.5540    4.1161    0.0000 H   0  0  0  0  0  0  0  0  0  0  0  0
    9.9490    3.1895    0.0000 H   0  0  0  0  0  0  0  0  0  0  0  0
   10.4840    4.1162    0.0000 H   0  0  0  0  0  0  0  0  0  0  0  0
   15.6494    6.4984    0.0000 H   0  0  0  0  0  0  0  0  0  0  0  0
   15.6494    8.3516    0.0000 H   0  0  0  0  0  0  0  0  0  0  0  0
   16.1844    7.4250    0.0000 H   0  0  0  0  0  0  0  0  0  0  0  0
   12.9294    8.3516    0.0000 H   0  0  0  0  0  0  0  0  0  0  0  0
   12.9294    6.4984    0.0000 H   0  0  0  0  0  0  0  0  0  0  0  0
   12.3944    7.4250    0.0000 H   0  0  0  0  0  0  0  0  0  0  0  0
   11.9338    5.4850    0.0000 H   0  0  0  0  0  0  0  0  0  0  0  0
   12.8605    6.0200    0.0000 H   0  0  0  0  0  0  0  0  0  0  0  0
   12.3252   -0.5160    0.0000 H   0  0  0  0  0  0  0  0  0  0  0  0
    9.1089   -0.5160    0.0000 H   0  0  0  0  0  0  0  0  0  0  0  0
   15.7184   10.9320    0.0000 H   0  0  0  0  0  0  0  0  0  0  0  0
   17.3265    8.1465    0.0000 H   0  0  0  0  0  0  0  0  0  0  0  0
   12.3252    1.3410    0.0000 H   0  0  0  0  0  0  0  0  0  0  0  0
    9.1089    1.3410    0.0000 H   0  0  0  0  0  0  0  0  0  0  0  0
   14.1102   10.0035    0.0000 H   0  0  0  0  0  0  0  0  0  0  0  0
   15.7184    7.2180    0.0000 H   0  0  0  0  0  0  0  0  0  0  0  0
   13.7871    3.5900    0.0000 H   0  0  0  0  0  0  0  0  0  0  0  0
   12.8605    3.0550    0.0000 H   0  0  0  0  0  0  0  0  0  0  0  0
   14.5016    4.8275    0.0000 H   0  0  0  0  0  0  0  0  0  0  0  0
   14.5015    5.8975    0.0000 H   0  0  0  0  0  0  0  0  0  0  0  0
  1 32  1  0  0  0  0
  1 33  1  0  0  0  0
  1 34  1  0  0  0  0
  2 35  1  0  0  0  0
  2 36  1  0  0  0  0
  2 37  1  0  0  0  0
  3 38  1  0  0  0  0
  3 39  1  0  0  0  0
  3 40  1  0  0  0  0
  4 41  1  0  0  0  0
  4 42  1  0  0  0  0
  4 43  1  0  0  0  0
  5 44  1  0  0  0  0
  5 45  1  0  0  0  0
  6 46  1  0  0  0  0
  7 47  1  0  0  0  0
  8 48  1  0  0  0  0
  9 49  1  0  0  0  0
 10  6  1  0  0  0  0
 10 50  1  0  0  0  0
 11  7  2  0  0  0  0
 11 51  1  0  0  0  0
 12  8  1  0  0  0  0
 12 52  1  0  0  0  0
 13  9  2  0  0  0  0
 13 53  1  0  0  0  0
 14  5  1  0  0  0  0
 14 54  1  0  0  0  0
 14 55  1  0  0  0  0
 15  5  1  0  0  0  0
 15 56  1  0  0  0  0
 15 57  1  0  0  0  0
 16  6  2  0  0  0  0
 16  7  1  0  0  0  0
 17  8  2  0  0  0  0
 17  9  1  0  0  0  0
 18 10  2  0  0  0  0
 18 11  1  0  0  0  0
 19 12  2  0  0  0  0
 19 13  1  0  0  0  0
 22  1  1  0  0  0  0
 22  2  1  0  0  0  0
 22 20  1  0  0  0  0
 23  3  1  0  0  0  0
 23  4  1  0  0  0  0
 23 21  1  0  0  0  0
 24 16  1  0  0  0  0
 25 17  1  0  0  0  0
 26 20  2  0  0  0  0
 27 21  2  0  0  0  0
 28 14  1  0  0  0  0
 28 20  1  0  0  0  0
 29 15  1  0  0  0  0
 29 21  1  0  0  0  0
 30 18  1  0  0  0  0
 30 22  1  0  0  0  0
 31 19  1  0  0  0  0
 31 23  1  0  0  0  0
M  END
>  <DRUGBANK_ID>
DB13433

>  <COMMON_NAME>
Simfibrate

>  <CAS_NUMBER>
14929-11-4

>  <UNII>
L2R75RQX26

>  <SYNONYMS>
Simfibrate

$$$$
