
 OpenBabel10282417072D

 77 81  0  0  1  0  0  0  0  0999 V2000
   10.4292   -6.1680    0.0000 O   0  0  0  0  0  0  0  0  0  0  0  0
   10.3307   -6.9871    0.0000 C   0  0  0  0  0  0  0  0  0  0  0  0
   10.9908   -7.4819    0.0000 O   0  0  0  0  0  0  0  0  0  0  0  0
    9.5721   -7.3113    0.0000 C   0  0  0  0  0  0  0  0  0  0  0  0
    9.4736   -8.1304    0.0000 N   0  0  0  0  0  0  0  0  0  0  0  0
   10.1688   -8.5746    0.0000 C   0  0  0  0  0  0  0  0  0  0  0  0
   10.8362   -8.0896    0.0000 C   0  0  0  0  0  0  0  0  0  0  0  0
   11.5899   -8.4252    0.0000 C   0  0  0  0  0  0  0  0  0  0  0  0
   11.6762   -9.2457    0.0000 C   0  0  0  0  0  0  0  0  0  0  0  0
   11.0087   -9.7306    0.0000 C   0  0  0  0  0  0  0  0  0  0  0  0
   10.2550   -9.3950    0.0000 C   0  0  0  0  0  0  0  0  0  0  0  0
    9.6673   -9.9740    0.0000 C   0  0  0  0  0  0  0  0  0  0  0  0
    8.8482   -9.8755    0.0000 C   0  0  0  0  0  0  0  0  0  0  0  0
    8.4145   -9.1737    0.0000 C   0  0  2  0  0  0  0  0  0  0  0  0
    7.5941   -9.2599    0.0000 N   0  0  0  0  0  0  0  0  0  0  0  0
    7.1091   -8.5925    0.0000 C   0  0  0  0  0  0  0  0  0  0  0  0
    7.4447   -7.8388    0.0000 O   0  0  0  0  0  0  0  0  0  0  0  0
    6.2887   -8.6787    0.0000 C   0  0  0  0  0  0  0  0  0  0  0  0
    6.2887   -7.8537    0.0000 C   0  0  0  0  0  0  0  0  0  0  0  0
    5.5742   -7.4412    0.0000 C   0  0  1  0  0  0  0  0  0  0  0  0
    5.5742   -6.6162    0.0000 C   0  0  0  0  0  0  0  0  0  0  0  0
    4.8597   -6.2037    0.0000 C   0  0  0  0  0  0  0  0  0  0  0  0
    4.8597   -5.3787    0.0000 C   0  0  0  0  0  0  0  0  0  0  0  0
    4.1452   -4.9662    0.0000 C   0  0  0  0  0  0  0  0  0  0  0  0
    4.1452   -4.1412    0.0000 C   0  0  0  0  0  0  0  0  0  0  0  0
    4.8597   -3.7287    0.0000 C   0  0  0  0  0  0  0  0  0  0  0  0
    5.5742   -4.1412    0.0000 C   0  0  0  0  0  0  0  0  0  0  0  0
    6.2887   -3.7287    0.0000 C   0  0  0  0  0  0  0  0  0  0  0  0
    7.0031   -4.1412    0.0000 C   0  0  0  0  0  0  0  0  0  0  0  0
    7.0031   -4.9662    0.0000 C   0  0  0  0  0  0  0  0  0  0  0  0
    6.2887   -5.3787    0.0000 C   0  0  0  0  0  0  0  0  0  0  0  0
    5.5742   -4.9662    0.0000 C   0  0  0  0  0  0  0  0  0  0  0  0
    4.8597   -7.8537    0.0000 C   0  0  0  0  0  0  0  0  0  0  0  0
    4.8597   -8.6787    0.0000 O   0  0  0  0  0  0  0  0  0  0  0  0
    4.1452   -7.4412    0.0000 O   0  0  0  0  0  0  0  0  0  0  0  0
    6.4602   -9.4857    0.0000 C   0  0  0  0  0  0  0  0  0  0  0  0
    5.7457   -9.8982    0.0000 C   0  0  0  0  0  0  0  0  0  0  0  0
    5.1326   -9.3462    0.0000 C   0  0  0  0  0  0  0  0  0  0  0  0
    5.4682   -8.5925    0.0000 C   0  0  0  0  0  0  0  0  0  0  0  0
    8.6928   -8.3971    0.0000 C   0  0  0  0  0  0  0  0  0  0  0  0
    8.1139   -7.8094    0.0000 O   0  0  0  0  0  0  0  0  0  0  0  0
   11.2908   -5.7997    0.0000 H   0  0  0  0  0  0  0  0  0  0  0  0
    8.7160   -6.6695    0.0000 H   0  0  0  0  0  0  0  0  0  0  0  0
    8.5882   -7.7318    0.0000 H   0  0  0  0  0  0  0  0  0  0  0  0
   10.7283   -7.0633    0.0000 H   0  0  0  0  0  0  0  0  0  0  0  0
   12.4248   -7.8186    0.0000 H   0  0  0  0  0  0  0  0  0  0  0  0
   12.6190   -9.6654    0.0000 H   0  0  0  0  0  0  0  0  0  0  0  0
   11.1165  -10.7570    0.0000 H   0  0  0  0  0  0  0  0  0  0  0  0
   10.0131  -10.9866    0.0000 H   0  0  0  0  0  0  0  0  0  0  0  0
    8.9939  -10.8056    0.0000 H   0  0  0  0  0  0  0  0  0  0  0  0
    8.2722  -10.7772    0.0000 H   0  0  0  0  0  0  0  0  0  0  0  0
    7.7782   -9.8675    0.0000 H   0  0  0  0  0  0  0  0  0  0  0  0
    7.9430  -10.1342    0.0000 H   0  0  0  0  0  0  0  0  0  0  0  0
    7.1937  -10.1593    0.0000 H   0  0  0  0  0  0  0  0  0  0  0  0
    7.2153   -7.3187    0.0000 H   0  0  0  0  0  0  0  0  0  0  0  0
    6.2887   -6.7837    0.0000 H   0  0  0  0  0  0  0  0  0  0  0  0
    6.5008   -6.9062    0.0000 H   0  0  0  0  0  0  0  0  0  0  0  0
    6.5008   -6.0812    0.0000 H   0  0  0  0  0  0  0  0  0  0  0  0
    5.5742   -5.5462    0.0000 H   0  0  0  0  0  0  0  0  0  0  0  0
    3.9331   -6.7387    0.0000 H   0  0  0  0  0  0  0  0  0  0  0  0
    3.9331   -5.6687    0.0000 H   0  0  0  0  0  0  0  0  0  0  0  0
    3.2515   -5.4822    0.0000 H   0  0  0  0  0  0  0  0  0  0  0  0
    3.2515   -3.6252    0.0000 H   0  0  0  0  0  0  0  0  0  0  0  0
    4.8597   -2.6967    0.0000 H   0  0  0  0  0  0  0  0  0  0  0  0
    6.2887   -2.6967    0.0000 H   0  0  0  0  0  0  0  0  0  0  0  0
    7.8968   -3.6252    0.0000 H   0  0  0  0  0  0  0  0  0  0  0  0
    7.8968   -5.4822    0.0000 H   0  0  0  0  0  0  0  0  0  0  0  0
    6.2887   -6.4107    0.0000 H   0  0  0  0  0  0  0  0  0  0  0  0
    4.0482   -9.1472    0.0000 H   0  0  0  0  0  0  0  0  0  0  0  0
    7.4377   -9.9209    0.0000 H   0  0  0  0  0  0  0  0  0  0  0  0
    6.5162  -10.5542    0.0000 H   0  0  0  0  0  0  0  0  0  0  0  0
    5.6339  -10.9623    0.0000 H   0  0  0  0  0  0  0  0  0  0  0  0
    4.7468  -10.2817    0.0000 H   0  0  0  0  0  0  0  0  0  0  0  0
    4.0860   -9.5687    0.0000 H   0  0  0  0  0  0  0  0  0  0  0  0
    4.4592   -8.5146    0.0000 H   0  0  0  0  0  0  0  0  0  0  0  0
    4.9332   -7.6659    0.0000 H   0  0  0  0  0  0  0  0  0  0  0  0
    6.0509   -7.6951    0.0000 H   0  0  0  0  0  0  0  0  0  0  0  0
  1  2  1  0  0  0  0
  1 42  1  0  0  0  0
  2  3  2  0  0  0  0
  2  4  1  0  0  0  0
  4  5  1  0  0  0  0
  4 43  1  0  0  0  0
  4 44  1  0  0  0  0
  5  6  1  0  0  0  0
  5 40  1  0  0  0  0
  6  7  2  0  0  0  0
  6 11  1  0  0  0  0
  7  8  1  0  0  0  0
  7 45  1  0  0  0  0
  8  9  2  0  0  0  0
  8 46  1  0  0  0  0
  9 10  1  0  0  0  0
  9 47  1  0  0  0  0
 10 11  2  0  0  0  0
 10 48  1  0  0  0  0
 11 12  1  0  0  0  0
 12 13  1  0  0  0  0
 12 49  1  0  0  0  0
 12 50  1  0  0  0  0
 13 51  1  0  0  0  0
 13 52  1  0  0  0  0
 14 13  1  0  0  0  0
 14 15  1  0  0  0  0
 14 40  1  0  0  0  0
 14 53  1  1  0  0  0
 15 16  1  0  0  0  0
 15 54  1  0  0  0  0
 16 17  2  0  0  0  0
 16 18  1  0  0  0  0
 18 19  1  0  0  0  0
 18 36  1  0  0  0  0
 18 39  1  0  0  0  0
 19 55  1  0  0  0  0
 19 56  1  0  0  0  0
 20 19  1  0  0  0  0
 20 21  1  0  0  0  0
 20 33  1  0  0  0  0
 20 57  1  1  0  0  0
 21 22  1  0  0  0  0
 21 58  1  0  0  0  0
 21 59  1  0  0  0  0
 22 23  1  0  0  0  0
 22 60  1  0  0  0  0
 22 61  1  0  0  0  0
 23 24  2  0  0  0  0
 23 32  1  0  0  0  0
 24 25  1  0  0  0  0
 24 62  1  0  0  0  0
 25 26  2  0  0  0  0
 25 63  1  0  0  0  0
 26 27  1  0  0  0  0
 26 64  1  0  0  0  0
 27 28  2  0  0  0  0
 27 32  1  0  0  0  0
 28 29  1  0  0  0  0
 28 65  1  0  0  0  0
 29 30  2  0  0  0  0
 29 66  1  0  0  0  0
 30 31  1  0  0  0  0
 30 67  1  0  0  0  0
 31 32  2  0  0  0  0
 31 68  1  0  0  0  0
 33 34  1  0  0  0  0
 33 35  2  0  0  0  0
 34 69  1  0  0  0  0
 36 37  1  0  0  0  0
 36 70  1  0  0  0  0
 36 71  1  0  0  0  0
 37 38  1  0  0  0  0
 37 72  1  0  0  0  0
 37 73  1  0  0  0  0
 38 39  1  0  0  0  0
 38 74  1  0  0  0  0
 38 75  1  0  0  0  0
 39 76  1  0  0  0  0
 39 77  1  0  0  0  0
 40 41  2  0  0  0  0
M  END
>  <DRUGBANK_ID>
DB15356

>  <COMMON_NAME>
SLV-334

>  <CAS_NUMBER>
182821-33-6

>  <UNII>
3613ZP748K

$$$$
