
 OpenBabel10282417072D

 27 27  0  0  0  0  0  0  0  0999 V2000
   -1.4288    0.0000    0.0000 C   0  0  0  0  0  0  0  0  0  0  0  0
   -1.4288   -0.8249    0.0000 C   0  0  0  0  0  0  0  0  0  0  0  0
   -2.1433    0.4125    0.0000 C   0  0  0  0  0  0  0  0  0  0  0  0
   -2.1433   -1.2374    0.0000 C   0  0  0  0  0  0  0  0  0  0  0  0
   -2.8579    0.0000    0.0000 C   0  0  0  0  0  0  0  0  0  0  0  0
   -2.8579   -0.8249    0.0000 C   0  0  0  0  0  0  0  0  0  0  0  0
   -0.7143    0.4125    0.0000 C   0  0  0  0  0  0  0  0  0  0  0  0
    0.0000    0.0000    0.0000 C   0  0  0  0  0  0  0  0  0  0  0  0
    0.7145    0.4125    0.0000 C   0  0  0  0  0  0  0  0  0  0  0  0
    1.4289    0.0000    0.0000 C   0  0  0  0  0  0  0  0  0  0  0  0
    2.8579    0.0000    0.0000 O   0  0  0  0  0  0  0  0  0  0  0  0
    2.1433    0.4124    0.0000 C   0  0  0  0  0  0  0  0  0  0  0  0
    2.1433    1.2373    0.0000 O   0  0  0  0  0  0  0  0  0  0  0  0
   -0.5351   -1.3409    0.0000 H   0  0  0  0  0  0  0  0  0  0  0  0
   -2.1433    1.4445    0.0000 H   0  0  0  0  0  0  0  0  0  0  0  0
   -2.1433   -2.2694    0.0000 H   0  0  0  0  0  0  0  0  0  0  0  0
   -3.7516    0.5160    0.0000 H   0  0  0  0  0  0  0  0  0  0  0  0
   -3.7516   -1.3409    0.0000 H   0  0  0  0  0  0  0  0  0  0  0  0
   -0.7142    1.4825    0.0000 H   0  0  0  0  0  0  0  0  0  0  0  0
    0.2124    0.9474    0.0000 H   0  0  0  0  0  0  0  0  0  0  0  0
   -0.0001   -1.0700    0.0000 H   0  0  0  0  0  0  0  0  0  0  0  0
    0.9266   -0.5350    0.0000 H   0  0  0  0  0  0  0  0  0  0  0  0
    0.7145    1.4825    0.0000 H   0  0  0  0  0  0  0  0  0  0  0  0
    1.6412    0.9475    0.0000 H   0  0  0  0  0  0  0  0  0  0  0  0
    1.4288   -1.0700    0.0000 H   0  0  0  0  0  0  0  0  0  0  0  0
    2.3555   -0.5351    0.0000 H   0  0  0  0  0  0  0  0  0  0  0  0
    2.8581   -0.9370    0.0000 H   0  0  0  0  0  0  0  0  0  0  0  0
  1  7  1  0  0  0  0
  2  1  1  0  0  0  0
  2 14  1  0  0  0  0
  3  1  2  0  0  0  0
  3 15  1  0  0  0  0
  4  2  2  0  0  0  0
  4 16  1  0  0  0  0
  5  3  1  0  0  0  0
  5 17  1  0  0  0  0
  6  4  1  0  0  0  0
  6  5  2  0  0  0  0
  6 18  1  0  0  0  0
  7 19  1  0  0  0  0
  7 20  1  0  0  0  0
  8  7  1  0  0  0  0
  8 21  1  0  0  0  0
  8 22  1  0  0  0  0
  9  8  1  0  0  0  0
  9 23  1  0  0  0  0
  9 24  1  0  0  0  0
 10  9  1  0  0  0  0
 10 25  1  0  0  0  0
 10 26  1  0  0  0  0
 11 12  1  0  0  0  0
 11 27  1  0  0  0  0
 12 10  1  0  0  0  0
 12 13  2  0  0  0  0
M  END
>  <DRUGBANK_ID>
DB04051

>  <SECONDARY_ACCESSION_NUMBERS>
EXPT00258

>  <COMMON_NAME>
5-phenylpentanoic acid

>  <CAS_NUMBER>
2270-20-4

>  <UNII>
XYJ5U8LCQ8

>  <SYNONYMS>
5-Phenylvaleric acid; Benzenepentanoic-acid; Phenylpentanoic acid; Phenylvaleric acid; Î´-phenylvaleric acid

$$$$
