
 OpenBabel10282417072D

119121  0  0  1  0  0  0  0  0999 V2000
   23.5208  -15.9433    0.0000 S   0  0  0  0  0  0  0  0  0  0  0  0
   30.6891  -21.8641    0.0000 P   0  0  3  0  0  0  0  0  0  0  0  0
   31.7493  -22.8221    0.0000 P   0  0  3  0  0  0  0  0  0  0  0  0
   34.4308  -23.5171    0.0000 P   0  0  0  0  0  0  0  0  0  0  0  0
   31.4958  -22.0370    0.0000 O   0  0  0  0  0  0  0  0  0  0  0  0
   29.8824  -21.6912    0.0000 O   0  0  0  0  0  0  0  0  0  0  0  0
   32.0029  -23.6072    0.0000 O   0  0  0  0  0  0  0  0  0  0  0  0
   34.5156  -24.3377    0.0000 O   0  0  0  0  0  0  0  0  0  0  0  0
   30.8620  -21.0574    0.0000 O   0  0  0  0  0  0  0  0  0  0  0  0
   30.9642  -23.0757    0.0000 O   0  0  0  0  0  0  0  0  0  0  0  0
   35.2514  -23.4323    0.0000 O   0  0  0  0  0  0  0  0  0  0  0  0
   34.3460  -22.6964    0.0000 O   0  0  0  0  0  0  0  0  0  0  0  0
   27.4623  -21.1724    0.0000 O   0  0  0  0  0  0  0  0  0  0  0  0
   34.5125  -26.1326    0.0000 O   0  0  0  0  0  0  0  0  0  0  0  0
   32.5771  -25.2318    0.0000 O   0  0  0  0  0  0  0  0  0  0  0  0
   30.5161  -22.6708    0.0000 O   0  0  0  0  0  0  0  0  0  0  0  0
   32.5344  -22.5686    0.0000 O   0  0  0  0  0  0  0  0  0  0  0  0
   33.6102  -23.6019    0.0000 O   0  0  0  0  0  0  0  0  0  0  0  0
   22.1610  -16.3824    0.0000 O   0  0  0  0  0  0  0  0  0  0  0  0
   28.3149  -19.1631    0.0000 O   0  0  0  0  0  0  0  0  0  0  0  0
   26.1944  -17.2471    0.0000 O   0  0  0  0  0  0  0  0  0  0  0  0
   26.9552  -19.6023    0.0000 N   0  0  0  0  0  0  0  0  0  0  0  0
   24.8347  -17.6863    0.0000 N   0  0  0  0  0  0  0  0  0  0  0  0
   31.3094  -28.9982    0.0000 N   0  0  0  0  0  0  0  0  0  0  0  0
   32.8045  -26.6843    0.0000 N   0  0  0  0  0  0  0  0  0  0  0  0
   32.8045  -28.0120    0.0000 N   0  0  0  0  0  0  0  0  0  0  0  0
   30.5949  -27.7607    0.0000 N   0  0  0  0  0  0  0  0  0  0  0  0
   31.3094  -26.5231    0.0000 N   0  0  0  0  0  0  0  0  0  0  0  0
   28.8221  -20.7332    0.0000 C   0  0  0  0  0  0  0  0  0  0  0  0
   28.0154  -20.5602    0.0000 C   0  0  2  0  0  0  0  0  0  0  0  0
   23.7744  -16.7283    0.0000 C   0  0  0  0  0  0  0  0  0  0  0  0
   29.6288  -20.9061    0.0000 C   0  0  0  0  0  0  0  0  0  0  0  0
   24.5810  -16.9013    0.0000 C   0  0  0  0  0  0  0  0  0  0  0  0
   26.7016  -18.8172    0.0000 C   0  0  0  0  0  0  0  0  0  0  0  0
   19.5333  -12.8964    0.0000 C   0  0  0  0  0  0  0  0  0  0  0  0
   20.3400  -13.0693    0.0000 C   0  0  0  0  0  0  0  0  0  0  0  0
   19.2797  -12.1113    0.0000 C   0  0  0  0  0  0  0  0  0  0  0  0
   20.5935  -13.8544    0.0000 C   0  0  0  0  0  0  0  0  0  0  0  0
   18.4730  -11.9384    0.0000 C   0  0  0  0  0  0  0  0  0  0  0  0
   21.4002  -14.0273    0.0000 C   0  0  0  0  0  0  0  0  0  0  0  0
   18.2195  -11.1533    0.0000 C   0  0  0  0  0  0  0  0  0  0  0  0
   21.6538  -14.8123    0.0000 C   0  0  0  0  0  0  0  0  0  0  0  0
   17.4128  -10.9804    0.0000 C   0  0  0  0  0  0  0  0  0  0  0  0
   32.8096  -23.7801    0.0000 C   0  0  0  0  0  0  0  0  0  0  0  0
   22.4605  -14.9853    0.0000 C   0  0  0  0  0  0  0  0  0  0  0  0
   25.8949  -18.6443    0.0000 C   0  0  0  0  0  0  0  0  0  0  0  0
   28.9950  -19.9266    0.0000 C   0  0  0  0  0  0  0  0  0  0  0  0
   28.6492  -21.5399    0.0000 C   0  0  0  0  0  0  0  0  0  0  0  0
   17.1592  -10.1953    0.0000 C   0  0  0  0  0  0  0  0  0  0  0  0
   33.0609  -25.9000    0.0000 C   0  0  1  0  0  0  0  0  0  0  0  0
   33.0632  -24.5652    0.0000 C   0  0  2  0  0  0  0  0  0  0  0  0
   33.8459  -25.6465    0.0000 C   0  0  1  0  0  0  0  0  0  0  0  0
   33.8474  -24.8215    0.0000 C   0  0  2  0  0  0  0  0  0  0  0  0
   22.7141  -15.7703    0.0000 C   0  0  0  0  0  0  0  0  0  0  0  0
   27.7619  -19.7752    0.0000 C   0  0  0  0  0  0  0  0  0  0  0  0
   25.6413  -17.8593    0.0000 C   0  0  0  0  0  0  0  0  0  0  0  0
   31.3094  -28.1732    0.0000 C   0  0  0  0  0  0  0  0  0  0  0  0
   32.0239  -26.9356    0.0000 C   0  0  0  0  0  0  0  0  0  0  0  0
   32.0239  -27.7607    0.0000 C   0  0  0  0  0  0  0  0  0  0  0  0
   33.2860  -27.3482    0.0000 C   0  0  0  0  0  0  0  0  0  0  0  0
   30.5949  -26.9356    0.0000 C   0  0  0  0  0  0  0  0  0  0  0  0
   31.7850  -20.7592    0.0000 H   0  0  0  0  0  0  0  0  0  0  0  0
   30.2445  -22.4254    0.0000 H   0  0  0  0  0  0  0  0  0  0  0  0
   35.8202  -24.2180    0.0000 H   0  0  0  0  0  0  0  0  0  0  0  0
   35.1317  -22.1276    0.0000 H   0  0  0  0  0  0  0  0  0  0  0  0
   26.5138  -20.9691    0.0000 H   0  0  0  0  0  0  0  0  0  0  0  0
   34.4094  -27.0971    0.0000 H   0  0  0  0  0  0  0  0  0  0  0  0
   26.2952  -20.3328    0.0000 H   0  0  0  0  0  0  0  0  0  0  0  0
   24.1747  -18.4168    0.0000 H   0  0  0  0  0  0  0  0  0  0  0  0
   30.4568  -29.4904    0.0000 H   0  0  0  0  0  0  0  0  0  0  0  0
   32.1620  -29.4905    0.0000 H   0  0  0  0  0  0  0  0  0  0  0  0
   28.3443  -21.5784    0.0000 H   0  0  0  0  0  0  0  0  0  0  0  0
   23.0570  -17.5222    0.0000 H   0  0  0  0  0  0  0  0  0  0  0  0
   24.1032  -17.7465    0.0000 H   0  0  0  0  0  0  0  0  0  0  0  0
   30.3461  -20.1122    0.0000 H   0  0  0  0  0  0  0  0  0  0  0  0
   29.2999  -19.8879    0.0000 H   0  0  0  0  0  0  0  0  0  0  0  0
   25.2983  -16.1074    0.0000 H   0  0  0  0  0  0  0  0  0  0  0  0
   24.2522  -15.8831    0.0000 H   0  0  0  0  0  0  0  0  0  0  0  0
   27.4189  -18.0233    0.0000 H   0  0  0  0  0  0  0  0  0  0  0  0
   26.3727  -17.7990    0.0000 H   0  0  0  0  0  0  0  0  0  0  0  0
   18.8160  -13.6903    0.0000 H   0  0  0  0  0  0  0  0  0  0  0  0
   18.4871  -12.6721    0.0000 H   0  0  0  0  0  0  0  0  0  0  0  0
   21.0574  -12.2754    0.0000 H   0  0  0  0  0  0  0  0  0  0  0  0
   21.3862  -13.2937    0.0000 H   0  0  0  0  0  0  0  0  0  0  0  0
   19.9970  -11.3174    0.0000 H   0  0  0  0  0  0  0  0  0  0  0  0
   18.9508  -11.0931    0.0000 H   0  0  0  0  0  0  0  0  0  0  0  0
   19.8761  -14.6483    0.0000 H   0  0  0  0  0  0  0  0  0  0  0  0
   20.9224  -14.8726    0.0000 H   0  0  0  0  0  0  0  0  0  0  0  0
   17.7556  -12.7323    0.0000 H   0  0  0  0  0  0  0  0  0  0  0  0
   17.4268  -11.7140    0.0000 H   0  0  0  0  0  0  0  0  0  0  0  0
   22.1175  -13.2333    0.0000 H   0  0  0  0  0  0  0  0  0  0  0  0
   22.4464  -14.2515    0.0000 H   0  0  0  0  0  0  0  0  0  0  0  0
   18.9369  -10.3594    0.0000 H   0  0  0  0  0  0  0  0  0  0  0  0
   17.8906  -10.1351    0.0000 H   0  0  0  0  0  0  0  0  0  0  0  0
   20.9364  -15.6062    0.0000 H   0  0  0  0  0  0  0  0  0  0  0  0
   21.9826  -15.8305    0.0000 H   0  0  0  0  0  0  0  0  0  0  0  0
   16.6955  -11.7743    0.0000 H   0  0  0  0  0  0  0  0  0  0  0  0
   16.3666  -10.7561    0.0000 H   0  0  0  0  0  0  0  0  0  0  0  0
   33.5269  -22.9862    0.0000 H   0  0  0  0  0  0  0  0  0  0  0  0
   33.8558  -24.0044    0.0000 H   0  0  0  0  0  0  0  0  0  0  0  0
   23.1779  -14.1914    0.0000 H   0  0  0  0  0  0  0  0  0  0  0  0
   23.5067  -15.2096    0.0000 H   0  0  0  0  0  0  0  0  0  0  0  0
   25.1776  -19.4383    0.0000 H   0  0  0  0  0  0  0  0  0  0  0  0
   24.8487  -18.4201    0.0000 H   0  0  0  0  0  0  0  0  0  0  0  0
   30.0132  -19.5977    0.0000 H   0  0  0  0  0  0  0  0  0  0  0  0
   28.2011  -19.2093    0.0000 H   0  0  0  0  0  0  0  0  0  0  0  0
   29.2193  -18.8804    0.0000 H   0  0  0  0  0  0  0  0  0  0  0  0
   27.6310  -21.8688    0.0000 H   0  0  0  0  0  0  0  0  0  0  0  0
   29.4431  -22.2572    0.0000 H   0  0  0  0  0  0  0  0  0  0  0  0
   28.4250  -22.5861    0.0000 H   0  0  0  0  0  0  0  0  0  0  0  0
   17.8765   -9.4014    0.0000 H   0  0  0  0  0  0  0  0  0  0  0  0
   16.1130   -9.9710    0.0000 H   0  0  0  0  0  0  0  0  0  0  0  0
   16.8303   -9.1771    0.0000 H   0  0  0  0  0  0  0  0  0  0  0  0
   32.0038  -26.0656    0.0000 H   0  0  0  0  0  0  0  0  0  0  0  0
   32.0067  -24.3960    0.0000 H   0  0  0  0  0  0  0  0  0  0  0  0
   33.6766  -26.7030    0.0000 H   0  0  0  0  0  0  0  0  0  0  0  0
   33.6818  -23.7644    0.0000 H   0  0  0  0  0  0  0  0  0  0  0  0
   34.3180  -27.3482    0.0000 H   0  0  0  0  0  0  0  0  0  0  0  0
   29.7012  -26.4196    0.0000 H   0  0  0  0  0  0  0  0  0  0  0  0
  1 31  1  0  0  0  0
  1 54  1  0  0  0  0
  2  5  1  0  0  0  0
  2  6  1  0  0  0  0
  2  9  1  0  0  0  0
  2 16  2  0  0  0  0
  3  5  1  0  0  0  0
  3  7  1  0  0  0  0
  3 10  1  0  0  0  0
  3 17  2  0  0  0  0
  4  8  1  0  0  0  0
  4 11  1  0  0  0  0
  4 12  1  0  0  0  0
  4 18  2  0  0  0  0
  6 32  1  0  0  0  0
  7 44  1  0  0  0  0
  9 62  1  0  0  0  0
 10 63  1  0  0  0  0
 11 64  1  0  0  0  0
 12 65  1  0  0  0  0
 13 66  1  0  0  0  0
 14 67  1  0  0  0  0
 15 50  1  0  0  0  0
 15 51  1  0  0  0  0
 19 54  2  0  0  0  0
 20 55  2  0  0  0  0
 21 56  2  0  0  0  0
 22 34  1  0  0  0  0
 22 55  1  0  0  0  0
 22 68  1  0  0  0  0
 23 33  1  0  0  0  0
 23 56  1  0  0  0  0
 23 69  1  0  0  0  0
 24 57  1  0  0  0  0
 24 70  1  0  0  0  0
 24 71  1  0  0  0  0
 25 58  1  0  0  0  0
 25 60  1  0  0  0  0
 26 59  1  0  0  0  0
 26 60  2  0  0  0  0
 27 57  1  0  0  0  0
 27 61  2  0  0  0  0
 28 58  2  0  0  0  0
 28 61  1  0  0  0  0
 29 30  1  0  0  0  0
 29 32  1  0  0  0  0
 29 47  1  0  0  0  0
 29 48  1  0  0  0  0
 30 13  1  0  0  0  0
 30 55  1  0  0  0  0
 30 72  1  6  0  0  0
 31 33  1  0  0  0  0
 31 73  1  0  0  0  0
 31 74  1  0  0  0  0
 32 75  1  0  0  0  0
 32 76  1  0  0  0  0
 33 77  1  0  0  0  0
 33 78  1  0  0  0  0
 34 46  1  0  0  0  0
 34 79  1  0  0  0  0
 34 80  1  0  0  0  0
 35 36  1  0  0  0  0
 35 37  1  0  0  0  0
 35 81  1  0  0  0  0
 35 82  1  0  0  0  0
 36 38  1  0  0  0  0
 36 83  1  0  0  0  0
 36 84  1  0  0  0  0
 37 39  1  0  0  0  0
 37 85  1  0  0  0  0
 37 86  1  0  0  0  0
 38 40  1  0  0  0  0
 38 87  1  0  0  0  0
 38 88  1  0  0  0  0
 39 41  1  0  0  0  0
 39 89  1  0  0  0  0
 39 90  1  0  0  0  0
 40 42  1  0  0  0  0
 40 91  1  0  0  0  0
 40 92  1  0  0  0  0
 41 43  1  0  0  0  0
 41 93  1  0  0  0  0
 41 94  1  0  0  0  0
 42 45  1  0  0  0  0
 42 95  1  0  0  0  0
 42 96  1  0  0  0  0
 43 49  1  0  0  0  0
 43 97  1  0  0  0  0
 43 98  1  0  0  0  0
 44 99  1  0  0  0  0
 44100  1  0  0  0  0
 45 54  1  0  0  0  0
 45101  1  0  0  0  0
 45102  1  0  0  0  0
 46 56  1  0  0  0  0
 46103  1  0  0  0  0
 46104  1  0  0  0  0
 47105  1  0  0  0  0
 47106  1  0  0  0  0
 47107  1  0  0  0  0
 48108  1  0  0  0  0
 48109  1  0  0  0  0
 48110  1  0  0  0  0
 49111  1  0  0  0  0
 49112  1  0  0  0  0
 49113  1  0  0  0  0
 50 25  1  0  0  0  0
 50 52  1  0  0  0  0
 50114  1  1  0  0  0
 51 44  1  0  0  0  0
 51 53  1  0  0  0  0
 51115  1  1  0  0  0
 52 14  1  0  0  0  0
 52 53  1  0  0  0  0
 52116  1  6  0  0  0
 53  8  1  0  0  0  0
 53117  1  6  0  0  0
 57 59  2  0  0  0  0
 58 59  1  0  0  0  0
 60118  1  0  0  0  0
 61119  1  0  0  0  0
M  END
>  <DRUGBANK_ID>
DB03264

>  <SECONDARY_ACCESSION_NUMBERS>
EXPT01131

>  <COMMON_NAME>
Dodecyl-Coa

$$$$
