
 OpenBabel10282417072D

 57 60  0  0  0  0  0  0  0  0999 V2000
    2.1785   -0.5887    0.0000 C   0  0  0  0  0  0  0  0  0  0  0  0
    0.6794   -1.5712    0.0000 C   0  0  0  0  0  0  0  0  0  0  0  0
    2.1785    0.7461    0.0000 C   0  0  2  0  0  0  0  0  0  0  0  0
    0.6794    0.9036    0.0000 C   0  0  0  0  0  0  0  0  0  0  0  0
    2.6635    0.0786    0.0000 C   0  0  0  0  0  0  0  0  0  0  0  0
   -0.7495   -0.7462    0.0000 C   0  0  2  0  0  0  0  0  0  0  0  0
   -0.0350    0.4911    0.0000 C   0  0  1  0  0  0  0  0  0  0  0  0
   -0.0350   -1.9838    0.0000 C   0  0  1  0  0  0  0  0  0  0  0  0
   -0.7495   -1.5712    0.0000 C   0  0  0  0  0  0  0  0  0  0  0  0
   -1.4640   -0.3338    0.0000 C   0  0  0  0  0  0  0  0  0  0  0  0
   -1.4640   -1.9838    0.0000 C   0  0  0  0  0  0  0  0  0  0  0  0
   -2.1783   -0.7462    0.0000 C   0  0  0  0  0  0  0  0  0  0  0  0
    0.6794   -0.7462    0.0000 C   0  0  2  0  0  0  0  0  0  0  0  0
    0.6794    0.0786    0.0000 H   0  0  0  0  0  0  0  0  0  0  0  0
   -0.0350   -0.3338    0.0000 C   0  0  1  0  0  0  0  0  0  0  0  0
   -0.0350   -1.1588    0.0000 H   0  0  0  0  0  0  0  0  0  0  0  0
    1.3938    0.4911    0.0000 C   0  0  2  0  0  0  0  0  0  0  0  0
    1.3938    1.3161    0.0000 C   0  0  0  0  0  0  0  0  0  0  0  0
    1.3938   -0.3338    0.0000 C   0  0  1  0  0  0  0  0  0  0  0  0
    1.3938   -1.1588    0.0000 H   0  0  0  0  0  0  0  0  0  0  0  0
   -2.8929   -1.9838    0.0000 O   0  0  0  0  0  0  0  0  0  0  0  0
   -2.1783   -1.5712    0.0000 C   0  0  0  0  0  0  0  0  0  0  0  0
   -0.7495    0.0786    0.0000 C   0  0  0  0  0  0  0  0  0  0  0  0
    2.8929    1.1587    0.0000 O   0  0  0  0  0  0  0  0  0  0  0  0
    2.1785    1.5711    0.0000 C   0  0  0  0  0  0  0  0  0  0  0  0
   -0.7495    0.9036    0.0000 O   0  0  0  0  0  0  0  0  0  0  0  0
    1.4640    1.9837    0.0000 O   0  0  0  0  0  0  0  0  0  0  0  0
    2.8929    1.9837    0.0000 C   0  0  0  0  0  0  0  0  0  0  0  0
    2.8929    2.8088    0.0000 O   0  0  0  0  0  0  0  0  0  0  0  0
   -0.0350   -2.8088    0.0000 C   0  0  0  0  0  0  0  0  0  0  0  0
    2.5091   -1.6063    0.0000 H   0  0  0  0  0  0  0  0  0  0  0  0
    3.2353   -0.7562    0.0000 H   0  0  0  0  0  0  0  0  0  0  0  0
    1.6061   -2.1061    0.0000 H   0  0  0  0  0  0  0  0  0  0  0  0
    0.6795   -2.6412    0.0000 H   0  0  0  0  0  0  0  0  0  0  0  0
    0.6794    1.9736    0.0000 H   0  0  0  0  0  0  0  0  0  0  0  0
   -0.2473    1.4386    0.0000 H   0  0  0  0  0  0  0  0  0  0  0  0
    3.7335    0.0785    0.0000 H   0  0  0  0  0  0  0  0  0  0  0  0
    3.1493    1.0320    0.0000 H   0  0  0  0  0  0  0  0  0  0  0  0
   -0.9616   -0.0439    0.0000 H   0  0  0  0  0  0  0  0  0  0  0  0
    0.8917   -2.5187    0.0000 H   0  0  0  0  0  0  0  0  0  0  0  0
   -1.4641    0.6982    0.0000 H   0  0  0  0  0  0  0  0  0  0  0  0
   -1.4641   -3.0158    0.0000 H   0  0  0  0  0  0  0  0  0  0  0  0
   -3.0720   -0.2302    0.0000 H   0  0  0  0  0  0  0  0  0  0  0  0
    2.3204    1.8511    0.0000 H   0  0  0  0  0  0  0  0  0  0  0  0
    0.4672    1.8511    0.0000 H   0  0  0  0  0  0  0  0  0  0  0  0
    1.3938    2.3861    0.0000 H   0  0  0  0  0  0  0  0  0  0  0  0
    0.1771    0.6136    0.0000 H   0  0  0  0  0  0  0  0  0  0  0  0
   -1.6761    0.6136    0.0000 H   0  0  0  0  0  0  0  0  0  0  0  0
   -0.7495    1.1486    0.0000 H   0  0  0  0  0  0  0  0  0  0  0  0
    3.7330    0.6738    0.0000 H   0  0  0  0  0  0  0  0  0  0  0  0
   -0.7495    1.8736    0.0000 H   0  0  0  0  0  0  0  0  0  0  0  0
    3.8196    1.4488    0.0000 H   0  0  0  0  0  0  0  0  0  0  0  0
    3.8195    2.5187    0.0000 H   0  0  0  0  0  0  0  0  0  0  0  0
    3.7329    3.2938    0.0000 H   0  0  0  0  0  0  0  0  0  0  0  0
   -0.9616   -3.3438    0.0000 H   0  0  0  0  0  0  0  0  0  0  0  0
    0.8916   -3.3438    0.0000 H   0  0  0  0  0  0  0  0  0  0  0  0
   -0.0350   -3.8788    0.0000 H   0  0  0  0  0  0  0  0  0  0  0  0
  1 31  1  0  0  0  0
  1 32  1  0  0  0  0
  2  8  1  0  0  0  0
  2 33  1  0  0  0  0
  2 34  1  0  0  0  0
  3  5  1  0  0  0  0
  3 24  1  6  0  0  0
  3 25  1  0  0  0  0
  4  7  1  0  0  0  0
  4 35  1  0  0  0  0
  4 36  1  0  0  0  0
  5  1  1  0  0  0  0
  5 37  1  0  0  0  0
  5 38  1  0  0  0  0
  6  9  1  0  0  0  0
  6 10  1  0  0  0  0
  6 23  1  1  0  0  0
  7 26  1  0  0  0  0
  7 39  1  6  0  0  0
  8  9  1  0  0  0  0
  8 30  1  0  0  0  0
  8 40  1  1  0  0  0
  9 11  2  0  0  0  0
 10 12  2  0  0  0  0
 10 41  1  0  0  0  0
 11 22  1  0  0  0  0
 11 42  1  0  0  0  0
 12 22  1  0  0  0  0
 12 43  1  0  0  0  0
 13 15  1  0  0  0  0
 13  2  1  0  0  0  0
 13 14  1  1  0  0  0
 15  6  1  0  0  0  0
 15  7  1  0  0  0  0
 15 16  1  6  0  0  0
 17  3  1  0  0  0  0
 17  4  1  0  0  0  0
 17 18  1  1  0  0  0
 18 44  1  0  0  0  0
 18 45  1  0  0  0  0
 18 46  1  0  0  0  0
 19 13  1  0  0  0  0
 19 17  1  0  0  0  0
 19  1  1  0  0  0  0
 19 20  1  6  0  0  0
 22 21  2  0  0  0  0
 23 47  1  0  0  0  0
 23 48  1  0  0  0  0
 23 49  1  0  0  0  0
 24 50  1  0  0  0  0
 26 51  1  0  0  0  0
 27 25  2  0  0  0  0
 28 25  1  0  0  0  0
 28 52  1  0  0  0  0
 28 53  1  0  0  0  0
 29 28  1  0  0  0  0
 29 54  1  0  0  0  0
 30 55  1  0  0  0  0
 30 56  1  0  0  0  0
 30 57  1  0  0  0  0
M  END
>  <DRUGBANK_ID>
DB00959

>  <SECONDARY_ACCESSION_NUMBERS>
APRD00342

>  <COMMON_NAME>
Methylprednisolone

>  <CAS_NUMBER>
83-43-2

>  <UNII>
X4W7ZR7023

>  <SYNONYMS>
(6α,11β)-11,17,21-trihydroxy-6-methylpregna-1,4-diene-3,20-dione; 1-dehydro-6α-methylhydrocortisone; 6α-methyl-11β,17α,21-triol-1,4-pregnadiene-3,20-dione; delta(1)-6alpha-Methylhydrocortisone; Methylprednisolon; Methylprednisolone; Methylprednisolonum; Metilprednisolona

$$$$
