
 OpenBabel10282417072D

 58 62  0  0  0  0  0  0  0  0999 V2000
   -2.3886   -2.3725    0.0000 C   0  0  0  0  0  0  0  0  0  0  0  0
   -3.1044   -3.6111    0.0000 C   0  0  0  0  0  0  0  0  0  0  0  0
   -3.1044   -2.7827    0.0000 N   0  0  0  0  0  0  0  0  0  0  0  0
   -2.3886   -4.0213    0.0000 N   0  0  0  0  0  0  0  0  0  0  0  0
   -2.3886   -1.5441    0.0000 N   0  0  0  0  0  0  0  0  0  0  0  0
   -1.6728   -2.7827    0.0000 C   0  0  0  0  0  0  0  0  0  0  0  0
   -1.6728   -3.6111    0.0000 C   0  0  0  0  0  0  0  0  0  0  0  0
   -0.4102   -3.1929    0.0000 C   0  0  0  0  0  0  0  0  0  0  0  0
   -0.8927   -3.8605    0.0000 O   0  0  0  0  0  0  0  0  0  0  0  0
   -0.8927   -2.5254    0.0000 C   0  0  0  0  0  0  0  0  0  0  0  0
   -0.4825   -1.8176    0.0000 C   0  0  0  0  0  0  0  0  0  0  0  0
    0.7559   -1.1018    0.0000 C   0  0  0  0  0  0  0  0  0  0  0  0
    0.3458   -0.3860    0.0000 C   0  0  0  0  0  0  0  0  0  0  0  0
   -0.4825   -0.3860    0.0000 C   0  0  0  0  0  0  0  0  0  0  0  0
   -0.8927   -1.1018    0.0000 C   0  0  0  0  0  0  0  0  0  0  0  0
    0.3458   -1.8176    0.0000 C   0  0  0  0  0  0  0  0  0  0  0  0
    0.4182   -3.1929    0.0000 C   0  0  0  0  0  0  0  0  0  0  0  0
    2.0669   -3.1929    0.0000 C   0  0  0  0  0  0  0  0  0  0  0  0
    1.6567   -2.4852    0.0000 C   0  0  0  0  0  0  0  0  0  0  0  0
    0.8284   -2.4852    0.0000 C   0  0  0  0  0  0  0  0  0  0  0  0
    0.8284   -3.9087    0.0000 C   0  0  0  0  0  0  0  0  0  0  0  0
    1.6567   -3.9087    0.0000 C   0  0  0  0  0  0  0  0  0  0  0  0
    2.8953   -3.1929    0.0000 O   0  0  0  0  0  0  0  0  0  0  0  0
    3.1044   -3.9971    0.0000 C   0  0  0  0  0  0  0  0  0  0  0  0
    0.7559    0.3297    0.0000 N   0  0  0  0  0  0  0  0  0  0  0  0
    0.3458    1.0455    0.0000 C   0  0  0  0  0  0  0  0  0  0  0  0
   -0.4825    1.0455    0.0000 O   0  0  0  0  0  0  0  0  0  0  0  0
    0.7559    1.7532    0.0000 N   0  0  0  0  0  0  0  0  0  0  0  0
    0.3458    2.4691    0.0000 C   0  0  0  0  0  0  0  0  0  0  0  0
   -0.8766    3.2089    0.0000 C   0  0  0  0  0  0  0  0  0  0  0  0
   -0.4825    2.4852    0.0000 C   0  0  0  0  0  0  0  0  0  0  0  0
    0.7720    3.1768    0.0000 C   0  0  0  0  0  0  0  0  0  0  0  0
    0.3779    3.9007    0.0000 C   0  0  0  0  0  0  0  0  0  0  0  0
   -0.4504    3.9167    0.0000 C   0  0  0  0  0  0  0  0  0  0  0  0
    1.6004    3.1607    0.0000 F   0  0  0  0  0  0  0  0  0  0  0  0
   -1.7050    3.2251    0.0000 C   0  0  0  0  0  0  0  0  0  0  0  0
   -1.4798    4.0213    0.0000 F   0  0  0  0  0  0  0  0  0  0  0  0
   -1.9222    2.4288    0.0000 F   0  0  0  0  0  0  0  0  0  0  0  0
   -2.4128    3.6352    0.0000 F   0  0  0  0  0  0  0  0  0  0  0  0
   -3.9973   -4.1285    0.0000 H   0  0  0  0  0  0  0  0  0  0  0  0
   -1.5360   -1.0518    0.0000 H   0  0  0  0  0  0  0  0  0  0  0  0
   -3.2412   -1.0518    0.0000 H   0  0  0  0  0  0  0  0  0  0  0  0
    1.7879   -1.1018    0.0000 H   0  0  0  0  0  0  0  0  0  0  0  0
   -0.9999    0.5069    0.0000 H   0  0  0  0  0  0  0  0  0  0  0  0
   -1.9247   -1.1018    0.0000 H   0  0  0  0  0  0  0  0  0  0  0  0
    0.8633   -2.7105    0.0000 H   0  0  0  0  0  0  0  0  0  0  0  0
    2.1719   -1.5910    0.0000 H   0  0  0  0  0  0  0  0  0  0  0  0
    0.3132   -1.5910    0.0000 H   0  0  0  0  0  0  0  0  0  0  0  0
    0.3110   -4.8016    0.0000 H   0  0  0  0  0  0  0  0  0  0  0  0
    2.1741   -4.8016    0.0000 H   0  0  0  0  0  0  0  0  0  0  0  0
    2.3422   -4.7481    0.0000 H   0  0  0  0  0  0  0  0  0  0  0  0
    4.1359   -4.2817    0.0000 H   0  0  0  0  0  0  0  0  0  0  0  0
    3.3737   -5.0327    0.0000 H   0  0  0  0  0  0  0  0  0  0  0  0
    1.7404    0.3297    0.0000 H   0  0  0  0  0  0  0  0  0  0  0  0
    1.7404    1.7507    0.0000 H   0  0  0  0  0  0  0  0  0  0  0  0
   -1.0182    1.6031    0.0000 H   0  0  0  0  0  0  0  0  0  0  0  0
    0.9136    4.7828    0.0000 H   0  0  0  0  0  0  0  0  0  0  0  0
   -0.9495    4.8200    0.0000 H   0  0  0  0  0  0  0  0  0  0  0  0
  1  3  1  0  0  0  0
  1  6  2  0  0  0  0
  1  5  1  0  0  0  0
  2  3  2  0  0  0  0
  2  4  1  0  0  0  0
  2 40  1  0  0  0  0
  4  7  2  0  0  0  0
  5 41  1  0  0  0  0
  5 42  1  0  0  0  0
  6 10  1  0  0  0  0
  6  7  1  0  0  0  0
  7  9  1  0  0  0  0
  8 10  2  0  0  0  0
  8  9  1  0  0  0  0
  8 17  1  0  0  0  0
 10 11  1  0  0  0  0
 11 15  1  0  0  0  0
 11 16  2  0  0  0  0
 12 13  2  0  0  0  0
 12 16  1  0  0  0  0
 12 43  1  0  0  0  0
 13 14  1  0  0  0  0
 13 25  1  0  0  0  0
 14 15  2  0  0  0  0
 14 44  1  0  0  0  0
 15 45  1  0  0  0  0
 16 46  1  0  0  0  0
 17 20  1  0  0  0  0
 17 21  2  0  0  0  0
 18 19  1  0  0  0  0
 18 22  2  0  0  0  0
 18 23  1  0  0  0  0
 19 20  2  0  0  0  0
 19 47  1  0  0  0  0
 20 48  1  0  0  0  0
 21 22  1  0  0  0  0
 21 49  1  0  0  0  0
 22 50  1  0  0  0  0
 23 24  1  0  0  0  0
 24 51  1  0  0  0  0
 24 52  1  0  0  0  0
 24 53  1  0  0  0  0
 25 26  1  0  0  0  0
 25 54  1  0  0  0  0
 26 28  1  0  0  0  0
 26 27  2  0  0  0  0
 28 29  1  0  0  0  0
 28 55  1  0  0  0  0
 29 31  1  0  0  0  0
 29 32  2  0  0  0  0
 30 31  2  0  0  0  0
 30 34  1  0  0  0  0
 30 36  1  0  0  0  0
 31 56  1  0  0  0  0
 32 33  1  0  0  0  0
 32 35  1  0  0  0  0
 33 34  2  0  0  0  0
 33 57  1  0  0  0  0
 34 58  1  0  0  0  0
 36 39  1  0  0  0  0
 36 38  1  0  0  0  0
 36 37  1  0  0  0  0
M  END
>  <DRUGBANK_ID>
DB04727

>  <COMMON_NAME>
1-{4-[4-Amino-6-(4-methoxyphenyl)furo[2,3-d]pyrimidin-5-yl]phenyl}-3-[2-fluoro-5-(trifluoromethyl)phenyl]urea

$$$$
