
 OpenBabel10282417072D

 43 46  0  0  0  0  0  0  0  0999 V2000
   -1.2200    0.0098    0.0000 N   0  0  3  0  0  0  0  0  0  0  0  0
    1.2348    0.0000    0.0000 N   0  0  3  0  0  0  0  0  0  0  0  0
    0.0147   -0.8116    0.0000 C   0  0  1  0  0  0  0  0  0  0  0  0
    0.0049    0.8609    0.0000 C   0  0  1  0  0  0  0  0  0  0  0  0
   -0.8068   -0.7035    0.0000 C   0  0  2  0  0  0  0  0  0  0  0  0
    0.8166    0.7133    0.0000 C   0  0  2  0  0  0  0  0  0  0  0  0
    0.4132    0.0000    0.0000 C   0  0  0  0  0  0  0  0  0  0  0  0
   -0.8166    0.7133    0.0000 C   0  0  0  0  0  0  0  0  0  0  0  0
    0.8166   -0.7035    0.0000 C   0  0  0  0  0  0  0  0  0  0  0  0
   -1.2150   -1.4216    0.0000 C   0  0  0  0  0  0  0  0  0  0  0  0
    1.2200    1.4216    0.0000 C   0  0  0  0  0  0  0  0  0  0  0  0
   -2.0465    0.0098    0.0000 C   0  0  0  0  0  0  0  0  0  0  0  0
    2.0514    0.0000    0.0000 C   0  0  0  0  0  0  0  0  0  0  0  0
   -2.0465   -1.4216    0.0000 C   0  0  0  0  0  0  0  0  0  0  0  0
    2.0415    1.4216    0.0000 C   0  0  0  0  0  0  0  0  0  0  0  0
   -2.4597   -0.7035    0.0000 C   0  0  0  0  0  0  0  0  0  0  0  0
    2.4597    0.7133    0.0000 C   0  0  0  0  0  0  0  0  0  0  0  0
   -0.5214   -1.3282    0.0000 H   0  0  0  0  0  0  0  0  0  0  0  0
    0.4428    1.3331    0.0000 H   0  0  0  0  0  0  0  0  0  0  0  0
   -0.4905    0.1316    0.0000 H   0  0  0  0  0  0  0  0  0  0  0  0
    0.8542    0.2100    0.0000 H   0  0  0  0  0  0  0  0  0  0  0  0
    1.4832   -0.0073    0.0000 H   0  0  0  0  0  0  0  0  0  0  0  0
    0.9882    0.9024    0.0000 H   0  0  0  0  0  0  0  0  0  0  0  0
   -1.4330    1.5879    0.0000 H   0  0  0  0  0  0  0  0  0  0  0  0
   -0.4103    1.7031    0.0000 H   0  0  0  0  0  0  0  0  0  0  0  0
    1.4068   -1.5960    0.0000 H   0  0  0  0  0  0  0  0  0  0  0  0
    0.3742   -1.6777    0.0000 H   0  0  0  0  0  0  0  0  0  0  0  0
   -0.6769   -2.3464    0.0000 H   0  0  0  0  0  0  0  0  0  0  0  0
   -1.7484   -2.3491    0.0000 H   0  0  0  0  0  0  0  0  0  0  0  0
    0.6823    2.3467    0.0000 H   0  0  0  0  0  0  0  0  0  0  0  0
    1.7536    2.3490    0.0000 H   0  0  0  0  0  0  0  0  0  0  0  0
   -2.5808    0.9368    0.0000 H   0  0  0  0  0  0  0  0  0  0  0  0
   -3.1165    0.0110    0.0000 H   0  0  0  0  0  0  0  0  0  0  0  0
    2.5881   -0.9257    0.0000 H   0  0  0  0  0  0  0  0  0  0  0  0
    3.1214    0.0030    0.0000 H   0  0  0  0  0  0  0  0  0  0  0  0
   -2.5822   -2.3479    0.0000 H   0  0  0  0  0  0  0  0  0  0  0  0
   -3.1165   -1.4204    0.0000 H   0  0  0  0  0  0  0  0  0  0  0  0
    2.5720    2.3508    0.0000 H   0  0  0  0  0  0  0  0  0  0  0  0
    3.1115    1.4294    0.0000 H   0  0  0  0  0  0  0  0  0  0  0  0
   -3.5297   -0.7019    0.0000 H   0  0  0  0  0  0  0  0  0  0  0  0
   -2.9960   -1.6294    0.0000 H   0  0  0  0  0  0  0  0  0  0  0  0
    3.5297    0.7205    0.0000 H   0  0  0  0  0  0  0  0  0  0  0  0
    2.9870    1.6443    0.0000 H   0  0  0  0  0  0  0  0  0  0  0  0
  1  5  1  0  0  0  0
  1  8  1  0  0  0  0
  1 12  1  0  0  0  0
  2  6  1  0  0  0  0
  2  9  1  0  0  0  0
  2 13  1  0  0  0  0
  3  5  1  0  0  0  0
  3  7  1  0  0  0  0
  3  9  1  0  0  0  0
  3 20  1  6  0  0  0
  4  6  1  0  0  0  0
  4  7  1  0  0  0  0
  4  8  1  0  0  0  0
  4 21  1  6  0  0  0
  5 10  1  0  0  0  0
  5 18  1  1  0  0  0
  6 11  1  0  0  0  0
  6 19  1  1  0  0  0
  7 22  1  0  0  0  0
  7 23  1  0  0  0  0
  8 24  1  0  0  0  0
  8 25  1  0  0  0  0
  9 26  1  0  0  0  0
  9 27  1  0  0  0  0
 10 14  1  0  0  0  0
 10 28  1  0  0  0  0
 10 29  1  0  0  0  0
 11 15  1  0  0  0  0
 11 30  1  0  0  0  0
 11 31  1  0  0  0  0
 12 16  1  0  0  0  0
 12 32  1  0  0  0  0
 12 33  1  0  0  0  0
 13 17  1  0  0  0  0
 13 34  1  0  0  0  0
 13 35  1  0  0  0  0
 14 16  1  0  0  0  0
 14 36  1  0  0  0  0
 14 37  1  0  0  0  0
 15 17  1  0  0  0  0
 15 38  1  0  0  0  0
 15 39  1  0  0  0  0
 16 40  1  0  0  0  0
 16 41  1  0  0  0  0
 17 42  1  0  0  0  0
 17 43  1  0  0  0  0
M  END
>  <DRUGBANK_ID>
DB14755

>  <COMMON_NAME>
beta-Isosparteine

>  <CAS_NUMBER>
24915-04-6

>  <UNII>
HPV1ED2WZQ

>  <SYNONYMS>
(-)-beta-Isosparteine; (+)-beta-isosparteine; (+)-Î²-isosparteine; Nonalupine

$$$$
