
 OpenBabel10282417072D

 52 53  0  0  0  0  0  0  0  0999 V2000
    3.5195   -6.0490    0.0000 C   0  0  0  0  0  0  0  0  0  0  0  0
    2.8050   -6.4615    0.0000 C   0  0  0  0  0  0  0  0  0  0  0  0
    2.8050   -7.2865    0.0000 C   0  0  0  0  0  0  0  0  0  0  0  0
    3.5195   -7.6990    0.0000 C   0  0  0  0  0  0  0  0  0  0  0  0
    4.2340   -7.2865    0.0000 C   0  0  0  0  0  0  0  0  0  0  0  0
    4.2340   -6.4615    0.0000 C   0  0  0  0  0  0  0  0  0  0  0  0
    4.9484   -6.0490    0.0000 C   0  0  0  0  0  0  0  0  0  0  0  0
    5.6629   -6.4615    0.0000 C   0  0  2  0  0  0  0  0  0  0  0  0
    6.3774   -6.0490    0.0000 C   0  0  1  0  0  0  0  0  0  0  0  0
    7.0918   -6.4615    0.0000 C   0  0  0  0  0  0  0  0  0  0  0  0
    7.8063   -6.0490    0.0000 C   0  0  0  0  0  0  0  0  0  0  0  0
    8.5208   -4.8115    0.0000 C   0  0  0  0  0  0  0  0  0  0  0  0
    7.8063   -5.2240    0.0000 C   0  0  0  0  0  0  0  0  0  0  0  0
    8.5208   -6.4615    0.0000 C   0  0  0  0  0  0  0  0  0  0  0  0
    9.2353   -6.0490    0.0000 C   0  0  0  0  0  0  0  0  0  0  0  0
    9.2353   -5.2240    0.0000 C   0  0  0  0  0  0  0  0  0  0  0  0
    8.5208   -3.9865    0.0000 O   0  0  0  0  0  0  0  0  0  0  0  0
    9.2353   -3.5740    0.0000 C   0  0  0  0  0  0  0  0  0  0  0  0
    9.9497   -4.8115    0.0000 O   0  0  0  0  0  0  0  0  0  0  0  0
    6.3774   -5.2240    0.0000 C   0  0  0  0  0  0  0  0  0  0  0  0
    7.0919   -4.8115    0.0000 O   0  0  0  0  0  0  0  0  0  0  0  0
    5.6629   -7.2865    0.0000 C   0  0  0  0  0  0  0  0  0  0  0  0
    4.9484   -7.6990    0.0000 O   0  0  0  0  0  0  0  0  0  0  0  0
    3.5195   -8.5240    0.0000 O   0  0  0  0  0  0  0  0  0  0  0  0
    2.8050   -8.9365    0.0000 C   0  0  0  0  0  0  0  0  0  0  0  0
    2.0906   -7.6990    0.0000 O   0  0  0  0  0  0  0  0  0  0  0  0
    3.5195   -5.0170    0.0000 H   0  0  0  0  0  0  0  0  0  0  0  0
    1.9113   -5.9455    0.0000 H   0  0  0  0  0  0  0  0  0  0  0  0
    5.1277   -7.8025    0.0000 H   0  0  0  0  0  0  0  0  0  0  0  0
    4.9484   -4.9790    0.0000 H   0  0  0  0  0  0  0  0  0  0  0  0
    5.8750   -5.5140    0.0000 H   0  0  0  0  0  0  0  0  0  0  0  0
    4.7363   -6.9965    0.0000 H   0  0  0  0  0  0  0  0  0  0  0  0
    5.4508   -5.5140    0.0000 H   0  0  0  0  0  0  0  0  0  0  0  0
    7.0918   -7.5315    0.0000 H   0  0  0  0  0  0  0  0  0  0  0  0
    8.0184   -6.9965    0.0000 H   0  0  0  0  0  0  0  0  0  0  0  0
    6.9126   -4.7080    0.0000 H   0  0  0  0  0  0  0  0  0  0  0  0
    8.5208   -7.4935    0.0000 H   0  0  0  0  0  0  0  0  0  0  0  0
   10.1290   -6.5650    0.0000 H   0  0  0  0  0  0  0  0  0  0  0  0
   10.1619   -4.1090    0.0000 H   0  0  0  0  0  0  0  0  0  0  0  0
    9.2353   -2.5040    0.0000 H   0  0  0  0  0  0  0  0  0  0  0  0
   10.1620   -3.0390    0.0000 H   0  0  0  0  0  0  0  0  0  0  0  0
   10.7612   -5.2800    0.0000 H   0  0  0  0  0  0  0  0  0  0  0  0
    5.4508   -4.6890    0.0000 H   0  0  0  0  0  0  0  0  0  0  0  0
    6.3774   -4.1540    0.0000 H   0  0  0  0  0  0  0  0  0  0  0  0
    7.9319   -5.2965    0.0000 H   0  0  0  0  0  0  0  0  0  0  0  0
    6.5895   -7.8215    0.0000 H   0  0  0  0  0  0  0  0  0  0  0  0
    5.6629   -8.3565    0.0000 H   0  0  0  0  0  0  0  0  0  0  0  0
    4.1084   -7.2140    0.0000 H   0  0  0  0  0  0  0  0  0  0  0  0
    1.8784   -8.4015    0.0000 H   0  0  0  0  0  0  0  0  0  0  0  0
    2.8050  -10.0065    0.0000 H   0  0  0  0  0  0  0  0  0  0  0  0
    1.8783   -9.4715    0.0000 H   0  0  0  0  0  0  0  0  0  0  0  0
    1.2791   -7.2305    0.0000 H   0  0  0  0  0  0  0  0  0  0  0  0
  1  2  2  0  0  0  0
  1  6  1  0  0  0  0
  1 27  1  0  0  0  0
  2  3  1  0  0  0  0
  2 28  1  0  0  0  0
  3  4  2  0  0  0  0
  3 26  1  0  0  0  0
  4  5  1  0  0  0  0
  4 24  1  0  0  0  0
  5  6  2  0  0  0  0
  5 29  1  0  0  0  0
  6  7  1  0  0  0  0
  7  8  1  0  0  0  0
  7 30  1  0  0  0  0
  7 31  1  0  0  0  0
  8  9  1  0  0  0  0
  8 22  1  0  0  0  0
  8 32  1  1  0  0  0
  9 10  1  0  0  0  0
  9 20  1  0  0  0  0
  9 33  1  1  0  0  0
 10 11  1  0  0  0  0
 10 34  1  0  0  0  0
 10 35  1  0  0  0  0
 11 14  1  0  0  0  0
 12 13  1  0  0  0  0
 12 16  2  0  0  0  0
 12 17  1  0  0  0  0
 13 11  2  0  0  0  0
 13 36  1  0  0  0  0
 14 15  2  0  0  0  0
 14 37  1  0  0  0  0
 15 16  1  0  0  0  0
 15 38  1  0  0  0  0
 16 19  1  0  0  0  0
 17 18  1  0  0  0  0
 18 39  1  0  0  0  0
 18 40  1  0  0  0  0
 18 41  1  0  0  0  0
 19 42  1  0  0  0  0
 20 21  1  0  0  0  0
 20 43  1  0  0  0  0
 20 44  1  0  0  0  0
 21 45  1  0  0  0  0
 22 23  1  0  0  0  0
 22 46  1  0  0  0  0
 22 47  1  0  0  0  0
 23 48  1  0  0  0  0
 24 25  1  0  0  0  0
 25 49  1  0  0  0  0
 25 50  1  0  0  0  0
 25 51  1  0  0  0  0
 26 52  1  0  0  0  0
M  END
>  <DRUGBANK_ID>
DB12179

>  <COMMON_NAME>
Secoisolariciresinol

>  <CAS_NUMBER>
29388-59-8

>  <UNII>
M8QRJ7JEJH

$$$$
