1FN
 OpenBabel10282417072D

 50 54  0  0  0  0  0  0  0  0999 V2000
    1.7729    0.6812    0.0000 C   0  0  0  0  0  0  0  0  0  0  0  0
   -1.0850   -0.9688    0.0000 C   0  0  0  0  0  0  0  0  0  0  0  0
   -0.3705   -0.5563    0.0000 C   0  0  0  0  0  0  0  0  0  0  0  0
   -1.0850   -1.7938    0.0000 C   0  0  0  0  0  0  0  0  0  0  0  0
   -2.5139   -1.7938    0.0000 C   0  0  0  0  0  0  0  0  0  0  0  0
   -2.5139   -0.9688    0.0000 C   0  0  0  0  0  0  0  0  0  0  0  0
   -1.7994   -0.5563    0.0000 C   0  0  0  0  0  0  0  0  0  0  0  0
    0.3440    0.6812    0.0000 C   0  0  0  0  0  0  0  0  0  0  0  0
    1.0584    0.2687    0.0000 C   0  0  0  0  0  0  0  0  0  0  0  0
   -1.0850   -3.4438    0.0000 C   0  0  0  0  0  0  0  0  0  0  0  0
    0.9883    2.9012    0.0000 C   0  0  0  0  0  0  0  0  0  0  0  0
   -1.0850   -4.2688    0.0000 C   0  0  0  0  0  0  0  0  0  0  0  0
    1.7729    3.1562    0.0000 C   0  0  0  0  0  0  0  0  0  0  0  0
    1.7729    3.9812    0.0000 C   0  0  0  0  0  0  0  0  0  0  0  0
    2.4874    4.3937    0.0000 N   0  0  0  0  0  0  0  0  0  0  0  0
    3.2018    3.9812    0.0000 C   0  0  0  0  0  0  0  0  0  0  0  0
    3.2018    3.1562    0.0000 C   0  0  0  0  0  0  0  0  0  0  0  0
    2.4874    2.7437    0.0000 C   0  0  0  0  0  0  0  0  0  0  0  0
    2.4874    1.9187    0.0000 O   0  0  0  0  0  0  0  0  0  0  0  0
    1.7729    1.5062    0.0000 C   0  0  0  0  0  0  0  0  0  0  0  0
    1.0584    1.9187    0.0000 C   0  0  0  0  0  0  0  0  0  0  0  0
    0.3440    1.5062    0.0000 C   0  0  0  0  0  0  0  0  0  0  0  0
    2.4874    0.2687    0.0000 F   0  0  0  0  0  0  0  0  0  0  0  0
   -0.3705    0.2687    0.0000 N   0  0  0  0  0  0  0  0  0  0  0  0
    0.3440   -0.9688    0.0000 O   0  0  0  0  0  0  0  0  0  0  0  0
   -1.7994   -2.2063    0.0000 N   0  0  0  0  0  0  0  0  0  0  0  0
   -0.3705   -2.2063    0.0000 O   0  0  0  0  0  0  0  0  0  0  0  0
   -1.7994   -3.0313    0.0000 C   0  0  0  0  0  0  0  0  0  0  0  0
    0.5034    3.5687    0.0000 C   0  0  0  0  0  0  0  0  0  0  0  0
    0.9883    4.2361    0.0000 N   0  0  0  0  0  0  0  0  0  0  0  0
   -2.5139   -3.4438    0.0000 C   0  0  0  0  0  0  0  0  0  0  0  0
   -2.5139   -4.2688    0.0000 C   0  0  0  0  0  0  0  0  0  0  0  0
   -1.7994   -4.6813    0.0000 C   0  0  0  0  0  0  0  0  0  0  0  0
   -1.7994   -5.5063    0.0000 F   0  0  0  0  0  0  0  0  0  0  0  0
   -3.4076   -2.3098    0.0000 H   0  0  0  0  0  0  0  0  0  0  0  0
   -3.4076   -0.4528    0.0000 H   0  0  0  0  0  0  0  0  0  0  0  0
   -1.7994    0.4757    0.0000 H   0  0  0  0  0  0  0  0  0  0  0  0
    1.0584   -0.7633    0.0000 H   0  0  0  0  0  0  0  0  0  0  0  0
   -0.1913   -2.9278    0.0000 H   0  0  0  0  0  0  0  0  0  0  0  0
    0.6694    1.9197    0.0000 H   0  0  0  0  0  0  0  0  0  0  0  0
   -0.1913   -4.7848    0.0000 H   0  0  0  0  0  0  0  0  0  0  0  0
    4.0955    4.4972    0.0000 H   0  0  0  0  0  0  0  0  0  0  0  0
    4.0955    2.6402    0.0000 H   0  0  0  0  0  0  0  0  0  0  0  0
    1.0584    2.9507    0.0000 H   0  0  0  0  0  0  0  0  0  0  0  0
   -0.5497    2.0222    0.0000 H   0  0  0  0  0  0  0  0  0  0  0  0
   -1.2231    0.7610    0.0000 H   0  0  0  0  0  0  0  0  0  0  0  0
   -0.5286    3.5687    0.0000 H   0  0  0  0  0  0  0  0  0  0  0  0
    0.6841    5.1724    0.0000 H   0  0  0  0  0  0  0  0  0  0  0  0
   -3.4076   -2.9278    0.0000 H   0  0  0  0  0  0  0  0  0  0  0  0
   -3.4076   -4.7848    0.0000 H   0  0  0  0  0  0  0  0  0  0  0  0
  1  9  2  0  0  0  0
  1 20  1  0  0  0  0
  1 23  1  0  0  0  0
  2  3  1  0  0  0  0
  2  4  1  0  0  0  0
  2  7  2  0  0  0  0
  3 24  1  0  0  0  0
  3 25  2  0  0  0  0
  4 26  1  0  0  0  0
  4 27  2  0  0  0  0
  5  6  2  0  0  0  0
  5 26  1  0  0  0  0
  5 35  1  0  0  0  0
  6  7  1  0  0  0  0
  6 36  1  0  0  0  0
  7 37  1  0  0  0  0
  8  9  1  0  0  0  0
  8 22  2  0  0  0  0
  8 24  1  0  0  0  0
  9 38  1  0  0  0  0
 10 12  2  0  0  0  0
 10 28  1  0  0  0  0
 10 39  1  0  0  0  0
 11 13  1  0  0  0  0
 11 29  2  0  0  0  0
 11 40  1  0  0  0  0
 12 33  1  0  0  0  0
 12 41  1  0  0  0  0
 13 14  2  0  0  0  0
 13 18  1  0  0  0  0
 14 15  1  0  0  0  0
 14 30  1  0  0  0  0
 15 16  2  0  0  0  0
 16 17  1  0  0  0  0
 16 42  1  0  0  0  0
 17 18  2  0  0  0  0
 17 43  1  0  0  0  0
 18 19  1  0  0  0  0
 19 20  1  0  0  0  0
 20 21  2  0  0  0  0
 21 22  1  0  0  0  0
 21 44  1  0  0  0  0
 22 45  1  0  0  0  0
 24 46  1  0  0  0  0
 26 28  1  0  0  0  0
 28 31  2  0  0  0  0
 29 30  1  0  0  0  0
 29 47  1  0  0  0  0
 30 48  1  0  0  0  0
 31 32  1  0  0  0  0
 31 49  1  0  0  0  0
 32 33  2  0  0  0  0
 32 50  1  0  0  0  0
 33 34  1  0  0  0  0
M  END
>  <DRUGBANK_ID>
DB06896

>  <COMMON_NAME>
1-(4-fluorophenyl)-N-[3-fluoro-4-(1H-pyrrolo[2,3-b]pyridin-4-yloxy)phenyl]-2-oxo-1,2-dihydropyridine-3-carboxamide

$$$$
