
 OpenBabel10282417072D

 37 38  0  0  0  0  0  0  0  0999 V2000
    2.8579   -3.3000    0.0000 C   0  0  0  0  0  0  0  0  0  0  0  0
    3.5724   -2.8875    0.0000 C   0  0  0  0  0  0  0  0  0  0  0  0
    2.1434   -2.8875    0.0000 C   0  0  0  0  0  0  0  0  0  0  0  0
    3.5724   -2.0625    0.0000 C   0  0  0  0  0  0  0  0  0  0  0  0
    2.1434   -2.0625    0.0000 C   0  0  0  0  0  0  0  0  0  0  0  0
    4.2868   -0.8250    0.0000 C   0  0  0  0  0  0  0  0  0  0  0  0
    3.5724   -0.4125    0.0000 C   0  0  0  0  0  0  0  0  0  0  0  0
    1.4289    1.6500    0.0000 C   0  0  0  0  0  0  0  0  0  0  0  0
    2.8579   -1.6500    0.0000 C   0  0  0  0  0  0  0  0  0  0  0  0
    1.4289    0.8250    0.0000 C   0  0  0  0  0  0  0  0  0  0  0  0
    2.1434    2.0625    0.0000 C   0  0  0  0  0  0  0  0  0  0  0  0
    5.0013   -0.4125    0.0000 C   0  0  0  0  0  0  0  0  0  0  0  0
    2.1434    0.4125    0.0000 C   0  0  0  0  0  0  0  0  0  0  0  0
    2.8579    0.8250    0.0000 C   0  0  0  0  0  0  0  0  0  0  0  0
    2.8579    1.6500    0.0000 C   0  0  0  0  0  0  0  0  0  0  0  0
    2.1434   -0.4125    0.0000 C   0  0  0  0  0  0  0  0  0  0  0  0
    0.7145    0.4125    0.0000 I   0  0  0  0  0  0  0  0  0  0  0  0
    2.1434    2.8875    0.0000 I   0  0  0  0  0  0  0  0  0  0  0  0
    3.5724    0.4125    0.0000 I   0  0  0  0  0  0  0  0  0  0  0  0
    3.5724    2.0625    0.0000 N   0  0  0  0  0  0  0  0  0  0  0  0
    2.8579   -0.8250    0.0000 N   0  0  0  0  0  0  0  0  0  0  0  0
    5.0013    0.4125    0.0000 O   0  0  0  0  0  0  0  0  0  0  0  0
    5.7158   -0.8250    0.0000 O   0  0  0  0  0  0  0  0  0  0  0  0
    1.4289   -0.8250    0.0000 O   0  0  0  0  0  0  0  0  0  0  0  0
    2.8579   -4.3320    0.0000 H   0  0  0  0  0  0  0  0  0  0  0  0
    4.4661   -3.4035    0.0000 H   0  0  0  0  0  0  0  0  0  0  0  0
    1.2497   -3.4035    0.0000 H   0  0  0  0  0  0  0  0  0  0  0  0
    4.4661   -1.5465    0.0000 H   0  0  0  0  0  0  0  0  0  0  0  0
    1.2497   -1.5465    0.0000 H   0  0  0  0  0  0  0  0  0  0  0  0
    4.2868   -1.8950    0.0000 H   0  0  0  0  0  0  0  0  0  0  0  0
    5.2134   -1.3600    0.0000 H   0  0  0  0  0  0  0  0  0  0  0  0
    3.5724    0.6575    0.0000 H   0  0  0  0  0  0  0  0  0  0  0  0
    2.6458    0.1225    0.0000 H   0  0  0  0  0  0  0  0  0  0  0  0
    0.5352    2.1660    0.0000 H   0  0  0  0  0  0  0  0  0  0  0  0
    4.4250    1.5702    0.0000 H   0  0  0  0  0  0  0  0  0  0  0  0
    3.5724    3.0470    0.0000 H   0  0  0  0  0  0  0  0  0  0  0  0
    5.7158   -1.7620    0.0000 H   0  0  0  0  0  0  0  0  0  0  0  0
  1 25  1  0  0  0  0
  2  1  2  0  0  0  0
  2 26  1  0  0  0  0
  3  1  1  0  0  0  0
  3 27  1  0  0  0  0
  4  2  1  0  0  0  0
  4 28  1  0  0  0  0
  5  3  2  0  0  0  0
  5 29  1  0  0  0  0
  6 30  1  0  0  0  0
  6 31  1  0  0  0  0
  7  6  1  0  0  0  0
  7 32  1  0  0  0  0
  7 33  1  0  0  0  0
  8 34  1  0  0  0  0
  9  4  2  0  0  0  0
  9  5  1  0  0  0  0
 10  8  2  0  0  0  0
 11  8  1  0  0  0  0
 12  6  1  0  0  0  0
 13 10  1  0  0  0  0
 14 13  2  0  0  0  0
 15 11  2  0  0  0  0
 15 14  1  0  0  0  0
 16 13  1  0  0  0  0
 17 10  1  0  0  0  0
 18 11  1  0  0  0  0
 19 14  1  0  0  0  0
 20 15  1  0  0  0  0
 20 35  1  0  0  0  0
 20 36  1  0  0  0  0
 21  7  1  0  0  0  0
 21  9  1  0  0  0  0
 21 16  1  0  0  0  0
 22 12  2  0  0  0  0
 23 12  1  0  0  0  0
 23 37  1  0  0  0  0
 24 16  2  0  0  0  0
M  END
>  <DRUGBANK_ID>
DB13428

>  <COMMON_NAME>
Iobenzamic acid

>  <CAS_NUMBER>
3115-05-7

>  <UNII>
F72UWG2SWK

>  <SYNONYMS>
Iobenzamic acid

$$$$
