
 OpenBabel10282417072D

 24 25  0  0  0  0  0  0  0  0999 V2000
    0.0000   -0.7698    0.0000 C   0  0  0  0  0  0  0  0  0  0  0  0
    0.7145   -0.3572    0.0000 C   0  0  0  0  0  0  0  0  0  0  0  0
   -1.4290   -0.7698    0.0000 C   0  0  0  0  0  0  0  0  0  0  0  0
   -2.1435   -0.3572    0.0000 C   0  0  0  0  0  0  0  0  0  0  0  0
   -2.1435    0.4677    0.0000 C   0  0  0  0  0  0  0  0  0  0  0  0
   -1.4290    0.8803    0.0000 C   0  0  0  0  0  0  0  0  0  0  0  0
   -0.7145    0.4677    0.0000 C   0  0  0  0  0  0  0  0  0  0  0  0
    0.0000    0.8803    0.0000 C   0  0  0  0  0  0  0  0  0  0  0  0
    0.7145    0.4677    0.0000 C   0  0  0  0  0  0  0  0  0  0  0  0
   -0.7145   -0.3572    0.0000 C   0  0  0  0  0  0  0  0  0  0  0  0
   -1.4290   -1.5948    0.0000 N   0  0  0  0  0  0  0  0  0  0  0  0
    1.4290    0.8803    0.0000 S   0  0  0  0  0  0  0  0  0  0  0  0
    1.8415    0.1657    0.0000 O   0  0  0  0  0  0  0  0  0  0  0  0
    1.0165    1.5948    0.0000 O   0  0  0  0  0  0  0  0  0  0  0  0
    2.1435    1.2928    0.0000 O   0  0  0  0  0  0  0  0  0  0  0  0
    0.0000   -1.8018    0.0000 H   0  0  0  0  0  0  0  0  0  0  0  0
    1.6083   -0.8732    0.0000 H   0  0  0  0  0  0  0  0  0  0  0  0
   -3.0373   -0.8732    0.0000 H   0  0  0  0  0  0  0  0  0  0  0  0
   -3.0373    0.9837    0.0000 H   0  0  0  0  0  0  0  0  0  0  0  0
   -1.4290    1.9123    0.0000 H   0  0  0  0  0  0  0  0  0  0  0  0
    0.0000    1.9123    0.0000 H   0  0  0  0  0  0  0  0  0  0  0  0
   -2.2816   -2.0871    0.0000 H   0  0  0  0  0  0  0  0  0  0  0  0
   -0.5764   -2.0871    0.0000 H   0  0  0  0  0  0  0  0  0  0  0  0
    2.9835    0.8078    0.0000 H   0  0  0  0  0  0  0  0  0  0  0  0
  1 10  1  0  0  0  0
  1 16  1  0  0  0  0
  2  1  2  0  0  0  0
  2 17  1  0  0  0  0
  3  4  1  0  0  0  0
  3 10  2  0  0  0  0
  4  5  2  0  0  0  0
  4 18  1  0  0  0  0
  5  6  1  0  0  0  0
  5 19  1  0  0  0  0
  6  7  2  0  0  0  0
  6 20  1  0  0  0  0
  7  8  1  0  0  0  0
  7 10  1  0  0  0  0
  8  9  2  0  0  0  0
  8 21  1  0  0  0  0
  9  2  1  0  0  0  0
  9 12  1  0  0  0  0
 11  3  1  0  0  0  0
 11 22  1  0  0  0  0
 11 23  1  0  0  0  0
 12 13  2  0  0  0  0
 12 14  2  0  0  0  0
 12 15  1  0  0  0  0
 15 24  1  0  0  0  0
M  END
>  <DRUGBANK_ID>
DB08238

>  <COMMON_NAME>
5-aminonaphthalene-2-sulfonic acid

>  <CAS_NUMBER>
119-79-9

>  <UNII>
59G56TB11B

>  <SYNONYMS>
1-naphthylamine-6-sulfonic acid; 1,6-Cleve's acid; 5-aminonaphthalene-2-sulphonic acid; 5-naphthylamine-2-sulfonic acid; Cleve's β-acid; α-naphthylamine-6-sulfonic acid

$$$$
