
 OpenBabel10282417072D

 39 41  0  0  0  0  0  0  0  0999 V2000
    4.0668    2.3479    0.0000 C   0  0  0  0  0  0  0  0  0  0  0  0
    3.3523    1.9354    0.0000 C   0  0  0  0  0  0  0  0  0  0  0  0
    3.3523    1.1104    0.0000 C   0  0  0  0  0  0  0  0  0  0  0  0
    2.6378    0.6979    0.0000 C   0  0  0  0  0  0  0  0  0  0  0  0
    1.9233    1.1104    0.0000 N   0  0  0  0  0  0  0  0  0  0  0  0
    1.9233    1.9354    0.0000 C   0  0  0  0  0  0  0  0  0  0  0  0
    2.6378    2.3479    0.0000 N   0  0  0  0  0  0  0  0  0  0  0  0
    1.1387    2.1904    0.0000 N   0  0  0  0  0  0  0  0  0  0  0  0
    0.6538    1.5229    0.0000 C   0  0  0  0  0  0  0  0  0  0  0  0
    1.1387    0.8555    0.0000 N   0  0  0  0  0  0  0  0  0  0  0  0
   -0.1712    1.5229    0.0000 C   0  0  0  0  0  0  0  0  0  0  0  0
   -0.9962    1.5229    0.0000 C   0  0  0  0  0  0  0  0  0  0  0  0
   -0.1712    0.6979    0.0000 F   0  0  0  0  0  0  0  0  0  0  0  0
   -0.1712    2.3479    0.0000 F   0  0  0  0  0  0  0  0  0  0  0  0
    2.6378   -0.1271    0.0000 N   0  0  0  0  0  0  0  0  0  0  0  0
    1.9233   -0.5396    0.0000 C   0  0  0  0  0  0  0  0  0  0  0  0
    1.9233   -1.3646    0.0000 C   0  0  0  0  0  0  0  0  0  0  0  0
    1.2089   -1.7771    0.0000 C   0  0  0  0  0  0  0  0  0  0  0  0
    0.4944   -1.3646    0.0000 C   0  0  0  0  0  0  0  0  0  0  0  0
    0.4944   -0.5396    0.0000 C   0  0  0  0  0  0  0  0  0  0  0  0
    1.2089   -0.1271    0.0000 C   0  0  0  0  0  0  0  0  0  0  0  0
   -0.2201   -1.7771    0.0000 S   0  0  0  0  0  0  0  0  0  0  0  0
   -0.9345   -2.1896    0.0000 F   0  0  0  0  0  0  0  0  0  0  0  0
   -0.2201   -2.6021    0.0000 F   0  0  0  0  0  0  0  0  0  0  0  0
    0.4944   -2.1896    0.0000 F   0  0  0  0  0  0  0  0  0  0  0  0
   -0.2201   -0.9521    0.0000 F   0  0  0  0  0  0  0  0  0  0  0  0
   -0.9345   -1.3646    0.0000 F   0  0  0  0  0  0  0  0  0  0  0  0
    4.9934    1.8129    0.0000 H   0  0  0  0  0  0  0  0  0  0  0  0
    4.0668    3.4179    0.0000 H   0  0  0  0  0  0  0  0  0  0  0  0
    4.9935    2.8829    0.0000 H   0  0  0  0  0  0  0  0  0  0  0  0
    4.2460    0.5944    0.0000 H   0  0  0  0  0  0  0  0  0  0  0  0
   -1.5312    2.4495    0.0000 H   0  0  0  0  0  0  0  0  0  0  0  0
   -1.5312    0.5963    0.0000 H   0  0  0  0  0  0  0  0  0  0  0  0
   -2.0662    1.5229    0.0000 H   0  0  0  0  0  0  0  0  0  0  0  0
    3.4904   -0.6194    0.0000 H   0  0  0  0  0  0  0  0  0  0  0  0
    2.8170   -1.8806    0.0000 H   0  0  0  0  0  0  0  0  0  0  0  0
    1.2089   -2.8091    0.0000 H   0  0  0  0  0  0  0  0  0  0  0  0
   -0.3993   -0.0236    0.0000 H   0  0  0  0  0  0  0  0  0  0  0  0
    1.2089    0.9049    0.0000 H   0  0  0  0  0  0  0  0  0  0  0  0
  1  2  1  0  0  0  0
  1 28  1  0  0  0  0
  1 29  1  0  0  0  0
  1 30  1  0  0  0  0
  2  3  1  0  0  0  0
  2  7  2  0  0  0  0
  3  4  2  0  0  0  0
  3 31  1  0  0  0  0
  4  5  1  0  0  0  0
  4 15  1  0  0  0  0
  5  6  1  0  0  0  0
  5 10  1  0  0  0  0
  6  7  1  0  0  0  0
  6  8  2  0  0  0  0
  8  9  1  0  0  0  0
  9 10  2  0  0  0  0
  9 11  1  0  0  0  0
 11 12  1  0  0  0  0
 11 13  1  0  0  0  0
 11 14  1  0  0  0  0
 12 32  1  0  0  0  0
 12 33  1  0  0  0  0
 12 34  1  0  0  0  0
 15 16  1  0  0  0  0
 15 35  1  0  0  0  0
 16 17  2  0  0  0  0
 16 21  1  0  0  0  0
 17 18  1  0  0  0  0
 17 36  1  0  0  0  0
 18 19  2  0  0  0  0
 18 37  1  0  0  0  0
 19 20  1  0  0  0  0
 19 22  1  0  0  0  0
 20 21  2  0  0  0  0
 20 38  1  0  0  0  0
 21 39  1  0  0  0  0
 22 23  1  0  0  0  0
 22 24  1  0  0  0  0
 22 25  1  0  0  0  0
 22 26  1  0  0  0  0
 22 27  1  0  0  0  0
M  END
>  <DRUGBANK_ID>
DB12397

>  <COMMON_NAME>
DSM-265

>  <CAS_NUMBER>
1282041-94-4

>  <UNII>
0Q42P4YI6B

>  <SYNONYMS>
2-(1,1-difluoroethyl)-5-methyl-N-[4-(pentafluoro-lambda6-sulfanyl)phenyl]-[1,2,4]triazolo[1,5-a]pyrimidin-7-amine; 2-(1,1-Difluoroethyl)-5-methyl-N-[4-(pentafluoro-Î»6-sulfanyl)phenyl][1,2,4]triazolo[1,5-a]pyrimidin-7-amine; Sulfur, (4-((2-(1,1-difluoroethyl)-5-methyl(1,2,4)triazolo(1,5-a)pyrimidin-7-yl)amino)phenyl)pentafluoro-, (oc-6-21)-

$$$$
