B33
 OpenBabel10282417072D

 41 40  0  0  0  0  0  0  0  0999 V2000
    1.7894    0.2048    0.0000 C   0  0  0  0  0  0  0  0  0  0  0  0
    3.2184    0.2048    0.0000 C   0  0  0  0  0  0  0  0  0  0  0  0
    3.9330   -0.2077    0.0000 C   0  0  0  0  0  0  0  0  0  0  0  0
   -4.6412   -0.2077    0.0000 C   0  0  0  0  0  0  0  0  0  0  0  0
   -3.9268    0.2048    0.0000 C   0  0  0  0  0  0  0  0  0  0  0  0
   -3.2122   -0.2077    0.0000 N   0  0  0  0  0  0  0  0  0  0  0  0
   -2.4977    0.2048    0.0000 C   0  0  0  0  0  0  0  0  0  0  0  0
   -1.7832   -0.2077    0.0000 C   0  0  0  0  0  0  0  0  0  0  0  0
   -1.0687    0.2048    0.0000 C   0  0  0  0  0  0  0  0  0  0  0  0
   -0.3541   -0.2077    0.0000 N   0  0  0  0  0  0  0  0  0  0  0  0
    0.3604    0.2048    0.0000 C   0  0  0  0  0  0  0  0  0  0  0  0
    1.0749   -0.2077    0.0000 C   0  0  0  0  0  0  0  0  0  0  0  0
    2.5040   -0.2077    0.0000 N   0  0  0  0  0  0  0  0  0  0  0  0
    4.6475    0.2048    0.0000 C   0  0  0  0  0  0  0  0  0  0  0  0
    1.7894    1.2748    0.0000 H   0  0  0  0  0  0  0  0  0  0  0  0
    2.7160    0.7399    0.0000 H   0  0  0  0  0  0  0  0  0  0  0  0
    3.2183    1.2748    0.0000 H   0  0  0  0  0  0  0  0  0  0  0  0
    2.2917    0.7398    0.0000 H   0  0  0  0  0  0  0  0  0  0  0  0
    3.9330   -1.2777    0.0000 H   0  0  0  0  0  0  0  0  0  0  0  0
    4.8597   -0.7427    0.0000 H   0  0  0  0  0  0  0  0  0  0  0  0
   -5.5679    0.3273    0.0000 H   0  0  0  0  0  0  0  0  0  0  0  0
   -4.6412   -1.2777    0.0000 H   0  0  0  0  0  0  0  0  0  0  0  0
   -5.5678   -0.7427    0.0000 H   0  0  0  0  0  0  0  0  0  0  0  0
   -3.9269    1.2748    0.0000 H   0  0  0  0  0  0  0  0  0  0  0  0
   -3.0002    0.7399    0.0000 H   0  0  0  0  0  0  0  0  0  0  0  0
   -3.2122   -1.2277    0.0000 H   0  0  0  0  0  0  0  0  0  0  0  0
   -2.4977    1.2748    0.0000 H   0  0  0  0  0  0  0  0  0  0  0  0
   -1.5711    0.7398    0.0000 H   0  0  0  0  0  0  0  0  0  0  0  0
   -1.7832   -1.2777    0.0000 H   0  0  0  0  0  0  0  0  0  0  0  0
   -0.8566   -0.7427    0.0000 H   0  0  0  0  0  0  0  0  0  0  0  0
   -1.0687    1.2748    0.0000 H   0  0  0  0  0  0  0  0  0  0  0  0
   -0.1421    0.7399    0.0000 H   0  0  0  0  0  0  0  0  0  0  0  0
   -0.3541   -1.2277    0.0000 H   0  0  0  0  0  0  0  0  0  0  0  0
    0.3604    1.2748    0.0000 H   0  0  0  0  0  0  0  0  0  0  0  0
    1.2870    0.7398    0.0000 H   0  0  0  0  0  0  0  0  0  0  0  0
    1.0749   -1.2777    0.0000 H   0  0  0  0  0  0  0  0  0  0  0  0
    0.1483   -0.7427    0.0000 H   0  0  0  0  0  0  0  0  0  0  0  0
    2.5041   -1.2277    0.0000 H   0  0  0  0  0  0  0  0  0  0  0  0
    5.5741   -0.3302    0.0000 H   0  0  0  0  0  0  0  0  0  0  0  0
    4.6475    1.2748    0.0000 H   0  0  0  0  0  0  0  0  0  0  0  0
    5.5742    0.7398    0.0000 H   0  0  0  0  0  0  0  0  0  0  0  0
  1 12  1  0  0  0  0
  1 13  1  0  0  0  0
  1 15  1  0  0  0  0
  1 16  1  0  0  0  0
  2  3  1  0  0  0  0
  2 13  1  0  0  0  0
  2 17  1  0  0  0  0
  2 18  1  0  0  0  0
  3 14  1  0  0  0  0
  3 19  1  0  0  0  0
  3 20  1  0  0  0  0
  4  5  1  0  0  0  0
  4 21  1  0  0  0  0
  4 22  1  0  0  0  0
  4 23  1  0  0  0  0
  5  6  1  0  0  0  0
  5 24  1  0  0  0  0
  5 25  1  0  0  0  0
  6  7  1  0  0  0  0
  6 26  1  0  0  0  0
  7  8  1  0  0  0  0
  7 27  1  0  0  0  0
  7 28  1  0  0  0  0
  8  9  1  0  0  0  0
  8 29  1  0  0  0  0
  8 30  1  0  0  0  0
  9 10  1  0  0  0  0
  9 31  1  0  0  0  0
  9 32  1  0  0  0  0
 10 11  1  0  0  0  0
 10 33  1  0  0  0  0
 11 12  1  0  0  0  0
 11 34  1  0  0  0  0
 11 35  1  0  0  0  0
 12 36  1  0  0  0  0
 12 37  1  0  0  0  0
 13 38  1  0  0  0  0
 14 39  1  0  0  0  0
 14 40  1  0  0  0  0
 14 41  1  0  0  0  0
M  END
>  <DRUGBANK_ID>
DB04633

>  <COMMON_NAME>
N-ethyl-N-[3-(propylamino)propyl]propane-1,3-diamine

$$$$
