
 OpenBabel10282417072D

 43 45  0  0  0  0  0  0  0  0999 V2000
   -3.0937    0.3082    0.0000 C   0  0  0  0  0  0  0  0  0  0  0  0
    3.0937   -1.8351    0.0000 C   0  0  0  0  0  0  0  0  0  0  0  0
    2.2189    1.3048    0.0000 C   0  0  0  0  0  0  0  0  0  0  0  0
    1.3004    1.8351    0.0000 C   0  0  0  0  0  0  0  0  0  0  0  0
   -2.2687    0.3082    0.0000 C   0  0  0  0  0  0  0  0  0  0  0  0
   -1.8562   -0.4062    0.0000 C   0  0  0  0  0  0  0  0  0  0  0  0
    3.0937   -0.4062    0.0000 C   0  0  0  0  0  0  0  0  0  0  0  0
    2.6812    0.3082    0.0000 C   0  0  0  0  0  0  0  0  0  0  0  0
    1.8562   -1.1207    0.0000 C   0  0  0  0  0  0  0  0  0  0  0  0
   -0.6187   -1.1207    0.0000 C   0  0  0  0  0  0  0  0  0  0  0  0
   -0.6187    0.3082    0.0000 C   0  0  0  0  0  0  0  0  0  0  0  0
    2.6812   -1.1207    0.0000 C   0  0  0  0  0  0  0  0  0  0  0  0
   -1.0312   -0.4062    0.0000 C   0  0  0  0  0  0  0  0  0  0  0  0
    1.4437   -0.4062    0.0000 C   0  0  0  0  0  0  0  0  0  0  0  0
    1.8562    0.3082    0.0000 C   0  0  0  0  0  0  0  0  0  0  0  0
    0.2062   -1.1207    0.0000 C   0  0  0  0  0  0  0  0  0  0  0  0
    0.2062    0.3082    0.0000 C   0  0  0  0  0  0  0  0  0  0  0  0
    0.6187   -0.4062    0.0000 C   0  0  0  0  0  0  0  0  0  0  0  0
    1.4437    1.0227    0.0000 C   0  0  0  0  0  0  0  0  0  0  0  0
    0.6187   -1.8351    0.0000 O   0  0  0  0  0  0  0  0  0  0  0  0
    0.6187    1.0227    0.0000 O   0  0  0  0  0  0  0  0  0  0  0  0
   -3.6287    1.2348    0.0000 H   0  0  0  0  0  0  0  0  0  0  0  0
   -3.6287   -0.6184    0.0000 H   0  0  0  0  0  0  0  0  0  0  0  0
   -4.1637    0.3082    0.0000 H   0  0  0  0  0  0  0  0  0  0  0  0
    2.5587   -2.7618    0.0000 H   0  0  0  0  0  0  0  0  0  0  0  0
    4.1637   -1.8351    0.0000 H   0  0  0  0  0  0  0  0  0  0  0  0
    3.6287   -2.7617    0.0000 H   0  0  0  0  0  0  0  0  0  0  0  0
    3.0385    0.6170    0.0000 H   0  0  0  0  0  0  0  0  0  0  0  0
    2.4048    2.3585    0.0000 H   0  0  0  0  0  0  0  0  0  0  0  0
    3.2244    1.6707    0.0000 H   0  0  0  0  0  0  0  0  0  0  0  0
    2.1200    2.5229    0.0000 H   0  0  0  0  0  0  0  0  0  0  0  0
    0.2949    2.2010    0.0000 H   0  0  0  0  0  0  0  0  0  0  0  0
    1.1145    2.8888    0.0000 H   0  0  0  0  0  0  0  0  0  0  0  0
   -1.7337    1.2349    0.0000 H   0  0  0  0  0  0  0  0  0  0  0  0
   -1.1987    0.3082    0.0000 H   0  0  0  0  0  0  0  0  0  0  0  0
   -2.3912   -1.3329    0.0000 H   0  0  0  0  0  0  0  0  0  0  0  0
   -1.3212   -1.3328    0.0000 H   0  0  0  0  0  0  0  0  0  0  0  0
    4.1257   -0.4062    0.0000 H   0  0  0  0  0  0  0  0  0  0  0  0
    3.1972    1.2019    0.0000 H   0  0  0  0  0  0  0  0  0  0  0  0
    1.3402   -2.0144    0.0000 H   0  0  0  0  0  0  0  0  0  0  0  0
   -1.1347   -2.0144    0.0000 H   0  0  0  0  0  0  0  0  0  0  0  0
   -1.1347    1.2019    0.0000 H   0  0  0  0  0  0  0  0  0  0  0  0
    0.1502   -2.6466    0.0000 H   0  0  0  0  0  0  0  0  0  0  0  0
  1 22  1  0  0  0  0
  1 23  1  0  0  0  0
  1 24  1  0  0  0  0
  2 25  1  0  0  0  0
  2 26  1  0  0  0  0
  2 27  1  0  0  0  0
  3 28  1  0  0  0  0
  3 29  1  0  0  0  0
  3 30  1  0  0  0  0
  4 31  1  0  0  0  0
  4 32  1  0  0  0  0
  4 33  1  0  0  0  0
  5  1  1  0  0  0  0
  5 34  1  0  0  0  0
  5 35  1  0  0  0  0
  6  5  1  0  0  0  0
  6 36  1  0  0  0  0
  6 37  1  0  0  0  0
  7 38  1  0  0  0  0
  8  7  2  0  0  0  0
  8 39  1  0  0  0  0
  9 40  1  0  0  0  0
 10 41  1  0  0  0  0
 11 42  1  0  0  0  0
 12  2  1  0  0  0  0
 12  7  1  0  0  0  0
 12  9  2  0  0  0  0
 13  6  1  0  0  0  0
 13 10  2  0  0  0  0
 13 11  1  0  0  0  0
 14  9  1  0  0  0  0
 15  8  1  0  0  0  0
 15 14  2  0  0  0  0
 16 10  1  0  0  0  0
 17 11  2  0  0  0  0
 18 14  1  0  0  0  0
 18 16  2  0  0  0  0
 18 17  1  0  0  0  0
 19  3  1  0  0  0  0
 19  4  1  0  0  0  0
 19 15  1  0  0  0  0
 20 16  1  0  0  0  0
 20 43  1  0  0  0  0
 21 17  1  0  0  0  0
 21 19  1  0  0  0  0
M  END
>  <DRUGBANK_ID>
DB14736

>  <COMMON_NAME>
Cannabivarin

>  <CAS_NUMBER>
33745-21-0

>  <UNII>
MHH8UW410N

>  <SYNONYMS>
Cannabivarol; CBV

$$$$
