
 OpenBabel10282417072D

 50 53  0  0  0  0  0  0  0  0999 V2000
    0.6984    0.3456    0.0000 C   0  0  1  0  0  0  0  0  0  0  0  0
   -0.0164    0.7574    0.0000 C   0  0  1  0  0  0  0  0  0  0  0  0
    0.6984    1.1694    0.0000 C   0  0  0  0  0  0  0  0  0  0  0  0
   -0.7268    1.1694    0.0000 C   0  0  0  0  0  0  0  0  0  0  0  0
   -0.7268    1.9932    0.0000 C   0  0  0  0  0  0  0  0  0  0  0  0
   -1.4416    2.4051    0.0000 C   0  0  0  0  0  0  0  0  0  0  0  0
   -2.1566    1.9932    0.0000 C   0  0  0  0  0  0  0  0  0  0  0  0
   -2.1566    1.1694    0.0000 C   0  0  0  0  0  0  0  0  0  0  0  0
   -1.4416    0.7574    0.0000 C   0  0  0  0  0  0  0  0  0  0  0  0
   -1.4416    3.2289    0.0000 F   0  0  0  0  0  0  0  0  0  0  0  0
   -0.7268    0.3456    0.0000 C   0  0  0  0  0  0  0  0  0  0  0  0
   -0.7268   -0.4828    0.0000 O   0  0  0  0  0  0  0  0  0  0  0  0
   -1.4416   -0.8948    0.0000 C   0  0  0  0  0  0  0  0  0  0  0  0
   -2.1566   -0.4828    0.0000 C   0  0  0  0  0  0  0  0  0  0  0  0
   -2.8716   -0.8948    0.0000 N   0  0  0  0  0  0  0  0  0  0  0  0
   -2.8716   -1.7185    0.0000 C   0  0  0  0  0  0  0  0  0  0  0  0
   -2.1566   -2.1305    0.0000 N   0  0  0  0  0  0  0  0  0  0  0  0
   -1.4416   -1.7185    0.0000 C   0  0  0  0  0  0  0  0  0  0  0  0
   -3.5865   -2.1305    0.0000 C   0  0  0  0  0  0  0  0  0  0  0  0
   -2.1566    0.3456    0.0000 C   0  0  0  0  0  0  0  0  0  0  0  0
    1.1103   -0.3693    0.0000 C   0  0  0  0  0  0  0  0  0  0  0  0
    0.6984   -1.0841    0.0000 O   0  0  0  0  0  0  0  0  0  0  0  0
    1.9389   -0.3693    0.0000 N   0  0  0  0  0  0  0  0  0  0  0  0
    2.3507   -1.0841    0.0000 C   0  0  0  0  0  0  0  0  0  0  0  0
    3.1746   -1.0841    0.0000 C   0  0  0  0  0  0  0  0  0  0  0  0
    3.5865   -1.7991    0.0000 C   0  0  0  0  0  0  0  0  0  0  0  0
    3.1746   -2.5142    0.0000 C   0  0  0  0  0  0  0  0  0  0  0  0
    2.3507   -2.5142    0.0000 C   0  0  0  0  0  0  0  0  0  0  0  0
    1.9389   -1.7991    0.0000 N   0  0  0  0  0  0  0  0  0  0  0  0
    3.5865   -3.2289    0.0000 F   0  0  0  0  0  0  0  0  0  0  0  0
   -0.0582   -0.4110    0.0000 H   0  0  0  0  0  0  0  0  0  0  0  0
    1.2337    2.0959    0.0000 H   0  0  0  0  0  0  0  0  0  0  0  0
    1.7319    0.8923    0.0000 H   0  0  0  0  0  0  0  0  0  0  0  0
    0.1667    2.5096    0.0000 H   0  0  0  0  0  0  0  0  0  0  0  0
   -3.0501    2.5096    0.0000 H   0  0  0  0  0  0  0  0  0  0  0  0
   -3.0501    0.6530    0.0000 H   0  0  0  0  0  0  0  0  0  0  0  0
   -1.4415   -0.2746    0.0000 H   0  0  0  0  0  0  0  0  0  0  0  0
   -1.6539    0.8798    0.0000 H   0  0  0  0  0  0  0  0  0  0  0  0
   -1.6532   -0.1898    0.0000 H   0  0  0  0  0  0  0  0  0  0  0  0
   -0.5481   -2.2349    0.0000 H   0  0  0  0  0  0  0  0  0  0  0  0
   -4.5127   -1.5948    0.0000 H   0  0  0  0  0  0  0  0  0  0  0  0
   -3.5873   -3.2005    0.0000 H   0  0  0  0  0  0  0  0  0  0  0  0
   -4.5136   -2.6648    0.0000 H   0  0  0  0  0  0  0  0  0  0  0  0
   -1.2300    0.8806    0.0000 H   0  0  0  0  0  0  0  0  0  0  0  0
   -3.0832    0.8806    0.0000 H   0  0  0  0  0  0  0  0  0  0  0  0
   -2.1566    1.4156    0.0000 H   0  0  0  0  0  0  0  0  0  0  0  0
    2.4315    0.4831    0.0000 H   0  0  0  0  0  0  0  0  0  0  0  0
    3.6910   -0.1906    0.0000 H   0  0  0  0  0  0  0  0  0  0  0  0
    4.6185   -1.7991    0.0000 H   0  0  0  0  0  0  0  0  0  0  0  0
    1.8342   -3.4077    0.0000 H   0  0  0  0  0  0  0  0  0  0  0  0
  1  2  1  0  0  0  0
  1  3  1  0  0  0  0
  1 21  1  0  0  0  0
  1 31  1  6  0  0  0
  2  3  1  0  0  0  0
  2  4  1  0  0  0  0
  2 11  1  1  0  0  0
  3 32  1  0  0  0  0
  3 33  1  0  0  0  0
  4  5  1  0  0  0  0
  4  9  2  0  0  0  0
  5  6  2  0  0  0  0
  5 34  1  0  0  0  0
  6  7  1  0  0  0  0
  6 10  1  0  0  0  0
  7  8  2  0  0  0  0
  7 35  1  0  0  0  0
  8  9  1  0  0  0  0
  8 36  1  0  0  0  0
  9 37  1  0  0  0  0
 11 12  1  0  0  0  0
 11 38  1  0  0  0  0
 11 39  1  0  0  0  0
 12 13  1  0  0  0  0
 13 18  2  0  0  0  0
 14 13  1  0  0  0  0
 14 20  1  0  0  0  0
 15 14  2  0  0  0  0
 16 15  1  0  0  0  0
 16 17  2  0  0  0  0
 16 19  1  0  0  0  0
 18 17  1  0  0  0  0
 18 40  1  0  0  0  0
 19 41  1  0  0  0  0
 19 42  1  0  0  0  0
 19 43  1  0  0  0  0
 20 44  1  0  0  0  0
 20 45  1  0  0  0  0
 20 46  1  0  0  0  0
 21 22  2  0  0  0  0
 21 23  1  0  0  0  0
 23 24  1  0  0  0  0
 23 47  1  0  0  0  0
 24 25  1  0  0  0  0
 24 29  2  0  0  0  0
 25 26  2  0  0  0  0
 25 48  1  0  0  0  0
 26 27  1  0  0  0  0
 26 49  1  0  0  0  0
 27 28  2  0  0  0  0
 27 30  1  0  0  0  0
 28 29  1  0  0  0  0
 28 50  1  0  0  0  0
M  END
>  <DRUGBANK_ID>
DB11951

>  <COMMON_NAME>
Lemborexant

>  <CAS_NUMBER>
1369764-02-2

>  <UNII>
0K5743G68X

>  <SYNONYMS>
Lemborexant

$$$$
