OA4
 OpenBabel10282417072D

 33 35  0  0  0  0  0  0  0  0999 V2000
   -1.0523   -1.1651    0.0000 C   0  0  0  0  0  0  0  0  0  0  0  0
   -1.0523   -0.3401    0.0000 C   0  0  0  0  0  0  0  0  0  0  0  0
   -1.7668    0.0724    0.0000 C   0  0  0  0  0  0  0  0  0  0  0  0
   -2.4813   -0.3401    0.0000 N   0  0  0  0  0  0  0  0  0  0  0  0
   -2.4813   -1.1651    0.0000 C   0  0  0  0  0  0  0  0  0  0  0  0
   -1.7668   -1.5776    0.0000 N   0  0  0  0  0  0  0  0  0  0  0  0
   -1.7668    0.8974    0.0000 N   0  0  0  0  0  0  0  0  0  0  0  0
   -0.3378   -1.5776    0.0000 C   0  0  0  0  0  0  0  0  0  0  0  0
    0.3766   -1.1651    0.0000 C   0  0  0  0  0  0  0  0  0  0  0  0
    0.3766   -0.3401    0.0000 C   0  0  0  0  0  0  0  0  0  0  0  0
   -0.3378    0.0724    0.0000 C   0  0  0  0  0  0  0  0  0  0  0  0
   -3.1957   -1.5776    0.0000 N   0  0  0  0  0  0  0  0  0  0  0  0
    1.8056    1.3099    0.0000 C   0  0  0  0  0  0  0  0  0  0  0  0
    2.5200    0.8974    0.0000 C   0  0  0  0  0  0  0  0  0  0  0  0
   -0.3378    0.8974    0.0000 C   0  0  0  0  0  0  0  0  0  0  0  0
    2.5200    0.0724    0.0000 C   0  0  0  0  0  0  0  0  0  0  0  0
    1.8056   -0.3401    0.0000 C   0  0  0  0  0  0  0  0  0  0  0  0
    1.0911    0.0724    0.0000 C   0  0  0  0  0  0  0  0  0  0  0  0
    1.0911    0.8974    0.0000 C   0  0  0  0  0  0  0  0  0  0  0  0
   -0.9142    1.3897    0.0000 H   0  0  0  0  0  0  0  0  0  0  0  0
   -2.6194    1.3897    0.0000 H   0  0  0  0  0  0  0  0  0  0  0  0
   -0.3378   -2.6096    0.0000 H   0  0  0  0  0  0  0  0  0  0  0  0
    1.2703   -1.6811    0.0000 H   0  0  0  0  0  0  0  0  0  0  0  0
   -4.0483   -1.0854    0.0000 H   0  0  0  0  0  0  0  0  0  0  0  0
   -3.1957   -2.5621    0.0000 H   0  0  0  0  0  0  0  0  0  0  0  0
    1.8056    2.3419    0.0000 H   0  0  0  0  0  0  0  0  0  0  0  0
    3.4137    1.4134    0.0000 H   0  0  0  0  0  0  0  0  0  0  0  0
    0.5888    1.4324    0.0000 H   0  0  0  0  0  0  0  0  0  0  0  0
   -1.2644    1.4324    0.0000 H   0  0  0  0  0  0  0  0  0  0  0  0
   -0.3378    1.9674    0.0000 H   0  0  0  0  0  0  0  0  0  0  0  0
    3.4137   -0.4436    0.0000 H   0  0  0  0  0  0  0  0  0  0  0  0
    1.8056   -1.3721    0.0000 H   0  0  0  0  0  0  0  0  0  0  0  0
    0.1974    1.4134    0.0000 H   0  0  0  0  0  0  0  0  0  0  0  0
  1  2  1  0  0  0  0
  1  6  2  0  0  0  0
  1  8  1  0  0  0  0
  2  3  2  0  0  0  0
  2 11  1  0  0  0  0
  3  4  1  0  0  0  0
  3  7  1  0  0  0  0
  4  5  2  0  0  0  0
  5  6  1  0  0  0  0
  5 12  1  0  0  0  0
  7 20  1  0  0  0  0
  7 21  1  0  0  0  0
  8  9  2  0  0  0  0
  8 22  1  0  0  0  0
  9 10  1  0  0  0  0
  9 23  1  0  0  0  0
 10 11  2  0  0  0  0
 10 18  1  0  0  0  0
 11 15  1  0  0  0  0
 12 24  1  0  0  0  0
 12 25  1  0  0  0  0
 13 14  1  0  0  0  0
 13 19  2  0  0  0  0
 13 26  1  0  0  0  0
 14 16  2  0  0  0  0
 14 27  1  0  0  0  0
 15 28  1  0  0  0  0
 15 29  1  0  0  0  0
 15 30  1  0  0  0  0
 16 17  1  0  0  0  0
 16 31  1  0  0  0  0
 17 18  2  0  0  0  0
 17 32  1  0  0  0  0
 18 19  1  0  0  0  0
 19 33  1  0  0  0  0
M  END
>  <DRUGBANK_ID>
DB08317

>  <COMMON_NAME>
5-methyl-6-phenylquinazoline-2,4-diamine

$$$$
