
 OpenBabel10282417072D

 46 46  0  0  0  0  0  0  0  0999 V2000
   -0.2461    1.3936    0.0000 C   0  0  1  0  0  0  0  0  0  0  0  0
   -0.2199    0.6024    0.0000 O   0  0  0  0  0  0  0  0  0  0  0  0
    0.4661    1.8007    0.0000 C   0  0  1  0  0  0  0  0  0  0  0  0
   -0.9488    1.8499    0.0000 C   0  0  1  0  0  0  0  0  0  0  0  0
   -0.2626   -0.3068    0.0000 C   0  0  2  0  0  0  0  0  0  0  0  0
    1.1818    1.3903    0.0000 C   0  0  2  0  0  0  0  0  0  0  0  0
    0.4727    2.6476    0.0000 O   0  0  0  0  0  0  0  0  0  0  0  0
   -1.6611    1.4395    0.0000 C   0  0  0  0  0  0  0  0  0  0  0  0
   -0.9389    2.6805    0.0000 O   0  0  0  0  0  0  0  0  0  0  0  0
   -0.9488   -0.6745    0.0000 O   0  0  0  0  0  0  0  0  0  0  0  0
    0.4727   -0.7567    0.0000 C   0  0  1  0  0  0  0  0  0  0  0  0
    1.9138    1.8072    0.0000 C   0  0  0  0  0  0  0  0  0  0  0  0
    1.1916    0.7074    0.0000 O   0  0  0  0  0  0  0  0  0  0  0  0
   -2.4030    1.8564    0.0000 O   0  0  0  0  0  0  0  0  0  0  0  0
   -0.9652   -1.5183    0.0000 C   0  0  1  0  0  0  0  0  0  0  0  0
    0.4531   -1.6037    0.0000 C   0  0  2  0  0  0  0  0  0  0  0  0
    1.1653   -0.4021    0.0000 O   0  0  0  0  0  0  0  0  0  0  0  0
    2.4030    1.5708    0.0000 O   0  0  0  0  0  0  0  0  0  0  0  0
    1.9073    2.6543    0.0000 O   0  0  0  0  0  0  0  0  0  0  0  0
   -0.2758   -1.9746    0.0000 C   0  0  1  0  0  0  0  0  0  0  0  0
   -1.4345   -1.9977    0.0000 C   0  0  0  0  0  0  0  0  0  0  0  0
    1.0505   -1.9877    0.0000 O   0  0  0  0  0  0  0  0  0  0  0  0
   -0.2922   -2.6805    0.0000 O   0  0  0  0  0  0  0  0  0  0  0  0
   -2.0747   -1.6791    0.0000 O   0  0  0  0  0  0  0  0  0  0  0  0
    0.6882    0.8720    0.0000 H   0  0  0  0  0  0  0  0  0  0  0  0
   -0.4573    2.3413    0.0000 H   0  0  0  0  0  0  0  0  0  0  0  0
   -0.0054    2.3549    0.0000 H   0  0  0  0  0  0  0  0  0  0  0  0
   -1.1675    0.2642    0.0000 H   0  0  0  0  0  0  0  0  0  0  0  0
    0.2598    0.8473    0.0000 H   0  0  0  0  0  0  0  0  0  0  0  0
    1.3165    3.1260    0.0000 H   0  0  0  0  0  0  0  0  0  0  0  0
   -1.6554    0.3695    0.0000 H   0  0  0  0  0  0  0  0  0  0  0  0
   -2.5832    0.8966    0.0000 H   0  0  0  0  0  0  0  0  0  0  0  0
   -0.0931    3.1555    0.0000 H   0  0  0  0  0  0  0  0  0  0  0  0
    0.5133    0.3125    0.0000 H   0  0  0  0  0  0  0  0  0  0  0  0
    0.3586    0.2104    0.0000 H   0  0  0  0  0  0  0  0  0  0  0  0
   -2.4143    2.8263    0.0000 H   0  0  0  0  0  0  0  0  0  0  0  0
   -1.9519   -1.1045    0.0000 H   0  0  0  0  0  0  0  0  0  0  0  0
    1.3981   -1.1018    0.0000 H   0  0  0  0  0  0  0  0  0  0  0  0
    1.9798   -0.9288    0.0000 H   0  0  0  0  0  0  0  0  0  0  0  0
    2.4718    0.6363    0.0000 H   0  0  0  0  0  0  0  0  0  0  0  0
   -1.2242   -2.4701    0.0000 H   0  0  0  0  0  0  0  0  0  0  0  0
   -1.2565   -3.0528    0.0000 H   0  0  0  0  0  0  0  0  0  0  0  0
   -2.2940   -2.6351    0.0000 H   0  0  0  0  0  0  0  0  0  0  0  0
    1.0043   -2.9566    0.0000 H   0  0  0  0  0  0  0  0  0  0  0  0
   -1.1433   -3.1459    0.0000 H   0  0  0  0  0  0  0  0  0  0  0  0
   -2.1346   -0.7110    0.0000 H   0  0  0  0  0  0  0  0  0  0  0  0
  1  2  1  0  0  0  0
  1  3  1  0  0  0  0
  1  4  1  0  0  0  0
  1 25  1  1  0  0  0
  3  6  1  0  0  0  0
  3  7  1  0  0  0  0
  3 26  1  1  0  0  0
  4  8  1  0  0  0  0
  4  9  1  0  0  0  0
  4 27  1  6  0  0  0
  5  2  1  0  0  0  0
  5 10  1  0  0  0  0
  5 11  1  0  0  0  0
  5 28  1  6  0  0  0
  6 12  1  0  0  0  0
  6 13  1  0  0  0  0
  6 29  1  1  0  0  0
  7 30  1  0  0  0  0
  8 14  1  0  0  0  0
  8 31  1  0  0  0  0
  8 32  1  0  0  0  0
  9 33  1  0  0  0  0
 10 15  1  0  0  0  0
 11 16  1  0  0  0  0
 11 17  1  0  0  0  0
 11 34  1  1  0  0  0
 12 18  1  0  0  0  0
 12 19  2  0  0  0  0
 13 35  1  0  0  0  0
 14 36  1  0  0  0  0
 15 20  1  0  0  0  0
 15 21  1  0  0  0  0
 15 37  1  6  0  0  0
 16 22  1  0  0  0  0
 16 20  1  0  0  0  0
 16 38  1  6  0  0  0
 17 39  1  0  0  0  0
 18 40  1  0  0  0  0
 20 23  1  0  0  0  0
 20 41  1  6  0  0  0
 21 24  1  0  0  0  0
 21 42  1  0  0  0  0
 21 43  1  0  0  0  0
 22 44  1  0  0  0  0
 23 45  1  0  0  0  0
 24 46  1  0  0  0  0
M  END
>  <DRUGBANK_ID>
DB16621

>  <COMMON_NAME>
Lactobionic acid

>  <CAS_NUMBER>
96-82-2

>  <UNII>
65R938S4DV

>  <SYNONYMS>
Lactobionate

$$$$
