
 OpenBabel10282417072D

  4  3  0  0  0  0  0  0  0  0999 V2000
    0.2062    0.0000    0.0000 C   0  0  0  0  0  0  0  0  0  0  0  0
    0.6187    0.7145    0.0000 O   0  0  0  0  0  0  0  0  0  0  0  0
    0.6187   -0.7145    0.0000 O   0  5  0  0  0  0  0  0  0  0  0  0
   -0.6187    0.0000    0.0000 O   0  5  0  0  0  0  0  0  0  0  0  0
  2  1  2  0  0  0  0
  3  1  1  0  0  0  0
  4  1  1  0  0  0  0
M  CHG  2   3  -1   4  -1
M  END
>  <DRUGBANK_ID>
DB14531

>  <COMMON_NAME>
Carbonate ion

>  <CAS_NUMBER>
3812-32-6

>  <UNII>
7UJQ5OPE7D

>  <SYNONYMS>
Carbonate

$$$$
