
 OpenBabel10282417072D

  1  0  0  0  0  0  0  0  0  0999 V2000
    0.0000    0.0000    0.0000 Au  0  3  0  0  0  0  0  0  0  0  0  0
M  CHG  1   1   1
M  END
>  <DRUGBANK_ID>
DB14534

>  <COMMON_NAME>
Gold cation (1+)

>  <CAS_NUMBER>
20681-14-5

>  <UNII>
3D8CUH9F21

>  <SYNONYMS>
Au+; Au1+; Gold (Au1+); Gold ion(1+); Gold, ion (Au1+); Gold(1+); Gold(1+) ion

$$$$
