
 OpenBabel10282417072D

 71 74  0  0  0  0  0  0  0  0999 V2000
   -2.7786   -3.1329    0.0000 C   0  0  0  0  0  0  0  0  0  0  0  0
   -2.7786   -2.3079    0.0000 C   0  0  0  0  0  0  0  0  0  0  0  0
   -2.0641   -1.8954    0.0000 C   0  0  0  0  0  0  0  0  0  0  0  0
   -2.0641   -3.5454    0.0000 C   0  0  0  0  0  0  0  0  0  0  0  0
   -1.3497   -3.1329    0.0000 C   0  0  0  0  0  0  0  0  0  0  0  0
   -0.6352   -3.5454    0.0000 C   0  0  0  0  0  0  0  0  0  0  0  0
    0.0792   -3.1329    0.0000 C   0  0  0  0  0  0  0  0  0  0  0  0
    0.0792   -2.3079    0.0000 C   0  0  1  0  0  0  0  0  0  0  0  0
    0.7937   -1.8954    0.0000 C   0  0  2  0  0  0  0  0  0  0  0  0
    1.5783   -2.1503    0.0000 C   0  0  0  0  0  0  0  0  0  0  0  0
    2.0632   -1.4829    0.0000 C   0  0  0  0  0  0  0  0  0  0  0  0
    1.5873   -0.8131    0.0000 C   0  0  2  0  0  0  0  0  0  0  0  0
    1.3098    0.2227    0.0000 C   0  0  0  0  0  0  0  0  0  0  0  0
    0.5328    0.4543    0.0000 C   0  0  0  0  0  0  0  0  0  0  0  0
    0.7937   -1.0704    0.0000 C   0  0  2  0  0  0  0  0  0  0  0  0
    0.7937   -0.2454    0.0000 C   0  0  0  0  0  0  0  0  0  0  0  0
    0.0792   -0.6579    0.0000 C   0  0  0  0  0  0  0  0  0  0  0  0
   -0.6352   -1.0704    0.0000 C   0  0  1  0  0  0  0  0  0  0  0  0
   -0.6352   -1.8954    0.0000 C   0  0  2  0  0  0  0  0  0  0  0  0
   -1.3497   -2.3079    0.0000 C   0  0  1  0  0  0  0  0  0  0  0  0
   -1.3497   -1.4829    0.0000 C   0  0  0  0  0  0  0  0  0  0  0  0
   -3.4931   -3.5454    0.0000 O   0  0  0  0  0  0  0  0  0  0  0  0
    1.9123    0.7982    0.0000 O   0  0  0  0  0  0  0  0  0  0  0  0
    2.3260   -0.4668    0.0000 O   0  0  0  0  0  0  0  0  0  0  0  0
   -1.3497   -0.6579    0.0000 O   0  0  0  0  0  0  0  0  0  0  0  0
    0.9266    1.8279    0.0000 C   0  0  0  0  0  0  0  0  0  0  0  0
    0.7131    2.6248    0.0000 C   0  0  0  0  0  0  0  0  0  0  0  0
    1.3135    3.1997    0.0000 C   0  0  0  0  0  0  0  0  0  0  0  0
    2.1065    2.9723    0.0000 C   0  0  0  0  0  0  0  0  0  0  0  0
    2.7000    3.5454    0.0000 C   0  0  0  0  0  0  0  0  0  0  0  0
    3.4931    3.3179    0.0000 C   0  0  0  0  0  0  0  0  0  0  0  0
    1.7127    1.5987    0.0000 O   0  0  0  0  0  0  0  0  0  0  0  0
    0.3192    1.2512    0.0000 O   0  0  0  0  0  0  0  0  0  0  0  0
   -0.6352   -2.7204    0.0000 H   0  0  0  0  0  0  0  0  0  0  0  0
    0.0792   -1.4829    0.0000 H   0  0  0  0  0  0  0  0  0  0  0  0
    0.7937   -2.7204    0.0000 H   0  0  0  0  0  0  0  0  0  0  0  0
   -3.6723   -1.7919    0.0000 H   0  0  0  0  0  0  0  0  0  0  0  0
   -2.0641   -0.8634    0.0000 H   0  0  0  0  0  0  0  0  0  0  0  0
   -2.0641   -4.5774    0.0000 H   0  0  0  0  0  0  0  0  0  0  0  0
   -0.6352   -4.6154    0.0000 H   0  0  0  0  0  0  0  0  0  0  0  0
    0.2915   -4.0804    0.0000 H   0  0  0  0  0  0  0  0  0  0  0  0
    1.0059   -3.6679    0.0000 H   0  0  0  0  0  0  0  0  0  0  0  0
    1.0058   -2.5979    0.0000 H   0  0  0  0  0  0  0  0  0  0  0  0
    1.9090   -3.1679    0.0000 H   0  0  0  0  0  0  0  0  0  0  0  0
    2.6351   -2.3177    0.0000 H   0  0  0  0  0  0  0  0  0  0  0  0
    3.1332   -1.4886    0.0000 H   0  0  0  0  0  0  0  0  0  0  0  0
    2.5565   -0.5334    0.0000 H   0  0  0  0  0  0  0  0  0  0  0  0
   -0.2342   -0.2917    0.0000 H   0  0  0  0  0  0  0  0  0  0  0  0
   -0.4988    0.7384    0.0000 H   0  0  0  0  0  0  0  0  0  0  0  0
    1.7203    0.2896    0.0000 H   0  0  0  0  0  0  0  0  0  0  0  0
   -0.1329    0.2896    0.0000 H   0  0  0  0  0  0  0  0  0  0  0  0
    0.7937    0.8246    0.0000 H   0  0  0  0  0  0  0  0  0  0  0  0
    0.0792    0.4121    0.0000 H   0  0  0  0  0  0  0  0  0  0  0  0
   -0.8475   -0.1229    0.0000 H   0  0  0  0  0  0  0  0  0  0  0  0
   -0.6352   -0.0004    0.0000 H   0  0  0  0  0  0  0  0  0  0  0  0
   -0.4231   -0.9479    0.0000 H   0  0  0  0  0  0  0  0  0  0  0  0
   -2.2763   -0.9479    0.0000 H   0  0  0  0  0  0  0  0  0  0  0  0
   -1.3497   -0.4129    0.0000 H   0  0  0  0  0  0  0  0  0  0  0  0
    3.1217   -1.0215    0.0000 H   0  0  0  0  0  0  0  0  0  0  0  0
   -1.3497    0.3121    0.0000 H   0  0  0  0  0  0  0  0  0  0  0  0
   -0.3174    2.9129    0.0000 H   0  0  0  0  0  0  0  0  0  0  0  0
    0.4530    3.6627    0.0000 H   0  0  0  0  0  0  0  0  0  0  0  0
    1.0569    4.2385    0.0000 H   0  0  0  0  0  0  0  0  0  0  0  0
    2.0840    3.9422    0.0000 H   0  0  0  0  0  0  0  0  0  0  0  0
    2.3653    1.9341    0.0000 H   0  0  0  0  0  0  0  0  0  0  0  0
    3.1350    2.6773    0.0000 H   0  0  0  0  0  0  0  0  0  0  0  0
    2.4412    4.5836    0.0000 H   0  0  0  0  0  0  0  0  0  0  0  0
    3.4698    4.2886    0.0000 H   0  0  0  0  0  0  0  0  0  0  0  0
    3.7519    2.2797    0.0000 H   0  0  0  0  0  0  0  0  0  0  0  0
    4.2629    4.0611    0.0000 H   0  0  0  0  0  0  0  0  0  0  0  0
    4.5216    3.0229    0.0000 H   0  0  0  0  0  0  0  0  0  0  0  0
  1  2  1  0  0  0  0
  1  4  1  0  0  0  0
  1 22  2  0  0  0  0
  2  3  2  0  0  0  0
  2 37  1  0  0  0  0
  3 20  1  0  0  0  0
  3 38  1  0  0  0  0
  4  5  2  0  0  0  0
  4 39  1  0  0  0  0
  5  6  1  0  0  0  0
  5 20  1  0  0  0  0
  6  7  1  0  0  0  0
  6 40  1  0  0  0  0
  6 41  1  0  0  0  0
  7  8  1  0  0  0  0
  7 42  1  0  0  0  0
  7 43  1  0  0  0  0
  8  9  1  0  0  0  0
  8 19  1  0  0  0  0
  8 35  1  1  0  0  0
  9 10  1  0  0  0  0
  9 15  1  0  0  0  0
  9 36  1  6  0  0  0
 10 11  1  0  0  0  0
 10 44  1  0  0  0  0
 10 45  1  0  0  0  0
 11 12  1  0  0  0  0
 11 46  1  0  0  0  0
 11 47  1  0  0  0  0
 12 13  1  1  0  0  0
 12 15  1  0  0  0  0
 12 24  1  0  0  0  0
 13 14  1  0  0  0  0
 13 23  2  0  0  0  0
 14 33  1  0  0  0  0
 14 48  1  0  0  0  0
 14 49  1  0  0  0  0
 15 16  1  1  0  0  0
 15 17  1  0  0  0  0
 16 50  1  0  0  0  0
 16 51  1  0  0  0  0
 16 52  1  0  0  0  0
 17 18  1  0  0  0  0
 17 53  1  0  0  0  0
 17 54  1  0  0  0  0
 18 19  1  0  0  0  0
 18 25  1  0  0  0  0
 18 55  1  6  0  0  0
 19 20  1  0  0  0  0
 19 34  1  6  0  0  0
 20 21  1  1  0  0  0
 21 56  1  0  0  0  0
 21 57  1  0  0  0  0
 21 58  1  0  0  0  0
 24 59  1  0  0  0  0
 25 60  1  0  0  0  0
 26 27  1  0  0  0  0
 26 32  2  0  0  0  0
 26 33  1  0  0  0  0
 27 28  1  0  0  0  0
 27 61  1  0  0  0  0
 27 62  1  0  0  0  0
 28 29  1  0  0  0  0
 28 63  1  0  0  0  0
 28 64  1  0  0  0  0
 29 30  1  0  0  0  0
 29 65  1  0  0  0  0
 29 66  1  0  0  0  0
 30 31  1  0  0  0  0
 30 67  1  0  0  0  0
 30 68  1  0  0  0  0
 31 69  1  0  0  0  0
 31 70  1  0  0  0  0
 31 71  1  0  0  0  0
M  END
>  <DRUGBANK_ID>
DB15999

>  <COMMON_NAME>
Prednisolone caproate

>  <CAS_NUMBER>
69164-69-8

>  <UNII>
0PA7CJ4RFB

>  <SYNONYMS>
Prednisolone hexanoate; Prednisolone-21 hexanoate

$$$$
