HYQ
 OpenBabel10282417072D

 44 48  0  0  0  0  0  0  0  0999 V2000
   -1.5168   -0.4813    0.0000 C   0  0  2  0  0  0  0  0  0  0  0  0
   -0.6974   -0.5774    0.0000 C   0  0  0  0  0  0  0  0  0  0  0  0
   -0.2936   -1.2968    0.0000 O   0  0  0  0  0  0  0  0  0  0  0  0
   -0.3528    0.1722    0.0000 N   0  0  0  0  0  0  0  0  0  0  0  0
    0.4562    0.3340    0.0000 C   0  0  0  0  0  0  0  0  0  0  0  0
    0.7205    1.1155    0.0000 C   0  0  0  0  0  0  0  0  0  0  0  0
    1.5295    1.2773    0.0000 C   0  0  0  0  0  0  0  0  0  0  0  0
    2.0741    0.6576    0.0000 C   0  0  0  0  0  0  0  0  0  0  0  0
    2.8831    0.8194    0.0000 N   0  3  0  0  0  0  0  0  0  0  0  0
    3.4277    0.1997    0.0000 O   0  5  0  0  0  0  0  0  0  0  0  0
    3.1475    1.6009    0.0000 O   0  0  0  0  0  0  0  0  0  0  0  0
    1.8097   -0.1239    0.0000 C   0  0  0  0  0  0  0  0  0  0  0  0
    2.3544   -0.7436    0.0000 C   0  0  0  0  0  0  0  0  0  0  0  0
    2.0900   -1.5251    0.0000 C   0  0  0  0  0  0  0  0  0  0  0  0
    1.2810   -1.6869    0.0000 C   0  0  0  0  0  0  0  0  0  0  0  0
    0.7364   -1.0672    0.0000 C   0  0  0  0  0  0  0  0  0  0  0  0
    1.0008   -0.2857    0.0000 C   0  0  0  0  0  0  0  0  0  0  0  0
   -0.9592    0.7316    0.0000 C   0  0  0  0  0  0  0  0  0  0  0  0
   -0.8631    1.5510    0.0000 O   0  0  0  0  0  0  0  0  0  0  0  0
   -1.6786    0.3277    0.0000 C   0  0  2  0  0  0  0  0  0  0  0  0
   -2.4080    0.6140    0.0000 C   0  0  1  0  0  0  0  0  0  0  0  0
   -3.2118    0.2621    0.0000 C   0  0  0  0  0  0  0  0  0  0  0  0
   -3.1046   -0.4933    0.0000 C   0  0  0  0  0  0  0  0  0  0  0  0
   -2.2653   -0.1344    0.0000 C   0  0  2  0  0  0  0  0  0  0  0  0
   -2.1256    0.9042    0.0000 C   0  0  0  0  0  0  0  0  0  0  0  0
   -2.3703    1.5101    0.0000 C   0  0  0  0  0  0  0  0  0  0  0  0
   -1.6756   -1.0432    0.0000 H   0  0  0  0  0  0  0  0  0  0  0  0
   -1.7187    0.9103    0.0000 H   0  0  0  0  0  0  0  0  0  0  0  0
   -2.5971    0.0616    0.0000 H   0  0  0  0  0  0  0  0  0  0  0  0
   -2.2740   -0.7182    0.0000 H   0  0  0  0  0  0  0  0  0  0  0  0
    0.0392    1.8907    0.0000 H   0  0  0  0  0  0  0  0  0  0  0  0
    1.8602    2.2549    0.0000 H   0  0  0  0  0  0  0  0  0  0  0  0
    3.3664   -0.5412    0.0000 H   0  0  0  0  0  0  0  0  0  0  0  0
    2.7712   -2.3003    0.0000 H   0  0  0  0  0  0  0  0  0  0  0  0
    0.9503   -2.6645    0.0000 H   0  0  0  0  0  0  0  0  0  0  0  0
   -0.2756   -1.2696    0.0000 H   0  0  0  0  0  0  0  0  0  0  0  0
   -4.1464    0.7831    0.0000 H   0  0  0  0  0  0  0  0  0  0  0  0
   -4.0939   -0.3435    0.0000 H   0  0  0  0  0  0  0  0  0  0  0  0
   -3.6296   -1.4256    0.0000 H   0  0  0  0  0  0  0  0  0  0  0  0
   -2.3902   -1.2899    0.0000 H   0  0  0  0  0  0  0  0  0  0  0  0
   -1.0640    1.0377    0.0000 H   0  0  0  0  0  0  0  0  0  0  0  0
   -1.5838    1.8269    0.0000 H   0  0  0  0  0  0  0  0  0  0  0  0
   -2.5523    2.5645    0.0000 H   0  0  0  0  0  0  0  0  0  0  0  0
   -1.3412    1.8031    0.0000 H   0  0  0  0  0  0  0  0  0  0  0  0
  1  2  1  0  0  0  0
  1 20  1  0  0  0  0
  1 24  1  0  0  0  0
  1 27  1  6  0  0  0
  2  3  2  0  0  0  0
  2  4  1  0  0  0  0
  4  5  1  0  0  0  0
  4 18  1  0  0  0  0
  5  6  2  0  0  0  0
  5 17  1  0  0  0  0
  6  7  1  0  0  0  0
  6 31  1  0  0  0  0
  7  8  2  0  0  0  0
  7 32  1  0  0  0  0
  8  9  1  0  0  0  0
  8 12  1  0  0  0  0
  9 10  1  0  0  0  0
  9 11  2  0  0  0  0
 12 13  2  0  0  0  0
 12 17  1  0  0  0  0
 13 14  1  0  0  0  0
 13 33  1  0  0  0  0
 14 15  2  0  0  0  0
 14 34  1  0  0  0  0
 15 16  1  0  0  0  0
 15 35  1  0  0  0  0
 16 17  2  0  0  0  0
 16 36  1  0  0  0  0
 18 19  2  0  0  0  0
 18 20  1  0  0  0  0
 20 21  1  0  0  0  0
 20 28  1  6  0  0  0
 21 22  1  0  0  0  0
 21 26  1  0  0  0  0
 21 29  1  6  0  0  0
 22 23  1  0  0  0  0
 22 37  1  0  0  0  0
 22 38  1  0  0  0  0
 23 24  1  0  0  0  0
 23 39  1  0  0  0  0
 23 40  1  0  0  0  0
 24 25  1  0  0  0  0
 24 30  1  1  0  0  0
 25 26  1  0  0  0  0
 25 41  1  0  0  0  0
 25 42  1  0  0  0  0
 26 43  1  0  0  0  0
 26 44  1  0  0  0  0
M  CHG  2   9   1  10  -1
M  END
>  <DRUGBANK_ID>
DB04709

>  <COMMON_NAME>
(3AALPHA,4ALPHA,7ALPHA,7AALPHA)- 3A,4,7,7A-TETRAHYDRO-2-(4-NITRO-1-NAPHTHALENYL)-4,7-ETHANO-1H-ISOINDOLE-1,3(2H)-DIONE

$$$$
