
 OpenBabel10282417072D

 45 46  0  0  0  0  0  0  0  0999 V2000
    2.4249    0.2002    0.0000 C   0  0  0  0  0  0  0  0  0  0  0  0
    1.5317    0.8491    0.0000 C   0  0  0  0  0  0  0  0  0  0  0  0
    3.3032    2.9033    0.0000 C   0  0  0  0  0  0  0  0  0  0  0  0
    2.1991    2.9033    0.0000 C   0  0  0  0  0  0  0  0  0  0  0  0
    4.2829   -1.7354    0.0000 C   0  0  0  0  0  0  0  0  0  0  0  0
    5.7725    2.5701    0.0000 C   0  0  0  0  0  0  0  0  0  0  0  0
    5.1594    3.1221    0.0000 C   0  0  0  0  0  0  0  0  0  0  0  0
    5.6010    1.7631    0.0000 C   0  0  0  0  0  0  0  0  0  0  0  0
    4.3748    2.8672    0.0000 C   0  0  0  0  0  0  0  0  0  0  0  0
    4.8163    1.5082    0.0000 C   0  0  0  0  0  0  0  0  0  0  0  0
    3.6486    0.3532    0.0000 C   0  0  0  0  0  0  0  0  0  0  0  0
    4.2032    2.0602    0.0000 C   0  0  0  0  0  0  0  0  0  0  0  0
    3.1637    1.0206    0.0000 C   0  0  0  0  0  0  0  0  0  0  0  0
    3.4186    1.8053    0.0000 C   0  0  0  0  0  0  0  0  0  0  0  0
    2.3387    1.0206    0.0000 C   0  0  0  0  0  0  0  0  0  0  0  0
    2.7512    2.2902    0.0000 C   0  0  0  0  0  0  0  0  0  0  0  0
    2.0837    1.8053    0.0000 N   0  0  0  0  0  0  0  0  0  0  0  0
    1.2991    2.0602    0.0000 O   0  0  0  0  0  0  0  0  0  0  0  0
    4.4654   -0.5830    0.0000 O   0  0  0  0  0  0  0  0  0  0  0  0
    3.1305   -1.5528    0.0000 O   0  0  0  0  0  0  0  0  0  0  0  0
    3.3130   -0.4005    0.0000 S   0  0  0  0  0  0  0  0  0  0  0  0
    3.7980   -1.0679    0.0000 S   0  0  0  0  0  0  0  0  0  0  0  0
    1.5592   -0.4287    0.0000 H   0  0  0  0  0  0  0  0  0  0  0  0
    3.4024   -0.2350    0.0000 H   0  0  0  0  0  0  0  0  0  0  0  0
    2.5367   -0.8639    0.0000 H   0  0  0  0  0  0  0  0  0  0  0  0
    0.8158    1.6443    0.0000 H   0  0  0  0  0  0  0  0  0  0  0  0
    1.2010   -0.1685    0.0000 H   0  0  0  0  0  0  0  0  0  0  0  0
    0.4851    0.6267    0.0000 H   0  0  0  0  0  0  0  0  0  0  0  0
    4.3498    2.6809    0.0000 H   0  0  0  0  0  0  0  0  0  0  0  0
    2.9725    3.9209    0.0000 H   0  0  0  0  0  0  0  0  0  0  0  0
    4.0191    3.6985    0.0000 H   0  0  0  0  0  0  0  0  0  0  0  0
    2.5297    3.9209    0.0000 H   0  0  0  0  0  0  0  0  0  0  0  0
    1.1525    2.6808    0.0000 H   0  0  0  0  0  0  0  0  0  0  0  0
    1.4831    3.6984    0.0000 H   0  0  0  0  0  0  0  0  0  0  0  0
    3.8476   -2.7129    0.0000 H   0  0  0  0  0  0  0  0  0  0  0  0
    5.3470   -1.6236    0.0000 H   0  0  0  0  0  0  0  0  0  0  0  0
    4.9118   -2.6011    0.0000 H   0  0  0  0  0  0  0  0  0  0  0  0
    6.7540    2.8890    0.0000 H   0  0  0  0  0  0  0  0  0  0  0  0
    5.3740    4.1315    0.0000 H   0  0  0  0  0  0  0  0  0  0  0  0
    6.3679    1.0725    0.0000 H   0  0  0  0  0  0  0  0  0  0  0  0
    3.6079    3.5578    0.0000 H   0  0  0  0  0  0  0  0  0  0  0  0
    4.6017    0.4988    0.0000 H   0  0  0  0  0  0  0  0  0  0  0  0
    4.7127    0.4650    0.0000 H   0  0  0  0  0  0  0  0  0  0  0  0
    4.2775   -0.5125    0.0000 H   0  0  0  0  0  0  0  0  0  0  0  0
    1.0974    3.0090    0.0000 H   0  0  0  0  0  0  0  0  0  0  0  0
  1 23  1  0  0  0  0
  1 24  1  0  0  0  0
  1 25  1  0  0  0  0
  2 26  1  0  0  0  0
  2 27  1  0  0  0  0
  2 28  1  0  0  0  0
  3 29  1  0  0  0  0
  3 30  1  0  0  0  0
  3 31  1  0  0  0  0
  4 32  1  0  0  0  0
  4 33  1  0  0  0  0
  4 34  1  0  0  0  0
  5 35  1  0  0  0  0
  5 36  1  0  0  0  0
  5 37  1  0  0  0  0
  6 38  1  0  0  0  0
  7  6  2  0  0  0  0
  7 39  1  0  0  0  0
  8  6  1  0  0  0  0
  8 40  1  0  0  0  0
  9  7  1  0  0  0  0
  9 41  1  0  0  0  0
 10  8  2  0  0  0  0
 10 42  1  0  0  0  0
 11 43  1  0  0  0  0
 11 44  1  0  0  0  0
 12  9  2  0  0  0  0
 12 10  1  0  0  0  0
 13 11  1  0  0  0  0
 14 12  1  0  0  0  0
 14 13  2  0  0  0  0
 15  1  1  0  0  0  0
 15  2  1  0  0  0  0
 15 13  1  0  0  0  0
 16  3  1  0  0  0  0
 16  4  1  0  0  0  0
 16 14  1  0  0  0  0
 17 15  1  0  0  0  0
 17 16  1  0  0  0  0
 18 17  1  0  0  0  0
 18 45  1  0  0  0  0
 21 11  1  0  0  0  0
 22  5  1  0  0  0  0
 22 19  2  0  0  0  0
 22 20  2  0  0  0  0
 22 21  1  0  0  0  0
M  END
>  <DRUGBANK_ID>
DB08456

>  <COMMON_NAME>
S-[(1-Hydroxy-2,2,5,5-tetramethyl-4-phenyl-2,5-dihydro-1H-pyrrol-3-yl)methyl] methanesulfonothioate

$$$$
