
 OpenBabel10282417072D

 46 48  0  0  0  0  0  0  0  0999 V2000
    2.2501   10.9527    0.0000 C   0  0  0  0  0  0  0  0  0  0  0  0
    2.9646   10.5402    0.0000 C   0  0  3  0  0  0  0  0  0  0  0  0
    3.6791   10.9527    0.0000 O   0  0  0  0  0  0  0  0  0  0  0  0
    2.9646    9.7152    0.0000 C   0  0  0  0  0  0  0  0  0  0  0  0
    3.6791    9.3027    0.0000 C   0  0  0  0  0  0  0  0  0  0  0  0
    3.6791    8.4777    0.0000 N   0  0  0  0  0  0  0  0  0  0  0  0
    2.9646    8.0652    0.0000 C   0  0  0  0  0  0  0  0  0  0  0  0
    2.9646    7.2402    0.0000 C   0  0  0  0  0  0  0  0  0  0  0  0
    2.2501    6.8277    0.0000 C   0  0  0  0  0  0  0  0  0  0  0  0
    2.2501    6.0027    0.0000 O   0  0  0  0  0  0  0  0  0  0  0  0
    1.5356    5.5902    0.0000 C   0  0  0  0  0  0  0  0  0  0  0  0
    1.5356    4.7652    0.0000 C   0  0  0  0  0  0  0  0  0  0  0  0
    0.8212    4.3527    0.0000 C   0  0  0  0  0  0  0  0  0  0  0  0
    0.1067    4.7652    0.0000 C   0  0  0  0  0  0  0  0  0  0  0  0
   -0.6078    4.3527    0.0000 C   0  0  0  0  0  0  0  0  0  0  0  0
   -0.6078    3.5277    0.0000 C   0  0  3  0  0  0  0  0  0  0  0  0
    0.0597    3.0428    0.0000 S   0  0  0  0  0  0  0  0  0  0  0  0
   -0.1953    2.2581    0.0000 C   0  0  0  0  0  0  0  0  0  0  0  0
    0.2897    1.5907    0.0000 O   0  0  0  0  0  0  0  0  0  0  0  0
   -1.0203    2.2581    0.0000 N   0  0  0  0  0  0  0  0  0  0  0  0
   -1.2752    3.0428    0.0000 C   0  0  0  0  0  0  0  0  0  0  0  0
   -2.0598    3.2977    0.0000 O   0  0  0  0  0  0  0  0  0  0  0  0
    0.1067    5.5902    0.0000 C   0  0  0  0  0  0  0  0  0  0  0  0
    0.8212    6.0027    0.0000 C   0  0  0  0  0  0  0  0  0  0  0  0
    2.2501    8.4777    0.0000 C   0  0  0  0  0  0  0  0  0  0  0  0
    2.2501    9.3027    0.0000 C   0  0  0  0  0  0  0  0  0  0  0  0
    2.2501   12.0227    0.0000 H   0  0  0  0  0  0  0  0  0  0  0  0
    1.3235   10.4177    0.0000 H   0  0  0  0  0  0  0  0  0  0  0  0
    1.3234   11.4877    0.0000 H   0  0  0  0  0  0  0  0  0  0  0  0
    2.9646   11.6102    0.0000 H   0  0  0  0  0  0  0  0  0  0  0  0
    4.5191   10.4677    0.0000 H   0  0  0  0  0  0  0  0  0  0  0  0
    4.5728    9.8187    0.0000 H   0  0  0  0  0  0  0  0  0  0  0  0
    3.8912    6.7052    0.0000 H   0  0  0  0  0  0  0  0  0  0  0  0
    2.9646    6.1702    0.0000 H   0  0  0  0  0  0  0  0  0  0  0  0
    1.3235    7.3627    0.0000 H   0  0  0  0  0  0  0  0  0  0  0  0
    1.3235    6.2927    0.0000 H   0  0  0  0  0  0  0  0  0  0  0  0
    2.4293    4.2492    0.0000 H   0  0  0  0  0  0  0  0  0  0  0  0
    0.8212    3.3207    0.0000 H   0  0  0  0  0  0  0  0  0  0  0  0
   -1.5344    4.8877    0.0000 H   0  0  0  0  0  0  0  0  0  0  0  0
   -1.5344    3.8177    0.0000 H   0  0  0  0  0  0  0  0  0  0  0  0
    0.3456    4.0135    0.0000 H   0  0  0  0  0  0  0  0  0  0  0  0
   -1.5990    1.4616    0.0000 H   0  0  0  0  0  0  0  0  0  0  0  0
   -0.7870    6.1062    0.0000 H   0  0  0  0  0  0  0  0  0  0  0  0
    0.8212    7.0347    0.0000 H   0  0  0  0  0  0  0  0  0  0  0  0
    1.3564    7.9617    0.0000 H   0  0  0  0  0  0  0  0  0  0  0  0
    1.3564    9.8187    0.0000 H   0  0  0  0  0  0  0  0  0  0  0  0
  1  2  1  0  0  0  0
  1 27  1  0  0  0  0
  1 28  1  0  0  0  0
  1 29  1  0  0  0  0
  2  3  1  0  0  0  0
  2  4  1  0  0  0  0
  2 30  1  0  0  0  0
  3 31  1  0  0  0  0
  4  5  2  0  0  0  0
  4 26  1  0  0  0  0
  5  6  1  0  0  0  0
  5 32  1  0  0  0  0
  6  7  2  0  0  0  0
  7  8  1  0  0  0  0
  7 25  1  0  0  0  0
  8  9  1  0  0  0  0
  8 33  1  0  0  0  0
  8 34  1  0  0  0  0
  9 10  1  0  0  0  0
  9 35  1  0  0  0  0
  9 36  1  0  0  0  0
 10 11  1  0  0  0  0
 11 12  2  0  0  0  0
 11 24  1  0  0  0  0
 12 13  1  0  0  0  0
 12 37  1  0  0  0  0
 13 14  2  0  0  0  0
 13 38  1  0  0  0  0
 14 15  1  0  0  0  0
 14 23  1  0  0  0  0
 15 16  1  0  0  0  0
 15 39  1  0  0  0  0
 15 40  1  0  0  0  0
 16 17  1  0  0  0  0
 16 21  1  0  0  0  0
 16 41  1  0  0  0  0
 17 18  1  0  0  0  0
 18 19  2  0  0  0  0
 18 20  1  0  0  0  0
 20 21  1  0  0  0  0
 20 42  1  0  0  0  0
 21 22  2  0  0  0  0
 23 24  2  0  0  0  0
 23 43  1  0  0  0  0
 24 44  1  0  0  0  0
 25 26  2  0  0  0  0
 25 45  1  0  0  0  0
 26 46  1  0  0  0  0
M  END
>  <DRUGBANK_ID>
DB15021

>  <COMMON_NAME>
Leriglitazone

>  <CAS_NUMBER>
146062-44-4

>  <UNII>
K824X25AYA

>  <SYNONYMS>
2,4-thiazolidinedione, 5-((4-(2-(5-(1-hydroxyethyl)-2-pyridinyl)ethoxy)phenyl)methyl)-; All-ambo-5-((4-(2-(5-(1-hydroxyethyl)pyridin-2-yl)ethoxy)phenyl)methyl)-1,3-thiazole-2,4(3H,5H)-dione; Hydroxypioglitazone; Leriglitazone

$$$$
