BAF
 OpenBabel10282417072D

 39 38  0  0  0  0  0  0  0  0999 V2000
   -3.0427    0.0703    0.0000 N   0  0  0  0  0  0  0  0  0  0  0  0
   -3.7573   -0.3422    0.0000 C   0  0  0  0  0  0  0  0  0  0  0  0
   -4.4718    0.0703    0.0000 O   0  0  0  0  0  0  0  0  0  0  0  0
   -2.3283   -0.3422    0.0000 C   0  0  2  0  0  0  0  0  0  0  0  0
   -2.3283   -1.1673    0.0000 C   0  0  0  0  0  0  0  0  0  0  0  0
   -1.6137    0.0703    0.0000 N   0  0  0  0  0  0  0  0  0  0  0  0
   -0.8992   -0.3422    0.0000 C   0  0  0  0  0  0  0  0  0  0  0  0
   -0.8992   -1.1673    0.0000 O   0  0  0  0  0  0  0  0  0  0  0  0
   -0.1847    0.0703    0.0000 C   0  0  2  0  0  0  0  0  0  0  0  0
   -0.1847    0.8954    0.0000 C   0  0  0  0  0  0  0  0  0  0  0  0
    0.5298   -0.3422    0.0000 N   0  0  0  0  0  0  0  0  0  0  0  0
    1.2444    0.0703    0.0000 C   0  0  0  0  0  0  0  0  0  0  0  0
    1.2444    0.8954    0.0000 O   0  0  0  0  0  0  0  0  0  0  0  0
    1.9589   -0.3422    0.0000 O   0  0  0  0  0  0  0  0  0  0  0  0
    2.6734    0.0703    0.0000 C   0  0  0  0  0  0  0  0  0  0  0  0
    3.3880    0.4828    0.0000 C   0  0  0  0  0  0  0  0  0  0  0  0
    3.0859   -0.6442    0.0000 C   0  0  0  0  0  0  0  0  0  0  0  0
    2.2609    0.7848    0.0000 C   0  0  0  0  0  0  0  0  0  0  0  0
   -2.8340   -0.6342    0.0000 H   0  0  0  0  0  0  0  0  0  0  0  0
   -0.6904    0.3622    0.0000 H   0  0  0  0  0  0  0  0  0  0  0  0
   -3.0426    1.0548    0.0000 H   0  0  0  0  0  0  0  0  0  0  0  0
   -3.7573   -1.3742    0.0000 H   0  0  0  0  0  0  0  0  0  0  0  0
   -3.2549   -1.7023    0.0000 H   0  0  0  0  0  0  0  0  0  0  0  0
   -1.4017   -1.7023    0.0000 H   0  0  0  0  0  0  0  0  0  0  0  0
   -2.3283   -2.2373    0.0000 H   0  0  0  0  0  0  0  0  0  0  0  0
   -1.6137    1.0548    0.0000 H   0  0  0  0  0  0  0  0  0  0  0  0
    0.7419    1.4304    0.0000 H   0  0  0  0  0  0  0  0  0  0  0  0
   -1.1113    1.4304    0.0000 H   0  0  0  0  0  0  0  0  0  0  0  0
   -0.1847    1.9654    0.0000 H   0  0  0  0  0  0  0  0  0  0  0  0
    0.5298   -1.3267    0.0000 H   0  0  0  0  0  0  0  0  0  0  0  0
    4.3146   -0.0523    0.0000 H   0  0  0  0  0  0  0  0  0  0  0  0
    3.3881    1.5528    0.0000 H   0  0  0  0  0  0  0  0  0  0  0  0
    4.3147    1.0177    0.0000 H   0  0  0  0  0  0  0  0  0  0  0  0
    2.5509   -1.5708    0.0000 H   0  0  0  0  0  0  0  0  0  0  0  0
    4.1559   -0.6442    0.0000 H   0  0  0  0  0  0  0  0  0  0  0  0
    3.6209   -1.5709    0.0000 H   0  0  0  0  0  0  0  0  0  0  0  0
    2.7959    1.7114    0.0000 H   0  0  0  0  0  0  0  0  0  0  0  0
    1.1909    0.7848    0.0000 H   0  0  0  0  0  0  0  0  0  0  0  0
    1.7259    1.7115    0.0000 H   0  0  0  0  0  0  0  0  0  0  0  0
  1  2  1  0  0  0  0
  1  4  1  0  0  0  0
  1 21  1  0  0  0  0
  2  3  2  0  0  0  0
  2 22  1  0  0  0  0
  4  5  1  0  0  0  0
  4  6  1  0  0  0  0
  4 19  1  6  0  0  0
  5 23  1  0  0  0  0
  5 24  1  0  0  0  0
  5 25  1  0  0  0  0
  6  7  1  0  0  0  0
  6 26  1  0  0  0  0
  7  8  2  0  0  0  0
  7  9  1  0  0  0  0
  9 10  1  0  0  0  0
  9 11  1  0  0  0  0
  9 20  1  1  0  0  0
 10 27  1  0  0  0  0
 10 28  1  0  0  0  0
 10 29  1  0  0  0  0
 11 12  1  0  0  0  0
 11 30  1  0  0  0  0
 12 13  2  0  0  0  0
 12 14  1  0  0  0  0
 14 15  1  0  0  0  0
 15 16  1  0  0  0  0
 15 17  1  0  0  0  0
 15 18  1  0  0  0  0
 16 31  1  0  0  0  0
 16 32  1  0  0  0  0
 16 33  1  0  0  0  0
 17 34  1  0  0  0  0
 17 35  1  0  0  0  0
 17 36  1  0  0  0  0
 18 37  1  0  0  0  0
 18 38  1  0  0  0  0
 18 39  1  0  0  0  0
M  END
>  <DRUGBANK_ID>
DB07433

>  <COMMON_NAME>
(TERT-BUTYLOXYCARBONYL)-ALANYL-AMINO ETHYL-FORMAMIDE

$$$$
