1092
 OpenBabel10282417072D

 85 90  0  0  1  0  0  0  0  0999 V2000
    9.3991   -1.1531    0.0000 O   0  0  0  0  0  0  0  0  0  0  0  0
    7.2065   -2.4305    0.0000 O   0  0  0  0  0  0  0  0  0  0  0  0
    7.2557    0.9094    0.0000 O   0  0  0  0  0  0  0  0  0  0  0  0
    5.9368    0.3612    0.0000 O   0  0  0  0  0  0  0  0  0  0  0  0
    6.5145    0.4967    0.0000 O   0  0  0  0  0  0  0  0  0  0  0  0
    4.9498   -2.0213    0.0000 O   0  0  0  0  0  0  0  0  0  0  0  0
   10.4384    2.8674    0.0000 O   0  0  0  0  0  0  0  0  0  0  0  0
    4.2402   -0.7810    0.0000 O   0  0  0  0  0  0  0  0  0  0  0  0
   11.8908    3.0948    0.0000 O   0  0  0  0  0  0  0  0  0  0  0  0
    3.5177   -2.8408    0.0000 O   0  0  0  0  0  0  0  0  0  0  0  0
    2.0920   -2.0103    0.0000 O   0  0  0  0  0  0  0  0  0  0  0  0
    2.0983   -0.3603    0.0000 O   0  0  0  0  0  0  0  0  0  0  0  0
    7.9702   -0.3281    0.0000 C   0  0  1  0  0  0  0  0  0  0  0  0
    8.6847   -0.7406    0.0000 C   0  0  2  0  0  0  0  0  0  0  0  0
    9.3991   -0.3281    0.0000 C   0  0  1  0  0  0  0  0  0  0  0  0
    9.3991    0.4969    0.0000 C   0  0  2  0  0  0  0  0  0  0  0  0
    7.2194   -0.7463    0.0000 C   0  0  2  0  0  0  0  0  0  0  0  0
    7.2128   -1.6056    0.0000 C   0  0  1  0  0  0  0  0  0  0  0  0
    7.9702    0.4969    0.0000 C   0  0  1  0  0  0  0  0  0  0  0  0
    8.6847    0.9094    0.0000 C   0  0  0  0  0  0  0  0  0  0  0  0
   10.1798    0.7483    0.0000 C   0  0  2  0  0  0  0  0  0  0  0  0
    8.6979   -1.5998    0.0000 C   0  0  0  0  0  0  0  0  0  0  0  0
   10.1798   -0.5795    0.0000 C   0  0  0  0  0  0  0  0  0  0  0  0
    7.9570   -2.0353    0.0000 C   0  0  0  0  0  0  0  0  0  0  0  0
    6.4548   -0.2809    0.0000 C   0  0  1  0  0  0  0  0  0  0  0  0
   10.6612    0.0844    0.0000 C   0  0  0  0  0  0  0  0  0  0  0  0
    6.4411   -2.0591    0.0000 C   0  0  0  0  0  0  0  0  0  0  0  0
    7.2258    0.0787    0.0000 C   0  0  0  0  0  0  0  0  0  0  0  0
    9.3991    1.3219    0.0000 C   0  0  0  0  0  0  0  0  0  0  0  0
    5.6728   -0.7164    0.0000 C   0  0  0  0  0  0  0  0  0  0  0  0
    5.6659   -1.6116    0.0000 C   0  0  2  0  0  0  0  0  0  0  0  0
   10.4361    1.5324    0.0000 C   0  0  0  0  0  0  0  0  0  0  0  0
    9.9523    2.2008    0.0000 C   0  0  0  0  0  0  0  0  0  0  0  0
   11.2212    1.7860    0.0000 C   0  0  0  0  0  0  0  0  0  0  0  0
    4.2370   -1.6060    0.0000 C   0  0  2  0  0  0  0  0  0  0  0  0
   11.2226    2.6110    0.0000 C   0  0  0  0  0  0  0  0  0  0  0  0
    3.5209   -2.0158    0.0000 C   0  0  1  0  0  0  0  0  0  0  0  0
    2.8081   -1.6005    0.0000 C   0  0  1  0  0  0  0  0  0  0  0  0
    3.5273   -0.3658    0.0000 C   0  0  2  0  0  0  0  0  0  0  0  0
    2.8112   -0.7755    0.0000 C   0  0  2  0  0  0  0  0  0  0  0  0
    3.5304    0.4592    0.0000 C   0  0  0  0  0  0  0  0  0  0  0  0
    8.5418    0.0019    0.0000 H   0  0  0  0  0  0  0  0  0  0  0  0
    9.2588   -1.0662    0.0000 H   0  0  0  0  0  0  0  0  0  0  0  0
    8.5591   -1.6381    0.0000 H   0  0  0  0  0  0  0  0  0  0  0  0
    6.3628   -2.9091    0.0000 H   0  0  0  0  0  0  0  0  0  0  0  0
    7.2557    1.8794    0.0000 H   0  0  0  0  0  0  0  0  0  0  0  0
    6.2861    1.2661    0.0000 H   0  0  0  0  0  0  0  0  0  0  0  0
    6.5220    1.4667    0.0000 H   0  0  0  0  0  0  0  0  0  0  0  0
    2.6758   -3.3225    0.0000 H   0  0  0  0  0  0  0  0  0  0  0  0
    1.2538   -1.5221    0.0000 H   0  0  0  0  0  0  0  0  0  0  0  0
    2.1020    0.6097    0.0000 H   0  0  0  0  0  0  0  0  0  0  0  0
    7.0436   -0.0381    0.0000 H   0  0  0  0  0  0  0  0  0  0  0  0
    8.6847    1.9794    0.0000 H   0  0  0  0  0  0  0  0  0  0  0  0
    7.7581    1.4444    0.0000 H   0  0  0  0  0  0  0  0  0  0  0  0
    9.4249    1.5066    0.0000 H   0  0  0  0  0  0  0  0  0  0  0  0
    9.6307   -2.1240    0.0000 H   0  0  0  0  0  0  0  0  0  0  0  0
    8.7083   -2.6697    0.0000 H   0  0  0  0  0  0  0  0  0  0  0  0
   10.5123   -1.5965    0.0000 H   0  0  0  0  0  0  0  0  0  0  0  0
   11.2369   -0.7454    0.0000 H   0  0  0  0  0  0  0  0  0  0  0  0
    7.9612   -3.1053    0.0000 H   0  0  0  0  0  0  0  0  0  0  0  0
    8.8868   -2.5649    0.0000 H   0  0  0  0  0  0  0  0  0  0  0  0
    7.1598    0.5240    0.0000 H   0  0  0  0  0  0  0  0  0  0  0  0
   11.7312    0.0844    0.0000 H   0  0  0  0  0  0  0  0  0  0  0  0
   11.1474   -0.8687    0.0000 H   0  0  0  0  0  0  0  0  0  0  0  0
    6.4453   -3.1291    0.0000 H   0  0  0  0  0  0  0  0  0  0  0  0
    5.5155   -2.5959    0.0000 H   0  0  0  0  0  0  0  0  0  0  0  0
    8.1566    0.6065    0.0000 H   0  0  0  0  0  0  0  0  0  0  0  0
    8.1483   -0.4635    0.0000 H   0  0  0  0  0  0  0  0  0  0  0  0
   10.3257    1.8569    0.0000 H   0  0  0  0  0  0  0  0  0  0  0  0
    8.4725    1.8569    0.0000 H   0  0  0  0  0  0  0  0  0  0  0  0
    9.3991    2.3919    0.0000 H   0  0  0  0  0  0  0  0  0  0  0  0
    4.7524   -0.1707    0.0000 H   0  0  0  0  0  0  0  0  0  0  0  0
    4.7410   -1.2424    0.0000 H   0  0  0  0  0  0  0  0  0  0  0  0
    5.6638   -2.6816    0.0000 H   0  0  0  0  0  0  0  0  0  0  0  0
    8.8823    2.2027    0.0000 H   0  0  0  0  0  0  0  0  0  0  0  0
    9.4648    1.2483    0.0000 H   0  0  0  0  0  0  0  0  0  0  0  0
   12.0551    1.1780    0.0000 H   0  0  0  0  0  0  0  0  0  0  0  0
    5.1657   -1.0746    0.0000 H   0  0  0  0  0  0  0  0  0  0  0  0
    4.4455   -2.5544    0.0000 H   0  0  0  0  0  0  0  0  0  0  0  0
    2.8039   -2.6705    0.0000 H   0  0  0  0  0  0  0  0  0  0  0  0
    4.4560    0.1657    0.0000 H   0  0  0  0  0  0  0  0  0  0  0  0
    1.8825   -1.3070    0.0000 H   0  0  0  0  0  0  0  0  0  0  0  0
    4.4591    0.9907    0.0000 H   0  0  0  0  0  0  0  0  0  0  0  0
    2.6058    0.9977    0.0000 H   0  0  0  0  0  0  0  0  0  0  0  0
    3.5344    1.5292    0.0000 H   0  0  0  0  0  0  0  0  0  0  0  0
  1 44  1  0  0  0  0
  2 45  1  0  0  0  0
  3 46  1  0  0  0  0
  4 47  1  0  0  0  0
  5 28  1  0  0  0  0
  5 48  1  0  0  0  0
  7 33  1  0  0  0  0
  7 36  1  0  0  0  0
  8 35  1  0  0  0  0
  8 39  1  0  0  0  0
  9 36  2  0  0  0  0
 10 49  1  0  0  0  0
 11 50  1  0  0  0  0
 12 51  1  0  0  0  0
 13 14  1  0  0  0  0
 13 17  1  0  0  0  0
 13 19  1  0  0  0  0
 13 42  1  6  0  0  0
 14 15  1  0  0  0  0
 14 22  1  0  0  0  0
 14 43  1  1  0  0  0
 15  1  1  1  0  0  0
 15 16  1  0  0  0  0
 15 23  1  0  0  0  0
 16 20  1  0  0  0  0
 16 21  1  0  0  0  0
 16 29  1  1  0  0  0
 17 18  1  0  0  0  0
 17 25  1  0  0  0  0
 17 28  1  1  0  0  0
 18  2  1  1  0  0  0
 18 24  1  0  0  0  0
 18 27  1  0  0  0  0
 19  3  1  0  0  0  0
 19 20  1  0  0  0  0
 19 52  1  1  0  0  0
 20 53  1  0  0  0  0
 20 54  1  0  0  0  0
 21 26  1  0  0  0  0
 21 32  1  0  0  0  0
 21 55  1  6  0  0  0
 22 24  1  0  0  0  0
 22 56  1  0  0  0  0
 22 57  1  0  0  0  0
 23 26  1  0  0  0  0
 23 58  1  0  0  0  0
 23 59  1  0  0  0  0
 24 60  1  0  0  0  0
 24 61  1  0  0  0  0
 25  4  1  0  0  0  0
 25 30  1  0  0  0  0
 25 62  1  6  0  0  0
 26 63  1  0  0  0  0
 26 64  1  0  0  0  0
 27 31  1  0  0  0  0
 27 65  1  0  0  0  0
 27 66  1  0  0  0  0
 28 67  1  0  0  0  0
 28 68  1  0  0  0  0
 29 69  1  0  0  0  0
 29 70  1  0  0  0  0
 29 71  1  0  0  0  0
 30 31  1  0  0  0  0
 30 72  1  0  0  0  0
 30 73  1  0  0  0  0
 31  6  1  0  0  0  0
 31 74  1  6  0  0  0
 32 33  1  0  0  0  0
 32 34  2  0  0  0  0
 33 75  1  0  0  0  0
 33 76  1  0  0  0  0
 34 36  1  0  0  0  0
 34 77  1  0  0  0  0
 35  6  1  0  0  0  0
 35 37  1  0  0  0  0
 35 78  1  6  0  0  0
 37 10  1  0  0  0  0
 37 38  1  0  0  0  0
 37 79  1  1  0  0  0
 38 11  1  0  0  0  0
 38 40  1  0  0  0  0
 38 80  1  1  0  0  0
 39 40  1  0  0  0  0
 39 41  1  0  0  0  0
 39 81  1  1  0  0  0
 40 12  1  0  0  0  0
 40 82  1  6  0  0  0
 41 83  1  0  0  0  0
 41 84  1  0  0  0  0
 41 85  1  0  0  0  0
M  END
>  <DRUGBANK_ID>
DB01092

>  <SECONDARY_ACCESSION_NUMBERS>
APRD00135

>  <COMMON_NAME>
Ouabain

>  <CAS_NUMBER>
630-60-4

>  <UNII>
5ACL011P69

>  <SYNONYMS>
3-(α-L-rhamnopyranosyloxy)-1β,5β,11α,14,19-pentahydroxy-5β-card-20(22)-enolide; G-Strophanthin; Ouabagenin L-Rhamnoside; Ouabagenin-L-rhamnosid; Ouabain anhydrous; Ouabaine; Oubain

$$$$
