
 OpenBabel10282417072D

 53 56  0  0  1  0  0  0  0  0999 V2000
    7.9191    0.7358    0.0000 O   0  0  0  0  0  0  0  0  0  0  0  0
    9.8546   -0.1650    0.0000 O   0  0  0  0  0  0  0  0  0  0  0  0
    9.8576    1.6299    0.0000 O   0  0  0  0  0  0  0  0  0  0  0  0
    8.7047    2.7996    0.0000 O   0  0  0  0  0  0  0  0  0  0  0  0
    8.1466   -0.7167    0.0000 N   0  0  0  0  0  0  0  0  0  0  0  0
    8.1466   -2.0446    0.0000 N   0  0  0  0  0  0  0  0  0  0  0  0
    6.6515   -0.5556    0.0000 N   0  0  0  0  0  0  0  0  0  0  0  0
    4.5080   -0.9681    0.0000 N   0  0  0  0  0  0  0  0  0  0  0  0
    5.2224   -0.5556    0.0000 N   0  0  0  0  0  0  0  0  0  0  0  0
    5.9370   -1.7931    0.0000 N   0  0  0  0  0  0  0  0  0  0  0  0
    6.6515   -3.0306    0.0000 N   0  0  0  0  0  0  0  0  0  0  0  0
    9.1880    0.3211    0.0000 C   0  0  1  0  0  0  0  0  0  0  0  0
    8.4029    0.0675    0.0000 C   0  0  1  0  0  0  0  0  0  0  0  0
    9.1894    1.1461    0.0000 C   0  0  1  0  0  0  0  0  0  0  0  0
    8.4052    1.4024    0.0000 C   0  0  1  0  0  0  0  0  0  0  0  0
    3.0791   -0.9681    0.0000 C   0  0  0  0  0  0  0  0  0  0  0  0
    2.3645   -0.5556    0.0000 C   0  0  0  0  0  0  0  0  0  0  0  0
    3.0791   -1.7931    0.0000 C   0  0  0  0  0  0  0  0  0  0  0  0
    1.6500   -0.9681    0.0000 C   0  0  0  0  0  0  0  0  0  0  0  0
    2.3645   -2.2056    0.0000 C   0  0  0  0  0  0  0  0  0  0  0  0
    1.6500   -1.7931    0.0000 C   0  0  0  0  0  0  0  0  0  0  0  0
    8.1516    2.1875    0.0000 C   0  0  0  0  0  0  0  0  0  0  0  0
    7.3659   -0.9681    0.0000 C   0  0  0  0  0  0  0  0  0  0  0  0
    8.6280   -1.3806    0.0000 C   0  0  0  0  0  0  0  0  0  0  0  0
    3.7935   -0.5556    0.0000 C   0  0  0  0  0  0  0  0  0  0  0  0
    7.3659   -1.7931    0.0000 C   0  0  0  0  0  0  0  0  0  0  0  0
    6.6515   -2.2056    0.0000 C   0  0  0  0  0  0  0  0  0  0  0  0
    5.9370   -0.9681    0.0000 C   0  0  0  0  0  0  0  0  0  0  0  0
    9.7515   -1.1295    0.0000 H   0  0  0  0  0  0  0  0  0  0  0  0
   10.7431    1.2339    0.0000 H   0  0  0  0  0  0  0  0  0  0  0  0
    9.6531    2.5962    0.0000 H   0  0  0  0  0  0  0  0  0  0  0  0
    5.2223    0.4289    0.0000 H   0  0  0  0  0  0  0  0  0  0  0  0
    5.7989   -3.5229    0.0000 H   0  0  0  0  0  0  0  0  0  0  0  0
    7.5041   -3.5229    0.0000 H   0  0  0  0  0  0  0  0  0  0  0  0
    9.0188   -0.7354    0.0000 H   0  0  0  0  0  0  0  0  0  0  0  0
    7.3458   -0.0981    0.0000 H   0  0  0  0  0  0  0  0  0  0  0  0
   10.1420    0.6587    0.0000 H   0  0  0  0  0  0  0  0  0  0  0  0
    7.3487    1.5716    0.0000 H   0  0  0  0  0  0  0  0  0  0  0  0
    4.0058   -1.5031    0.0000 H   0  0  0  0  0  0  0  0  0  0  0  0
    2.3645    0.5144    0.0000 H   0  0  0  0  0  0  0  0  0  0  0  0
    1.4378   -0.0206    0.0000 H   0  0  0  0  0  0  0  0  0  0  0  0
    4.0057   -2.3281    0.0000 H   0  0  0  0  0  0  0  0  0  0  0  0
    3.0790   -2.8631    0.0000 H   0  0  0  0  0  0  0  0  0  0  0  0
    0.7234   -0.4331    0.0000 H   0  0  0  0  0  0  0  0  0  0  0  0
    0.7234   -1.5031    0.0000 H   0  0  0  0  0  0  0  0  0  0  0  0
    2.3645   -3.2756    0.0000 H   0  0  0  0  0  0  0  0  0  0  0  0
    1.4378   -2.7406    0.0000 H   0  0  0  0  0  0  0  0  0  0  0  0
    0.7234   -2.3281    0.0000 H   0  0  0  0  0  0  0  0  0  0  0  0
    1.6500   -2.8631    0.0000 H   0  0  0  0  0  0  0  0  0  0  0  0
    7.1054    2.4118    0.0000 H   0  0  0  0  0  0  0  0  0  0  0  0
    7.4343    1.3936    0.0000 H   0  0  0  0  0  0  0  0  0  0  0  0
    9.6600   -1.3806    0.0000 H   0  0  0  0  0  0  0  0  0  0  0  0
    3.7935    0.4764    0.0000 H   0  0  0  0  0  0  0  0  0  0  0  0
  1 13  1  0  0  0  0
  1 15  1  0  0  0  0
  2 29  1  0  0  0  0
  3 30  1  0  0  0  0
  4 22  1  0  0  0  0
  4 31  1  0  0  0  0
  5 23  1  0  0  0  0
  5 24  1  0  0  0  0
  6 24  2  0  0  0  0
  6 26  1  0  0  0  0
  7 23  2  0  0  0  0
  7 28  1  0  0  0  0
  8  9  1  0  0  0  0
  8 25  2  0  0  0  0
  9 28  1  0  0  0  0
  9 32  1  0  0  0  0
 10 27  1  0  0  0  0
 10 28  2  0  0  0  0
 11 27  1  0  0  0  0
 11 33  1  0  0  0  0
 11 34  1  0  0  0  0
 12  2  1  0  0  0  0
 12 13  1  0  0  0  0
 12 14  1  0  0  0  0
 12 35  1  6  0  0  0
 13  5  1  0  0  0  0
 13 36  1  1  0  0  0
 14  3  1  0  0  0  0
 14 15  1  0  0  0  0
 14 37  1  6  0  0  0
 15 22  1  0  0  0  0
 15 38  1  1  0  0  0
 16 17  1  0  0  0  0
 16 18  1  0  0  0  0
 16 25  1  0  0  0  0
 16 39  1  0  0  0  0
 17 19  1  0  0  0  0
 17 40  1  0  0  0  0
 17 41  1  0  0  0  0
 18 20  1  0  0  0  0
 18 42  1  0  0  0  0
 18 43  1  0  0  0  0
 19 21  1  0  0  0  0
 19 44  1  0  0  0  0
 19 45  1  0  0  0  0
 20 21  1  0  0  0  0
 20 46  1  0  0  0  0
 20 47  1  0  0  0  0
 21 48  1  0  0  0  0
 21 49  1  0  0  0  0
 22 50  1  0  0  0  0
 22 51  1  0  0  0  0
 23 26  1  0  0  0  0
 24 52  1  0  0  0  0
 25 53  1  0  0  0  0
 26 27  2  0  0  0  0
M  END
>  <DRUGBANK_ID>
DB04853

>  <COMMON_NAME>
Binodenoson

>  <CAS_NUMBER>
144348-08-3

>  <UNII>
LJA4M1L5LG

>  <SYNONYMS>
2-((Cyclohexylmethylene)hydrazino)adenosine; Binodenoson

$$$$
