
 OpenBabel10282417072D

 28 29  0  0  0  0  0  0  0  0999 V2000
    0.7145   -0.4125    0.0000 N   0  0  0  0  0  0  0  0  0  0  0  0
   -0.7145    0.4125    0.0000 C   0  0  0  0  0  0  0  0  0  0  0  0
    0.7145    0.4125    0.0000 C   0  0  1  0  0  0  0  0  0  0  0  0
    0.0000    0.8250    0.0000 C   0  0  0  0  0  0  0  0  0  0  0  0
   -0.7145   -0.4125    0.0000 C   0  0  0  0  0  0  0  0  0  0  0  0
   -1.4991   -0.6674    0.0000 N   0  0  0  0  0  0  0  0  0  0  0  0
   -1.9840    0.0000    0.0000 C   0  0  0  0  0  0  0  0  0  0  0  0
   -1.4991    0.6674    0.0000 C   0  0  0  0  0  0  0  0  0  0  0  0
   -1.8347    1.4211    0.0000 C   0  0  0  0  0  0  0  0  0  0  0  0
   -2.8045    0.0862    0.0000 C   0  0  0  0  0  0  0  0  0  0  0  0
   -3.1401    0.8399    0.0000 C   0  0  0  0  0  0  0  0  0  0  0  0
    1.4289    1.6500    0.0000 O   0  0  0  0  0  0  0  0  0  0  0  0
    1.4289    0.8250    0.0000 C   0  0  0  0  0  0  0  0  0  0  0  0
    2.1434    0.4125    0.0000 O   0  0  0  0  0  0  0  0  0  0  0  0
   -2.6551    1.5074    0.0000 C   0  0  0  0  0  0  0  0  0  0  0  0
   -2.9907    2.2610    0.0000 O   0  0  0  0  0  0  0  0  0  0  0  0
   -0.1688   -0.9225    0.0000 H   0  0  0  0  0  0  0  0  0  0  0  0
    1.5978   -0.9225    0.0000 H   0  0  0  0  0  0  0  0  0  0  0  0
    1.6412   -0.1225    0.0000 H   0  0  0  0  0  0  0  0  0  0  0  0
    0.0000    1.8950    0.0000 H   0  0  0  0  0  0  0  0  0  0  0  0
    0.9266    1.3600    0.0000 H   0  0  0  0  0  0  0  0  0  0  0  0
    0.1204   -1.0191    0.0000 H   0  0  0  0  0  0  0  0  0  0  0  0
   -1.8033   -1.6037    0.0000 H   0  0  0  0  0  0  0  0  0  0  0  0
   -1.2281    2.2560    0.0000 H   0  0  0  0  0  0  0  0  0  0  0  0
   -3.4111   -0.7487    0.0000 H   0  0  0  0  0  0  0  0  0  0  0  0
   -4.1664    0.9478    0.0000 H   0  0  0  0  0  0  0  0  0  0  0  0
    2.1434   -0.5245    0.0000 H   0  0  0  0  0  0  0  0  0  0  0  0
   -2.4400    3.0191    0.0000 H   0  0  0  0  0  0  0  0  0  0  0  0
  1 17  1  0  0  0  0
  1 18  1  0  0  0  0
  2  8  1  0  0  0  0
  2  4  1  0  0  0  0
  2  5  2  0  0  0  0
  3  1  1  0  0  0  0
  3 13  1  0  0  0  0
  3 19  1  6  0  0  0
  4  3  1  0  0  0  0
  4 20  1  0  0  0  0
  4 21  1  0  0  0  0
  5  6  1  0  0  0  0
  5 22  1  0  0  0  0
  6  7  1  0  0  0  0
  6 23  1  0  0  0  0
  7  8  2  0  0  0  0
  7 10  1  0  0  0  0
  8  9  1  0  0  0  0
  9 15  2  0  0  0  0
  9 24  1  0  0  0  0
 10 11  2  0  0  0  0
 10 25  1  0  0  0  0
 11 15  1  0  0  0  0
 11 26  1  0  0  0  0
 13 12  2  0  0  0  0
 14 13  1  0  0  0  0
 14 27  1  0  0  0  0
 15 16  1  0  0  0  0
 16 28  1  0  0  0  0
M  END
>  <DRUGBANK_ID>
DB02959

>  <SECONDARY_ACCESSION_NUMBERS>
EXPT01780

>  <COMMON_NAME>
Oxitriptan

>  <CAS_NUMBER>
4350-09-8

>  <UNII>
C1LJO185Q9

>  <SYNONYMS>
5-hydroxy-L-tryptophan; 5-hydroxytryptophan L-form; L-5 Hydroxytrytophan; L-5-HTP; L-5-hydroxytryptophan; Oxitriptan; Oxitriptano; Oxitriptanum

$$$$
