
 OpenBabel10282417072D

 71 72  0  0  0  0  0  0  0  0999 V2000
   -2.5286   -1.9187    0.0000 C   0  0  0  0  0  0  0  0  0  0  0  0
   -2.5286   -2.7437    0.0000 C   0  0  2  0  0  0  0  0  0  0  0  0
   -1.8041   -3.1562    0.0000 C   0  0  0  0  0  0  0  0  0  0  0  0
   -1.8041   -1.5061    0.0000 C   0  0  1  0  0  0  0  0  0  0  0  0
   -1.0898   -1.9187    0.0000 C   0  0  1  0  0  0  0  0  0  0  0  0
   -1.0898   -2.7437    0.0000 C   0  0  0  0  0  0  0  0  0  0  0  0
   -0.3754   -3.1562    0.0000 C   0  0  0  0  0  0  0  0  0  0  0  0
    0.3389   -2.7437    0.0000 C   0  0  0  0  0  0  0  0  0  0  0  0
    0.3389   -1.9187    0.0000 C   0  0  2  0  0  0  0  0  0  0  0  0
    0.9115   -1.5880    0.0000 C   0  0  0  0  0  0  0  0  0  0  0  0
   -1.0898   -1.3676    0.0000 H   0  0  0  0  0  0  0  0  0  0  0  0
   -3.1003   -3.0760    0.0000 C   0  0  0  0  0  0  0  0  0  0  0  0
   -1.8010   -0.6791    0.0000 O   0  0  0  0  0  0  0  0  0  0  0  0
   -2.5153   -0.2624    0.0000 C   0  0  0  0  0  0  0  0  0  0  0  0
   -3.0893   -0.5906    0.0000 O   0  0  0  0  0  0  0  0  0  0  0  0
   -2.5121    0.5645    0.0000 C   0  0  0  0  0  0  0  0  0  0  0  0
   -3.2264    0.9812    0.0000 C   0  0  0  0  0  0  0  0  0  0  0  0
   -2.5092    1.2257    0.0000 C   0  0  0  0  0  0  0  0  0  0  0  0
   -1.9381    0.8928    0.0000 C   0  0  0  0  0  0  0  0  0  0  0  0
   -3.2239    1.6425    0.0000 C   0  0  0  0  0  0  0  0  0  0  0  0
    0.3408   -1.1158    0.0000 C   0  0  0  0  0  0  0  0  0  0  0  0
    0.3819   -0.2898    0.0000 C   0  0  0  0  0  0  0  0  0  0  0  0
    1.6731   -0.2703    0.0000 O   0  0  0  0  0  0  0  0  0  0  0  0
    1.9352    2.1179    0.0000 C   0  0  0  0  0  0  0  0  0  0  0  0
    1.8941    1.2919    0.0000 C   0  0  1  0  0  0  0  0  0  0  0  0
    1.1585    0.9140    0.0000 C   0  0  0  0  0  0  0  0  0  0  0  0
    2.6708    2.4958    0.0000 C   0  0  0  0  0  0  0  0  0  0  0  0
    3.2264    2.1373    0.0000 O   0  0  0  0  0  0  0  0  0  0  0  0
    2.7036    3.1562    0.0000 O   0  0  0  0  0  0  0  0  0  0  0  0
    2.4498    0.9335    0.0000 O   0  0  0  0  0  0  0  0  0  0  0  0
    1.1174    0.0880    0.0000 C   0  0  1  0  0  0  0  0  0  0  0  0
   -0.3754   -1.5061    0.0000 C   0  0  2  0  0  0  0  0  0  0  0  0
    0.6544    0.3867    0.0000 H   0  0  0  0  0  0  0  0  0  0  0  0
   -0.3619   -2.0570    0.0000 H   0  0  0  0  0  0  0  0  0  0  0  0
   -3.4537   -1.3810    0.0000 H   0  0  0  0  0  0  0  0  0  0  0  0
   -2.5239   -0.8487    0.0000 H   0  0  0  0  0  0  0  0  0  0  0  0
   -3.4560   -2.2101    0.0000 H   0  0  0  0  0  0  0  0  0  0  0  0
   -1.8009   -4.1882    0.0000 H   0  0  0  0  0  0  0  0  0  0  0  0
   -2.7282   -0.9666    0.0000 H   0  0  0  0  0  0  0  0  0  0  0  0
   -0.3754   -4.1882    0.0000 H   0  0  0  0  0  0  0  0  0  0  0  0
    1.2327   -3.2597    0.0000 H   0  0  0  0  0  0  0  0  0  0  0  0
    1.2656   -2.4536    0.0000 H   0  0  0  0  0  0  0  0  0  0  0  0
    1.8382   -2.1229    0.0000 H   0  0  0  0  0  0  0  0  0  0  0  0
    0.9113   -0.5180    0.0000 H   0  0  0  0  0  0  0  0  0  0  0  0
    1.8381   -1.0529    0.0000 H   0  0  0  0  0  0  0  0  0  0  0  0
   -4.0285   -2.5437    0.0000 H   0  0  0  0  0  0  0  0  0  0  0  0
   -3.0972   -4.1460    0.0000 H   0  0  0  0  0  0  0  0  0  0  0  0
   -4.0254   -3.6137    0.0000 H   0  0  0  0  0  0  0  0  0  0  0  0
   -4.1553    0.4500    0.0000 H   0  0  0  0  0  0  0  0  0  0  0  0
   -4.1509    1.5199    0.0000 H   0  0  0  0  0  0  0  0  0  0  0  0
   -1.5802    1.7566    0.0000 H   0  0  0  0  0  0  0  0  0  0  0  0
   -3.4335    1.7648    0.0000 H   0  0  0  0  0  0  0  0  0  0  0  0
   -2.5045    2.2957    0.0000 H   0  0  0  0  0  0  0  0  0  0  0  0
   -1.0136    0.3540    0.0000 H   0  0  0  0  0  0  0  0  0  0  0  0
   -1.9338    1.9628    0.0000 H   0  0  0  0  0  0  0  0  0  0  0  0
   -1.0093    1.4240    0.0000 H   0  0  0  0  0  0  0  0  0  0  0  0
   -2.2952    2.1740    0.0000 H   0  0  0  0  0  0  0  0  0  0  0  0
   -4.1485    2.1810    0.0000 H   0  0  0  0  0  0  0  0  0  0  0  0
   -3.2199    2.7125    0.0000 H   0  0  0  0  0  0  0  0  0  0  0  0
    1.2469   -1.6849    0.0000 H   0  0  0  0  0  0  0  0  0  0  0  0
    1.2898   -0.6216    0.0000 H   0  0  0  0  0  0  0  0  0  0  0  0
   -0.5172    0.2903    0.0000 H   0  0  0  0  0  0  0  0  0  0  0  0
    0.4346    0.7789    0.0000 H   0  0  0  0  0  0  0  0  0  0  0  0
    1.6255   -1.2391    0.0000 H   0  0  0  0  0  0  0  0  0  0  0  0
    1.0361    2.6980    0.0000 H   0  0  0  0  0  0  0  0  0  0  0  0
    1.9878    3.1866    0.0000 H   0  0  0  0  0  0  0  0  0  0  0  0
    2.8461    1.7804    0.0000 H   0  0  0  0  0  0  0  0  0  0  0  0
    0.2594    1.4941    0.0000 H   0  0  0  0  0  0  0  0  0  0  0  0
    1.2111    1.9827    0.0000 H   0  0  0  0  0  0  0  0  0  0  0  0
    3.1801    1.2014    0.0000 H   0  0  0  0  0  0  0  0  0  0  0  0
    2.4021   -0.0353    0.0000 H   0  0  0  0  0  0  0  0  0  0  0  0
  1  2  1  0  0  0  0
  1  4  1  0  0  0  0
  1 35  1  0  0  0  0
  1 36  1  0  0  0  0
  2  3  1  0  0  0  0
  2 12  1  0  0  0  0
  2 37  1  1  0  0  0
  3  6  2  0  0  0  0
  3 38  1  0  0  0  0
  4 13  1  0  0  0  0
  4 39  1  1  0  0  0
  5  4  1  0  0  0  0
  5  6  1  0  0  0  0
  5 32  1  0  0  0  0
  5 11  1  1  0  0  0
  6  7  1  0  0  0  0
  7  8  2  0  0  0  0
  7 40  1  0  0  0  0
  8  9  1  0  0  0  0
  8 41  1  0  0  0  0
  9 32  1  0  0  0  0
  9 10  1  0  0  0  0
  9 42  1  6  0  0  0
 10 43  1  0  0  0  0
 10 44  1  0  0  0  0
 10 45  1  0  0  0  0
 12 46  1  0  0  0  0
 12 47  1  0  0  0  0
 12 48  1  0  0  0  0
 13 14  1  0  0  0  0
 14 15  2  0  0  0  0
 14 16  1  0  0  0  0
 16 17  1  0  0  0  0
 16 18  1  0  0  0  0
 16 19  1  0  0  0  0
 17 20  1  0  0  0  0
 17 49  1  0  0  0  0
 17 50  1  0  0  0  0
 18 51  1  0  0  0  0
 18 52  1  0  0  0  0
 18 53  1  0  0  0  0
 19 54  1  0  0  0  0
 19 55  1  0  0  0  0
 19 56  1  0  0  0  0
 20 57  1  0  0  0  0
 20 58  1  0  0  0  0
 20 59  1  0  0  0  0
 21 22  1  0  0  0  0
 21 60  1  0  0  0  0
 21 61  1  0  0  0  0
 22 62  1  0  0  0  0
 22 63  1  0  0  0  0
 23 64  1  0  0  0  0
 24 25  1  0  0  0  0
 24 27  1  0  0  0  0
 24 65  1  0  0  0  0
 24 66  1  0  0  0  0
 25 26  1  0  0  0  0
 25 30  1  0  0  0  0
 25 67  1  1  0  0  0
 26 68  1  0  0  0  0
 26 69  1  0  0  0  0
 27 28  1  0  0  0  0
 27 29  2  0  0  0  0
 28 70  1  0  0  0  0
 30 71  1  0  0  0  0
 31 22  1  0  0  0  0
 31 23  1  0  0  0  0
 31 26  1  0  0  0  0
 31 33  1  1  0  0  0
 32 21  1  0  0  0  0
 32 34  1  6  0  0  0
M  END
>  <DRUGBANK_ID>
DB14714

>  <COMMON_NAME>
Tenivastatin

>  <CAS_NUMBER>
121009-77-6

>  <UNII>
9L6M5TH46B

>  <SYNONYMS>
Tenivastatin

$$$$
