
 OpenBabel10282417072D

153153  0  0  1  0  0  0  0  0999 V2000
   11.6529    6.1652    0.0000 O   0  0  0  0  0  0  0  0  0  0  0  0
   12.5620    6.8257    0.0000 O   0  0  0  0  0  0  0  0  0  0  0  0
    8.7949    5.3402    0.0000 O   0  0  0  0  0  0  0  0  0  0  0  0
    9.5094    2.4526    0.0000 O   0  0  0  0  0  0  0  0  0  0  0  0
    8.0804   -0.8475    0.0000 O   0  0  0  0  0  0  0  0  0  0  0  0
    7.3659   -1.2600    0.0000 O   0  0  0  0  0  0  0  0  0  0  0  0
    6.6515    1.6276    0.0000 O   0  0  0  0  0  0  0  0  0  0  0  0
    4.5080   -2.0850    0.0000 O   0  0  0  0  0  0  0  0  0  0  0  0
    5.2224   -4.9725    0.0000 O   0  0  0  0  0  0  0  0  0  0  0  0
    2.3645   -5.7976    0.0000 O   0  0  0  0  0  0  0  0  0  0  0  0
    3.0791   -8.6851    0.0000 O   0  0  0  0  0  0  0  0  0  0  0  0
   10.9383    7.4027    0.0000 N   0  0  0  0  0  0  0  0  0  0  0  0
   10.2239    5.3402    0.0000 N   0  0  0  0  0  0  0  0  0  0  0  0
   13.0035    8.1848    0.0000 N   0  0  0  0  0  0  0  0  0  0  0  0
    8.7949    3.6901    0.0000 N   0  0  0  0  0  0  0  0  0  0  0  0
    8.0804    1.6276    0.0000 N   0  0  0  0  0  0  0  0  0  0  0  0
    5.9370   -2.0850    0.0000 N   0  0  0  0  0  0  0  0  0  0  0  0
    6.6515   -0.0224    0.0000 N   0  0  0  0  0  0  0  0  0  0  0  0
    7.3659    6.1652    0.0000 N   0  0  0  0  0  0  0  0  0  0  0  0
    4.5080   -3.7350    0.0000 N   0  0  0  0  0  0  0  0  0  0  0  0
    6.6515    7.4027    0.0000 N   0  0  0  0  0  0  0  0  0  0  0  0
    5.9370    6.1652    0.0000 N   0  0  0  0  0  0  0  0  0  0  0  0
    3.7935   -5.7976    0.0000 N   0  0  0  0  0  0  0  0  0  0  0  0
    2.3645   -7.4476    0.0000 N   0  0  0  0  0  0  0  0  0  0  0  0
   11.6058    7.8877    0.0000 C   0  0  1  0  0  0  0  0  0  0  0  0
   11.3508    8.6723    0.0000 C   0  0  0  0  0  0  0  0  0  0  0  0
   10.5258    8.6723    0.0000 C   0  0  0  0  0  0  0  0  0  0  0  0
   10.2709    7.8877    0.0000 C   0  0  0  0  0  0  0  0  0  0  0  0
   10.9383    6.5777    0.0000 C   0  0  0  0  0  0  0  0  0  0  0  0
   10.2239    6.1652    0.0000 C   0  0  2  0  0  0  0  0  0  0  0  0
   12.3905    7.6327    0.0000 C   0  0  0  0  0  0  0  0  0  0  0  0
    9.5094    6.5777    0.0000 C   0  0  0  0  0  0  0  0  0  0  0  0
    9.5094    4.1027    0.0000 C   0  0  1  0  0  0  0  0  0  0  0  0
   10.2239    3.6901    0.0000 C   0  0  2  0  0  0  0  0  0  0  0  0
    8.7949    6.1652    0.0000 C   0  0  0  0  0  0  0  0  0  0  0  0
    9.5094    4.9277    0.0000 C   0  0  0  0  0  0  0  0  0  0  0  0
   10.2239    2.8651    0.0000 C   0  0  0  0  0  0  0  0  0  0  0  0
   13.7882    7.9298    0.0000 C   0  0  0  0  0  0  0  0  0  0  0  0
   10.9383    4.1027    0.0000 C   0  0  0  0  0  0  0  0  0  0  0  0
    8.0804    6.5777    0.0000 C   0  0  0  0  0  0  0  0  0  0  0  0
    8.0804    2.4526    0.0000 C   0  0  2  0  0  0  0  0  0  0  0  0
    8.7949    2.8651    0.0000 C   0  0  0  0  0  0  0  0  0  0  0  0
    5.9370   -1.2600    0.0000 C   0  0  2  0  0  0  0  0  0  0  0  0
    5.2224   -0.8475    0.0000 C   0  0  2  0  0  0  0  0  0  0  0  0
   10.9383    2.4526    0.0000 C   0  0  0  0  0  0  0  0  0  0  0  0
    7.3659    2.8651    0.0000 C   0  0  0  0  0  0  0  0  0  0  0  0
    7.3659    0.3901    0.0000 C   0  0  2  0  0  0  0  0  0  0  0  0
   14.4013    8.4818    0.0000 C   0  0  0  0  0  0  0  0  0  0  0  0
    4.5080   -1.2600    0.0000 C   0  0  0  0  0  0  0  0  0  0  0  0
    6.6515   -0.8475    0.0000 C   0  0  0  0  0  0  0  0  0  0  0  0
    7.3659    1.2151    0.0000 C   0  0  0  0  0  0  0  0  0  0  0  0
    6.6515    2.4526    0.0000 C   0  0  0  0  0  0  0  0  0  0  0  0
    5.2224   -3.3225    0.0000 C   0  0  1  0  0  0  0  0  0  0  0  0
    5.2224   -0.0224    0.0000 C   0  0  0  0  0  0  0  0  0  0  0  0
    8.0804   -0.0224    0.0000 C   0  0  1  0  0  0  0  0  0  0  0  0
    5.9370   -3.7350    0.0000 C   0  0  0  0  0  0  0  0  0  0  0  0
    5.2224   -2.4975    0.0000 C   0  0  0  0  0  0  0  0  0  0  0  0
    3.7935   -0.8475    0.0000 C   0  0  0  0  0  0  0  0  0  0  0  0
    5.9370    2.8651    0.0000 C   0  0  0  0  0  0  0  0  0  0  0  0
    8.7949    0.3901    0.0000 C   0  0  0  0  0  0  0  0  0  0  0  0
    5.9370   -4.5600    0.0000 C   0  0  0  0  0  0  0  0  0  0  0  0
    6.6515   -3.3225    0.0000 C   0  0  0  0  0  0  0  0  0  0  0  0
    6.6515    6.5777    0.0000 C   0  0  0  0  0  0  0  0  0  0  0  0
    4.5080   -4.5600    0.0000 C   0  0  0  0  0  0  0  0  0  0  0  0
    3.7935   -4.9725    0.0000 C   0  0  0  0  0  0  0  0  0  0  0  0
    3.0791   -6.2101    0.0000 C   0  0  0  0  0  0  0  0  0  0  0  0
    3.0791   -7.0351    0.0000 C   0  0  0  0  0  0  0  0  0  0  0  0
    1.6500   -7.0351    0.0000 C   0  0  0  0  0  0  0  0  0  0  0  0
    2.3645   -8.2726    0.0000 C   0  0  0  0  0  0  0  0  0  0  0  0
    1.6500   -8.6851    0.0000 C   0  0  0  0  0  0  0  0  0  0  0  0
    7.2404   -1.3325    0.0000 H   0  0  0  0  0  0  0  0  0  0  0  0
   11.0765    4.8479    0.0000 H   0  0  0  0  0  0  0  0  0  0  0  0
   12.7988    9.1478    0.0000 H   0  0  0  0  0  0  0  0  0  0  0  0
    7.9423    4.1823    0.0000 H   0  0  0  0  0  0  0  0  0  0  0  0
    8.9330    1.1353    0.0000 H   0  0  0  0  0  0  0  0  0  0  0  0
    6.7896   -2.5773    0.0000 H   0  0  0  0  0  0  0  0  0  0  0  0
    5.7989    0.4698    0.0000 H   0  0  0  0  0  0  0  0  0  0  0  0
    3.6554   -3.2428    0.0000 H   0  0  0  0  0  0  0  0  0  0  0  0
    7.5041    7.8950    0.0000 H   0  0  0  0  0  0  0  0  0  0  0  0
    5.7989    7.8950    0.0000 H   0  0  0  0  0  0  0  0  0  0  0  0
    5.0844    6.6575    0.0000 H   0  0  0  0  0  0  0  0  0  0  0  0
    5.9370    5.1807    0.0000 H   0  0  0  0  0  0  0  0  0  0  0  0
    4.6461   -6.2898    0.0000 H   0  0  0  0  0  0  0  0  0  0  0  0
   11.7732    6.8309    0.0000 H   0  0  0  0  0  0  0  0  0  0  0  0
   11.9797    9.5380    0.0000 H   0  0  0  0  0  0  0  0  0  0  0  0
   10.8650    9.6257    0.0000 H   0  0  0  0  0  0  0  0  0  0  0  0
    9.8969    9.5379    0.0000 H   0  0  0  0  0  0  0  0  0  0  0  0
    9.4690    8.5049    0.0000 H   0  0  0  0  0  0  0  0  0  0  0  0
    9.2533    7.5571    0.0000 H   0  0  0  0  0  0  0  0  0  0  0  0
    9.5143    8.6443    0.0000 H   0  0  0  0  0  0  0  0  0  0  0  0
   11.1506    5.6302    0.0000 H   0  0  0  0  0  0  0  0  0  0  0  0
    9.5094    7.6477    0.0000 H   0  0  0  0  0  0  0  0  0  0  0  0
    8.5828    7.1127    0.0000 H   0  0  0  0  0  0  0  0  0  0  0  0
    9.5094    3.0327    0.0000 H   0  0  0  0  0  0  0  0  0  0  0  0
   10.2239    4.7601    0.0000 H   0  0  0  0  0  0  0  0  0  0  0  0
    8.7949    5.0952    0.0000 H   0  0  0  0  0  0  0  0  0  0  0  0
    7.8683    5.6302    0.0000 H   0  0  0  0  0  0  0  0  0  0  0  0
    9.2972    2.3301    0.0000 H   0  0  0  0  0  0  0  0  0  0  0  0
   10.2239    1.7951    0.0000 H   0  0  0  0  0  0  0  0  0  0  0  0
   14.0106    6.8832    0.0000 H   0  0  0  0  0  0  0  0  0  0  0  0
   14.8058    7.5991    0.0000 H   0  0  0  0  0  0  0  0  0  0  0  0
   11.8650    3.5678    0.0000 H   0  0  0  0  0  0  0  0  0  0  0  0
   10.9381    5.1727    0.0000 H   0  0  0  0  0  0  0  0  0  0  0  0
   11.8649    4.6378    0.0000 H   0  0  0  0  0  0  0  0  0  0  0  0
    8.0804    7.6477    0.0000 H   0  0  0  0  0  0  0  0  0  0  0  0
    9.0070    7.1127    0.0000 H   0  0  0  0  0  0  0  0  0  0  0  0
    9.0070    1.9176    0.0000 H   0  0  0  0  0  0  0  0  0  0  0  0
    5.0104   -1.7950    0.0000 H   0  0  0  0  0  0  0  0  0  0  0  0
    6.1490   -0.3125    0.0000 H   0  0  0  0  0  0  0  0  0  0  0  0
   10.9383    1.3826    0.0000 H   0  0  0  0  0  0  0  0  0  0  0  0
   11.8650    2.9876    0.0000 H   0  0  0  0  0  0  0  0  0  0  0  0
   11.8649    1.9176    0.0000 H   0  0  0  0  0  0  0  0  0  0  0  0
    7.3659    3.9351    0.0000 H   0  0  0  0  0  0  0  0  0  0  0  0
    6.4392    3.4001    0.0000 H   0  0  0  0  0  0  0  0  0  0  0  0
    6.4392    0.9251    0.0000 H   0  0  0  0  0  0  0  0  0  0  0  0
   15.4189    8.1511    0.0000 H   0  0  0  0  0  0  0  0  0  0  0  0
   14.1789    9.5284    0.0000 H   0  0  0  0  0  0  0  0  0  0  0  0
   15.1965    9.1977    0.0000 H   0  0  0  0  0  0  0  0  0  0  0  0
    4.5080   -2.3300    0.0000 H   0  0  0  0  0  0  0  0  0  0  0  0
    3.5814   -1.7950    0.0000 H   0  0  0  0  0  0  0  0  0  0  0  0
    6.6515    1.3826    0.0000 H   0  0  0  0  0  0  0  0  0  0  0  0
    5.7249    1.9176    0.0000 H   0  0  0  0  0  0  0  0  0  0  0  0
    5.2225   -4.3925    0.0000 H   0  0  0  0  0  0  0  0  0  0  0  0
    6.1490    0.5126    0.0000 H   0  0  0  0  0  0  0  0  0  0  0  0
    4.2958    0.5126    0.0000 H   0  0  0  0  0  0  0  0  0  0  0  0
    5.2224    1.0476    0.0000 H   0  0  0  0  0  0  0  0  0  0  0  0
    7.1538   -0.5574    0.0000 H   0  0  0  0  0  0  0  0  0  0  0  0
    6.8636   -4.2700    0.0000 H   0  0  0  0  0  0  0  0  0  0  0  0
    3.7935    0.2225    0.0000 H   0  0  0  0  0  0  0  0  0  0  0  0
    2.8669   -1.3825    0.0000 H   0  0  0  0  0  0  0  0  0  0  0  0
    2.8668   -0.3125    0.0000 H   0  0  0  0  0  0  0  0  0  0  0  0
    5.9370    3.9351    0.0000 H   0  0  0  0  0  0  0  0  0  0  0  0
    5.0104    2.3301    0.0000 H   0  0  0  0  0  0  0  0  0  0  0  0
    5.0103    3.4001    0.0000 H   0  0  0  0  0  0  0  0  0  0  0  0
    9.7215   -0.1449    0.0000 H   0  0  0  0  0  0  0  0  0  0  0  0
    8.7949    1.4601    0.0000 H   0  0  0  0  0  0  0  0  0  0  0  0
    9.7216    0.9251    0.0000 H   0  0  0  0  0  0  0  0  0  0  0  0
    5.0104   -5.0950    0.0000 H   0  0  0  0  0  0  0  0  0  0  0  0
    6.8636   -5.0950    0.0000 H   0  0  0  0  0  0  0  0  0  0  0  0
    5.9370   -5.6300    0.0000 H   0  0  0  0  0  0  0  0  0  0  0  0
    7.5781   -3.8575    0.0000 H   0  0  0  0  0  0  0  0  0  0  0  0
    6.6515   -2.2525    0.0000 H   0  0  0  0  0  0  0  0  0  0  0  0
    7.5782   -2.7875    0.0000 H   0  0  0  0  0  0  0  0  0  0  0  0
    2.8669   -4.4375    0.0000 H   0  0  0  0  0  0  0  0  0  0  0  0
    3.7935   -3.9025    0.0000 H   0  0  0  0  0  0  0  0  0  0  0  0
    4.0057   -7.5701    0.0000 H   0  0  0  0  0  0  0  0  0  0  0  0
    4.0058   -6.5001    0.0000 H   0  0  0  0  0  0  0  0  0  0  0  0
    1.6500   -5.9651    0.0000 H   0  0  0  0  0  0  0  0  0  0  0  0
    0.7234   -7.5701    0.0000 H   0  0  0  0  0  0  0  0  0  0  0  0
    0.7233   -6.5001    0.0000 H   0  0  0  0  0  0  0  0  0  0  0  0
    0.7234   -8.1501    0.0000 H   0  0  0  0  0  0  0  0  0  0  0  0
    1.6500   -9.7551    0.0000 H   0  0  0  0  0  0  0  0  0  0  0  0
    0.7233   -9.2201    0.0000 H   0  0  0  0  0  0  0  0  0  0  0  0
  1 29  2  0  0  0  0
  2 31  2  0  0  0  0
  3 36  2  0  0  0  0
  4 42  2  0  0  0  0
  5 71  1  0  0  0  0
  6 50  2  0  0  0  0
  7 51  2  0  0  0  0
  8 57  2  0  0  0  0
  9 64  2  0  0  0  0
 10 66  2  0  0  0  0
 11 69  2  0  0  0  0
 12 25  1  0  0  0  0
 12 28  1  0  0  0  0
 12 29  1  0  0  0  0
 13 36  1  0  0  0  0
 13 72  1  0  0  0  0
 14 31  1  0  0  0  0
 14 38  1  0  0  0  0
 14 73  1  0  0  0  0
 15 42  1  0  0  0  0
 15 74  1  0  0  0  0
 16 51  1  0  0  0  0
 16 75  1  0  0  0  0
 17 57  1  0  0  0  0
 17 76  1  0  0  0  0
 18 50  1  0  0  0  0
 18 77  1  0  0  0  0
 19 40  1  0  0  0  0
 19 63  2  0  0  0  0
 20 64  1  0  0  0  0
 20 78  1  0  0  0  0
 21 63  1  0  0  0  0
 21 79  1  0  0  0  0
 21 80  1  0  0  0  0
 22 63  1  0  0  0  0
 22 81  1  0  0  0  0
 22 82  1  0  0  0  0
 23 65  1  0  0  0  0
 23 66  1  0  0  0  0
 23 83  1  0  0  0  0
 24 67  1  0  0  0  0
 24 68  1  0  0  0  0
 24 69  1  0  0  0  0
 25 26  1  0  0  0  0
 25 31  1  0  0  0  0
 25 84  1  6  0  0  0
 26 27  1  0  0  0  0
 26 85  1  0  0  0  0
 26 86  1  0  0  0  0
 27 28  1  0  0  0  0
 27 87  1  0  0  0  0
 27 88  1  0  0  0  0
 28 89  1  0  0  0  0
 28 90  1  0  0  0  0
 29 30  1  0  0  0  0
 30 13  1  0  0  0  0
 30 32  1  0  0  0  0
 30 91  1  6  0  0  0
 32 35  1  0  0  0  0
 32 92  1  0  0  0  0
 32 93  1  0  0  0  0
 33 15  1  0  0  0  0
 33 34  1  0  0  0  0
 33 36  1  0  0  0  0
 33 94  1  1  0  0  0
 34 37  1  0  0  0  0
 34 39  1  0  0  0  0
 34 95  1  6  0  0  0
 35 40  1  0  0  0  0
 35 96  1  0  0  0  0
 35 97  1  0  0  0  0
 37 45  1  0  0  0  0
 37 98  1  0  0  0  0
 37 99  1  0  0  0  0
 38 48  1  0  0  0  0
 38100  1  0  0  0  0
 38101  1  0  0  0  0
 39102  1  0  0  0  0
 39103  1  0  0  0  0
 39104  1  0  0  0  0
 40105  1  0  0  0  0
 40106  1  0  0  0  0
 41 16  1  0  0  0  0
 41 42  1  0  0  0  0
 41 46  1  0  0  0  0
 41107  1  6  0  0  0
 43 17  1  0  0  0  0
 43 44  1  0  0  0  0
 43 50  1  0  0  0  0
 43108  1  1  0  0  0
 44 49  1  0  0  0  0
 44 54  1  0  0  0  0
 44109  1  1  0  0  0
 45110  1  0  0  0  0
 45111  1  0  0  0  0
 45112  1  0  0  0  0
 46 52  1  0  0  0  0
 46113  1  0  0  0  0
 46114  1  0  0  0  0
 47 18  1  0  0  0  0
 47 51  1  0  0  0  0
 47 55  1  0  0  0  0
 47115  1  1  0  0  0
 48116  1  0  0  0  0
 48117  1  0  0  0  0
 48118  1  0  0  0  0
 49 58  1  0  0  0  0
 49119  1  0  0  0  0
 49120  1  0  0  0  0
 52 59  1  0  0  0  0
 52121  1  0  0  0  0
 52122  1  0  0  0  0
 53 20  1  0  0  0  0
 53 56  1  0  0  0  0
 53 57  1  0  0  0  0
 53123  1  1  0  0  0
 54124  1  0  0  0  0
 54125  1  0  0  0  0
 54126  1  0  0  0  0
 55  5  1  0  0  0  0
 55 60  1  0  0  0  0
 55127  1  6  0  0  0
 56 61  1  0  0  0  0
 56 62  1  0  0  0  0
 56128  1  0  0  0  0
 58129  1  0  0  0  0
 58130  1  0  0  0  0
 58131  1  0  0  0  0
 59132  1  0  0  0  0
 59133  1  0  0  0  0
 59134  1  0  0  0  0
 60135  1  0  0  0  0
 60136  1  0  0  0  0
 60137  1  0  0  0  0
 61138  1  0  0  0  0
 61139  1  0  0  0  0
 61140  1  0  0  0  0
 62141  1  0  0  0  0
 62142  1  0  0  0  0
 62143  1  0  0  0  0
 64 65  1  0  0  0  0
 65144  1  0  0  0  0
 65145  1  0  0  0  0
 66 67  1  0  0  0  0
 67146  1  0  0  0  0
 67147  1  0  0  0  0
 68148  1  0  0  0  0
 68149  1  0  0  0  0
 68150  1  0  0  0  0
 69 70  1  0  0  0  0
 70151  1  0  0  0  0
 70152  1  0  0  0  0
 70153  1  0  0  0  0
M  END
>  <DRUGBANK_ID>
DB05434

>  <COMMON_NAME>
ABT-510

>  <CAS_NUMBER>
251579-55-2

>  <UNII>
CRR8E37XOB

$$$$
