
 OpenBabel10282417072D

 22 21  0  0  0  0  0  0  0  0999 V2000
   -1.4263    0.2226    0.0000 C   0  0  0  0  0  0  0  0  0  0  0  0
   -0.7171   -0.1988    0.0000 C   0  0  1  0  0  0  0  0  0  0  0  0
    0.0027    0.2106    0.0000 C   0  0  2  0  0  0  0  0  0  0  0  0
    0.7119   -0.2106    0.0000 C   0  0  2  0  0  0  0  0  0  0  0  0
   -2.1463   -0.1868    0.0000 O   0  0  0  0  0  0  0  0  0  0  0  0
   -0.7171   -1.0238    0.0000 O   0  0  0  0  0  0  0  0  0  0  0  0
    0.0027    1.0356    0.0000 O   0  0  0  0  0  0  0  0  0  0  0  0
    0.7119   -1.0356    0.0000 O   0  0  0  0  0  0  0  0  0  0  0  0
    1.4318    0.1988    0.0000 C   0  0  0  0  0  0  0  0  0  0  0  0
    2.1463   -0.2136    0.0000 O   0  0  0  0  0  0  0  0  0  0  0  0
   -1.4161    1.2926    0.0000 H   0  0  0  0  0  0  0  0  0  0  0  0
   -0.4938    0.7473    0.0000 H   0  0  0  0  0  0  0  0  0  0  0  0
   -1.6471   -0.7280    0.0000 H   0  0  0  0  0  0  0  0  0  0  0  0
   -0.9222    0.7486    0.0000 H   0  0  0  0  0  0  0  0  0  0  0  0
   -0.2180   -0.7399    0.0000 H   0  0  0  0  0  0  0  0  0  0  0  0
   -2.9831    0.3037    0.0000 H   0  0  0  0  0  0  0  0  0  0  0  0
   -1.5571   -1.5088    0.0000 H   0  0  0  0  0  0  0  0  0  0  0  0
    0.8427    1.5206    0.0000 H   0  0  0  0  0  0  0  0  0  0  0  0
   -0.1281   -1.5206    0.0000 H   0  0  0  0  0  0  0  0  0  0  0  0
    1.4352    1.2688    0.0000 H   0  0  0  0  0  0  0  0  0  0  0  0
    2.3593    0.7324    0.0000 H   0  0  0  0  0  0  0  0  0  0  0  0
    2.1464   -1.1836    0.0000 H   0  0  0  0  0  0  0  0  0  0  0  0
  1 11  1  0  0  0  0
  1 12  1  0  0  0  0
  2  1  1  0  0  0  0
  2  6  1  0  0  0  0
  2 13  1  6  0  0  0
  3  2  1  0  0  0  0
  3  7  1  0  0  0  0
  3 14  1  6  0  0  0
  4  3  1  0  0  0  0
  4  8  1  0  0  0  0
  4 15  1  6  0  0  0
  5  1  1  0  0  0  0
  5 16  1  0  0  0  0
  6 17  1  0  0  0  0
  7 18  1  0  0  0  0
  8 19  1  0  0  0  0
  9  4  1  0  0  0  0
  9 10  1  0  0  0  0
  9 20  1  0  0  0  0
  9 21  1  0  0  0  0
 10 22  1  0  0  0  0
M  END
>  <DRUGBANK_ID>
DB11195

>  <SECONDARY_ACCESSION_NUMBERS>
EXPT03268; DB01904

>  <COMMON_NAME>
Xylitol

>  <CAS_NUMBER>
87-99-0

>  <UNII>
VCQ006KQ1E

>  <SYNONYMS>
D-Xylitol; Xylitol

$$$$
