
 OpenBabel10282417072D

137137  0  0  1  0  0  0  0  0999 V2000
   17.2577    5.2461    0.0000 C   0  0  0  0  0  0  0  0  0  0  0  0
   11.6775    8.4678    0.0000 C   0  0  0  0  0  0  0  0  0  0  0  0
   18.0810    5.2989    0.0000 C   0  0  0  0  0  0  0  0  0  0  0  0
   12.0434    9.2072    0.0000 C   0  0  0  0  0  0  0  0  0  0  0  0
   18.4469    6.0383    0.0000 C   0  0  0  0  0  0  0  0  0  0  0  0
   12.8667    9.2600    0.0000 C   0  0  0  0  0  0  0  0  0  0  0  0
   19.2702    6.0911    0.0000 C   0  0  0  0  0  0  0  0  0  0  0  0
   13.2326    9.9994    0.0000 C   0  0  0  0  0  0  0  0  0  0  0  0
   19.6361    6.8305    0.0000 C   0  0  0  0  0  0  0  0  0  0  0  0
   14.0559   10.0523    0.0000 C   0  0  0  0  0  0  0  0  0  0  0  0
   20.4594    6.8833    0.0000 C   0  0  0  0  0  0  0  0  0  0  0  0
   14.4219   10.7917    0.0000 C   0  0  0  0  0  0  0  0  0  0  0  0
   20.8254    7.6228    0.0000 C   0  0  0  0  0  0  0  0  0  0  0  0
   15.2452   10.8445    0.0000 C   0  0  0  0  0  0  0  0  0  0  0  0
   21.6487    7.6756    0.0000 C   0  0  0  0  0  0  0  0  0  0  0  0
   15.6111   11.5839    0.0000 C   0  0  0  0  0  0  0  0  0  0  0  0
   22.0146    8.4150    0.0000 C   0  0  0  0  0  0  0  0  0  0  0  0
   22.8379    8.4678    0.0000 C   0  0  0  0  0  0  0  0  0  0  0  0
   16.4344   11.6367    0.0000 C   0  0  0  0  0  0  0  0  0  0  0  0
   23.2038    9.2072    0.0000 C   0  0  0  0  0  0  0  0  0  0  0  0
   16.8003   12.3761    0.0000 C   0  0  0  0  0  0  0  0  0  0  0  0
   22.7464    9.8938    0.0000 C   0  0  0  0  0  0  0  0  0  0  0  0
   17.6236   12.4289    0.0000 C   0  0  0  0  0  0  0  0  0  0  0  0
   23.1123   10.6332    0.0000 C   0  0  0  0  0  0  0  0  0  0  0  0
   17.9895   13.1684    0.0000 C   0  0  0  0  0  0  0  0  0  0  0  0
   22.6549   11.3198    0.0000 C   0  0  0  0  0  0  0  0  0  0  0  0
   18.8128   13.2212    0.0000 C   0  0  0  0  0  0  0  0  0  0  0  0
   23.0208   12.0592    0.0000 C   0  0  0  0  0  0  0  0  0  0  0  0
   19.1787   13.9606    0.0000 C   0  0  0  0  0  0  0  0  0  0  0  0
   22.5635   12.7458    0.0000 C   0  0  0  0  0  0  0  0  0  0  0  0
   20.0021   14.0134    0.0000 C   0  0  0  0  0  0  0  0  0  0  0  0
   22.9294   13.4852    0.0000 C   0  0  0  0  0  0  0  0  0  0  0  0
   21.5572   15.5450    0.0000 C   0  0  0  0  0  0  0  0  0  0  0  0
   22.7464   16.3373    0.0000 C   0  0  0  0  0  0  0  0  0  0  0  0
   22.3805   15.5979    0.0000 C   0  0  2  0  0  0  0  0  0  0  0  0
   20.3680   14.7528    0.0000 C   0  0  0  0  0  0  0  0  0  0  0  0
   22.4720   14.1718    0.0000 C   0  0  0  0  0  0  0  0  0  0  0  0
   23.4727   19.1665    0.0000 C   0  0  2  0  0  0  0  0  0  0  0  0
   22.7333   19.5324    0.0000 C   0  0  2  0  0  0  0  0  0  0  0  0
   23.5255   18.3432    0.0000 C   0  0  1  0  0  0  0  0  0  0  0  0
   22.0467   19.0751    0.0000 C   0  0  2  0  0  0  0  0  0  0  0  0
   22.8389   17.8858    0.0000 C   0  0  2  0  0  0  0  0  0  0  0  0
   22.0995   18.2517    0.0000 C   0  0  2  0  0  0  0  0  0  0  0  0
   19.9106   15.4394    0.0000 O   0  0  0  0  0  0  0  0  0  0  0  0
   21.6487   14.1190    0.0000 O   0  0  0  0  0  0  0  0  0  0  0  0
   24.1593   19.6239    0.0000 O   0  0  0  0  0  0  0  0  0  0  0  0
   22.6805   20.3558    0.0000 O   0  0  0  0  0  0  0  0  0  0  0  0
   24.2649   17.9773    0.0000 O   0  0  0  0  0  0  0  0  0  0  0  0
   21.3073   19.4410    0.0000 O   0  0  0  0  0  0  0  0  0  0  0  0
   22.8917   17.0625    0.0000 O   0  0  0  0  0  0  0  0  0  0  0  0
   20.6424   16.9182    0.0000 O   0  5  0  0  0  0  0  0  0  0  0  0
   21.5185   16.1477    0.0000 O   0  0  0  0  0  0  0  0  0  0  0  0
   21.1913   14.8056    0.0000 O   0  0  0  0  0  0  0  0  0  0  0  0
   22.2890   17.0239    0.0000 O   0  0  0  0  0  0  0  0  0  0  0  0
   22.8379   14.9113    0.0000 O   0  0  0  0  0  0  0  0  0  0  0  0
   21.4129   17.7944    0.0000 O   0  0  0  0  0  0  0  0  0  0  0  0
   21.4657   16.9710    0.0000 P   0  0  3  0  0  0  0  0  0  0  0  0
   21.5572    9.1016    0.0000 H   0  0  0  0  0  0  0  0  0  0  0  0
   23.2953    7.7812    0.0000 H   0  0  0  0  0  0  0  0  0  0  0  0
   21.9231   16.2844    0.0000 H   0  0  0  0  0  0  0  0  0  0  0  0
   23.1415   19.9221    0.0000 H   0  0  0  0  0  0  0  0  0  0  0  0
   23.2220   20.1971    0.0000 H   0  0  0  0  0  0  0  0  0  0  0  0
   24.2121   18.8006    0.0000 H   0  0  0  0  0  0  0  0  0  0  0  0
   21.9939   19.8984    0.0000 H   0  0  0  0  0  0  0  0  0  0  0  0
   23.5783   17.5199    0.0000 H   0  0  0  0  0  0  0  0  0  0  0  0
   21.3601   18.6177    0.0000 H   0  0  0  0  0  0  0  0  0  0  0  0
   16.6645    6.1366    0.0000 H   0  0  0  0  0  0  0  0  0  0  0  0
   16.7831    4.2871    0.0000 H   0  0  0  0  0  0  0  0  0  0  0  0
   16.1899    5.1776    0.0000 H   0  0  0  0  0  0  0  0  0  0  0  0
   10.6097    8.3993    0.0000 H   0  0  0  0  0  0  0  0  0  0  0  0
   12.2707    7.5773    0.0000 H   0  0  0  0  0  0  0  0  0  0  0  0
   11.2029    7.5088    0.0000 H   0  0  0  0  0  0  0  0  0  0  0  0
   18.6742    4.4084    0.0000 H   0  0  0  0  0  0  0  0  0  0  0  0
   19.1488    5.3674    0.0000 H   0  0  0  0  0  0  0  0  0  0  0  0
   11.4502   10.0977    0.0000 H   0  0  0  0  0  0  0  0  0  0  0  0
   12.5180   10.1662    0.0000 H   0  0  0  0  0  0  0  0  0  0  0  0
   17.8537    6.9288    0.0000 H   0  0  0  0  0  0  0  0  0  0  0  0
   18.9215    6.9973    0.0000 H   0  0  0  0  0  0  0  0  0  0  0  0
   13.4599    8.3695    0.0000 H   0  0  0  0  0  0  0  0  0  0  0  0
   13.9345    9.3285    0.0000 H   0  0  0  0  0  0  0  0  0  0  0  0
   19.8634    5.2006    0.0000 H   0  0  0  0  0  0  0  0  0  0  0  0
   20.3380    6.1596    0.0000 H   0  0  0  0  0  0  0  0  0  0  0  0
   12.6393   10.8899    0.0000 H   0  0  0  0  0  0  0  0  0  0  0  0
   13.7071   10.9584    0.0000 H   0  0  0  0  0  0  0  0  0  0  0  0
   19.0429    7.7210    0.0000 H   0  0  0  0  0  0  0  0  0  0  0  0
   20.1107    7.7895    0.0000 H   0  0  0  0  0  0  0  0  0  0  0  0
   14.6491    9.1618    0.0000 H   0  0  0  0  0  0  0  0  0  0  0  0
   15.1237   10.1207    0.0000 H   0  0  0  0  0  0  0  0  0  0  0  0
   21.0526    5.9928    0.0000 H   0  0  0  0  0  0  0  0  0  0  0  0
   21.5272    6.9518    0.0000 H   0  0  0  0  0  0  0  0  0  0  0  0
   13.8287   11.6822    0.0000 H   0  0  0  0  0  0  0  0  0  0  0  0
   14.8965   11.7507    0.0000 H   0  0  0  0  0  0  0  0  0  0  0  0
   20.2322    8.5133    0.0000 H   0  0  0  0  0  0  0  0  0  0  0  0
   21.3000    8.5818    0.0000 H   0  0  0  0  0  0  0  0  0  0  0  0
   15.8384    9.9540    0.0000 H   0  0  0  0  0  0  0  0  0  0  0  0
   16.3130   10.9130    0.0000 H   0  0  0  0  0  0  0  0  0  0  0  0
   22.2419    6.7851    0.0000 H   0  0  0  0  0  0  0  0  0  0  0  0
   22.7165    7.7441    0.0000 H   0  0  0  0  0  0  0  0  0  0  0  0
   15.0179   12.4744    0.0000 H   0  0  0  0  0  0  0  0  0  0  0  0
   16.0857   12.5429    0.0000 H   0  0  0  0  0  0  0  0  0  0  0  0
   17.0276   10.7462    0.0000 H   0  0  0  0  0  0  0  0  0  0  0  0
   17.5022   11.7052    0.0000 H   0  0  0  0  0  0  0  0  0  0  0  0
   24.2716    9.2757    0.0000 H   0  0  0  0  0  0  0  0  0  0  0  0
   23.6784   10.1662    0.0000 H   0  0  0  0  0  0  0  0  0  0  0  0
   16.2071   13.2666    0.0000 H   0  0  0  0  0  0  0  0  0  0  0  0
   17.2749   13.3351    0.0000 H   0  0  0  0  0  0  0  0  0  0  0  0
   21.6786    9.8253    0.0000 H   0  0  0  0  0  0  0  0  0  0  0  0
   22.1532   10.7843    0.0000 H   0  0  0  0  0  0  0  0  0  0  0  0
   18.2168   11.5384    0.0000 H   0  0  0  0  0  0  0  0  0  0  0  0
   18.6914   12.4974    0.0000 H   0  0  0  0  0  0  0  0  0  0  0  0
   24.1801   10.7017    0.0000 H   0  0  0  0  0  0  0  0  0  0  0  0
   23.5869   11.5922    0.0000 H   0  0  0  0  0  0  0  0  0  0  0  0
   17.3963   14.0589    0.0000 H   0  0  0  0  0  0  0  0  0  0  0  0
   18.4641   14.1274    0.0000 H   0  0  0  0  0  0  0  0  0  0  0  0
   21.5871   11.2513    0.0000 H   0  0  0  0  0  0  0  0  0  0  0  0
   22.0617   12.2103    0.0000 H   0  0  0  0  0  0  0  0  0  0  0  0
   19.4060   12.3307    0.0000 H   0  0  0  0  0  0  0  0  0  0  0  0
   19.8806   13.2897    0.0000 H   0  0  0  0  0  0  0  0  0  0  0  0
   24.0886   12.1277    0.0000 H   0  0  0  0  0  0  0  0  0  0  0  0
   23.4954   13.0182    0.0000 H   0  0  0  0  0  0  0  0  0  0  0  0
   18.5855   14.8511    0.0000 H   0  0  0  0  0  0  0  0  0  0  0  0
   19.6533   14.9196    0.0000 H   0  0  0  0  0  0  0  0  0  0  0  0
   21.4957   12.6773    0.0000 H   0  0  0  0  0  0  0  0  0  0  0  0
   21.9703   13.6363    0.0000 H   0  0  0  0  0  0  0  0  0  0  0  0
   20.5953   13.1229    0.0000 H   0  0  0  0  0  0  0  0  0  0  0  0
   21.0699   14.0819    0.0000 H   0  0  0  0  0  0  0  0  0  0  0  0
   23.9972   13.5537    0.0000 H   0  0  0  0  0  0  0  0  0  0  0  0
   23.4040   14.4442    0.0000 H   0  0  0  0  0  0  0  0  0  0  0  0
   20.9639   16.4355    0.0000 H   0  0  0  0  0  0  0  0  0  0  0  0
   20.4894   15.4765    0.0000 H   0  0  0  0  0  0  0  0  0  0  0  0
   23.8142   16.4058    0.0000 H   0  0  0  0  0  0  0  0  0  0  0  0
   23.2210   17.2963    0.0000 H   0  0  0  0  0  0  0  0  0  0  0  0
   25.0287   19.1937    0.0000 H   0  0  0  0  0  0  0  0  0  0  0  0
   23.4878   20.8936    0.0000 H   0  0  0  0  0  0  0  0  0  0  0  0
   24.3270   17.0093    0.0000 H   0  0  0  0  0  0  0  0  0  0  0  0
   21.2452   20.4090    0.0000 H   0  0  0  0  0  0  0  0  0  0  0  0
   22.0844   16.5247    0.0000 H   0  0  0  0  0  0  0  0  0  0  0  0
  1 67  1  0  0  0  0
  1 68  1  0  0  0  0
  1 69  1  0  0  0  0
  2 70  1  0  0  0  0
  2 71  1  0  0  0  0
  2 72  1  0  0  0  0
  3  1  1  0  0  0  0
  3 73  1  0  0  0  0
  3 74  1  0  0  0  0
  4  2  1  0  0  0  0
  4 75  1  0  0  0  0
  4 76  1  0  0  0  0
  5  3  1  0  0  0  0
  5 77  1  0  0  0  0
  5 78  1  0  0  0  0
  6  4  1  0  0  0  0
  6 79  1  0  0  0  0
  6 80  1  0  0  0  0
  7  5  1  0  0  0  0
  7 81  1  0  0  0  0
  7 82  1  0  0  0  0
  8  6  1  0  0  0  0
  8 83  1  0  0  0  0
  8 84  1  0  0  0  0
  9  7  1  0  0  0  0
  9 85  1  0  0  0  0
  9 86  1  0  0  0  0
 10  8  1  0  0  0  0
 10 87  1  0  0  0  0
 10 88  1  0  0  0  0
 11  9  1  0  0  0  0
 11 89  1  0  0  0  0
 11 90  1  0  0  0  0
 12 10  1  0  0  0  0
 12 91  1  0  0  0  0
 12 92  1  0  0  0  0
 13 11  1  0  0  0  0
 13 93  1  0  0  0  0
 13 94  1  0  0  0  0
 14 12  1  0  0  0  0
 14 95  1  0  0  0  0
 14 96  1  0  0  0  0
 15 13  1  0  0  0  0
 15 97  1  0  0  0  0
 15 98  1  0  0  0  0
 16 14  1  0  0  0  0
 16 99  1  0  0  0  0
 16100  1  0  0  0  0
 17 15  1  0  0  0  0
 18 17  2  0  0  0  0
 19 16  1  0  0  0  0
 19101  1  0  0  0  0
 19102  1  0  0  0  0
 20 18  1  0  0  0  0
 20103  1  0  0  0  0
 20104  1  0  0  0  0
 21 19  1  0  0  0  0
 21105  1  0  0  0  0
 21106  1  0  0  0  0
 22 20  1  0  0  0  0
 22107  1  0  0  0  0
 22108  1  0  0  0  0
 23 21  1  0  0  0  0
 23109  1  0  0  0  0
 23110  1  0  0  0  0
 24 22  1  0  0  0  0
 24111  1  0  0  0  0
 24112  1  0  0  0  0
 25 23  1  0  0  0  0
 25113  1  0  0  0  0
 25114  1  0  0  0  0
 26 24  1  0  0  0  0
 26115  1  0  0  0  0
 26116  1  0  0  0  0
 27 25  1  0  0  0  0
 27117  1  0  0  0  0
 27118  1  0  0  0  0
 28 26  1  0  0  0  0
 28119  1  0  0  0  0
 28120  1  0  0  0  0
 29 27  1  0  0  0  0
 29121  1  0  0  0  0
 29122  1  0  0  0  0
 30 28  1  0  0  0  0
 30123  1  0  0  0  0
 30124  1  0  0  0  0
 31 29  1  0  0  0  0
 31125  1  0  0  0  0
 31126  1  0  0  0  0
 32 30  1  0  0  0  0
 32127  1  0  0  0  0
 32128  1  0  0  0  0
 33129  1  0  0  0  0
 33130  1  0  0  0  0
 34131  1  0  0  0  0
 34132  1  0  0  0  0
 35 33  1  0  0  0  0
 35 34  1  0  0  0  0
 35 55  1  0  0  0  0
 35 60  1  1  0  0  0
 36 31  1  0  0  0  0
 37 32  1  0  0  0  0
 38 46  1  0  0  0  0
 38 61  1  6  0  0  0
 39 38  1  0  0  0  0
 39 47  1  0  0  0  0
 39 62  1  1  0  0  0
 40 38  1  0  0  0  0
 40 48  1  0  0  0  0
 40 63  1  1  0  0  0
 41 39  1  0  0  0  0
 41 49  1  0  0  0  0
 41 64  1  1  0  0  0
 42 40  1  0  0  0  0
 42 50  1  0  0  0  0
 42 65  1  6  0  0  0
 43 41  1  0  0  0  0
 43 42  1  0  0  0  0
 43 56  1  0  0  0  0
 43 66  1  1  0  0  0
 44 36  2  0  0  0  0
 45 37  2  0  0  0  0
 46133  1  0  0  0  0
 47134  1  0  0  0  0
 48135  1  0  0  0  0
 49136  1  0  0  0  0
 50137  1  0  0  0  0
 53 33  1  0  0  0  0
 53 36  1  0  0  0  0
 54 34  1  0  0  0  0
 55 37  1  0  0  0  0
 57 51  1  0  0  0  0
 57 52  2  0  0  0  0
 57 54  1  0  0  0  0
 57 56  1  0  0  0  0
 58 17  1  0  0  0  0
 59 18  1  0  0  0  0
M  CHG  1  51  -1
M  END
>  <DRUGBANK_ID>
DB02144

>  <SECONDARY_ACCESSION_NUMBERS>
EXPT02597

>  <COMMON_NAME>
1,2-diacyl-sn-glycero-3-phosphoinositol

$$$$
