
 OpenBabel10282417072D

 27 28  0  0  0  0  0  0  0  0999 V2000
    0.2754    0.6853    0.0000 N   0  0  0  0  0  0  0  0  0  0  0  0
    0.7558    0.0227    0.0000 C   0  0  1  0  0  0  0  0  0  0  0  0
    0.2629   -0.6564    0.0000 C   0  0  0  0  0  0  0  0  0  0  0  0
   -0.5322   -0.4245    0.0000 C   0  0  1  0  0  0  0  0  0  0  0  0
   -0.5322   -1.2403    0.0000 H   0  0  0  0  0  0  0  0  0  0  0  0
   -0.5322    0.4202    0.0000 C   0  0  2  0  0  0  0  0  0  0  0  0
   -0.5322    1.2403    0.0000 H   0  0  0  0  0  0  0  0  0  0  0  0
   -1.2279    0.8220    0.0000 C   0  0  0  0  0  0  0  0  0  0  0  0
   -1.9484    0.4202    0.0000 C   0  0  0  0  0  0  0  0  0  0  0  0
   -1.9484   -0.3996    0.0000 C   0  0  0  0  0  0  0  0  0  0  0  0
   -1.2279   -0.8055    0.0000 C   0  0  0  0  0  0  0  0  0  0  0  0
    1.5551    0.0351    0.0000 C   0  0  0  0  0  0  0  0  0  0  0  0
    1.9484   -0.7102    0.0000 O   0  0  0  0  0  0  0  0  0  0  0  0
    1.9484    0.7185    0.0000 O   0  0  0  0  0  0  0  0  0  0  0  0
    0.5896    1.6557    0.0000 H   0  0  0  0  0  0  0  0  0  0  0  0
    1.2346    0.9796    0.0000 H   0  0  0  0  0  0  0  0  0  0  0  0
    0.6092   -1.6688    0.0000 H   0  0  0  0  0  0  0  0  0  0  0  0
   -0.4762   -1.4301    0.0000 H   0  0  0  0  0  0  0  0  0  0  0  0
   -1.2199    1.8920    0.0000 H   0  0  0  0  0  0  0  0  0  0  0  0
   -2.1485    1.3673    0.0000 H   0  0  0  0  0  0  0  0  0  0  0  0
   -2.8710    0.9621    0.0000 H   0  0  0  0  0  0  0  0  0  0  0  0
   -2.8770   -0.1113    0.0000 H   0  0  0  0  0  0  0  0  0  0  0  0
   -2.8722   -0.9395    0.0000 H   0  0  0  0  0  0  0  0  0  0  0  0
   -1.9399   -1.4696    0.0000 H   0  0  0  0  0  0  0  0  0  0  0  0
   -1.2343   -1.8755    0.0000 H   0  0  0  0  0  0  0  0  0  0  0  0
   -0.3090   -1.3537    0.0000 H   0  0  0  0  0  0  0  0  0  0  0  0
    2.8854    0.7198    0.0000 H   0  0  0  0  0  0  0  0  0  0  0  0
  1 15  1  0  0  0  0
  2  1  1  0  0  0  0
  2 12  1  0  0  0  0
  2 16  1  1  0  0  0
  3  2  1  0  0  0  0
  3 17  1  0  0  0  0
  3 18  1  0  0  0  0
  4  3  1  0  0  0  0
  4  5  1  1  0  0  0
  4  6  1  0  0  0  0
  6  1  1  0  0  0  0
  6  7  1  1  0  0  0
  8  6  1  0  0  0  0
  8 19  1  0  0  0  0
  8 20  1  0  0  0  0
  9  8  1  0  0  0  0
  9 10  1  0  0  0  0
  9 21  1  0  0  0  0
  9 22  1  0  0  0  0
 10 11  1  0  0  0  0
 10 23  1  0  0  0  0
 10 24  1  0  0  0  0
 11  4  1  0  0  0  0
 11 25  1  0  0  0  0
 11 26  1  0  0  0  0
 13 12  2  0  0  0  0
 14 12  1  0  0  0  0
 14 27  1  0  0  0  0
M  END
>  <DRUGBANK_ID>
DB03409

>  <SECONDARY_ACCESSION_NUMBERS>
EXPT02426

>  <COMMON_NAME>
L-Octahydroindole-2-carboxylic acid

>  <CAS_NUMBER>
80875-98-5

>  <UNII>
9ID44U804I

>  <SYNONYMS>
(2S,3aS,7aS)-2-Carboxyoctahydroindole; (2S,3aS,7aS)-Octahydroindole-2-carboxylic acid; Perindopril impurity A

$$$$
