TIO
 OpenBabel10282417072D

 32 32  0  0  0  0  0  0  0  0999 V2000
    0.4267    0.9767    0.0000 S   0  0  0  0  0  0  0  0  0  0  0  0
   -0.2877    0.5642    0.0000 C   0  0  0  0  0  0  0  0  0  0  0  0
   -0.2877   -0.2608    0.0000 C   0  0  2  0  0  0  0  0  0  0  0  0
   -1.0022   -0.6733    0.0000 C   0  0  0  0  0  0  0  0  0  0  0  0
   -1.0022   -1.4983    0.0000 O   0  0  0  0  0  0  0  0  0  0  0  0
    0.4267   -0.6733    0.0000 C   0  0  0  0  0  0  0  0  0  0  0  0
    1.1412   -0.2608    0.0000 C   0  0  0  0  0  0  0  0  0  0  0  0
    1.1412    0.5642    0.0000 C   0  0  0  0  0  0  0  0  0  0  0  0
    1.8557   -0.6733    0.0000 C   0  0  0  0  0  0  0  0  0  0  0  0
    1.8557    0.9767    0.0000 C   0  0  0  0  0  0  0  0  0  0  0  0
    2.5701   -0.2608    0.0000 C   0  0  0  0  0  0  0  0  0  0  0  0
    2.5701    0.5642    0.0000 C   0  0  0  0  0  0  0  0  0  0  0  0
   -1.7167   -0.2608    0.0000 N   0  0  0  0  0  0  0  0  0  0  0  0
   -2.4311   -0.6733    0.0000 C   0  0  0  0  0  0  0  0  0  0  0  0
   -3.1456   -0.2608    0.0000 C   0  0  0  0  0  0  0  0  0  0  0  0
   -3.8601   -0.6733    0.0000 O   0  0  0  0  0  0  0  0  0  0  0  0
   -3.1456    0.5642    0.0000 O   0  0  0  0  0  0  0  0  0  0  0  0
   -0.7934    0.0312    0.0000 H   0  0  0  0  0  0  0  0  0  0  0  0
    1.6045    0.2968    0.0000 H   0  0  0  0  0  0  0  0  0  0  0  0
   -1.2144    1.0992    0.0000 H   0  0  0  0  0  0  0  0  0  0  0  0
   -1.2143    0.0292    0.0000 H   0  0  0  0  0  0  0  0  0  0  0  0
    0.4267   -1.7433    0.0000 H   0  0  0  0  0  0  0  0  0  0  0  0
    1.3533   -1.2083    0.0000 H   0  0  0  0  0  0  0  0  0  0  0  0
    0.2475    1.0802    0.0000 H   0  0  0  0  0  0  0  0  0  0  0  0
    1.8557   -1.7053    0.0000 H   0  0  0  0  0  0  0  0  0  0  0  0
    1.8557    2.0087    0.0000 H   0  0  0  0  0  0  0  0  0  0  0  0
    3.4638   -0.7768    0.0000 H   0  0  0  0  0  0  0  0  0  0  0  0
    3.4638    1.0802    0.0000 H   0  0  0  0  0  0  0  0  0  0  0  0
   -1.7167    0.7237    0.0000 H   0  0  0  0  0  0  0  0  0  0  0  0
   -2.4311   -1.7433    0.0000 H   0  0  0  0  0  0  0  0  0  0  0  0
   -3.3577   -1.2083    0.0000 H   0  0  0  0  0  0  0  0  0  0  0  0
   -2.3341    1.0327    0.0000 H   0  0  0  0  0  0  0  0  0  0  0  0
  1  2  1  0  0  0  0
  1 19  1  0  0  0  0
  2  3  1  0  0  0  0
  2 20  1  0  0  0  0
  2 21  1  0  0  0  0
  3  4  1  0  0  0  0
  3  6  1  0  0  0  0
  3 18  1  6  0  0  0
  4  5  2  0  0  0  0
  4 13  1  0  0  0  0
  6  7  1  0  0  0  0
  6 22  1  0  0  0  0
  6 23  1  0  0  0  0
  7  8  2  0  0  0  0
  7  9  1  0  0  0  0
  8 10  1  0  0  0  0
  8 24  1  0  0  0  0
  9 11  2  0  0  0  0
  9 25  1  0  0  0  0
 10 12  2  0  0  0  0
 10 26  1  0  0  0  0
 11 12  1  0  0  0  0
 11 27  1  0  0  0  0
 12 28  1  0  0  0  0
 13 14  1  0  0  0  0
 13 29  1  0  0  0  0
 14 15  1  0  0  0  0
 14 30  1  0  0  0  0
 14 31  1  0  0  0  0
 15 16  2  0  0  0  0
 15 17  1  0  0  0  0
 17 32  1  0  0  0  0
M  END
>  <DRUGBANK_ID>
DB08626

>  <SECONDARY_ACCESSION_NUMBERS>
DB01654

>  <COMMON_NAME>
Thiorphan

>  <CAS_NUMBER>
76721-89-6

>  <UNII>
XJ8Z52GK3X

$$$$
