
 OpenBabel10282417072D

 48 49  0  0  0  0  0  0  0  0999 V2000
    0.7135    0.7517    0.0000 C   0  0  3  0  0  0  0  0  0  0  0  0
    0.7061   -0.7445    0.0000 C   0  0  0  0  0  0  0  0  0  0  0  0
   -0.0034    1.1600    0.0000 C   0  0  0  0  0  0  0  0  0  0  0  0
    1.4304    1.1600    0.0000 C   0  0  0  0  0  0  0  0  0  0  0  0
   -0.0143   -1.1600    0.0000 C   0  0  0  0  0  0  0  0  0  0  0  0
    1.4194   -1.1600    0.0000 C   0  0  0  0  0  0  0  0  0  0  0  0
   -0.0034    1.9873    0.0000 C   0  0  0  0  0  0  0  0  0  0  0  0
   -0.7167    0.7517    0.0000 C   0  0  0  0  0  0  0  0  0  0  0  0
    1.4304    1.9873    0.0000 C   0  0  0  0  0  0  0  0  0  0  0  0
    2.1438    0.7517    0.0000 C   0  0  0  0  0  0  0  0  0  0  0  0
   -0.0143   -1.9799    0.0000 C   0  0  0  0  0  0  0  0  0  0  0  0
   -0.7203   -0.7445    0.0000 N   0  3  0  0  0  0  0  0  0  0  0  0
    1.4194   -1.9799    0.0000 C   0  0  0  0  0  0  0  0  0  0  0  0
    0.7135    2.3991    0.0000 N   0  0  0  0  0  0  0  0  0  0  0  0
   -0.7167    2.3991    0.0000 C   0  0  0  0  0  0  0  0  0  0  0  0
   -1.4299    1.1600    0.0000 O   0  0  0  0  0  0  0  0  0  0  0  0
   -0.7130   -0.0129    0.0000 O   0  0  0  0  0  0  0  0  0  0  0  0
    2.1438    2.3991    0.0000 C   0  0  0  0  0  0  0  0  0  0  0  0
    2.8533    1.1600    0.0000 O   0  0  0  0  0  0  0  0  0  0  0  0
    2.1438   -0.0753    0.0000 O   0  0  0  0  0  0  0  0  0  0  0  0
    0.7061   -2.3991    0.0000 C   0  0  0  0  0  0  0  0  0  0  0  0
    0.2207   -0.1231    0.0000 O   0  0  0  0  0  0  0  0  0  0  0  0
   -1.8859   -1.5203    0.0000 O   0  5  0  0  0  0  0  0  0  0  0  0
   -2.1433    0.7517    0.0000 C   0  0  0  0  0  0  0  0  0  0  0  0
    3.5667    0.7517    0.0000 C   0  0  0  0  0  0  0  0  0  0  0  0
   -2.8534    1.1654    0.0000 C   0  0  0  0  0  0  0  0  0  0  0  0
   -3.5667    0.7572    0.0000 C   0  0  0  0  0  0  0  0  0  0  0  0
   -2.8502    1.9873    0.0000 O   0  0  0  0  0  0  0  0  0  0  0  0
    1.6372    0.2117    0.0000 H   0  0  0  0  0  0  0  0  0  0  0  0
    2.3141   -0.6457    0.0000 H   0  0  0  0  0  0  0  0  0  0  0  0
   -0.9089   -2.4944    0.0000 H   0  0  0  0  0  0  0  0  0  0  0  0
    2.3151   -2.4924    0.0000 H   0  0  0  0  0  0  0  0  0  0  0  0
    0.7135    3.3836    0.0000 H   0  0  0  0  0  0  0  0  0  0  0  0
   -0.7167    3.4691    0.0000 H   0  0  0  0  0  0  0  0  0  0  0  0
   -1.6433    1.8641    0.0000 H   0  0  0  0  0  0  0  0  0  0  0  0
   -1.6434    2.9341    0.0000 H   0  0  0  0  0  0  0  0  0  0  0  0
    3.0704    1.8640    0.0000 H   0  0  0  0  0  0  0  0  0  0  0  0
    2.1439    3.4691    0.0000 H   0  0  0  0  0  0  0  0  0  0  0  0
    3.0705    2.9340    0.0000 H   0  0  0  0  0  0  0  0  0  0  0  0
    0.7083   -3.4311    0.0000 H   0  0  0  0  0  0  0  0  0  0  0  0
   -2.1474   -0.3183    0.0000 H   0  0  0  0  0  0  0  0  0  0  0  0
   -3.0720    0.2203    0.0000 H   0  0  0  0  0  0  0  0  0  0  0  0
    3.5707   -0.3183    0.0000 H   0  0  0  0  0  0  0  0  0  0  0  0
    4.4913    1.2902    0.0000 H   0  0  0  0  0  0  0  0  0  0  0  0
    4.4954    0.2202    0.0000 H   0  0  0  0  0  0  0  0  0  0  0  0
   -4.4913    1.2957    0.0000 H   0  0  0  0  0  0  0  0  0  0  0  0
   -3.5708   -0.3128    0.0000 H   0  0  0  0  0  0  0  0  0  0  0  0
   -4.4954    0.2257    0.0000 H   0  0  0  0  0  0  0  0  0  0  0  0
  1  4  1  0  0  0  0
  1  2  1  0  0  0  0
  1  3  1  0  0  0  0
  1 29  1  0  0  0  0
  2  5  1  0  0  0  0
  2  6  2  0  0  0  0
  3  7  2  0  0  0  0
  3  8  1  0  0  0  0
  4  9  2  0  0  0  0
  4 10  1  0  0  0  0
  5 11  2  0  0  0  0
  5 12  1  0  0  0  0
  6 13  1  0  0  0  0
  6 30  1  0  0  0  0
  7 14  1  0  0  0  0
  7 15  1  0  0  0  0
  8 16  1  0  0  0  0
  8 17  2  0  0  0  0
  9 18  1  0  0  0  0
  9 14  1  0  0  0  0
 10 19  1  0  0  0  0
 10 20  2  0  0  0  0
 11 21  1  0  0  0  0
 11 31  1  0  0  0  0
 12 22  2  0  0  0  0
 12 23  1  0  0  0  0
 13 21  2  0  0  0  0
 13 32  1  0  0  0  0
 14 33  1  0  0  0  0
 15 34  1  0  0  0  0
 15 35  1  0  0  0  0
 15 36  1  0  0  0  0
 16 24  1  0  0  0  0
 18 37  1  0  0  0  0
 18 38  1  0  0  0  0
 18 39  1  0  0  0  0
 19 25  1  0  0  0  0
 21 40  1  0  0  0  0
 24 26  1  0  0  0  0
 24 41  1  0  0  0  0
 24 42  1  0  0  0  0
 25 43  1  0  0  0  0
 25 44  1  0  0  0  0
 25 45  1  0  0  0  0
 26 27  1  0  0  0  0
 26 28  2  0  0  0  0
 27 46  1  0  0  0  0
 27 47  1  0  0  0  0
 27 48  1  0  0  0  0
M  CHG  2  12   1  23  -1
M  END
>  <DRUGBANK_ID>
DB09229

>  <COMMON_NAME>
Aranidipine

>  <CAS_NUMBER>
86780-90-7

>  <UNII>
4Y7UR6X2PO

>  <SYNONYMS>
Aranidipine

$$$$
