
 OpenBabel10282417072D

116119  0  0  1  0  0  0  0  0999 V2000
   -4.9294   -7.5662    0.0000 N   0  0  0  0  0  0  0  0  0  0  0  0
   -5.6439   -7.1537    0.0000 C   0  0  0  0  0  0  0  0  0  0  0  0
   -6.3584   -7.5662    0.0000 O   0  0  0  0  0  0  0  0  0  0  0  0
   -5.6439   -6.3287    0.0000 C   0  0  2  0  0  0  0  0  0  0  0  0
   -6.3584   -5.9162    0.0000 C   0  0  0  0  0  0  0  0  0  0  0  0
   -7.0728   -6.3287    0.0000 C   0  0  0  0  0  0  0  0  0  0  0  0
   -7.7873   -5.9162    0.0000 C   0  0  0  0  0  0  0  0  0  0  0  0
   -8.5018   -6.3287    0.0000 C   0  0  0  0  0  0  0  0  0  0  0  0
   -8.5018   -7.1537    0.0000 N   0  0  0  0  0  0  0  0  0  0  0  0
   -9.2162   -7.5662    0.0000 C   0  0  0  0  0  0  0  0  0  0  0  0
   -9.9307   -7.1537    0.0000 N   0  0  0  0  0  0  0  0  0  0  0  0
   -9.2162   -8.3912    0.0000 N   0  0  0  0  0  0  0  0  0  0  0  0
   -4.9294   -5.9162    0.0000 N   0  0  0  0  0  0  0  0  0  0  0  0
   -4.2150   -6.3287    0.0000 C   0  0  0  0  0  0  0  0  0  0  0  0
   -4.2150   -7.1537    0.0000 O   0  0  0  0  0  0  0  0  0  0  0  0
   -3.5005   -5.9162    0.0000 C   0  0  1  0  0  0  0  0  0  0  0  0
   -3.5005   -5.0912    0.0000 C   0  0  0  0  0  0  0  0  0  0  0  0
   -4.2150   -4.6787    0.0000 C   0  0  0  0  0  0  0  0  0  0  0  0
   -4.9294   -5.0912    0.0000 C   0  0  0  0  0  0  0  0  0  0  0  0
   -5.6439   -4.6787    0.0000 C   0  0  0  0  0  0  0  0  0  0  0  0
   -5.6439   -3.8537    0.0000 C   0  0  0  0  0  0  0  0  0  0  0  0
   -6.3584   -3.4412    0.0000 O   0  0  0  0  0  0  0  0  0  0  0  0
   -4.9294   -3.4412    0.0000 C   0  0  0  0  0  0  0  0  0  0  0  0
   -4.2150   -3.8537    0.0000 C   0  0  0  0  0  0  0  0  0  0  0  0
   -2.7860   -6.3287    0.0000 N   0  0  0  0  0  0  0  0  0  0  0  0
   -2.0715   -5.9162    0.0000 C   0  0  0  0  0  0  0  0  0  0  0  0
   -2.0715   -5.0912    0.0000 O   0  0  0  0  0  0  0  0  0  0  0  0
   -1.3571   -6.3287    0.0000 C   0  0  2  0  0  0  0  0  0  0  0  0
   -1.1435   -7.1256    0.0000 C   0  0  0  0  0  0  0  0  0  0  0  0
   -0.3467   -6.9121    0.0000 C   0  0  0  0  0  0  0  0  0  0  0  0
   -0.5602   -6.1152    0.0000 N   0  0  0  0  0  0  0  0  0  0  0  0
   -0.1477   -5.4008    0.0000 C   0  0  0  0  0  0  0  0  0  0  0  0
   -0.5602   -4.6863    0.0000 O   0  0  0  0  0  0  0  0  0  0  0  0
    0.6773   -5.4008    0.0000 C   0  0  1  0  0  0  0  0  0  0  0  0
    1.0898   -4.6863    0.0000 C   0  0  0  0  0  0  0  0  0  0  0  0
    0.6773   -3.9718    0.0000 C   0  0  0  0  0  0  0  0  0  0  0  0
   -0.1477   -3.9718    0.0000 C   0  0  0  0  0  0  0  0  0  0  0  0
   -0.5602   -3.2573    0.0000 C   0  0  0  0  0  0  0  0  0  0  0  0
   -0.1477   -2.5429    0.0000 C   0  0  0  0  0  0  0  0  0  0  0  0
    0.6773   -2.5429    0.0000 C   0  0  0  0  0  0  0  0  0  0  0  0
    1.0898   -3.2573    0.0000 C   0  0  0  0  0  0  0  0  0  0  0  0
    1.0898   -6.1152    0.0000 N   0  0  0  0  0  0  0  0  0  0  0  0
    1.9148   -6.1152    0.0000 C   0  0  0  0  0  0  0  0  0  0  0  0
    2.3273   -6.8297    0.0000 O   0  0  0  0  0  0  0  0  0  0  0  0
    2.3273   -5.4008    0.0000 C   0  0  2  0  0  0  0  0  0  0  0  0
    1.9148   -4.6863    0.0000 C   0  0  0  0  0  0  0  0  0  0  0  0
    2.3273   -3.9718    0.0000 C   0  0  0  0  0  0  0  0  0  0  0  0
    3.1523   -3.9718    0.0000 C   0  0  1  0  0  0  0  0  0  0  0  0
    3.5648   -4.6863    0.0000 C   0  0  0  0  0  0  0  0  0  0  0  0
    3.1523   -5.4008    0.0000 C   0  0  0  0  0  0  0  0  0  0  0  0
    3.5648   -3.2573    0.0000 C   0  0  0  0  0  0  0  0  0  0  0  0
    4.3898   -3.2573    0.0000 N   0  0  0  0  0  0  0  0  0  0  0  0
    4.8023   -2.5429    0.0000 C   0  0  0  0  0  0  0  0  0  0  0  0
    4.3898   -1.8284    0.0000 N   0  0  0  0  0  0  0  0  0  0  0  0
    5.6273   -2.5429    0.0000 N   0  0  0  0  0  0  0  0  0  0  0  0
   -4.9294   -8.5507    0.0000 H   0  0  0  0  0  0  0  0  0  0  0  0
   -4.0768   -7.0739    0.0000 H   0  0  0  0  0  0  0  0  0  0  0  0
   -4.7173   -6.8637    0.0000 H   0  0  0  0  0  0  0  0  0  0  0  0
   -6.3584   -4.8462    0.0000 H   0  0  0  0  0  0  0  0  0  0  0  0
   -7.2851   -5.3812    0.0000 H   0  0  0  0  0  0  0  0  0  0  0  0
   -7.0728   -7.3987    0.0000 H   0  0  0  0  0  0  0  0  0  0  0  0
   -7.9994   -6.8637    0.0000 H   0  0  0  0  0  0  0  0  0  0  0  0
   -7.7873   -4.8462    0.0000 H   0  0  0  0  0  0  0  0  0  0  0  0
   -8.7139   -5.3812    0.0000 H   0  0  0  0  0  0  0  0  0  0  0  0
   -9.4284   -5.7937    0.0000 H   0  0  0  0  0  0  0  0  0  0  0  0
   -9.4284   -6.8637    0.0000 H   0  0  0  0  0  0  0  0  0  0  0  0
   -9.9307   -6.1692    0.0000 H   0  0  0  0  0  0  0  0  0  0  0  0
  -10.7833   -7.6460    0.0000 H   0  0  0  0  0  0  0  0  0  0  0  0
  -10.0688   -8.8834    0.0000 H   0  0  0  0  0  0  0  0  0  0  0  0
   -8.3636   -8.8834    0.0000 H   0  0  0  0  0  0  0  0  0  0  0  0
   -4.9294   -4.9317    0.0000 H   0  0  0  0  0  0  0  0  0  0  0  0
   -3.5005   -6.9862    0.0000 H   0  0  0  0  0  0  0  0  0  0  0  0
   -2.5739   -4.5562    0.0000 H   0  0  0  0  0  0  0  0  0  0  0  0
   -3.5005   -4.0212    0.0000 H   0  0  0  0  0  0  0  0  0  0  0  0
   -4.9294   -6.1232    0.0000 H   0  0  0  0  0  0  0  0  0  0  0  0
   -6.5376   -5.1947    0.0000 H   0  0  0  0  0  0  0  0  0  0  0  0
   -6.3584   -2.5042    0.0000 H   0  0  0  0  0  0  0  0  0  0  0  0
   -4.9294   -2.4092    0.0000 H   0  0  0  0  0  0  0  0  0  0  0  0
   -3.3213   -3.3377    0.0000 H   0  0  0  0  0  0  0  0  0  0  0  0
   -2.7860   -7.3132    0.0000 H   0  0  0  0  0  0  0  0  0  0  0  0
   -2.2060   -6.9801    0.0000 H   0  0  0  0  0  0  0  0  0  0  0  0
   -1.6785   -8.0523    0.0000 H   0  0  0  0  0  0  0  0  0  0  0  0
   -0.4921   -7.9745    0.0000 H   0  0  0  0  0  0  0  0  0  0  0  0
    0.5799   -7.4471    0.0000 H   0  0  0  0  0  0  0  0  0  0  0  0
    0.5022   -6.2607    0.0000 H   0  0  0  0  0  0  0  0  0  0  0  0
    0.1423   -6.3275    0.0000 H   0  0  0  0  0  0  0  0  0  0  0  0
    2.1598   -4.6863    0.0000 H   0  0  0  0  0  0  0  0  0  0  0  0
    1.6248   -3.7597    0.0000 H   0  0  0  0  0  0  0  0  0  0  0  0
    0.1423   -3.0452    0.0000 H   0  0  0  0  0  0  0  0  0  0  0  0
   -0.6827   -4.8984    0.0000 H   0  0  0  0  0  0  0  0  0  0  0  0
   -1.2177   -3.9718    0.0000 H   0  0  0  0  0  0  0  0  0  0  0  0
   -1.6302   -3.2573    0.0000 H   0  0  0  0  0  0  0  0  0  0  0  0
   -1.0952   -2.3306    0.0000 H   0  0  0  0  0  0  0  0  0  0  0  0
   -0.6827   -1.6162    0.0000 H   0  0  0  0  0  0  0  0  0  0  0  0
    0.3873   -1.6163    0.0000 H   0  0  0  0  0  0  0  0  0  0  0  0
    1.2123   -1.6162    0.0000 H   0  0  0  0  0  0  0  0  0  0  0  0
    1.7473   -2.5429    0.0000 H   0  0  0  0  0  0  0  0  0  0  0  0
    2.1598   -3.2573    0.0000 H   0  0  0  0  0  0  0  0  0  0  0  0
    1.6248   -4.1839    0.0000 H   0  0  0  0  0  0  0  0  0  0  0  0
    0.5976   -6.9678    0.0000 H   0  0  0  0  0  0  0  0  0  0  0  0
    1.2573   -5.4008    0.0000 H   0  0  0  0  0  0  0  0  0  0  0  0
    0.8448   -4.6863    0.0000 H   0  0  0  0  0  0  0  0  0  0  0  0
    1.3798   -3.7597    0.0000 H   0  0  0  0  0  0  0  0  0  0  0  0
    1.7923   -3.0452    0.0000 H   0  0  0  0  0  0  0  0  0  0  0  0
    2.8623   -3.0452    0.0000 H   0  0  0  0  0  0  0  0  0  0  0  0
    2.6173   -3.0452    0.0000 H   0  0  0  0  0  0  0  0  0  0  0  0
    4.6348   -4.6863    0.0000 H   0  0  0  0  0  0  0  0  0  0  0  0
    4.0998   -5.6129    0.0000 H   0  0  0  0  0  0  0  0  0  0  0  0
    3.6873   -6.3274    0.0000 H   0  0  0  0  0  0  0  0  0  0  0  0
    2.6173   -6.3274    0.0000 H   0  0  0  0  0  0  0  0  0  0  0  0
    3.0298   -2.3307    0.0000 H   0  0  0  0  0  0  0  0  0  0  0  0
    4.0998   -2.3307    0.0000 H   0  0  0  0  0  0  0  0  0  0  0  0
    4.8821   -0.9758    0.0000 H   0  0  0  0  0  0  0  0  0  0  0  0
    3.4053   -1.8284    0.0000 H   0  0  0  0  0  0  0  0  0  0  0  0
    6.1196   -3.3955    0.0000 H   0  0  0  0  0  0  0  0  0  0  0  0
    6.1196   -1.6903    0.0000 H   0  0  0  0  0  0  0  0  0  0  0  0
  1  2  1  0  0  0  0
  1 56  1  0  0  0  0
  1 57  1  0  0  0  0
  2  3  2  0  0  0  0
  2  4  1  0  0  0  0
  4  5  1  0  0  0  0
  4 13  1  0  0  0  0
  4 58  1  1  0  0  0
  5  6  1  0  0  0  0
  5 59  1  0  0  0  0
  5 60  1  0  0  0  0
  6  7  1  0  0  0  0
  6 61  1  0  0  0  0
  6 62  1  0  0  0  0
  7  8  1  0  0  0  0
  7 63  1  0  0  0  0
  7 64  1  0  0  0  0
  8  9  1  0  0  0  0
  8 65  1  0  0  0  0
  8 66  1  0  0  0  0
  9 10  2  0  0  0  0
 10 11  1  0  0  0  0
 10 12  1  0  0  0  0
 11 67  1  0  0  0  0
 11 68  1  0  0  0  0
 12 69  1  0  0  0  0
 12 70  1  0  0  0  0
 13 14  1  0  0  0  0
 13 71  1  0  0  0  0
 14 15  2  0  0  0  0
 14 16  1  0  0  0  0
 16 17  1  0  0  0  0
 16 25  1  0  0  0  0
 16 72  1  6  0  0  0
 17 18  1  0  0  0  0
 17 73  1  0  0  0  0
 17 74  1  0  0  0  0
 18 19  2  0  0  0  0
 18 24  1  0  0  0  0
 19 20  1  0  0  0  0
 19 75  1  0  0  0  0
 20 21  2  0  0  0  0
 20 76  1  0  0  0  0
 21 22  1  0  0  0  0
 21 23  1  0  0  0  0
 22 77  1  0  0  0  0
 23 24  2  0  0  0  0
 23 78  1  0  0  0  0
 24 79  1  0  0  0  0
 25 26  1  0  0  0  0
 25 80  1  0  0  0  0
 26 27  2  0  0  0  0
 28 26  1  0  0  0  0
 28 29  1  0  0  0  0
 28 31  1  0  0  0  0
 28 81  1  6  0  0  0
 29 30  1  0  0  0  0
 29 82  1  0  0  0  0
 29 83  1  0  0  0  0
 30 31  1  0  0  0  0
 30 84  1  0  0  0  0
 30 85  1  0  0  0  0
 31 32  1  0  0  0  0
 32 33  2  0  0  0  0
 32 34  1  0  0  0  0
 34 35  1  0  0  0  0
 34 42  1  0  0  0  0
 34 86  1  6  0  0  0
 35 36  1  0  0  0  0
 35 87  1  0  0  0  0
 35 88  1  0  0  0  0
 36 37  1  0  0  0  0
 36 41  1  0  0  0  0
 36 89  1  0  0  0  0
 37 38  1  0  0  0  0
 37 90  1  0  0  0  0
 37 91  1  0  0  0  0
 38 39  1  0  0  0  0
 38 92  1  0  0  0  0
 38 93  1  0  0  0  0
 39 40  1  0  0  0  0
 39 94  1  0  0  0  0
 39 95  1  0  0  0  0
 40 41  1  0  0  0  0
 40 96  1  0  0  0  0
 40 97  1  0  0  0  0
 41 98  1  0  0  0  0
 41 99  1  0  0  0  0
 42 43  1  0  0  0  0
 42100  1  0  0  0  0
 43 44  2  0  0  0  0
 45 43  1  0  0  0  0
 45 46  1  0  0  0  0
 45 50  1  0  0  0  0
 45101  1  1  0  0  0
 46 47  1  0  0  0  0
 46102  1  0  0  0  0
 46103  1  0  0  0  0
 47 48  1  0  0  0  0
 47104  1  0  0  0  0
 47105  1  0  0  0  0
 48 49  1  0  0  0  0
 48 51  1  0  0  0  0
 48106  1  1  0  0  0
 49 50  1  0  0  0  0
 49107  1  0  0  0  0
 49108  1  0  0  0  0
 50109  1  0  0  0  0
 50110  1  0  0  0  0
 51 52  1  0  0  0  0
 51111  1  0  0  0  0
 51112  1  0  0  0  0
 52 53  2  0  0  0  0
 53 54  1  0  0  0  0
 53 55  1  0  0  0  0
 54113  1  0  0  0  0
 54114  1  0  0  0  0
 55115  1  0  0  0  0
 55116  1  0  0  0  0
M  END
>  <DRUGBANK_ID>
DB04697

>  <COMMON_NAME>
TRANS-4-(GUANIDINOMETHYL)-CYCLOHEXANE-L-YL-D-3-CYCLOHEXYLALANYL-L-AZETIDINE-2-YL-D-TYROSINYL-L-HOMOARGININAMIDE

$$$$
