
 OpenBabel10282417072D

 37 39  0  0  0  0  0  0  0  0999 V2000
    1.1326    2.7585    0.0000 P   0  0  0  0  0  0  0  0  0  0  0  0
    0.6005   -0.0905    0.0000 O   0  0  0  0  0  0  0  0  0  0  0  0
    2.5361   -0.9914    0.0000 O   0  0  0  0  0  0  0  0  0  0  0  0
    2.5392    0.8036    0.0000 O   0  0  0  0  0  0  0  0  0  0  0  0
    1.3861    1.9733    0.0000 O   0  0  0  0  0  0  0  0  0  0  0  0
    1.9177    3.0121    0.0000 O   0  0  0  0  0  0  0  0  0  0  0  0
    0.8790    3.5437    0.0000 O   0  0  0  0  0  0  0  0  0  0  0  0
    0.3474    2.5049    0.0000 O   0  0  0  0  0  0  0  0  0  0  0  0
    0.8280   -1.5431    0.0000 N   0  0  0  0  0  0  0  0  0  0  0  0
    0.8280   -2.8710    0.0000 N   0  0  0  0  0  0  0  0  0  0  0  0
   -0.6671   -3.0321    0.0000 N   0  0  0  0  0  0  0  0  0  0  0  0
   -1.3816   -1.7944    0.0000 N   0  0  0  0  0  0  0  0  0  0  0  0
   -2.0963   -3.0321    0.0000 N   0  0  0  0  0  0  0  0  0  0  0  0
    1.8694   -0.5052    0.0000 C   0  0  2  0  0  0  0  0  0  0  0  0
    1.8708    0.3197    0.0000 C   0  0  1  0  0  0  0  0  0  0  0  0
    1.0844   -0.7589    0.0000 C   0  0  2  0  0  0  0  0  0  0  0  0
    1.0867    0.5760    0.0000 C   0  0  1  0  0  0  0  0  0  0  0  0
    0.8331    1.3612    0.0000 C   0  0  0  0  0  0  0  0  0  0  0  0
    0.0473   -1.7944    0.0000 C   0  0  0  0  0  0  0  0  0  0  0  0
    1.3095   -2.2071    0.0000 C   0  0  0  0  0  0  0  0  0  0  0  0
    0.0473   -2.6196    0.0000 C   0  0  0  0  0  0  0  0  0  0  0  0
   -0.6671   -1.3819    0.0000 C   0  0  0  0  0  0  0  0  0  0  0  0
   -1.3816   -2.6196    0.0000 C   0  0  0  0  0  0  0  0  0  0  0  0
   -2.5392   -2.7763    0.0000 H   0  0  0  0  0  0  0  0  0  0  0  0
   -2.0963   -3.5437    0.0000 H   0  0  0  0  0  0  0  0  0  0  0  0
    2.4330   -1.9559    0.0000 H   0  0  0  0  0  0  0  0  0  0  0  0
    3.4247    0.4076    0.0000 H   0  0  0  0  0  0  0  0  0  0  0  0
    2.6374    2.3618    0.0000 H   0  0  0  0  0  0  0  0  0  0  0  0
    1.5293    4.2634    0.0000 H   0  0  0  0  0  0  0  0  0  0  0  0
    2.8236   -0.0211    0.0000 H   0  0  0  0  0  0  0  0  0  0  0  0
    2.8234   -0.1677    0.0000 H   0  0  0  0  0  0  0  0  0  0  0  0
    0.0273   -0.9244    0.0000 H   0  0  0  0  0  0  0  0  0  0  0  0
    0.0302    0.7453    0.0000 H   0  0  0  0  0  0  0  0  0  0  0  0
   -0.2131    1.5855    0.0000 H   0  0  0  0  0  0  0  0  0  0  0  0
    0.1157    0.5673    0.0000 H   0  0  0  0  0  0  0  0  0  0  0  0
    2.3415   -2.2071    0.0000 H   0  0  0  0  0  0  0  0  0  0  0  0
   -0.6671   -0.3499    0.0000 H   0  0  0  0  0  0  0  0  0  0  0  0
  1  5  1  0  0  0  0
  1  6  1  0  0  0  0
  1  7  1  0  0  0  0
  1  8  2  0  0  0  0
  2 16  1  0  0  0  0
  2 17  1  0  0  0  0
  3 26  1  0  0  0  0
  4 27  1  0  0  0  0
  5 18  1  0  0  0  0
  6 28  1  0  0  0  0
  7 29  1  0  0  0  0
  9 19  1  0  0  0  0
  9 20  1  0  0  0  0
 10 20  2  0  0  0  0
 10 21  1  0  0  0  0
 11 21  2  0  0  0  0
 11 23  1  0  0  0  0
 12 22  1  0  0  0  0
 12 23  2  0  0  0  0
 13 23  1  0  0  0  0
 13 24  1  0  0  0  0
 13 25  1  0  0  0  0
 14  3  1  0  0  0  0
 14 15  1  0  0  0  0
 14 16  1  0  0  0  0
 14 30  1  6  0  0  0
 15  4  1  0  0  0  0
 15 17  1  0  0  0  0
 15 31  1  6  0  0  0
 16  9  1  0  0  0  0
 16 32  1  6  0  0  0
 17 18  1  0  0  0  0
 17 33  1  1  0  0  0
 18 34  1  0  0  0  0
 18 35  1  0  0  0  0
 19 21  1  0  0  0  0
 19 22  2  0  0  0  0
 20 36  1  0  0  0  0
 22 37  1  0  0  0  0
M  END
>  <DRUGBANK_ID>
DB02770

>  <SECONDARY_ACCESSION_NUMBERS>
EXPT00315

>  <COMMON_NAME>
7-alpha-D-Ribofuranosyl-2-aminopurine-5'-phosphate

$$$$
