
 OpenBabel10282417072D

 34 36  0  0  0  0  0  0  0  0999 V2000
   -0.3572   -0.9965    0.0000 C   0  0  0  0  0  0  0  0  0  0  0  0
   -0.3572   -1.8215    0.0000 C   0  0  0  0  0  0  0  0  0  0  0  0
   -1.0717   -0.5840    0.0000 C   0  0  0  0  0  0  0  0  0  0  0  0
   -1.0717   -2.2340    0.0000 C   0  0  0  0  0  0  0  0  0  0  0  0
   -1.7862   -0.9965    0.0000 C   0  0  0  0  0  0  0  0  0  0  0  0
   -1.7862   -1.8215    0.0000 C   0  0  0  0  0  0  0  0  0  0  0  0
    1.0717   -0.9965    0.0000 C   0  0  0  0  0  0  0  0  0  0  0  0
    1.0717   -1.8215    0.0000 C   0  0  0  0  0  0  0  0  0  0  0  0
    0.3572   -0.5840    0.0000 C   0  0  0  0  0  0  0  0  0  0  0  0
    0.3572   -2.2340    0.0000 N   0  0  0  0  0  0  0  0  0  0  0  0
    1.6849   -0.4443    0.0000 N   0  0  0  0  0  0  0  0  0  0  0  0
    1.3493    0.3092    0.0000 C   0  0  0  0  0  0  0  0  0  0  0  0
    0.5288    0.2230    0.0000 N   0  0  0  0  0  0  0  0  0  0  0  0
   -0.0232    0.8362    0.0000 C   0  0  0  0  0  0  0  0  0  0  0  0
    0.2317    1.6208    0.0000 C   0  0  0  0  0  0  0  0  0  0  0  0
    1.0387    1.7923    0.0000 C   0  0  0  0  0  0  0  0  0  0  0  0
   -0.3202    2.2340    0.0000 C   0  0  0  0  0  0  0  0  0  0  0  0
    1.7862   -2.2340    0.0000 N   0  0  0  0  0  0  0  0  0  0  0  0
   -1.0717    0.4480    0.0000 H   0  0  0  0  0  0  0  0  0  0  0  0
   -1.0717   -3.2660    0.0000 H   0  0  0  0  0  0  0  0  0  0  0  0
   -2.6799   -0.4805    0.0000 H   0  0  0  0  0  0  0  0  0  0  0  0
   -2.6799   -2.3375    0.0000 H   0  0  0  0  0  0  0  0  0  0  0  0
    1.8653    1.2030    0.0000 H   0  0  0  0  0  0  0  0  0  0  0  0
   -1.0698    0.6138    0.0000 H   0  0  0  0  0  0  0  0  0  0  0  0
   -0.7392    1.6314    0.0000 H   0  0  0  0  0  0  0  0  0  0  0  0
    0.5625    2.6384    0.0000 H   0  0  0  0  0  0  0  0  0  0  0  0
    1.7546    0.9971    0.0000 H   0  0  0  0  0  0  0  0  0  0  0  0
    1.3694    2.8099    0.0000 H   0  0  0  0  0  0  0  0  0  0  0  0
    2.0853    2.0147    0.0000 H   0  0  0  0  0  0  0  0  0  0  0  0
    0.0107    3.2516    0.0000 H   0  0  0  0  0  0  0  0  0  0  0  0
   -1.3669    2.0117    0.0000 H   0  0  0  0  0  0  0  0  0  0  0  0
   -1.0360    3.0293    0.0000 H   0  0  0  0  0  0  0  0  0  0  0  0
    1.7862   -3.2185    0.0000 H   0  0  0  0  0  0  0  0  0  0  0  0
    2.6388   -1.7417    0.0000 H   0  0  0  0  0  0  0  0  0  0  0  0
  1  9  1  0  0  0  0
  2 10  1  0  0  0  0
  2  1  2  0  0  0  0
  3  1  1  0  0  0  0
  3 19  1  0  0  0  0
  4  2  1  0  0  0  0
  4 20  1  0  0  0  0
  5  3  2  0  0  0  0
  5 21  1  0  0  0  0
  6  4  2  0  0  0  0
  6  5  1  0  0  0  0
  6 22  1  0  0  0  0
  8  7  1  0  0  0  0
  8 18  1  0  0  0  0
  9  7  2  0  0  0  0
 10  8  2  0  0  0  0
 11  7  1  0  0  0  0
 12 11  2  0  0  0  0
 12 23  1  0  0  0  0
 13  9  1  0  0  0  0
 13 12  1  0  0  0  0
 13 14  1  0  0  0  0
 14 15  1  0  0  0  0
 14 24  1  0  0  0  0
 14 25  1  0  0  0  0
 15 16  1  0  0  0  0
 15 17  1  0  0  0  0
 15 26  1  0  0  0  0
 16 27  1  0  0  0  0
 16 28  1  0  0  0  0
 16 29  1  0  0  0  0
 17 30  1  0  0  0  0
 17 31  1  0  0  0  0
 17 32  1  0  0  0  0
 18 33  1  0  0  0  0
 18 34  1  0  0  0  0
M  END
>  <DRUGBANK_ID>
DB00724

>  <SECONDARY_ACCESSION_NUMBERS>
APRD01030

>  <COMMON_NAME>
Imiquimod

>  <CAS_NUMBER>
99011-02-6

>  <UNII>
P1QW714R7M

>  <SYNONYMS>
1-isobutyl-1H-imidazo[4,5-c]quinolin-4-amine; 4-Amino-1-isobutyl-1H-imidazo(4,5-c)quinoline; Imiquimod; Imiquimodum

$$$$
