
 OpenBabel10282417072D

 42 45  0  0  0  0  0  0  0  0999 V2000
    6.7245    4.0936    0.0000 C   0  0  0  0  0  0  0  0  0  0  0  0
    6.3889    3.3400    0.0000 C   0  0  0  0  0  0  0  0  0  0  0  0
    6.8014    2.6255    0.0000 N   0  0  0  0  0  0  0  0  0  0  0  0
    6.2494    2.0124    0.0000 N   0  0  0  0  0  0  0  0  0  0  0  0
    5.4957    2.3479    0.0000 C   0  0  0  0  0  0  0  0  0  0  0  0
    4.7812    1.9354    0.0000 C   0  0  0  0  0  0  0  0  0  0  0  0
    4.7812    1.1104    0.0000 O   0  0  0  0  0  0  0  0  0  0  0  0
    4.0668    2.3479    0.0000 N   0  0  0  0  0  0  0  0  0  0  0  0
    3.3523    1.9354    0.0000 C   0  0  0  0  0  0  0  0  0  0  0  0
    3.3523    1.1104    0.0000 C   0  0  0  0  0  0  0  0  0  0  0  0
    2.6378    0.6979    0.0000 N   0  0  0  0  0  0  0  0  0  0  0  0
    1.9233    1.1104    0.0000 C   0  0  0  0  0  0  0  0  0  0  0  0
    1.1387    0.8555    0.0000 N   0  0  0  0  0  0  0  0  0  0  0  0
    0.6538    1.5229    0.0000 C   0  0  0  0  0  0  0  0  0  0  0  0
    1.1387    2.1904    0.0000 C   0  0  0  0  0  0  0  0  0  0  0  0
    1.9233    1.9354    0.0000 C   0  0  0  0  0  0  0  0  0  0  0  0
    2.6378    2.3479    0.0000 C   0  0  0  0  0  0  0  0  0  0  0  0
   -0.1712    1.5229    0.0000 C   0  0  0  0  0  0  0  0  0  0  0  0
   -0.5837    0.8085    0.0000 C   0  0  0  0  0  0  0  0  0  0  0  0
   -1.4087    0.8085    0.0000 C   0  0  0  0  0  0  0  0  0  0  0  0
   -1.8212    1.5229    0.0000 C   0  0  0  0  0  0  0  0  0  0  0  0
   -1.4087    2.2374    0.0000 C   0  0  0  0  0  0  0  0  0  0  0  0
   -0.5837    2.2374    0.0000 C   0  0  0  0  0  0  0  0  0  0  0  0
    5.5819    3.1684    0.0000 C   0  0  0  0  0  0  0  0  0  0  0  0
    4.9688    3.7205    0.0000 C   0  0  0  0  0  0  0  0  0  0  0  0
    7.7886    4.2054    0.0000 H   0  0  0  0  0  0  0  0  0  0  0  0
    6.0956    4.9593    0.0000 H   0  0  0  0  0  0  0  0  0  0  0  0
    7.1598    5.0711    0.0000 H   0  0  0  0  0  0  0  0  0  0  0  0
    7.7805    2.5226    0.0000 H   0  0  0  0  0  0  0  0  0  0  0  0
    4.0668    3.3324    0.0000 H   0  0  0  0  0  0  0  0  0  0  0  0
    4.2460    0.5944    0.0000 H   0  0  0  0  0  0  0  0  0  0  0  0
    0.8345   -0.0808    0.0000 H   0  0  0  0  0  0  0  0  0  0  0  0
    0.8198    3.1719    0.0000 H   0  0  0  0  0  0  0  0  0  0  0  0
    2.6378    3.3799    0.0000 H   0  0  0  0  0  0  0  0  0  0  0  0
   -0.0677   -0.0852    0.0000 H   0  0  0  0  0  0  0  0  0  0  0  0
   -1.9247   -0.0852    0.0000 H   0  0  0  0  0  0  0  0  0  0  0  0
   -2.8532    1.5229    0.0000 H   0  0  0  0  0  0  0  0  0  0  0  0
   -1.9247    3.1311    0.0000 H   0  0  0  0  0  0  0  0  0  0  0  0
   -0.0677    3.1311    0.0000 H   0  0  0  0  0  0  0  0  0  0  0  0
    5.1913    4.7671    0.0000 H   0  0  0  0  0  0  0  0  0  0  0  0
    3.9512    3.3899    0.0000 H   0  0  0  0  0  0  0  0  0  0  0  0
    4.1737    4.4365    0.0000 H   0  0  0  0  0  0  0  0  0  0  0  0
  1  2  1  0  0  0  0
  1 26  1  0  0  0  0
  1 27  1  0  0  0  0
  1 28  1  0  0  0  0
  2  3  1  0  0  0  0
  2 24  2  0  0  0  0
  3  4  1  0  0  0  0
  3 29  1  0  0  0  0
  4  5  2  0  0  0  0
  5  6  1  0  0  0  0
  5 24  1  0  0  0  0
  6  7  2  0  0  0  0
  6  8  1  0  0  0  0
  8  9  1  0  0  0  0
  8 30  1  0  0  0  0
  9 10  2  0  0  0  0
  9 17  1  0  0  0  0
 10 11  1  0  0  0  0
 10 31  1  0  0  0  0
 11 12  2  0  0  0  0
 12 13  1  0  0  0  0
 12 16  1  0  0  0  0
 13 14  1  0  0  0  0
 13 32  1  0  0  0  0
 14 15  2  0  0  0  0
 14 18  1  0  0  0  0
 15 16  1  0  0  0  0
 15 33  1  0  0  0  0
 16 17  2  0  0  0  0
 17 34  1  0  0  0  0
 18 19  2  0  0  0  0
 18 23  1  0  0  0  0
 19 20  1  0  0  0  0
 19 35  1  0  0  0  0
 20 21  2  0  0  0  0
 20 36  1  0  0  0  0
 21 22  1  0  0  0  0
 21 37  1  0  0  0  0
 22 23  2  0  0  0  0
 22 38  1  0  0  0  0
 23 39  1  0  0  0  0
 24 25  1  0  0  0  0
 25 40  1  0  0  0  0
 25 41  1  0  0  0  0
 25 42  1  0  0  0  0
M  END
>  <DRUGBANK_ID>
DB18041

>  <COMMON_NAME>
Bezuclastinib

>  <CAS_NUMBER>
1616385-51-3

>  <UNII>
2ROQ545LAG

>  <SYNONYMS>
3,4-dimethyl-n-(2-phenyl-1h-pyrrolo(2,3-b)pyridin-5-yl)-1h-pyrazole-5-carboxamide; 3,4-dimethyl-N-(2-phenyl-1H-pyrrolo[2,3-b]pyridin-5-yl)-1H-pyrazole-5- carboxamide

$$$$
