
 OpenBabel10282417072D

 67 69  0  0  1  0  0  0  0  0999 V2000
    1.9520    2.5559    0.0000 C   0  0  0  0  0  0  0  0  0  0  0  0
    2.3645    1.8414    0.0000 O   0  0  0  0  0  0  0  0  0  0  0  0
    1.9520    1.1270    0.0000 C   0  0  2  0  0  0  0  0  0  0  0  0
    2.3645    0.4125    0.0000 C   0  0  1  0  0  0  0  0  0  0  0  0
    1.9520   -0.3020    0.0000 C   0  0  0  0  0  0  0  0  0  0  0  0
    1.1270   -0.3020    0.0000 C   0  0  0  0  0  0  0  0  0  0  0  0
    0.7145    0.4125    0.0000 C   0  0  1  0  0  0  0  0  0  0  0  0
   -0.0000    0.0000    0.0000 C   0  0  0  0  0  0  0  0  0  0  0  0
    0.0000    0.8250    0.0000 O   0  0  0  0  0  0  0  0  0  0  0  0
    1.1270    1.1270    0.0000 C   0  0  1  0  0  0  0  0  0  0  0  0
    0.7145    1.8414    0.0000 C   0  0  1  0  0  0  0  0  0  0  0  0
    1.3465    2.3717    0.0000 C   0  0  0  0  0  0  0  0  0  0  0  0
   -0.0608    1.5593    0.0000 O   0  0  0  0  0  0  0  0  0  0  0  0
    0.0825    2.3717    0.0000 C   0  0  2  0  0  0  0  0  0  0  0  0
   -0.1997    3.1470    0.0000 C   0  0  0  0  0  0  0  0  0  0  0  0
   -1.0121    3.2902    0.0000 C   0  0  0  0  0  0  0  0  0  0  0  0
   -1.2943    4.0655    0.0000 C   0  0  0  0  0  0  0  0  0  0  0  0
   -2.1068    4.2088    0.0000 C   0  0  0  0  0  0  0  0  0  0  0  0
   -0.7640    4.6975    0.0000 C   0  0  0  0  0  0  0  0  0  0  0  0
    3.1895    0.4125    0.0000 O   0  0  0  0  0  0  0  0  0  0  0  0
    3.6020   -0.3020    0.0000 C   0  0  0  0  0  0  0  0  0  0  0  0
    3.1895   -1.0164    0.0000 O   0  0  0  0  0  0  0  0  0  0  0  0
    4.4270   -0.3020    0.0000 C   0  0  0  0  0  0  0  0  0  0  0  0
    4.8395   -1.0164    0.0000 C   0  0  0  0  0  0  0  0  0  0  0  0
    5.6645   -1.0164    0.0000 C   0  0  0  0  0  0  0  0  0  0  0  0
    6.0770   -1.7309    0.0000 C   0  0  0  0  0  0  0  0  0  0  0  0
    6.9020   -1.7309    0.0000 C   0  0  0  0  0  0  0  0  0  0  0  0
    7.3145   -2.4454    0.0000 C   0  0  0  0  0  0  0  0  0  0  0  0
    8.1395   -2.4454    0.0000 C   0  0  0  0  0  0  0  0  0  0  0  0
    8.5520   -3.1599    0.0000 C   0  0  0  0  0  0  0  0  0  0  0  0
    9.3770   -3.1599    0.0000 C   0  0  0  0  0  0  0  0  0  0  0  0
    9.7895   -2.4454    0.0000 O   0  0  0  0  0  0  0  0  0  0  0  0
    9.7895   -3.8743    0.0000 O   0  0  0  0  0  0  0  0  0  0  0  0
    2.4870    3.4825    0.0000 H   0  0  0  0  0  0  0  0  0  0  0  0
    0.8820    2.5559    0.0000 H   0  0  0  0  0  0  0  0  0  0  0  0
    1.4170    3.4826    0.0000 H   0  0  0  0  0  0  0  0  0  0  0  0
    3.0220    1.1270    0.0000 H   0  0  0  0  0  0  0  0  0  0  0  0
    2.8995    1.3391    0.0000 H   0  0  0  0  0  0  0  0  0  0  0  0
    2.4870   -1.2286    0.0000 H   0  0  0  0  0  0  0  0  0  0  0  0
    1.4170   -1.2286    0.0000 H   0  0  0  0  0  0  0  0  0  0  0  0
    0.5920   -1.2286    0.0000 H   0  0  0  0  0  0  0  0  0  0  0  0
    0.0570   -0.3020    0.0000 H   0  0  0  0  0  0  0  0  0  0  0  0
   -0.5350   -0.9266    0.0000 H   0  0  0  0  0  0  0  0  0  0  0  0
   -1.0335    0.2769    0.0000 H   0  0  0  0  0  0  0  0  0  0  0  0
    0.0570    1.1270    0.0000 H   0  0  0  0  0  0  0  0  0  0  0  0
    2.3520    2.0057    0.0000 H   0  0  0  0  0  0  0  0  0  0  0  0
    1.1607    3.4254    0.0000 H   0  0  0  0  0  0  0  0  0  0  0  0
    2.1662    3.0595    0.0000 H   0  0  0  0  0  0  0  0  0  0  0  0
   -0.9834    2.2785    0.0000 H   0  0  0  0  0  0  0  0  0  0  0  0
    0.4881    3.9667    0.0000 H   0  0  0  0  0  0  0  0  0  0  0  0
   -0.5657    4.1525    0.0000 H   0  0  0  0  0  0  0  0  0  0  0  0
   -1.6754    2.4996    0.0000 H   0  0  0  0  0  0  0  0  0  0  0  0
   -2.4727    5.2143    0.0000 H   0  0  0  0  0  0  0  0  0  0  0  0
   -2.7946    3.3892    0.0000 H   0  0  0  0  0  0  0  0  0  0  0  0
   -3.1605    4.3946    0.0000 H   0  0  0  0  0  0  0  0  0  0  0  0
    0.2897    4.5117    0.0000 H   0  0  0  0  0  0  0  0  0  0  0  0
   -1.1300    5.7030    0.0000 H   0  0  0  0  0  0  0  0  0  0  0  0
   -0.0762    5.5172    0.0000 H   0  0  0  0  0  0  0  0  0  0  0  0
    4.9430    0.5917    0.0000 H   0  0  0  0  0  0  0  0  0  0  0  0
    4.3235   -1.9101    0.0000 H   0  0  0  0  0  0  0  0  0  0  0  0
    6.1805   -0.1227    0.0000 H   0  0  0  0  0  0  0  0  0  0  0  0
    5.5610   -2.6246    0.0000 H   0  0  0  0  0  0  0  0  0  0  0  0
    7.4180   -0.8372    0.0000 H   0  0  0  0  0  0  0  0  0  0  0  0
    6.7985   -3.3391    0.0000 H   0  0  0  0  0  0  0  0  0  0  0  0
    8.6555   -1.5517    0.0000 H   0  0  0  0  0  0  0  0  0  0  0  0
    8.0360   -4.0536    0.0000 H   0  0  0  0  0  0  0  0  0  0  0  0
   10.7265   -2.4454    0.0000 H   0  0  0  0  0  0  0  0  0  0  0  0
  1  2  1  0  0  0  0
  1 34  1  0  0  0  0
  1 35  1  0  0  0  0
  1 36  1  0  0  0  0
  3  2  1  0  0  0  0
  3  4  1  0  0  0  0
  3 10  1  0  0  0  0
  3 37  1  1  0  0  0
  4  5  1  0  0  0  0
  4 20  1  0  0  0  0
  4 38  1  1  0  0  0
  5  6  1  0  0  0  0
  5 39  1  0  0  0  0
  5 40  1  0  0  0  0
  6  7  1  0  0  0  0
  6 41  1  0  0  0  0
  6 42  1  0  0  0  0
  7  8  1  0  0  0  0
  7  9  1  1  0  0  0
  7 10  1  0  0  0  0
  8  9  1  0  0  0  0
  8 43  1  0  0  0  0
  8 44  1  0  0  0  0
 10 11  1  0  0  0  0
 10 45  1  6  0  0  0
 11 12  1  6  0  0  0
 11 13  1  0  0  0  0
 11 14  1  0  0  0  0
 12 46  1  0  0  0  0
 12 47  1  0  0  0  0
 12 48  1  0  0  0  0
 13 14  1  0  0  0  0
 14 15  1  0  0  0  0
 14 49  1  1  0  0  0
 15 16  1  0  0  0  0
 15 50  1  0  0  0  0
 15 51  1  0  0  0  0
 16 17  2  0  0  0  0
 16 52  1  0  0  0  0
 17 18  1  0  0  0  0
 17 19  1  0  0  0  0
 18 53  1  0  0  0  0
 18 54  1  0  0  0  0
 18 55  1  0  0  0  0
 19 56  1  0  0  0  0
 19 57  1  0  0  0  0
 19 58  1  0  0  0  0
 20 21  1  0  0  0  0
 21 22  2  0  0  0  0
 21 23  1  0  0  0  0
 23 24  2  0  0  0  0
 23 59  1  0  0  0  0
 24 25  1  0  0  0  0
 24 60  1  0  0  0  0
 25 26  2  0  0  0  0
 25 61  1  0  0  0  0
 26 27  1  0  0  0  0
 26 62  1  0  0  0  0
 27 28  2  0  0  0  0
 27 63  1  0  0  0  0
 28 29  1  0  0  0  0
 28 64  1  0  0  0  0
 29 30  2  0  0  0  0
 29 65  1  0  0  0  0
 30 31  1  0  0  0  0
 30 66  1  0  0  0  0
 31 32  1  0  0  0  0
 31 33  2  0  0  0  0
 32 67  1  0  0  0  0
M  END
>  <DRUGBANK_ID>
DB02640

>  <SECONDARY_ACCESSION_NUMBERS>
EXPT01509

>  <COMMON_NAME>
Fumagillin

>  <CAS_NUMBER>
23110-15-8

>  <UNII>
7OW73204U1

>  <SYNONYMS>
fumagilina; Fumagillin

$$$$
