
 OpenBabel10282417072D

 22 22  0  0  0  0  0  0  0  0999 V2000
    0.7132    1.0313    0.0000 N   0  0  0  0  0  0  0  0  0  0  0  0
   -0.0025    1.4388    0.0000 N   0  0  0  0  0  0  0  0  0  0  0  0
   -0.0025   -0.2063    0.0000 C   0  0  0  0  0  0  0  0  0  0  0  0
    0.7132    0.2063    0.0000 C   0  0  3  0  0  0  0  0  0  0  0  0
   -0.7132    0.2063    0.0000 C   0  0  0  0  0  0  0  0  0  0  0  0
   -0.0025   -1.0313    0.0000 C   0  0  0  0  0  0  0  0  0  0  0  0
   -1.4288   -0.2063    0.0000 C   0  0  0  0  0  0  0  0  0  0  0  0
   -0.7132   -1.4388    0.0000 C   0  0  0  0  0  0  0  0  0  0  0  0
   -1.4288   -1.0313    0.0000 C   0  0  0  0  0  0  0  0  0  0  0  0
    1.4288   -0.2063    0.0000 C   0  0  0  0  0  0  0  0  0  0  0  0
    1.5950    1.5439    0.0000 H   0  0  0  0  0  0  0  0  0  0  0  0
   -0.0086    2.4588    0.0000 H   0  0  0  0  0  0  0  0  0  0  0  0
   -0.8828    0.9235    0.0000 H   0  0  0  0  0  0  0  0  0  0  0  0
   -0.2133    0.7416    0.0000 H   0  0  0  0  0  0  0  0  0  0  0  0
   -0.7117    1.2383    0.0000 H   0  0  0  0  0  0  0  0  0  0  0  0
    0.8905   -1.5486    0.0000 H   0  0  0  0  0  0  0  0  0  0  0  0
   -2.3224    0.3100    0.0000 H   0  0  0  0  0  0  0  0  0  0  0  0
   -0.7117   -2.4708    0.0000 H   0  0  0  0  0  0  0  0  0  0  0  0
   -2.3210   -1.5500    0.0000 H   0  0  0  0  0  0  0  0  0  0  0  0
    1.4294   -1.2763    0.0000 H   0  0  0  0  0  0  0  0  0  0  0  0
    2.3551    0.3292    0.0000 H   0  0  0  0  0  0  0  0  0  0  0  0
    2.3558   -0.7408    0.0000 H   0  0  0  0  0  0  0  0  0  0  0  0
  1  2  1  0  0  0  0
  1  4  1  0  0  0  0
  1 11  1  0  0  0  0
  2 12  1  0  0  0  0
  2 13  1  0  0  0  0
  3  4  1  0  0  0  0
  3  5  2  0  0  0  0
  3  6  1  0  0  0  0
  4 10  1  0  0  0  0
  4 14  1  0  0  0  0
  5  7  1  0  0  0  0
  5 15  1  0  0  0  0
  6  8  2  0  0  0  0
  6 16  1  0  0  0  0
  7  9  2  0  0  0  0
  7 17  1  0  0  0  0
  8  9  1  0  0  0  0
  8 18  1  0  0  0  0
  9 19  1  0  0  0  0
 10 20  1  0  0  0  0
 10 21  1  0  0  0  0
 10 22  1  0  0  0  0
M  END
>  <DRUGBANK_ID>
DB09248

>  <COMMON_NAME>
Mebanazine

>  <CAS_NUMBER>
65-64-5

>  <UNII>
Z5R55CJ4CG

>  <SYNONYMS>
Mebanazine

$$$$
