
 OpenBabel10282417072D

 63 67  0  0  1  0  0  0  0  0999 V2000
   -0.2135    0.8531    0.0000 O   0  0  0  0  0  0  0  0  0  0  0  0
   -0.2135    0.0281    0.0000 C   0  0  0  0  0  0  0  0  0  0  0  0
   -0.9280   -0.3844    0.0000 C   0  0  0  0  0  0  0  0  0  0  0  0
   -1.6425    0.0281    0.0000 C   0  0  1  0  0  0  0  0  0  0  0  0
   -1.6425    0.8531    0.0000 C   0  0  0  0  0  0  0  0  0  0  0  0
   -2.0550    1.5676    0.0000 C   0  0  0  0  0  0  0  0  0  0  0  0
   -1.2300    1.5676    0.0000 C   0  0  0  0  0  0  0  0  0  0  0  0
   -2.3569   -0.3844    0.0000 C   0  0  0  0  0  0  0  0  0  0  0  0
   -2.3569   -1.2094    0.0000 C   0  0  0  0  0  0  0  0  0  0  0  0
   -3.0714   -1.6219    0.0000 C   0  0  0  0  0  0  0  0  0  0  0  0
   -3.7859   -1.2094    0.0000 C   0  0  0  0  0  0  0  0  0  0  0  0
   -3.7859   -0.3844    0.0000 C   0  0  0  0  0  0  0  0  0  0  0  0
   -4.5004    0.0281    0.0000 N   0  0  0  0  0  0  0  0  0  0  0  0
   -5.2148   -0.3844    0.0000 S   0  0  0  0  0  0  0  0  0  0  0  0
   -4.8023   -1.0989    0.0000 O   0  0  0  0  0  0  0  0  0  0  0  0
   -5.6273    0.3301    0.0000 O   0  0  0  0  0  0  0  0  0  0  0  0
   -5.9293   -0.7969    0.0000 C   0  0  0  0  0  0  0  0  0  0  0  0
   -5.9293   -1.6219    0.0000 C   0  0  0  0  0  0  0  0  0  0  0  0
   -6.6438   -2.0344    0.0000 C   0  0  0  0  0  0  0  0  0  0  0  0
   -7.3582   -1.6219    0.0000 C   0  0  0  0  0  0  0  0  0  0  0  0
   -7.3582   -0.7969    0.0000 C   0  0  0  0  0  0  0  0  0  0  0  0
   -6.6438   -0.3844    0.0000 C   0  0  0  0  0  0  0  0  0  0  0  0
   -3.0714    0.0281    0.0000 C   0  0  0  0  0  0  0  0  0  0  0  0
   -0.9280   -1.2094    0.0000 C   0  0  0  0  0  0  0  0  0  0  0  0
   -1.6425   -1.6219    0.0000 O   0  0  0  0  0  0  0  0  0  0  0  0
   -0.2135   -1.6219    0.0000 O   0  0  0  0  0  0  0  0  0  0  0  0
    0.5009   -1.2094    0.0000 C   0  0  0  0  0  0  0  0  0  0  0  0
    0.5009   -0.3844    0.0000 C   0  0  0  0  0  0  0  0  0  0  0  0
    1.0843    0.1990    0.0000 C   0  0  0  0  0  0  0  0  0  0  0  0
    1.9093    0.1990    0.0000 C   0  0  0  0  0  0  0  0  0  0  0  0
    2.4927   -0.3844    0.0000 C   0  0  0  0  0  0  0  0  0  0  0  0
    2.4927   -1.2094    0.0000 C   0  0  0  0  0  0  0  0  0  0  0  0
    1.9093   -1.7928    0.0000 C   0  0  0  0  0  0  0  0  0  0  0  0
    1.0843   -1.7928    0.0000 C   0  0  0  0  0  0  0  0  0  0  0  0
    0.5980    1.3216    0.0000 H   0  0  0  0  0  0  0  0  0  0  0  0
   -1.6425   -1.0419    0.0000 H   0  0  0  0  0  0  0  0  0  0  0  0
   -1.6425    1.9231    0.0000 H   0  0  0  0  0  0  0  0  0  0  0  0
   -2.9816    2.1026    0.0000 H   0  0  0  0  0  0  0  0  0  0  0  0
   -1.7781    2.6011    0.0000 H   0  0  0  0  0  0  0  0  0  0  0  0
   -0.3034    2.1026    0.0000 H   0  0  0  0  0  0  0  0  0  0  0  0
   -0.4734    0.8110    0.0000 H   0  0  0  0  0  0  0  0  0  0  0  0
   -1.4632   -1.7254    0.0000 H   0  0  0  0  0  0  0  0  0  0  0  0
   -3.0714   -2.6539    0.0000 H   0  0  0  0  0  0  0  0  0  0  0  0
   -4.6796   -1.7254    0.0000 H   0  0  0  0  0  0  0  0  0  0  0  0
   -4.5004    1.0126    0.0000 H   0  0  0  0  0  0  0  0  0  0  0  0
   -5.0356   -2.1379    0.0000 H   0  0  0  0  0  0  0  0  0  0  0  0
   -6.6438   -3.0664    0.0000 H   0  0  0  0  0  0  0  0  0  0  0  0
   -8.2519   -2.1379    0.0000 H   0  0  0  0  0  0  0  0  0  0  0  0
   -8.2519   -0.2809    0.0000 H   0  0  0  0  0  0  0  0  0  0  0  0
   -6.6438    0.6476    0.0000 H   0  0  0  0  0  0  0  0  0  0  0  0
   -3.0714    1.0601    0.0000 H   0  0  0  0  0  0  0  0  0  0  0  0
    0.6748    1.1876    0.0000 H   0  0  0  0  0  0  0  0  0  0  0  0
    1.6788    1.0887    0.0000 H   0  0  0  0  0  0  0  0  0  0  0  0
    2.3188    1.1876    0.0000 H   0  0  0  0  0  0  0  0  0  0  0  0
    2.9587    0.4077    0.0000 H   0  0  0  0  0  0  0  0  0  0  0  0
    3.4813    0.0251    0.0000 H   0  0  0  0  0  0  0  0  0  0  0  0
    3.3824   -0.9789    0.0000 H   0  0  0  0  0  0  0  0  0  0  0  0
    3.4813   -1.6189    0.0000 H   0  0  0  0  0  0  0  0  0  0  0  0
    2.7014   -2.2588    0.0000 H   0  0  0  0  0  0  0  0  0  0  0  0
    2.3188   -2.7814    0.0000 H   0  0  0  0  0  0  0  0  0  0  0  0
    1.3148   -2.6825    0.0000 H   0  0  0  0  0  0  0  0  0  0  0  0
    0.6748   -2.7814    0.0000 H   0  0  0  0  0  0  0  0  0  0  0  0
    0.0349   -2.0015    0.0000 H   0  0  0  0  0  0  0  0  0  0  0  0
  1  2  1  0  0  0  0
  1 35  1  0  0  0  0
  2  3  2  0  0  0  0
  2 28  1  0  0  0  0
  3  4  1  0  0  0  0
  3 24  1  0  0  0  0
  4  5  1  0  0  0  0
  4  8  1  0  0  0  0
  4 36  1  1  0  0  0
  5  6  1  0  0  0  0
  5  7  1  0  0  0  0
  5 37  1  0  0  0  0
  6  7  1  0  0  0  0
  6 38  1  0  0  0  0
  6 39  1  0  0  0  0
  7 40  1  0  0  0  0
  7 41  1  0  0  0  0
  8  9  2  0  0  0  0
  8 23  1  0  0  0  0
  9 10  1  0  0  0  0
  9 42  1  0  0  0  0
 10 11  2  0  0  0  0
 10 43  1  0  0  0  0
 11 12  1  0  0  0  0
 11 44  1  0  0  0  0
 12 13  1  0  0  0  0
 12 23  2  0  0  0  0
 13 14  1  0  0  0  0
 13 45  1  0  0  0  0
 14 15  2  0  0  0  0
 14 16  2  0  0  0  0
 14 17  1  0  0  0  0
 17 18  2  0  0  0  0
 17 22  1  0  0  0  0
 18 19  1  0  0  0  0
 18 46  1  0  0  0  0
 19 20  2  0  0  0  0
 19 47  1  0  0  0  0
 20 21  1  0  0  0  0
 20 48  1  0  0  0  0
 21 22  2  0  0  0  0
 21 49  1  0  0  0  0
 22 50  1  0  0  0  0
 23 51  1  0  0  0  0
 24 25  2  0  0  0  0
 24 26  1  0  0  0  0
 26 27  1  0  0  0  0
 27 28  2  0  0  0  0
 27 34  1  0  0  0  0
 28 29  1  0  0  0  0
 29 30  1  0  0  0  0
 29 52  1  0  0  0  0
 29 53  1  0  0  0  0
 30 31  1  0  0  0  0
 30 54  1  0  0  0  0
 30 55  1  0  0  0  0
 31 32  1  0  0  0  0
 31 56  1  0  0  0  0
 31 57  1  0  0  0  0
 32 33  1  0  0  0  0
 32 58  1  0  0  0  0
 32 59  1  0  0  0  0
 33 34  1  0  0  0  0
 33 60  1  0  0  0  0
 33 61  1  0  0  0  0
 34 62  1  0  0  0  0
 34 63  1  0  0  0  0
M  END
>  <DRUGBANK_ID>
DB02033

>  <SECONDARY_ACCESSION_NUMBERS>
EXPT01894

>  <COMMON_NAME>
N-(3-Cyclopropyl(5,6,7,8,9,10-Hexahydro-2-Oxo-2h-Cycloocta[B]Pyran-3-Yl)Methyl)Phenylbenzensulfonamide

$$$$
