
 OpenBabel10282417072D

 76 79  0  0  0  0  0  0  0  0999 V2000
   -6.3953    3.9007    0.0000 C   0  0  0  0  0  0  0  0  0  0  0  0
   -5.6417    4.2363    0.0000 C   0  0  0  0  0  0  0  0  0  0  0  0
   -4.9742    3.7513    0.0000 C   0  0  0  0  0  0  0  0  0  0  0  0
   -4.2205    4.0869    0.0000 C   0  0  0  0  0  0  0  0  0  0  0  0
   -3.5531    3.6020    0.0000 C   0  0  0  0  0  0  0  0  0  0  0  0
   -2.7685    3.8569    0.0000 N   0  0  0  0  0  0  0  0  0  0  0  0
   -2.2836    3.1895    0.0000 C   0  0  0  0  0  0  0  0  0  0  0  0
   -2.7685    2.5220    0.0000 C   0  0  0  0  0  0  0  0  0  0  0  0
   -3.5531    2.7770    0.0000 N   0  0  0  0  0  0  0  0  0  0  0  0
   -4.2205    2.2920    0.0000 C   0  0  0  0  0  0  0  0  0  0  0  0
   -4.1343    1.4716    0.0000 C   0  0  0  0  0  0  0  0  0  0  0  0
   -4.8017    0.9866    0.0000 C   0  0  0  0  0  0  0  0  0  0  0  0
   -5.5554    1.3222    0.0000 C   0  0  0  0  0  0  0  0  0  0  0  0
   -5.6417    2.1427    0.0000 C   0  0  0  0  0  0  0  0  0  0  0  0
   -4.9742    2.6276    0.0000 C   0  0  0  0  0  0  0  0  0  0  0  0
   -6.2229    0.8373    0.0000 O   0  0  0  0  0  0  0  0  0  0  0  0
   -6.9765    1.1728    0.0000 C   0  0  0  0  0  0  0  0  0  0  0  0
   -7.6440    0.6879    0.0000 C   0  0  0  0  0  0  0  0  0  0  0  0
   -8.3976    1.0235    0.0000 C   0  0  0  0  0  0  0  0  0  0  0  0
   -8.4839    1.8440    0.0000 C   0  0  0  0  0  0  0  0  0  0  0  0
   -7.8164    2.3289    0.0000 C   0  0  0  0  0  0  0  0  0  0  0  0
   -7.0628    1.9933    0.0000 C   0  0  0  0  0  0  0  0  0  0  0  0
   -9.2376    2.1795    0.0000 Cl  0  0  0  0  0  0  0  0  0  0  0  0
   -1.4586    3.1895    0.0000 C   0  0  0  0  0  0  0  0  0  0  0  0
   -1.0461    3.9039    0.0000 C   0  0  0  0  0  0  0  0  0  0  0  0
   -0.2211    3.9039    0.0000 C   0  0  0  0  0  0  0  0  0  0  0  0
    0.1914    3.1895    0.0000 C   0  0  0  0  0  0  0  0  0  0  0  0
   -0.2211    2.4750    0.0000 C   0  0  0  0  0  0  0  0  0  0  0  0
   -1.0461    2.4750    0.0000 C   0  0  0  0  0  0  0  0  0  0  0  0
    1.0164    3.1895    0.0000 O   0  0  0  0  0  0  0  0  0  0  0  0
    1.4289    2.4750    0.0000 C   0  0  0  0  0  0  0  0  0  0  0  0
    2.2539    2.4750    0.0000 C   0  0  0  0  0  0  0  0  0  0  0  0
    2.6664    1.7605    0.0000 C   0  0  0  0  0  0  0  0  0  0  0  0
    3.4914    1.7605    0.0000 N   0  0  0  0  0  0  0  0  0  0  0  0
    3.9039    1.0461    0.0000 C   0  0  0  0  0  0  0  0  0  0  0  0
    4.7289    1.0461    0.0000 C   0  0  0  0  0  0  0  0  0  0  0  0
    3.9039    2.4750    0.0000 C   0  0  0  0  0  0  0  0  0  0  0  0
    4.7289    2.4750    0.0000 C   0  0  0  0  0  0  0  0  0  0  0  0
   -7.2610    4.5296    0.0000 H   0  0  0  0  0  0  0  0  0  0  0  0
   -6.5071    2.8366    0.0000 H   0  0  0  0  0  0  0  0  0  0  0  0
   -7.3728    3.4654    0.0000 H   0  0  0  0  0  0  0  0  0  0  0  0
   -5.5299    5.3004    0.0000 H   0  0  0  0  0  0  0  0  0  0  0  0
   -4.6642    4.6715    0.0000 H   0  0  0  0  0  0  0  0  0  0  0  0
   -5.0860    2.6872    0.0000 H   0  0  0  0  0  0  0  0  0  0  0  0
   -4.1085    3.1224    0.0000 H   0  0  0  0  0  0  0  0  0  0  0  0
   -4.1087    5.1510    0.0000 H   0  0  0  0  0  0  0  0  0  0  0  0
   -3.2430    4.5221    0.0000 H   0  0  0  0  0  0  0  0  0  0  0  0
   -2.4496    1.5405    0.0000 H   0  0  0  0  0  0  0  0  0  0  0  0
   -3.1915    1.0519    0.0000 H   0  0  0  0  0  0  0  0  0  0  0  0
   -4.6938   -0.0397    0.0000 H   0  0  0  0  0  0  0  0  0  0  0  0
   -6.5845    2.5624    0.0000 H   0  0  0  0  0  0  0  0  0  0  0  0
   -5.0820    3.6540    0.0000 H   0  0  0  0  0  0  0  0  0  0  0  0
   -7.5362   -0.3385    0.0000 H   0  0  0  0  0  0  0  0  0  0  0  0
   -9.2325    0.4169    0.0000 H   0  0  0  0  0  0  0  0  0  0  0  0
   -7.9242    3.3553    0.0000 H   0  0  0  0  0  0  0  0  0  0  0  0
   -6.2279    2.5999    0.0000 H   0  0  0  0  0  0  0  0  0  0  0  0
   -1.5621    4.7976    0.0000 H   0  0  0  0  0  0  0  0  0  0  0  0
    0.2949    4.7976    0.0000 H   0  0  0  0  0  0  0  0  0  0  0  0
    0.2949    1.5813    0.0000 H   0  0  0  0  0  0  0  0  0  0  0  0
   -1.5621    1.5813    0.0000 H   0  0  0  0  0  0  0  0  0  0  0  0
    0.8939    1.5484    0.0000 H   0  0  0  0  0  0  0  0  0  0  0  0
    1.9639    1.5484    0.0000 H   0  0  0  0  0  0  0  0  0  0  0  0
    2.7889    3.4016    0.0000 H   0  0  0  0  0  0  0  0  0  0  0  0
    3.3239    2.4750    0.0000 H   0  0  0  0  0  0  0  0  0  0  0  0
    2.1314    0.8339    0.0000 H   0  0  0  0  0  0  0  0  0  0  0  0
    3.2014    0.8339    0.0000 H   0  0  0  0  0  0  0  0  0  0  0  0
    3.3689    0.1194    0.0000 H   0  0  0  0  0  0  0  0  0  0  0  0
    4.4389    0.1195    0.0000 H   0  0  0  0  0  0  0  0  0  0  0  0
    5.2639    0.1195    0.0000 H   0  0  0  0  0  0  0  0  0  0  0  0
    5.2639    1.9727    0.0000 H   0  0  0  0  0  0  0  0  0  0  0  0
    5.7989    1.0461    0.0000 H   0  0  0  0  0  0  0  0  0  0  0  0
    3.3689    3.4016    0.0000 H   0  0  0  0  0  0  0  0  0  0  0  0
    4.4389    3.4016    0.0000 H   0  0  0  0  0  0  0  0  0  0  0  0
    5.2639    1.5484    0.0000 H   0  0  0  0  0  0  0  0  0  0  0  0
    5.2639    3.4016    0.0000 H   0  0  0  0  0  0  0  0  0  0  0  0
    5.7989    2.4750    0.0000 H   0  0  0  0  0  0  0  0  0  0  0  0
  1  2  1  0  0  0  0
  1 39  1  0  0  0  0
  1 40  1  0  0  0  0
  1 41  1  0  0  0  0
  2  3  1  0  0  0  0
  2 42  1  0  0  0  0
  2 43  1  0  0  0  0
  3  4  1  0  0  0  0
  3 44  1  0  0  0  0
  3 45  1  0  0  0  0
  4  5  1  0  0  0  0
  4 46  1  0  0  0  0
  4 47  1  0  0  0  0
  5  6  2  0  0  0  0
  5  9  1  0  0  0  0
  6  7  1  0  0  0  0
  7  8  2  0  0  0  0
  7 24  1  0  0  0  0
  8  9  1  0  0  0  0
  8 48  1  0  0  0  0
  9 10  1  0  0  0  0
 10 11  2  0  0  0  0
 10 15  1  0  0  0  0
 11 12  1  0  0  0  0
 11 49  1  0  0  0  0
 12 13  2  0  0  0  0
 12 50  1  0  0  0  0
 13 14  1  0  0  0  0
 13 16  1  0  0  0  0
 14 15  2  0  0  0  0
 14 51  1  0  0  0  0
 15 52  1  0  0  0  0
 16 17  1  0  0  0  0
 17 18  2  0  0  0  0
 17 22  1  0  0  0  0
 18 19  1  0  0  0  0
 18 53  1  0  0  0  0
 19 20  2  0  0  0  0
 19 54  1  0  0  0  0
 20 21  1  0  0  0  0
 20 23  1  0  0  0  0
 21 22  2  0  0  0  0
 21 55  1  0  0  0  0
 22 56  1  0  0  0  0
 24 25  2  0  0  0  0
 24 29  1  0  0  0  0
 25 26  1  0  0  0  0
 25 57  1  0  0  0  0
 26 27  2  0  0  0  0
 26 58  1  0  0  0  0
 27 28  1  0  0  0  0
 27 30  1  0  0  0  0
 28 29  2  0  0  0  0
 28 59  1  0  0  0  0
 29 60  1  0  0  0  0
 30 31  1  0  0  0  0
 31 32  1  0  0  0  0
 31 61  1  0  0  0  0
 31 62  1  0  0  0  0
 32 33  1  0  0  0  0
 32 63  1  0  0  0  0
 32 64  1  0  0  0  0
 33 34  1  0  0  0  0
 33 65  1  0  0  0  0
 33 66  1  0  0  0  0
 34 35  1  0  0  0  0
 34 37  1  0  0  0  0
 35 36  1  0  0  0  0
 35 67  1  0  0  0  0
 35 68  1  0  0  0  0
 36 69  1  0  0  0  0
 36 70  1  0  0  0  0
 36 71  1  0  0  0  0
 37 38  1  0  0  0  0
 37 72  1  0  0  0  0
 37 73  1  0  0  0  0
 38 74  1  0  0  0  0
 38 75  1  0  0  0  0
 38 76  1  0  0  0  0
M  END
>  <DRUGBANK_ID>
DB12689

>  <COMMON_NAME>
Azeliragon

>  <CAS_NUMBER>
603148-36-3

>  <UNII>
LPU25F15UQ

>  <SYNONYMS>
Azeliragon

$$$$
