
 OpenBabel10282417072D

 53 56  0  0  0  0  0  0  0  0999 V2000
   -3.7751    0.4729    0.0000 C   0  0  0  0  0  0  0  0  0  0  0  0
   -3.7762   -0.3544    0.0000 N   0  0  0  0  0  0  0  0  0  0  0  0
   -3.0613   -0.7673    0.0000 C   0  0  0  0  0  0  0  0  0  0  0  0
   -3.0632    0.8857    0.0000 C   0  0  0  0  0  0  0  0  0  0  0  0
   -2.3477    0.4765    0.0000 C   0  0  0  0  0  0  0  0  0  0  0  0
   -2.3475   -0.3544    0.0000 C   0  0  0  0  0  0  0  0  0  0  0  0
   -1.5569   -0.6111    0.0000 N   0  0  0  0  0  0  0  0  0  0  0  0
   -1.0686    0.0614    0.0000 C   0  0  0  0  0  0  0  0  0  0  0  0
   -1.5573    0.7336    0.0000 C   0  0  0  0  0  0  0  0  0  0  0  0
   -1.1414    1.4450    0.0000 C   0  0  0  0  0  0  0  0  0  0  0  0
   -0.3164    1.4405    0.0000 C   0  0  0  0  0  0  0  0  0  0  0  0
   -1.5499    2.1618    0.0000 O   0  0  0  0  0  0  0  0  0  0  0  0
    0.0921    0.7238    0.0000 N   0  0  0  0  0  0  0  0  0  0  0  0
    0.1000    2.1527    0.0000 O   0  0  0  0  0  0  0  0  0  0  0  0
   -0.3272    0.0120    0.0000 C   0  0  0  0  0  0  0  0  0  0  0  0
    0.0777   -0.7026    0.0000 C   0  0  0  0  0  0  0  0  0  0  0  0
    0.9031   -0.7114    0.0000 N   0  0  0  0  0  0  0  0  0  0  0  0
    1.3219    0.0006    0.0000 C   0  0  0  0  0  0  0  0  0  0  0  0
    0.9151    0.7216    0.0000 C   0  0  0  0  0  0  0  0  0  0  0  0
    1.3091   -1.4297    0.0000 C   0  0  0  0  0  0  0  0  0  0  0  0
    0.8899   -2.1403    0.0000 O   0  0  0  0  0  0  0  0  0  0  0  0
    2.1340   -1.4372    0.0000 C   0  0  0  0  0  0  0  0  0  0  0  0
    2.5371   -2.1538    0.0000 C   0  0  0  0  0  0  0  0  0  0  0  0
    3.3614   -2.1618    0.0000 C   0  0  0  0  0  0  0  0  0  0  0  0
    3.7814   -1.4506    0.0000 C   0  0  0  0  0  0  0  0  0  0  0  0
    3.3711   -0.7299    0.0000 C   0  0  0  0  0  0  0  0  0  0  0  0
    2.5482   -0.7255    0.0000 C   0  0  0  0  0  0  0  0  0  0  0  0
   -3.0657    1.7107    0.0000 O   0  0  0  0  0  0  0  0  0  0  0  0
   -3.7814    2.1212    0.0000 C   0  0  0  0  0  0  0  0  0  0  0  0
   -3.0611   -1.5924    0.0000 O   0  0  0  0  0  0  0  0  0  0  0  0
   -2.3465   -2.0048    0.0000 C   0  0  0  0  0  0  0  0  0  0  0  0
   -4.6690    0.9887    0.0000 H   0  0  0  0  0  0  0  0  0  0  0  0
   -1.2524   -1.5473    0.0000 H   0  0  0  0  0  0  0  0  0  0  0  0
   -0.0366    0.0617    0.0000 H   0  0  0  0  0  0  0  0  0  0  0  0
   -1.3972    0.0210    0.0000 H   0  0  0  0  0  0  0  0  0  0  0  0
   -0.8542    0.9432    0.0000 H   0  0  0  0  0  0  0  0  0  0  0  0
   -0.4660   -1.6242    0.0000 H   0  0  0  0  0  0  0  0  0  0  0  0
    0.6034   -1.6346    0.0000 H   0  0  0  0  0  0  0  0  0  0  0  0
    2.3919   -0.0090    0.0000 H   0  0  0  0  0  0  0  0  0  0  0  0
    1.8656    0.9221    0.0000 H   0  0  0  0  0  0  0  0  0  0  0  0
    1.4559    1.6449    0.0000 H   0  0  0  0  0  0  0  0  0  0  0  0
    1.9851    0.7129    0.0000 H   0  0  0  0  0  0  0  0  0  0  0  0
    2.0118   -3.0421    0.0000 H   0  0  0  0  0  0  0  0  0  0  0  0
    3.8686   -3.0605    0.0000 H   0  0  0  0  0  0  0  0  0  0  0  0
    4.8134   -1.4588    0.0000 H   0  0  0  0  0  0  0  0  0  0  0  0
    3.8922    0.1609    0.0000 H   0  0  0  0  0  0  0  0  0  0  0  0
    2.0361    0.1705    0.0000 H   0  0  0  0  0  0  0  0  0  0  0  0
   -3.7844    3.1912    0.0000 H   0  0  0  0  0  0  0  0  0  0  0  0
   -4.7065    1.5836    0.0000 H   0  0  0  0  0  0  0  0  0  0  0  0
   -4.7096    2.6536    0.0000 H   0  0  0  0  0  0  0  0  0  0  0  0
   -2.3463   -3.0748    0.0000 H   0  0  0  0  0  0  0  0  0  0  0  0
   -1.4200   -1.4696    0.0000 H   0  0  0  0  0  0  0  0  0  0  0  0
   -1.4198   -2.5396    0.0000 H   0  0  0  0  0  0  0  0  0  0  0  0
  1  2  2  0  0  0  0
  1 32  1  0  0  0  0
  2  3  1  0  0  0  0
  3  6  2  0  0  0  0
  3 30  1  0  0  0  0
  4  1  1  0  0  0  0
  4 28  1  0  0  0  0
  5  4  2  0  0  0  0
  5  6  1  0  0  0  0
  6  7  1  0  0  0  0
  7  8  1  0  0  0  0
  7 33  1  0  0  0  0
  8  9  2  0  0  0  0
  8 34  1  0  0  0  0
  9  5  1  0  0  0  0
  9 10  1  0  0  0  0
 10 11  1  0  0  0  0
 10 12  2  0  0  0  0
 11 13  1  0  0  0  0
 11 14  2  0  0  0  0
 13 19  1  0  0  0  0
 13 15  1  0  0  0  0
 15 16  1  0  0  0  0
 15 35  1  0  0  0  0
 15 36  1  0  0  0  0
 16 17  1  0  0  0  0
 16 37  1  0  0  0  0
 16 38  1  0  0  0  0
 17 18  1  0  0  0  0
 17 20  1  0  0  0  0
 18 19  1  0  0  0  0
 18 39  1  0  0  0  0
 18 40  1  0  0  0  0
 19 41  1  0  0  0  0
 19 42  1  0  0  0  0
 20 21  2  0  0  0  0
 20 22  1  0  0  0  0
 22 23  2  0  0  0  0
 23 24  1  0  0  0  0
 23 43  1  0  0  0  0
 24 25  2  0  0  0  0
 24 44  1  0  0  0  0
 25 26  1  0  0  0  0
 25 45  1  0  0  0  0
 26 27  2  0  0  0  0
 26 46  1  0  0  0  0
 27 22  1  0  0  0  0
 27 47  1  0  0  0  0
 28 29  1  0  0  0  0
 29 48  1  0  0  0  0
 29 49  1  0  0  0  0
 29 50  1  0  0  0  0
 30 31  1  0  0  0  0
 31 51  1  0  0  0  0
 31 52  1  0  0  0  0
 31 53  1  0  0  0  0
M  END
>  <DRUGBANK_ID>
DB05532

>  <COMMON_NAME>
BMS-488043

>  <CAS_NUMBER>
452296-83-2

>  <UNII>
MKS21EJ435

$$$$
