
 OpenBabel10282417072D

 35 37  0  0  0  0  0  0  0  0999 V2000
    0.1612   -2.3874    0.0000 C   0  0  0  0  0  0  0  0  0  0  0  0
    0.3231   -3.1971    0.0000 C   0  0  0  0  0  0  0  0  0  0  0  0
   -0.2426   -3.7636    0.0000 C   0  0  0  0  0  0  0  0  0  0  0  0
   -1.0523   -3.5210    0.0000 C   0  0  0  0  0  0  0  0  0  0  0  0
   -1.2142   -2.7113    0.0000 C   0  0  0  0  0  0  0  0  0  0  0  0
   -0.5665   -2.1448    0.0000 C   0  0  0  0  0  0  0  0  0  0  0  0
   -0.7284   -1.3351    0.0000 S   0  0  3  0  0  0  0  0  0  0  0  0
   -0.1619   -0.7687    0.0000 C   0  0  0  0  0  0  0  0  0  0  0  0
    0.6470   -1.0112    0.0000 C   0  0  0  0  0  0  0  0  0  0  0  0
    1.2135   -0.5261    0.0000 C   0  0  0  0  0  0  0  0  0  0  0  0
    1.0515    0.2828    0.0000 C   0  0  0  0  0  0  0  0  0  0  0  0
    0.3231    0.5254    0.0000 C   0  0  0  0  0  0  0  0  0  0  0  0
    0.3231    1.3351    0.0000 N   0  0  0  0  0  0  0  0  0  0  0  0
    1.0515    1.5777    0.0000 C   0  0  0  0  0  0  0  0  0  0  0  0
    1.2948    2.3874    0.0000 N   0  0  0  0  0  0  0  0  0  0  0  0
    0.8090    2.9539    0.0000 C   0  0  0  0  0  0  0  0  0  0  0  0
    0.0000    2.7919    0.0000 O   0  0  0  0  0  0  0  0  0  0  0  0
   -0.5665    3.4397    0.0000 C   0  0  0  0  0  0  0  0  0  0  0  0
   -0.3231   -0.0411    0.0000 C   0  0  0  0  0  0  0  0  0  0  0  0
   -1.5374   -1.0926    0.0000 O   0  0  0  0  0  0  0  0  0  0  0  0
    1.0515    3.7636    0.0000 O   0  0  0  0  0  0  0  0  0  0  0  0
    1.5374    0.9307    0.0000 N   0  0  0  0  0  0  0  0  0  0  0  0
    0.9349   -1.7045    0.0000 H   0  0  0  0  0  0  0  0  0  0  0  0
    1.3109   -3.4958    0.0000 H   0  0  0  0  0  0  0  0  0  0  0  0
    0.0102   -4.7642    0.0000 H   0  0  0  0  0  0  0  0  0  0  0  0
   -1.8154   -4.2157    0.0000 H   0  0  0  0  0  0  0  0  0  0  0  0
   -2.1914   -2.3794    0.0000 H   0  0  0  0  0  0  0  0  0  0  0  0
    0.8606   -2.0209    0.0000 H   0  0  0  0  0  0  0  0  0  0  0  0
    2.1890   -0.8629    0.0000 H   0  0  0  0  0  0  0  0  0  0  0  0
    2.2580    2.5912    0.0000 H   0  0  0  0  0  0  0  0  0  0  0  0
   -0.2211    4.4524    0.0000 H   0  0  0  0  0  0  0  0  0  0  0  0
   -1.6162    3.2324    0.0000 H   0  0  0  0  0  0  0  0  0  0  0  0
   -1.2709    4.2452    0.0000 H   0  0  0  0  0  0  0  0  0  0  0  0
   -1.3038    0.2801    0.0000 H   0  0  0  0  0  0  0  0  0  0  0  0
    2.5219    0.9310    0.0000 H   0  0  0  0  0  0  0  0  0  0  0  0
  1  2  2  0  0  0  0
  1  6  1  0  0  0  0
  1 23  1  0  0  0  0
  2  3  1  0  0  0  0
  2 24  1  0  0  0  0
  3  4  2  0  0  0  0
  3 25  1  0  0  0  0
  4  5  1  0  0  0  0
  4 26  1  0  0  0  0
  5  6  2  0  0  0  0
  5 27  1  0  0  0  0
  6  7  1  0  0  0  0
  7  8  1  0  0  0  0
  7 20  2  0  0  0  0
  8  9  2  0  0  0  0
  8 19  1  0  0  0  0
  9 10  1  0  0  0  0
  9 28  1  0  0  0  0
 10 11  2  0  0  0  0
 10 29  1  0  0  0  0
 11 12  1  0  0  0  0
 11 22  1  0  0  0  0
 12 13  1  0  0  0  0
 12 19  2  0  0  0  0
 13 14  2  0  0  0  0
 14 15  1  0  0  0  0
 14 22  1  0  0  0  0
 15 16  1  0  0  0  0
 15 30  1  0  0  0  0
 16 17  1  0  0  0  0
 16 21  2  0  0  0  0
 17 18  1  0  0  0  0
 18 31  1  0  0  0  0
 18 32  1  0  0  0  0
 18 33  1  0  0  0  0
 19 34  1  0  0  0  0
 22 35  1  0  0  0  0
M  END
>  <DRUGBANK_ID>
DB11446

>  <COMMON_NAME>
Oxfendazole

>  <CAS_NUMBER>
53716-50-0

>  <UNII>
OMP2H17F9E

>  <SYNONYMS>
(5-(phenylsulfinyl)-1H-benzimidazol-2-yl)carbamic acid methyl ester; 5-(phenylsulfinyl)-2-benzimidazolecarbamic acid methyl ester; 5-phenylsulfinyl-2-carbomethoxyaminobenzimidazole; Fenbendazole S-oxide; Fenbendazole sulfoxide; Fenbendazole sulphoxide; OFDZ; Oxfendazole

$$$$
