GIN
 OpenBabel10282417072D

 53 55  0  0  0  0  0  0  0  0999 V2000
    3.1353   -0.9313    0.0000 C   0  0  0  0  0  0  0  0  0  0  0  0
    3.8497   -2.1688    0.0000 C   0  0  0  0  0  0  0  0  0  0  0  0
    3.8497   -3.8188    0.0000 C   0  0  0  0  0  0  0  0  0  0  0  0
    3.1353   -3.4063    0.0000 C   0  0  0  0  0  0  0  0  0  0  0  0
    3.1353   -2.5813    0.0000 C   0  0  0  0  0  0  0  0  0  0  0  0
    3.8497   -4.6438    0.0000 C   0  0  0  0  0  0  0  0  0  0  0  0
    4.5642   -5.0563    0.0000 C   0  0  0  0  0  0  0  0  0  0  0  0
    4.5642   -5.8813    0.0000 C   0  0  0  0  0  0  0  0  0  0  0  0
    0.9918    0.3062    0.0000 C   0  0  0  0  0  0  0  0  0  0  0  0
    0.9918    1.1312    0.0000 C   0  0  0  0  0  0  0  0  0  0  0  0
    1.7063    1.5437    0.0000 C   0  0  0  0  0  0  0  0  0  0  0  0
    1.7063    2.3687    0.0000 C   0  0  0  0  0  0  0  0  0  0  0  0
    3.1353   -0.1063    0.0000 C   0  0  0  0  0  0  0  0  0  0  0  0
    3.8497    0.3062    0.0000 C   0  0  0  0  0  0  0  0  0  0  0  0
    3.8497    1.1312    0.0000 C   0  0  0  0  0  0  0  0  0  0  0  0
    3.1353    1.5437    0.0000 C   0  0  0  0  0  0  0  0  0  0  0  0
    2.4208    1.1312    0.0000 C   0  0  0  0  0  0  0  0  0  0  0  0
    2.4208    0.3062    0.0000 C   0  0  0  0  0  0  0  0  0  0  0  0
    1.7063   -0.1063    0.0000 N   0  0  0  0  0  0  0  0  0  0  0  0
    3.8497   -1.3438    0.0000 N   0  0  0  0  0  0  0  0  0  0  0  0
    2.4208   -1.3438    0.0000 O   0  0  0  0  0  0  0  0  0  0  0  0
    4.5642   -2.5813    0.0000 C   0  0  0  0  0  0  0  0  0  0  0  0
    4.5642   -3.4063    0.0000 C   0  0  0  0  0  0  0  0  0  0  0  0
    5.2787   -3.8188    0.0000 C   0  0  0  0  0  0  0  0  0  0  0  0
    5.9931   -4.2313    0.0000 F   0  0  0  0  0  0  0  0  0  0  0  0
    4.8662   -4.5333    0.0000 F   0  0  0  0  0  0  0  0  0  0  0  0
    5.6912   -3.1043    0.0000 F   0  0  0  0  0  0  0  0  0  0  0  0
    0.9918    2.7812    0.0000 C   0  0  0  0  0  0  0  0  0  0  0  0
    0.2774    2.3687    0.0000 N   0  0  0  0  0  0  0  0  0  0  0  0
    0.2774    1.5437    0.0000 C   0  0  0  0  0  0  0  0  0  0  0  0
    0.9918    3.6062    0.0000 O   0  0  0  0  0  0  0  0  0  0  0  0
    2.2416   -3.9223    0.0000 H   0  0  0  0  0  0  0  0  0  0  0  0
    2.2416   -2.0653    0.0000 H   0  0  0  0  0  0  0  0  0  0  0  0
    2.9231   -5.1788    0.0000 H   0  0  0  0  0  0  0  0  0  0  0  0
    3.8497   -5.7138    0.0000 H   0  0  0  0  0  0  0  0  0  0  0  0
    5.4908   -4.5213    0.0000 H   0  0  0  0  0  0  0  0  0  0  0  0
    5.4908   -5.5913    0.0000 H   0  0  0  0  0  0  0  0  0  0  0  0
    3.6376   -6.4163    0.0000 H   0  0  0  0  0  0  0  0  0  0  0  0
    5.4908   -6.4163    0.0000 H   0  0  0  0  0  0  0  0  0  0  0  0
    4.5642   -6.9513    0.0000 H   0  0  0  0  0  0  0  0  0  0  0  0
    0.0652   -0.2288    0.0000 H   0  0  0  0  0  0  0  0  0  0  0  0
    0.9918   -0.7638    0.0000 H   0  0  0  0  0  0  0  0  0  0  0  0
    2.6000    1.0277    0.0000 H   0  0  0  0  0  0  0  0  0  0  0  0
    2.6000    2.8847    0.0000 H   0  0  0  0  0  0  0  0  0  0  0  0
    4.7434   -0.2098    0.0000 H   0  0  0  0  0  0  0  0  0  0  0  0
    4.7434    1.6472    0.0000 H   0  0  0  0  0  0  0  0  0  0  0  0
    3.1353    2.5757    0.0000 H   0  0  0  0  0  0  0  0  0  0  0  0
    1.5271    1.6472    0.0000 H   0  0  0  0  0  0  0  0  0  0  0  0
    1.7063   -1.0908    0.0000 H   0  0  0  0  0  0  0  0  0  0  0  0
    4.7023   -0.8516    0.0000 H   0  0  0  0  0  0  0  0  0  0  0  0
    5.4579   -2.0653    0.0000 H   0  0  0  0  0  0  0  0  0  0  0  0
   -0.5752    2.8609    0.0000 H   0  0  0  0  0  0  0  0  0  0  0  0
   -0.6163    1.0277    0.0000 H   0  0  0  0  0  0  0  0  0  0  0  0
  1 21  2  0  0  0  0
  1 13  1  0  0  0  0
  1 20  1  0  0  0  0
  2 22  1  0  0  0  0
  2 20  1  0  0  0  0
  2  5  2  0  0  0  0
  3 23  1  0  0  0  0
  3  6  1  0  0  0  0
  3  4  2  0  0  0  0
  4  5  1  0  0  0  0
  4 32  1  0  0  0  0
  5 33  1  0  0  0  0
  6  7  1  0  0  0  0
  6 34  1  0  0  0  0
  6 35  1  0  0  0  0
  7  8  1  0  0  0  0
  7 36  1  0  0  0  0
  7 37  1  0  0  0  0
  8 38  1  0  0  0  0
  8 39  1  0  0  0  0
  8 40  1  0  0  0  0
  9 10  1  0  0  0  0
  9 19  1  0  0  0  0
  9 41  1  0  0  0  0
  9 42  1  0  0  0  0
 10 30  2  0  0  0  0
 10 11  1  0  0  0  0
 11 12  2  0  0  0  0
 11 43  1  0  0  0  0
 12 28  1  0  0  0  0
 12 44  1  0  0  0  0
 13 18  1  0  0  0  0
 13 14  2  0  0  0  0
 14 15  1  0  0  0  0
 14 45  1  0  0  0  0
 15 16  2  0  0  0  0
 15 46  1  0  0  0  0
 16 17  1  0  0  0  0
 16 47  1  0  0  0  0
 17 18  2  0  0  0  0
 17 48  1  0  0  0  0
 18 19  1  0  0  0  0
 19 49  1  0  0  0  0
 20 50  1  0  0  0  0
 22 23  2  0  0  0  0
 22 51  1  0  0  0  0
 23 24  1  0  0  0  0
 24 25  1  0  0  0  0
 24 27  1  0  0  0  0
 24 26  1  0  0  0  0
 28 31  2  0  0  0  0
 28 29  1  0  0  0  0
 29 30  1  0  0  0  0
 29 52  1  0  0  0  0
 30 53  1  0  0  0  0
M  END
>  <DRUGBANK_ID>
DB07831

>  <COMMON_NAME>
2-{[(6-OXO-1,6-DIHYDROPYRIDIN-3-YL)METHYL]AMINO}-N-[4-PROPYL-3-(TRIFLUOROMETHYL)PHENYL]BENZAMIDE

$$$$
