
 OpenBabel10282417072D

 31 33  0  0  1  0  0  0  0  0999 V2000
    0.9372   -0.2267    0.0000 N   0  0  0  0  0  0  0  0  0  0  0  0
    0.9372   -1.0517    0.0000 C   0  0  0  0  0  0  0  0  0  0  0  0
    0.2227   -1.4642    0.0000 N   0  0  0  0  0  0  0  0  0  0  0  0
    0.2226   -2.2892    0.0000 C   0  0  0  0  0  0  0  0  0  0  0  0
    0.9371   -2.7017    0.0000 N   0  0  0  0  0  0  0  0  0  0  0  0
    1.6516   -2.2892    0.0000 C   0  0  0  0  0  0  0  0  0  0  0  0
    1.6516   -1.4642    0.0000 C   0  0  0  0  0  0  0  0  0  0  0  0
    2.4362   -1.2093    0.0000 N   0  0  0  0  0  0  0  0  0  0  0  0
    2.9212   -1.8768    0.0000 C   0  0  0  0  0  0  0  0  0  0  0  0
    2.4362   -2.5442    0.0000 N   0  0  0  0  0  0  0  0  0  0  0  0
    2.6912   -3.3290    0.0000 C   0  0  2  0  0  0  0  0  0  0  0  0
    2.2062   -3.9963    0.0000 O   0  0  0  0  0  0  0  0  0  0  0  0
    2.6911   -4.6639    0.0000 C   0  0  2  0  0  0  0  0  0  0  0  0
    2.4361   -5.4485    0.0000 C   0  0  0  0  0  0  0  0  0  0  0  0
    3.4757   -4.4089    0.0000 C   0  0  1  0  0  0  0  0  0  0  0  0
    4.1432   -4.8939    0.0000 O   0  0  0  0  0  0  0  0  0  0  0  0
    3.4758   -3.5839    0.0000 C   0  0  1  0  0  0  0  0  0  0  0  0
    4.1432   -3.0990    0.0000 O   0  0  0  0  0  0  0  0  0  0  0  0
    2.9882   -6.0616    0.0000 F   0  0  0  0  0  0  0  0  0  0  0  0
    1.7898    0.2656    0.0000 H   0  0  0  0  0  0  0  0  0  0  0  0
    0.0846    0.2655    0.0000 H   0  0  0  0  0  0  0  0  0  0  0  0
   -0.6712   -2.8052    0.0000 H   0  0  0  0  0  0  0  0  0  0  0  0
    3.9532   -1.8768    0.0000 H   0  0  0  0  0  0  0  0  0  0  0  0
    1.6344   -3.1615    0.0000 H   0  0  0  0  0  0  0  0  0  0  0  0
    1.6343   -4.8312    0.0000 H   0  0  0  0  0  0  0  0  0  0  0  0
    1.3895   -5.6710    0.0000 H   0  0  0  0  0  0  0  0  0  0  0  0
    2.1055   -6.4661    0.0000 H   0  0  0  0  0  0  0  0  0  0  0  0
    3.3083   -5.4657    0.0000 H   0  0  0  0  0  0  0  0  0  0  0  0
    4.0418   -5.8586    0.0000 H   0  0  0  0  0  0  0  0  0  0  0  0
    3.3084   -2.5271    0.0000 H   0  0  0  0  0  0  0  0  0  0  0  0
    5.0293   -3.4935    0.0000 H   0  0  0  0  0  0  0  0  0  0  0  0
  1  2  1  0  0  0  0
  1 20  1  0  0  0  0
  1 21  1  0  0  0  0
  2  3  1  0  0  0  0
  2  7  2  0  0  0  0
  3  4  2  0  0  0  0
  4  5  1  0  0  0  0
  4 22  1  0  0  0  0
  5  6  2  0  0  0  0
  6  7  1  0  0  0  0
  6 10  1  0  0  0  0
  7  8  1  0  0  0  0
  8  9  2  0  0  0  0
  9 10  1  0  0  0  0
  9 23  1  0  0  0  0
 11 10  1  0  0  0  0
 11 12  1  0  0  0  0
 11 17  1  0  0  0  0
 11 24  1  6  0  0  0
 12 13  1  0  0  0  0
 13 14  1  0  0  0  0
 13 15  1  0  0  0  0
 13 25  1  6  0  0  0
 14 19  1  0  0  0  0
 14 26  1  0  0  0  0
 14 27  1  0  0  0  0
 15 16  1  0  0  0  0
 15 17  1  0  0  0  0
 15 28  1  1  0  0  0
 16 29  1  0  0  0  0
 17 18  1  0  0  0  0
 17 30  1  1  0  0  0
 18 31  1  0  0  0  0
M  END
>  <DRUGBANK_ID>
DB03716

>  <SECONDARY_ACCESSION_NUMBERS>
EXPT00245

>  <COMMON_NAME>
5'-Fluoro-5'-Deoxyadenosine

>  <UNII>
8LJ6NC6D44

$$$$
