
 OpenBabel10282417072D

 48 50  0  0  0  0  0  0  0  0999 V2000
   -1.1912    0.3347    0.0000 C   0  0  0  0  0  0  0  0  0  0  0  0
   -0.5238    0.8196    0.0000 C   0  0  0  0  0  0  0  0  0  0  0  0
    0.2299    0.4841    0.0000 C   0  0  0  0  0  0  0  0  0  0  0  0
    0.3161   -0.3364    0.0000 C   0  0  0  0  0  0  0  0  0  0  0  0
   -0.3513   -0.8213    0.0000 C   0  0  0  0  0  0  0  0  0  0  0  0
   -1.1050   -0.4858    0.0000 C   0  0  0  0  0  0  0  0  0  0  0  0
    1.0698   -0.6720    0.0000 C   0  0  0  0  0  0  0  0  0  0  0  0
    1.8768   -0.8435    0.0000 C   0  0  0  0  0  0  0  0  0  0  0  0
    2.4899   -0.2915    0.0000 O   0  0  0  0  0  0  0  0  0  0  0  0
    1.9630   -1.6640    0.0000 N   0  0  0  0  0  0  0  0  0  0  0  0
    1.2093   -1.9995    0.0000 C   0  0  0  0  0  0  0  0  0  0  0  0
    1.0378   -2.8065    0.0000 O   0  0  0  0  0  0  0  0  0  0  0  0
    0.6573   -1.3864    0.0000 N   0  0  0  0  0  0  0  0  0  0  0  0
    2.6775   -2.0765    0.0000 C   0  0  0  0  0  0  0  0  0  0  0  0
    3.3920   -1.6640    0.0000 C   0  0  0  0  0  0  0  0  0  0  0  0
    4.1064   -2.0765    0.0000 C   0  0  0  0  0  0  0  0  0  0  0  0
    4.8209   -1.6640    0.0000 C   0  0  3  0  0  0  0  0  0  0  0  0
    5.5354   -2.0765    0.0000 C   0  0  0  0  0  0  0  0  0  0  0  0
    6.2498   -1.6640    0.0000 O   0  0  0  0  0  0  0  0  0  0  0  0
    5.5354   -2.9015    0.0000 O   0  0  0  0  0  0  0  0  0  0  0  0
    4.8209   -0.8390    0.0000 N   0  0  0  0  0  0  0  0  0  0  0  0
    1.3247    0.1127    0.0000 C   0  0  0  0  0  0  0  0  0  0  0  0
    0.7727    0.7258    0.0000 C   0  0  0  0  0  0  0  0  0  0  0  0
    1.0276    1.5104    0.0000 C   0  0  0  0  0  0  0  0  0  0  0  0
    1.8346    1.6819    0.0000 C   0  0  0  0  0  0  0  0  0  0  0  0
    2.3867    1.0688    0.0000 C   0  0  0  0  0  0  0  0  0  0  0  0
    2.1317    0.2842    0.0000 C   0  0  0  0  0  0  0  0  0  0  0  0
   -2.1340    0.7545    0.0000 H   0  0  0  0  0  0  0  0  0  0  0  0
   -0.6317    1.8459    0.0000 H   0  0  0  0  0  0  0  0  0  0  0  0
    1.0648    1.0907    0.0000 H   0  0  0  0  0  0  0  0  0  0  0  0
   -0.2434   -1.8476    0.0000 H   0  0  0  0  0  0  0  0  0  0  0  0
   -1.9399   -1.0924    0.0000 H   0  0  0  0  0  0  0  0  0  0  0  0
   -0.3218   -1.4893    0.0000 H   0  0  0  0  0  0  0  0  0  0  0  0
    2.6775   -3.1465    0.0000 H   0  0  0  0  0  0  0  0  0  0  0  0
    3.6041   -2.6115    0.0000 H   0  0  0  0  0  0  0  0  0  0  0  0
    3.3920   -0.5940    0.0000 H   0  0  0  0  0  0  0  0  0  0  0  0
    4.3187   -1.1290    0.0000 H   0  0  0  0  0  0  0  0  0  0  0  0
    4.1064   -3.1465    0.0000 H   0  0  0  0  0  0  0  0  0  0  0  0
    5.0330   -2.6115    0.0000 H   0  0  0  0  0  0  0  0  0  0  0  0
    4.8209   -2.7340    0.0000 H   0  0  0  0  0  0  0  0  0  0  0  0
    4.7239   -3.3700    0.0000 H   0  0  0  0  0  0  0  0  0  0  0  0
    5.7042   -0.3290    0.0000 H   0  0  0  0  0  0  0  0  0  0  0  0
    3.9376   -0.3290    0.0000 H   0  0  0  0  0  0  0  0  0  0  0  0
   -0.2367    0.5112    0.0000 H   0  0  0  0  0  0  0  0  0  0  0  0
    0.3371    2.2773    0.0000 H   0  0  0  0  0  0  0  0  0  0  0  0
    2.1535    2.6634    0.0000 H   0  0  0  0  0  0  0  0  0  0  0  0
    3.3962    1.2834    0.0000 H   0  0  0  0  0  0  0  0  0  0  0  0
    2.8222   -0.4828    0.0000 H   0  0  0  0  0  0  0  0  0  0  0  0
  1  2  2  0  0  0  0
  1  6  1  0  0  0  0
  1 28  1  0  0  0  0
  2  3  1  0  0  0  0
  2 29  1  0  0  0  0
  3  4  2  0  0  0  0
  3 30  1  0  0  0  0
  4  5  1  0  0  0  0
  4  7  1  0  0  0  0
  5  6  2  0  0  0  0
  5 31  1  0  0  0  0
  6 32  1  0  0  0  0
  7  8  1  0  0  0  0
  7 13  1  0  0  0  0
  7 22  1  0  0  0  0
  8  9  2  0  0  0  0
  8 10  1  0  0  0  0
 10 11  1  0  0  0  0
 10 14  1  0  0  0  0
 11 12  2  0  0  0  0
 11 13  1  0  0  0  0
 13 33  1  0  0  0  0
 14 15  1  0  0  0  0
 14 34  1  0  0  0  0
 14 35  1  0  0  0  0
 15 16  1  0  0  0  0
 15 36  1  0  0  0  0
 15 37  1  0  0  0  0
 16 17  1  0  0  0  0
 16 38  1  0  0  0  0
 16 39  1  0  0  0  0
 17 18  1  0  0  0  0
 17 21  1  0  0  0  0
 17 40  1  0  0  0  0
 18 19  2  0  0  0  0
 18 20  1  0  0  0  0
 20 41  1  0  0  0  0
 21 42  1  0  0  0  0
 21 43  1  0  0  0  0
 22 23  2  0  0  0  0
 22 27  1  0  0  0  0
 23 24  1  0  0  0  0
 23 44  1  0  0  0  0
 24 25  2  0  0  0  0
 24 45  1  0  0  0  0
 25 26  1  0  0  0  0
 25 46  1  0  0  0  0
 26 27  2  0  0  0  0
 26 47  1  0  0  0  0
 27 48  1  0  0  0  0
M  END
>  <DRUGBANK_ID>
DB13396

>  <COMMON_NAME>
Neocitrullamon

>  <CAS_NUMBER>
38964-88-4

>  <UNII>
7L5LMT7B2H

>  <SYNONYMS>
amino(diphenylhydantoin) valeric acid; Citrullamon V; Phenytoin-3-norvaline

$$$$
