
 OpenBabel10282417072D

113119  0  0  1  0  0  0  0  0999 V2000
    6.5039    0.4429    0.0000 C   0  0  0  0  0  0  0  0  0  0  0  0
    5.7669    0.8136    0.0000 C   0  0  0  0  0  0  0  0  0  0  0  0
    5.0665    0.2866    0.0000 C   0  0  0  0  0  0  0  0  0  0  0  0
    4.5193   -0.3945    0.0000 C   0  0  2  0  0  0  0  0  0  0  0  0
    3.6834   -0.5397    0.0000 C   0  0  0  0  0  0  0  0  0  0  0  0
    3.5263   -1.3496    0.0000 O   0  0  0  0  0  0  0  0  0  0  0  0
    2.9478   -0.0834    0.0000 C   0  0  2  0  0  0  0  0  0  0  0  0
    2.9030   -0.9378    0.0000 C   0  0  0  0  0  0  0  0  0  0  0  0
    2.2152   -0.5221    0.0000 C   0  0  1  0  0  0  0  0  0  0  0  0
    1.4600   -0.1900    0.0000 C   0  0  0  0  0  0  0  0  0  0  0  0
    1.4048    0.6360    0.0000 C   0  0  2  0  0  0  0  0  0  0  0  0
    2.0770    1.1144    0.0000 C   0  0  2  0  0  0  0  0  0  0  0  0
    2.8657    0.7834    0.0000 C   0  0  1  0  0  0  0  0  0  0  0  0
    3.4279    1.4422    0.0000 C   0  0  1  0  0  0  0  0  0  0  0  0
    4.2779    1.5735    0.0000 C   0  0  1  0  0  0  0  0  0  0  0  0
    4.6309    0.8849    0.0000 C   0  0  0  0  0  0  0  0  0  0  0  0
    3.8174    0.7479    0.0000 C   0  0  0  0  0  0  0  0  0  0  0  0
    4.1418    0.2205    0.0000 C   0  0  0  0  0  0  0  0  0  0  0  0
    5.0026    2.0329    0.0000 C   0  0  0  0  0  0  0  0  0  0  0  0
    5.7722    1.6761    0.0000 C   0  0  2  0  0  0  0  0  0  0  0  0
    6.4689    2.1180    0.0000 O   0  0  0  0  0  0  0  0  0  0  0  0
    7.1999    1.7356    0.0000 C   0  0  0  0  0  0  0  0  0  0  0  0
    7.2343    0.9113    0.0000 O   0  0  0  0  0  0  0  0  0  0  0  0
    7.8966    2.1775    0.0000 C   0  0  1  0  0  0  0  0  0  0  0  0
    8.6276    1.7951    0.0000 C   0  0  2  0  0  0  0  0  0  0  0  0
    8.6620    0.9708    0.0000 C   0  0  0  0  0  0  0  0  0  0  0  0
    9.3930    0.5884    0.0000 C   0  0  0  0  0  0  0  0  0  0  0  0
    9.4273   -0.2359    0.0000 C   0  0  0  0  0  0  0  0  0  0  0  0
    8.7307   -0.6778    0.0000 C   0  0  0  0  0  0  0  0  0  0  0  0
    7.9996   -0.2954    0.0000 C   0  0  0  0  0  0  0  0  0  0  0  0
    7.9653    0.5289    0.0000 C   0  0  0  0  0  0  0  0  0  0  0  0
    9.3243    2.2370    0.0000 N   0  0  0  0  0  0  0  0  0  0  0  0
   10.0553    1.8546    0.0000 C   0  0  0  0  0  0  0  0  0  0  0  0
   10.0897    1.0303    0.0000 O   0  0  0  0  0  0  0  0  0  0  0  0
   10.7520    2.2965    0.0000 O   0  0  0  0  0  0  0  0  0  0  0  0
   11.4830    1.9141    0.0000 C   0  0  0  0  0  0  0  0  0  0  0  0
   12.2140    1.5317    0.0000 C   0  0  0  0  0  0  0  0  0  0  0  0
   11.8654    2.6451    0.0000 C   0  0  0  0  0  0  0  0  0  0  0  0
   11.1006    1.1830    0.0000 C   0  0  0  0  0  0  0  0  0  0  0  0
    7.8622    3.0017    0.0000 O   0  0  0  0  0  0  0  0  0  0  0  0
    3.9880    2.3459    0.0000 O   0  0  0  0  0  0  0  0  0  0  0  0
    3.0260    2.1627    0.0000 O   0  0  0  0  0  0  0  0  0  0  0  0
    3.4491    2.8710    0.0000 C   0  0  0  0  0  0  0  0  0  0  0  0
    4.2740    2.8588    0.0000 O   0  0  0  0  0  0  0  0  0  0  0  0
    3.0472    3.5915    0.0000 C   0  0  0  0  0  0  0  0  0  0  0  0
    2.2223    3.6037    0.0000 C   0  0  0  0  0  0  0  0  0  0  0  0
    1.8204    4.3242    0.0000 C   0  0  0  0  0  0  0  0  0  0  0  0
    2.2434    5.0325    0.0000 C   0  0  0  0  0  0  0  0  0  0  0  0
    3.0683    5.0203    0.0000 C   0  0  0  0  0  0  0  0  0  0  0  0
    3.4702    4.2998    0.0000 C   0  0  0  0  0  0  0  0  0  0  0  0
    1.5986    1.7865    0.0000 C   0  0  0  0  0  0  0  0  0  0  0  0
    0.9265    1.3082    0.0000 O   0  0  0  0  0  0  0  0  0  0  0  0
    2.5924    1.7585    0.0000 O   0  0  0  0  0  0  0  0  0  0  0  0
    2.2922    2.5270    0.0000 C   0  0  0  0  0  0  0  0  0  0  0  0
    1.4766    2.6513    0.0000 O   0  0  0  0  0  0  0  0  0  0  0  0
    2.8076    3.1712    0.0000 C   0  0  0  0  0  0  0  0  0  0  0  0
    4.9385   -1.1051    0.0000 O   0  0  0  0  0  0  0  0  0  0  0  0
    5.7635   -1.0973    0.0000 C   0  0  0  0  0  0  0  0  0  0  0  0
    6.1692   -0.3790    0.0000 O   0  0  0  0  0  0  0  0  0  0  0  0
    6.1826   -1.8079    0.0000 C   0  0  0  0  0  0  0  0  0  0  0  0
    6.5655   -0.6253    0.0000 H   0  0  0  0  0  0  0  0  0  0  0  0
    7.3982    1.0303    0.0000 H   0  0  0  0  0  0  0  0  0  0  0  0
    7.4598   -0.0379    0.0000 H   0  0  0  0  0  0  0  0  0  0  0  0
    5.5865   -0.4714    0.0000 H   0  0  0  0  0  0  0  0  0  0  0  0
    3.4041   -1.8832    0.0000 H   0  0  0  0  0  0  0  0  0  0  0  0
    2.1254   -1.6728    0.0000 H   0  0  0  0  0  0  0  0  0  0  0  0
    3.2852   -0.5243    0.0000 H   0  0  0  0  0  0  0  0  0  0  0  0
    0.5840   -0.8044    0.0000 H   0  0  0  0  0  0  0  0  0  0  0  0
    0.4948    0.2718    0.0000 H   0  0  0  0  0  0  0  0  0  0  0  0
    0.3970    0.2766    0.0000 H   0  0  0  0  0  0  0  0  0  0  0  0
    2.0036    0.1496    0.0000 H   0  0  0  0  0  0  0  0  0  0  0  0
    2.3631    1.5478    0.0000 H   0  0  0  0  0  0  0  0  0  0  0  0
    3.1359    1.5728    0.0000 H   0  0  0  0  0  0  0  0  0  0  0  0
    3.4437   -0.2547    0.0000 H   0  0  0  0  0  0  0  0  0  0  0  0
    2.7623    0.5702    0.0000 H   0  0  0  0  0  0  0  0  0  0  0  0
    3.0784    0.3390    0.0000 H   0  0  0  0  0  0  0  0  0  0  0  0
    4.5709   -0.7597    0.0000 H   0  0  0  0  0  0  0  0  0  0  0  0
    3.5075   -0.6412    0.0000 H   0  0  0  0  0  0  0  0  0  0  0  0
    4.9326    3.1006    0.0000 H   0  0  0  0  0  0  0  0  0  0  0  0
    5.8851    2.6380    0.0000 H   0  0  0  0  0  0  0  0  0  0  0  0
    5.7021    2.7438    0.0000 H   0  0  0  0  0  0  0  0  0  0  0  0
    6.9485    2.6734    0.0000 H   0  0  0  0  0  0  0  0  0  0  0  0
    8.5831    2.8642    0.0000 H   0  0  0  0  0  0  0  0  0  0  0  0
   10.2645    1.1411    0.0000 H   0  0  0  0  0  0  0  0  0  0  0  0
   10.3417   -0.7142    0.0000 H   0  0  0  0  0  0  0  0  0  0  0  0
    8.7737   -1.7089    0.0000 H   0  0  0  0  0  0  0  0  0  0  0  0
    7.1281   -0.8482    0.0000 H   0  0  0  0  0  0  0  0  0  0  0  0
    7.0509    1.0073    0.0000 H   0  0  0  0  0  0  0  0  0  0  0  0
    9.2833    3.2206    0.0000 H   0  0  0  0  0  0  0  0  0  0  0  0
   12.2585    0.4626    0.0000 H   0  0  0  0  0  0  0  0  0  0  0  0
   13.1176    2.1048    0.0000 H   0  0  0  0  0  0  0  0  0  0  0  0
   13.1621    1.0357    0.0000 H   0  0  0  0  0  0  0  0  0  0  0  0
   12.9345    2.6896    0.0000 H   0  0  0  0  0  0  0  0  0  0  0  0
   11.2923    3.5487    0.0000 H   0  0  0  0  0  0  0  0  0  0  0  0
   12.3614    3.5932    0.0000 H   0  0  0  0  0  0  0  0  0  0  0  0
   10.0315    1.1384    0.0000 H   0  0  0  0  0  0  0  0  0  0  0  0
   11.6738    0.2795    0.0000 H   0  0  0  0  0  0  0  0  0  0  0  0
   10.6047    0.2349    0.0000 H   0  0  0  0  0  0  0  0  0  0  0  0
    8.6813    3.5213    0.0000 H   0  0  0  0  0  0  0  0  0  0  0  0
    4.6041    3.0952    0.0000 H   0  0  0  0  0  0  0  0  0  0  0  0
    1.6931    2.7177    0.0000 H   0  0  0  0  0  0  0  0  0  0  0  0
    0.7885    4.3394    0.0000 H   0  0  0  0  0  0  0  0  0  0  0  0
    1.7407    5.9338    0.0000 H   0  0  0  0  0  0  0  0  0  0  0  0
    3.5975    5.9063    0.0000 H   0  0  0  0  0  0  0  0  0  0  0  0
    4.5021    4.2846    0.0000 H   0  0  0  0  0  0  0  0  0  0  0  0
    1.7763    2.8416    0.0000 H   0  0  0  0  0  0  0  0  0  0  0  0
    0.6918    2.3545    0.0000 H   0  0  0  0  0  0  0  0  0  0  0  0
    3.8654    3.0101    0.0000 H   0  0  0  0  0  0  0  0  0  0  0  0
    2.4183    4.1679    0.0000 H   0  0  0  0  0  0  0  0  0  0  0  0
    3.4761    4.0067    0.0000 H   0  0  0  0  0  0  0  0  0  0  0  0
    5.6562   -2.7395    0.0000 H   0  0  0  0  0  0  0  0  0  0  0  0
    7.2526   -1.7980    0.0000 H   0  0  0  0  0  0  0  0  0  0  0  0
    6.7262   -2.7295    0.0000 H   0  0  0  0  0  0  0  0  0  0  0  0
  1  2  1  0  0  0  0
  1 61  1  0  0  0  0
  1 62  1  0  0  0  0
  1 63  1  0  0  0  0
  2  3  2  0  0  0  0
  2 20  1  0  0  0  0
  3  4  1  0  0  0  0
  3 16  1  0  0  0  0
  4  5  1  0  0  0  0
  4 57  1  0  0  0  0
  4 64  1  6  0  0  0
  5  6  2  0  0  0  0
  7  5  1  6  0  0  0
  7  8  1  0  0  0  0
  7  9  1  0  0  0  0
  8 65  1  0  0  0  0
  8 66  1  0  0  0  0
  9  8  1  0  0  0  0
  9 10  1  0  0  0  0
  9 67  1  6  0  0  0
 10 11  1  0  0  0  0
 10 68  1  0  0  0  0
 10 69  1  0  0  0  0
 11 12  1  0  0  0  0
 11 52  1  0  0  0  0
 11 70  1  6  0  0  0
 12 13  1  0  0  0  0
 12 51  1  0  0  0  0
 12 53  1  6  0  0  0
 13  7  1  0  0  0  0
 13 14  1  0  0  0  0
 13 71  1  6  0  0  0
 14 15  1  0  0  0  0
 14 42  1  0  0  0  0
 14 72  1  1  0  0  0
 15 16  1  0  0  0  0
 15 19  1  0  0  0  0
 15 41  1  1  0  0  0
 16 17  1  0  0  0  0
 16 18  1  0  0  0  0
 17 73  1  0  0  0  0
 17 74  1  0  0  0  0
 17 75  1  0  0  0  0
 18 76  1  0  0  0  0
 18 77  1  0  0  0  0
 18 78  1  0  0  0  0
 19 20  1  0  0  0  0
 19 79  1  0  0  0  0
 19 80  1  0  0  0  0
 20 21  1  0  0  0  0
 20 81  1  1  0  0  0
 21 22  1  0  0  0  0
 22 23  2  0  0  0  0
 22 24  1  0  0  0  0
 24 25  1  0  0  0  0
 24 40  1  0  0  0  0
 24 82  1  1  0  0  0
 25 26  1  0  0  0  0
 25 32  1  0  0  0  0
 25 83  1  6  0  0  0
 26 27  2  0  0  0  0
 26 31  1  0  0  0  0
 27 28  1  0  0  0  0
 27 84  1  0  0  0  0
 28 29  2  0  0  0  0
 28 85  1  0  0  0  0
 29 30  1  0  0  0  0
 29 86  1  0  0  0  0
 30 31  2  0  0  0  0
 30 87  1  0  0  0  0
 31 88  1  0  0  0  0
 32 33  1  0  0  0  0
 32 89  1  0  0  0  0
 33 34  2  0  0  0  0
 33 35  1  0  0  0  0
 35 36  1  0  0  0  0
 36 37  1  0  0  0  0
 36 38  1  0  0  0  0
 36 39  1  0  0  0  0
 37 90  1  0  0  0  0
 37 91  1  0  0  0  0
 37 92  1  0  0  0  0
 38 93  1  0  0  0  0
 38 94  1  0  0  0  0
 38 95  1  0  0  0  0
 39 96  1  0  0  0  0
 39 97  1  0  0  0  0
 39 98  1  0  0  0  0
 40 99  1  0  0  0  0
 41100  1  0  0  0  0
 42 43  1  0  0  0  0
 43 44  2  0  0  0  0
 43 45  1  0  0  0  0
 45 46  2  0  0  0  0
 45 50  1  0  0  0  0
 46 47  1  0  0  0  0
 46101  1  0  0  0  0
 47 48  2  0  0  0  0
 47102  1  0  0  0  0
 48 49  1  0  0  0  0
 48103  1  0  0  0  0
 49 50  2  0  0  0  0
 49104  1  0  0  0  0
 50105  1  0  0  0  0
 51 52  1  0  0  0  0
 51106  1  0  0  0  0
 51107  1  0  0  0  0
 53 54  1  0  0  0  0
 54 55  2  0  0  0  0
 54 56  1  0  0  0  0
 56108  1  0  0  0  0
 56109  1  0  0  0  0
 56110  1  0  0  0  0
 57 58  1  0  0  0  0
 58 59  2  0  0  0  0
 58 60  1  0  0  0  0
 60111  1  0  0  0  0
 60112  1  0  0  0  0
 60113  1  0  0  0  0
M  END
>  <DRUGBANK_ID>
DB12984

>  <COMMON_NAME>
Larotaxel

>  <CAS_NUMBER>
156294-36-9

>  <UNII>
TWQ8K8A81Y

>  <SYNONYMS>
Larotaxel

$$$$
