
 OpenBabel10282417072D

 12 11  0  0  0  0  0  0  0  0999 V2000
    2.8875   -0.7145    0.0000 O   0  0  0  0  0  0  0  0  0  0  0  0
    2.0625   -0.7145    0.0000 P   0  0  0  0  0  0  0  0  0  0  0  0
    2.0625    0.1105    0.0000 O   0  0  0  0  0  0  0  0  0  0  0  0
    2.0625   -1.5395    0.0000 O   0  0  0  0  0  0  0  0  0  0  0  0
    1.2375   -0.7145    0.0000 C   0  0  0  0  0  0  0  0  0  0  0  0
    0.8250    0.0000    0.0000 C   0  0  0  0  0  0  0  0  0  0  0  0
    0.0000    0.0000    0.0000 O   0  0  0  0  0  0  0  0  0  0  0  0
    3.3725   -1.5545    0.0000 H   0  0  0  0  0  0  0  0  0  0  0  0
    2.9025    0.5955    0.0000 H   0  0  0  0  0  0  0  0  0  0  0  0
    0.7025   -1.6411    0.0000 H   0  0  0  0  0  0  0  0  0  0  0  0
    0.1675   -0.7145    0.0000 H   0  0  0  0  0  0  0  0  0  0  0  0
    1.3410    0.8937    0.0000 H   0  0  0  0  0  0  0  0  0  0  0  0
  1  2  1  0  0  0  0
  1  8  1  0  0  0  0
  2  3  1  0  0  0  0
  2  4  2  0  0  0  0
  2  5  1  0  0  0  0
  3  9  1  0  0  0  0
  5  6  1  0  0  0  0
  5 10  1  0  0  0  0
  5 11  1  0  0  0  0
  6  7  2  0  0  0  0
  6 12  1  0  0  0  0
M  END
>  <DRUGBANK_ID>
DB03174

>  <SECONDARY_ACCESSION_NUMBERS>
EXPT02628

>  <COMMON_NAME>
Phosphonoacetaldehyde

>  <UNII>
VPZ8FR5BMZ

$$$$
