
 OpenBabel10282417072D

 81 84  0  0  1  0  0  0  0  0999 V2000
    2.1434   -0.4125    0.0000 C   0  0  0  0  0  0  0  0  0  0  0  0
    2.1434   -1.2375    0.0000 C   0  0  0  0  0  0  0  0  0  0  0  0
    2.8579   -1.6500    0.0000 N   0  0  0  0  0  0  0  0  0  0  0  0
    2.8579   -2.4750    0.0000 C   0  0  3  0  0  0  0  0  0  0  0  0
    3.5724   -2.8875    0.0000 C   0  0  0  0  0  0  0  0  0  0  0  0
    3.5724   -3.7125    0.0000 C   0  0  0  0  0  0  0  0  0  0  0  0
    2.8579   -4.1250    0.0000 N   0  0  0  0  0  0  0  0  0  0  0  0
    2.1434   -3.7125    0.0000 C   0  0  0  0  0  0  0  0  0  0  0  0
    2.1434   -2.8875    0.0000 C   0  0  0  0  0  0  0  0  0  0  0  0
    2.8579   -4.9500    0.0000 C   0  0  0  0  0  0  0  0  0  0  0  0
    2.1434   -5.3625    0.0000 C   0  0  0  0  0  0  0  0  0  0  0  0
    2.1434   -6.1875    0.0000 C   0  0  2  0  0  0  0  0  0  0  0  0
    1.4289   -6.6000    0.0000 C   0  0  0  0  0  0  0  0  0  0  0  0
    1.4289   -7.4250    0.0000 C   0  0  0  0  0  0  0  0  0  0  0  0
    0.7145   -7.8375    0.0000 C   0  0  0  0  0  0  0  0  0  0  0  0
   -0.0000   -7.4250    0.0000 C   0  0  0  0  0  0  0  0  0  0  0  0
    0.0000   -6.6000    0.0000 C   0  0  0  0  0  0  0  0  0  0  0  0
    0.7145   -6.1875    0.0000 C   0  0  0  0  0  0  0  0  0  0  0  0
   -0.7145   -7.8375    0.0000 S   0  0  0  0  0  0  0  0  0  0  0  0
   -1.4289   -8.2500    0.0000 O   0  0  0  0  0  0  0  0  0  0  0  0
   -0.3020   -8.5520    0.0000 O   0  0  0  0  0  0  0  0  0  0  0  0
   -1.1270   -7.1230    0.0000 C   0  0  0  0  0  0  0  0  0  0  0  0
    2.8579   -6.6000    0.0000 C   0  0  0  0  0  0  0  0  0  0  0  0
    3.5724   -6.1875    0.0000 C   0  0  0  0  0  0  0  0  0  0  0  0
    4.2868   -6.6000    0.0000 C   0  0  0  0  0  0  0  0  0  0  0  0
    4.2868   -7.4250    0.0000 C   0  0  0  0  0  0  0  0  0  0  0  0
    3.5724   -7.8375    0.0000 C   0  0  0  0  0  0  0  0  0  0  0  0
    2.8579   -7.4250    0.0000 C   0  0  0  0  0  0  0  0  0  0  0  0
    3.5724   -8.6625    0.0000 F   0  0  0  0  0  0  0  0  0  0  0  0
    5.0013   -6.1875    0.0000 F   0  0  0  0  0  0  0  0  0  0  0  0
    3.5724   -1.2375    0.0000 C   0  0  0  0  0  0  0  0  0  0  0  0
    4.2868   -1.6500    0.0000 O   0  0  0  0  0  0  0  0  0  0  0  0
    3.5724   -0.4125    0.0000 C   0  0  0  0  0  0  0  0  0  0  0  0
    4.2868   -0.0000    0.0000 C   0  0  0  0  0  0  0  0  0  0  0  0
    4.2868    0.8250    0.0000 C   0  0  0  0  0  0  0  0  0  0  0  0
    5.0013    1.2375    0.0000 C   0  0  0  0  0  0  0  0  0  0  0  0
    5.7158    0.8250    0.0000 C   0  0  0  0  0  0  0  0  0  0  0  0
    5.7158   -0.0000    0.0000 C   0  0  0  0  0  0  0  0  0  0  0  0
    5.0013   -0.4125    0.0000 C   0  0  0  0  0  0  0  0  0  0  0  0
    6.4302    1.2375    0.0000 S   0  0  0  0  0  0  0  0  0  0  0  0
    7.1447    1.6500    0.0000 O   0  0  0  0  0  0  0  0  0  0  0  0
    6.8427    0.5230    0.0000 O   0  0  0  0  0  0  0  0  0  0  0  0
    6.0177    1.9520    0.0000 C   0  0  0  0  0  0  0  0  0  0  0  0
    3.0700    0.1225    0.0000 H   0  0  0  0  0  0  0  0  0  0  0  0
    1.2168    0.1225    0.0000 H   0  0  0  0  0  0  0  0  0  0  0  0
    2.1434    0.6575    0.0000 H   0  0  0  0  0  0  0  0  0  0  0  0
    1.2168   -1.7725    0.0000 H   0  0  0  0  0  0  0  0  0  0  0  0
    2.1434   -2.3075    0.0000 H   0  0  0  0  0  0  0  0  0  0  0  0
    3.7845   -1.9400    0.0000 H   0  0  0  0  0  0  0  0  0  0  0  0
    4.4990   -2.3525    0.0000 H   0  0  0  0  0  0  0  0  0  0  0  0
    4.4990   -3.4225    0.0000 H   0  0  0  0  0  0  0  0  0  0  0  0
    4.4990   -4.2475    0.0000 H   0  0  0  0  0  0  0  0  0  0  0  0
    3.5724   -4.7825    0.0000 H   0  0  0  0  0  0  0  0  0  0  0  0
    1.2168   -4.2475    0.0000 H   0  0  0  0  0  0  0  0  0  0  0  0
    1.2168   -3.1775    0.0000 H   0  0  0  0  0  0  0  0  0  0  0  0
    1.2168   -2.3525    0.0000 H   0  0  0  0  0  0  0  0  0  0  0  0
    2.1434   -1.8175    0.0000 H   0  0  0  0  0  0  0  0  0  0  0  0
    3.7845   -5.4850    0.0000 H   0  0  0  0  0  0  0  0  0  0  0  0
    2.8579   -6.0200    0.0000 H   0  0  0  0  0  0  0  0  0  0  0  0
    1.2168   -4.8275    0.0000 H   0  0  0  0  0  0  0  0  0  0  0  0
    1.2168   -5.8975    0.0000 H   0  0  0  0  0  0  0  0  0  0  0  0
    1.2168   -5.6525    0.0000 H   0  0  0  0  0  0  0  0  0  0  0  0
    2.3226   -7.9410    0.0000 H   0  0  0  0  0  0  0  0  0  0  0  0
    0.7145   -8.8695    0.0000 H   0  0  0  0  0  0  0  0  0  0  0  0
   -0.8937   -6.0840    0.0000 H   0  0  0  0  0  0  0  0  0  0  0  0
    0.7145   -5.1555    0.0000 H   0  0  0  0  0  0  0  0  0  0  0  0
   -0.5920   -6.1964    0.0000 H   0  0  0  0  0  0  0  0  0  0  0  0
   -2.1970   -7.1230    0.0000 H   0  0  0  0  0  0  0  0  0  0  0  0
   -1.6620   -6.1963    0.0000 H   0  0  0  0  0  0  0  0  0  0  0  0
    3.5724   -5.1555    0.0000 H   0  0  0  0  0  0  0  0  0  0  0  0
    5.1805   -7.9410    0.0000 H   0  0  0  0  0  0  0  0  0  0  0  0
    1.9642   -7.9410    0.0000 H   0  0  0  0  0  0  0  0  0  0  0  0
    2.6457    0.1225    0.0000 H   0  0  0  0  0  0  0  0  0  0  0  0
    3.5724    0.6575    0.0000 H   0  0  0  0  0  0  0  0  0  0  0  0
    3.3931    1.3410    0.0000 H   0  0  0  0  0  0  0  0  0  0  0  0
    5.0013    2.2695    0.0000 H   0  0  0  0  0  0  0  0  0  0  0  0
    6.6095   -0.5160    0.0000 H   0  0  0  0  0  0  0  0  0  0  0  0
    5.0013   -1.4445    0.0000 H   0  0  0  0  0  0  0  0  0  0  0  0
    6.5527    2.8786    0.0000 H   0  0  0  0  0  0  0  0  0  0  0  0
    4.9477    1.9520    0.0000 H   0  0  0  0  0  0  0  0  0  0  0  0
    5.4827    2.8787    0.0000 H   0  0  0  0  0  0  0  0  0  0  0  0
  1  2  1  0  0  0  0
  1 44  1  0  0  0  0
  1 45  1  0  0  0  0
  1 46  1  0  0  0  0
  2  3  1  0  0  0  0
  2 47  1  0  0  0  0
  2 48  1  0  0  0  0
  3  4  1  0  0  0  0
  3 31  1  0  0  0  0
  4  5  1  0  0  0  0
  4  9  1  0  0  0  0
  4 49  1  0  0  0  0
  5  6  1  0  0  0  0
  5 50  1  0  0  0  0
  5 51  1  0  0  0  0
  6  7  1  0  0  0  0
  6 52  1  0  0  0  0
  6 53  1  0  0  0  0
  7  8  1  0  0  0  0
  7 10  1  0  0  0  0
  8  9  1  0  0  0  0
  8 54  1  0  0  0  0
  8 55  1  0  0  0  0
  9 56  1  0  0  0  0
  9 57  1  0  0  0  0
 10 11  1  0  0  0  0
 10 58  1  0  0  0  0
 10 59  1  0  0  0  0
 11 60  1  0  0  0  0
 11 61  1  0  0  0  0
 12 11  1  0  0  0  0
 12 13  1  0  0  0  0
 12 23  1  0  0  0  0
 12 62  1  6  0  0  0
 13 14  2  0  0  0  0
 13 18  1  0  0  0  0
 14 15  1  0  0  0  0
 14 63  1  0  0  0  0
 15 16  2  0  0  0  0
 15 64  1  0  0  0  0
 16 17  1  0  0  0  0
 16 19  1  0  0  0  0
 17 18  2  0  0  0  0
 17 65  1  0  0  0  0
 18 66  1  0  0  0  0
 19 20  2  0  0  0  0
 19 21  2  0  0  0  0
 19 22  1  0  0  0  0
 22 67  1  0  0  0  0
 22 68  1  0  0  0  0
 22 69  1  0  0  0  0
 23 24  2  0  0  0  0
 23 28  1  0  0  0  0
 24 25  1  0  0  0  0
 24 70  1  0  0  0  0
 25 26  2  0  0  0  0
 25 30  1  0  0  0  0
 26 27  1  0  0  0  0
 26 71  1  0  0  0  0
 27 28  2  0  0  0  0
 27 29  1  0  0  0  0
 28 72  1  0  0  0  0
 31 32  2  0  0  0  0
 31 33  1  0  0  0  0
 33 34  1  0  0  0  0
 33 73  1  0  0  0  0
 33 74  1  0  0  0  0
 34 35  2  0  0  0  0
 34 39  1  0  0  0  0
 35 36  1  0  0  0  0
 35 75  1  0  0  0  0
 36 37  2  0  0  0  0
 36 76  1  0  0  0  0
 37 38  1  0  0  0  0
 37 40  1  0  0  0  0
 38 39  2  0  0  0  0
 38 77  1  0  0  0  0
 39 78  1  0  0  0  0
 40 41  2  0  0  0  0
 40 42  2  0  0  0  0
 40 43  1  0  0  0  0
 43 79  1  0  0  0  0
 43 80  1  0  0  0  0
 43 81  1  0  0  0  0
M  END
>  <DRUGBANK_ID>
DB11804

>  <COMMON_NAME>
AZD-5672

>  <CAS_NUMBER>
780750-65-4

>  <UNII>
61XQN688TW

$$$$
