
 OpenBabel10282417072D

 19 19  0  0  0  0  0  0  0  0999 V2000
   -1.4289    2.4750    0.0000 C   0  0  0  0  0  0  0  0  0  0  0  0
    0.7145   -0.4125    0.0000 C   0  0  0  0  0  0  0  0  0  0  0  0
    1.4289    0.0000    0.0000 C   0  0  0  0  0  0  0  0  0  0  0  0
    0.0000    0.0000    0.0000 C   0  0  0  0  0  0  0  0  0  0  0  0
    1.4289    0.8250    0.0000 C   0  0  0  0  0  0  0  0  0  0  0  0
    0.0000    0.8250    0.0000 C   0  0  0  0  0  0  0  0  0  0  0  0
    0.7145    1.2375    0.0000 C   0  0  0  0  0  0  0  0  0  0  0  0
   -0.7145    1.2375    0.0000 C   0  0  0  0  0  0  0  0  0  0  0  0
    0.7145    2.0625    0.0000 O   0  0  0  0  0  0  0  0  0  0  0  0
   -1.4289    0.8250    0.0000 O   0  0  0  0  0  0  0  0  0  0  0  0
   -0.7145    2.0625    0.0000 O   0  0  0  0  0  0  0  0  0  0  0  0
   -1.4289    3.5450    0.0000 H   0  0  0  0  0  0  0  0  0  0  0  0
   -2.3556    1.9400    0.0000 H   0  0  0  0  0  0  0  0  0  0  0  0
   -2.3555    3.0100    0.0000 H   0  0  0  0  0  0  0  0  0  0  0  0
    0.7145   -1.4445    0.0000 H   0  0  0  0  0  0  0  0  0  0  0  0
    2.3226   -0.5160    0.0000 H   0  0  0  0  0  0  0  0  0  0  0  0
   -0.8937   -0.5160    0.0000 H   0  0  0  0  0  0  0  0  0  0  0  0
    2.3226    1.3410    0.0000 H   0  0  0  0  0  0  0  0  0  0  0  0
    1.5260    2.5310    0.0000 H   0  0  0  0  0  0  0  0  0  0  0  0
  1 12  1  0  0  0  0
  1 13  1  0  0  0  0
  1 14  1  0  0  0  0
  2 15  1  0  0  0  0
  3  2  2  0  0  0  0
  3 16  1  0  0  0  0
  4  2  1  0  0  0  0
  4 17  1  0  0  0  0
  5  3  1  0  0  0  0
  5 18  1  0  0  0  0
  6  4  2  0  0  0  0
  7  5  2  0  0  0  0
  7  6  1  0  0  0  0
  8  6  1  0  0  0  0
  9  7  1  0  0  0  0
  9 19  1  0  0  0  0
 10  8  2  0  0  0  0
 11  1  1  0  0  0  0
 11  8  1  0  0  0  0
M  END
>  <DRUGBANK_ID>
DB09543

>  <COMMON_NAME>
Methyl salicylate

>  <CAS_NUMBER>
119-36-8

>  <UNII>
LAV5U5022Y

>  <SYNONYMS>
2-(Methoxycarbonyl)phenol; 2-Carbomethoxyphenol; 2-Hydroxybenzoic acid methyl ester; Betula oil; Gaultheria oil; Methyl 2-hydroxybenzoate; Methyl o-hydroxybenzoate; Methyl salicylate; Natural wintergreen oil; Oil of wintergreen; Spicewood Oil; Sweet birch oil; Teaberry oil

$$$$
