
 OpenBabel10282417072D

 79 80  0  0  1  0  0  0  0  0999 V2000
   10.8277   -9.6141    0.0000 C   0  0  2  0  0  0  0  0  0  0  0  0
   10.8277  -10.4413    0.0000 C   0  0  2  0  0  0  0  0  0  0  0  0
   11.5422  -10.8528    0.0000 C   0  0  0  0  0  0  0  0  0  0  0  0
   12.2568  -10.4413    0.0000 O   0  0  0  0  0  0  0  0  0  0  0  0
   12.2568   -9.6141    0.0000 C   0  0  2  0  0  0  0  0  0  0  0  0
   11.5422   -9.1984    0.0000 C   0  0  2  0  0  0  0  0  0  0  0  0
    9.4019  -10.4454    0.0000 C   0  0  1  0  0  0  0  0  0  0  0  0
   10.1170  -10.8612    0.0000 C   0  0  0  0  0  0  0  0  0  0  0  0
   10.1138   -9.2047    0.0000 O   0  0  0  0  0  0  0  0  0  0  0  0
   11.5343   -8.3711    0.0000 O   0  0  0  0  0  0  0  0  0  0  0  0
   12.9686   -9.1984    0.0000 C   0  0  0  0  0  0  0  0  0  0  0  0
   13.6835   -9.6058    0.0000 C   0  0  0  0  0  0  0  0  0  0  0  0
   14.3985   -9.1943    0.0000 C   0  0  0  0  0  0  0  0  0  0  0  0
   15.1135   -9.6016    0.0000 C   0  0  0  0  0  0  0  0  0  0  0  0
   15.8243   -9.1901    0.0000 O   0  0  0  0  0  0  0  0  0  0  0  0
   16.5392   -9.5975    0.0000 C   0  0  0  0  0  0  0  0  0  0  0  0
   17.2542   -9.1859    0.0000 C   0  0  0  0  0  0  0  0  0  0  0  0
   17.9692   -9.5933    0.0000 C   0  0  0  0  0  0  0  0  0  0  0  0
   18.6841   -9.1818    0.0000 C   0  0  0  0  0  0  0  0  0  0  0  0
   19.3991   -9.5892    0.0000 C   0  0  0  0  0  0  0  0  0  0  0  0
   20.1141   -9.1777    0.0000 C   0  0  0  0  0  0  0  0  0  0  0  0
   20.8291   -9.5850    0.0000 C   0  0  0  0  0  0  0  0  0  0  0  0
   21.5398   -9.1734    0.0000 C   0  0  0  0  0  0  0  0  0  0  0  0
   22.2549   -9.5809    0.0000 C   0  0  0  0  0  0  0  0  0  0  0  0
   22.9699   -9.1652    0.0000 O   0  0  0  0  0  0  0  0  0  0  0  0
   13.6853  -10.4330    0.0000 C   0  0  0  0  0  0  0  0  0  0  0  0
   15.1153  -10.4288    0.0000 O   0  0  0  0  0  0  0  0  0  0  0  0
   22.2585  -10.4080    0.0000 O   0  0  0  0  0  0  0  0  0  0  0  0
    8.6845  -10.8602    0.0000 C   0  0  2  0  0  0  0  0  0  0  0  0
    7.9680  -10.4437    0.0000 C   0  0  2  0  0  0  0  0  0  0  0  0
    7.2506  -10.8585    0.0000 C   0  0  2  0  0  0  0  0  0  0  0  0
    6.5341  -10.4420    0.0000 C   0  0  0  0  0  0  0  0  0  0  0  0
    9.4144  -11.2352    0.0000 O   0  0  0  0  0  0  0  0  0  0  0  0
    7.2496  -11.6858    0.0000 O   0  0  0  0  0  0  0  0  0  0  0  0
    7.9690   -9.6166    0.0000 C   0  0  0  0  0  0  0  0  0  0  0  0
    9.9018  -10.1505    0.0000 H   0  0  0  0  0  0  0  0  0  0  0  0
    9.8984   -9.9110    0.0000 H   0  0  0  0  0  0  0  0  0  0  0  0
   11.5422  -11.9228    0.0000 H   0  0  0  0  0  0  0  0  0  0  0  0
   10.6158  -11.3883    0.0000 H   0  0  0  0  0  0  0  0  0  0  0  0
   13.1848  -10.1468    0.0000 H   0  0  0  0  0  0  0  0  0  0  0  0
   12.4672   -8.6605    0.0000 H   0  0  0  0  0  0  0  0  0  0  0  0
    9.9428  -11.3686    0.0000 H   0  0  0  0  0  0  0  0  0  0  0  0
   10.1207  -11.9312    0.0000 H   0  0  0  0  0  0  0  0  0  0  0  0
   11.0472  -11.3899    0.0000 H   0  0  0  0  0  0  0  0  0  0  0  0
   10.1110   -8.2347    0.0000 H   0  0  0  0  0  0  0  0  0  0  0  0
   12.3697   -7.8781    0.0000 H   0  0  0  0  0  0  0  0  0  0  0  0
   12.9629   -8.1284    0.0000 H   0  0  0  0  0  0  0  0  0  0  0  0
   13.8923   -8.6583    0.0000 H   0  0  0  0  0  0  0  0  0  0  0  0
   14.3962   -8.1623    0.0000 H   0  0  0  0  0  0  0  0  0  0  0  0
   16.5415  -10.6675    0.0000 H   0  0  0  0  0  0  0  0  0  0  0  0
   17.4661  -10.1321    0.0000 H   0  0  0  0  0  0  0  0  0  0  0  0
   17.2518   -8.1159    0.0000 H   0  0  0  0  0  0  0  0  0  0  0  0
   18.1787   -8.6472    0.0000 H   0  0  0  0  0  0  0  0  0  0  0  0
   17.9715  -10.6633    0.0000 H   0  0  0  0  0  0  0  0  0  0  0  0
   18.8961  -10.1279    0.0000 H   0  0  0  0  0  0  0  0  0  0  0  0
   18.6818   -8.1118    0.0000 H   0  0  0  0  0  0  0  0  0  0  0  0
   19.6086   -8.6432    0.0000 H   0  0  0  0  0  0  0  0  0  0  0  0
   19.4014  -10.6592    0.0000 H   0  0  0  0  0  0  0  0  0  0  0  0
   20.3260  -10.1238    0.0000 H   0  0  0  0  0  0  0  0  0  0  0  0
   20.1117   -8.1077    0.0000 H   0  0  0  0  0  0  0  0  0  0  0  0
   21.0386   -8.6390    0.0000 H   0  0  0  0  0  0  0  0  0  0  0  0
   20.8329  -10.6550    0.0000 H   0  0  0  0  0  0  0  0  0  0  0  0
   21.7571  -10.1177    0.0000 H   0  0  0  0  0  0  0  0  0  0  0  0
   21.5361   -8.1034    0.0000 H   0  0  0  0  0  0  0  0  0  0  0  0
   22.4640   -8.6342    0.0000 H   0  0  0  0  0  0  0  0  0  0  0  0
   23.7828   -9.6312    0.0000 H   0  0  0  0  0  0  0  0  0  0  0  0
   12.7598  -10.9700    0.0000 H   0  0  0  0  0  0  0  0  0  0  0  0
   14.6131  -10.9660    0.0000 H   0  0  0  0  0  0  0  0  0  0  0  0
   13.6876  -11.5030    0.0000 H   0  0  0  0  0  0  0  0  0  0  0  0
    9.7542  -10.8336    0.0000 H   0  0  0  0  0  0  0  0  0  0  0  0
    8.8958   -9.9106    0.0000 H   0  0  0  0  0  0  0  0  0  0  0  0
    6.3228  -11.3916    0.0000 H   0  0  0  0  0  0  0  0  0  0  0  0
    6.5373   -9.3720    0.0000 H   0  0  0  0  0  0  0  0  0  0  0  0
    5.6059  -10.9743    0.0000 H   0  0  0  0  0  0  0  0  0  0  0  0
    5.6090   -9.9043    0.0000 H   0  0  0  0  0  0  0  0  0  0  0  0
    6.4090  -12.1698    0.0000 H   0  0  0  0  0  0  0  0  0  0  0  0
    8.8963   -9.0827    0.0000 H   0  0  0  0  0  0  0  0  0  0  0  0
    7.0430   -9.0805    0.0000 H   0  0  0  0  0  0  0  0  0  0  0  0
    7.9703   -8.5466    0.0000 H   0  0  0  0  0  0  0  0  0  0  0  0
  1  9  1  0  0  0  0
  1  2  1  0  0  0  0
  1  6  1  0  0  0  0
  1 36  1  6  0  0  0
  2  8  1  0  0  0  0
  2  3  1  0  0  0  0
  2 37  1  1  0  0  0
  3  4  1  0  0  0  0
  3 38  1  0  0  0  0
  3 39  1  0  0  0  0
  4  5  1  0  0  0  0
  5  6  1  0  0  0  0
  5 11  1  0  0  0  0
  5 40  1  1  0  0  0
  6 10  1  0  0  0  0
  6 41  1  6  0  0  0
  7 33  1  0  0  0  0
  7  8  1  0  0  0  0
  7 29  1  0  0  0  0
  7 42  1  1  0  0  0
  8 43  1  0  0  0  0
  8 44  1  0  0  0  0
  9 45  1  0  0  0  0
 10 46  1  0  0  0  0
 11 12  1  0  0  0  0
 11 47  1  0  0  0  0
 11 48  1  0  0  0  0
 12 13  2  0  0  0  0
 12 26  1  0  0  0  0
 13 14  1  0  0  0  0
 13 49  1  0  0  0  0
 14 15  1  0  0  0  0
 14 27  2  0  0  0  0
 15 16  1  0  0  0  0
 16 17  1  0  0  0  0
 16 50  1  0  0  0  0
 16 51  1  0  0  0  0
 17 18  1  0  0  0  0
 17 52  1  0  0  0  0
 17 53  1  0  0  0  0
 18 19  1  0  0  0  0
 18 54  1  0  0  0  0
 18 55  1  0  0  0  0
 19 20  1  0  0  0  0
 19 56  1  0  0  0  0
 19 57  1  0  0  0  0
 20 21  1  0  0  0  0
 20 58  1  0  0  0  0
 20 59  1  0  0  0  0
 21 22  1  0  0  0  0
 21 60  1  0  0  0  0
 21 61  1  0  0  0  0
 22 23  1  0  0  0  0
 22 62  1  0  0  0  0
 22 63  1  0  0  0  0
 23 24  1  0  0  0  0
 23 64  1  0  0  0  0
 23 65  1  0  0  0  0
 24 25  1  0  0  0  0
 24 28  2  0  0  0  0
 25 66  1  0  0  0  0
 26 67  1  0  0  0  0
 26 68  1  0  0  0  0
 26 69  1  0  0  0  0
 29 33  1  0  0  0  0
 29 30  1  0  0  0  0
 29 70  1  6  0  0  0
 30 35  1  0  0  0  0
 30 31  1  0  0  0  0
 30 71  1  1  0  0  0
 31 32  1  0  0  0  0
 31 34  1  0  0  0  0
 31 72  1  6  0  0  0
 32 73  1  0  0  0  0
 32 74  1  0  0  0  0
 32 75  1  0  0  0  0
 34 76  1  0  0  0  0
 35 77  1  0  0  0  0
 35 78  1  0  0  0  0
 35 79  1  0  0  0  0
M  END
>  <DRUGBANK_ID>
DB00410

>  <SECONDARY_ACCESSION_NUMBERS>
APRD00162

>  <COMMON_NAME>
Mupirocin

>  <CAS_NUMBER>
12650-69-0

>  <UNII>
D0GX863OA5

>  <SYNONYMS>
9-[(E)-4-[(2S,3R,4R,5S)-3,4-dihydroxy-5-[[(2S,3S)-3- [(2S,3S)-3-hydroxybutan-2-yl]oxiran-2-yl]methyl] oxan-2-yl]-3-methylbut-2-enoyl]oxynonanoic acid; Mupirocin; Mupirocina; Mupirocine; Mupirocinum; Pseudomonic acid; Pseudomonic acid A

$$$$
