809
 OpenBabel10282417072D

 40 43  0  0  0  0  0  0  0  0999 V2000
    0.6500   -2.2945    0.0000 O   0  0  0  0  0  0  0  0  0  0  0  0
    0.8215   -1.4875    0.0000 C   0  0  0  0  0  0  0  0  0  0  0  0
    1.5752   -1.1519    0.0000 N   0  0  0  0  0  0  0  0  0  0  0  0
    1.4889   -0.3315    0.0000 C   0  0  0  0  0  0  0  0  0  0  0  0
    2.1020    0.2206    0.0000 O   0  0  0  0  0  0  0  0  0  0  0  0
    0.6820   -0.1599    0.0000 C   0  0  0  0  0  0  0  0  0  0  0  0
    0.2695   -0.8744    0.0000 C   0  0  0  0  0  0  0  0  0  0  0  0
   -0.5555   -0.8744    0.0000 C   0  0  0  0  0  0  0  0  0  0  0  0
   -1.1076   -1.4875    0.0000 C   0  0  0  0  0  0  0  0  0  0  0  0
   -0.9360   -2.2945    0.0000 C   0  0  0  0  0  0  0  0  0  0  0  0
   -1.5491   -2.8465    0.0000 C   0  0  0  0  0  0  0  0  0  0  0  0
   -1.3776   -3.6535    0.0000 O   0  0  0  0  0  0  0  0  0  0  0  0
   -1.8612   -1.1519    0.0000 C   0  0  0  0  0  0  0  0  0  0  0  0
   -1.7750   -0.3315    0.0000 N   0  0  0  0  0  0  0  0  0  0  0  0
   -2.3881    0.2206    0.0000 C   0  0  0  0  0  0  0  0  0  0  0  0
   -0.9680   -0.1599    0.0000 C   0  0  0  0  0  0  0  0  0  0  0  0
   -0.5555    0.5545    0.0000 C   0  0  0  0  0  0  0  0  0  0  0  0
    0.2695    0.5545    0.0000 C   0  0  0  0  0  0  0  0  0  0  0  0
    0.6820    1.2690    0.0000 C   0  0  0  0  0  0  0  0  0  0  0  0
    0.2695    1.9835    0.0000 C   0  0  0  0  0  0  0  0  0  0  0  0
    1.5070    1.2690    0.0000 C   0  0  0  0  0  0  0  0  0  0  0  0
    1.9195    0.5545    0.0000 Cl  0  0  0  0  0  0  0  0  0  0  0  0
    1.9195    1.9835    0.0000 C   0  0  0  0  0  0  0  0  0  0  0  0
    1.5070    2.6980    0.0000 C   0  0  0  0  0  0  0  0  0  0  0  0
    0.6820    2.6980    0.0000 C   0  0  0  0  0  0  0  0  0  0  0  0
    2.4278   -1.6441    0.0000 H   0  0  0  0  0  0  0  0  0  0  0  0
    0.0816   -2.6251    0.0000 H   0  0  0  0  0  0  0  0  0  0  0  0
   -0.7135   -3.3411    0.0000 H   0  0  0  0  0  0  0  0  0  0  0  0
   -2.5667   -2.5158    0.0000 H   0  0  0  0  0  0  0  0  0  0  0  0
   -2.3443   -3.5624    0.0000 H   0  0  0  0  0  0  0  0  0  0  0  0
   -2.0985   -4.3025    0.0000 H   0  0  0  0  0  0  0  0  0  0  0  0
   -2.7550   -1.6679    0.0000 H   0  0  0  0  0  0  0  0  0  0  0  0
   -2.1656    1.2672    0.0000 H   0  0  0  0  0  0  0  0  0  0  0  0
   -3.4057   -0.1100    0.0000 H   0  0  0  0  0  0  0  0  0  0  0  0
   -3.1832    0.9366    0.0000 H   0  0  0  0  0  0  0  0  0  0  0  0
   -1.0715    1.4482    0.0000 H   0  0  0  0  0  0  0  0  0  0  0  0
   -0.7625    1.9835    0.0000 H   0  0  0  0  0  0  0  0  0  0  0  0
    2.9515    1.9835    0.0000 H   0  0  0  0  0  0  0  0  0  0  0  0
    2.0230    3.5917    0.0000 H   0  0  0  0  0  0  0  0  0  0  0  0
    0.1660    3.5917    0.0000 H   0  0  0  0  0  0  0  0  0  0  0  0
  1  2  2  0  0  0  0
  2  3  1  0  0  0  0
  2  7  1  0  0  0  0
  3  4  1  0  0  0  0
  3 26  1  0  0  0  0
  4  5  2  0  0  0  0
  4  6  1  0  0  0  0
  6  7  2  0  0  0  0
  6 18  1  0  0  0  0
  7  8  1  0  0  0  0
  8  9  1  0  0  0  0
  8 16  2  0  0  0  0
  9 10  1  0  0  0  0
  9 13  2  0  0  0  0
 10 11  1  0  0  0  0
 10 27  1  0  0  0  0
 10 28  1  0  0  0  0
 11 12  1  0  0  0  0
 11 29  1  0  0  0  0
 11 30  1  0  0  0  0
 12 31  1  0  0  0  0
 13 14  1  0  0  0  0
 13 32  1  0  0  0  0
 14 15  1  0  0  0  0
 14 16  1  0  0  0  0
 15 33  1  0  0  0  0
 15 34  1  0  0  0  0
 15 35  1  0  0  0  0
 16 17  1  0  0  0  0
 17 18  2  0  0  0  0
 17 36  1  0  0  0  0
 18 19  1  0  0  0  0
 19 20  2  0  0  0  0
 19 21  1  0  0  0  0
 20 25  1  0  0  0  0
 20 37  1  0  0  0  0
 21 22  1  0  0  0  0
 21 23  2  0  0  0  0
 23 24  1  0  0  0  0
 23 38  1  0  0  0  0
 24 25  2  0  0  0  0
 24 39  1  0  0  0  0
 25 40  1  0  0  0  0
M  END
>  <DRUGBANK_ID>
DB07257

>  <COMMON_NAME>
4-(2-chlorophenyl)-8-(2-hydroxyethyl)-6-methylpyrrolo[3,4-e]indole-1,3(2H,6H)-dione

$$$$
