
 OpenBabel10282417072D

 56 59  0  0  0  0  0  0  0  0999 V2000
   -2.5297   -0.7425    0.0000 C   0  0  0  0  0  0  0  0  0  0  0  0
   -2.5297   -1.5676    0.0000 C   0  0  0  0  0  0  0  0  0  0  0  0
   -1.8284   -1.9802    0.0000 C   0  0  0  0  0  0  0  0  0  0  0  0
   -1.0857   -1.5676    0.0000 C   0  0  0  0  0  0  0  0  0  0  0  0
   -1.0857   -0.7425    0.0000 C   0  0  2  0  0  0  0  0  0  0  0  0
   -1.8284   -0.3300    0.0000 C   0  0  0  0  0  0  0  0  0  0  0  0
   -0.3844   -1.9802    0.0000 C   0  0  0  0  0  0  0  0  0  0  0  0
    0.3168   -1.5676    0.0000 C   0  0  0  0  0  0  0  0  0  0  0  0
    0.3168   -0.7425    0.0000 C   0  0  2  0  0  0  0  0  0  0  0  0
   -0.3844   -0.3300    0.0000 C   0  0  2  0  0  0  0  0  0  0  0  0
    1.0182   -0.3300    0.0000 C   0  0  1  0  0  0  0  0  0  0  0  0
    1.0182    0.4951    0.0000 C   0  0  2  0  0  0  0  0  0  0  0  0
    0.3168    0.9076    0.0000 C   0  0  0  0  0  0  0  0  0  0  0  0
   -0.3844    0.4951    0.0000 C   0  0  2  0  0  0  0  0  0  0  0  0
    1.8020   -0.5775    0.0000 C   0  0  0  0  0  0  0  0  0  0  0  0
    2.2971    0.0825    0.0000 C   0  0  0  0  0  0  0  0  0  0  0  0
    1.8020    0.7425    0.0000 C   0  0  1  0  0  0  0  0  0  0  0  0
   -3.2311   -1.9802    0.0000 O   0  0  0  0  0  0  0  0  0  0  0  0
    0.3168    0.0825    0.0000 H   0  0  0  0  0  0  0  0  0  0  0  0
   -1.0857    0.9076    0.0000 O   0  0  0  0  0  0  0  0  0  0  0  0
    1.0182    1.3202    0.0000 C   0  0  0  0  0  0  0  0  0  0  0  0
   -0.3844   -1.1551    0.0000 F   0  0  0  0  0  0  0  0  0  0  0  0
    1.0182   -1.1551    0.0000 H   0  0  0  0  0  0  0  0  0  0  0  0
    2.5859    0.9489    0.0000 O   0  0  0  0  0  0  0  0  0  0  0  0
   -1.0857    0.0825    0.0000 C   0  0  0  0  0  0  0  0  0  0  0  0
    1.8020    1.5677    0.0000 C   0  0  0  0  0  0  0  0  0  0  0  0
    1.0874    1.9802    0.0000 O   0  0  0  0  0  0  0  0  0  0  0  0
    2.5166    1.9802    0.0000 C   0  0  0  0  0  0  0  0  0  0  0  0
    3.2311    1.5677    0.0000 O   0  0  0  0  0  0  0  0  0  0  0  0
   -3.4585   -0.2113    0.0000 H   0  0  0  0  0  0  0  0  0  0  0  0
   -2.5362    0.3275    0.0000 H   0  0  0  0  0  0  0  0  0  0  0  0
   -1.8412   -3.0121    0.0000 H   0  0  0  0  0  0  0  0  0  0  0  0
   -1.8416    0.7399    0.0000 H   0  0  0  0  0  0  0  0  0  0  0  0
   -2.7605    0.1955    0.0000 H   0  0  0  0  0  0  0  0  0  0  0  0
   -0.3844   -3.0502    0.0000 H   0  0  0  0  0  0  0  0  0  0  0  0
    0.5445   -2.5114    0.0000 H   0  0  0  0  0  0  0  0  0  0  0  0
    1.2456   -2.0988    0.0000 H   0  0  0  0  0  0  0  0  0  0  0  0
    1.2423   -1.0307    0.0000 H   0  0  0  0  0  0  0  0  0  0  0  0
    0.3167    1.9776    0.0000 H   0  0  0  0  0  0  0  0  0  0  0  0
   -0.6120    1.4388    0.0000 H   0  0  0  0  0  0  0  0  0  0  0  0
   -0.3844    1.5651    0.0000 H   0  0  0  0  0  0  0  0  0  0  0  0
    2.1291   -1.5963    0.0000 H   0  0  0  0  0  0  0  0  0  0  0  0
    2.8572   -0.7548    0.0000 H   0  0  0  0  0  0  0  0  0  0  0  0
    3.3671    0.0825    0.0000 H   0  0  0  0  0  0  0  0  0  0  0  0
    2.7756    1.0396    0.0000 H   0  0  0  0  0  0  0  0  0  0  0  0
   -1.0778    1.8776    0.0000 H   0  0  0  0  0  0  0  0  0  0  0  0
    1.9448    1.8552    0.0000 H   0  0  0  0  0  0  0  0  0  0  0  0
    0.0916    1.8552    0.0000 H   0  0  0  0  0  0  0  0  0  0  0  0
    1.0182    2.3902    0.0000 H   0  0  0  0  0  0  0  0  0  0  0  0
    3.2688    0.2600    0.0000 H   0  0  0  0  0  0  0  0  0  0  0  0
   -0.1591    0.6175    0.0000 H   0  0  0  0  0  0  0  0  0  0  0  0
   -2.0123    0.6175    0.0000 H   0  0  0  0  0  0  0  0  0  0  0  0
   -1.0857    1.1525    0.0000 H   0  0  0  0  0  0  0  0  0  0  0  0
    2.5166    3.0502    0.0000 H   0  0  0  0  0  0  0  0  0  0  0  0
    3.4433    2.5152    0.0000 H   0  0  0  0  0  0  0  0  0  0  0  0
    3.2311    0.5977    0.0000 H   0  0  0  0  0  0  0  0  0  0  0  0
  1  2  1  0  0  0  0
  1  6  1  0  0  0  0
  1 30  1  0  0  0  0
  1 31  1  0  0  0  0
  2  3  1  0  0  0  0
  2 18  2  0  0  0  0
  3  4  2  0  0  0  0
  3 32  1  0  0  0  0
  4  5  1  0  0  0  0
  4  7  1  0  0  0  0
  5  6  1  0  0  0  0
  5 10  1  0  0  0  0
  5 25  1  1  0  0  0
  6 33  1  0  0  0  0
  6 34  1  0  0  0  0
  7  8  1  0  0  0  0
  7 35  1  0  0  0  0
  7 36  1  0  0  0  0
  8  9  1  0  0  0  0
  8 37  1  0  0  0  0
  8 38  1  0  0  0  0
  9 10  1  0  0  0  0
  9 11  1  0  0  0  0
  9 19  1  1  0  0  0
 10 14  1  0  0  0  0
 10 22  1  6  0  0  0
 11 12  1  0  0  0  0
 11 15  1  0  0  0  0
 11 23  1  6  0  0  0
 12 13  1  0  0  0  0
 12 17  1  0  0  0  0
 12 21  1  1  0  0  0
 13 14  1  0  0  0  0
 13 39  1  0  0  0  0
 13 40  1  0  0  0  0
 14 20  1  0  0  0  0
 14 41  1  6  0  0  0
 15 16  1  0  0  0  0
 15 42  1  0  0  0  0
 15 43  1  0  0  0  0
 16 17  1  0  0  0  0
 16 44  1  0  0  0  0
 16 45  1  0  0  0  0
 17 24  1  6  0  0  0
 17 26  1  0  0  0  0
 20 46  1  0  0  0  0
 21 47  1  0  0  0  0
 21 48  1  0  0  0  0
 21 49  1  0  0  0  0
 24 50  1  0  0  0  0
 25 51  1  0  0  0  0
 25 52  1  0  0  0  0
 25 53  1  0  0  0  0
 26 27  2  0  0  0  0
 26 28  1  0  0  0  0
 28 29  1  0  0  0  0
 28 54  1  0  0  0  0
 28 55  1  0  0  0  0
 29 56  1  0  0  0  0
M  END
>  <DRUGBANK_ID>
DB00687

>  <SECONDARY_ACCESSION_NUMBERS>
APRD00756; DB02478

>  <COMMON_NAME>
Fludrocortisone

>  <CAS_NUMBER>
127-31-1

>  <UNII>
U0476M545B

>  <SYNONYMS>
9alpha-Fluorocortisol; Fludrocortison; Fludrocortisona; Fludrocortisone; Fludrocortisonum; Fluohydrocortisone

$$$$
