
 OpenBabel10282417072D

 26 26  0  0  0  0  0  0  0  0999 V2000
   -1.1083    0.0000    0.0000 C   0  0  0  0  0  0  0  0  0  0  0  0
   -0.3554   -0.4183    0.0000 C   0  0  0  0  0  0  0  0  0  0  0  0
   -1.8194   -0.4183    0.0000 C   0  0  0  0  0  0  0  0  0  0  0  0
   -1.1083    0.8365    0.0000 C   0  0  0  0  0  0  0  0  0  0  0  0
    0.3555    0.0000    0.0000 N   0  0  0  0  0  0  0  0  0  0  0  0
   -0.3554   -1.2547    0.0000 O   0  0  0  0  0  0  0  0  0  0  0  0
   -2.5304    0.0000    0.0000 C   0  0  0  0  0  0  0  0  0  0  0  0
   -1.8194    1.2547    0.0000 C   0  0  0  0  0  0  0  0  0  0  0  0
    1.0666   -0.4183    0.0000 N   0  0  0  0  0  0  0  0  0  0  0  0
   -2.5304    0.8365    0.0000 N   0  0  0  0  0  0  0  0  0  0  0  0
    1.8195    0.0000    0.0000 C   0  0  0  0  0  0  0  0  0  0  0  0
    2.5304   -0.4183    0.0000 C   0  0  0  0  0  0  0  0  0  0  0  0
    1.8195    0.8365    0.0000 C   0  0  0  0  0  0  0  0  0  0  0  0
   -1.8194   -1.4503    0.0000 H   0  0  0  0  0  0  0  0  0  0  0  0
   -0.2125    1.3489    0.0000 H   0  0  0  0  0  0  0  0  0  0  0  0
    0.3554    0.9845    0.0000 H   0  0  0  0  0  0  0  0  0  0  0  0
   -3.4262   -0.5123    0.0000 H   0  0  0  0  0  0  0  0  0  0  0  0
   -1.8194    2.2867    0.0000 H   0  0  0  0  0  0  0  0  0  0  0  0
    1.0540   -1.4382    0.0000 H   0  0  0  0  0  0  0  0  0  0  0  0
    2.7483    0.5312    0.0000 H   0  0  0  0  0  0  0  0  0  0  0  0
    2.5216   -1.4883    0.0000 H   0  0  0  0  0  0  0  0  0  0  0  0
    3.4614    0.1090    0.0000 H   0  0  0  0  0  0  0  0  0  0  0  0
    3.4526   -0.9609    0.0000 H   0  0  0  0  0  0  0  0  0  0  0  0
    2.7461    1.3715    0.0000 H   0  0  0  0  0  0  0  0  0  0  0  0
    0.8929    1.3715    0.0000 H   0  0  0  0  0  0  0  0  0  0  0  0
    1.8195    1.9065    0.0000 H   0  0  0  0  0  0  0  0  0  0  0  0
  1  4  1  0  0  0  0
  1  2  1  0  0  0  0
  1  3  2  0  0  0  0
  2  5  1  0  0  0  0
  2  6  2  0  0  0  0
  3  7  1  0  0  0  0
  3 14  1  0  0  0  0
  4  8  2  0  0  0  0
  4 15  1  0  0  0  0
  5  9  1  0  0  0  0
  5 16  1  0  0  0  0
  7 10  2  0  0  0  0
  7 17  1  0  0  0  0
  8 10  1  0  0  0  0
  8 18  1  0  0  0  0
  9 11  1  0  0  0  0
  9 19  1  0  0  0  0
 11 12  1  0  0  0  0
 11 13  1  0  0  0  0
 11 20  1  0  0  0  0
 12 21  1  0  0  0  0
 12 22  1  0  0  0  0
 12 23  1  0  0  0  0
 13 24  1  0  0  0  0
 13 25  1  0  0  0  0
 13 26  1  0  0  0  0
M  END
>  <DRUGBANK_ID>
DB04818

>  <COMMON_NAME>
Iproniazid

>  <CAS_NUMBER>
54-92-2

>  <UNII>
D892HFI3XA

>  <SYNONYMS>
Iproniazid; Iproniazida; Iproniazide; Iproniazidum

$$$$
