D4N
 OpenBabel10282417072D

 56 58  0  0  0  0  0  0  0  0999 V2000
   -1.6747   -3.0353    0.0000 O   0  0  0  0  0  0  0  0  0  0  0  0
   -0.2673   -3.2835    0.0000 C   0  0  0  0  0  0  0  0  0  0  0  0
   -0.9248    4.5595    0.0000 C   0  0  0  0  0  0  0  0  0  0  0  0
   -0.8994   -2.7532    0.0000 C   0  0  0  0  0  0  0  0  0  0  0  0
   -0.7815    3.7471    0.0000 C   0  0  2  0  0  0  0  0  0  0  0  0
    0.1452   -3.9980    0.0000 C   0  0  0  0  0  0  0  0  0  0  0  0
   -1.5940    3.6038    0.0000 C   0  0  0  0  0  0  0  0  0  0  0  0
   -0.6382    2.9345    0.0000 C   0  0  0  0  0  0  0  0  0  0  0  0
    0.1371    2.6523    0.0000 C   0  0  0  0  0  0  0  0  0  0  0  0
    0.2803    1.8398    0.0000 C   0  0  0  0  0  0  0  0  0  0  0  0
   -0.3517    1.3095    0.0000 C   0  0  0  0  0  0  0  0  0  0  0  0
   -1.1270    1.5916    0.0000 C   0  0  0  0  0  0  0  0  0  0  0  0
   -1.2703    2.4042    0.0000 C   0  0  0  0  0  0  0  0  0  0  0  0
   -0.6798   -3.9980    0.0000 C   0  0  0  0  0  0  0  0  0  0  0  0
   -0.6971   -0.8460    0.0000 C   0  0  0  0  0  0  0  0  0  0  0  0
   -1.0681    5.3721    0.0000 F   0  0  0  0  0  0  0  0  0  0  0  0
   -0.1122    4.7028    0.0000 F   0  0  0  0  0  0  0  0  0  0  0  0
   -1.7373    4.4163    0.0000 F   0  0  0  0  0  0  0  0  0  0  0  0
    0.0310    3.8903    0.0000 O   0  0  0  0  0  0  0  0  0  0  0  0
   -0.2084    0.4969    0.0000 S   0  0  0  0  0  0  0  0  0  0  0  0
    0.6041    0.6402    0.0000 O   0  0  0  0  0  0  0  0  0  0  0  0
   -1.0210    0.3536    0.0000 O   0  0  0  0  0  0  0  0  0  0  0  0
   -0.0651   -0.3156    0.0000 N   0  0  0  0  0  0  0  0  0  0  0  0
    0.7102   -0.5977    0.0000 C   0  0  2  0  0  0  0  0  0  0  0  0
    1.3422   -0.0674    0.0000 C   0  0  0  0  0  0  0  0  0  0  0  0
    0.8535   -1.4103    0.0000 C   0  0  0  0  0  0  0  0  0  0  0  0
   -0.5539   -1.6584    0.0000 C   0  0  0  0  0  0  0  0  0  0  0  0
    0.2214   -1.9406    0.0000 N   0  0  0  0  0  0  0  0  0  0  0  0
    0.3646   -2.7532    0.0000 C   0  0  0  0  0  0  0  0  0  0  0  0
   -0.7562   -1.9406    0.0000 N   0  0  0  0  0  0  0  0  0  0  0  0
    0.6087   -0.0227    0.0000 H   0  0  0  0  0  0  0  0  0  0  0  0
    1.0718   -4.5330    0.0000 H   0  0  0  0  0  0  0  0  0  0  0  0
   -0.1317   -5.0315    0.0000 H   0  0  0  0  0  0  0  0  0  0  0  0
   -2.2818    4.4234    0.0000 H   0  0  0  0  0  0  0  0  0  0  0  0
   -1.9599    2.5983    0.0000 H   0  0  0  0  0  0  0  0  0  0  0  0
   -2.6477    3.4180    0.0000 H   0  0  0  0  0  0  0  0  0  0  0  0
    0.9277    3.3156    0.0000 H   0  0  0  0  0  0  0  0  0  0  0  0
    1.2500    1.4868    0.0000 H   0  0  0  0  0  0  0  0  0  0  0  0
   -1.9175    0.9282    0.0000 H   0  0  0  0  0  0  0  0  0  0  0  0
   -2.2401    2.7572    0.0000 H   0  0  0  0  0  0  0  0  0  0  0  0
   -1.6064   -4.5330    0.0000 H   0  0  0  0  0  0  0  0  0  0  0  0
   -0.4029   -5.0315    0.0000 H   0  0  0  0  0  0  0  0  0  0  0  0
   -1.7026   -0.4801    0.0000 H   0  0  0  0  0  0  0  0  0  0  0  0
   -1.5168   -1.5338    0.0000 H   0  0  0  0  0  0  0  0  0  0  0  0
    0.6544    3.1472    0.0000 H   0  0  0  0  0  0  0  0  0  0  0  0
    2.3477   -0.4334    0.0000 H   0  0  0  0  0  0  0  0  0  0  0  0
    1.1564    0.9863    0.0000 H   0  0  0  0  0  0  0  0  0  0  0  0
    2.1619    0.6204    0.0000 H   0  0  0  0  0  0  0  0  0  0  0  0
    1.8590   -1.7763    0.0000 H   0  0  0  0  0  0  0  0  0  0  0  0
    1.0392   -2.4641    0.0000 H   0  0  0  0  0  0  0  0  0  0  0  0
   -1.3736   -2.3462    0.0000 H   0  0  0  0  0  0  0  0  0  0  0  0
   -0.3681   -2.7121    0.0000 H   0  0  0  0  0  0  0  0  0  0  0  0
    1.3701   -3.1192    0.0000 H   0  0  0  0  0  0  0  0  0  0  0  0
    1.1843   -2.0655    0.0000 H   0  0  0  0  0  0  0  0  0  0  0  0
    0.1689   -1.6038    0.0000 H   0  0  0  0  0  0  0  0  0  0  0  0
   -1.5104   -1.3079    0.0000 H   0  0  0  0  0  0  0  0  0  0  0  0
  1  4  2  0  0  0  0
  2  4  1  0  0  0  0
  2  6  1  0  0  0  0
  2 14  1  0  0  0  0
  2 29  1  0  0  0  0
  3  5  1  0  0  0  0
  3 16  1  0  0  0  0
  3 17  1  0  0  0  0
  3 18  1  0  0  0  0
  4 30  1  0  0  0  0
  5  7  1  0  0  0  0
  5  8  1  0  0  0  0
  5 19  1  6  0  0  0
  6 14  1  0  0  0  0
  6 32  1  0  0  0  0
  6 33  1  0  0  0  0
  7 34  1  0  0  0  0
  7 35  1  0  0  0  0
  7 36  1  0  0  0  0
  8  9  2  0  0  0  0
  8 13  1  0  0  0  0
  9 10  1  0  0  0  0
  9 37  1  0  0  0  0
 10 11  2  0  0  0  0
 10 38  1  0  0  0  0
 11 12  1  0  0  0  0
 11 20  1  0  0  0  0
 12 13  2  0  0  0  0
 12 39  1  0  0  0  0
 13 40  1  0  0  0  0
 14 41  1  0  0  0  0
 14 42  1  0  0  0  0
 15 23  1  0  0  0  0
 15 27  1  0  0  0  0
 15 43  1  0  0  0  0
 15 44  1  0  0  0  0
 19 45  1  0  0  0  0
 20 21  2  0  0  0  0
 20 22  2  0  0  0  0
 20 23  1  0  0  0  0
 23 24  1  0  0  0  0
 24 25  1  0  0  0  0
 24 26  1  0  0  0  0
 24 31  1  1  0  0  0
 25 46  1  0  0  0  0
 25 47  1  0  0  0  0
 25 48  1  0  0  0  0
 26 28  1  0  0  0  0
 26 49  1  0  0  0  0
 26 50  1  0  0  0  0
 27 28  1  0  0  0  0
 27 51  1  0  0  0  0
 27 52  1  0  0  0  0
 28 29  1  0  0  0  0
 29 53  1  0  0  0  0
 29 54  1  0  0  0  0
 30 55  1  0  0  0  0
 30 56  1  0  0  0  0
M  END
>  <DRUGBANK_ID>
DB07624

>  <COMMON_NAME>
1-{[(3R)-3-methyl-4-({4-[(1S)-2,2,2-trifluoro-1-hydroxy-1-methylethyl]phenyl}sulfonyl)piperazin-1-yl]methyl}cyclopropanecarboxamide

$$$$
