
 OpenBabel10282417072D

275279  0  0  1  0  0  0  0  0999 V2000
   14.0432   -5.1294    0.0000 C   0  0  0  0  0  0  0  0  0  0  0  0
   13.2233   -4.9414    0.0000 C   0  0  0  0  0  0  0  0  0  0  0  0
   13.1494   -5.8166    0.0000 C   0  0  0  0  0  0  0  0  0  0  0  0
   12.9580   -4.0838    0.0000 C   0  0  2  0  0  0  0  0  0  0  0  0
   12.1582   -4.3355    0.0000 N   0  0  0  0  0  0  0  0  0  0  0  0
   11.3226   -4.3953    0.0000 C   0  0  0  0  0  0  0  0  0  0  0  0
   11.3544   -5.2616    0.0000 O   0  0  0  0  0  0  0  0  0  0  0  0
   10.4807   -4.2967    0.0000 C   0  0  2  0  0  0  0  0  0  0  0  0
    9.9183   -5.0249    0.0000 C   0  0  0  0  0  0  0  0  0  0  0  0
   10.4560   -5.6116    0.0000 C   0  0  0  0  0  0  0  0  0  0  0  0
   11.2614   -5.4330    0.0000 C   0  0  0  0  0  0  0  0  0  0  0  0
   11.8188   -6.0413    0.0000 C   0  0  0  0  0  0  0  0  0  0  0  0
   11.5707   -6.8281    0.0000 C   0  0  0  0  0  0  0  0  0  0  0  0
   10.7653   -7.0067    0.0000 C   0  0  0  0  0  0  0  0  0  0  0  0
   10.2079   -6.3984    0.0000 C   0  0  0  0  0  0  0  0  0  0  0  0
    9.9383   -3.6569    0.0000 N   0  0  0  0  0  0  0  0  0  0  0  0
   10.1623   -2.8572    0.0000 C   0  0  0  0  0  0  0  0  0  0  0  0
    9.7846   -2.0365    0.0000 O   0  0  0  0  0  0  0  0  0  0  0  0
   10.9240   -2.3507    0.0000 C   0  0  2  0  0  0  0  0  0  0  0  0
   10.7737   -3.1340    0.0000 C   0  0  0  0  0  0  0  0  0  0  0  0
    9.8042   -3.2621    0.0000 C   0  0  0  0  0  0  0  0  0  0  0  0
   10.5908   -3.7867    0.0000 O   0  0  0  0  0  0  0  0  0  0  0  0
    8.9886   -3.7385    0.0000 O   0  0  0  0  0  0  0  0  0  0  0  0
   11.5208   -1.7776    0.0000 N   0  0  0  0  0  0  0  0  0  0  0  0
   11.2431   -0.9902    0.0000 C   0  0  0  0  0  0  0  0  0  0  0  0
   12.0780   -0.9402    0.0000 O   0  0  0  0  0  0  0  0  0  0  0  0
   10.7916   -0.2823    0.0000 C   0  0  0  0  0  0  0  0  0  0  0  0
   10.5441   -1.2329    0.0000 C   0  0  0  0  0  0  0  0  0  0  0  0
   10.3688   -2.0469    0.0000 O   0  0  0  0  0  0  0  0  0  0  0  0
   10.2459    0.3535    0.0000 N   0  0  0  0  0  0  0  0  0  0  0  0
    9.3106    0.5867    0.0000 C   0  0  0  0  0  0  0  0  0  0  0  0
    9.7068    1.3663    0.0000 O   0  0  0  0  0  0  0  0  0  0  0  0
    8.4369    0.5280    0.0000 C   0  0  2  0  0  0  0  0  0  0  0  0
    7.7502    1.1339    0.0000 C   0  0  0  0  0  0  0  0  0  0  0  0
    7.1724    1.9227    0.0000 S   0  0  0  0  0  0  0  0  0  0  0  0
    6.8905    2.7332    0.0000 S   0  0  0  0  0  0  0  0  0  0  0  0
    6.3541    3.3722    0.0000 C   0  0  0  0  0  0  0  0  0  0  0  0
    5.5132    3.2499    0.0000 C   0  0  2  0  0  0  0  0  0  0  0  0
    5.1384    4.0044    0.0000 N   0  0  0  0  0  0  0  0  0  0  0  0
    5.0674    4.8379    0.0000 C   0  0  0  0  0  0  0  0  0  0  0  0
    4.2216    4.7176    0.0000 O   0  0  0  0  0  0  0  0  0  0  0  0
    5.2343    5.6586    0.0000 C   0  0  0  0  0  0  0  0  0  0  0  0
    4.3773    6.0009    0.0000 C   0  0  0  0  0  0  0  0  0  0  0  0
    3.6690    6.5579    0.0000 C   0  0  0  0  0  0  0  0  0  0  0  0
    2.8144    6.7638    0.0000 C   0  0  0  0  0  0  0  0  0  0  0  0
    2.3898    7.5176    0.0000 N   0  0  0  0  0  0  0  0  0  0  0  0
    1.5765    7.8611    0.0000 C   0  0  0  0  0  0  0  0  0  0  0  0
    0.7961    7.5542    0.0000 N   0  0  0  0  0  0  0  0  0  0  0  0
    1.2724    8.6792    0.0000 N   0  0  0  0  0  0  0  0  0  0  0  0
    5.3685    6.4939    0.0000 N   0  0  0  0  0  0  0  0  0  0  0  0
    5.8149    7.2150    0.0000 C   0  0  0  0  0  0  0  0  0  0  0  0
    5.5695    8.0289    0.0000 O   0  0  0  0  0  0  0  0  0  0  0  0
    6.6377    7.3706    0.0000 C   0  0  2  0  0  0  0  0  0  0  0  0
    6.8580    8.2644    0.0000 C   0  0  0  0  0  0  0  0  0  0  0  0
    7.5050    8.8976    0.0000 C   0  0  0  0  0  0  0  0  0  0  0  0
    7.7980    9.7121    0.0000 C   0  0  0  0  0  0  0  0  0  0  0  0
    8.5954   10.0340    0.0000 N   0  0  0  0  0  0  0  0  0  0  0  0
    8.9383   10.8462    0.0000 C   0  0  0  0  0  0  0  0  0  0  0  0
    8.6259   11.6251    0.0000 N   0  0  0  0  0  0  0  0  0  0  0  0
    9.7632   11.1296    0.0000 N   0  0  0  0  0  0  0  0  0  0  0  0
    7.3434    6.9196    0.0000 N   0  0  0  0  0  0  0  0  0  0  0  0
    7.7176    6.1667    0.0000 C   0  0  0  0  0  0  0  0  0  0  0  0
    8.4942    6.5234    0.0000 O   0  0  0  0  0  0  0  0  0  0  0  0
    8.0154    5.3822    0.0000 C   0  0  2  0  0  0  0  0  0  0  0  0
    7.0725    5.1364    0.0000 C   0  0  0  0  0  0  0  0  0  0  0  0
    8.6075    4.7913    0.0000 N   0  0  0  0  0  0  0  0  0  0  0  0
    9.3102    4.3316    0.0000 C   0  0  0  0  0  0  0  0  0  0  0  0
    9.4831    5.2068    0.0000 O   0  0  0  0  0  0  0  0  0  0  0  0
    9.9884    3.8333    0.0000 C   0  0  2  0  0  0  0  0  0  0  0  0
   10.7053    4.4910    0.0000 C   0  0  0  0  0  0  0  0  0  0  0  0
   11.4621    5.0493    0.0000 C   0  0  0  0  0  0  0  0  0  0  0  0
   11.8220    5.8637    0.0000 C   0  0  0  0  0  0  0  0  0  0  0  0
   11.5755    6.6842    0.0000 O   0  0  0  0  0  0  0  0  0  0  0  0
   12.6396    6.1173    0.0000 O   0  0  0  0  0  0  0  0  0  0  0  0
   10.5975    3.2483    0.0000 N   0  0  0  0  0  0  0  0  0  0  0  0
   11.0638    2.5448    0.0000 C   0  0  0  0  0  0  0  0  0  0  0  0
   11.9052    2.3415    0.0000 O   0  0  0  0  0  0  0  0  0  0  0  0
   11.6059    1.9002    0.0000 C   0  0  2  0  0  0  0  0  0  0  0  0
   12.2447    2.6316    0.0000 C   0  0  0  0  0  0  0  0  0  0  0  0
   13.1173    2.9846    0.0000 C   0  0  0  0  0  0  0  0  0  0  0  0
   13.6797    3.6304    0.0000 O   0  0  0  0  0  0  0  0  0  0  0  0
   14.0017    2.9572    0.0000 O   0  0  0  0  0  0  0  0  0  0  0  0
   12.1319    1.2430    0.0000 N   0  0  0  0  0  0  0  0  0  0  0  0
   12.6924    0.6146    0.0000 C   0  0  0  0  0  0  0  0  0  0  0  0
   13.4756    0.9517    0.0000 O   0  0  0  0  0  0  0  0  0  0  0  0
   13.1913   -0.0623    0.0000 C   0  0  2  0  0  0  0  0  0  0  0  0
   13.8961    0.4960    0.0000 C   0  0  0  0  0  0  0  0  0  0  0  0
   13.6364   -0.7755    0.0000 N   0  0  0  0  0  0  0  0  0  0  0  0
   14.0501   -1.5056    0.0000 C   0  0  0  0  0  0  0  0  0  0  0  0
   14.8374   -1.1535    0.0000 O   0  0  0  0  0  0  0  0  0  0  0  0
   14.3646   -2.2803    0.0000 C   0  0  2  0  0  0  0  0  0  0  0  0
   15.2698   -2.3978    0.0000 C   0  0  0  0  0  0  0  0  0  0  0  0
   16.1043   -2.7880    0.0000 C   0  0  0  0  0  0  0  0  0  0  0  0
   16.9654   -2.6288    0.0000 C   0  0  0  0  0  0  0  0  0  0  0  0
   17.6647   -3.1209    0.0000 N   0  0  0  0  0  0  0  0  0  0  0  0
   17.3874   -1.8890    0.0000 O   0  0  0  0  0  0  0  0  0  0  0  0
   14.2828   -3.1152    0.0000 N   0  0  0  0  0  0  0  0  0  0  0  0
   13.7272   -3.7467    0.0000 C   0  0  0  0  0  0  0  0  0  0  0  0
   14.2568   -4.4610    0.0000 O   0  0  0  0  0  0  0  0  0  0  0  0
    5.3246    2.4119    0.0000 C   0  0  0  0  0  0  0  0  0  0  0  0
    4.4339    2.6340    0.0000 O   0  0  0  0  0  0  0  0  0  0  0  0
    5.4251    1.5540    0.0000 N   0  0  0  0  0  0  0  0  0  0  0  0
    5.5924    0.6194    0.0000 C   0  0  1  0  0  0  0  0  0  0  0  0
    6.2165    0.1672    0.0000 C   0  0  0  0  0  0  0  0  0  0  0  0
    6.4255   -0.5416    0.0000 C   0  0  0  0  0  0  0  0  0  0  0  0
    7.1766   -0.8829    0.0000 C   0  0  0  0  0  0  0  0  0  0  0  0
    7.4826   -1.7618    0.0000 C   0  0  0  0  0  0  0  0  0  0  0  0
    6.6433   -1.9577    0.0000 C   0  0  0  0  0  0  0  0  0  0  0  0
    6.8928   -2.8496    0.0000 O   0  0  0  0  0  0  0  0  0  0  0  0
    5.8343   -1.8425    0.0000 C   0  0  0  0  0  0  0  0  0  0  0  0
    5.7544   -1.0214    0.0000 C   0  0  0  0  0  0  0  0  0  0  0  0
    4.8745    0.1852    0.0000 C   0  0  0  0  0  0  0  0  0  0  0  0
    3.9851    0.1941    0.0000 O   0  0  0  0  0  0  0  0  0  0  0  0
    5.1442    0.9685    0.0000 N   0  0  0  0  0  0  0  0  0  0  0  0
    6.0899    1.1003    0.0000 C   0  0  1  0  0  0  0  0  0  0  0  0
    5.5708    0.1263    0.0000 C   0  0  0  0  0  0  0  0  0  0  0  0
    5.3035   -0.8083    0.0000 C   0  0  0  0  0  0  0  0  0  0  0  0
    6.0165   -1.4276    0.0000 N   0  0  0  0  0  0  0  0  0  0  0  0
    4.4891   -1.2970    0.0000 O   0  0  0  0  0  0  0  0  0  0  0  0
    6.9405    1.3053    0.0000 C   0  0  0  0  0  0  0  0  0  0  0  0
    7.3901    0.8180    0.0000 O   0  0  0  0  0  0  0  0  0  0  0  0
    7.7390    1.8195    0.0000 N   0  0  0  0  0  0  0  0  0  0  0  0
    8.1361    2.5685    0.0000 C   0  0  1  0  0  0  0  0  0  0  0  0
    7.8296    3.4392    0.0000 C   0  0  0  0  0  0  0  0  0  0  0  0
    8.2479    4.1842    0.0000 C   0  0  0  0  0  0  0  0  0  0  0  0
    8.6633    3.4741    0.0000 O   0  0  0  0  0  0  0  0  0  0  0  0
    7.6665    4.9328    0.0000 O   0  0  0  0  0  0  0  0  0  0  0  0
    8.9642    2.6092    0.0000 C   0  0  0  0  0  0  0  0  0  0  0  0
    9.3330    3.5459    0.0000 O   0  0  0  0  0  0  0  0  0  0  0  0
    9.3111    1.8474    0.0000 N   0  0  0  0  0  0  0  0  0  0  0  0
   10.1359    1.8306    0.0000 C   0  0  0  0  0  0  0  0  0  0  0  0
   10.3748    1.0409    0.0000 C   0  0  0  0  0  0  0  0  0  0  0  0
    9.6976    0.5697    0.0000 C   0  0  0  0  0  0  0  0  0  0  0  0
    9.0402    1.0681    0.0000 C   0  0  1  0  0  0  0  0  0  0  0  0
    9.0457    0.1177    0.0000 C   0  0  0  0  0  0  0  0  0  0  0  0
    9.8933   -0.2594    0.0000 O   0  0  0  0  0  0  0  0  0  0  0  0
    8.7438   -0.6628    0.0000 N   0  0  0  0  0  0  0  0  0  0  0  0
    7.8318   -0.8678    0.0000 C   0  0  0  0  0  0  0  0  0  0  0  0
    7.1679   -2.0590    0.0000 C   0  0  0  0  0  0  0  0  0  0  0  0
    6.3341   -2.8200    0.0000 C   0  0  0  0  0  0  0  0  0  0  0  0
    5.5432   -3.3714    0.0000 C   0  0  0  0  0  0  0  0  0  0  0  0
    5.0441   -4.1442    0.0000 C   0  0  0  0  0  0  0  0  0  0  0  0
    4.8731   -4.9798    0.0000 N   0  0  0  0  0  0  0  0  0  0  0  0
    8.4663   -1.2485    0.0000 C   0  0  0  0  0  0  0  0  0  0  0  0
    8.3640   -2.0695    0.0000 O   0  0  0  0  0  0  0  0  0  0  0  0
    8.1986   -0.3295    0.0000 N   0  0  0  0  0  0  0  0  0  0  0  0
   14.3576   -6.1522    0.0000 H   0  0  0  0  0  0  0  0  0  0  0  0
   14.7718   -4.3458    0.0000 H   0  0  0  0  0  0  0  0  0  0  0  0
   15.0861   -5.3685    0.0000 H   0  0  0  0  0  0  0  0  0  0  0  0
   12.1595   -5.0566    0.0000 H   0  0  0  0  0  0  0  0  0  0  0  0
   12.1810   -6.2717    0.0000 H   0  0  0  0  0  0  0  0  0  0  0  0
   14.0277   -6.4277    0.0000 H   0  0  0  0  0  0  0  0  0  0  0  0
   13.0594   -6.8828    0.0000 H   0  0  0  0  0  0  0  0  0  0  0  0
   12.4611   -5.0314    0.0000 H   0  0  0  0  0  0  0  0  0  0  0  0
   12.3424   -5.3026    0.0000 H   0  0  0  0  0  0  0  0  0  0  0  0
   10.8957   -5.2829    0.0000 H   0  0  0  0  0  0  0  0  0  0  0  0
    8.8492   -5.0699    0.0000 H   0  0  0  0  0  0  0  0  0  0  0  0
    9.5081   -6.0132    0.0000 H   0  0  0  0  0  0  0  0  0  0  0  0
   11.5717   -4.4488    0.0000 H   0  0  0  0  0  0  0  0  0  0  0  0
   12.8263   -5.8179    0.0000 H   0  0  0  0  0  0  0  0  0  0  0  0
   12.2679   -7.5890    0.0000 H   0  0  0  0  0  0  0  0  0  0  0  0
   10.4550   -7.9909    0.0000 H   0  0  0  0  0  0  0  0  0  0  0  0
    9.2004   -6.6218    0.0000 H   0  0  0  0  0  0  0  0  0  0  0  0
    8.9765   -3.8670    0.0000 H   0  0  0  0  0  0  0  0  0  0  0  0
   10.3316   -3.2417    0.0000 H   0  0  0  0  0  0  0  0  0  0  0  0
   11.5080   -3.9123    0.0000 H   0  0  0  0  0  0  0  0  0  0  0  0
   10.4153   -4.1422    0.0000 H   0  0  0  0  0  0  0  0  0  0  0  0
   10.5303   -4.7217    0.0000 H   0  0  0  0  0  0  0  0  0  0  0  0
   12.4786   -2.0052    0.0000 H   0  0  0  0  0  0  0  0  0  0  0  0
    9.7491   -0.5234    0.0000 H   0  0  0  0  0  0  0  0  0  0  0  0
    9.5031   -0.9854    0.0000 H   0  0  0  0  0  0  0  0  0  0  0  0
    9.6390   -1.8037    0.0000 H   0  0  0  0  0  0  0  0  0  0  0  0
    9.4455   -2.3442    0.0000 H   0  0  0  0  0  0  0  0  0  0  0  0
   10.7629    1.1913    0.0000 H   0  0  0  0  0  0  0  0  0  0  0  0
    9.1125   -0.3017    0.0000 H   0  0  0  0  0  0  0  0  0  0  0  0
    6.9601    0.4124    0.0000 H   0  0  0  0  0  0  0  0  0  0  0  0
    6.6855    1.2400    0.0000 H   0  0  0  0  0  0  0  0  0  0  0  0
    6.7351    4.3721    0.0000 H   0  0  0  0  0  0  0  0  0  0  0  0
    5.6850    4.2072    0.0000 H   0  0  0  0  0  0  0  0  0  0  0  0
    6.0098    4.1977    0.0000 H   0  0  0  0  0  0  0  0  0  0  0  0
    4.1904    3.7389    0.0000 H   0  0  0  0  0  0  0  0  0  0  0  0
    4.7066    6.5894    0.0000 H   0  0  0  0  0  0  0  0  0  0  0  0
    3.8427    5.0740    0.0000 H   0  0  0  0  0  0  0  0  0  0  0  0
    3.3267    5.7982    0.0000 H   0  0  0  0  0  0  0  0  0  0  0  0
    4.1358    7.5207    0.0000 H   0  0  0  0  0  0  0  0  0  0  0  0
    3.2118    7.5253    0.0000 H   0  0  0  0  0  0  0  0  0  0  0  0
    2.1693    5.9101    0.0000 H   0  0  0  0  0  0  0  0  0  0  0  0
    1.7468    6.8355    0.0000 H   0  0  0  0  0  0  0  0  0  0  0  0
    3.0454    8.2521    0.0000 H   0  0  0  0  0  0  0  0  0  0  0  0
    0.0260    8.1675    0.0000 H   0  0  0  0  0  0  0  0  0  0  0  0
    0.6500    6.5806    0.0000 H   0  0  0  0  0  0  0  0  0  0  0  0
    1.9001    9.4377    0.0000 H   0  0  0  0  0  0  0  0  0  0  0  0
    4.4460    6.8378    0.0000 H   0  0  0  0  0  0  0  0  0  0  0  0
    5.9021    8.1476    0.0000 H   0  0  0  0  0  0  0  0  0  0  0  0
    5.9289    8.7951    0.0000 H   0  0  0  0  0  0  0  0  0  0  0  0
    6.7216    9.3257    0.0000 H   0  0  0  0  0  0  0  0  0  0  0  0
    8.4054    8.3195    0.0000 H   0  0  0  0  0  0  0  0  0  0  0  0
    8.5182    9.2417    0.0000 H   0  0  0  0  0  0  0  0  0  0  0  0
    7.0270   10.4541    0.0000 H   0  0  0  0  0  0  0  0  0  0  0  0
    8.0014   10.7626    0.0000 H   0  0  0  0  0  0  0  0  0  0  0  0
    9.2860    9.3324    0.0000 H   0  0  0  0  0  0  0  0  0  0  0  0
    9.2340   12.3994    0.0000 H   0  0  0  0  0  0  0  0  0  0  0  0
    7.6513   11.7646    0.0000 H   0  0  0  0  0  0  0  0  0  0  0  0
   10.5058   10.4832    0.0000 H   0  0  0  0  0  0  0  0  0  0  0  0
    8.0759    7.5774    0.0000 H   0  0  0  0  0  0  0  0  0  0  0  0
    7.0646    5.8730    0.0000 H   0  0  0  0  0  0  0  0  0  0  0  0
    6.3211    5.8981    0.0000 H   0  0  0  0  0  0  0  0  0  0  0  0
    6.7886    4.1048    0.0000 H   0  0  0  0  0  0  0  0  0  0  0  0
    6.0371    4.8665    0.0000 H   0  0  0  0  0  0  0  0  0  0  0  0
    7.9870    4.0269    0.0000 H   0  0  0  0  0  0  0  0  0  0  0  0
    9.9303    4.9017    0.0000 H   0  0  0  0  0  0  0  0  0  0  0  0
   10.0251    5.3169    0.0000 H   0  0  0  0  0  0  0  0  0  0  0  0
   10.8367    5.5529    0.0000 H   0  0  0  0  0  0  0  0  0  0  0  0
   12.2970    4.3801    0.0000 H   0  0  0  0  0  0  0  0  0  0  0  0
   12.5016    5.3031    0.0000 H   0  0  0  0  0  0  0  0  0  0  0  0
   12.2179    7.3664    0.0000 H   0  0  0  0  0  0  0  0  0  0  0  0
   11.3534    3.8791    0.0000 H   0  0  0  0  0  0  0  0  0  0  0  0
   11.6159    2.9702    0.0000 H   0  0  0  0  0  0  0  0  0  0  0  0
   11.6242    3.5033    0.0000 H   0  0  0  0  0  0  0  0  0  0  0  0
   12.5444    3.6588    0.0000 H   0  0  0  0  0  0  0  0  0  0  0  0
   14.5993    3.4508    0.0000 H   0  0  0  0  0  0  0  0  0  0  0  0
   11.3800    0.6075    0.0000 H   0  0  0  0  0  0  0  0  0  0  0  0
   13.3330    0.9983    0.0000 H   0  0  0  0  0  0  0  0  0  0  0  0
   14.8909    0.1018    0.0000 H   0  0  0  0  0  0  0  0  0  0  0  0
   13.7401    1.5546    0.0000 H   0  0  0  0  0  0  0  0  0  0  0  0
   14.7348    1.1604    0.0000 H   0  0  0  0  0  0  0  0  0  0  0  0
   14.4825   -0.2721    0.0000 H   0  0  0  0  0  0  0  0  0  0  0  0
   15.0182   -1.4331    0.0000 H   0  0  0  0  0  0  0  0  0  0  0  0
   15.5688   -1.3704    0.0000 H   0  0  0  0  0  0  0  0  0  0  0  0
   16.2446   -1.9565    0.0000 H   0  0  0  0  0  0  0  0  0  0  0  0
   15.9685   -3.8493    0.0000 H   0  0  0  0  0  0  0  0  0  0  0  0
   16.8816   -3.5233    0.0000 H   0  0  0  0  0  0  0  0  0  0  0  0
   17.5766   -4.1015    0.0000 H   0  0  0  0  0  0  0  0  0  0  0  0
   18.5579   -2.7069    0.0000 H   0  0  0  0  0  0  0  0  0  0  0  0
   15.1859   -3.5073    0.0000 H   0  0  0  0  0  0  0  0  0  0  0  0
    4.4512    1.4099    0.0000 H   0  0  0  0  0  0  0  0  0  0  0  0
    6.4987    1.1882    0.0000 H   0  0  0  0  0  0  0  0  0  0  0  0
    7.0903    0.7848    0.0000 H   0  0  0  0  0  0  0  0  0  0  0  0
    7.2272   -0.1840    0.0000 H   0  0  0  0  0  0  0  0  0  0  0  0
    7.9389   -0.1873    0.0000 H   0  0  0  0  0  0  0  0  0  0  0  0
    8.3867   -2.2595    0.0000 H   0  0  0  0  0  0  0  0  0  0  0  0
    6.2375   -3.5194    0.0000 H   0  0  0  0  0  0  0  0  0  0  0  0
    5.0885   -2.5558    0.0000 H   0  0  0  0  0  0  0  0  0  0  0  0
    4.8149   -0.5944    0.0000 H   0  0  0  0  0  0  0  0  0  0  0  0
    4.5184    1.7285    0.0000 H   0  0  0  0  0  0  0  0  0  0  0  0
    5.2128    0.4875    0.0000 H   0  0  0  0  0  0  0  0  0  0  0  0
    4.5788    0.5273    0.0000 H   0  0  0  0  0  0  0  0  0  0  0  0
    4.6092   -0.3430    0.0000 H   0  0  0  0  0  0  0  0  0  0  0  0
    5.8290   -2.3941    0.0000 H   0  0  0  0  0  0  0  0  0  0  0  0
    6.9472   -1.1067    0.0000 H   0  0  0  0  0  0  0  0  0  0  0  0
    8.4640    1.1534    0.0000 H   0  0  0  0  0  0  0  0  0  0  0  0
    7.0691    2.6482    0.0000 H   0  0  0  0  0  0  0  0  0  0  0  0
    6.7636    3.5317    0.0000 H   0  0  0  0  0  0  0  0  0  0  0  0
    7.3295    4.3851    0.0000 H   0  0  0  0  0  0  0  0  0  0  0  0
    8.1994    2.6600    0.0000 H   0  0  0  0  0  0  0  0  0  0  0  0
   10.7823    2.6833    0.0000 H   0  0  0  0  0  0  0  0  0  0  0  0
   11.1891    1.6417    0.0000 H   0  0  0  0  0  0  0  0  0  0  0  0
   11.3855    0.6896    0.0000 H   0  0  0  0  0  0  0  0  0  0  0  0
   10.5206   -0.0191    0.0000 H   0  0  0  0  0  0  0  0  0  0  0  0
    9.6758   -0.5001    0.0000 H   0  0  0  0  0  0  0  0  0  0  0  0
    8.7345    0.1035    0.0000 H   0  0  0  0  0  0  0  0  0  0  0  0
   10.0644    1.3779    0.0000 H   0  0  0  0  0  0  0  0  0  0  0  0
    9.3866   -1.4085    0.0000 H   0  0  0  0  0  0  0  0  0  0  0  0
    8.1079   -1.9016    0.0000 H   0  0  0  0  0  0  0  0  0  0  0  0
    8.0068   -2.7232    0.0000 H   0  0  0  0  0  0  0  0  0  0  0  0
    7.2054   -3.1283    0.0000 H   0  0  0  0  0  0  0  0  0  0  0  0
    7.0022   -3.6558    0.0000 H   0  0  0  0  0  0  0  0  0  0  0  0
    6.1807   -3.8790    0.0000 H   0  0  0  0  0  0  0  0  0  0  0  0
    4.7733   -2.6283    0.0000 H   0  0  0  0  0  0  0  0  0  0  0  0
    4.4802   -3.4940    0.0000 H   0  0  0  0  0  0  0  0  0  0  0  0
    4.0535   -3.7397    0.0000 H   0  0  0  0  0  0  0  0  0  0  0  0
    4.1003   -4.6484    0.0000 H   0  0  0  0  0  0  0  0  0  0  0  0
    3.9054   -5.3023    0.0000 H   0  0  0  0  0  0  0  0  0  0  0  0
    5.6363   -5.6565    0.0000 H   0  0  0  0  0  0  0  0  0  0  0  0
    7.2141   -0.3356    0.0000 H   0  0  0  0  0  0  0  0  0  0  0  0
  1  2  1  0  0  0  0
  1147  1  0  0  0  0
  1148  1  0  0  0  0
  1149  1  0  0  0  0
  2  3  1  0  0  0  0
  2150  1  0  0  0  0
  3151  1  0  0  0  0
  3152  1  0  0  0  0
  3153  1  0  0  0  0
  4  2  1  0  0  0  0
  4  5  1  0  0  0  0
  4 98  1  0  0  0  0
  4154  1  1  0  0  0
  5  6  1  0  0  0  0
  5155  1  0  0  0  0
  6  7  2  0  0  0  0
  8  6  1  0  0  0  0
  8  9  1  0  0  0  0
  8 16  1  0  0  0  0
  8156  1  1  0  0  0
  9 10  1  0  0  0  0
  9157  1  0  0  0  0
  9158  1  0  0  0  0
 10 11  2  0  0  0  0
 10 15  1  0  0  0  0
 11 12  1  0  0  0  0
 11159  1  0  0  0  0
 12 13  2  0  0  0  0
 12160  1  0  0  0  0
 13 14  1  0  0  0  0
 13161  1  0  0  0  0
 14 15  2  0  0  0  0
 14162  1  0  0  0  0
 15163  1  0  0  0  0
 16 17  1  0  0  0  0
 16164  1  0  0  0  0
 17 18  2  0  0  0  0
 19 17  1  0  0  0  0
 19 20  1  0  0  0  0
 19 24  1  0  0  0  0
 19165  1  6  0  0  0
 20 21  1  0  0  0  0
 20166  1  0  0  0  0
 20167  1  0  0  0  0
 21 22  1  0  0  0  0
 21 23  2  0  0  0  0
 22168  1  0  0  0  0
 24 25  1  0  0  0  0
 24169  1  0  0  0  0
 25 26  2  0  0  0  0
 27 25  1  0  0  0  0
 27 28  1  0  0  0  0
 27 30  1  0  0  0  0
 27170  1  0  0  0  0
 28 29  1  0  0  0  0
 28171  1  0  0  0  0
 28172  1  0  0  0  0
 29173  1  0  0  0  0
 30 31  1  0  0  0  0
 30174  1  0  0  0  0
 31 32  2  0  0  0  0
 33 31  1  0  0  0  0
 33 34  1  0  0  0  0
 33146  1  0  0  0  0
 33175  1  6  0  0  0
 34 35  1  0  0  0  0
 34176  1  0  0  0  0
 34177  1  0  0  0  0
 35 36  1  0  0  0  0
 36 37  1  0  0  0  0
 37178  1  0  0  0  0
 37179  1  0  0  0  0
 38 37  1  0  0  0  0
 38 39  1  0  0  0  0
 38100  1  0  0  0  0
 38180  1  6  0  0  0
 39 40  1  0  0  0  0
 39181  1  0  0  0  0
 40 41  2  0  0  0  0
 42 40  1  0  0  0  0
 42 43  1  0  0  0  0
 42 50  1  0  0  0  0
 42182  1  0  0  0  0
 43 44  1  0  0  0  0
 43183  1  0  0  0  0
 43184  1  0  0  0  0
 44 45  1  0  0  0  0
 44185  1  0  0  0  0
 44186  1  0  0  0  0
 45 46  1  0  0  0  0
 45187  1  0  0  0  0
 45188  1  0  0  0  0
 46 47  1  0  0  0  0
 46189  1  0  0  0  0
 47 48  1  0  0  0  0
 47 49  2  0  0  0  0
 48190  1  0  0  0  0
 48191  1  0  0  0  0
 49192  1  0  0  0  0
 50 51  1  0  0  0  0
 50193  1  0  0  0  0
 51 52  2  0  0  0  0
 53 51  1  0  0  0  0
 53 54  1  0  0  0  0
 53 61  1  0  0  0  0
 53194  1  1  0  0  0
 54 55  1  0  0  0  0
 54195  1  0  0  0  0
 54196  1  0  0  0  0
 55 56  1  0  0  0  0
 55197  1  0  0  0  0
 55198  1  0  0  0  0
 56 57  1  0  0  0  0
 56199  1  0  0  0  0
 56200  1  0  0  0  0
 57 58  1  0  0  0  0
 57201  1  0  0  0  0
 58 59  1  0  0  0  0
 58 60  2  0  0  0  0
 59202  1  0  0  0  0
 59203  1  0  0  0  0
 60204  1  0  0  0  0
 61 62  1  0  0  0  0
 61205  1  0  0  0  0
 62 63  2  0  0  0  0
 64 62  1  0  0  0  0
 64 65  1  0  0  0  0
 64 66  1  0  0  0  0
 64206  1  6  0  0  0
 65207  1  0  0  0  0
 65208  1  0  0  0  0
 65209  1  0  0  0  0
 66 67  1  0  0  0  0
 66210  1  0  0  0  0
 67 68  2  0  0  0  0
 69 67  1  0  0  0  0
 69 70  1  0  0  0  0
 69 75  1  0  0  0  0
 69211  1  1  0  0  0
 70 71  1  0  0  0  0
 70212  1  0  0  0  0
 70213  1  0  0  0  0
 71 72  1  0  0  0  0
 71214  1  0  0  0  0
 71215  1  0  0  0  0
 72 73  1  0  0  0  0
 72 74  2  0  0  0  0
 73216  1  0  0  0  0
 75 76  1  0  0  0  0
 75217  1  0  0  0  0
 76 77  2  0  0  0  0
 78 76  1  0  0  0  0
 78 79  1  0  0  0  0
 78 83  1  0  0  0  0
 78218  1  1  0  0  0
 79 80  1  0  0  0  0
 79219  1  0  0  0  0
 79220  1  0  0  0  0
 80 81  1  0  0  0  0
 80 82  2  0  0  0  0
 81221  1  0  0  0  0
 83 84  1  0  0  0  0
 83222  1  0  0  0  0
 84 85  2  0  0  0  0
 86 84  1  0  0  0  0
 86 87  1  0  0  0  0
 86 88  1  0  0  0  0
 86223  1  1  0  0  0
 87224  1  0  0  0  0
 87225  1  0  0  0  0
 87226  1  0  0  0  0
 88 89  1  0  0  0  0
 88227  1  0  0  0  0
 89 90  2  0  0  0  0
 91 89  1  0  0  0  0
 91 92  1  0  0  0  0
 91 97  1  0  0  0  0
 91228  1  1  0  0  0
 92 93  1  0  0  0  0
 92229  1  0  0  0  0
 92230  1  0  0  0  0
 93 94  1  0  0  0  0
 93231  1  0  0  0  0
 93232  1  0  0  0  0
 94 95  1  0  0  0  0
 94 96  2  0  0  0  0
 95233  1  0  0  0  0
 95234  1  0  0  0  0
 97 98  1  0  0  0  0
 97235  1  0  0  0  0
 98 99  2  0  0  0  0
100101  2  0  0  0  0
100102  1  0  0  0  0
102236  1  0  0  0  0
103102  1  0  0  0  0
103104  1  0  0  0  0
103112  1  0  0  0  0
103237  1  6  0  0  0
104105  1  0  0  0  0
104238  1  0  0  0  0
104239  1  0  0  0  0
105106  2  0  0  0  0
105111  1  0  0  0  0
106107  1  0  0  0  0
106240  1  0  0  0  0
107108  2  0  0  0  0
107241  1  0  0  0  0
108109  1  0  0  0  0
108110  1  0  0  0  0
109242  1  0  0  0  0
110111  2  0  0  0  0
110243  1  0  0  0  0
111244  1  0  0  0  0
112113  2  0  0  0  0
112114  1  0  0  0  0
114245  1  0  0  0  0
115114  1  0  0  0  0
115116  1  0  0  0  0
115120  1  0  0  0  0
115246  1  1  0  0  0
116117  1  0  0  0  0
116247  1  0  0  0  0
116248  1  0  0  0  0
117118  1  0  0  0  0
117119  2  0  0  0  0
118249  1  0  0  0  0
118250  1  0  0  0  0
120121  2  0  0  0  0
120122  1  0  0  0  0
122251  1  0  0  0  0
123122  1  0  0  0  0
123124  1  0  0  0  0
123128  1  0  0  0  0
123252  1  6  0  0  0
124125  1  0  0  0  0
124253  1  0  0  0  0
124254  1  0  0  0  0
125126  1  0  0  0  0
125127  2  0  0  0  0
126255  1  0  0  0  0
128129  2  0  0  0  0
128130  1  0  0  0  0
130131  1  0  0  0  0
131132  1  0  0  0  0
131256  1  0  0  0  0
131257  1  0  0  0  0
132133  1  0  0  0  0
132258  1  0  0  0  0
132259  1  0  0  0  0
133260  1  0  0  0  0
133261  1  0  0  0  0
134133  1  0  0  0  0
134130  1  0  0  0  0
134135  1  0  0  0  0
134262  1  6  0  0  0
135136  2  0  0  0  0
135137  1  0  0  0  0
137263  1  0  0  0  0
138137  1  0  0  0  0
138139  1  0  0  0  0
138144  1  0  0  0  0
138264  1  0  0  0  0
139140  1  0  0  0  0
139265  1  0  0  0  0
139266  1  0  0  0  0
140141  1  0  0  0  0
140267  1  0  0  0  0
140268  1  0  0  0  0
141142  1  0  0  0  0
141269  1  0  0  0  0
141270  1  0  0  0  0
142143  1  0  0  0  0
142271  1  0  0  0  0
142272  1  0  0  0  0
143273  1  0  0  0  0
143274  1  0  0  0  0
144145  2  0  0  0  0
144146  1  0  0  0  0
146275  1  0  0  0  0
M  END
>  <DRUGBANK_ID>
DB15195

>  <COMMON_NAME>
Mibenratide

>  <CAS_NUMBER>
1239011-83-6

>  <UNII>
P1T1143877

>  <SYNONYMS>
JNJ-54452840; Mibenratide

$$$$
