
 OpenBabel10282417072D

 34 35  0  0  1  0  0  0  0  0999 V2000
    3.1844    2.0593    0.0000 C   0  0  0  0  0  0  0  0  0  0  0  0
    2.7719    1.3448    0.0000 C   0  0  0  0  0  0  0  0  0  0  0  0
    1.9469    1.3448    0.0000 C   0  0  0  0  0  0  0  0  0  0  0  0
    1.4620    0.6773    0.0000 C   0  0  0  0  0  0  0  0  0  0  0  0
    0.6773    0.9323    0.0000 C   0  0  2  0  0  0  0  0  0  0  0  0
    0.6773    1.7573    0.0000 C   0  0  2  0  0  0  0  0  0  0  0  0
    1.4620    2.0122    0.0000 C   0  0  0  0  0  0  0  0  0  0  0  0
   -0.1477    1.7573    0.0000 C   0  0  0  0  0  0  0  0  0  0  0  0
   -0.1477    0.9323    0.0000 C   0  0  2  0  0  0  0  0  0  0  0  0
   -0.9499    0.7397    0.0000 C   0  0  0  0  0  0  0  0  0  0  0  0
   -1.5178    1.3381    0.0000 C   0  0  0  0  0  0  0  0  0  0  0  0
   -2.3200    1.1455    0.0000 O   0  0  0  0  0  0  0  0  0  0  0  0
   -1.2834    2.1291    0.0000 O   0  0  0  0  0  0  0  0  0  0  0  0
   -0.3403    0.1301    0.0000 C   0  0  0  0  0  0  0  0  0  0  0  0
    0.2582   -0.4378    0.0000 N   0  0  0  0  0  0  0  0  0  0  0  0
    4.2544    2.0593    0.0000 H   0  0  0  0  0  0  0  0  0  0  0  0
    2.6494    2.9859    0.0000 H   0  0  0  0  0  0  0  0  0  0  0  0
    3.7194    2.9860    0.0000 H   0  0  0  0  0  0  0  0  0  0  0  0
    3.3069    0.4182    0.0000 H   0  0  0  0  0  0  0  0  0  0  0  0
    2.2369    0.4182    0.0000 H   0  0  0  0  0  0  0  0  0  0  0  0
    1.7809   -0.3042    0.0000 H   0  0  0  0  0  0  0  0  0  0  0  0
    1.5430    1.5612    0.0000 H   0  0  0  0  0  0  0  0  0  0  0  0
   -0.0793    1.0007    0.0000 H   0  0  0  0  0  0  0  0  0  0  0  0
    1.7927    3.0298    0.0000 H   0  0  0  0  0  0  0  0  0  0  0  0
    2.5188    2.1796    0.0000 H   0  0  0  0  0  0  0  0  0  0  0  0
   -0.9043    2.5139    0.0000 H   0  0  0  0  0  0  0  0  0  0  0  0
   -1.1363    1.3478    0.0000 H   0  0  0  0  0  0  0  0  0  0  0  0
   -1.2538   -0.2862    0.0000 H   0  0  0  0  0  0  0  0  0  0  0  0
   -1.9903    0.4899    0.0000 H   0  0  0  0  0  0  0  0  0  0  0  0
   -0.3723    2.3477    0.0000 H   0  0  0  0  0  0  0  0  0  0  0  0
   -1.3662   -0.1738    0.0000 H   0  0  0  0  0  0  0  0  0  0  0  0
   -0.5901   -0.9103    0.0000 H   0  0  0  0  0  0  0  0  0  0  0  0
    0.0201   -1.4296    0.0000 H   0  0  0  0  0  0  0  0  0  0  0  0
    1.2362   -0.1481    0.0000 H   0  0  0  0  0  0  0  0  0  0  0  0
  1  2  1  0  0  0  0
  1 16  1  0  0  0  0
  1 17  1  0  0  0  0
  1 18  1  0  0  0  0
  2  3  1  0  0  0  0
  2 19  1  0  0  0  0
  2 20  1  0  0  0  0
  3  4  2  0  0  0  0
  3  7  1  0  0  0  0
  4 21  1  0  0  0  0
  5  4  1  0  0  0  0
  5  6  1  0  0  0  0
  5  9  1  0  0  0  0
  5 22  1  6  0  0  0
  6  7  1  0  0  0  0
  6  8  1  0  0  0  0
  6 23  1  6  0  0  0
  7 24  1  0  0  0  0
  7 25  1  0  0  0  0
  8  9  1  0  0  0  0
  8 26  1  0  0  0  0
  8 27  1  0  0  0  0
  9 10  1  1  0  0  0
  9 14  1  0  0  0  0
 10 11  1  0  0  0  0
 10 28  1  0  0  0  0
 10 29  1  0  0  0  0
 11 12  2  0  0  0  0
 11 13  1  0  0  0  0
 13 30  1  0  0  0  0
 14 15  1  0  0  0  0
 14 31  1  0  0  0  0
 14 32  1  0  0  0  0
 15 33  1  0  0  0  0
 15 34  1  0  0  0  0
M  END
>  <DRUGBANK_ID>
DB11825

>  <COMMON_NAME>
Mirogabalin

>  <CAS_NUMBER>
1138245-13-2

>  <UNII>
S7LK2KDM5U

>  <SYNONYMS>
Mirogabalin

$$$$
