
 OpenBabel10282417072D

 41 42  0  0  0  0  0  0  0  0999 V2000
   -4.2080   -0.8221    0.0000 C   0  0  0  0  0  0  0  0  0  0  0  0
   -2.0646    0.4154    0.0000 C   0  0  0  0  0  0  0  0  0  0  0  0
    2.0291   -1.9537    0.0000 C   0  0  0  0  0  0  0  0  0  0  0  0
    1.4349    0.8418    0.0000 C   0  0  0  0  0  0  0  0  0  0  0  0
   -3.4935   -1.2346    0.0000 C   0  0  0  0  0  0  0  0  0  0  0  0
   -2.7791    0.0029    0.0000 C   0  0  0  0  0  0  0  0  0  0  0  0
   -2.0646   -1.2346    0.0000 C   0  0  0  0  0  0  0  0  0  0  0  0
   -1.3501   -0.8221    0.0000 C   0  0  0  0  0  0  0  0  0  0  0  0
   -0.5494   -2.0551    0.0000 C   0  0  0  0  0  0  0  0  0  0  0  0
    0.1180   -0.8990    0.0000 C   0  0  0  0  0  0  0  0  0  0  0  0
    0.6700   -1.5121    0.0000 C   0  0  0  0  0  0  0  0  0  0  0  0
    0.3730   -0.1144    0.0000 C   0  0  0  0  0  0  0  0  0  0  0  0
    1.7320   -0.5560    0.0000 C   0  0  0  0  0  0  0  0  0  0  0  0
    0.2575   -2.2266    0.0000 N   0  0  0  0  0  0  0  0  0  0  0  0
    1.4770   -1.3406    0.0000 N   0  0  0  0  0  0  0  0  0  0  0  0
    1.1799    0.0571    0.0000 N   0  0  0  0  0  0  0  0  0  0  0  0
   -2.7791   -0.8221    0.0000 N   0  0  0  0  0  0  0  0  0  0  0  0
   -0.6357   -1.2346    0.0000 N   0  0  0  0  0  0  0  0  0  0  0  0
   -0.1791    0.4987    0.0000 O   0  0  0  0  0  0  0  0  0  0  0  0
    2.5389   -0.3844    0.0000 O   0  0  0  0  0  0  0  0  0  0  0  0
   -4.2080    0.2479    0.0000 H   0  0  0  0  0  0  0  0  0  0  0  0
   -5.1346   -1.3571    0.0000 H   0  0  0  0  0  0  0  0  0  0  0  0
   -5.1347   -0.2871    0.0000 H   0  0  0  0  0  0  0  0  0  0  0  0
   -1.1380   -0.1196    0.0000 H   0  0  0  0  0  0  0  0  0  0  0  0
   -2.0646    1.4854    0.0000 H   0  0  0  0  0  0  0  0  0  0  0  0
   -1.1379    0.9504    0.0000 H   0  0  0  0  0  0  0  0  0  0  0  0
    1.6985   -2.9713    0.0000 H   0  0  0  0  0  0  0  0  0  0  0  0
    3.0757   -1.7312    0.0000 H   0  0  0  0  0  0  0  0  0  0  0  0
    2.7451   -2.7488    0.0000 H   0  0  0  0  0  0  0  0  0  0  0  0
    2.4815    1.0642    0.0000 H   0  0  0  0  0  0  0  0  0  0  0  0
    0.7190    1.6370    0.0000 H   0  0  0  0  0  0  0  0  0  0  0  0
    1.7656    1.8594    0.0000 H   0  0  0  0  0  0  0  0  0  0  0  0
   -3.4935   -2.3046    0.0000 H   0  0  0  0  0  0  0  0  0  0  0  0
   -2.5668   -1.7696    0.0000 H   0  0  0  0  0  0  0  0  0  0  0  0
   -3.7057    0.5379    0.0000 H   0  0  0  0  0  0  0  0  0  0  0  0
   -3.7057   -0.5321    0.0000 H   0  0  0  0  0  0  0  0  0  0  0  0
   -2.0646   -2.3046    0.0000 H   0  0  0  0  0  0  0  0  0  0  0  0
   -2.9912   -1.7696    0.0000 H   0  0  0  0  0  0  0  0  0  0  0  0
   -1.3501    0.2479    0.0000 H   0  0  0  0  0  0  0  0  0  0  0  0
   -0.4234   -0.2871    0.0000 H   0  0  0  0  0  0  0  0  0  0  0  0
   -1.3163   -2.7457    0.0000 H   0  0  0  0  0  0  0  0  0  0  0  0
  1 21  1  0  0  0  0
  1 22  1  0  0  0  0
  1 23  1  0  0  0  0
  2 24  1  0  0  0  0
  2 25  1  0  0  0  0
  2 26  1  0  0  0  0
  3 27  1  0  0  0  0
  3 28  1  0  0  0  0
  3 29  1  0  0  0  0
  4 30  1  0  0  0  0
  4 31  1  0  0  0  0
  4 32  1  0  0  0  0
  5  1  1  0  0  0  0
  5 33  1  0  0  0  0
  5 34  1  0  0  0  0
  6  2  1  0  0  0  0
  6 35  1  0  0  0  0
  6 36  1  0  0  0  0
  7 37  1  0  0  0  0
  7 38  1  0  0  0  0
  8  7  1  0  0  0  0
  8 39  1  0  0  0  0
  8 40  1  0  0  0  0
  9 41  1  0  0  0  0
 11 10  2  0  0  0  0
 12 10  1  0  0  0  0
 14  9  2  0  0  0  0
 14 11  1  0  0  0  0
 15  3  1  0  0  0  0
 15 11  1  0  0  0  0
 15 13  1  0  0  0  0
 16  4  1  0  0  0  0
 16 12  1  0  0  0  0
 16 13  1  0  0  0  0
 17  5  1  0  0  0  0
 17  6  1  0  0  0  0
 17  7  1  0  0  0  0
 18  8  1  0  0  0  0
 18  9  1  0  0  0  0
 18 10  1  0  0  0  0
 19 12  2  0  0  0  0
 20 13  2  0  0  0  0
M  END
>  <DRUGBANK_ID>
DB13592

>  <COMMON_NAME>
Etamiphylline

>  <CAS_NUMBER>
314-35-2

>  <UNII>
221A91BQ2S

>  <SYNONYMS>
Etamiphyllin; Etamiphylline

$$$$
