1546
 OpenBabel10282417072D

 30 31  0  0  1  0  0  0  0  0999 V2000
    3.8597   -1.4804    0.0000 N   0  0  0  0  0  0  0  0  0  0  0  0
    5.1795    1.5859    0.0000 N   0  0  0  0  0  0  0  0  0  0  0  0
    4.9232    0.8018    0.0000 C   0  0  3  0  0  0  0  0  0  0  0  0
    4.1159    0.6316    0.0000 C   0  0  0  0  0  0  0  0  0  0  0  0
    3.8597   -0.1526    0.0000 C   0  0  0  0  0  0  0  0  0  0  0  0
    5.4742    0.1877    0.0000 C   0  0  0  0  0  0  0  0  0  0  0  0
    3.0791   -0.4040    0.0000 C   0  0  0  0  0  0  0  0  0  0  0  0
    3.0791   -1.2290    0.0000 C   0  0  0  0  0  0  0  0  0  0  0  0
    4.3412   -0.8165    0.0000 C   0  0  0  0  0  0  0  0  0  0  0  0
    6.2815    0.3578    0.0000 C   0  0  0  0  0  0  0  0  0  0  0  0
    2.3645    0.0085    0.0000 C   0  0  0  0  0  0  0  0  0  0  0  0
    2.3645   -1.6415    0.0000 C   0  0  0  0  0  0  0  0  0  0  0  0
    1.6500   -0.4040    0.0000 C   0  0  0  0  0  0  0  0  0  0  0  0
    1.6500   -1.2290    0.0000 C   0  0  0  0  0  0  0  0  0  0  0  0
    4.1655   -2.4162    0.0000 H   0  0  0  0  0  0  0  0  0  0  0  0
    6.1776    1.7962    0.0000 H   0  0  0  0  0  0  0  0  0  0  0  0
    4.4983    2.3451    0.0000 H   0  0  0  0  0  0  0  0  0  0  0  0
    4.2086    1.5982    0.0000 H   0  0  0  0  0  0  0  0  0  0  0  0
    3.4012    1.4279    0.0000 H   0  0  0  0  0  0  0  0  0  0  0  0
    3.0689    0.4108    0.0000 H   0  0  0  0  0  0  0  0  0  0  0  0
    5.1418   -0.8293    0.0000 H   0  0  0  0  0  0  0  0  0  0  0  0
    6.1888   -0.6087    0.0000 H   0  0  0  0  0  0  0  0  0  0  0  0
    5.3732   -0.8165    0.0000 H   0  0  0  0  0  0  0  0  0  0  0  0
    6.9961   -0.4386    0.0000 H   0  0  0  0  0  0  0  0  0  0  0  0
    6.6140    1.3748    0.0000 H   0  0  0  0  0  0  0  0  0  0  0  0
    7.3285    0.5784    0.0000 H   0  0  0  0  0  0  0  0  0  0  0  0
    2.3645    1.0405    0.0000 H   0  0  0  0  0  0  0  0  0  0  0  0
    2.3645   -2.6735    0.0000 H   0  0  0  0  0  0  0  0  0  0  0  0
    0.7563    0.1120    0.0000 H   0  0  0  0  0  0  0  0  0  0  0  0
    0.7563   -1.7450    0.0000 H   0  0  0  0  0  0  0  0  0  0  0  0
  1  8  1  0  0  0  0
  1  9  1  0  0  0  0
  1 15  1  0  0  0  0
  2  3  1  0  0  0  0
  2 16  1  0  0  0  0
  2 17  1  0  0  0  0
  3  4  1  0  0  0  0
  3  6  1  0  0  0  0
  3 18  1  0  0  0  0
  4  5  1  0  0  0  0
  4 19  1  0  0  0  0
  4 20  1  0  0  0  0
  5  7  1  0  0  0  0
  5  9  2  0  0  0  0
  6 10  1  0  0  0  0
  6 21  1  0  0  0  0
  6 22  1  0  0  0  0
  7  8  1  0  0  0  0
  7 11  2  0  0  0  0
  8 12  2  0  0  0  0
  9 23  1  0  0  0  0
 10 24  1  0  0  0  0
 10 25  1  0  0  0  0
 10 26  1  0  0  0  0
 11 13  1  0  0  0  0
 11 27  1  0  0  0  0
 12 14  1  0  0  0  0
 12 28  1  0  0  0  0
 13 14  2  0  0  0  0
 13 29  1  0  0  0  0
 14 30  1  0  0  0  0
M  END
>  <DRUGBANK_ID>
DB01546

>  <COMMON_NAME>
Etryptamine

>  <CAS_NUMBER>
2235-90-7

>  <UNII>
GR181O3R32

>  <SYNONYMS>
3-(2-aminobutyl)indole; alpha-ethyltryptamine; Etryptamine; α-ethyltryptamine; αET

$$$$
