
 OpenBabel10282417072D

 58 61  0  0  0  0  0  0  0  0999 V2000
    4.4761   -5.0923    0.0000 O   0  0  0  0  0  0  0  0  0  0  0  0
    3.8039   -4.6034    0.0000 C   0  0  0  0  0  0  0  0  0  0  0  0
    3.8039   -3.7784    0.0000 N   0  0  0  0  0  0  0  0  0  0  0  0
    3.0197   -4.8580    0.0000 S   0  0  0  0  0  0  0  0  0  0  0  0
    2.5308   -4.1960    0.0000 C   0  0  3  0  0  0  0  0  0  0  0  0
    1.7059   -4.1960    0.0000 C   0  0  0  0  0  0  0  0  0  0  0  0
    1.2985   -3.4832    0.0000 C   0  0  0  0  0  0  0  0  0  0  0  0
    1.7059   -2.7702    0.0000 C   0  0  0  0  0  0  0  0  0  0  0  0
    1.2985   -2.0471    0.0000 C   0  0  0  0  0  0  0  0  0  0  0  0
    0.4735   -2.0471    0.0000 C   0  0  0  0  0  0  0  0  0  0  0  0
    0.0560   -1.3342    0.0000 O   0  0  0  0  0  0  0  0  0  0  0  0
   -0.7689   -1.3342    0.0000 C   0  0  0  0  0  0  0  0  0  0  0  0
   -1.1763   -0.6212    0.0000 C   0  0  0  0  0  0  0  0  0  0  0  0
   -2.0012   -0.6212    0.0000 N   0  0  0  0  0  0  0  0  0  0  0  0
   -2.4188    0.0916    0.0000 C   0  0  0  0  0  0  0  0  0  0  0  0
   -2.0012    0.8045    0.0000 C   0  0  0  0  0  0  0  0  0  0  0  0
   -2.4188    1.5175    0.0000 C   0  0  0  0  0  0  0  0  0  0  0  0
   -2.0012    2.2304    0.0000 O   0  0  0  0  0  0  0  0  0  0  0  0
   -2.4188    2.9535    0.0000 C   0  0  0  0  0  0  0  0  0  0  0  0
   -2.0012    3.6664    0.0000 C   0  0  0  0  0  0  0  0  0  0  0  0
   -2.4188    4.3794    0.0000 C   0  0  0  0  0  0  0  0  0  0  0  0
   -3.2438    4.3794    0.0000 C   0  0  0  0  0  0  0  0  0  0  0  0
   -3.6511    5.0923    0.0000 O   0  0  0  0  0  0  0  0  0  0  0  0
   -4.4761    5.0923    0.0000 C   0  0  0  0  0  0  0  0  0  0  0  0
   -3.6511    3.6664    0.0000 C   0  0  0  0  0  0  0  0  0  0  0  0
   -3.2438    2.9535    0.0000 C   0  0  0  0  0  0  0  0  0  0  0  0
   -3.2438    1.5175    0.0000 N   0  0  0  0  0  0  0  0  0  0  0  0
   -3.6511    0.8045    0.0000 C   0  0  0  0  0  0  0  0  0  0  0  0
   -3.2438    0.0916    0.0000 N   0  0  0  0  0  0  0  0  0  0  0  0
   -2.4188   -1.3342    0.0000 C   0  0  0  0  0  0  0  0  0  0  0  0
    0.0560   -2.7702    0.0000 C   0  0  0  0  0  0  0  0  0  0  0  0
    0.4735   -3.4832    0.0000 C   0  0  0  0  0  0  0  0  0  0  0  0
    3.0197   -3.5239    0.0000 C   0  0  0  0  0  0  0  0  0  0  0  0
    2.7650   -2.7397    0.0000 O   0  0  0  0  0  0  0  0  0  0  0  0
    4.6003   -3.1996    0.0000 H   0  0  0  0  0  0  0  0  0  0  0  0
    2.0487   -5.1513    0.0000 H   0  0  0  0  0  0  0  0  0  0  0  0
    1.1689   -5.1215    0.0000 H   0  0  0  0  0  0  0  0  0  0  0  0
    0.6359   -4.1925    0.0000 H   0  0  0  0  0  0  0  0  0  0  0  0
    2.7379   -2.7733    0.0000 H   0  0  0  0  0  0  0  0  0  0  0  0
    1.8192   -1.1561    0.0000 H   0  0  0  0  0  0  0  0  0  0  0  0
   -1.3060   -2.2596    0.0000 H   0  0  0  0  0  0  0  0  0  0  0  0
   -1.8389   -1.3306    0.0000 H   0  0  0  0  0  0  0  0  0  0  0  0
   -0.6392    0.3042    0.0000 H   0  0  0  0  0  0  0  0  0  0  0  0
   -1.7103    0.3060    0.0000 H   0  0  0  0  0  0  0  0  0  0  0  0
   -0.9692    0.8045    0.0000 H   0  0  0  0  0  0  0  0  0  0  0  0
   -0.9692    3.6664    0.0000 H   0  0  0  0  0  0  0  0  0  0  0  0
   -1.9056    5.2747    0.0000 H   0  0  0  0  0  0  0  0  0  0  0  0
   -5.0111    6.0189    0.0000 H   0  0  0  0  0  0  0  0  0  0  0  0
   -5.0111    4.1657    0.0000 H   0  0  0  0  0  0  0  0  0  0  0  0
   -5.5461    5.0923    0.0000 H   0  0  0  0  0  0  0  0  0  0  0  0
   -4.6831    3.6664    0.0000 H   0  0  0  0  0  0  0  0  0  0  0  0
   -3.7618    2.0609    0.0000 H   0  0  0  0  0  0  0  0  0  0  0  0
   -4.6831    0.8045    0.0000 H   0  0  0  0  0  0  0  0  0  0  0  0
   -3.4888   -1.3275    0.0000 H   0  0  0  0  0  0  0  0  0  0  0  0
   -1.8896   -2.2642    0.0000 H   0  0  0  0  0  0  0  0  0  0  0  0
   -2.9596   -2.2575    0.0000 H   0  0  0  0  0  0  0  0  0  0  0  0
   -0.9760   -2.7734    0.0000 H   0  0  0  0  0  0  0  0  0  0  0  0
   -0.0398   -4.3785    0.0000 H   0  0  0  0  0  0  0  0  0  0  0  0
  1  2  2  0  0  0  0
  2  3  1  0  0  0  0
  2  4  1  0  0  0  0
  3 33  1  0  0  0  0
  3 35  1  0  0  0  0
  4  5  1  0  0  0  0
  5  6  1  0  0  0  0
  5 33  1  0  0  0  0
  5 36  1  0  0  0  0
  6  7  1  0  0  0  0
  6 37  1  0  0  0  0
  6 38  1  0  0  0  0
  7  8  2  0  0  0  0
  7 32  1  0  0  0  0
  8  9  1  0  0  0  0
  8 39  1  0  0  0  0
  9 10  2  0  0  0  0
  9 40  1  0  0  0  0
 10 11  1  0  0  0  0
 10 31  1  0  0  0  0
 11 12  1  0  0  0  0
 12 13  1  0  0  0  0
 12 41  1  0  0  0  0
 12 42  1  0  0  0  0
 13 14  1  0  0  0  0
 13 43  1  0  0  0  0
 13 44  1  0  0  0  0
 14 15  1  0  0  0  0
 14 30  1  0  0  0  0
 15 16  2  0  0  0  0
 15 29  1  0  0  0  0
 16 17  1  0  0  0  0
 16 45  1  0  0  0  0
 17 18  1  0  0  0  0
 17 27  2  0  0  0  0
 18 19  1  0  0  0  0
 19 20  2  0  0  0  0
 19 26  1  0  0  0  0
 20 21  1  0  0  0  0
 20 46  1  0  0  0  0
 21 22  2  0  0  0  0
 21 47  1  0  0  0  0
 22 23  1  0  0  0  0
 22 25  1  0  0  0  0
 23 24  1  0  0  0  0
 24 48  1  0  0  0  0
 24 49  1  0  0  0  0
 24 50  1  0  0  0  0
 25 26  2  0  0  0  0
 25 51  1  0  0  0  0
 26 52  1  0  0  0  0
 27 28  1  0  0  0  0
 28 29  2  0  0  0  0
 28 53  1  0  0  0  0
 30 54  1  0  0  0  0
 30 55  1  0  0  0  0
 30 56  1  0  0  0  0
 31 32  2  0  0  0  0
 31 57  1  0  0  0  0
 32 58  1  0  0  0  0
 33 34  2  0  0  0  0
M  END
>  <DRUGBANK_ID>
DB09198

>  <COMMON_NAME>
Lobeglitazone

>  <CAS_NUMBER>
607723-33-1

>  <UNII>
MY89F08K5D

>  <SYNONYMS>
Lobeglitazone

$$$$
