DET
 OpenBabel10282417072D

 44 43  0  0  0  0  0  0  0  0999 V2000
   -3.1360   -0.2121    0.0000 N   0  3  0  0  0  0  0  0  0  0  0  0
   -3.8505   -0.6246    0.0000 O   0  5  0  0  0  0  0  0  0  0  0  0
   -2.7235   -0.9267    0.0000 C   0  0  0  0  0  0  0  0  0  0  0  0
   -3.5486    0.5024    0.0000 C   0  0  0  0  0  0  0  0  0  0  0  0
   -2.4215    0.2004    0.0000 C   0  0  0  0  0  0  0  0  0  0  0  0
   -1.7069   -0.2121    0.0000 C   0  0  0  0  0  0  0  0  0  0  0  0
   -0.9924    0.2004    0.0000 C   0  0  0  0  0  0  0  0  0  0  0  0
   -0.2779   -0.2121    0.0000 C   0  0  0  0  0  0  0  0  0  0  0  0
    0.4366    0.2004    0.0000 C   0  0  0  0  0  0  0  0  0  0  0  0
    1.1512   -0.2121    0.0000 C   0  0  0  0  0  0  0  0  0  0  0  0
    1.8656    0.2004    0.0000 C   0  0  0  0  0  0  0  0  0  0  0  0
    2.5802   -0.2121    0.0000 C   0  0  0  0  0  0  0  0  0  0  0  0
    3.2947    0.2004    0.0000 C   0  0  0  0  0  0  0  0  0  0  0  0
    4.0093   -0.2121    0.0000 C   0  0  0  0  0  0  0  0  0  0  0  0
    4.7238    0.2004    0.0000 C   0  0  0  0  0  0  0  0  0  0  0  0
   -3.2586   -1.8533    0.0000 H   0  0  0  0  0  0  0  0  0  0  0  0
   -1.6535   -0.9268    0.0000 H   0  0  0  0  0  0  0  0  0  0  0  0
   -2.1886   -1.8534    0.0000 H   0  0  0  0  0  0  0  0  0  0  0  0
   -3.0137    1.4291    0.0000 H   0  0  0  0  0  0  0  0  0  0  0  0
   -4.6186    0.5023    0.0000 H   0  0  0  0  0  0  0  0  0  0  0  0
   -4.0837    1.4290    0.0000 H   0  0  0  0  0  0  0  0  0  0  0  0
   -2.4215    1.2704    0.0000 H   0  0  0  0  0  0  0  0  0  0  0  0
   -1.4949    0.7355    0.0000 H   0  0  0  0  0  0  0  0  0  0  0  0
   -1.7069   -1.2821    0.0000 H   0  0  0  0  0  0  0  0  0  0  0  0
   -0.7802   -0.7471    0.0000 H   0  0  0  0  0  0  0  0  0  0  0  0
   -0.9924    1.2704    0.0000 H   0  0  0  0  0  0  0  0  0  0  0  0
   -0.0658    0.7354    0.0000 H   0  0  0  0  0  0  0  0  0  0  0  0
   -0.2779   -1.2821    0.0000 H   0  0  0  0  0  0  0  0  0  0  0  0
    0.6487   -0.7471    0.0000 H   0  0  0  0  0  0  0  0  0  0  0  0
    0.4366    1.2704    0.0000 H   0  0  0  0  0  0  0  0  0  0  0  0
    1.3632    0.7355    0.0000 H   0  0  0  0  0  0  0  0  0  0  0  0
    1.1513   -1.2821    0.0000 H   0  0  0  0  0  0  0  0  0  0  0  0
    2.0779   -0.7471    0.0000 H   0  0  0  0  0  0  0  0  0  0  0  0
    1.8655    1.2704    0.0000 H   0  0  0  0  0  0  0  0  0  0  0  0
    2.7922    0.7355    0.0000 H   0  0  0  0  0  0  0  0  0  0  0  0
    2.5802   -1.2821    0.0000 H   0  0  0  0  0  0  0  0  0  0  0  0
    3.5069   -0.7471    0.0000 H   0  0  0  0  0  0  0  0  0  0  0  0
    3.2947    1.2704    0.0000 H   0  0  0  0  0  0  0  0  0  0  0  0
    4.2213    0.7355    0.0000 H   0  0  0  0  0  0  0  0  0  0  0  0
    4.0093   -1.2821    0.0000 H   0  0  0  0  0  0  0  0  0  0  0  0
    4.9360   -0.7471    0.0000 H   0  0  0  0  0  0  0  0  0  0  0  0
    5.6504   -0.3346    0.0000 H   0  0  0  0  0  0  0  0  0  0  0  0
    4.7238    1.2704    0.0000 H   0  0  0  0  0  0  0  0  0  0  0  0
    5.6505    0.7354    0.0000 H   0  0  0  0  0  0  0  0  0  0  0  0
  1  2  1  0  0  0  0
  1  3  1  0  0  0  0
  1  4  1  0  0  0  0
  1  5  1  0  0  0  0
  3 16  1  0  0  0  0
  3 17  1  0  0  0  0
  3 18  1  0  0  0  0
  4 19  1  0  0  0  0
  4 20  1  0  0  0  0
  4 21  1  0  0  0  0
  5  6  1  0  0  0  0
  5 22  1  0  0  0  0
  5 23  1  0  0  0  0
  6  7  1  0  0  0  0
  6 24  1  0  0  0  0
  6 25  1  0  0  0  0
  7  8  1  0  0  0  0
  7 26  1  0  0  0  0
  7 27  1  0  0  0  0
  8  9  1  0  0  0  0
  8 28  1  0  0  0  0
  8 29  1  0  0  0  0
  9 10  1  0  0  0  0
  9 30  1  0  0  0  0
  9 31  1  0  0  0  0
 10 11  1  0  0  0  0
 10 32  1  0  0  0  0
 10 33  1  0  0  0  0
 11 12  1  0  0  0  0
 11 34  1  0  0  0  0
 11 35  1  0  0  0  0
 12 13  1  0  0  0  0
 12 36  1  0  0  0  0
 12 37  1  0  0  0  0
 13 14  1  0  0  0  0
 13 38  1  0  0  0  0
 13 39  1  0  0  0  0
 14 15  1  0  0  0  0
 14 40  1  0  0  0  0
 14 41  1  0  0  0  0
 15 42  1  0  0  0  0
 15 43  1  0  0  0  0
 15 44  1  0  0  0  0
M  CHG  2   1   1   2  -1
M  END
>  <DRUGBANK_ID>
DB07646

>  <COMMON_NAME>
UNDECYLAMINE-N,N-DIMETHYL-N-OXIDE

$$$$
