
 OpenBabel10282417072D

 66 64  0  0  0  0  0  0  0  0999 V2000
   -7.6088    0.0000    0.0000 C   0  0  0  0  0  0  0  0  0  0  0  0
    5.2516    0.0000    0.0000 C   0  0  0  0  0  0  0  0  0  0  0  0
   -0.8766   -0.7144    0.0000 C   0  0  0  0  0  0  0  0  0  0  0  0
   -0.0516    0.7144    0.0000 C   0  0  0  0  0  0  0  0  0  0  0  0
   -6.8943    0.4125    0.0000 C   0  0  0  0  0  0  0  0  0  0  0  0
    4.5371   -0.4125    0.0000 C   0  0  0  0  0  0  0  0  0  0  0  0
   -6.1798    0.0000    0.0000 C   0  0  0  0  0  0  0  0  0  0  0  0
    3.8227    0.0000    0.0000 C   0  0  0  0  0  0  0  0  0  0  0  0
   -5.4653    0.4125    0.0000 C   0  0  0  0  0  0  0  0  0  0  0  0
    3.1082   -0.4125    0.0000 C   0  0  0  0  0  0  0  0  0  0  0  0
   -4.7509    0.0000    0.0000 C   0  0  0  0  0  0  0  0  0  0  0  0
    2.3937    0.0000    0.0000 C   0  0  0  0  0  0  0  0  0  0  0  0
   -4.0364    0.4125    0.0000 C   0  0  0  0  0  0  0  0  0  0  0  0
   -3.3219    0.0000    0.0000 C   0  0  0  0  0  0  0  0  0  0  0  0
    1.6793   -0.4125    0.0000 C   0  0  0  0  0  0  0  0  0  0  0  0
   -2.6075    0.4125    0.0000 C   0  0  0  0  0  0  0  0  0  0  0  0
    0.9648    0.0000    0.0000 C   0  0  0  0  0  0  0  0  0  0  0  0
   -1.8930    0.0000    0.0000 C   0  0  0  0  0  0  0  0  0  0  0  0
    0.2503   -0.4125    0.0000 C   0  0  0  0  0  0  0  0  0  0  0  0
   -1.1785    0.4125    0.0000 C   0  0  0  0  0  0  0  0  0  0  0  0
   -0.4641    0.0000    0.0000 N   0  3  0  0  0  0  0  0  0  0  0  0
    7.6088    0.0196    0.0000 Cl  0  5  0  0  0  0  0  0  0  0  0  0
   -8.5354    0.5350    0.0000 H   0  0  0  0  0  0  0  0  0  0  0  0
   -7.6088   -1.0700    0.0000 H   0  0  0  0  0  0  0  0  0  0  0  0
   -8.5355   -0.5350    0.0000 H   0  0  0  0  0  0  0  0  0  0  0  0
    6.1782   -0.5350    0.0000 H   0  0  0  0  0  0  0  0  0  0  0  0
    5.2516    1.0700    0.0000 H   0  0  0  0  0  0  0  0  0  0  0  0
    6.1783    0.5350    0.0000 H   0  0  0  0  0  0  0  0  0  0  0  0
   -1.9466   -0.7144    0.0000 H   0  0  0  0  0  0  0  0  0  0  0  0
   -0.3416   -1.6411    0.0000 H   0  0  0  0  0  0  0  0  0  0  0  0
   -1.4116   -1.6410    0.0000 H   0  0  0  0  0  0  0  0  0  0  0  0
    1.0184    0.7144    0.0000 H   0  0  0  0  0  0  0  0  0  0  0  0
   -0.5866    1.6411    0.0000 H   0  0  0  0  0  0  0  0  0  0  0  0
    0.4834    1.6410    0.0000 H   0  0  0  0  0  0  0  0  0  0  0  0
   -6.8943    1.4825    0.0000 H   0  0  0  0  0  0  0  0  0  0  0  0
   -5.9677    0.9475    0.0000 H   0  0  0  0  0  0  0  0  0  0  0  0
    4.5371   -1.4825    0.0000 H   0  0  0  0  0  0  0  0  0  0  0  0
    3.6104   -0.9475    0.0000 H   0  0  0  0  0  0  0  0  0  0  0  0
   -6.1798   -1.0700    0.0000 H   0  0  0  0  0  0  0  0  0  0  0  0
   -5.2532   -0.5350    0.0000 H   0  0  0  0  0  0  0  0  0  0  0  0
    3.8227    1.0700    0.0000 H   0  0  0  0  0  0  0  0  0  0  0  0
    2.8961    0.5350    0.0000 H   0  0  0  0  0  0  0  0  0  0  0  0
   -5.4653    1.4825    0.0000 H   0  0  0  0  0  0  0  0  0  0  0  0
   -4.5386    0.9475    0.0000 H   0  0  0  0  0  0  0  0  0  0  0  0
    3.1082   -1.4825    0.0000 H   0  0  0  0  0  0  0  0  0  0  0  0
    2.1816   -0.9475    0.0000 H   0  0  0  0  0  0  0  0  0  0  0  0
   -4.7509   -1.0700    0.0000 H   0  0  0  0  0  0  0  0  0  0  0  0
   -3.8243   -0.5350    0.0000 H   0  0  0  0  0  0  0  0  0  0  0  0
    2.3937    1.0700    0.0000 H   0  0  0  0  0  0  0  0  0  0  0  0
    1.4670    0.5350    0.0000 H   0  0  0  0  0  0  0  0  0  0  0  0
   -4.0364    1.4825    0.0000 H   0  0  0  0  0  0  0  0  0  0  0  0
   -3.1098    0.9475    0.0000 H   0  0  0  0  0  0  0  0  0  0  0  0
   -3.3219   -1.0700    0.0000 H   0  0  0  0  0  0  0  0  0  0  0  0
   -2.3952   -0.5350    0.0000 H   0  0  0  0  0  0  0  0  0  0  0  0
    1.6793   -1.4825    0.0000 H   0  0  0  0  0  0  0  0  0  0  0  0
    0.7527   -0.9475    0.0000 H   0  0  0  0  0  0  0  0  0  0  0  0
   -2.6075    1.4825    0.0000 H   0  0  0  0  0  0  0  0  0  0  0  0
   -1.6809    0.9475    0.0000 H   0  0  0  0  0  0  0  0  0  0  0  0
    0.9648    1.0700    0.0000 H   0  0  0  0  0  0  0  0  0  0  0  0
    0.0382    0.5350    0.0000 H   0  0  0  0  0  0  0  0  0  0  0  0
   -1.8930   -1.0700    0.0000 H   0  0  0  0  0  0  0  0  0  0  0  0
   -0.9664   -0.5350    0.0000 H   0  0  0  0  0  0  0  0  0  0  0  0
    0.2503   -1.4825    0.0000 H   0  0  0  0  0  0  0  0  0  0  0  0
   -0.6764   -0.9475    0.0000 H   0  0  0  0  0  0  0  0  0  0  0  0
   -1.1785    1.4825    0.0000 H   0  0  0  0  0  0  0  0  0  0  0  0
   -0.2518    0.9475    0.0000 H   0  0  0  0  0  0  0  0  0  0  0  0
  1 23  1  0  0  0  0
  1 24  1  0  0  0  0
  1 25  1  0  0  0  0
  2 26  1  0  0  0  0
  2 27  1  0  0  0  0
  2 28  1  0  0  0  0
  3 29  1  0  0  0  0
  3 30  1  0  0  0  0
  3 31  1  0  0  0  0
  4 32  1  0  0  0  0
  4 33  1  0  0  0  0
  4 34  1  0  0  0  0
  5  1  1  0  0  0  0
  5 35  1  0  0  0  0
  5 36  1  0  0  0  0
  6  2  1  0  0  0  0
  6 37  1  0  0  0  0
  6 38  1  0  0  0  0
  7  5  1  0  0  0  0
  7 39  1  0  0  0  0
  7 40  1  0  0  0  0
  8  6  1  0  0  0  0
  8 41  1  0  0  0  0
  8 42  1  0  0  0  0
  9  7  1  0  0  0  0
  9 43  1  0  0  0  0
  9 44  1  0  0  0  0
 10  8  1  0  0  0  0
 10 45  1  0  0  0  0
 10 46  1  0  0  0  0
 11  9  1  0  0  0  0
 11 47  1  0  0  0  0
 11 48  1  0  0  0  0
 12 10  1  0  0  0  0
 12 49  1  0  0  0  0
 12 50  1  0  0  0  0
 13 11  1  0  0  0  0
 13 51  1  0  0  0  0
 13 52  1  0  0  0  0
 14 13  1  0  0  0  0
 14 53  1  0  0  0  0
 14 54  1  0  0  0  0
 15 12  1  0  0  0  0
 15 55  1  0  0  0  0
 15 56  1  0  0  0  0
 16 14  1  0  0  0  0
 16 57  1  0  0  0  0
 16 58  1  0  0  0  0
 17 15  1  0  0  0  0
 17 59  1  0  0  0  0
 17 60  1  0  0  0  0
 18 16  1  0  0  0  0
 18 61  1  0  0  0  0
 18 62  1  0  0  0  0
 19 17  1  0  0  0  0
 19 63  1  0  0  0  0
 19 64  1  0  0  0  0
 20 18  1  0  0  0  0
 20 65  1  0  0  0  0
 20 66  1  0  0  0  0
 21  3  1  0  0  0  0
 21  4  1  0  0  0  0
 21 19  1  0  0  0  0
 21 20  1  0  0  0  0
M  CHG  2  21   1  22  -1
M  END
>  <DRUGBANK_ID>
DB13969

>  <COMMON_NAME>
Quaternium-24

>  <CAS_NUMBER>
32426-11-2

>  <UNII>
0T2NG1539G

>  <SYNONYMS>
Ammonium, decyldimethyloctyl, chloride; Decyl dimethyl octyl ammonium chloride; Decyloctyldimethylammonium chloride; Octyl decyl dimethyl ammonium chloride

$$$$
