
 OpenBabel10282417072D

 39 41  0  0  0  0  0  0  0  0999 V2000
   -5.9402    2.7552    0.0000 C   0  0  0  0  0  0  0  0  0  0  0  0
   -5.3882    2.1421    0.0000 N   0  0  0  0  0  0  0  0  0  0  0  0
   -4.5812    2.3136    0.0000 C   0  0  0  0  0  0  0  0  0  0  0  0
   -4.0291    1.7005    0.0000 C   0  0  0  0  0  0  0  0  0  0  0  0
   -4.2841    0.9159    0.0000 C   0  0  0  0  0  0  0  0  0  0  0  0
   -3.7321    0.3028    0.0000 O   0  0  0  0  0  0  0  0  0  0  0  0
   -5.0911    0.7444    0.0000 N   0  0  0  0  0  0  0  0  0  0  0  0
   -5.6431    1.3575    0.0000 C   0  0  0  0  0  0  0  0  0  0  0  0
   -6.4501    1.1859    0.0000 O   0  0  0  0  0  0  0  0  0  0  0  0
   -5.3460   -0.0402    0.0000 C   0  0  0  0  0  0  0  0  0  0  0  0
   -3.2755    2.0361    0.0000 N   0  0  0  0  0  0  0  0  0  0  0  0
   -3.3617    2.8566    0.0000 C   0  0  0  0  0  0  0  0  0  0  0  0
   -4.1687    3.0281    0.0000 N   0  0  0  0  0  0  0  0  0  0  0  0
   -2.5610    1.6236    0.0000 C   0  0  0  0  0  0  0  0  0  0  0  0
   -1.8465    2.0361    0.0000 C   0  0  0  0  0  0  0  0  0  0  0  0
   -1.1321    1.6236    0.0000 O   0  0  0  0  0  0  0  0  0  0  0  0
   -0.4176    2.0361    0.0000 C   0  0  0  0  0  0  0  0  0  0  0  0
   -0.4176    2.8611    0.0000 O   0  0  0  0  0  0  0  0  0  0  0  0
    0.2969    1.6236    0.0000 C   0  0  0  0  0  0  0  0  0  0  0  0
    1.0114    2.0361    0.0000 C   0  0  0  0  0  0  0  0  0  0  0  0
    1.7258    1.6236    0.0000 C   0  0  0  0  0  0  0  0  0  0  0  0
    1.7258    0.7986    0.0000 C   0  0  0  0  0  0  0  0  0  0  0  0
    1.0114    0.3861    0.0000 N   0  0  0  0  0  0  0  0  0  0  0  0
    0.2969    0.7986    0.0000 C   0  0  0  0  0  0  0  0  0  0  0  0
   -5.6095    3.7728    0.0000 H   0  0  0  0  0  0  0  0  0  0  0  0
   -6.9868    2.5328    0.0000 H   0  0  0  0  0  0  0  0  0  0  0  0
   -6.6561    3.5504    0.0000 H   0  0  0  0  0  0  0  0  0  0  0  0
   -6.3926   -0.2627    0.0000 H   0  0  0  0  0  0  0  0  0  0  0  0
   -4.6300   -0.8353    0.0000 H   0  0  0  0  0  0  0  0  0  0  0  0
   -5.6766   -1.0578    0.0000 H   0  0  0  0  0  0  0  0  0  0  0  0
   -2.5948    3.5471    0.0000 H   0  0  0  0  0  0  0  0  0  0  0  0
   -2.5610    0.5536    0.0000 H   0  0  0  0  0  0  0  0  0  0  0  0
   -1.6344    1.0886    0.0000 H   0  0  0  0  0  0  0  0  0  0  0  0
   -1.8465    3.1061    0.0000 H   0  0  0  0  0  0  0  0  0  0  0  0
   -0.9198    2.5711    0.0000 H   0  0  0  0  0  0  0  0  0  0  0  0
    1.0114    3.0681    0.0000 H   0  0  0  0  0  0  0  0  0  0  0  0
    2.6195    2.1396    0.0000 H   0  0  0  0  0  0  0  0  0  0  0  0
    2.6195    0.2826    0.0000 H   0  0  0  0  0  0  0  0  0  0  0  0
   -0.5968    0.2826    0.0000 H   0  0  0  0  0  0  0  0  0  0  0  0
  1  2  1  0  0  0  0
  1 25  1  0  0  0  0
  1 26  1  0  0  0  0
  1 27  1  0  0  0  0
  2  3  1  0  0  0  0
  2  8  1  0  0  0  0
  3  4  2  0  0  0  0
  3 13  1  0  0  0  0
  4  5  1  0  0  0  0
  4 11  1  0  0  0  0
  5  6  2  0  0  0  0
  5  7  1  0  0  0  0
  7  8  1  0  0  0  0
  7 10  1  0  0  0  0
  8  9  2  0  0  0  0
 10 28  1  0  0  0  0
 10 29  1  0  0  0  0
 10 30  1  0  0  0  0
 11 12  1  0  0  0  0
 11 14  1  0  0  0  0
 12 13  2  0  0  0  0
 12 31  1  0  0  0  0
 14 15  1  0  0  0  0
 14 32  1  0  0  0  0
 14 33  1  0  0  0  0
 15 16  1  0  0  0  0
 15 34  1  0  0  0  0
 15 35  1  0  0  0  0
 16 17  1  0  0  0  0
 17 18  2  0  0  0  0
 17 19  1  0  0  0  0
 19 20  2  0  0  0  0
 19 24  1  0  0  0  0
 20 21  1  0  0  0  0
 20 36  1  0  0  0  0
 21 22  2  0  0  0  0
 21 37  1  0  0  0  0
 22 23  1  0  0  0  0
 22 38  1  0  0  0  0
 23 24  2  0  0  0  0
 24 39  1  0  0  0  0
M  END
>  <DRUGBANK_ID>
DB13842

>  <COMMON_NAME>
Etofylline nicotinate

>  <CAS_NUMBER>
13425-39-3

>  <UNII>
SN6D1V68DL

$$$$
