695
 OpenBabel10282417072D

 32 33  0  0  0  0  0  0  0  0999 V2000
    1.6500    1.5381    0.0000 Cl  0  0  0  0  0  0  0  0  0  0  0  0
    3.0790    2.3631    0.0000 S   0  0  0  0  0  0  0  0  0  0  0  0
    3.0319   -2.6593    0.0000 O   0  0  0  0  0  0  0  0  0  0  0  0
    2.2540    2.3631    0.0000 O   0  0  0  0  0  0  0  0  0  0  0  0
    3.9040    2.3631    0.0000 O   0  0  0  0  0  0  0  0  0  0  0  0
    5.2224    0.3006    0.0000 O   0  0  0  0  0  0  0  0  0  0  0  0
    4.5079   -0.9369    0.0000 O   0  0  0  0  0  0  0  0  0  0  0  0
    3.0790   -0.9369    0.0000 N   0  0  0  0  0  0  0  0  0  0  0  0
    3.0790    3.1881    0.0000 N   0  0  0  0  0  0  0  0  0  0  0  0
    3.0790   -0.1119    0.0000 C   0  0  0  0  0  0  0  0  0  0  0  0
    3.0790    1.5381    0.0000 C   0  0  0  0  0  0  0  0  0  0  0  0
    3.7935    0.3006    0.0000 C   0  0  0  0  0  0  0  0  0  0  0  0
    3.7935    1.1256    0.0000 C   0  0  0  0  0  0  0  0  0  0  0  0
    2.3645   -1.3494    0.0000 C   0  0  0  0  0  0  0  0  0  0  0  0
    2.3645    0.3006    0.0000 C   0  0  0  0  0  0  0  0  0  0  0  0
    2.3645    1.1256    0.0000 C   0  0  0  0  0  0  0  0  0  0  0  0
    2.3645   -2.1744    0.0000 C   0  0  0  0  0  0  0  0  0  0  0  0
    4.5079   -0.1119    0.0000 C   0  0  0  0  0  0  0  0  0  0  0  0
    1.6970   -2.6593    0.0000 C   0  0  0  0  0  0  0  0  0  0  0  0
    1.9520   -3.4439    0.0000 C   0  0  0  0  0  0  0  0  0  0  0  0
    2.7770   -3.4439    0.0000 C   0  0  0  0  0  0  0  0  0  0  0  0
    6.0339   -0.1679    0.0000 H   0  0  0  0  0  0  0  0  0  0  0  0
    3.9316   -1.4292    0.0000 H   0  0  0  0  0  0  0  0  0  0  0  0
    3.9623    3.6981    0.0000 H   0  0  0  0  0  0  0  0  0  0  0  0
    2.1957    3.6981    0.0000 H   0  0  0  0  0  0  0  0  0  0  0  0
    4.6872    1.6416    0.0000 H   0  0  0  0  0  0  0  0  0  0  0  0
    1.4379   -0.8144    0.0000 H   0  0  0  0  0  0  0  0  0  0  0  0
    1.4379   -1.8844    0.0000 H   0  0  0  0  0  0  0  0  0  0  0  0
    1.4708   -0.2154    0.0000 H   0  0  0  0  0  0  0  0  0  0  0  0
    0.7155   -2.3404    0.0000 H   0  0  0  0  0  0  0  0  0  0  0  0
    1.3454   -4.2788    0.0000 H   0  0  0  0  0  0  0  0  0  0  0  0
    3.3836   -4.2788    0.0000 H   0  0  0  0  0  0  0  0  0  0  0  0
  1 16  1  0  0  0  0
  2  4  2  0  0  0  0
  2  5  2  0  0  0  0
  2  9  1  0  0  0  0
  2 11  1  0  0  0  0
  3 17  1  0  0  0  0
  3 21  1  0  0  0  0
  6 18  1  0  0  0  0
  6 22  1  0  0  0  0
  7 18  2  0  0  0  0
  8 10  1  0  0  0  0
  8 14  1  0  0  0  0
  8 23  1  0  0  0  0
  9 24  1  0  0  0  0
  9 25  1  0  0  0  0
 10 12  1  0  0  0  0
 10 15  2  0  0  0  0
 11 13  1  0  0  0  0
 11 16  2  0  0  0  0
 12 13  2  0  0  0  0
 12 18  1  0  0  0  0
 13 26  1  0  0  0  0
 14 17  1  0  0  0  0
 14 27  1  0  0  0  0
 14 28  1  0  0  0  0
 15 16  1  0  0  0  0
 15 29  1  0  0  0  0
 17 19  2  0  0  0  0
 19 20  1  0  0  0  0
 19 30  1  0  0  0  0
 20 21  2  0  0  0  0
 20 31  1  0  0  0  0
 21 32  1  0  0  0  0
M  END
>  <DRUGBANK_ID>
DB00695

>  <SECONDARY_ACCESSION_NUMBERS>
APRD00608; DB07799

>  <COMMON_NAME>
Furosemide

>  <CAS_NUMBER>
54-31-9

>  <UNII>
7LXU5N7ZO5

>  <SYNONYMS>
2-Furfurylamino-4-chloro-5-sulfamoylbenzoic acid; 4-Chloro-5-sulfamoyl-N-furfuryl-anthranilic acid; 4-Chloro-N-(2-furylmethyl)-5-sulfamoylanthranilic acid; 4-Chloro-N-furfuryl-5-sulfamoylanthranilic acid; Frusemide; Furosemid; Furosemida; Furosemide; Furosemidu; Furosemidum

$$$$
