
 OpenBabel10282417072D

 36 37  0  0  1  0  0  0  0  0999 V2000
   -4.8946    4.3527    0.0000 B   0  0  0  0  0  0  0  0  0  0  0  0
   -4.8946    3.5277    0.0000 C   0  0  2  0  0  0  0  0  0  0  0  0
   -5.6091    3.1152    0.0000 C   0  0  0  0  0  0  0  0  0  0  0  0
   -6.3235    3.5277    0.0000 C   0  0  0  0  0  0  0  0  0  0  0  0
   -6.3235    4.3527    0.0000 C   0  0  2  0  0  0  0  0  0  0  0  0
   -5.6091    4.7652    0.0000 O   0  0  0  0  0  0  0  0  0  0  0  0
   -7.0380    4.7652    0.0000 C   0  0  0  0  0  0  0  0  0  0  0  0
   -7.0380    5.5902    0.0000 C   0  0  0  0  0  0  0  0  0  0  0  0
   -7.7525    6.0027    0.0000 O   0  0  0  0  0  0  0  0  0  0  0  0
   -6.3235    6.0027    0.0000 O   0  0  0  0  0  0  0  0  0  0  0  0
   -4.1801    3.1152    0.0000 N   0  0  0  0  0  0  0  0  0  0  0  0
   -4.1801    2.2902    0.0000 C   0  0  0  0  0  0  0  0  0  0  0  0
   -4.8946    1.8777    0.0000 O   0  0  0  0  0  0  0  0  0  0  0  0
   -3.4656    1.8777    0.0000 C   0  0  0  0  0  0  0  0  0  0  0  0
   -3.4656    1.0527    0.0000 C   0  0  0  0  0  0  0  0  0  0  0  0
   -2.7982    0.5678    0.0000 C   0  0  0  0  0  0  0  0  0  0  0  0
   -3.0531   -0.2169    0.0000 C   0  0  0  0  0  0  0  0  0  0  0  0
   -3.8781   -0.2169    0.0000 C   0  0  0  0  0  0  0  0  0  0  0  0
   -4.1331    0.5678    0.0000 S   0  0  0  0  0  0  0  0  0  0  0  0
   -4.1801    4.7652    0.0000 O   0  0  0  0  0  0  0  0  0  0  0  0
   -3.9680    4.0627    0.0000 H   0  0  0  0  0  0  0  0  0  0  0  0
   -5.6091    2.0452    0.0000 H   0  0  0  0  0  0  0  0  0  0  0  0
   -6.5358    2.5802    0.0000 H   0  0  0  0  0  0  0  0  0  0  0  0
   -7.2502    2.9927    0.0000 H   0  0  0  0  0  0  0  0  0  0  0  0
   -7.2501    4.0627    0.0000 H   0  0  0  0  0  0  0  0  0  0  0  0
   -7.2501    3.8177    0.0000 H   0  0  0  0  0  0  0  0  0  0  0  0
   -7.9646    4.2302    0.0000 H   0  0  0  0  0  0  0  0  0  0  0  0
   -7.9646    5.3002    0.0000 H   0  0  0  0  0  0  0  0  0  0  0  0
   -5.5120    5.5342    0.0000 H   0  0  0  0  0  0  0  0  0  0  0  0
   -3.3275    3.6075    0.0000 H   0  0  0  0  0  0  0  0  0  0  0  0
   -2.5390    2.4127    0.0000 H   0  0  0  0  0  0  0  0  0  0  0  0
   -2.5390    1.3427    0.0000 H   0  0  0  0  0  0  0  0  0  0  0  0
   -1.8167    0.8867    0.0000 H   0  0  0  0  0  0  0  0  0  0  0  0
   -2.4465   -1.0518    0.0000 H   0  0  0  0  0  0  0  0  0  0  0  0
   -4.4847   -1.0518    0.0000 H   0  0  0  0  0  0  0  0  0  0  0  0
   -3.3401    4.2802    0.0000 H   0  0  0  0  0  0  0  0  0  0  0  0
  1  2  1  0  0  0  0
  1  6  1  0  0  0  0
  1 20  1  0  0  0  0
  2  3  1  0  0  0  0
  2 11  1  0  0  0  0
  2 21  1  6  0  0  0
  3  4  1  0  0  0  0
  3 22  1  0  0  0  0
  3 23  1  0  0  0  0
  4  5  1  0  0  0  0
  4 24  1  0  0  0  0
  4 25  1  0  0  0  0
  5  6  1  0  0  0  0
  5  7  1  0  0  0  0
  5 26  1  6  0  0  0
  7  8  1  0  0  0  0
  7 27  1  0  0  0  0
  7 28  1  0  0  0  0
  8  9  2  0  0  0  0
  8 10  1  0  0  0  0
 10 29  1  0  0  0  0
 11 12  1  0  0  0  0
 11 30  1  0  0  0  0
 12 13  2  0  0  0  0
 12 14  1  0  0  0  0
 14 15  1  0  0  0  0
 14 31  1  0  0  0  0
 14 32  1  0  0  0  0
 15 16  2  0  0  0  0
 15 19  1  0  0  0  0
 16 17  1  0  0  0  0
 16 33  1  0  0  0  0
 17 18  2  0  0  0  0
 17 34  1  0  0  0  0
 18 19  1  0  0  0  0
 18 35  1  0  0  0  0
 20 36  1  0  0  0  0
M  END
>  <DRUGBANK_ID>
DB12107

>  <COMMON_NAME>
Vaborbactam

>  <CAS_NUMBER>
1360457-46-0

>  <UNII>
1C75676F8V

>  <SYNONYMS>
Vaborbactam

$$$$
