
 OpenBabel10282417072D

104109  0  0  0  0  0  0  0  0999 V2000
    1.1052    0.6898    0.0000 C   0  0  1  0  0  0  0  0  0  0  0  0
   -1.0469   -0.5344    0.0000 C   0  0  1  0  0  0  0  0  0  0  0  0
    1.0955   -0.1263    0.0000 C   0  0  2  0  0  0  0  0  0  0  0  0
    1.8923    0.9376    0.0000 C   0  0  2  0  0  0  0  0  0  0  0  0
    2.3636    0.2671    0.0000 C   0  0  1  0  0  0  0  0  0  0  0  0
   -0.3327   -0.1214    0.0000 C   0  0  2  0  0  0  0  0  0  0  0  0
    0.3814   -0.5344    0.0000 C   0  0  1  0  0  0  0  0  0  0  0  0
    3.1944    0.2575    0.0000 N   0  3  0  0  0  0  0  0  0  0  0  0
   -2.4753   -0.5344    0.0000 C   0  0  2  0  0  0  0  0  0  0  0  0
   -2.4753   -1.3603    0.0000 C   0  0  2  0  0  0  0  0  0  0  0  0
    1.8777   -0.3983    0.0000 C   0  0  0  0  0  0  0  0  0  0  0  0
   -1.7611   -0.1214    0.0000 C   0  0  0  0  0  0  0  0  0  0  0  0
   -1.0469   -1.3603    0.0000 C   0  0  2  0  0  0  0  0  0  0  0  0
   -3.1895   -0.1214    0.0000 N   0  0  0  0  0  0  0  0  0  0  0  0
    0.3910    1.1125    0.0000 C   0  0  0  0  0  0  0  0  0  0  0  0
    1.8826    1.7684    0.0000 O   0  0  0  0  0  0  0  0  0  0  0  0
   -1.7611   -1.7733    0.0000 C   0  0  0  0  0  0  0  0  0  0  0  0
   -0.3327    0.7044    0.0000 C   0  0  0  0  0  0  0  0  0  0  0  0
   -3.1895   -1.7684    0.0000 O   0  0  0  0  0  0  0  0  0  0  0  0
    0.3765   -1.3652    0.0000 C   0  0  0  0  0  0  0  0  0  0  0  0
    2.5968    2.1911    0.0000 C   0  0  0  0  0  0  0  0  0  0  0  0
   -3.1895   -2.5895    0.0000 C   0  0  0  0  0  0  0  0  0  0  0  0
   -0.3376   -1.7733    0.0000 C   0  0  0  0  0  0  0  0  0  0  0  0
   -2.4753   -3.0122    0.0000 O   0  0  0  0  0  0  0  0  0  0  0  0
    2.5919    3.0122    0.0000 O   0  0  0  0  0  0  0  0  0  0  0  0
    2.4656   -0.9716    0.0000 C   0  0  0  0  0  0  0  0  0  0  0  0
    3.1895   -0.5635    0.0000 C   0  0  0  0  0  0  0  0  0  0  0  0
    2.4656   -1.8024    0.0000 C   0  0  0  0  0  0  0  0  0  0  0  0
    1.0955    1.5206    0.0000 C   0  0  0  0  0  0  0  0  0  0  0  0
   -1.0518    0.2963    0.0000 C   0  0  0  0  0  0  0  0  0  0  0  0
    3.1944    1.0833    0.0000 C   0  0  0  0  0  0  0  0  0  0  0  0
    3.9036   -0.1554    0.0000 C   0  0  0  0  0  0  0  0  0  0  0  0
   -3.1895    0.7093    0.0000 C   0  0  0  0  0  0  0  0  0  0  0  0
   -3.9036   -0.5344    0.0000 C   0  0  0  0  0  0  0  0  0  0  0  0
    3.3110    1.7830    0.0000 C   0  0  0  0  0  0  0  0  0  0  0  0
   -3.9036   -3.0073    0.0000 C   0  0  0  0  0  0  0  0  0  0  0  0
    4.6178    0.2575    0.0000 C   0  0  0  0  0  0  0  0  0  0  0  0
    3.9036    1.4963    0.0000 C   0  0  0  0  0  0  0  0  0  0  0  0
    4.0251    2.1960    0.0000 C   0  0  0  0  0  0  0  0  0  0  0  0
   -3.8940    1.1174    0.0000 C   0  0  0  0  0  0  0  0  0  0  0  0
   -4.6178   -0.1117    0.0000 C   0  0  0  0  0  0  0  0  0  0  0  0
   -4.6178    0.7093    0.0000 C   0  0  0  0  0  0  0  0  0  0  0  0
    4.6178    1.0833    0.0000 C   0  0  0  0  0  0  0  0  0  0  0  0
   -1.0518   -2.1814    0.0000 H   0  0  0  0  0  0  0  0  0  0  0  0
   -0.3376   -0.9425    0.0000 H   0  0  0  0  0  0  0  0  0  0  0  0
    1.0906   -0.9571    0.0000 H   0  0  0  0  0  0  0  0  0  0  0  0
    0.3765    0.2866    0.0000 H   0  0  0  0  0  0  0  0  0  0  0  0
    1.0259    1.5654    0.0000 H   0  0  0  0  0  0  0  0  0  0  0  0
    2.8623    1.2138    0.0000 H   0  0  0  0  0  0  0  0  0  0  0  0
   -2.4753    0.5356    0.0000 H   0  0  0  0  0  0  0  0  0  0  0  0
   -2.4781   -2.4303    0.0000 H   0  0  0  0  0  0  0  0  0  0  0  0
    2.1967   -1.4197    0.0000 H   0  0  0  0  0  0  0  0  0  0  0  0
    2.9333   -0.5730    0.0000 H   0  0  0  0  0  0  0  0  0  0  0  0
   -1.7611    0.9486    0.0000 H   0  0  0  0  0  0  0  0  0  0  0  0
   -0.8343    0.4133    0.0000 H   0  0  0  0  0  0  0  0  0  0  0  0
    0.4022    2.1824    0.0000 H   0  0  0  0  0  0  0  0  0  0  0  0
   -0.5301    1.6570    0.0000 H   0  0  0  0  0  0  0  0  0  0  0  0
   -1.7611   -2.8433    0.0000 H   0  0  0  0  0  0  0  0  0  0  0  0
   -0.8343   -2.3080    0.0000 H   0  0  0  0  0  0  0  0  0  0  0  0
   -1.2566    1.2441    0.0000 H   0  0  0  0  0  0  0  0  0  0  0  0
   -0.3246    1.7744    0.0000 H   0  0  0  0  0  0  0  0  0  0  0  0
    1.3004   -1.9050    0.0000 H   0  0  0  0  0  0  0  0  0  0  0  0
    0.3714   -2.4352    0.0000 H   0  0  0  0  0  0  0  0  0  0  0  0
   -0.3419   -2.8433    0.0000 H   0  0  0  0  0  0  0  0  0  0  0  0
   -1.2663   -2.3047    0.0000 H   0  0  0  0  0  0  0  0  0  0  0  0
    1.5745   -0.4510    0.0000 H   0  0  0  0  0  0  0  0  0  0  0  0
    4.1118   -1.1060    0.0000 H   0  0  0  0  0  0  0  0  0  0  0  0
    4.1199   -0.0350    0.0000 H   0  0  0  0  0  0  0  0  0  0  0  0
    1.5719   -2.3184    0.0000 H   0  0  0  0  0  0  0  0  0  0  0  0
    3.3593   -2.3184    0.0000 H   0  0  0  0  0  0  0  0  0  0  0  0
    2.0158    2.0664    0.0000 H   0  0  0  0  0  0  0  0  0  0  0  0
    0.1627    2.0447    0.0000 H   0  0  0  0  0  0  0  0  0  0  0  0
    1.0830    2.5905    0.0000 H   0  0  0  0  0  0  0  0  0  0  0  0
   -0.1283    0.8368    0.0000 H   0  0  0  0  0  0  0  0  0  0  0  0
   -1.9816    0.8258    0.0000 H   0  0  0  0  0  0  0  0  0  0  0  0
   -1.0581    1.3663    0.0000 H   0  0  0  0  0  0  0  0  0  0  0  0
    2.2668    1.6166    0.0000 H   0  0  0  0  0  0  0  0  0  0  0  0
    3.1914    2.1533    0.0000 H   0  0  0  0  0  0  0  0  0  0  0  0
    3.9020   -1.2254    0.0000 H   0  0  0  0  0  0  0  0  0  0  0  0
    4.8300   -0.6908    0.0000 H   0  0  0  0  0  0  0  0  0  0  0  0
   -2.2625    1.2436    0.0000 H   0  0  0  0  0  0  0  0  0  0  0  0
   -3.1883    1.7793    0.0000 H   0  0  0  0  0  0  0  0  0  0  0  0
   -3.9090   -1.6044    0.0000 H   0  0  0  0  0  0  0  0  0  0  0  0
   -4.8345   -1.0620    0.0000 H   0  0  0  0  0  0  0  0  0  0  0  0
    3.3138    0.7130    0.0000 H   0  0  0  0  0  0  0  0  0  0  0  0
    4.2385    1.2496    0.0000 H   0  0  0  0  0  0  0  0  0  0  0  0
   -4.8333   -2.4777    0.0000 H   0  0  0  0  0  0  0  0  0  0  0  0
   -3.8974   -4.0773    0.0000 H   0  0  0  0  0  0  0  0  0  0  0  0
   -4.8271   -3.5476    0.0000 H   0  0  0  0  0  0  0  0  0  0  0  0
    5.5446   -0.2772    0.0000 H   0  0  0  0  0  0  0  0  0  0  0  0
    5.5444    0.7926    0.0000 H   0  0  0  0  0  0  0  0  0  0  0  0
    3.9020    2.5663    0.0000 H   0  0  0  0  0  0  0  0  0  0  0  0
    4.8300    2.0317    0.0000 H   0  0  0  0  0  0  0  0  0  0  0  0
    4.9521    1.6617    0.0000 H   0  0  0  0  0  0  0  0  0  0  0  0
    4.0243    3.2660    0.0000 H   0  0  0  0  0  0  0  0  0  0  0  0
    4.9513    2.7317    0.0000 H   0  0  0  0  0  0  0  0  0  0  0  0
   -3.8878    2.1874    0.0000 H   0  0  0  0  0  0  0  0  0  0  0  0
   -4.8163    1.6598    0.0000 H   0  0  0  0  0  0  0  0  0  0  0  0
   -5.5473   -0.6417    0.0000 H   0  0  0  0  0  0  0  0  0  0  0  0
   -5.5430    0.4258    0.0000 H   0  0  0  0  0  0  0  0  0  0  0  0
   -5.5417    1.2490    0.0000 H   0  0  0  0  0  0  0  0  0  0  0  0
   -5.5458    0.1767    0.0000 H   0  0  0  0  0  0  0  0  0  0  0  0
    5.5446    1.6180    0.0000 H   0  0  0  0  0  0  0  0  0  0  0  0
    5.5444    0.5481    0.0000 H   0  0  0  0  0  0  0  0  0  0  0  0
  1 29  1  1  0  0  0
  2  6  1  0  0  0  0
  2 30  1  1  0  0  0
  3  1  1  0  0  0  0
  3 46  1  6  0  0  0
  4  1  1  0  0  0  0
  4 16  1  0  0  0  0
  4 48  1  6  0  0  0
  5  4  1  0  0  0  0
  5  8  1  0  0  0  0
  5 11  1  0  0  0  0
  5 49  1  6  0  0  0
  6 18  1  0  0  0  0
  6 45  1  6  0  0  0
  6  7  1  0  0  0  0
  7  3  1  0  0  0  0
  7 47  1  1  0  0  0
  9 12  1  0  0  0  0
  9 14  1  0  0  0  0
  9 50  1  6  0  0  0
 10 17  1  0  0  0  0
 10 19  1  0  0  0  0
 10  9  1  0  0  0  0
 10 51  1  1  0  0  0
 11  3  1  0  0  0  0
 11 52  1  0  0  0  0
 11 53  1  0  0  0  0
 12  2  1  0  0  0  0
 12 54  1  0  0  0  0
 12 55  1  0  0  0  0
 13  2  1  0  0  0  0
 13 44  1  6  0  0  0
 15  1  1  0  0  0  0
 15 56  1  0  0  0  0
 15 57  1  0  0  0  0
 17 13  1  0  0  0  0
 17 58  1  0  0  0  0
 17 59  1  0  0  0  0
 18 15  1  0  0  0  0
 18 60  1  0  0  0  0
 18 61  1  0  0  0  0
 20  7  1  0  0  0  0
 20 62  1  0  0  0  0
 20 63  1  0  0  0  0
 21 16  1  0  0  0  0
 22 19  1  0  0  0  0
 23 20  1  0  0  0  0
 23 13  1  0  0  0  0
 23 64  1  0  0  0  0
 23 65  1  0  0  0  0
 24 22  2  0  0  0  0
 25 21  2  0  0  0  0
 26 27  1  0  0  0  0
 26 66  1  0  0  0  0
 27  8  1  0  0  0  0
 27 67  1  0  0  0  0
 27 68  1  0  0  0  0
 28 26  2  0  0  0  0
 28 69  1  0  0  0  0
 28 70  1  0  0  0  0
 29 71  1  0  0  0  0
 29 72  1  0  0  0  0
 29 73  1  0  0  0  0
 30 74  1  0  0  0  0
 30 75  1  0  0  0  0
 30 76  1  0  0  0  0
 31  8  1  0  0  0  0
 31 77  1  0  0  0  0
 31 78  1  0  0  0  0
 32  8  1  0  0  0  0
 32 79  1  0  0  0  0
 32 80  1  0  0  0  0
 33 14  1  0  0  0  0
 33 81  1  0  0  0  0
 33 82  1  0  0  0  0
 34 14  1  0  0  0  0
 34 83  1  0  0  0  0
 34 84  1  0  0  0  0
 35 21  1  0  0  0  0
 35 85  1  0  0  0  0
 35 86  1  0  0  0  0
 36 22  1  0  0  0  0
 36 87  1  0  0  0  0
 36 88  1  0  0  0  0
 36 89  1  0  0  0  0
 37 32  1  0  0  0  0
 37 90  1  0  0  0  0
 37 91  1  0  0  0  0
 38 31  1  0  0  0  0
 38 92  1  0  0  0  0
 38 93  1  0  0  0  0
 39 35  1  0  0  0  0
 39 94  1  0  0  0  0
 39 95  1  0  0  0  0
 39 96  1  0  0  0  0
 40 33  1  0  0  0  0
 40 97  1  0  0  0  0
 40 98  1  0  0  0  0
 41 34  1  0  0  0  0
 41 99  1  0  0  0  0
 41100  1  0  0  0  0
 42 40  1  0  0  0  0
 42 41  1  0  0  0  0
 42101  1  0  0  0  0
 42102  1  0  0  0  0
 43 38  1  0  0  0  0
 43 37  1  0  0  0  0
 43103  1  0  0  0  0
 43104  1  0  0  0  0
M  CHG  1   8   1
M  END
>  <DRUGBANK_ID>
DB04834

>  <COMMON_NAME>
Rapacuronium

>  <CAS_NUMBER>
465499-11-0

>  <UNII>
GG1LBM463S

$$$$
