
 OpenBabel10282417072D

 59 63  0  0  0  0  0  0  0  0999 V2000
    3.2789    2.0625    0.0000 C   0  0  0  0  0  0  0  0  0  0  0  0
    3.2789    1.2375    0.0000 C   0  0  0  0  0  0  0  0  0  0  0  0
    3.9934    0.8250    0.0000 C   0  0  0  0  0  0  0  0  0  0  0  0
    3.9934    0.0000    0.0000 C   0  0  0  0  0  0  0  0  0  0  0  0
    3.2789   -0.4125    0.0000 C   0  0  0  0  0  0  0  0  0  0  0  0
    2.5645    0.0000    0.0000 C   0  0  0  0  0  0  0  0  0  0  0  0
    2.5645    0.8250    0.0000 C   0  0  0  0  0  0  0  0  0  0  0  0
    1.7798    1.0799    0.0000 C   0  0  0  0  0  0  0  0  0  0  0  0
    1.5249    1.8646    0.0000 O   0  0  0  0  0  0  0  0  0  0  0  0
    1.2949    0.4125    0.0000 N   0  0  0  0  0  0  0  0  0  0  0  0
    0.4699    0.4125    0.0000 C   0  0  0  0  0  0  0  0  0  0  0  0
    0.0574    1.1270    0.0000 C   0  0  0  0  0  0  0  0  0  0  0  0
   -0.7676    1.1270    0.0000 C   0  0  0  0  0  0  0  0  0  0  0  0
   -1.1801    1.8414    0.0000 C   0  0  0  0  0  0  0  0  0  0  0  0
   -0.7676    2.5559    0.0000 C   0  0  0  0  0  0  0  0  0  0  0  0
   -1.1801    3.2704    0.0000 O   0  0  0  0  0  0  0  0  0  0  0  0
   -0.7676    3.9849    0.0000 C   0  0  0  0  0  0  0  0  0  0  0  0
   -0.3551    4.6993    0.0000 F   0  0  0  0  0  0  0  0  0  0  0  0
   -1.4821    4.3974    0.0000 F   0  0  0  0  0  0  0  0  0  0  0  0
   -0.0531    3.5724    0.0000 F   0  0  0  0  0  0  0  0  0  0  0  0
    0.0574    2.5559    0.0000 C   0  0  0  0  0  0  0  0  0  0  0  0
    0.4699    1.8414    0.0000 C   0  0  0  0  0  0  0  0  0  0  0  0
    1.7798   -0.2549    0.0000 C   0  0  0  0  0  0  0  0  0  0  0  0
    4.7079   -0.4125    0.0000 C   0  0  0  0  0  0  0  0  0  0  0  0
    5.4615   -0.0769    0.0000 N   0  0  0  0  0  0  0  0  0  0  0  0
    6.0136   -0.6900    0.0000 C   0  0  0  0  0  0  0  0  0  0  0  0
    6.8341   -0.6038    0.0000 C   0  0  0  0  0  0  0  0  0  0  0  0
    7.3190   -1.2712    0.0000 N   0  0  0  0  0  0  0  0  0  0  0  0
    8.1395   -1.1850    0.0000 C   0  0  0  0  0  0  0  0  0  0  0  0
    8.6244   -1.8524    0.0000 C   0  0  0  0  0  0  0  0  0  0  0  0
    8.2888   -2.6061    0.0000 N   0  0  0  0  0  0  0  0  0  0  0  0
    7.4683   -2.6924    0.0000 C   0  0  0  0  0  0  0  0  0  0  0  0
    6.9834   -2.0249    0.0000 C   0  0  0  0  0  0  0  0  0  0  0  0
    5.6011   -1.4045    0.0000 N   0  0  0  0  0  0  0  0  0  0  0  0
    4.7941   -1.2330    0.0000 O   0  0  0  0  0  0  0  0  0  0  0  0
    4.2055    2.5975    0.0000 H   0  0  0  0  0  0  0  0  0  0  0  0
    2.3523    2.5975    0.0000 H   0  0  0  0  0  0  0  0  0  0  0  0
    3.2789    3.1325    0.0000 H   0  0  0  0  0  0  0  0  0  0  0  0
    4.8871    1.3410    0.0000 H   0  0  0  0  0  0  0  0  0  0  0  0
    3.2789   -1.4445    0.0000 H   0  0  0  0  0  0  0  0  0  0  0  0
   -0.0651   -0.5141    0.0000 H   0  0  0  0  0  0  0  0  0  0  0  0
   -0.6001    0.4125    0.0000 H   0  0  0  0  0  0  0  0  0  0  0  0
   -1.2836    0.2333    0.0000 H   0  0  0  0  0  0  0  0  0  0  0  0
   -2.2121    1.8414    0.0000 H   0  0  0  0  0  0  0  0  0  0  0  0
    0.5734    3.4496    0.0000 H   0  0  0  0  0  0  0  0  0  0  0  0
    1.5019    1.8414    0.0000 H   0  0  0  0  0  0  0  0  0  0  0  0
    1.4491   -1.2725    0.0000 H   0  0  0  0  0  0  0  0  0  0  0  0
    2.5364   -1.0115    0.0000 H   0  0  0  0  0  0  0  0  0  0  0  0
    7.2693    0.3737    0.0000 H   0  0  0  0  0  0  0  0  0  0  0  0
    7.8982   -0.4920    0.0000 H   0  0  0  0  0  0  0  0  0  0  0  0
    8.5747   -0.2075    0.0000 H   0  0  0  0  0  0  0  0  0  0  0  0
    9.2036   -1.0732    0.0000 H   0  0  0  0  0  0  0  0  0  0  0  0
    9.6885   -1.7406    0.0000 H   0  0  0  0  0  0  0  0  0  0  0  0
    9.2533   -2.7181    0.0000 H   0  0  0  0  0  0  0  0  0  0  0  0
    8.8884   -3.4313    0.0000 H   0  0  0  0  0  0  0  0  0  0  0  0
    7.0331   -3.6699    0.0000 H   0  0  0  0  0  0  0  0  0  0  0  0
    6.4042   -2.8042    0.0000 H   0  0  0  0  0  0  0  0  0  0  0  0
    5.9193   -2.1367    0.0000 H   0  0  0  0  0  0  0  0  0  0  0  0
    6.3545   -1.1592    0.0000 H   0  0  0  0  0  0  0  0  0  0  0  0
  1  2  1  0  0  0  0
  1 36  1  0  0  0  0
  1 37  1  0  0  0  0
  1 38  1  0  0  0  0
  2  3  2  0  0  0  0
  2  7  1  0  0  0  0
  3  4  1  0  0  0  0
  3 39  1  0  0  0  0
  4  5  2  0  0  0  0
  4 24  1  0  0  0  0
  5  6  1  0  0  0  0
  5 40  1  0  0  0  0
  6  7  2  0  0  0  0
  6 23  1  0  0  0  0
  7  8  1  0  0  0  0
  8  9  2  0  0  0  0
  8 10  1  0  0  0  0
 10 11  1  0  0  0  0
 10 23  1  0  0  0  0
 11 12  1  0  0  0  0
 11 41  1  0  0  0  0
 11 42  1  0  0  0  0
 12 13  2  0  0  0  0
 12 22  1  0  0  0  0
 13 14  1  0  0  0  0
 13 43  1  0  0  0  0
 14 15  2  0  0  0  0
 14 44  1  0  0  0  0
 15 16  1  0  0  0  0
 15 21  1  0  0  0  0
 16 17  1  0  0  0  0
 17 18  1  0  0  0  0
 17 19  1  0  0  0  0
 17 20  1  0  0  0  0
 21 22  2  0  0  0  0
 21 45  1  0  0  0  0
 22 46  1  0  0  0  0
 23 47  1  0  0  0  0
 23 48  1  0  0  0  0
 24 25  2  0  0  0  0
 24 35  1  0  0  0  0
 25 26  1  0  0  0  0
 26 27  1  0  0  0  0
 26 34  2  0  0  0  0
 27 28  1  0  0  0  0
 27 49  1  0  0  0  0
 27 50  1  0  0  0  0
 28 29  1  0  0  0  0
 28 33  1  0  0  0  0
 29 30  1  0  0  0  0
 29 51  1  0  0  0  0
 29 52  1  0  0  0  0
 30 31  1  0  0  0  0
 30 53  1  0  0  0  0
 30 54  1  0  0  0  0
 31 32  1  0  0  0  0
 31 55  1  0  0  0  0
 32 33  1  0  0  0  0
 32 56  1  0  0  0  0
 32 57  1  0  0  0  0
 33 58  1  0  0  0  0
 33 59  1  0  0  0  0
 34 35  1  0  0  0  0
M  END
>  <DRUGBANK_ID>
DB16073

>  <COMMON_NAME>
AZD8529

>  <CAS_NUMBER>
1092453-15-0

>  <UNII>
6H81G454I7

$$$$
