
 OpenBabel10282417072D

 69 69  0  0  0  0  0  0  0  0999 V2000
   -0.2062   -4.7933    0.0000 Fe  0  1  0  0  0  0  0  0  0  0  0  0
    0.3268    0.0000    0.0000 O   0  0  0  0  0  0  0  0  0  0  0  0
   -1.1021    0.8250    0.0000 O   0  0  0  0  0  0  0  0  0  0  0  0
   -1.8166    2.0625    0.0000 O   0  0  0  0  0  0  0  0  0  0  0  0
    1.7558    0.0000    0.0000 O   0  0  0  0  0  0  0  0  0  0  0  0
   -1.1021   -1.6500    0.0000 O   0  0  0  0  0  0  0  0  0  0  0  0
    0.3268   -2.4750    0.0000 O   0  0  0  0  0  0  0  0  0  0  0  0
    1.7558   -1.6500    0.0000 O   0  0  0  0  0  0  0  0  0  0  0  0
   -2.5310    0.0000    0.0000 O   0  0  0  0  0  0  0  0  0  0  0  0
   -3.9600    0.8250    0.0000 O   0  0  0  0  0  0  0  0  0  0  0  0
   -3.9600    2.4750    0.0000 O   0  0  0  0  0  0  0  0  0  0  0  0
   -1.8166    3.7125    0.0000 O   0  0  0  0  0  0  0  0  0  0  0  0
    3.1848    0.8250    0.0000 O   0  0  0  0  0  0  0  0  0  0  0  0
    1.7558    2.4750    0.0000 O   0  0  0  0  0  0  0  0  0  0  0  0
    3.8992    2.0625    0.0000 O   0  0  0  0  0  0  0  0  0  0  0  0
    2.4703    3.7125    0.0000 O   0  0  0  0  0  0  0  0  0  0  0  0
    3.8992    4.5375    0.0000 O   0  0  0  0  0  0  0  0  0  0  0  0
   -0.3875   -0.4125    0.0000 C   0  0  1  0  0  0  0  0  0  0  0  0
   -0.3875   -1.2375    0.0000 C   0  0  2  0  0  0  0  0  0  0  0  0
    0.3268   -1.6500    0.0000 C   0  0  1  0  0  0  0  0  0  0  0  0
    1.0413   -1.2375    0.0000 C   0  0  2  0  0  0  0  0  0  0  0  0
    1.0413   -0.4125    0.0000 C   0  0  2  0  0  0  0  0  0  0  0  0
   -2.5310    0.8250    0.0000 C   0  0  1  0  0  0  0  0  0  0  0  0
   -1.8166    1.2375    0.0000 C   0  0  1  0  0  0  0  0  0  0  0  0
   -3.2455    1.2375    0.0000 C   0  0  2  0  0  0  0  0  0  0  0  0
   -3.2455    2.0625    0.0000 C   0  0  1  0  0  0  0  0  0  0  0  0
   -1.1021    0.0000    0.0000 C   0  0  0  0  0  0  0  0  0  0  0  0
   -2.5310    2.4750    0.0000 C   0  0  1  0  0  0  0  0  0  0  0  0
   -2.5310    3.3000    0.0000 C   0  0  0  0  0  0  0  0  0  0  0  0
    1.7558    0.8250    0.0000 C   0  0  0  0  0  0  0  0  0  0  0  0
    2.4703    1.2375    0.0000 C   0  0  2  0  0  0  0  0  0  0  0  0
    2.4703    2.0625    0.0000 C   0  0  2  0  0  0  0  0  0  0  0  0
    3.1848    2.4750    0.0000 C   0  0  1  0  0  0  0  0  0  0  0  0
    3.1848    3.3000    0.0000 C   0  0  2  0  0  0  0  0  0  0  0  0
    3.8992    3.7125    0.0000 C   0  0  0  0  0  0  0  0  0  0  0  0
   -1.9421   -1.1649    0.0000 H   0  0  0  0  0  0  0  0  0  0  0  0
   -0.5132   -2.9600    0.0000 H   0  0  0  0  0  0  0  0  0  0  0  0
    1.7558   -2.6200    0.0000 H   0  0  0  0  0  0  0  0  0  0  0  0
   -3.3710   -0.4850    0.0000 H   0  0  0  0  0  0  0  0  0  0  0  0
   -4.8000    1.3100    0.0000 H   0  0  0  0  0  0  0  0  0  0  0  0
   -3.9600    3.4450    0.0000 H   0  0  0  0  0  0  0  0  0  0  0  0
   -0.9765    3.2275    0.0000 H   0  0  0  0  0  0  0  0  0  0  0  0
    3.1848   -0.1450    0.0000 H   0  0  0  0  0  0  0  0  0  0  0  0
    1.7558    3.4450    0.0000 H   0  0  0  0  0  0  0  0  0  0  0  0
    3.8992    1.0925    0.0000 H   0  0  0  0  0  0  0  0  0  0  0  0
    2.4703    4.6825    0.0000 H   0  0  0  0  0  0  0  0  0  0  0  0
    4.7392    5.0225    0.0000 H   0  0  0  0  0  0  0  0  0  0  0  0
   -0.3876    0.6575    0.0000 H   0  0  0  0  0  0  0  0  0  0  0  0
   -1.3141   -0.7025    0.0000 H   0  0  0  0  0  0  0  0  0  0  0  0
   -0.5999   -2.1850    0.0000 H   0  0  0  0  0  0  0  0  0  0  0  0
    1.0413   -2.3075    0.0000 H   0  0  0  0  0  0  0  0  0  0  0  0
    1.0413    0.6575    0.0000 H   0  0  0  0  0  0  0  0  0  0  0  0
   -1.6043    0.2900    0.0000 H   0  0  0  0  0  0  0  0  0  0  0  0
   -0.8900    1.7725    0.0000 H   0  0  0  0  0  0  0  0  0  0  0  0
   -3.2455    0.1675    0.0000 H   0  0  0  0  0  0  0  0  0  0  0  0
   -4.1721    1.5275    0.0000 H   0  0  0  0  0  0  0  0  0  0  0  0
   -2.0287   -0.5350    0.0000 H   0  0  0  0  0  0  0  0  0  0  0  0
   -1.1020   -1.0700    0.0000 H   0  0  0  0  0  0  0  0  0  0  0  0
   -1.6043    3.0100    0.0000 H   0  0  0  0  0  0  0  0  0  0  0  0
   -3.4577    3.8350    0.0000 H   0  0  0  0  0  0  0  0  0  0  0  0
   -3.4576    2.7650    0.0000 H   0  0  0  0  0  0  0  0  0  0  0  0
    0.8292    1.3600    0.0000 H   0  0  0  0  0  0  0  0  0  0  0  0
    1.7558    1.8950    0.0000 H   0  0  0  0  0  0  0  0  0  0  0  0
    2.4703    0.1675    0.0000 H   0  0  0  0  0  0  0  0  0  0  0  0
    1.5437    1.5275    0.0000 H   0  0  0  0  0  0  0  0  0  0  0  0
    3.1848    1.4050    0.0000 H   0  0  0  0  0  0  0  0  0  0  0  0
    2.2582    2.7650    0.0000 H   0  0  0  0  0  0  0  0  0  0  0  0
    4.8259    3.1775    0.0000 H   0  0  0  0  0  0  0  0  0  0  0  0
    3.8992    2.6425    0.0000 H   0  0  0  0  0  0  0  0  0  0  0  0
  2 18  1  0  0  0  0
  2 22  1  0  0  0  0
  3 27  1  0  0  0  0
  4 24  1  0  0  0  0
  4 28  1  0  0  0  0
  5 30  1  0  0  0  0
  6 36  1  0  0  0  0
  7 37  1  0  0  0  0
  8 38  1  0  0  0  0
  9 39  1  0  0  0  0
 10 40  1  0  0  0  0
 11 41  1  0  0  0  0
 12 29  1  0  0  0  0
 12 42  1  0  0  0  0
 13 43  1  0  0  0  0
 14 44  1  0  0  0  0
 15 45  1  0  0  0  0
 16 46  1  0  0  0  0
 17 35  1  0  0  0  0
 17 47  1  0  0  0  0
 18 19  1  0  0  0  0
 18 27  1  0  0  0  0
 18 48  1  6  0  0  0
 19  6  1  0  0  0  0
 19 20  1  0  0  0  0
 19 49  1  1  0  0  0
 20  7  1  0  0  0  0
 20 21  1  0  0  0  0
 20 50  1  6  0  0  0
 21  8  1  0  0  0  0
 21 22  1  0  0  0  0
 21 51  1  1  0  0  0
 22  5  1  0  0  0  0
 22 52  1  1  0  0  0
 23  9  1  0  0  0  0
 23 24  1  0  0  0  0
 23 25  1  0  0  0  0
 23 53  1  1  0  0  0
 24  3  1  0  0  0  0
 24 54  1  1  0  0  0
 25 10  1  0  0  0  0
 25 26  1  0  0  0  0
 25 55  1  6  0  0  0
 26 11  1  0  0  0  0
 26 28  1  0  0  0  0
 26 56  1  1  0  0  0
 27 57  1  0  0  0  0
 27 58  1  0  0  0  0
 28 29  1  0  0  0  0
 28 59  1  6  0  0  0
 29 60  1  0  0  0  0
 29 61  1  0  0  0  0
 30 31  1  0  0  0  0
 30 62  1  0  0  0  0
 30 63  1  0  0  0  0
 31 13  1  0  0  0  0
 31 32  1  0  0  0  0
 31 64  1  1  0  0  0
 32 14  1  0  0  0  0
 32 33  1  0  0  0  0
 32 65  1  6  0  0  0
 33 15  1  0  0  0  0
 33 34  1  0  0  0  0
 33 66  1  6  0  0  0
 34 16  1  0  0  0  0
 34 35  1  0  0  0  0
 34 67  1  6  0  0  0
 35 68  1  0  0  0  0
 35 69  1  0  0  0  0
M  CHG  1   1   3
M  END
>  <DRUGBANK_ID>
DB15617

>  <COMMON_NAME>
Ferric derisomaltose

>  <CAS_NUMBER>
1345510-43-1

>  <UNII>
AHU547PI9H

>  <SYNONYMS>
Ferric derisomaltose

$$$$
