449
 OpenBabel10282417072D

 54 54  0  0  1  0  0  0  0  0999 V2000
    5.2224    1.2375    0.0000 O   0  0  0  0  0  0  0  0  0  0  0  0
    3.7935    0.4125    0.0000 O   0  0  0  0  0  0  0  0  0  0  0  0
    7.3659   -0.8250    0.0000 O   0  0  0  0  0  0  0  0  0  0  0  0
    6.6515    1.2375    0.0000 O   0  0  0  0  0  0  0  0  0  0  0  0
    3.0791   -0.8250    0.0000 O   0  0  0  0  0  0  0  0  0  0  0  0
    7.3659   -2.4751    0.0000 N   0  0  0  0  0  0  0  0  0  0  0  0
    5.9370    2.4751    0.0000 C   0  0  0  0  0  0  0  0  0  0  0  0
    2.3645    0.4125    0.0000 C   0  0  0  0  0  0  0  0  0  0  0  0
    5.9370   -0.8250    0.0000 C   0  0  0  0  0  0  0  0  0  0  0  0
    6.6515   -1.2375    0.0000 C   0  0  3  0  0  0  0  0  0  0  0  0
    5.1120    2.4751    0.0000 C   0  0  0  0  0  0  0  0  0  0  0  0
    6.7620    2.4751    0.0000 C   0  0  0  0  0  0  0  0  0  0  0  0
    5.9370    3.3001    0.0000 C   0  0  0  0  0  0  0  0  0  0  0  0
    5.9370    1.6500    0.0000 C   0  0  0  0  0  0  0  0  0  0  0  0
    2.7770    1.1270    0.0000 C   0  0  0  0  0  0  0  0  0  0  0  0
    1.9520   -0.3020    0.0000 C   0  0  0  0  0  0  0  0  0  0  0  0
    1.6500    0.8250    0.0000 C   0  0  0  0  0  0  0  0  0  0  0  0
    3.0791    0.0000    0.0000 C   0  0  0  0  0  0  0  0  0  0  0  0
    5.2224    0.4125    0.0000 C   0  0  0  0  0  0  0  0  0  0  0  0
    4.5080    0.0000    0.0000 C   0  0  0  0  0  0  0  0  0  0  0  0
    5.9370    0.0000    0.0000 C   0  0  0  0  0  0  0  0  0  0  0  0
    6.6515   -2.0625    0.0000 C   0  0  0  0  0  0  0  0  0  0  0  0
    5.2224   -1.2375    0.0000 C   0  0  0  0  0  0  0  0  0  0  0  0
    4.5080   -0.8250    0.0000 C   0  0  0  0  0  0  0  0  0  0  0  0
    7.3659   -3.3001    0.0000 C   0  0  0  0  0  0  0  0  0  0  0  0
    8.2060   -1.3100    0.0000 H   0  0  0  0  0  0  0  0  0  0  0  0
    8.2493   -1.9652    0.0000 H   0  0  0  0  0  0  0  0  0  0  0  0
    6.6515   -0.1675    0.0000 H   0  0  0  0  0  0  0  0  0  0  0  0
    4.5770    3.4017    0.0000 H   0  0  0  0  0  0  0  0  0  0  0  0
    4.5770    1.5485    0.0000 H   0  0  0  0  0  0  0  0  0  0  0  0
    4.0420    2.4751    0.0000 H   0  0  0  0  0  0  0  0  0  0  0  0
    7.2970    1.5485    0.0000 H   0  0  0  0  0  0  0  0  0  0  0  0
    7.2970    3.4017    0.0000 H   0  0  0  0  0  0  0  0  0  0  0  0
    7.8320    2.4751    0.0000 H   0  0  0  0  0  0  0  0  0  0  0  0
    6.8636    3.8351    0.0000 H   0  0  0  0  0  0  0  0  0  0  0  0
    5.0104    3.8351    0.0000 H   0  0  0  0  0  0  0  0  0  0  0  0
    5.9370    4.3701    0.0000 H   0  0  0  0  0  0  0  0  0  0  0  0
    3.8470    1.1270    0.0000 H   0  0  0  0  0  0  0  0  0  0  0  0
    2.2420    2.0536    0.0000 H   0  0  0  0  0  0  0  0  0  0  0  0
    3.3120    2.0537    0.0000 H   0  0  0  0  0  0  0  0  0  0  0  0
    0.8820   -0.3020    0.0000 H   0  0  0  0  0  0  0  0  0  0  0  0
    2.4870   -1.2286    0.0000 H   0  0  0  0  0  0  0  0  0  0  0  0
    1.4170   -1.2287    0.0000 H   0  0  0  0  0  0  0  0  0  0  0  0
    1.6500    1.8950    0.0000 H   0  0  0  0  0  0  0  0  0  0  0  0
    0.7234    0.2900    0.0000 H   0  0  0  0  0  0  0  0  0  0  0  0
    0.7233    1.3600    0.0000 H   0  0  0  0  0  0  0  0  0  0  0  0
    6.8307    0.5160    0.0000 H   0  0  0  0  0  0  0  0  0  0  0  0
    5.7248   -2.5974    0.0000 H   0  0  0  0  0  0  0  0  0  0  0  0
    5.7249   -1.5275    0.0000 H   0  0  0  0  0  0  0  0  0  0  0  0
    5.2223   -2.2695    0.0000 H   0  0  0  0  0  0  0  0  0  0  0  0
    3.6143   -1.3410    0.0000 H   0  0  0  0  0  0  0  0  0  0  0  0
    6.4393   -3.8351    0.0000 H   0  0  0  0  0  0  0  0  0  0  0  0
    8.2925   -3.8351    0.0000 H   0  0  0  0  0  0  0  0  0  0  0  0
    7.3659   -4.3701    0.0000 H   0  0  0  0  0  0  0  0  0  0  0  0
  1 14  1  0  0  0  0
  1 19  1  0  0  0  0
  2 18  1  0  0  0  0
  2 20  1  0  0  0  0
  3 10  1  0  0  0  0
  3 26  1  0  0  0  0
  4 14  2  0  0  0  0
  5 18  2  0  0  0  0
  6 22  1  0  0  0  0
  6 25  1  0  0  0  0
  6 27  1  0  0  0  0
  7 11  1  0  0  0  0
  7 12  1  0  0  0  0
  7 13  1  0  0  0  0
  7 14  1  0  0  0  0
  8 15  1  0  0  0  0
  8 16  1  0  0  0  0
  8 17  1  0  0  0  0
  8 18  1  0  0  0  0
  9 10  1  0  0  0  0
  9 21  2  0  0  0  0
  9 23  1  0  0  0  0
 10 22  1  0  0  0  0
 10 28  1  0  0  0  0
 11 29  1  0  0  0  0
 11 30  1  0  0  0  0
 11 31  1  0  0  0  0
 12 32  1  0  0  0  0
 12 33  1  0  0  0  0
 12 34  1  0  0  0  0
 13 35  1  0  0  0  0
 13 36  1  0  0  0  0
 13 37  1  0  0  0  0
 15 38  1  0  0  0  0
 15 39  1  0  0  0  0
 15 40  1  0  0  0  0
 16 41  1  0  0  0  0
 16 42  1  0  0  0  0
 16 43  1  0  0  0  0
 17 44  1  0  0  0  0
 17 45  1  0  0  0  0
 17 46  1  0  0  0  0
 19 20  2  0  0  0  0
 19 21  1  0  0  0  0
 20 24  1  0  0  0  0
 21 47  1  0  0  0  0
 22 48  1  0  0  0  0
 22 49  1  0  0  0  0
 23 24  2  0  0  0  0
 23 50  1  0  0  0  0
 24 51  1  0  0  0  0
 25 52  1  0  0  0  0
 25 53  1  0  0  0  0
 25 54  1  0  0  0  0
M  END
>  <DRUGBANK_ID>
DB00449

>  <SECONDARY_ACCESSION_NUMBERS>
APRD00930

>  <COMMON_NAME>
Dipivefrin

>  <CAS_NUMBER>
52365-63-6

>  <UNII>
8Q1PVL543G

>  <SYNONYMS>
(±)-4-[1-hydroxy-2-(methylamino)ethyl]-o-phenylene divavalate; 1-(3',4'-dipivaloyloxyphenyl)-2-methylamino-1-ethanol; 4-[1-hydroxy-2-(methylamino)ethyl]-o-phenylene divavalate; Dipivalyl epinephrine; Dipivefrin; Dipivefrina; Dipivefrine; Dipivéfrine; Dipivefrinum

$$$$
