
 OpenBabel10282417072D

196201  0  0  0  0  0  0  0  0999 V2000
   -2.2148   -2.0385    0.0000 C   0  0  0  0  0  0  0  0  0  0  0  0
   -2.9162   -3.3172    0.0000 C   0  0  0  0  0  0  0  0  0  0  0  0
   -2.2148   -3.7297    0.0000 C   0  0  0  0  0  0  0  0  0  0  0  0
   -1.4724   -3.3172    0.0000 C   0  0  0  0  0  0  0  0  0  0  0  0
   -1.4724   -2.4509    0.0000 N   0  0  0  0  0  0  0  0  0  0  0  0
  -10.6298   -2.0385    0.0000 C   0  0  0  0  0  0  0  0  0  0  0  0
  -10.6298   -1.2135    0.0000 C   0  0  0  0  0  0  0  0  0  0  0  0
  -11.3310   -0.8010    0.0000 C   0  0  0  0  0  0  0  0  0  0  0  0
  -12.0736   -1.2135    0.0000 C   0  0  0  0  0  0  0  0  0  0  0  0
  -12.0736   -2.0385    0.0000 C   0  0  0  0  0  0  0  0  0  0  0  0
  -11.3310   -2.4509    0.0000 C   0  0  0  0  0  0  0  0  0  0  0  0
   -9.9285   -2.4509    0.0000 C   0  0  0  0  0  0  0  0  0  0  0  0
   -9.1862   -2.0385    0.0000 C   0  0  0  0  0  0  0  0  0  0  0  0
   -9.1862   -1.2135    0.0000 C   0  0  0  0  0  0  0  0  0  0  0  0
   -9.9285   -0.8010    0.0000 C   0  0  0  0  0  0  0  0  0  0  0  0
   -8.6086   -0.8010    0.0000 C   0  0  0  0  0  0  0  0  0  0  0  0
   -7.8661   -1.2135    0.0000 C   0  0  2  0  0  0  0  0  0  0  0  0
   -6.4635   -1.2135    0.0000 N   0  0  0  0  0  0  0  0  0  0  0  0
   -7.1648   -0.8010    0.0000 C   0  0  0  0  0  0  0  0  0  0  0  0
   -7.1648    0.0239    0.0000 O   0  0  0  0  0  0  0  0  0  0  0  0
   -5.7623   -0.8010    0.0000 C   0  0  1  0  0  0  0  0  0  0  0  0
   -5.0198   -1.2135    0.0000 C   0  0  0  0  0  0  0  0  0  0  0  0
   -4.3186   -0.8010    0.0000 N   0  0  0  0  0  0  0  0  0  0  0  0
   -3.6173   -1.2135    0.0000 C   0  0  1  0  0  0  0  0  0  0  0  0
   -2.8748   -0.8010    0.0000 C   0  0  0  0  0  0  0  0  0  0  0  0
   -2.1736   -1.2135    0.0000 N   0  0  0  0  0  0  0  0  0  0  0  0
   -1.5136   -0.8010    0.0000 C   0  0  2  0  0  0  0  0  0  0  0  0
   -0.7712   -1.2135    0.0000 C   0  0  0  0  0  0  0  0  0  0  0  0
   -0.0698   -0.8010    0.0000 N   0  0  0  0  0  0  0  0  0  0  0  0
    0.6312   -1.2135    0.0000 C   0  0  2  0  0  0  0  0  0  0  0  0
    1.3738   -0.8010    0.0000 C   0  0  0  0  0  0  0  0  0  0  0  0
   -5.7623    0.0239    0.0000 C   0  0  0  0  0  0  0  0  0  0  0  0
   -5.0198   -2.0385    0.0000 O   0  0  0  0  0  0  0  0  0  0  0  0
   -3.6173   -2.0385    0.0000 C   0  0  0  0  0  0  0  0  0  0  0  0
   -1.5136    0.0239    0.0000 C   0  0  0  0  0  0  0  0  0  0  0  0
   -2.8748    0.0239    0.0000 O   0  0  0  0  0  0  0  0  0  0  0  0
   -0.7712   -2.0385    0.0000 O   0  0  0  0  0  0  0  0  0  0  0  0
   -0.0698    0.0239    0.0000 C   0  0  0  0  0  0  0  0  0  0  0  0
    1.3738    0.0239    0.0000 O   0  0  0  0  0  0  0  0  0  0  0  0
    2.0750   -1.2135    0.0000 N   0  0  0  0  0  0  0  0  0  0  0  0
    4.2201   -0.8010    0.0000 N   0  0  0  0  0  0  0  0  0  0  0  0
    2.7763   -0.8010    0.0000 C   0  0  1  0  0  0  0  0  0  0  0  0
    3.4775   -1.2135    0.0000 C   0  0  0  0  0  0  0  0  0  0  0  0
    4.2201    0.0239    0.0000 N   0  0  0  0  0  0  0  0  0  0  0  0
    3.4775    0.4364    0.0000 C   0  0  0  0  0  0  0  0  0  0  0  0
    2.7763    0.0239    0.0000 C   0  0  0  0  0  0  0  0  0  0  0  0
    3.4775    1.2614    0.0000 O   0  0  0  0  0  0  0  0  0  0  0  0
    3.4775   -2.0385    0.0000 O   0  0  0  0  0  0  0  0  0  0  0  0
    4.9625   -1.2135    0.0000 C   0  0  2  0  0  0  0  0  0  0  0  0
    5.6638   -0.8010    0.0000 C   0  0  0  0  0  0  0  0  0  0  0  0
    6.3652   -1.2135    0.0000 N   0  0  0  0  0  0  0  0  0  0  0  0
    7.1075   -0.8010    0.0000 C   0  0  2  0  0  0  0  0  0  0  0  0
    7.8088   -1.2135    0.0000 C   0  0  0  0  0  0  0  0  0  0  0  0
    5.0038   -2.0385    0.0000 C   0  0  0  0  0  0  0  0  0  0  0  0
    5.6638    0.0239    0.0000 O   0  0  0  0  0  0  0  0  0  0  0  0
    0.6312   -2.0385    0.0000 C   0  0  0  0  0  0  0  0  0  0  0  0
    7.8088   -2.0385    0.0000 O   0  0  0  0  0  0  0  0  0  0  0  0
   -7.8661   -2.0385    0.0000 N   0  0  0  0  0  0  0  0  0  0  0  0
   -7.1648   -2.4509    0.0000 C   0  0  0  0  0  0  0  0  0  0  0  0
   -6.4635   -2.0385    0.0000 C   0  0  0  0  0  0  0  0  0  0  0  0
   -7.1648   -3.2759    0.0000 O   0  0  0  0  0  0  0  0  0  0  0  0
    9.2113   -1.2135    0.0000 C   0  0  1  0  0  0  0  0  0  0  0  0
    9.6238    0.0652    0.0000 C   0  0  0  0  0  0  0  0  0  0  0  0
    8.7988    0.0652    0.0000 C   0  0  0  0  0  0  0  0  0  0  0  0
    8.5513   -0.7185    0.0000 N   0  0  0  0  0  0  0  0  0  0  0  0
    9.8713   -0.7185    0.0000 C   0  0  0  0  0  0  0  0  0  0  0  0
    9.2113   -1.9973    0.0000 C   0  0  0  0  0  0  0  0  0  0  0  0
    8.5047   -2.4257    0.0000 O   0  0  0  0  0  0  0  0  0  0  0  0
   -5.0611    0.4364    0.0000 C   0  0  0  0  0  0  0  0  0  0  0  0
   -4.3186    0.0652    0.0000 C   0  0  0  0  0  0  0  0  0  0  0  0
   -3.6173    0.5190    0.0000 C   0  0  0  0  0  0  0  0  0  0  0  0
   -3.6172    1.3026    0.0000 C   0  0  0  0  0  0  0  0  0  0  0  0
   -4.3596    1.7152    0.0000 C   0  0  0  0  0  0  0  0  0  0  0  0
   -5.0609    1.2614    0.0000 C   0  0  0  0  0  0  0  0  0  0  0  0
   -2.9160    1.7564    0.0000 Cl  0  0  0  0  0  0  0  0  0  0  0  0
   -2.9162   -2.4509    0.0000 C   0  0  0  0  0  0  0  0  0  0  0  0
   -0.8124    0.4364    0.0000 O   0  0  0  0  0  0  0  0  0  0  0  0
    1.3325   -2.4509    0.0000 C   0  0  0  0  0  0  0  0  0  0  0  0
    2.0750   -2.0385    0.0000 C   0  0  0  0  0  0  0  0  0  0  0  0
    1.2960   -3.2796    0.0000 C   0  0  0  0  0  0  0  0  0  0  0  0
    2.0466   -3.7010    0.0000 C   0  0  0  0  0  0  0  0  0  0  0  0
    2.7594   -3.3091    0.0000 C   0  0  0  0  0  0  0  0  0  0  0  0
    2.7842   -2.4600    0.0000 C   0  0  0  0  0  0  0  0  0  0  0  0
    3.4653   -3.7362    0.0000 O   0  0  0  0  0  0  0  0  0  0  0  0
    5.7379   -2.4147    0.0000 C   0  0  0  0  0  0  0  0  0  0  0  0
    6.4310   -1.9671    0.0000 C   0  0  0  0  0  0  0  0  0  0  0  0
    5.7379   -3.2397    0.0000 C   0  0  0  0  0  0  0  0  0  0  0  0
    9.9302   -2.4020    0.0000 N   0  0  0  0  0  0  0  0  0  0  0  0
   11.3591   -2.4020    0.0000 C   0  0  0  0  0  0  0  0  0  0  0  0
   12.0736   -1.9896    0.0000 N   0  0  0  0  0  0  0  0  0  0  0  0
   10.6447   -1.9896    0.0000 C   0  0  1  0  0  0  0  0  0  0  0  0
   10.6447   -1.1646    0.0000 C   0  0  0  0  0  0  0  0  0  0  0  0
   11.3591   -3.2270    0.0000 O   0  0  0  0  0  0  0  0  0  0  0  0
    7.1177    0.0238    0.0000 C   0  0  0  0  0  0  0  0  0  0  0  0
    7.8321    0.4363    0.0000 C   0  0  0  0  0  0  0  0  0  0  0  0
    7.8321    1.2613    0.0000 C   0  0  0  0  0  0  0  0  0  0  0  0
    8.5467    1.6738    0.0000 C   0  0  0  0  0  0  0  0  0  0  0  0
    8.5467    2.4988    0.0000 N   0  0  0  0  0  0  0  0  0  0  0  0
    9.2610    2.9112    0.0000 C   0  0  0  0  0  0  0  0  0  0  0  0
    9.2610    3.7362    0.0000 C   0  0  0  0  0  0  0  0  0  0  0  0
    9.9754    2.4988    0.0000 C   0  0  0  0  0  0  0  0  0  0  0  0
   -2.2274   -1.0066    0.0000 H   0  0  0  0  0  0  0  0  0  0  0  0
   -3.8120   -3.8296    0.0000 H   0  0  0  0  0  0  0  0  0  0  0  0
   -2.2274   -4.7616    0.0000 H   0  0  0  0  0  0  0  0  0  0  0  0
   -0.5829   -3.8405    0.0000 H   0  0  0  0  0  0  0  0  0  0  0  0
  -11.3182    0.2309    0.0000 H   0  0  0  0  0  0  0  0  0  0  0  0
  -12.9630   -0.6901    0.0000 H   0  0  0  0  0  0  0  0  0  0  0  0
  -12.9630   -2.5619    0.0000 H   0  0  0  0  0  0  0  0  0  0  0  0
  -11.3182   -3.4828    0.0000 H   0  0  0  0  0  0  0  0  0  0  0  0
   -9.9411   -3.4828    0.0000 H   0  0  0  0  0  0  0  0  0  0  0  0
   -8.2967   -2.5619    0.0000 H   0  0  0  0  0  0  0  0  0  0  0  0
   -9.9411    0.2309    0.0000 H   0  0  0  0  0  0  0  0  0  0  0  0
   -8.6691    0.2673    0.0000 H   0  0  0  0  0  0  0  0  0  0  0  0
   -7.7021   -0.2325    0.0000 H   0  0  0  0  0  0  0  0  0  0  0  0
   -8.7883   -1.7561    0.0000 H   0  0  0  0  0  0  0  0  0  0  0  0
   -6.4635   -2.1980    0.0000 H   0  0  0  0  0  0  0  0  0  0  0  0
   -6.6911   -0.2698    0.0000 H   0  0  0  0  0  0  0  0  0  0  0  0
   -4.3186    0.1835    0.0000 H   0  0  0  0  0  0  0  0  0  0  0  0
   -4.5461   -1.7447    0.0000 H   0  0  0  0  0  0  0  0  0  0  0  0
   -2.1604   -2.1979    0.0000 H   0  0  0  0  0  0  0  0  0  0  0  0
   -2.4495   -0.2823    0.0000 H   0  0  0  0  0  0  0  0  0  0  0  0
   -0.2977   -1.7447    0.0000 H   0  0  0  0  0  0  0  0  0  0  0  0
   -6.6911    0.5551    0.0000 H   0  0  0  0  0  0  0  0  0  0  0  0
   -5.7688    1.0939    0.0000 H   0  0  0  0  0  0  0  0  0  0  0  0
   -4.5461   -2.5697    0.0000 H   0  0  0  0  0  0  0  0  0  0  0  0
   -3.6238   -3.1085    0.0000 H   0  0  0  0  0  0  0  0  0  0  0  0
   -2.4424    0.5551    0.0000 H   0  0  0  0  0  0  0  0  0  0  0  0
   -1.5201    1.0939    0.0000 H   0  0  0  0  0  0  0  0  0  0  0  0
    0.8568    0.5589    0.0000 H   0  0  0  0  0  0  0  0  0  0  0  0
   -0.9964    0.5589    0.0000 H   0  0  0  0  0  0  0  0  0  0  0  0
   -0.0698    1.0939    0.0000 H   0  0  0  0  0  0  0  0  0  0  0  0
    2.0750   -2.1980    0.0000 H   0  0  0  0  0  0  0  0  0  0  0  0
    4.2202    0.1835    0.0000 H   0  0  0  0  0  0  0  0  0  0  0  0
    3.7051   -0.2698    0.0000 H   0  0  0  0  0  0  0  0  0  0  0  0
    4.2364   -0.9605    0.0000 H   0  0  0  0  0  0  0  0  0  0  0  0
    5.0644    0.5302    0.0000 H   0  0  0  0  0  0  0  0  0  0  0  0
    1.8475    0.5551    0.0000 H   0  0  0  0  0  0  0  0  0  0  0  0
    1.8507   -0.5130    0.0000 H   0  0  0  0  0  0  0  0  0  0  0  0
    5.9043   -1.7214    0.0000 H   0  0  0  0  0  0  0  0  0  0  0  0
    6.3532   -2.1979    0.0000 H   0  0  0  0  0  0  0  0  0  0  0  0
    6.1886   -0.2527    0.0000 H   0  0  0  0  0  0  0  0  0  0  0  0
    4.1051   -2.6192    0.0000 H   0  0  0  0  0  0  0  0  0  0  0  0
    5.0573   -3.1072    0.0000 H   0  0  0  0  0  0  0  0  0  0  0  0
   -0.2976   -2.5698    0.0000 H   0  0  0  0  0  0  0  0  0  0  0  0
    0.6248   -3.1085    0.0000 H   0  0  0  0  0  0  0  0  0  0  0  0
   -8.7207   -2.5273    0.0000 H   0  0  0  0  0  0  0  0  0  0  0  0
   -5.5326   -2.5661    0.0000 H   0  0  0  0  0  0  0  0  0  0  0  0
   -6.4720   -0.9685    0.0000 H   0  0  0  0  0  0  0  0  0  0  0  0
   -5.5412   -1.4961    0.0000 H   0  0  0  0  0  0  0  0  0  0  0  0
    8.2543   -1.6920    0.0000 H   0  0  0  0  0  0  0  0  0  0  0  0
   10.2563    0.9282    0.0000 H   0  0  0  0  0  0  0  0  0  0  0  0
   10.6796   -0.1087    0.0000 H   0  0  0  0  0  0  0  0  0  0  0  0
    8.1663    0.9282    0.0000 H   0  0  0  0  0  0  0  0  0  0  0  0
    7.7430   -0.1087    0.0000 H   0  0  0  0  0  0  0  0  0  0  0  0
   10.8901   -1.0456    0.0000 H   0  0  0  0  0  0  0  0  0  0  0  0
   10.6297    0.0363    0.0000 H   0  0  0  0  0  0  0  0  0  0  0  0
   -4.2615   -0.9652    0.0000 H   0  0  0  0  0  0  0  0  0  0  0  0
   -2.7108    0.0258    0.0000 H   0  0  0  0  0  0  0  0  0  0  0  0
   -4.3942    2.7466    0.0000 H   0  0  0  0  0  0  0  0  0  0  0  0
   -5.9674    1.7547    0.0000 H   0  0  0  0  0  0  0  0  0  0  0  0
    0.0316   -0.0417    0.0000 H   0  0  0  0  0  0  0  0  0  0  0  0
    2.0901   -1.0066    0.0000 H   0  0  0  0  0  0  0  0  0  0  0  0
    0.3941   -3.7812    0.0000 H   0  0  0  0  0  0  0  0  0  0  0  0
    2.0420   -4.7330    0.0000 H   0  0  0  0  0  0  0  0  0  0  0  0
    3.6885   -1.9628    0.0000 H   0  0  0  0  0  0  0  0  0  0  0  0
    3.4461   -4.6730    0.0000 H   0  0  0  0  0  0  0  0  0  0  0  0
    6.6776   -2.9265    0.0000 H   0  0  0  0  0  0  0  0  0  0  0  0
    7.3831   -2.4553    0.0000 H   0  0  0  0  0  0  0  0  0  0  0  0
    6.3777   -0.8984    0.0000 H   0  0  0  0  0  0  0  0  0  0  0  0
    7.3299   -1.3866    0.0000 H   0  0  0  0  0  0  0  0  0  0  0  0
    4.8113   -3.7747    0.0000 H   0  0  0  0  0  0  0  0  0  0  0  0
    6.6645   -3.7747    0.0000 H   0  0  0  0  0  0  0  0  0  0  0  0
    5.7379   -4.3097    0.0000 H   0  0  0  0  0  0  0  0  0  0  0  0
    9.9355   -3.3865    0.0000 H   0  0  0  0  0  0  0  0  0  0  0  0
   12.9261   -2.4820    0.0000 H   0  0  0  0  0  0  0  0  0  0  0  0
   12.0737   -1.0051    0.0000 H   0  0  0  0  0  0  0  0  0  0  0  0
   10.6447   -3.0596    0.0000 H   0  0  0  0  0  0  0  0  0  0  0  0
   11.5713   -0.6296    0.0000 H   0  0  0  0  0  0  0  0  0  0  0  0
    9.7181   -0.6296    0.0000 H   0  0  0  0  0  0  0  0  0  0  0  0
   10.6447   -0.0946    0.0000 H   0  0  0  0  0  0  0  0  0  0  0  0
    6.1944    0.5645    0.0000 H   0  0  0  0  0  0  0  0  0  0  0  0
    7.1210    1.0938    0.0000 H   0  0  0  0  0  0  0  0  0  0  0  0
    8.7588   -0.0987    0.0000 H   0  0  0  0  0  0  0  0  0  0  0  0
    8.7587    0.9713    0.0000 H   0  0  0  0  0  0  0  0  0  0  0  0
    6.9055    1.7963    0.0000 H   0  0  0  0  0  0  0  0  0  0  0  0
    7.8322    2.3313    0.0000 H   0  0  0  0  0  0  0  0  0  0  0  0
    9.4733    1.1388    0.0000 H   0  0  0  0  0  0  0  0  0  0  0  0
    9.4734    2.2088    0.0000 H   0  0  0  0  0  0  0  0  0  0  0  0
    7.6634    3.0088    0.0000 H   0  0  0  0  0  0  0  0  0  0  0  0
   10.1876    3.4462    0.0000 H   0  0  0  0  0  0  0  0  0  0  0  0
   10.1876    4.2712    0.0000 H   0  0  0  0  0  0  0  0  0  0  0  0
    8.3344    4.2712    0.0000 H   0  0  0  0  0  0  0  0  0  0  0  0
    9.2610    4.8062    0.0000 H   0  0  0  0  0  0  0  0  0  0  0  0
    9.9755    1.4288    0.0000 H   0  0  0  0  0  0  0  0  0  0  0  0
   10.9020    3.0339    0.0000 H   0  0  0  0  0  0  0  0  0  0  0  0
   10.9021    1.9639    0.0000 H   0  0  0  0  0  0  0  0  0  0  0  0
  1  5  1  0  0  0  0
  1102  1  0  0  0  0
  2  3  2  0  0  0  0
  2 76  1  0  0  0  0
  2103  1  0  0  0  0
  3  4  1  0  0  0  0
  3104  1  0  0  0  0
  4  5  2  0  0  0  0
  4105  1  0  0  0  0
  6  7  2  0  0  0  0
  6 11  1  0  0  0  0
  6 12  1  0  0  0  0
  7  8  1  0  0  0  0
  7 15  1  0  0  0  0
  8  9  2  0  0  0  0
  8106  1  0  0  0  0
  9 10  1  0  0  0  0
  9107  1  0  0  0  0
 10 11  2  0  0  0  0
 10108  1  0  0  0  0
 11109  1  0  0  0  0
 12 13  2  0  0  0  0
 12110  1  0  0  0  0
 13 14  1  0  0  0  0
 13111  1  0  0  0  0
 14 15  2  0  0  0  0
 14 16  1  0  0  0  0
 15112  1  0  0  0  0
 16 17  1  0  0  0  0
 16113  1  0  0  0  0
 16114  1  0  0  0  0
 17 19  1  0  0  0  0
 17 58  1  0  0  0  0
 17115  1  1  0  0  0
 18 19  1  0  0  0  0
 18 21  1  0  0  0  0
 18116  1  0  0  0  0
 19 20  2  0  0  0  0
 21 22  1  0  0  0  0
 21 32  1  0  0  0  0
 21117  1  1  0  0  0
 22 23  1  0  0  0  0
 22 33  2  0  0  0  0
 23 24  1  0  0  0  0
 23118  1  0  0  0  0
 24 25  1  0  0  0  0
 24 34  1  0  0  0  0
 24119  1  6  0  0  0
 25 26  1  0  0  0  0
 25 36  2  0  0  0  0
 26 27  1  0  0  0  0
 26120  1  0  0  0  0
 27 28  1  0  0  0  0
 27 35  1  0  0  0  0
 27121  1  6  0  0  0
 28 29  1  0  0  0  0
 28 37  2  0  0  0  0
 29 30  1  0  0  0  0
 29 38  1  0  0  0  0
 30 31  1  0  0  0  0
 30 56  1  0  0  0  0
 30122  1  1  0  0  0
 31 39  2  0  0  0  0
 31 40  1  0  0  0  0
 32123  1  0  0  0  0
 32124  1  0  0  0  0
 34 76  1  0  0  0  0
 34125  1  0  0  0  0
 34126  1  0  0  0  0
 35 77  1  0  0  0  0
 35127  1  0  0  0  0
 35128  1  0  0  0  0
 38129  1  0  0  0  0
 38130  1  0  0  0  0
 38131  1  0  0  0  0
 40 42  1  0  0  0  0
 40132  1  0  0  0  0
 41 49  1  0  0  0  0
 41133  1  0  0  0  0
 42 43  1  0  0  0  0
 42 46  1  0  0  0  0
 42134  1  1  0  0  0
 43 41  1  0  0  0  0
 43 48  2  0  0  0  0
 44 45  1  0  0  0  0
 44135  1  0  0  0  0
 44136  1  0  0  0  0
 45 46  1  0  0  0  0
 45 47  2  0  0  0  0
 46137  1  0  0  0  0
 46138  1  0  0  0  0
 49 50  1  0  0  0  0
 49 54  1  0  0  0  0
 49139  1  1  0  0  0
 50 51  1  0  0  0  0
 50 55  2  0  0  0  0
 51 52  1  0  0  0  0
 51140  1  0  0  0  0
 52 53  1  0  0  0  0
 52 94  1  0  0  0  0
 52141  1  6  0  0  0
 53 57  2  0  0  0  0
 53 65  1  0  0  0  0
 54 85  1  0  0  0  0
 54142  1  0  0  0  0
 54143  1  0  0  0  0
 56 78  1  0  0  0  0
 56144  1  0  0  0  0
 56145  1  0  0  0  0
 58 59  1  0  0  0  0
 58146  1  0  0  0  0
 59 60  1  0  0  0  0
 59 61  2  0  0  0  0
 60147  1  0  0  0  0
 60148  1  0  0  0  0
 60149  1  0  0  0  0
 62 66  1  0  0  0  0
 62 67  1  0  0  0  0
 62150  1  6  0  0  0
 63 64  1  0  0  0  0
 63 66  1  0  0  0  0
 63151  1  0  0  0  0
 63152  1  0  0  0  0
 64 65  1  0  0  0  0
 64153  1  0  0  0  0
 64154  1  0  0  0  0
 65 62  1  0  0  0  0
 66155  1  0  0  0  0
 66156  1  0  0  0  0
 67 68  2  0  0  0  0
 67 88  1  0  0  0  0
 69 32  1  0  0  0  0
 69 70  1  0  0  0  0
 70 71  2  0  0  0  0
 70157  1  0  0  0  0
 71 72  1  0  0  0  0
 71158  1  0  0  0  0
 72 73  2  0  0  0  0
 72 75  1  0  0  0  0
 73 74  1  0  0  0  0
 73159  1  0  0  0  0
 74 69  2  0  0  0  0
 74160  1  0  0  0  0
 76  1  2  0  0  0  0
 77161  1  0  0  0  0
 78 80  1  0  0  0  0
 78 79  2  0  0  0  0
 79162  1  0  0  0  0
 80 81  2  0  0  0  0
 80163  1  0  0  0  0
 81 82  1  0  0  0  0
 81164  1  0  0  0  0
 82 83  2  0  0  0  0
 82 84  1  0  0  0  0
 83 79  1  0  0  0  0
 83165  1  0  0  0  0
 84166  1  0  0  0  0
 85 86  1  0  0  0  0
 85 87  1  0  0  0  0
 85167  1  0  0  0  0
 86168  1  0  0  0  0
 86169  1  0  0  0  0
 86170  1  0  0  0  0
 87171  1  0  0  0  0
 87172  1  0  0  0  0
 87173  1  0  0  0  0
 88174  1  0  0  0  0
 89 90  1  0  0  0  0
 89 91  1  0  0  0  0
 90175  1  0  0  0  0
 90176  1  0  0  0  0
 91 88  1  0  0  0  0
 91 92  1  0  0  0  0
 91177  1  1  0  0  0
 92178  1  0  0  0  0
 92179  1  0  0  0  0
 92180  1  0  0  0  0
 93 89  2  0  0  0  0
 94 95  1  0  0  0  0
 94181  1  0  0  0  0
 94182  1  0  0  0  0
 95 96  1  0  0  0  0
 95183  1  0  0  0  0
 95184  1  0  0  0  0
 96 97  1  0  0  0  0
 96185  1  0  0  0  0
 96186  1  0  0  0  0
 97 98  1  0  0  0  0
 97187  1  0  0  0  0
 97188  1  0  0  0  0
 98 99  1  0  0  0  0
 98189  1  0  0  0  0
 99100  1  0  0  0  0
 99101  1  0  0  0  0
 99190  1  0  0  0  0
100191  1  0  0  0  0
100192  1  0  0  0  0
100193  1  0  0  0  0
101194  1  0  0  0  0
101195  1  0  0  0  0
101196  1  0  0  0  0
M  END
>  <DRUGBANK_ID>
DB00106

>  <SECONDARY_ACCESSION_NUMBERS>
BTD00051; BIOD00051

>  <COMMON_NAME>
Abarelix

>  <CAS_NUMBER>
183552-38-7

>  <UNII>
W486SJ5824

>  <SYNONYMS>
Abarelix

$$$$
