4842
 OpenBabel10282417072D

 66 70  0  0  1  0  0  0  0  0999 V2000
    1.6500   -0.7962    0.0000 F   0  0  0  0  0  0  0  0  0  0  0  0
    6.6001   -3.6542    0.0000 F   0  0  0  0  0  0  0  0  0  0  0  0
    9.3052   -0.8193    0.0000 O   0  0  0  0  0  0  0  0  0  0  0  0
    9.5601    1.3002    0.0000 N   0  0  0  0  0  0  0  0  0  0  0  0
    7.4252    0.6328    0.0000 N   0  0  0  0  0  0  0  0  0  0  0  0
   10.3447    0.2203    0.0000 N   0  0  0  0  0  0  0  0  0  0  0  0
    9.0752    0.6328    0.0000 C   0  0  0  0  0  0  0  0  0  0  0  0
    8.6627   -0.0817    0.0000 C   0  0  0  0  0  0  0  0  0  0  0  0
    8.6627    1.3473    0.0000 C   0  0  0  0  0  0  0  0  0  0  0  0
    7.8377   -0.0817    0.0000 C   0  0  0  0  0  0  0  0  0  0  0  0
    7.8377    1.3473    0.0000 C   0  0  0  0  0  0  0  0  0  0  0  0
    9.5601   -0.0347    0.0000 C   0  0  0  0  0  0  0  0  0  0  0  0
   10.3447    1.0453    0.0000 C   0  0  0  0  0  0  0  0  0  0  0  0
    6.6001    0.6328    0.0000 C   0  0  0  0  0  0  0  0  0  0  0  0
    9.3052    2.0849    0.0000 C   0  0  0  0  0  0  0  0  0  0  0  0
    6.1876   -0.0817    0.0000 C   0  0  0  0  0  0  0  0  0  0  0  0
    5.3626   -0.0817    0.0000 C   0  0  0  0  0  0  0  0  0  0  0  0
    4.9501   -0.7962    0.0000 C   0  0  0  0  0  0  0  0  0  0  0  0
    8.4982    2.2564    0.0000 C   0  0  0  0  0  0  0  0  0  0  0  0
    9.8572    2.6980    0.0000 C   0  0  0  0  0  0  0  0  0  0  0  0
    4.1251   -0.7962    0.0000 C   0  0  0  0  0  0  0  0  0  0  0  0
    5.3626   -1.5107    0.0000 C   0  0  0  0  0  0  0  0  0  0  0  0
    8.2433    3.0410    0.0000 C   0  0  0  0  0  0  0  0  0  0  0  0
    9.6023    3.4826    0.0000 C   0  0  0  0  0  0  0  0  0  0  0  0
    8.7953    3.6542    0.0000 C   0  0  0  0  0  0  0  0  0  0  0  0
    3.7126   -1.5107    0.0000 C   0  0  0  0  0  0  0  0  0  0  0  0
    6.1876   -1.5107    0.0000 C   0  0  0  0  0  0  0  0  0  0  0  0
    3.7126   -0.0817    0.0000 C   0  0  0  0  0  0  0  0  0  0  0  0
    4.9501   -2.2252    0.0000 C   0  0  0  0  0  0  0  0  0  0  0  0
    2.8876   -1.5107    0.0000 C   0  0  0  0  0  0  0  0  0  0  0  0
    6.6001   -2.2252    0.0000 C   0  0  0  0  0  0  0  0  0  0  0  0
    2.8876   -0.0817    0.0000 C   0  0  0  0  0  0  0  0  0  0  0  0
    5.3626   -2.9396    0.0000 C   0  0  0  0  0  0  0  0  0  0  0  0
    2.4751   -0.7962    0.0000 C   0  0  0  0  0  0  0  0  0  0  0  0
    6.1876   -2.9396    0.0000 C   0  0  0  0  0  0  0  0  0  0  0  0
   11.1412   -0.3583    0.0000 H   0  0  0  0  0  0  0  0  0  0  0  0
    9.1977   -1.0083    0.0000 H   0  0  0  0  0  0  0  0  0  0  0  0
    8.1277   -1.0083    0.0000 H   0  0  0  0  0  0  0  0  0  0  0  0
    9.1977    2.2739    0.0000 H   0  0  0  0  0  0  0  0  0  0  0  0
    8.1277    2.2739    0.0000 H   0  0  0  0  0  0  0  0  0  0  0  0
    7.3027   -1.0083    0.0000 H   0  0  0  0  0  0  0  0  0  0  0  0
    8.3727   -1.0083    0.0000 H   0  0  0  0  0  0  0  0  0  0  0  0
    7.3027    2.2739    0.0000 H   0  0  0  0  0  0  0  0  0  0  0  0
    8.3727    2.2739    0.0000 H   0  0  0  0  0  0  0  0  0  0  0  0
   11.2103    1.6742    0.0000 H   0  0  0  0  0  0  0  0  0  0  0  0
   11.2981    0.5595    0.0000 H   0  0  0  0  0  0  0  0  0  0  0  0
    6.0651    1.5594    0.0000 H   0  0  0  0  0  0  0  0  0  0  0  0
    5.5301    0.6328    0.0000 H   0  0  0  0  0  0  0  0  0  0  0  0
    6.7226   -1.0083    0.0000 H   0  0  0  0  0  0  0  0  0  0  0  0
    5.6526   -1.0083    0.0000 H   0  0  0  0  0  0  0  0  0  0  0  0
    4.8276    0.8449    0.0000 H   0  0  0  0  0  0  0  0  0  0  0  0
    4.2926   -0.0817    0.0000 H   0  0  0  0  0  0  0  0  0  0  0  0
    4.4151   -1.7228    0.0000 H   0  0  0  0  0  0  0  0  0  0  0  0
    7.8077    1.4895    0.0000 H   0  0  0  0  0  0  0  0  0  0  0  0
   10.8666    2.4834    0.0000 H   0  0  0  0  0  0  0  0  0  0  0  0
    7.2338    3.2555    0.0000 H   0  0  0  0  0  0  0  0  0  0  0  0
   10.2929    4.2495    0.0000 H   0  0  0  0  0  0  0  0  0  0  0  0
    8.4764    4.6357    0.0000 H   0  0  0  0  0  0  0  0  0  0  0  0
    4.2286   -2.4044    0.0000 H   0  0  0  0  0  0  0  0  0  0  0  0
    6.7036   -0.6170    0.0000 H   0  0  0  0  0  0  0  0  0  0  0  0
    4.2286    0.8120    0.0000 H   0  0  0  0  0  0  0  0  0  0  0  0
    3.9181   -2.2252    0.0000 H   0  0  0  0  0  0  0  0  0  0  0  0
    2.3716   -2.4044    0.0000 H   0  0  0  0  0  0  0  0  0  0  0  0
    7.6321   -2.2252    0.0000 H   0  0  0  0  0  0  0  0  0  0  0  0
    2.3716    0.8120    0.0000 H   0  0  0  0  0  0  0  0  0  0  0  0
    4.8466   -3.8333    0.0000 H   0  0  0  0  0  0  0  0  0  0  0  0
  1 34  1  0  0  0  0
  2 35  1  0  0  0  0
  3 12  2  0  0  0  0
  4  7  1  0  0  0  0
  4 13  1  0  0  0  0
  4 15  1  0  0  0  0
  5 10  1  0  0  0  0
  5 11  1  0  0  0  0
  5 14  1  0  0  0  0
  6 12  1  0  0  0  0
  6 13  1  0  0  0  0
  6 36  1  0  0  0  0
  7  8  1  0  0  0  0
  7  9  1  0  0  0  0
  7 12  1  0  0  0  0
  8 10  1  0  0  0  0
  8 37  1  0  0  0  0
  8 38  1  0  0  0  0
  9 11  1  0  0  0  0
  9 39  1  0  0  0  0
  9 40  1  0  0  0  0
 10 41  1  0  0  0  0
 10 42  1  0  0  0  0
 11 43  1  0  0  0  0
 11 44  1  0  0  0  0
 13 45  1  0  0  0  0
 13 46  1  0  0  0  0
 14 16  1  0  0  0  0
 14 47  1  0  0  0  0
 14 48  1  0  0  0  0
 15 19  2  0  0  0  0
 15 20  1  0  0  0  0
 16 17  1  0  0  0  0
 16 49  1  0  0  0  0
 16 50  1  0  0  0  0
 17 18  1  0  0  0  0
 17 51  1  0  0  0  0
 17 52  1  0  0  0  0
 18 21  1  0  0  0  0
 18 22  1  0  0  0  0
 18 53  1  0  0  0  0
 19 23  1  0  0  0  0
 19 54  1  0  0  0  0
 20 24  2  0  0  0  0
 20 55  1  0  0  0  0
 21 26  2  0  0  0  0
 21 28  1  0  0  0  0
 22 27  2  0  0  0  0
 22 29  1  0  0  0  0
 23 25  2  0  0  0  0
 23 56  1  0  0  0  0
 24 25  1  0  0  0  0
 24 57  1  0  0  0  0
 25 58  1  0  0  0  0
 26 30  1  0  0  0  0
 26 59  1  0  0  0  0
 27 31  1  0  0  0  0
 27 60  1  0  0  0  0
 28 32  2  0  0  0  0
 28 61  1  0  0  0  0
 29 33  2  0  0  0  0
 29 62  1  0  0  0  0
 30 34  2  0  0  0  0
 30 63  1  0  0  0  0
 31 35  2  0  0  0  0
 31 64  1  0  0  0  0
 32 34  1  0  0  0  0
 32 65  1  0  0  0  0
 33 35  1  0  0  0  0
 33 66  1  0  0  0  0
M  END
>  <DRUGBANK_ID>
DB04842

>  <COMMON_NAME>
Fluspirilene

>  <CAS_NUMBER>
1841-19-6

>  <UNII>
C5QA4GLR9M

>  <SYNONYMS>
Fluspirilene; Fluspirileno; Fluspirilenum

$$$$
