1509
 OpenBabel10282417072D

 26 27  0  0  1  0  0  0  0  0999 V2000
    6.4461    0.4081    0.0000 O   0  0  0  0  0  0  0  0  0  0  0  0
    6.4461   -0.9196    0.0000 O   0  0  0  0  0  0  0  0  0  0  0  0
    2.0930    0.5693    0.0000 N   0  0  0  0  0  0  0  0  0  0  0  0
    3.5220    0.5693    0.0000 C   0  0  0  0  0  0  0  0  0  0  0  0
    2.8075    0.1568    0.0000 C   0  0  3  0  0  0  0  0  0  0  0  0
    4.2365    0.1568    0.0000 C   0  0  0  0  0  0  0  0  0  0  0  0
    4.9509    0.5693    0.0000 C   0  0  0  0  0  0  0  0  0  0  0  0
    5.6655    0.1568    0.0000 C   0  0  0  0  0  0  0  0  0  0  0  0
    4.2365   -0.6683    0.0000 C   0  0  0  0  0  0  0  0  0  0  0  0
    5.6655   -0.6683    0.0000 C   0  0  0  0  0  0  0  0  0  0  0  0
    2.8075   -0.6683    0.0000 C   0  0  0  0  0  0  0  0  0  0  0  0
    4.9509   -1.0808    0.0000 C   0  0  0  0  0  0  0  0  0  0  0  0
    6.9276   -0.2558    0.0000 C   0  0  0  0  0  0  0  0  0  0  0  0
    2.0930    1.5893    0.0000 H   0  0  0  0  0  0  0  0  0  0  0  0
    1.2097    0.0593    0.0000 H   0  0  0  0  0  0  0  0  0  0  0  0
    3.5220    1.6393    0.0000 H   0  0  0  0  0  0  0  0  0  0  0  0
    4.4486    1.1043    0.0000 H   0  0  0  0  0  0  0  0  0  0  0  0
    2.8075    1.2268    0.0000 H   0  0  0  0  0  0  0  0  0  0  0  0
    4.9508    1.6013    0.0000 H   0  0  0  0  0  0  0  0  0  0  0  0
    3.3428   -1.1843    0.0000 H   0  0  0  0  0  0  0  0  0  0  0  0
    1.8809   -1.2033    0.0000 H   0  0  0  0  0  0  0  0  0  0  0  0
    3.7341   -1.2033    0.0000 H   0  0  0  0  0  0  0  0  0  0  0  0
    2.8075   -1.7383    0.0000 H   0  0  0  0  0  0  0  0  0  0  0  0
    4.9508   -2.1128    0.0000 H   0  0  0  0  0  0  0  0  0  0  0  0
    7.9976   -0.2558    0.0000 H   0  0  0  0  0  0  0  0  0  0  0  0
    7.4137   -1.2090    0.0000 H   0  0  0  0  0  0  0  0  0  0  0  0
  1  8  1  0  0  0  0
  1 13  1  0  0  0  0
  2 10  1  0  0  0  0
  2 13  1  0  0  0  0
  3  5  1  0  0  0  0
  3 14  1  0  0  0  0
  3 15  1  0  0  0  0
  4  5  1  0  0  0  0
  4  6  1  0  0  0  0
  4 16  1  0  0  0  0
  4 17  1  0  0  0  0
  5 11  1  0  0  0  0
  5 18  1  0  0  0  0
  6  7  2  0  0  0  0
  6  9  1  0  0  0  0
  7  8  1  0  0  0  0
  7 19  1  0  0  0  0
  8 10  2  0  0  0  0
  9 12  2  0  0  0  0
  9 20  1  0  0  0  0
 10 12  1  0  0  0  0
 11 21  1  0  0  0  0
 11 22  1  0  0  0  0
 11 23  1  0  0  0  0
 12 24  1  0  0  0  0
 13 25  1  0  0  0  0
 13 26  1  0  0  0  0
M  END
>  <DRUGBANK_ID>
DB01509

>  <COMMON_NAME>
Tenamfetamine

>  <CAS_NUMBER>
4764-17-4

>  <UNII>
XJZ28FJ27W

>  <SYNONYMS>
3,4-methylenedioxyamphetamine; MDA; Methylenedioxyamphetamine; Tenamfetamina; Tenamfetamine; Tenamfetaminum

$$$$
