
 OpenBabel10282417072D

 38 38  0  0  1  0  0  0  0  0999 V2000
    0.7145    2.0625    0.0000 C   0  0  0  0  0  0  0  0  0  0  0  0
    3.5724   -1.2375    0.0000 C   0  0  0  0  0  0  0  0  0  0  0  0
   -0.0000    0.0000    0.0000 C   0  0  0  0  0  0  0  0  0  0  0  0
    2.1434   -0.4125    0.0000 C   0  0  0  0  0  0  0  0  0  0  0  0
    0.7145   -1.2375    0.0000 C   0  0  0  0  0  0  0  0  0  0  0  0
    0.7145    1.2375    0.0000 C   0  0  0  0  0  0  0  0  0  0  0  0
    3.5724   -0.4125    0.0000 C   0  0  1  0  0  0  0  0  0  0  0  0
    0.7145   -0.4125    0.0000 C   0  0  0  0  0  0  0  0  0  0  0  0
    1.4289    0.0000    0.0000 C   0  0  0  0  0  0  0  0  0  0  0  0
    1.4289    0.8250    0.0000 C   0  0  0  0  0  0  0  0  0  0  0  0
    4.2868    0.0000    0.0000 C   0  0  0  0  0  0  0  0  0  0  0  0
    0.0000    0.8250    0.0000 N   0  0  0  0  0  0  0  0  0  0  0  0
    2.8579    0.0000    0.0000 N   0  0  0  0  0  0  0  0  0  0  0  0
    2.1434    1.2375    0.0000 O   0  0  0  0  0  0  0  0  0  0  0  0
    5.0013   -0.4125    0.0000 O   0  0  0  0  0  0  0  0  0  0  0  0
    4.2868    0.8250    0.0000 O   0  0  0  0  0  0  0  0  0  0  0  0
   -0.0000   -3.3000    0.0000 O   0  0  0  0  0  0  0  0  0  0  0  0
   -0.8250   -2.4750    0.0000 O   0  0  0  0  0  0  0  0  0  0  0  0
    0.8250   -2.4750    0.0000 O   0  0  0  0  0  0  0  0  0  0  0  0
   -0.0000   -1.6500    0.0000 O   0  0  0  0  0  0  0  0  0  0  0  0
   -0.0000   -2.4750    0.0000 P   0  0  0  0  0  0  0  0  0  0  0  0
    4.2868   -0.8250    0.0000 H   0  0  0  0  0  0  0  0  0  0  0  0
    1.6411    2.5975    0.0000 H   0  0  0  0  0  0  0  0  0  0  0  0
   -0.2121    2.5975    0.0000 H   0  0  0  0  0  0  0  0  0  0  0  0
    0.7145    3.1325    0.0000 H   0  0  0  0  0  0  0  0  0  0  0  0
    2.6458   -1.7725    0.0000 H   0  0  0  0  0  0  0  0  0  0  0  0
    4.4990   -1.7725    0.0000 H   0  0  0  0  0  0  0  0  0  0  0  0
    3.5724   -2.3075    0.0000 H   0  0  0  0  0  0  0  0  0  0  0  0
   -0.8937   -0.5160    0.0000 H   0  0  0  0  0  0  0  0  0  0  0  0
    2.1434   -1.4825    0.0000 H   0  0  0  0  0  0  0  0  0  0  0  0
    3.0700   -0.9475    0.0000 H   0  0  0  0  0  0  0  0  0  0  0  0
    1.6411   -1.7725    0.0000 H   0  0  0  0  0  0  0  0  0  0  0  0
    0.7145   -2.3075    0.0000 H   0  0  0  0  0  0  0  0  0  0  0  0
    2.8579    1.0200    0.0000 H   0  0  0  0  0  0  0  0  0  0  0  0
    2.9549    0.7690    0.0000 H   0  0  0  0  0  0  0  0  0  0  0  0
    5.0983    1.2935    0.0000 H   0  0  0  0  0  0  0  0  0  0  0  0
   -0.8400   -3.7850    0.0000 H   0  0  0  0  0  0  0  0  0  0  0  0
   -1.3100   -1.6350    0.0000 H   0  0  0  0  0  0  0  0  0  0  0  0
  1 23  1  0  0  0  0
  1 24  1  0  0  0  0
  1 25  1  0  0  0  0
  2 26  1  0  0  0  0
  2 27  1  0  0  0  0
  2 28  1  0  0  0  0
  3 29  1  0  0  0  0
  4 30  1  0  0  0  0
  4 31  1  0  0  0  0
  5 32  1  0  0  0  0
  5 33  1  0  0  0  0
  6  1  1  0  0  0  0
  7  2  1  0  0  0  0
  7 22  1  1  0  0  0
  8  3  1  0  0  0  0
  8  5  1  0  0  0  0
  9  4  1  0  0  0  0
  9  8  2  0  0  0  0
 10  6  2  0  0  0  0
 10  9  1  0  0  0  0
 11  7  1  0  0  0  0
 12  3  2  0  0  0  0
 12  6  1  0  0  0  0
 13  4  1  0  0  0  0
 13  7  1  0  0  0  0
 13 34  1  0  0  0  0
 14 10  1  0  0  0  0
 14 35  1  0  0  0  0
 15 11  2  0  0  0  0
 16 11  1  0  0  0  0
 16 36  1  0  0  0  0
 17 37  1  0  0  0  0
 18 38  1  0  0  0  0
 20  5  1  0  0  0  0
 21 17  1  0  0  0  0
 21 18  1  0  0  0  0
 21 19  2  0  0  0  0
 21 20  1  0  0  0  0
M  END
>  <DRUGBANK_ID>
DB04467

>  <SECONDARY_ACCESSION_NUMBERS>
EXPT02532; EXPT02529; EXPT02635

>  <COMMON_NAME>
N-(5'-phosphopyridoxyl)-L-alanine

$$$$
