
 OpenBabel10282417072D

 83 88  0  0  0  0  0  0  0  0999 V2000
    2.7964    1.4189    0.0000 C   0  0  0  0  0  0  0  0  0  0  0  0
    2.7964    0.5932    0.0000 C   0  0  0  0  0  0  0  0  0  0  0  0
    3.5100    0.1803    0.0000 C   0  0  0  0  0  0  0  0  0  0  0  0
    4.2234    0.5932    0.0000 C   0  0  0  0  0  0  0  0  0  0  0  0
    4.2234    1.4189    0.0000 C   0  0  0  0  0  0  0  0  0  0  0  0
    3.5100    1.8318    0.0000 C   0  0  0  0  0  0  0  0  0  0  0  0
   -3.5081   -1.7624    0.0000 C   0  0  0  0  0  0  0  0  0  0  0  0
   -3.5081   -2.5881    0.0000 C   0  0  0  0  0  0  0  0  0  0  0  0
   -2.7947   -3.0009    0.0000 C   0  0  0  0  0  0  0  0  0  0  0  0
   -2.7947   -1.3497    0.0000 C   0  0  0  0  0  0  0  0  0  0  0  0
   -2.0813   -1.7624    0.0000 C   0  0  1  0  0  0  0  0  0  0  0  0
   -2.0848   -2.5881    0.0000 C   0  0  0  0  0  0  0  0  0  0  0  0
   -1.3752   -3.0016    0.0000 C   0  0  0  0  0  0  0  0  0  0  0  0
   -0.6579   -2.5942    0.0000 C   0  0  0  0  0  0  0  0  0  0  0  0
   -1.3683   -1.3504    0.0000 C   0  0  2  0  0  0  0  0  0  0  0  0
   -0.6567   -1.7699    0.0000 C   0  0  2  0  0  0  0  0  0  0  0  0
   -0.6430   -0.1204    0.0000 C   0  0  0  0  0  0  0  0  0  0  0  0
   -1.3647   -0.5263    0.0000 C   0  0  2  0  0  0  0  0  0  0  0  0
    0.0685   -0.5401    0.0000 C   0  0  1  0  0  0  0  0  0  0  0  0
    0.0600   -1.3640    0.0000 C   0  0  1  0  0  0  0  0  0  0  0  0
    0.8411   -1.6267    0.0000 C   0  0  0  0  0  0  0  0  0  0  0  0
    0.8547   -0.2936    0.0000 C   0  0  1  0  0  0  0  0  0  0  0  0
    1.3338   -0.9608    0.0000 C   0  0  2  0  0  0  0  0  0  0  0  0
    2.1165   -0.7112    0.0000 O   0  0  0  0  0  0  0  0  0  0  0  0
    2.1210    0.1100    0.0000 C   0  0  2  0  0  0  0  0  0  0  0  0
    1.3413    0.3681    0.0000 O   0  0  0  0  0  0  0  0  0  0  0  0
   -4.2234   -3.0006    0.0000 O   0  0  0  0  0  0  0  0  0  0  0  0
   -1.3757   -2.1753    0.0000 H   0  0  0  0  0  0  0  0  0  0  0  0
    0.0522   -2.1849    0.0000 H   0  0  0  0  0  0  0  0  0  0  0  0
    1.9125   -1.5390    0.0000 H   0  0  0  0  0  0  0  0  0  0  0  0
   -2.0897   -0.9367    0.0000 C   0  0  0  0  0  0  0  0  0  0  0  0
   -0.6617   -0.9416    0.0000 H   0  0  0  0  0  0  0  0  0  0  0  0
   -2.0766   -0.1080    0.0000 O   0  0  0  0  0  0  0  0  0  0  0  0
    0.0618    0.2872    0.0000 C   0  0  0  0  0  0  0  0  0  0  0  0
    0.8487    0.5349    0.0000 C   0  0  0  0  0  0  0  0  0  0  0  0
    1.5608    0.9530    0.0000 O   0  0  0  0  0  0  0  0  0  0  0  0
    0.1307    0.9426    0.0000 C   0  0  0  0  0  0  0  0  0  0  0  0
    0.1245    1.7683    0.0000 O   0  0  0  0  0  0  0  0  0  0  0  0
   -0.5935    2.1759    0.0000 C   0  0  0  0  0  0  0  0  0  0  0  0
   -0.5994    3.0016    0.0000 O   0  0  0  0  0  0  0  0  0  0  0  0
   -1.3055    1.7578    0.0000 C   0  0  0  0  0  0  0  0  0  0  0  0
   -2.0235    2.1654    0.0000 C   0  0  0  0  0  0  0  0  0  0  0  0
   -1.2994    0.9321    0.0000 C   0  0  0  0  0  0  0  0  0  0  0  0
    1.8695    1.9535    0.0000 H   0  0  0  0  0  0  0  0  0  0  0  0
    2.7956    2.4889    0.0000 H   0  0  0  0  0  0  0  0  0  0  0  0
    3.7233    1.1278    0.0000 H   0  0  0  0  0  0  0  0  0  0  0  0
    3.5101   -0.8897    0.0000 H   0  0  0  0  0  0  0  0  0  0  0  0
    2.5831   -0.3543    0.0000 H   0  0  0  0  0  0  0  0  0  0  0  0
    5.1503    0.0587    0.0000 H   0  0  0  0  0  0  0  0  0  0  0  0
    5.1499    1.1284    0.0000 H   0  0  0  0  0  0  0  0  0  0  0  0
    5.1503    1.9534    0.0000 H   0  0  0  0  0  0  0  0  0  0  0  0
    4.2243    2.4889    0.0000 H   0  0  0  0  0  0  0  0  0  0  0  0
    3.5101    2.9018    0.0000 H   0  0  0  0  0  0  0  0  0  0  0  0
    2.5831    2.3664    0.0000 H   0  0  0  0  0  0  0  0  0  0  0  0
   -4.4021   -1.2468    0.0000 H   0  0  0  0  0  0  0  0  0  0  0  0
   -2.7936   -4.0329    0.0000 H   0  0  0  0  0  0  0  0  0  0  0  0
   -2.7947   -0.3177    0.0000 H   0  0  0  0  0  0  0  0  0  0  0  0
   -1.3811   -4.0716    0.0000 H   0  0  0  0  0  0  0  0  0  0  0  0
   -0.4519   -3.5424    0.0000 H   0  0  0  0  0  0  0  0  0  0  0  0
    0.2665   -3.1331    0.0000 H   0  0  0  0  0  0  0  0  0  0  0  0
    0.2703   -2.0619    0.0000 H   0  0  0  0  0  0  0  0  0  0  0  0
   -0.6320    0.9495    0.0000 H   0  0  0  0  0  0  0  0  0  0  0  0
   -1.5638    0.4246    0.0000 H   0  0  0  0  0  0  0  0  0  0  0  0
   -2.2945   -1.0557    0.0000 H   0  0  0  0  0  0  0  0  0  0  0  0
    1.1621   -2.6474    0.0000 H   0  0  0  0  0  0  0  0  0  0  0  0
    1.8964   -1.8037    0.0000 H   0  0  0  0  0  0  0  0  0  0  0  0
    3.0713   -0.3819    0.0000 H   0  0  0  0  0  0  0  0  0  0  0  0
   -1.1685   -0.3923    0.0000 H   0  0  0  0  0  0  0  0  0  0  0  0
   -3.0217   -0.4112    0.0000 H   0  0  0  0  0  0  0  0  0  0  0  0
   -2.1006    0.1332    0.0000 H   0  0  0  0  0  0  0  0  0  0  0  0
   -2.0692    0.8620    0.0000 H   0  0  0  0  0  0  0  0  0  0  0  0
    0.9841    0.8297    0.0000 H   0  0  0  0  0  0  0  0  0  0  0  0
   -0.8691    0.8147    0.0000 H   0  0  0  0  0  0  0  0  0  0  0  0
    0.0531    1.3572    0.0000 H   0  0  0  0  0  0  0  0  0  0  0  0
   -0.7920    0.4008    0.0000 H   0  0  0  0  0  0  0  0  0  0  0  0
   -0.7999    1.4707    0.0000 H   0  0  0  0  0  0  0  0  0  0  0  0
   -2.2282    1.2160    0.0000 H   0  0  0  0  0  0  0  0  0  0  0  0
   -2.0313    3.2354    0.0000 H   0  0  0  0  0  0  0  0  0  0  0  0
   -2.9462    1.6237    0.0000 H   0  0  0  0  0  0  0  0  0  0  0  0
   -2.9540    2.6936    0.0000 H   0  0  0  0  0  0  0  0  0  0  0  0
   -2.2221    0.3903    0.0000 H   0  0  0  0  0  0  0  0  0  0  0  0
   -0.3688    0.4040    0.0000 H   0  0  0  0  0  0  0  0  0  0  0  0
   -1.2915   -0.1379    0.0000 H   0  0  0  0  0  0  0  0  0  0  0  0
  1  2  1  0  0  0  0
  1  6  1  0  0  0  0
  1 44  1  0  0  0  0
  1 45  1  0  0  0  0
  2  3  1  0  0  0  0
  2 46  1  0  0  0  0
  3  4  1  0  0  0  0
  3 47  1  0  0  0  0
  3 48  1  0  0  0  0
  4  5  1  0  0  0  0
  4 49  1  0  0  0  0
  4 50  1  0  0  0  0
  5  6  1  0  0  0  0
  5 51  1  0  0  0  0
  5 52  1  0  0  0  0
  6 53  1  0  0  0  0
  6 54  1  0  0  0  0
  7  8  1  0  0  0  0
  7 10  2  0  0  0  0
  7 55  1  0  0  0  0
  8 27  2  0  0  0  0
  8  9  1  0  0  0  0
  9 12  2  0  0  0  0
  9 56  1  0  0  0  0
 10 57  1  0  0  0  0
 11 10  1  0  0  0  0
 11 12  1  0  0  0  0
 11 15  1  0  0  0  0
 11 31  1  1  0  0  0
 12 13  1  0  0  0  0
 13 14  1  0  0  0  0
 13 58  1  0  0  0  0
 13 59  1  0  0  0  0
 14 16  1  0  0  0  0
 14 60  1  0  0  0  0
 14 61  1  0  0  0  0
 15 28  1  6  0  0  0
 15 16  1  0  0  0  0
 15 18  1  0  0  0  0
 16 32  1  1  0  0  0
 16 20  1  0  0  0  0
 17 18  1  0  0  0  0
 17 62  1  0  0  0  0
 17 63  1  0  0  0  0
 18 33  1  0  0  0  0
 18 64  1  6  0  0  0
 19 34  1  1  0  0  0
 19 17  1  0  0  0  0
 19 20  1  0  0  0  0
 20 21  1  0  0  0  0
 20 29  1  6  0  0  0
 21 23  1  0  0  0  0
 21 65  1  0  0  0  0
 21 66  1  0  0  0  0
 22 19  1  0  0  0  0
 22 23  1  0  0  0  0
 22 35  1  1  0  0  0
 23 24  1  0  0  0  0
 23 30  1  1  0  0  0
 24 25  1  0  0  0  0
 25 26  1  0  0  0  0
 25  2  1  0  0  0  0
 25 67  1  1  0  0  0
 26 22  1  0  0  0  0
 31 68  1  0  0  0  0
 31 69  1  0  0  0  0
 31 70  1  0  0  0  0
 33 71  1  0  0  0  0
 34 72  1  0  0  0  0
 34 73  1  0  0  0  0
 34 74  1  0  0  0  0
 35 36  2  0  0  0  0
 35 37  1  0  0  0  0
 37 38  1  0  0  0  0
 37 75  1  0  0  0  0
 37 76  1  0  0  0  0
 38 39  1  0  0  0  0
 39 40  2  0  0  0  0
 39 41  1  0  0  0  0
 41 42  1  0  0  0  0
 41 43  1  0  0  0  0
 41 77  1  0  0  0  0
 42 78  1  0  0  0  0
 42 79  1  0  0  0  0
 42 80  1  0  0  0  0
 43 81  1  0  0  0  0
 43 82  1  0  0  0  0
 43 83  1  0  0  0  0
M  END
>  <DRUGBANK_ID>
DB01410

>  <COMMON_NAME>
Ciclesonide

>  <CAS_NUMBER>
126544-47-6

>  <UNII>
S59502J185

>  <SYNONYMS>
Ciclesonida; Ciclesonide

$$$$
