
 OpenBabel10282417072D

 47 50  0  0  0  0  0  0  0  0999 V2000
    1.8830   -2.1772    0.0000 O   0  0  0  0  0  0  0  0  0  0  0  0
    1.4617   -1.4565    0.0000 C   0  0  0  0  0  0  0  0  0  0  0  0
    1.8717   -0.7469    0.0000 C   0  0  0  0  0  0  0  0  0  0  0  0
    1.4597   -0.0359    0.0000 C   0  0  0  0  0  0  0  0  0  0  0  0
    0.6334   -0.0371    0.0000 C   0  0  1  0  0  0  0  0  0  0  0  0
    0.2235   -0.7492    0.0000 C   0  0  1  0  0  0  0  0  0  0  0  0
   -0.6018   -0.7505    0.0000 C   0  0  0  0  0  0  0  0  0  0  0  0
   -1.0127   -1.4659    0.0000 C   0  0  0  0  0  0  0  0  0  0  0  0
   -1.8388   -1.4663    0.0000 C   0  0  0  0  0  0  0  0  0  0  0  0
   -2.2512   -0.7535    0.0000 C   0  0  0  0  0  0  0  0  0  0  0  0
   -1.8418   -0.0415    0.0000 C   0  0  0  0  0  0  0  0  0  0  0  0
   -1.0129   -0.0431    0.0000 C   0  0  0  0  0  0  0  0  0  0  0  0
   -0.5278    0.6700    0.0000 C   0  0  0  0  0  0  0  0  0  0  0  0
    0.2225    0.6745    0.0000 C   0  0  2  0  0  0  0  0  0  0  0  0
    0.7155    1.3842    0.0000 N   0  0  0  0  0  0  0  0  0  0  0  0
   -0.4304    1.3771    0.0000 C   0  0  0  0  0  0  0  0  0  0  0  0
   -0.4323    0.0058    0.0000 C   0  0  0  0  0  0  0  0  0  0  0  0
    1.2800    2.1837    0.0000 C   0  0  0  0  0  0  0  0  0  0  0  0
   -2.2574   -2.1837    0.0000 O   0  0  0  0  0  0  0  0  0  0  0  0
   -3.2029   -1.8616    0.0000 C   0  0  0  0  0  0  0  0  0  0  0  0
   -0.5920   -2.1834    0.0000 O   0  0  0  0  0  0  0  0  0  0  0  0
    0.6355   -1.4577    0.0000 C   0  0  0  0  0  0  0  0  0  0  0  0
    2.6936   -0.7459    0.0000 O   0  0  0  0  0  0  0  0  0  0  0  0
    3.2029   -0.1455    0.0000 C   0  0  0  0  0  0  0  0  0  0  0  0
    1.0395    0.6807    0.0000 H   0  0  0  0  0  0  0  0  0  0  0  0
    1.9743    0.8586    0.0000 H   0  0  0  0  0  0  0  0  0  0  0  0
   -3.2832   -0.7549    0.0000 H   0  0  0  0  0  0  0  0  0  0  0  0
   -2.3577    0.8523    0.0000 H   0  0  0  0  0  0  0  0  0  0  0  0
   -1.0311    1.6142    0.0000 H   0  0  0  0  0  0  0  0  0  0  0  0
    0.0201    1.5891    0.0000 H   0  0  0  0  0  0  0  0  0  0  0  0
   -0.2762    1.6212    0.0000 H   0  0  0  0  0  0  0  0  0  0  0  0
   -1.1888    2.1319    0.0000 H   0  0  0  0  0  0  0  0  0  0  0  0
   -1.4187    0.9671    0.0000 H   0  0  0  0  0  0  0  0  0  0  0  0
   -1.4349   -0.3680    0.0000 H   0  0  0  0  0  0  0  0  0  0  0  0
   -0.6963   -1.0311    0.0000 H   0  0  0  0  0  0  0  0  0  0  0  0
    2.3456    2.0863    0.0000 H   0  0  0  0  0  0  0  0  0  0  0  0
    0.8316    3.1552    0.0000 H   0  0  0  0  0  0  0  0  0  0  0  0
    1.8972    3.0578    0.0000 H   0  0  0  0  0  0  0  0  0  0  0  0
   -3.4105   -0.8119    0.0000 H   0  0  0  0  0  0  0  0  0  0  0  0
   -4.0081   -2.5662    0.0000 H   0  0  0  0  0  0  0  0  0  0  0  0
   -4.2157   -1.5166    0.0000 H   0  0  0  0  0  0  0  0  0  0  0  0
   -1.0550   -2.9980    0.0000 H   0  0  0  0  0  0  0  0  0  0  0  0
    0.1026   -2.3856    0.0000 H   0  0  0  0  0  0  0  0  0  0  0  0
    1.1722   -2.3833    0.0000 H   0  0  0  0  0  0  0  0  0  0  0  0
    4.2556   -0.3369    0.0000 H   0  0  0  0  0  0  0  0  0  0  0  0
    2.8423    0.8619    0.0000 H   0  0  0  0  0  0  0  0  0  0  0  0
    3.8951    0.6705    0.0000 H   0  0  0  0  0  0  0  0  0  0  0  0
  1  2  2  0  0  0  0
  2  3  1  0  0  0  0
  3  4  2  0  0  0  0
  3 23  1  0  0  0  0
  4  5  1  0  0  0  0
  4 26  1  0  0  0  0
  5  6  1  0  0  0  0
  5 25  1  6  0  0  0
  6  7  1  1  0  0  0
  6 17  1  0  0  0  0
  6 22  1  0  0  0  0
  7  8  1  0  0  0  0
  8  9  2  0  0  0  0
  8 21  1  0  0  0  0
  9 10  1  0  0  0  0
  9 19  1  0  0  0  0
 10 11  2  0  0  0  0
 10 27  1  0  0  0  0
 11 12  1  0  0  0  0
 11 28  1  0  0  0  0
 12  7  2  0  0  0  0
 12 13  1  0  0  0  0
 13 14  1  0  0  0  0
 13 29  1  0  0  0  0
 13 30  1  0  0  0  0
 14  5  1  0  0  0  0
 14 15  1  0  0  0  0
 14 31  1  1  0  0  0
 15 16  1  0  0  0  0
 15 18  1  0  0  0  0
 16 17  1  0  0  0  0
 16 32  1  0  0  0  0
 16 33  1  0  0  0  0
 17 34  1  0  0  0  0
 17 35  1  0  0  0  0
 18 36  1  0  0  0  0
 18 37  1  0  0  0  0
 18 38  1  0  0  0  0
 19 20  1  0  0  0  0
 20 39  1  0  0  0  0
 20 40  1  0  0  0  0
 20 41  1  0  0  0  0
 21 42  1  0  0  0  0
 22  2  1  0  0  0  0
 22 43  1  0  0  0  0
 22 44  1  0  0  0  0
 23 24  1  0  0  0  0
 24 45  1  0  0  0  0
 24 46  1  0  0  0  0
 24 47  1  0  0  0  0
M  END
>  <DRUGBANK_ID>
DB16892

>  <COMMON_NAME>
Sinomenine

>  <CAS_NUMBER>
115-53-7

>  <UNII>
63LT81K70N

>  <SYNONYMS>
Coculine; Kukoline

$$$$
