
 OpenBabel10282417072D

 59 61  0  0  0  0  0  0  0  0999 V2000
   -1.5103    0.8299    0.0000 C   0  0  0  0  0  0  0  0  0  0  0  0
   -0.6873    0.8298    0.0000 C   0  0  0  0  0  0  0  0  0  0  0  0
   -1.8478   -0.6128    0.0000 C   0  0  0  0  0  0  0  0  0  0  0  0
   -2.0267    0.1873    0.0000 C   0  0  0  0  0  0  0  0  0  0  0  0
   -2.4535   -1.1786    0.0000 C   0  0  0  0  0  0  0  0  0  0  0  0
   -3.2370   -0.9363    0.0000 C   0  0  0  0  0  0  0  0  0  0  0  0
   -3.4193   -0.1315    0.0000 C   0  0  0  0  0  0  0  0  0  0  0  0
   -2.8180    0.4308    0.0000 C   0  0  0  0  0  0  0  0  0  0  0  0
   -1.1017   -0.9763    0.0000 N   0  0  0  0  0  0  0  0  0  0  0  0
   -1.1060   -1.8028    0.0000 C   0  0  0  0  0  0  0  0  0  0  0  0
    0.3242   -1.8057    0.0000 O   0  0  0  0  0  0  0  0  0  0  0  0
   -0.3889   -2.2180    0.0000 C   0  0  0  0  0  0  0  0  0  0  0  0
   -0.3933   -3.0443    0.0000 O   0  0  0  0  0  0  0  0  0  0  0  0
   -0.3592   -0.6183    0.0000 C   0  0  0  0  0  0  0  0  0  0  0  0
    0.2833   -1.1346    0.0000 O   0  0  0  0  0  0  0  0  0  0  0  0
   -0.1769    0.1877    0.0000 C   0  0  1  0  0  0  0  0  0  0  0  0
    0.5474    0.5765    0.0000 N   0  0  0  0  0  0  0  0  0  0  0  0
    1.2703    2.6499    0.0000 O   0  0  0  0  0  0  0  0  0  0  0  0
    1.2709    1.8213    0.0000 C   0  0  0  0  0  0  0  0  0  0  0  0
    1.9886    1.4150    0.0000 O   0  0  0  0  0  0  0  0  0  0  0  0
    2.7064    1.8319    0.0000 C   0  0  0  0  0  0  0  0  0  0  0  0
    3.4193    1.4198    0.0000 C   0  0  0  0  0  0  0  0  0  0  0  0
    0.5585    1.4045    0.0000 C   0  0  2  0  0  0  0  0  0  0  0  0
   -0.1556    1.8126    0.0000 C   0  0  0  0  0  0  0  0  0  0  0  0
   -0.8672    1.3957    0.0000 C   0  0  0  0  0  0  0  0  0  0  0  0
   -1.5866    1.8062    0.0000 C   0  0  0  0  0  0  0  0  0  0  0  0
   -2.3015    3.0443    0.0000 C   0  0  0  0  0  0  0  0  0  0  0  0
   -1.5895    2.6313    0.0000 C   0  0  0  0  0  0  0  0  0  0  0  0
   -2.2983    1.3891    0.0000 C   0  0  0  0  0  0  0  0  0  0  0  0
   -3.0176    1.7995    0.0000 C   0  0  0  0  0  0  0  0  0  0  0  0
   -3.0181    2.6298    0.0000 C   0  0  0  0  0  0  0  0  0  0  0  0
    0.5337   -0.2253    0.0000 H   0  0  0  0  0  0  0  0  0  0  0  0
   -1.9727    1.7948    0.0000 H   0  0  0  0  0  0  0  0  0  0  0  0
   -0.9401    1.7353    0.0000 H   0  0  0  0  0  0  0  0  0  0  0  0
   -0.2222    1.7934    0.0000 H   0  0  0  0  0  0  0  0  0  0  0  0
    0.3761    0.9483    0.0000 H   0  0  0  0  0  0  0  0  0  0  0  0
   -2.2225   -2.1844    0.0000 H   0  0  0  0  0  0  0  0  0  0  0  0
   -3.9943   -1.6373    0.0000 H   0  0  0  0  0  0  0  0  0  0  0  0
   -4.4058    0.1716    0.0000 H   0  0  0  0  0  0  0  0  0  0  0  0
   -3.0499    1.4364    0.0000 H   0  0  0  0  0  0  0  0  0  0  0  0
   -2.0344   -2.3348    0.0000 H   0  0  0  0  0  0  0  0  0  0  0  0
   -1.1084   -2.8728    0.0000 H   0  0  0  0  0  0  0  0  0  0  0  0
    1.1360   -2.2737    0.0000 H   0  0  0  0  0  0  0  0  0  0  0  0
    1.4192    0.0470    0.0000 H   0  0  0  0  0  0  0  0  0  0  0  0
    2.7053    2.9019    0.0000 H   0  0  0  0  0  0  0  0  0  0  0  0
    3.6329    2.3671    0.0000 H   0  0  0  0  0  0  0  0  0  0  0  0
    3.4187    0.3498    0.0000 H   0  0  0  0  0  0  0  0  0  0  0  0
    4.3462    1.9543    0.0000 H   0  0  0  0  0  0  0  0  0  0  0  0
    4.3457    0.8843    0.0000 H   0  0  0  0  0  0  0  0  0  0  0  0
   -0.3705    0.8737    0.0000 H   0  0  0  0  0  0  0  0  0  0  0  0
   -0.1614    2.8826    0.0000 H   0  0  0  0  0  0  0  0  0  0  0  0
   -1.0854    2.3421    0.0000 H   0  0  0  0  0  0  0  0  0  0  0  0
   -0.8611    0.3257    0.0000 H   0  0  0  0  0  0  0  0  0  0  0  0
   -1.7909    0.8557    0.0000 H   0  0  0  0  0  0  0  0  0  0  0  0
   -2.3009    4.0763    0.0000 H   0  0  0  0  0  0  0  0  0  0  0  0
   -0.6961    3.1480    0.0000 H   0  0  0  0  0  0  0  0  0  0  0  0
   -2.2923    0.3571    0.0000 H   0  0  0  0  0  0  0  0  0  0  0  0
   -3.9099    1.2809    0.0000 H   0  0  0  0  0  0  0  0  0  0  0  0
   -3.9122    3.1452    0.0000 H   0  0  0  0  0  0  0  0  0  0  0  0
  1  2  1  0  0  0  0
  1 33  1  0  0  0  0
  1 34  1  0  0  0  0
  2 16  1  0  0  0  0
  2 35  1  0  0  0  0
  2 36  1  0  0  0  0
  4  1  1  0  0  0  0
  4  3  1  0  0  0  0
  5  3  2  0  0  0  0
  5  6  1  0  0  0  0
  5 37  1  0  0  0  0
  6  7  2  0  0  0  0
  6 38  1  0  0  0  0
  7  8  1  0  0  0  0
  7 39  1  0  0  0  0
  8  4  2  0  0  0  0
  8 40  1  0  0  0  0
  9  3  1  0  0  0  0
  9 10  1  0  0  0  0
 10 12  1  0  0  0  0
 10 41  1  0  0  0  0
 10 42  1  0  0  0  0
 11 43  1  0  0  0  0
 12 11  1  0  0  0  0
 12 13  2  0  0  0  0
 14  9  1  0  0  0  0
 14 15  2  0  0  0  0
 16 14  1  0  0  0  0
 16 17  1  0  0  0  0
 16 32  1  1  0  0  0
 17 23  1  0  0  0  0
 17 44  1  0  0  0  0
 19 18  2  0  0  0  0
 19 20  1  0  0  0  0
 20 21  1  0  0  0  0
 21 22  1  0  0  0  0
 21 45  1  0  0  0  0
 21 46  1  0  0  0  0
 22 47  1  0  0  0  0
 22 48  1  0  0  0  0
 22 49  1  0  0  0  0
 23 19  1  0  0  0  0
 23 24  1  0  0  0  0
 23 50  1  6  0  0  0
 24 25  1  0  0  0  0
 24 51  1  0  0  0  0
 24 52  1  0  0  0  0
 25 26  1  0  0  0  0
 25 53  1  0  0  0  0
 25 54  1  0  0  0  0
 26 29  1  0  0  0  0
 27 28  1  0  0  0  0
 27 31  2  0  0  0  0
 27 55  1  0  0  0  0
 28 26  2  0  0  0  0
 28 56  1  0  0  0  0
 29 30  2  0  0  0  0
 29 57  1  0  0  0  0
 30 31  1  0  0  0  0
 30 58  1  0  0  0  0
 31 59  1  0  0  0  0
M  END
>  <DRUGBANK_ID>
DB00542

>  <SECONDARY_ACCESSION_NUMBERS>
APRD00063

>  <COMMON_NAME>
Benazepril

>  <CAS_NUMBER>
86541-75-5

>  <UNII>
UDM7Q7QWP8

>  <SYNONYMS>
Bénazépril; Benazepril; Benazeprilum

$$$$
