ETP
 OpenBabel10282417072D

 41 43  0  0  0  0  0  0  0  0999 V2000
    3.0953    1.8776    0.0000 B   0  0  0  0  0  0  0  0  0  0  0  0
    3.8098    2.2901    0.0000 O   0  0  0  0  0  0  0  0  0  0  0  0
    3.0953    1.0526    0.0000 O   0  0  0  0  0  0  0  0  0  0  0  0
    2.3809    2.2901    0.0000 C   0  0  0  0  0  0  0  0  0  0  0  0
    1.6664    1.8776    0.0000 C   0  0  0  0  0  0  0  0  0  0  0  0
    0.9519    2.2901    0.0000 C   0  0  0  0  0  0  0  0  0  0  0  0
    0.2374    1.8776    0.0000 N   0  0  0  0  0  0  0  0  0  0  0  0
    0.9519    3.1151    0.0000 C   0  0  0  0  0  0  0  0  0  0  0  0
    1.6664    3.5276    0.0000 C   0  0  0  0  0  0  0  0  0  0  0  0
    2.3809    3.1151    0.0000 C   0  0  0  0  0  0  0  0  0  0  0  0
    0.2374    1.0526    0.0000 S   0  0  0  0  0  0  0  0  0  0  0  0
   -0.5876    1.0526    0.0000 O   0  0  0  0  0  0  0  0  0  0  0  0
    1.0624    1.0526    0.0000 O   0  0  0  0  0  0  0  0  0  0  0  0
    0.9049   -0.2573    0.0000 S   0  0  0  0  0  0  0  0  0  0  0  0
    0.6499   -1.0420    0.0000 C   0  0  0  0  0  0  0  0  0  0  0  0
   -0.1751   -1.0420    0.0000 C   0  0  0  0  0  0  0  0  0  0  0  0
   -0.4300   -0.2573    0.0000 C   0  0  0  0  0  0  0  0  0  0  0  0
    0.2374    0.2276    0.0000 C   0  0  0  0  0  0  0  0  0  0  0  0
   -0.6600   -1.7094    0.0000 S   0  0  0  0  0  0  0  0  0  0  0  0
   -1.3274   -1.2245    0.0000 O   0  0  0  0  0  0  0  0  0  0  0  0
    0.0075   -2.1943    0.0000 O   0  0  0  0  0  0  0  0  0  0  0  0
   -1.1449   -2.3768    0.0000 C   0  0  0  0  0  0  0  0  0  0  0  0
   -0.8093   -3.1305    0.0000 C   0  0  0  0  0  0  0  0  0  0  0  0
   -1.2943   -3.7979    0.0000 C   0  0  0  0  0  0  0  0  0  0  0  0
   -2.1147   -3.7117    0.0000 C   0  0  0  0  0  0  0  0  0  0  0  0
   -2.4503   -2.9580    0.0000 C   0  0  0  0  0  0  0  0  0  0  0  0
   -1.9654   -2.2906    0.0000 C   0  0  0  0  0  0  0  0  0  0  0  0
    4.6498    1.8051    0.0000 H   0  0  0  0  0  0  0  0  0  0  0  0
    2.2553    0.5676    0.0000 H   0  0  0  0  0  0  0  0  0  0  0  0
    1.6664    0.8456    0.0000 H   0  0  0  0  0  0  0  0  0  0  0  0
   -0.6152    2.3699    0.0000 H   0  0  0  0  0  0  0  0  0  0  0  0
    0.0582    3.6311    0.0000 H   0  0  0  0  0  0  0  0  0  0  0  0
    1.6664    4.5596    0.0000 H   0  0  0  0  0  0  0  0  0  0  0  0
    3.2746    3.6311    0.0000 H   0  0  0  0  0  0  0  0  0  0  0  0
    1.2565   -1.8769    0.0000 H   0  0  0  0  0  0  0  0  0  0  0  0
   -1.4115    0.0616    0.0000 H   0  0  0  0  0  0  0  0  0  0  0  0
    0.2170   -3.2384    0.0000 H   0  0  0  0  0  0  0  0  0  0  0  0
   -0.8746   -4.7407    0.0000 H   0  0  0  0  0  0  0  0  0  0  0  0
   -2.7213   -4.5466    0.0000 H   0  0  0  0  0  0  0  0  0  0  0  0
   -3.4766   -2.8501    0.0000 H   0  0  0  0  0  0  0  0  0  0  0  0
   -2.3852   -1.3478    0.0000 H   0  0  0  0  0  0  0  0  0  0  0  0
  1  2  1  0  0  0  0
  1  3  1  0  0  0  0
  1  4  1  0  0  0  0
  2 28  1  0  0  0  0
  3 29  1  0  0  0  0
  4  5  2  0  0  0  0
  4 10  1  0  0  0  0
  5  6  1  0  0  0  0
  5 30  1  0  0  0  0
  6  7  1  0  0  0  0
  6  8  2  0  0  0  0
  7 11  1  0  0  0  0
  7 31  1  0  0  0  0
  8  9  1  0  0  0  0
  8 32  1  0  0  0  0
  9 10  2  0  0  0  0
  9 33  1  0  0  0  0
 10 34  1  0  0  0  0
 11 12  2  0  0  0  0
 11 13  2  0  0  0  0
 11 18  1  0  0  0  0
 14 15  1  0  0  0  0
 14 18  1  0  0  0  0
 15 16  2  0  0  0  0
 15 35  1  0  0  0  0
 16 17  1  0  0  0  0
 16 19  1  0  0  0  0
 17 18  2  0  0  0  0
 17 36  1  0  0  0  0
 19 20  2  0  0  0  0
 19 21  2  0  0  0  0
 19 22  1  0  0  0  0
 22 23  2  0  0  0  0
 22 27  1  0  0  0  0
 23 24  1  0  0  0  0
 23 37  1  0  0  0  0
 24 25  2  0  0  0  0
 24 38  1  0  0  0  0
 25 26  1  0  0  0  0
 25 39  1  0  0  0  0
 26 27  2  0  0  0  0
 26 40  1  0  0  0  0
 27 41  1  0  0  0  0
M  END
>  <DRUGBANK_ID>
DB02858

>  <SECONDARY_ACCESSION_NUMBERS>
EXPT01371

>  <COMMON_NAME>
3-(4-Benzenesulfonyl-Thiophene-2-Sulfonylamino)-Phenylboronic Acid

$$$$
