
 OpenBabel10282417072D

 39 42  0  0  0  0  0  0  0  0999 V2000
    1.4562    3.4434    0.0000 Br  0  0  0  0  0  0  0  0  0  0  0  0
   -2.8851   -1.5264    0.0000 F   0  0  0  0  0  0  0  0  0  0  0  0
    2.8851    0.9684    0.0000 F   0  0  0  0  0  0  0  0  0  0  0  0
    1.5542   -0.9507    0.0000 O   0  0  0  0  0  0  0  0  0  0  0  0
    1.4595   -2.3005    0.0000 O   0  0  0  0  0  0  0  0  0  0  0  0
   -0.8702   -3.4434    0.0000 O   0  0  0  0  0  0  0  0  0  0  0  0
    0.0272    0.9684    0.0000 O   0  0  0  0  0  0  0  0  0  0  0  0
    0.7417   -0.2690    0.0000 N   0  0  0  0  0  0  0  0  0  0  0  0
    0.4397   -2.7760    0.0000 N   0  0  0  0  0  0  0  0  0  0  0  0
    0.0272   -1.5065    0.0000 C   0  0  2  0  0  0  0  0  0  0  0  0
   -0.6402   -1.9914    0.0000 C   0  0  0  0  0  0  0  0  0  0  0  0
   -0.6872   -1.0940    0.0000 C   0  0  0  0  0  0  0  0  0  0  0  0
    0.7417   -1.0940    0.0000 C   0  0  0  0  0  0  0  0  0  0  0  0
    0.6946   -1.9914    0.0000 C   0  0  0  0  0  0  0  0  0  0  0  0
   -0.6872   -0.2690    0.0000 C   0  0  0  0  0  0  0  0  0  0  0  0
   -0.3852   -2.7760    0.0000 C   0  0  0  0  0  0  0  0  0  0  0  0
    0.0272    0.1434    0.0000 C   0  0  0  0  0  0  0  0  0  0  0  0
   -1.4246   -1.5350    0.0000 C   0  0  0  0  0  0  0  0  0  0  0  0
    1.4562    0.1434    0.0000 C   0  0  0  0  0  0  0  0  0  0  0  0
   -1.4246    0.1720    0.0000 C   0  0  0  0  0  0  0  0  0  0  0  0
   -2.1722   -1.1111    0.0000 C   0  0  0  0  0  0  0  0  0  0  0  0
    1.4562    0.9684    0.0000 C   0  0  0  0  0  0  0  0  0  0  0  0
   -2.1722   -0.2518    0.0000 C   0  0  0  0  0  0  0  0  0  0  0  0
    2.1706    1.3809    0.0000 C   0  0  0  0  0  0  0  0  0  0  0  0
    0.7417    1.3809    0.0000 C   0  0  0  0  0  0  0  0  0  0  0  0
    2.1706    2.2059    0.0000 C   0  0  0  0  0  0  0  0  0  0  0  0
    0.7417    2.2059    0.0000 C   0  0  0  0  0  0  0  0  0  0  0  0
    1.4562    2.6184    0.0000 C   0  0  0  0  0  0  0  0  0  0  0  0
    0.7404   -3.1898    0.0000 H   0  0  0  0  0  0  0  0  0  0  0  0
   -1.6578   -1.6608    0.0000 H   0  0  0  0  0  0  0  0  0  0  0  0
   -1.3968   -2.7480    0.0000 H   0  0  0  0  0  0  0  0  0  0  0  0
   -1.4126   -2.5669    0.0000 H   0  0  0  0  0  0  0  0  0  0  0  0
    2.3828   -0.3917    0.0000 H   0  0  0  0  0  0  0  0  0  0  0  0
    2.3829    0.6784    0.0000 H   0  0  0  0  0  0  0  0  0  0  0  0
   -1.4126    1.2039    0.0000 H   0  0  0  0  0  0  0  0  0  0  0  0
   -3.0639    0.2677    0.0000 H   0  0  0  0  0  0  0  0  0  0  0  0
   -0.1520    0.8649    0.0000 H   0  0  0  0  0  0  0  0  0  0  0  0
    3.0643    2.7219    0.0000 H   0  0  0  0  0  0  0  0  0  0  0  0
   -0.1520    2.7219    0.0000 H   0  0  0  0  0  0  0  0  0  0  0  0
  1 28  1  0  0  0  0
  2 21  1  0  0  0  0
  3 24  1  0  0  0  0
  4 13  2  0  0  0  0
  5 14  2  0  0  0  0
  6 16  2  0  0  0  0
  7 17  2  0  0  0  0
  8 13  1  0  0  0  0
  8 17  1  0  0  0  0
  8 19  1  0  0  0  0
  9 14  1  0  0  0  0
  9 16  1  0  0  0  0
  9 29  1  0  0  0  0
 10 11  1  0  0  0  0
 10 12  1  1  0  0  0
 10 13  1  0  0  0  0
 10 14  1  0  0  0  0
 11 16  1  0  0  0  0
 11 30  1  0  0  0  0
 11 31  1  0  0  0  0
 12 15  2  0  0  0  0
 12 18  1  0  0  0  0
 15 17  1  0  0  0  0
 15 20  1  0  0  0  0
 18 21  2  0  0  0  0
 18 32  1  0  0  0  0
 19 22  1  0  0  0  0
 19 33  1  0  0  0  0
 19 34  1  0  0  0  0
 20 23  2  0  0  0  0
 20 35  1  0  0  0  0
 21 23  1  0  0  0  0
 22 24  2  0  0  0  0
 22 25  1  0  0  0  0
 23 36  1  0  0  0  0
 24 26  1  0  0  0  0
 25 27  2  0  0  0  0
 25 37  1  0  0  0  0
 26 28  2  0  0  0  0
 26 38  1  0  0  0  0
 27 28  1  0  0  0  0
 27 39  1  0  0  0  0
M  END
>  <DRUGBANK_ID>
DB07450

>  <COMMON_NAME>
(R)-minalrestat

$$$$
