
 OpenBabel10282417072D

 39 40  0  0  0  0  0  0  0  0999 V2000
   -1.2519    0.6617    0.0000 C   0  0  0  0  0  0  0  0  0  0  0  0
   -0.4509    0.8321    0.0000 C   0  0  0  0  0  0  0  0  0  0  0  0
   -0.1960    1.6168    0.0000 C   0  0  0  0  0  0  0  0  0  0  0  0
   -0.7480    2.2299    0.0000 C   0  0  0  0  0  0  0  0  0  0  0  0
   -1.5490    2.0597    0.0000 C   0  0  0  0  0  0  0  0  0  0  0  0
   -1.8040    1.2749    0.0000 C   0  0  0  0  0  0  0  0  0  0  0  0
   -1.5079   -0.1258    0.0000 C   0  0  0  0  0  0  0  0  0  0  0  0
   -2.2896   -0.3798    0.0000 N   0  0  0  0  0  0  0  0  0  0  0  0
   -2.2896   -1.2019    0.0000 O   0  0  0  0  0  0  0  0  0  0  0  0
   -1.5079   -1.4559    0.0000 C   0  0  0  0  0  0  0  0  0  0  0  0
   -1.0246   -0.7909    0.0000 N   0  0  0  0  0  0  0  0  0  0  0  0
   -1.2563   -2.2299    0.0000 N   0  0  0  0  0  0  0  0  0  0  0  0
   -0.1854   -0.7830    0.0000 C   0  0  0  0  0  0  0  0  0  0  0  0
    0.2268   -0.0684    0.0000 C   0  0  0  0  0  0  0  0  0  0  0  0
    1.0519   -0.0681    0.0000 N   0  0  0  0  0  0  0  0  0  0  0  0
    1.4708   -0.7930    0.0000 C   0  0  0  0  0  0  0  0  0  0  0  0
    1.4583    0.6360    0.0000 C   0  0  0  0  0  0  0  0  0  0  0  0
    2.2895    0.6364    0.0000 C   0  0  0  0  0  0  0  0  0  0  0  0
    2.2896   -0.7925    0.0000 C   0  0  0  0  0  0  0  0  0  0  0  0
    0.2397    0.0653    0.0000 H   0  0  0  0  0  0  0  0  0  0  0  0
    0.8134    1.8314    0.0000 H   0  0  0  0  0  0  0  0  0  0  0  0
   -0.4290    3.2114    0.0000 H   0  0  0  0  0  0  0  0  0  0  0  0
   -2.2395    2.8267    0.0000 H   0  0  0  0  0  0  0  0  0  0  0  0
   -2.8135    1.0603    0.0000 H   0  0  0  0  0  0  0  0  0  0  0  0
   -1.9150   -2.9616    0.0000 H   0  0  0  0  0  0  0  0  0  0  0  0
    0.3541   -1.7070    0.0000 H   0  0  0  0  0  0  0  0  0  0  0  0
    0.8846   -0.7802    0.0000 H   0  0  0  0  0  0  0  0  0  0  0  0
   -0.3086    0.8580    0.0000 H   0  0  0  0  0  0  0  0  0  0  0  0
    0.7615    0.8584    0.0000 H   0  0  0  0  0  0  0  0  0  0  0  0
    0.9363   -1.7199    0.0000 H   0  0  0  0  0  0  0  0  0  0  0  0
    2.0063   -1.7193    0.0000 H   0  0  0  0  0  0  0  0  0  0  0  0
    0.9230    1.5625    0.0000 H   0  0  0  0  0  0  0  0  0  0  0  0
    1.9929    1.5629    0.0000 H   0  0  0  0  0  0  0  0  0  0  0  0
    2.8249   -0.2900    0.0000 H   0  0  0  0  0  0  0  0  0  0  0  0
    2.8241    1.5633    0.0000 H   0  0  0  0  0  0  0  0  0  0  0  0
    3.3595    0.6369    0.0000 H   0  0  0  0  0  0  0  0  0  0  0  0
    2.8252   -1.7188    0.0000 H   0  0  0  0  0  0  0  0  0  0  0  0
    2.8240    0.1345    0.0000 H   0  0  0  0  0  0  0  0  0  0  0  0
    3.3596   -0.7918    0.0000 H   0  0  0  0  0  0  0  0  0  0  0  0
  1  2  2  0  0  0  0
  1  6  1  0  0  0  0
  1  7  1  0  0  0  0
  2  3  1  0  0  0  0
  2 20  1  0  0  0  0
  3  4  2  0  0  0  0
  3 21  1  0  0  0  0
  4  5  1  0  0  0  0
  4 22  1  0  0  0  0
  5  6  2  0  0  0  0
  5 23  1  0  0  0  0
  6 24  1  0  0  0  0
  7  8  2  0  0  0  0
  7 11  1  0  0  0  0
  8  9  1  0  0  0  0
  9 10  1  0  0  0  0
 10 11  1  0  0  0  0
 10 12  2  0  0  0  0
 11 13  1  0  0  0  0
 12 25  1  0  0  0  0
 13 14  1  0  0  0  0
 13 26  1  0  0  0  0
 13 27  1  0  0  0  0
 14 15  1  0  0  0  0
 14 28  1  0  0  0  0
 14 29  1  0  0  0  0
 15 16  1  0  0  0  0
 15 17  1  0  0  0  0
 16 19  1  0  0  0  0
 16 30  1  0  0  0  0
 16 31  1  0  0  0  0
 17 18  1  0  0  0  0
 17 32  1  0  0  0  0
 17 33  1  0  0  0  0
 18 34  1  0  0  0  0
 18 35  1  0  0  0  0
 18 36  1  0  0  0  0
 19 37  1  0  0  0  0
 19 38  1  0  0  0  0
 19 39  1  0  0  0  0
M  END
>  <DRUGBANK_ID>
DB09284

>  <COMMON_NAME>
Imolamine

>  <CAS_NUMBER>
318-23-0

>  <UNII>
K5F4RU5VQJ

>  <SYNONYMS>
3-Phenyl-4-diethylaminoethyl-5-imino-1,2,4-oxadiazol; Imolamina; Imolamine; Imolaminum

$$$$
