
 OpenBabel10282417072D

 20 20  0  0  0  0  0  0  0  0999 V2000
    0.7145    0.8250    0.0000 O   0  0  0  0  0  0  0  0  0  0  0  0
    0.0000    0.4125    0.0000 C   0  0  0  0  0  0  0  0  0  0  0  0
   -0.7145   -0.8250    0.0000 C   0  0  0  0  0  0  0  0  0  0  0  0
   -1.4289    0.4125    0.0000 C   0  0  0  0  0  0  0  0  0  0  0  0
   -0.7145    0.8250    0.0000 C   0  0  0  0  0  0  0  0  0  0  0  0
    0.0000   -0.4125    0.0000 C   0  0  0  0  0  0  0  0  0  0  0  0
    0.7145   -0.8250    0.0000 C   0  0  0  0  0  0  0  0  0  0  0  0
   -1.4289   -0.4125    0.0000 C   0  0  0  0  0  0  0  0  0  0  0  0
    1.4289    0.4125    0.0000 O   0  0  0  0  0  0  0  0  0  0  0  0
    1.4289   -0.4125    0.0000 C   0  0  0  0  0  0  0  0  0  0  0  0
   -2.1434   -0.8250    0.0000 O   0  0  0  0  0  0  0  0  0  0  0  0
    2.1434   -0.8250    0.0000 O   0  0  0  0  0  0  0  0  0  0  0  0
    1.5260    0.3565    0.0000 H   0  0  0  0  0  0  0  0  0  0  0  0
   -0.7145   -1.8570    0.0000 H   0  0  0  0  0  0  0  0  0  0  0  0
   -2.3226    0.9285    0.0000 H   0  0  0  0  0  0  0  0  0  0  0  0
   -0.7145    1.8570    0.0000 H   0  0  0  0  0  0  0  0  0  0  0  0
    0.7145   -1.8950    0.0000 H   0  0  0  0  0  0  0  0  0  0  0  0
    1.6412   -1.3600    0.0000 H   0  0  0  0  0  0  0  0  0  0  0  0
   -2.9549   -0.3565    0.0000 H   0  0  0  0  0  0  0  0  0  0  0  0
    2.1434   -1.7620    0.0000 H   0  0  0  0  0  0  0  0  0  0  0  0
  1 13  1  0  0  0  0
  2  1  1  0  0  0  0
  3  6  2  0  0  0  0
  3  8  1  0  0  0  0
  3 14  1  0  0  0  0
  4  5  1  0  0  0  0
  4 15  1  0  0  0  0
  5  2  2  0  0  0  0
  5 16  1  0  0  0  0
  6  2  1  0  0  0  0
  7  6  1  0  0  0  0
  7 10  1  0  0  0  0
  7 17  1  0  0  0  0
  7 18  1  0  0  0  0
  8  4  2  0  0  0  0
  8 11  1  0  0  0  0
  9 10  2  0  0  0  0
 10 12  1  0  0  0  0
 11 19  1  0  0  0  0
 12 20  1  0  0  0  0
M  END
>  <DRUGBANK_ID>
DB08327

>  <COMMON_NAME>
Homogentisic acid

>  <CAS_NUMBER>
451-13-8

>  <UNII>
NP8UE6VF08

>  <SYNONYMS>
2,5-Dihydroxyphenylacetic acid; Homogentisate acid; Homogentisic acid; Homogentisinic acid

$$$$
