
 OpenBabel10282417072D

 46 49  0  0  0  0  0  0  0  0999 V2000
   -2.5803    0.8250    0.0000 C   0  0  0  0  0  0  0  0  0  0  0  0
   -3.2948    0.4125    0.0000 C   0  0  2  0  0  0  0  0  0  0  0  0
   -3.2948   -0.4125    0.0000 N   0  0  0  0  0  0  0  0  0  0  0  0
   -2.5803   -0.8250    0.0000 C   0  0  0  0  0  0  0  0  0  0  0  0
   -1.8659   -0.4125    0.0000 C   0  0  0  0  0  0  0  0  0  0  0  0
   -1.8659    0.4125    0.0000 N   0  0  0  0  0  0  0  0  0  0  0  0
   -1.1514    0.8250    0.0000 C   0  0  0  0  0  0  0  0  0  0  0  0
   -1.1514   -0.8250    0.0000 C   0  0  0  0  0  0  0  0  0  0  0  0
   -0.4369   -0.4125    0.0000 C   0  0  0  0  0  0  0  0  0  0  0  0
   -0.4369    0.4125    0.0000 C   0  0  0  0  0  0  0  0  0  0  0  0
   -4.0794   -0.6674    0.0000 C   0  0  2  0  0  0  0  0  0  0  0  0
   -4.5643    0.0000    0.0000 C   0  0  0  0  0  0  0  0  0  0  0  0
   -4.0794    0.6673    0.0000 O   0  0  0  0  0  0  0  0  0  0  0  0
   -4.3343   -1.4520    0.0000 C   0  0  0  0  0  0  0  0  0  0  0  0
   -2.5803   -1.6500    0.0000 O   0  0  0  0  0  0  0  0  0  0  0  0
   -1.1514   -1.6500    0.0000 O   0  0  0  0  0  0  0  0  0  0  0  0
   -3.2948    1.2374    0.0000 H   0  0  0  0  0  0  0  0  0  0  0  0
    0.2774    0.8250    0.0000 C   0  0  0  0  0  0  0  0  0  0  0  0
    0.2774    1.6500    0.0000 O   0  0  0  0  0  0  0  0  0  0  0  0
    0.9919    0.4125    0.0000 N   0  0  0  0  0  0  0  0  0  0  0  0
    1.7064    0.8250    0.0000 C   0  0  0  0  0  0  0  0  0  0  0  0
    2.4209    0.4125    0.0000 C   0  0  0  0  0  0  0  0  0  0  0  0
    3.1353    0.8250    0.0000 C   0  0  0  0  0  0  0  0  0  0  0  0
    2.4209   -0.4125    0.0000 C   0  0  0  0  0  0  0  0  0  0  0  0
    3.1353   -0.8250    0.0000 C   0  0  0  0  0  0  0  0  0  0  0  0
    3.8498   -0.4125    0.0000 C   0  0  0  0  0  0  0  0  0  0  0  0
    3.8498    0.4125    0.0000 C   0  0  0  0  0  0  0  0  0  0  0  0
    3.1353    1.6500    0.0000 F   0  0  0  0  0  0  0  0  0  0  0  0
    4.5643   -0.8250    0.0000 F   0  0  0  0  0  0  0  0  0  0  0  0
    0.2774   -0.8250    0.0000 O   0  0  0  0  0  0  0  0  0  0  0  0
   -2.5803    1.8950    0.0000 H   0  0  0  0  0  0  0  0  0  0  0  0
   -1.6536    1.3600    0.0000 H   0  0  0  0  0  0  0  0  0  0  0  0
   -1.1514    1.8570    0.0000 H   0  0  0  0  0  0  0  0  0  0  0  0
   -3.3228   -1.4240    0.0000 H   0  0  0  0  0  0  0  0  0  0  0  0
   -5.6343    0.0000    0.0000 H   0  0  0  0  0  0  0  0  0  0  0  0
   -5.0500    0.9534    0.0000 H   0  0  0  0  0  0  0  0  0  0  0  0
   -5.3809   -1.6745    0.0000 H   0  0  0  0  0  0  0  0  0  0  0  0
   -3.6183   -2.2471    0.0000 H   0  0  0  0  0  0  0  0  0  0  0  0
   -4.6649   -2.4696    0.0000 H   0  0  0  0  0  0  0  0  0  0  0  0
   -1.9629   -2.1185    0.0000 H   0  0  0  0  0  0  0  0  0  0  0  0
    0.9919   -0.5720    0.0000 H   0  0  0  0  0  0  0  0  0  0  0  0
    1.7064    1.8950    0.0000 H   0  0  0  0  0  0  0  0  0  0  0  0
    2.6330    1.3600    0.0000 H   0  0  0  0  0  0  0  0  0  0  0  0
    1.5272   -0.9285    0.0000 H   0  0  0  0  0  0  0  0  0  0  0  0
    3.1353   -1.8570    0.0000 H   0  0  0  0  0  0  0  0  0  0  0  0
    4.7435    0.9285    0.0000 H   0  0  0  0  0  0  0  0  0  0  0  0
  1  2  1  0  0  0  0
  1  6  1  0  0  0  0
  1 31  1  0  0  0  0
  1 32  1  0  0  0  0
  2 13  1  0  0  0  0
  2  3  1  0  0  0  0
  2 17  1  1  0  0  0
  3  4  1  0  0  0  0
  3 11  1  0  0  0  0
  4  5  1  0  0  0  0
  4 15  2  0  0  0  0
  5  8  2  0  0  0  0
  6  5  1  0  0  0  0
  7  6  1  0  0  0  0
  7 10  2  0  0  0  0
  7 33  1  0  0  0  0
  8  9  1  0  0  0  0
  8 16  1  0  0  0  0
  9 10  1  0  0  0  0
  9 30  2  0  0  0  0
 10 18  1  0  0  0  0
 11 12  1  0  0  0  0
 11 14  1  0  0  0  0
 11 34  1  6  0  0  0
 12 13  1  0  0  0  0
 12 35  1  0  0  0  0
 12 36  1  0  0  0  0
 14 37  1  0  0  0  0
 14 38  1  0  0  0  0
 14 39  1  0  0  0  0
 16 40  1  0  0  0  0
 18 19  2  0  0  0  0
 18 20  1  0  0  0  0
 20 21  1  0  0  0  0
 20 41  1  0  0  0  0
 21 22  1  0  0  0  0
 21 42  1  0  0  0  0
 21 43  1  0  0  0  0
 22 24  1  0  0  0  0
 23 22  2  0  0  0  0
 23 27  1  0  0  0  0
 23 28  1  0  0  0  0
 24 25  2  0  0  0  0
 24 44  1  0  0  0  0
 25 26  1  0  0  0  0
 25 45  1  0  0  0  0
 26 27  2  0  0  0  0
 26 29  1  0  0  0  0
 27 46  1  0  0  0  0
M  END
>  <DRUGBANK_ID>
DB11751

>  <COMMON_NAME>
Cabotegravir

>  <CAS_NUMBER>
1051375-10-0

>  <UNII>
HMH0132Z1Q

>  <SYNONYMS>
Cabotegravir

$$$$
