
 OpenBabel10282417072D

 33 36  0  0  0  0  0  0  0  0999 V2000
    0.8838   -2.1500    0.0000 C   0  0  0  0  0  0  0  0  0  0  0  0
    0.0768   -2.3215    0.0000 C   0  0  0  0  0  0  0  0  0  0  0  0
   -0.2587   -3.0752    0.0000 C   0  0  0  0  0  0  0  0  0  0  0  0
   -1.0792   -2.9890    0.0000 N   0  0  0  0  0  0  0  0  0  0  0  0
   -1.2508   -2.1820    0.0000 C   0  0  0  0  0  0  0  0  0  0  0  0
   -1.9652   -1.7695    0.0000 C   0  0  0  0  0  0  0  0  0  0  0  0
   -1.9652   -0.9445    0.0000 C   0  0  0  0  0  0  0  0  0  0  0  0
   -1.2508   -0.5320    0.0000 C   0  0  0  0  0  0  0  0  0  0  0  0
   -0.5363   -0.9445    0.0000 C   0  0  0  0  0  0  0  0  0  0  0  0
   -0.5363   -1.7695    0.0000 C   0  0  0  0  0  0  0  0  0  0  0  0
    1.1387   -1.3654    0.0000 C   0  0  0  0  0  0  0  0  0  0  0  0
    0.6538   -0.6979    0.0000 C   0  0  0  0  0  0  0  0  0  0  0  0
    1.1387   -0.0305    0.0000 N   0  0  0  0  0  0  0  0  0  0  0  0
    1.9233   -0.2854    0.0000 C   0  0  0  0  0  0  0  0  0  0  0  0
    2.6378    0.1271    0.0000 C   0  0  0  0  0  0  0  0  0  0  0  0
    3.3523   -0.2854    0.0000 C   0  0  0  0  0  0  0  0  0  0  0  0
    3.3523   -1.1104    0.0000 C   0  0  0  0  0  0  0  0  0  0  0  0
    2.6378   -1.5229    0.0000 C   0  0  0  0  0  0  0  0  0  0  0  0
    1.9233   -1.1104    0.0000 C   0  0  0  0  0  0  0  0  0  0  0  0
    1.5998   -2.9452    0.0000 H   0  0  0  0  0  0  0  0  0  0  0  0
    1.9304   -1.9275    0.0000 H   0  0  0  0  0  0  0  0  0  0  0  0
    0.2574   -3.9689    0.0000 H   0  0  0  0  0  0  0  0  0  0  0  0
   -1.7379   -3.7207    0.0000 H   0  0  0  0  0  0  0  0  0  0  0  0
   -2.8589   -2.2855    0.0000 H   0  0  0  0  0  0  0  0  0  0  0  0
   -2.8589   -0.4285    0.0000 H   0  0  0  0  0  0  0  0  0  0  0  0
   -1.2508    0.5000    0.0000 H   0  0  0  0  0  0  0  0  0  0  0  0
    0.3574   -0.4285    0.0000 H   0  0  0  0  0  0  0  0  0  0  0  0
   -0.3782   -0.6979    0.0000 H   0  0  0  0  0  0  0  0  0  0  0  0
    0.8345    0.9058    0.0000 H   0  0  0  0  0  0  0  0  0  0  0  0
    2.6378    1.1591    0.0000 H   0  0  0  0  0  0  0  0  0  0  0  0
    4.2460    0.2306    0.0000 H   0  0  0  0  0  0  0  0  0  0  0  0
    4.2460   -1.6264    0.0000 H   0  0  0  0  0  0  0  0  0  0  0  0
    2.6378   -2.5549    0.0000 H   0  0  0  0  0  0  0  0  0  0  0  0
  1  2  1  0  0  0  0
  1 11  1  0  0  0  0
  1 20  1  0  0  0  0
  1 21  1  0  0  0  0
  2  3  2  0  0  0  0
  2 10  1  0  0  0  0
  3  4  1  0  0  0  0
  3 22  1  0  0  0  0
  4  5  1  0  0  0  0
  4 23  1  0  0  0  0
  5  6  2  0  0  0  0
  5 10  1  0  0  0  0
  6  7  1  0  0  0  0
  6 24  1  0  0  0  0
  7  8  2  0  0  0  0
  7 25  1  0  0  0  0
  8  9  1  0  0  0  0
  8 26  1  0  0  0  0
  9 10  2  0  0  0  0
  9 27  1  0  0  0  0
 11 12  2  0  0  0  0
 11 19  1  0  0  0  0
 12 13  1  0  0  0  0
 12 28  1  0  0  0  0
 13 14  1  0  0  0  0
 13 29  1  0  0  0  0
 14 15  2  0  0  0  0
 14 19  1  0  0  0  0
 15 16  1  0  0  0  0
 15 30  1  0  0  0  0
 16 17  2  0  0  0  0
 16 31  1  0  0  0  0
 17 18  1  0  0  0  0
 17 32  1  0  0  0  0
 18 19  2  0  0  0  0
 18 33  1  0  0  0  0
M  END
>  <DRUGBANK_ID>
DB11875

>  <COMMON_NAME>
3,3'-diindolylmethane

>  <CAS_NUMBER>
1968-05-4

>  <UNII>
SSZ9HQT61Z

>  <SYNONYMS>
Diindolylmethane

$$$$
