3AC
 OpenBabel10282417072D

 37 38  0  0  0  0  0  0  0  0999 V2000
    1.2750    0.9639    0.0000 O   0  0  0  0  0  0  0  0  0  0  0  0
    1.2750    0.1389    0.0000 C   0  0  0  0  0  0  0  0  0  0  0  0
    1.9894   -0.2736    0.0000 C   0  0  0  0  0  0  0  0  0  0  0  0
    2.7039    0.1389    0.0000 I   0  0  0  0  0  0  0  0  0  0  0  0
    1.9894   -1.0986    0.0000 C   0  0  0  0  0  0  0  0  0  0  0  0
    2.7039   -1.5111    0.0000 O   0  0  0  0  0  0  0  0  0  0  0  0
    1.2750   -1.5111    0.0000 N   0  0  0  0  0  0  0  0  0  0  0  0
    0.5605   -1.0986    0.0000 C   0  0  0  0  0  0  0  0  0  0  0  0
   -0.1540   -1.5111    0.0000 C   0  0  0  0  0  0  0  0  0  0  0  0
    0.5605   -0.2736    0.0000 C   0  0  0  0  0  0  0  0  0  0  0  0
   -0.1540    0.1389    0.0000 C   0  0  0  0  0  0  0  0  0  0  0  0
   -0.8685   -0.2736    0.0000 C   0  0  0  0  0  0  0  0  0  0  0  0
    0.5605    1.3764    0.0000 C   0  0  0  0  0  0  0  0  0  0  0  0
   -0.1540    0.9639    0.0000 C   0  0  0  0  0  0  0  0  0  0  0  0
   -0.8685    1.3764    0.0000 C   0  0  0  0  0  0  0  0  0  0  0  0
   -0.8685    2.2014    0.0000 C   0  0  0  0  0  0  0  0  0  0  0  0
   -0.1540    2.6139    0.0000 C   0  0  0  0  0  0  0  0  0  0  0  0
    0.5605    2.2014    0.0000 C   0  0  0  0  0  0  0  0  0  0  0  0
   -0.1540    3.4389    0.0000 C   0  0  0  0  0  0  0  0  0  0  0  0
    0.5605    3.8514    0.0000 C   0  0  0  0  0  0  0  0  0  0  0  0
    0.5605    5.5014    0.0000 N   0  0  0  0  0  0  0  0  0  0  0  0
    0.5605    4.6764    0.0000 C   0  0  0  0  0  0  0  0  0  0  0  0
    1.2750   -2.4956    0.0000 H   0  0  0  0  0  0  0  0  0  0  0  0
   -1.0806   -0.9761    0.0000 H   0  0  0  0  0  0  0  0  0  0  0  0
   -0.1540   -2.5811    0.0000 H   0  0  0  0  0  0  0  0  0  0  0  0
   -1.0807   -2.0461    0.0000 H   0  0  0  0  0  0  0  0  0  0  0  0
   -0.1540    1.2089    0.0000 H   0  0  0  0  0  0  0  0  0  0  0  0
   -1.0806    0.6739    0.0000 H   0  0  0  0  0  0  0  0  0  0  0  0
   -1.7951    0.2614    0.0000 H   0  0  0  0  0  0  0  0  0  0  0  0
   -0.8685   -1.3436    0.0000 H   0  0  0  0  0  0  0  0  0  0  0  0
   -1.7952   -0.8086    0.0000 H   0  0  0  0  0  0  0  0  0  0  0  0
   -0.1540   -0.0681    0.0000 H   0  0  0  0  0  0  0  0  0  0  0  0
   -1.7622    0.8604    0.0000 H   0  0  0  0  0  0  0  0  0  0  0  0
   -1.7622    2.7174    0.0000 H   0  0  0  0  0  0  0  0  0  0  0  0
    1.4542    2.7174    0.0000 H   0  0  0  0  0  0  0  0  0  0  0  0
   -1.0477    3.9549    0.0000 H   0  0  0  0  0  0  0  0  0  0  0  0
    1.4542    3.3354    0.0000 H   0  0  0  0  0  0  0  0  0  0  0  0
  1  2  1  0  0  0  0
  1 13  1  0  0  0  0
  2  3  2  0  0  0  0
  2 10  1  0  0  0  0
  3  4  1  0  0  0  0
  3  5  1  0  0  0  0
  5  6  2  0  0  0  0
  5  7  1  0  0  0  0
  7  8  1  0  0  0  0
  7 23  1  0  0  0  0
  8  9  1  0  0  0  0
  8 10  2  0  0  0  0
  9 24  1  0  0  0  0
  9 25  1  0  0  0  0
  9 26  1  0  0  0  0
 10 11  1  0  0  0  0
 11 12  1  0  0  0  0
 11 27  1  0  0  0  0
 11 28  1  0  0  0  0
 12 29  1  0  0  0  0
 12 30  1  0  0  0  0
 12 31  1  0  0  0  0
 13 14  2  0  0  0  0
 13 18  1  0  0  0  0
 14 15  1  0  0  0  0
 14 32  1  0  0  0  0
 15 16  2  0  0  0  0
 15 33  1  0  0  0  0
 16 17  1  0  0  0  0
 16 34  1  0  0  0  0
 17 18  2  0  0  0  0
 17 19  1  0  0  0  0
 18 35  1  0  0  0  0
 19 20  2  0  0  0  0
 19 36  1  0  0  0  0
 20 22  1  0  0  0  0
 20 37  1  0  0  0  0
 21 22  3  0  0  0  0
M  END
>  <DRUGBANK_ID>
DB07035

>  <COMMON_NAME>
(2E)-3-{3-[(5-ETHYL-3-IODO-6-METHYL-2-OXO-1,2-DIHYDROPYRIDIN-4-YL)OXY]PHENYL}ACRYLONITRILE

$$$$
