
 OpenBabel10282417072D

253263  0  0  1  0  0  0  0  0999 V2000
   -5.7473   -3.9196    0.0000 C   0  0  0  0  0  0  0  0  0  0  0  0
   -4.9117   -3.4387    0.0000 C   0  0  0  0  0  0  0  0  0  0  0  0
   -4.9117   -2.4769    0.0000 O   0  0  0  0  0  0  0  0  0  0  0  0
   -4.0823   -3.9196    0.0000 C   0  0  0  0  0  0  0  0  0  0  0  0
   -3.2677   -3.4387    0.0000 C   0  0  0  0  0  0  0  0  0  0  0  0
   -2.4230   -3.9196    0.0000 C   0  0  1  0  0  0  0  0  0  0  0  0
   -2.4230   -4.8753    0.0000 C   0  0  0  0  0  0  0  0  0  0  0  0
   -3.2677   -5.3502    0.0000 C   0  0  2  0  0  0  0  0  0  0  0  0
   -3.2677   -6.7479    0.0000 O   0  0  0  0  0  0  0  0  0  0  0  0
   -4.0792   -7.2288    0.0000 C   0  0  1  0  0  0  0  0  0  0  0  0
   -3.2495   -7.7066    0.0000 H   0  0  0  0  0  0  0  0  0  0  0  0
   -4.0792   -8.1725    0.0000 C   0  0  0  0  0  0  0  0  0  0  0  0
   -4.8818   -8.6955    0.0000 C   0  0  2  0  0  0  0  0  0  0  0  0
   -4.8818   -9.5942    0.0000 N   0  0  0  0  0  0  0  0  0  0  0  0
   -5.7354   -8.2205    0.0000 C   0  0  2  0  0  0  0  0  0  0  0  0
   -6.4838   -8.7136    0.0000 O   0  0  0  0  0  0  0  0  0  0  0  0
   -5.7354   -7.2677    0.0000 C   0  0  2  0  0  0  0  0  0  0  0  0
   -6.4387   -6.9343    0.0000 C   0  0  0  0  0  0  0  0  0  0  0  0
   -4.9179   -6.7690    0.0000 O   0  0  0  0  0  0  0  0  0  0  0  0
   -4.0823   -4.8753    0.0000 C   0  0  0  0  0  0  0  0  0  0  0  0
   -4.9117   -5.3502    0.0000 C   0  0  0  0  0  0  0  0  0  0  0  0
   -4.7468   -6.2856    0.0000 O   0  0  0  0  0  0  0  0  0  0  0  0
   -5.7473   -4.8753    0.0000 C   0  0  0  0  0  0  0  0  0  0  0  0
   -6.5800   -5.3593    0.0000 C   0  0  0  0  0  0  0  0  0  0  0  0
   -7.4095   -4.8664    0.0000 C   0  0  0  0  0  0  0  0  0  0  0  0
   -8.2541   -5.3412    0.0000 C   0  0  0  0  0  0  0  0  0  0  0  0
   -8.2541   -6.3090    0.0000 O   0  0  0  0  0  0  0  0  0  0  0  0
   -9.0746   -6.7870    0.0000 C   0  0  0  0  0  0  0  0  0  0  0  0
   -9.0746   -4.8753    0.0000 C   0  0  0  0  0  0  0  0  0  0  0  0
   -9.0746   -3.9196    0.0000 C   0  0  0  0  0  0  0  0  0  0  0  0
   -8.2541   -3.4387    0.0000 C   0  0  0  0  0  0  0  0  0  0  0  0
   -7.4095   -3.9015    0.0000 C   0  0  0  0  0  0  0  0  0  0  0  0
   -6.5888   -3.4477    0.0000 C   0  0  0  0  0  0  0  0  0  0  0  0
   -6.5888   -2.4769    0.0000 O   0  0  0  0  0  0  0  0  0  0  0  0
   -6.5800   -6.3090    0.0000 O   0  0  0  0  0  0  0  0  0  0  0  0
   -1.4012   -4.3884    0.0000 O   0  0  0  0  0  0  0  0  0  0  0  0
   -1.9361   -2.9246    0.0000 C   0  0  0  0  0  0  0  0  0  0  0  0
   -0.9953   -2.9246    0.0000 C   0  0  0  0  0  0  0  0  0  0  0  0
   -0.5110   -2.0859    0.0000 O   0  0  0  0  0  0  0  0  0  0  0  0
    0.4574   -2.0859    0.0000 C   0  0  0  0  0  0  0  0  0  0  0  0
    0.9416   -1.2471    0.0000 C   0  0  0  0  0  0  0  0  0  0  0  0
    0.4574   -0.4085    0.0000 C   0  0  0  0  0  0  0  0  0  0  0  0
    0.9416    0.4301    0.0000 C   0  0  0  0  0  0  0  0  0  0  0  0
    0.4574    1.2690    0.0000 C   0  0  0  0  0  0  0  0  0  0  0  0
    0.9416    2.1077    0.0000 N   0  0  0  0  0  0  0  0  0  0  0  0
   -0.5110    1.2690    0.0000 O   0  0  0  0  0  0  0  0  0  0  0  0
    0.9416   -2.9246    0.0000 O   0  0  0  0  0  0  0  0  0  0  0  0
   -2.6365   -2.2244    0.0000 O   0  0  0  0  0  0  0  0  0  0  0  0
    0.4574    2.9464    0.0000 C   0  0  0  0  0  0  0  0  0  0  0  0
    0.4575    4.6239    0.0000 C   0  0  0  0  0  0  0  0  0  0  0  0
    0.9620    5.4626    0.0000 C   0  0  0  0  0  0  0  0  0  0  0  0
    0.9620    6.4455    0.0000 C   0  0  1  0  0  0  0  0  0  0  0  0
    0.2955    6.8178    0.0000 N   0  0  0  0  0  0  0  0  0  0  0  0
   -2.9856    9.0522    0.0000 H   0  0  0  0  0  0  0  0  0  0  0  0
   -2.0658    9.0797    0.0000 H   0  0  0  0  0  0  0  0  0  0  0  0
    0.6646    9.5942    0.0000 H   0  0  0  0  0  0  0  0  0  0  0  0
   -7.2719    8.6708    0.0000 N   0  0  0  0  0  0  0  0  0  0  0  0
   -7.2993    5.9314    0.0000 O   0  0  0  0  0  0  0  0  0  0  0  0
   -7.2993    6.6065    0.0000 C   0  0  0  0  0  0  0  0  0  0  0  0
   -8.3881    6.5964    0.0000 N   0  0  0  0  0  0  0  0  0  0  0  0
   -7.8577    6.9841    0.0000 C   0  0  1  0  0  0  0  0  0  0  0  0
   -7.8577    7.6609    0.0000 C   0  0  0  0  0  0  0  0  0  0  0  0
   -7.2719    7.9984    0.0000 C   0  0  0  0  0  0  0  0  0  0  0  0
   -6.6346    7.7842    0.0000 C   0  0  0  0  0  0  0  0  0  0  0  0
   -6.6235    8.8721    0.0000 C   0  0  0  0  0  0  0  0  0  0  0  0
   -6.2340    8.3240    0.0000 N   0  0  0  0  0  0  0  0  0  0  0  0
   -5.6608    6.6006    0.0000 N   0  0  0  0  0  0  0  0  0  0  0  0
   -5.1980    6.9390    0.0000 C   0  0  2  0  0  0  0  0  0  0  0  0
   -4.7106    6.0202    0.0000 O   0  0  0  0  0  0  0  0  0  0  0  0
   -4.7106    6.6095    0.0000 C   0  0  0  0  0  0  0  0  0  0  0  0
   -5.1980    7.5298    0.0000 C   0  0  0  0  0  0  0  0  0  0  0  0
   -4.1213    7.6920    0.0000 C   0  0  0  0  0  0  0  0  0  0  0  0
   -4.6899    7.8254    0.0000 C   0  0  0  0  0  0  0  0  0  0  0  0
   -3.8182    8.1964    0.0000 N   0  0  0  0  0  0  0  0  0  0  0  0
   -4.7432    8.4093    0.0000 C   0  0  0  0  0  0  0  0  0  0  0  0
   -4.2037    8.6389    0.0000 C   0  0  0  0  0  0  0  0  0  0  0  0
   -4.1339    9.2209    0.0000 C   0  0  0  0  0  0  0  0  0  0  0  0
   -4.6059    9.5719    0.0000 C   0  0  0  0  0  0  0  0  0  0  0  0
   -5.1454    9.3421    0.0000 C   0  0  0  0  0  0  0  0  0  0  0  0
   -5.2102    8.7628    0.0000 C   0  0  0  0  0  0  0  0  0  0  0  0
   -3.2452    6.5999    0.0000 N   0  0  0  0  0  0  0  0  0  0  0  0
   -2.6988    6.9993    0.0000 C   0  0  2  0  0  0  0  0  0  0  0  0
   -2.1233    5.9148    0.0000 O   0  0  0  0  0  0  0  0  0  0  0  0
   -2.1233    6.6103    0.0000 C   0  0  0  0  0  0  0  0  0  0  0  0
   -2.6988    7.6967    0.0000 C   0  0  0  0  0  0  0  0  0  0  0  0
   -2.0984    8.0430    0.0000 O   0  0  0  0  0  0  0  0  0  0  0  0
   -1.5252    6.6011    0.0000 N   0  0  0  0  0  0  0  0  0  0  0  0
   -1.1115    6.9036    0.0000 C   0  0  2  0  0  0  0  0  0  0  0  0
   -0.6759    6.0824    0.0000 O   0  0  0  0  0  0  0  0  0  0  0  0
   -0.6759    6.6091    0.0000 C   0  0  0  0  0  0  0  0  0  0  0  0
   -1.1115    7.4319    0.0000 C   0  0  0  0  0  0  0  0  0  0  0  0
   -0.6574    8.2204    0.0000 C   0  0  0  0  0  0  0  0  0  0  0  0
   -0.6574    7.6958    0.0000 C   0  0  0  0  0  0  0  0  0  0  0  0
   -0.2031    7.4336    0.0000 C   0  0  0  0  0  0  0  0  0  0  0  0
    0.2511    7.6958    0.0000 C   0  0  0  0  0  0  0  0  0  0  0  0
    0.2511    8.2204    0.0000 C   0  0  0  0  0  0  0  0  0  0  0  0
   -0.2031    8.4829    0.0000 C   0  0  0  0  0  0  0  0  0  0  0  0
    0.7054    8.4829    0.0000 O   0  0  0  0  0  0  0  0  0  0  0  0
   12.1693    6.6528    0.0000 N   0  0  0  0  0  0  0  0  0  0  0  0
    2.6691    6.6323    0.0000 N   0  0  0  0  0  0  0  0  0  0  0  0
    3.2182    7.0336    0.0000 C   0  0  2  0  0  0  0  0  0  0  0  0
    3.7962    5.9437    0.0000 O   0  0  0  0  0  0  0  0  0  0  0  0
    3.7962    6.6428    0.0000 C   0  0  0  0  0  0  0  0  0  0  0  0
    3.2182    7.7344    0.0000 C   0  0  0  0  0  0  0  0  0  0  0  0
    3.8215    8.0824    0.0000 C   0  0  0  0  0  0  0  0  0  0  0  0
    3.8215    8.7785    0.0000 C   0  0  0  0  0  0  0  0  0  0  0  0
    4.4242    7.7340    0.0000 C   0  0  0  0  0  0  0  0  0  0  0  0
    4.9972    6.6370    0.0000 N   0  0  0  0  0  0  0  0  0  0  0  0
    6.6876    8.6737    0.0000 C   0  0  0  0  0  0  0  0  0  0  0  0
    6.6876    9.1726    0.0000 N   0  0  0  0  0  0  0  0  0  0  0  0
    7.1195    8.4240    0.0000 N   0  0  0  0  0  0  0  0  0  0  0  0
    6.2527    8.4079    0.0000 N   0  0  0  0  0  0  0  0  0  0  0  0
    5.3907    6.9247    0.0000 C   0  0  1  0  0  0  0  0  0  0  0  0
    5.8050    6.1436    0.0000 O   0  0  0  0  0  0  0  0  0  0  0  0
    5.3907    7.4269    0.0000 C   0  0  0  0  0  0  0  0  0  0  0  0
    5.8230    7.6763    0.0000 C   0  0  0  0  0  0  0  0  0  0  0  0
    5.8230    8.1751    0.0000 C   0  0  0  0  0  0  0  0  0  0  0  0
    9.3187    6.6470    0.0000 C   0  0  0  0  0  0  0  0  0  0  0  0
    8.7527    7.0270    0.0000 C   0  0  2  0  0  0  0  0  0  0  0  0
    8.7527    7.7147    0.0000 C   0  0  0  0  0  0  0  0  0  0  0  0
    8.0214    7.8218    0.0000 C   0  0  0  0  0  0  0  0  0  0  0  0
    7.6925    7.1590    0.0000 C   0  0  0  0  0  0  0  0  0  0  0  0
    8.2193    6.6346    0.0000 N   0  0  0  0  0  0  0  0  0  0  0  0
    9.3187    5.9645    0.0000 O   0  0  0  0  0  0  0  0  0  0  0  0
    9.8917    6.6346    0.0000 N   0  0  0  0  0  0  0  0  0  0  0  0
   10.5398    7.1082    0.0000 C   0  0  0  0  0  0  0  0  0  0  0  0
   11.2253    5.8220    0.0000 O   0  0  0  0  0  0  0  0  0  0  0  0
   11.2222    6.6470    0.0000 C   0  0  0  0  0  0  0  0  0  0  0  0
    5.8050    6.6446    0.0000 C   0  0  0  0  0  0  0  0  0  0  0  0
    0.9416    3.7851    0.0000 C   0  0  0  0  0  0  0  0  0  0  0  0
    1.7013    6.8898    0.0000 C   0  0  0  0  0  0  0  0  0  0  0  0
    1.7013    7.5747    0.0000 O   0  0  0  0  0  0  0  0  0  0  0  0
  -11.1298    7.8157    0.0000 C   0  0  0  0  0  0  0  0  0  0  0  0
  -10.3046    7.8157    0.0000 C   0  0  0  0  0  0  0  0  0  0  0  0
  -10.0496    7.0310    0.0000 C   0  0  2  0  0  0  0  0  0  0  0  0
  -10.7170    6.5461    0.0000 N   0  0  0  0  0  0  0  0  0  0  0  0
  -11.3846    7.0310    0.0000 C   0  0  0  0  0  0  0  0  0  0  0  0
   -9.2013    7.2216    0.0000 C   0  0  0  0  0  0  0  0  0  0  0  0
   -8.8388    8.0060    0.0000 O   0  0  0  0  0  0  0  0  0  0  0  0
  -12.1693    6.7762    0.0000 O   0  0  0  0  0  0  0  0  0  0  0  0
   -4.1002   -2.0084    0.0000 H   0  0  0  0  0  0  0  0  0  0  0  0
   -3.2761   -2.3687    0.0000 H   0  0  0  0  0  0  0  0  0  0  0  0
   -2.3448   -2.8973    0.0000 H   0  0  0  0  0  0  0  0  0  0  0  0
   -1.4994   -5.4156    0.0000 H   0  0  0  0  0  0  0  0  0  0  0  0
   -2.4322   -5.9453    0.0000 H   0  0  0  0  0  0  0  0  0  0  0  0
   -2.3441   -5.8905    0.0000 H   0  0  0  0  0  0  0  0  0  0  0  0
   -3.1385   -8.6823    0.0000 H   0  0  0  0  0  0  0  0  0  0  0  0
   -4.0359   -9.2416    0.0000 H   0  0  0  0  0  0  0  0  0  0  0  0
   -3.9411   -9.2053    0.0000 H   0  0  0  0  0  0  0  0  0  0  0  0
   -5.7651  -10.1042    0.0000 H   0  0  0  0  0  0  0  0  0  0  0  0
   -3.9985  -10.1042    0.0000 H   0  0  0  0  0  0  0  0  0  0  0  0
   -5.6954   -9.2898    0.0000 H   0  0  0  0  0  0  0  0  0  0  0  0
   -7.3510   -8.2790    0.0000 H   0  0  0  0  0  0  0  0  0  0  0  0
   -6.6396   -7.8397    0.0000 H   0  0  0  0  0  0  0  0  0  0  0  0
   -6.5252   -5.8678    0.0000 H   0  0  0  0  0  0  0  0  0  0  0  0
   -7.3191   -7.5425    0.0000 H   0  0  0  0  0  0  0  0  0  0  0  0
   -7.4056   -6.4760    0.0000 H   0  0  0  0  0  0  0  0  0  0  0  0
   -5.4646   -6.8879    0.0000 H   0  0  0  0  0  0  0  0  0  0  0  0
  -10.0033   -6.2556    0.0000 H   0  0  0  0  0  0  0  0  0  0  0  0
   -9.0704   -7.8570    0.0000 H   0  0  0  0  0  0  0  0  0  0  0  0
   -9.9991   -7.3256    0.0000 H   0  0  0  0  0  0  0  0  0  0  0  0
   -9.9665   -5.3945    0.0000 H   0  0  0  0  0  0  0  0  0  0  0  0
   -9.9700   -3.4065    0.0000 H   0  0  0  0  0  0  0  0  0  0  0  0
   -8.2690   -2.4068    0.0000 H   0  0  0  0  0  0  0  0  0  0  0  0
   -1.3107   -5.3542    0.0000 H   0  0  0  0  0  0  0  0  0  0  0  0
   -0.4603   -3.8513    0.0000 H   0  0  0  0  0  0  0  0  0  0  0  0
    0.0747   -2.9247    0.0000 H   0  0  0  0  0  0  0  0  0  0  0  0
    2.0116   -1.2470    0.0000 H   0  0  0  0  0  0  0  0  0  0  0  0
    1.4766   -0.3204    0.0000 H   0  0  0  0  0  0  0  0  0  0  0  0
   -0.6126   -0.4085    0.0000 H   0  0  0  0  0  0  0  0  0  0  0  0
   -0.0776    0.5182    0.0000 H   0  0  0  0  0  0  0  0  0  0  0  0
    2.0116    0.4300    0.0000 H   0  0  0  0  0  0  0  0  0  0  0  0
    1.4767    1.3567    0.0000 H   0  0  0  0  0  0  0  0  0  0  0  0
    1.9261    2.1077    0.0000 H   0  0  0  0  0  0  0  0  0  0  0  0
   -0.6126    2.9464    0.0000 H   0  0  0  0  0  0  0  0  0  0  0  0
   -0.0776    3.8730    0.0000 H   0  0  0  0  0  0  0  0  0  0  0  0
   -0.6125    4.6336    0.0000 H   0  0  0  0  0  0  0  0  0  0  0  0
   -0.0649    5.5577    0.0000 H   0  0  0  0  0  0  0  0  0  0  0  0
    1.9930    5.1764    0.0000 H   0  0  0  0  0  0  0  0  0  0  0  0
    1.8138    6.1102    0.0000 H   0  0  0  0  0  0  0  0  0  0  0  0
    0.0392    5.9039    0.0000 H   0  0  0  0  0  0  0  0  0  0  0  0
    0.4415    7.7914    0.0000 H   0  0  0  0  0  0  0  0  0  0  0  0
   -8.0646    9.2547    0.0000 H   0  0  0  0  0  0  0  0  0  0  0  0
   -8.4000    5.6120    0.0000 H   0  0  0  0  0  0  0  0  0  0  0  0
   -6.9127    7.4859    0.0000 H   0  0  0  0  0  0  0  0  0  0  0  0
   -8.7841    8.1963    0.0000 H   0  0  0  0  0  0  0  0  0  0  0  0
   -7.8570    8.7309    0.0000 H   0  0  0  0  0  0  0  0  0  0  0  0
   -6.3256    6.7995    0.0000 H   0  0  0  0  0  0  0  0  0  0  0  0
   -6.2930    9.8498    0.0000 H   0  0  0  0  0  0  0  0  0  0  0  0
   -5.3568    5.6642    0.0000 H   0  0  0  0  0  0  0  0  0  0  0  0
   -6.1521    7.4233    0.0000 H   0  0  0  0  0  0  0  0  0  0  0  0
   -6.1255    8.0633    0.0000 H   0  0  0  0  0  0  0  0  0  0  0  0
   -5.2007    8.5998    0.0000 H   0  0  0  0  0  0  0  0  0  0  0  0
   -3.7198    6.7413    0.0000 H   0  0  0  0  0  0  0  0  0  0  0  0
   -3.1858    9.6285    0.0000 H   0  0  0  0  0  0  0  0  0  0  0  0
   -4.4840   10.5967    0.0000 H   0  0  0  0  0  0  0  0  0  0  0  0
   -5.9733    9.9582    0.0000 H   0  0  0  0  0  0  0  0  0  0  0  0
   -6.1584    8.3555    0.0000 H   0  0  0  0  0  0  0  0  0  0  0  0
   -2.9427    5.6630    0.0000 H   0  0  0  0  0  0  0  0  0  0  0  0
   -3.6529    7.4837    0.0000 H   0  0  0  0  0  0  0  0  0  0  0  0
   -3.6253    8.2319    0.0000 H   0  0  0  0  0  0  0  0  0  0  0  0
   -2.6985    8.7667    0.0000 H   0  0  0  0  0  0  0  0  0  0  0  0
   -1.2268    5.6629    0.0000 H   0  0  0  0  0  0  0  0  0  0  0  0
   -2.0656    7.3879    0.0000 H   0  0  0  0  0  0  0  0  0  0  0  0
   -2.0389    7.9656    0.0000 H   0  0  0  0  0  0  0  0  0  0  0  0
   -1.1138    8.5019    0.0000 H   0  0  0  0  0  0  0  0  0  0  0  0
   -1.5512    8.7362    0.0000 H   0  0  0  0  0  0  0  0  0  0  0  0
   -0.2031    6.4016    0.0000 H   0  0  0  0  0  0  0  0  0  0  0  0
    1.1448    7.1798    0.0000 H   0  0  0  0  0  0  0  0  0  0  0  0
   -0.2031    9.5149    0.0000 H   0  0  0  0  0  0  0  0  0  0  0  0
   12.6668    5.8032    0.0000 H   0  0  0  0  0  0  0  0  0  0  0  0
   12.6563    7.5084    0.0000 H   0  0  0  0  0  0  0  0  0  0  0  0
    2.8507    5.6647    0.0000 H   0  0  0  0  0  0  0  0  0  0  0  0
    2.2641    7.5180    0.0000 H   0  0  0  0  0  0  0  0  0  0  0  0
    2.2917    8.2696    0.0000 H   0  0  0  0  0  0  0  0  0  0  0  0
    3.2185    8.8044    0.0000 H   0  0  0  0  0  0  0  0  0  0  0  0
    4.7483    8.6172    0.0000 H   0  0  0  0  0  0  0  0  0  0  0  0
    4.7481    9.3135    0.0000 H   0  0  0  0  0  0  0  0  0  0  0  0
    2.8949    9.3135    0.0000 H   0  0  0  0  0  0  0  0  0  0  0  0
    3.8215    9.8485    0.0000 H   0  0  0  0  0  0  0  0  0  0  0  0
    4.4236    6.6640    0.0000 H   0  0  0  0  0  0  0  0  0  0  0  0
    5.3511    8.2685    0.0000 H   0  0  0  0  0  0  0  0  0  0  0  0
    5.3506    7.1985    0.0000 H   0  0  0  0  0  0  0  0  0  0  0  0
    5.3006    5.7004    0.0000 H   0  0  0  0  0  0  0  0  0  0  0  0
    7.5402    9.6648    0.0000 H   0  0  0  0  0  0  0  0  0  0  0  0
    5.8350    9.6648    0.0000 H   0  0  0  0  0  0  0  0  0  0  0  0
    7.1189    7.4395    0.0000 H   0  0  0  0  0  0  0  0  0  0  0  0
    6.7441    7.5548    0.0000 H   0  0  0  0  0  0  0  0  0  0  0  0
    4.4366    7.4090    0.0000 H   0  0  0  0  0  0  0  0  0  0  0  0
    4.4641    7.9621    0.0000 H   0  0  0  0  0  0  0  0  0  0  0  0
    5.3910    8.4969    0.0000 H   0  0  0  0  0  0  0  0  0  0  0  0
    6.7496    7.1411    0.0000 H   0  0  0  0  0  0  0  0  0  0  0  0
    6.7497    8.2112    0.0000 H   0  0  0  0  0  0  0  0  0  0  0  0
    4.9037    8.7226    0.0000 H   0  0  0  0  0  0  0  0  0  0  0  0
    4.8928    7.6464    0.0000 H   0  0  0  0  0  0  0  0  0  0  0  0
    9.6969    7.5304    0.0000 H   0  0  0  0  0  0  0  0  0  0  0  0
    9.5623    8.4143    0.0000 H   0  0  0  0  0  0  0  0  0  0  0  0
    8.4533    8.7419    0.0000 H   0  0  0  0  0  0  0  0  0  0  0  0
    7.5250    8.7697    0.0000 H   0  0  0  0  0  0  0  0  0  0  0  0
    6.9515    7.8102    0.0000 H   0  0  0  0  0  0  0  0  0  0  0  0
    6.6368    6.9848    0.0000 H   0  0  0  0  0  0  0  0  0  0  0  0
    7.3663    6.1399    0.0000 H   0  0  0  0  0  0  0  0  0  0  0  0
   10.1871    5.6955    0.0000 H   0  0  0  0  0  0  0  0  0  0  0  0
   10.5201    8.1780    0.0000 H   0  0  0  0  0  0  0  0  0  0  0  0
   11.4801    7.6188    0.0000 H   0  0  0  0  0  0  0  0  0  0  0  0
    2.0116    3.7850    0.0000 H   0  0  0  0  0  0  0  0  0  0  0  0
    1.4767    4.7117    0.0000 H   0  0  0  0  0  0  0  0  0  0  0  0
  -11.7588    8.6813    0.0000 H   0  0  0  0  0  0  0  0  0  0  0  0
  -12.1866    7.6482    0.0000 H   0  0  0  0  0  0  0  0  0  0  0  0
   -9.6757    8.6814    0.0000 H   0  0  0  0  0  0  0  0  0  0  0  0
   -9.2478    7.6483    0.0000 H   0  0  0  0  0  0  0  0  0  0  0  0
   -9.5200    7.9607    0.0000 H   0  0  0  0  0  0  0  0  0  0  0  0
  -10.7169    5.5616    0.0000 H   0  0  0  0  0  0  0  0  0  0  0  0
  2  1  1  0  0  0  0
  3  2  1  0  0  0  0
  3141  1  0  0  0  0
  4  2  2  0  0  0  0
  5  4  1  0  0  0  0
  5142  1  0  0  0  0
  5143  1  0  0  0  0
  6  5  1  0  0  0  0
  6  7  1  0  0  0  0
  6 36  1  6  0  0  0
  6 37  1  0  0  0  0
  7  8  1  0  0  0  0
  7144  1  0  0  0  0
  7145  1  0  0  0  0
  8  9  1  0  0  0  0
  8 20  1  0  0  0  0
  8146  1  1  0  0  0
 10  9  1  0  0  0  0
 10 11  1  6  0  0  0
 12 10  1  0  0  0  0
 12147  1  0  0  0  0
 12148  1  0  0  0  0
 13 12  1  0  0  0  0
 13 14  1  0  0  0  0
 13149  1  1  0  0  0
 14150  1  0  0  0  0
 14151  1  0  0  0  0
 15 13  1  0  0  0  0
 15 16  1  0  0  0  0
 15152  1  1  0  0  0
 16153  1  0  0  0  0
 17 15  1  0  0  0  0
 17 18  1  0  0  0  0
 17 19  1  0  0  0  0
 17154  1  1  0  0  0
 18155  1  0  0  0  0
 18156  1  0  0  0  0
 18157  1  0  0  0  0
 19 10  1  0  0  0  0
 20  4  1  0  0  0  0
 21 20  2  0  0  0  0
 21 23  1  0  0  0  0
 22 21  1  0  0  0  0
 22158  1  0  0  0  0
 23  1  2  0  0  0  0
 24 23  1  0  0  0  0
 25 24  1  0  0  0  0
 25 32  1  0  0  0  0
 26 25  2  0  0  0  0
 27 26  1  0  0  0  0
 28 27  1  0  0  0  0
 28159  1  0  0  0  0
 28160  1  0  0  0  0
 28161  1  0  0  0  0
 29 26  1  0  0  0  0
 29162  1  0  0  0  0
 30 29  2  0  0  0  0
 30 31  1  0  0  0  0
 30163  1  0  0  0  0
 31 32  2  0  0  0  0
 31164  1  0  0  0  0
 32 33  1  0  0  0  0
 33  1  1  0  0  0  0
 34 33  2  0  0  0  0
 35 24  2  0  0  0  0
 36165  1  0  0  0  0
 38 37  1  0  0  0  0
 38166  1  0  0  0  0
 38167  1  0  0  0  0
 39 38  1  0  0  0  0
 39 40  1  0  0  0  0
 40 41  1  0  0  0  0
 40 47  2  0  0  0  0
 41 42  1  0  0  0  0
 41168  1  0  0  0  0
 41169  1  0  0  0  0
 42 43  1  0  0  0  0
 42170  1  0  0  0  0
 42171  1  0  0  0  0
 43 44  1  0  0  0  0
 43172  1  0  0  0  0
 43173  1  0  0  0  0
 44 45  1  0  0  0  0
 44 46  2  0  0  0  0
 45 49  1  0  0  0  0
 45174  1  0  0  0  0
 48 37  2  0  0  0  0
 49130  1  0  0  0  0
 49175  1  0  0  0  0
 49176  1  0  0  0  0
 50 51  1  0  0  0  0
 50177  1  0  0  0  0
 50178  1  0  0  0  0
 51 52  1  0  0  0  0
 51179  1  0  0  0  0
 51180  1  0  0  0  0
 52 53  1  0  0  0  0
 52131  1  0  0  0  0
 52181  1  6  0  0  0
 53182  1  0  0  0  0
 57 65  1  0  0  0  0
 57183  1  0  0  0  0
 59 58  2  0  0  0  0
 60 61  1  0  0  0  0
 60184  1  0  0  0  0
 61 59  1  0  0  0  0
 61 62  1  0  0  0  0
 61185  1  6  0  0  0
 62 63  1  0  0  0  0
 62186  1  0  0  0  0
 62187  1  0  0  0  0
 63 57  1  0  0  0  0
 64 63  2  0  0  0  0
 64188  1  0  0  0  0
 65 66  2  0  0  0  0
 65189  1  0  0  0  0
 66 64  1  0  0  0  0
 67 68  1  0  0  0  0
 67 59  1  0  0  0  0
 67190  1  0  0  0  0
 68 71  1  0  0  0  0
 68 70  1  0  0  0  0
 68191  1  6  0  0  0
 70 69  2  0  0  0  0
 71 73  1  0  0  0  0
 71192  1  0  0  0  0
 71193  1  0  0  0  0
 72 73  2  0  0  0  0
 72194  1  0  0  0  0
 73 75  1  0  0  0  0
 74 72  1  0  0  0  0
 74 54  1  0  0  0  0
 75 76  2  0  0  0  0
 76 74  1  0  0  0  0
 76 77  1  0  0  0  0
 77 78  2  0  0  0  0
 77195  1  0  0  0  0
 78 79  1  0  0  0  0
 78196  1  0  0  0  0
 79 80  2  0  0  0  0
 79197  1  0  0  0  0
 80 75  1  0  0  0  0
 80198  1  0  0  0  0
 81 82  1  0  0  0  0
 81 70  1  0  0  0  0
 81199  1  0  0  0  0
 82 84  1  0  0  0  0
 82 85  1  0  0  0  0
 82200  1  6  0  0  0
 84 83  2  0  0  0  0
 85 86  1  0  0  0  0
 85201  1  0  0  0  0
 85202  1  0  0  0  0
 86 55  1  0  0  0  0
 87 88  1  0  0  0  0
 87 84  1  0  0  0  0
 87203  1  0  0  0  0
 88 91  1  0  0  0  0
 88 90  1  0  0  0  0
 88204  1  6  0  0  0
 90 89  2  0  0  0  0
 90 53  1  0  0  0  0
 91 93  1  0  0  0  0
 91205  1  0  0  0  0
 91206  1  0  0  0  0
 92 93  2  0  0  0  0
 92207  1  0  0  0  0
 93 94  1  0  0  0  0
 94 95  2  0  0  0  0
 94208  1  0  0  0  0
 95 96  1  0  0  0  0
 95209  1  0  0  0  0
 96 98  1  0  0  0  0
 96 97  2  0  0  0  0
 97 92  1  0  0  0  0
 97210  1  0  0  0  0
 98 56  1  0  0  0  0
 99211  1  0  0  0  0
 99212  1  0  0  0  0
100101  1  0  0  0  0
100213  1  0  0  0  0
101104  1  0  0  0  0
101103  1  0  0  0  0
101214  1  6  0  0  0
103102  2  0  0  0  0
104105  1  0  0  0  0
104215  1  0  0  0  0
104216  1  0  0  0  0
105107  1  0  0  0  0
105106  1  0  0  0  0
105217  1  0  0  0  0
106218  1  0  0  0  0
106219  1  0  0  0  0
106220  1  0  0  0  0
107221  1  0  0  0  0
107222  1  0  0  0  0
107223  1  0  0  0  0
108113  1  0  0  0  0
108103  1  0  0  0  0
108224  1  0  0  0  0
109111  2  0  0  0  0
109110  1  0  0  0  0
110225  1  0  0  0  0
110226  1  0  0  0  0
111227  1  0  0  0  0
112109  1  0  0  0  0
112228  1  0  0  0  0
113115  1  0  0  0  0
113129  1  0  0  0  0
113229  1  6  0  0  0
115116  1  0  0  0  0
115230  1  0  0  0  0
115231  1  0  0  0  0
116117  1  0  0  0  0
116232  1  0  0  0  0
116233  1  0  0  0  0
117112  1  0  0  0  0
117234  1  0  0  0  0
117235  1  0  0  0  0
118124  2  0  0  0  0
119118  1  0  0  0  0
119120  1  0  0  0  0
119236  1  6  0  0  0
120237  1  0  0  0  0
120238  1  0  0  0  0
121120  1  0  0  0  0
121239  1  0  0  0  0
121240  1  0  0  0  0
122121  1  0  0  0  0
122123  1  0  0  0  0
122241  1  0  0  0  0
122242  1  0  0  0  0
123119  1  0  0  0  0
125126  1  0  0  0  0
125118  1  0  0  0  0
125243  1  0  0  0  0
126128  1  0  0  0  0
126244  1  0  0  0  0
126245  1  0  0  0  0
128127  2  0  0  0  0
128 99  1  0  0  0  0
129114  2  0  0  0  0
129123  1  0  0  0  0
130 50  1  0  0  0  0
130246  1  0  0  0  0
130247  1  0  0  0  0
131132  2  0  0  0  0
131100  1  0  0  0  0
133134  1  0  0  0  0
133137  1  0  0  0  0
133248  1  0  0  0  0
133249  1  0  0  0  0
134135  1  0  0  0  0
134250  1  0  0  0  0
134251  1  0  0  0  0
135136  1  0  0  0  0
135138  1  0  0  0  0
135252  1  6  0  0  0
136253  1  0  0  0  0
137136  1  0  0  0  0
137140  2  0  0  0  0
138139  2  0  0  0  0
138 60  1  0  0  0  0
M  END
>  <DRUGBANK_ID>
DB12755

>  <COMMON_NAME>
Zoptarelin doxorubicin

>  <CAS_NUMBER>
139570-93-7

>  <UNII>
27844X2J29

>  <SYNONYMS>
Zoptarelin doxorubicin

$$$$
