
 OpenBabel10282417072D

129134  0  0  1  0  0  0  0  0999 V2000
    3.5724   -6.1875    0.0000 C   0  0  0  0  0  0  0  0  0  0  0  0
   12.1460  -11.1375    0.0000 C   0  0  0  0  0  0  0  0  0  0  0  0
    6.4302  -11.1375    0.0000 C   0  0  0  0  0  0  0  0  0  0  0  0
   15.0039   -7.8375    0.0000 C   0  0  0  0  0  0  0  0  0  0  0  0
    3.5724   -7.8375    0.0000 C   0  0  0  0  0  0  0  0  0  0  0  0
    9.2881   -7.8375    0.0000 C   0  0  0  0  0  0  0  0  0  0  0  0
    2.8579   -6.6000    0.0000 C   0  0  2  0  0  0  0  0  0  0  0  0
   12.1460  -10.3125    0.0000 C   0  0  2  0  0  0  0  0  0  0  0  0
    6.4302  -10.3125    0.0000 C   0  0  2  0  0  0  0  0  0  0  0  0
   15.0039   -8.6625    0.0000 C   0  0  2  0  0  0  0  0  0  0  0  0
    3.5724   -8.6625    0.0000 C   0  0  2  0  0  0  0  0  0  0  0  0
    9.2881   -8.6625    0.0000 C   0  0  2  0  0  0  0  0  0  0  0  0
    2.1434   -6.1875    0.0000 C   0  0  2  0  0  0  0  0  0  0  0  0
    1.4289   -6.6000    0.0000 C   0  0  1  0  0  0  0  0  0  0  0  0
   11.4315   -9.0750    0.0000 C   0  0  2  0  0  0  0  0  0  0  0  0
    5.7158   -9.0750    0.0000 C   0  0  2  0  0  0  0  0  0  0  0  0
   14.2894   -9.9000    0.0000 C   0  0  2  0  0  0  0  0  0  0  0  0
    2.8579   -9.9000    0.0000 C   0  0  2  0  0  0  0  0  0  0  0  0
    8.5737   -9.9000    0.0000 C   0  0  2  0  0  0  0  0  0  0  0  0
   15.0039  -10.3125    0.0000 C   0  0  2  0  0  0  0  0  0  0  0  0
    3.5724  -10.3125    0.0000 C   0  0  2  0  0  0  0  0  0  0  0  0
    9.2881  -10.3125    0.0000 C   0  0  2  0  0  0  0  0  0  0  0  0
    1.4289   -7.4250    0.0000 C   0  0  2  0  0  0  0  0  0  0  0  0
   12.1460   -8.6625    0.0000 C   0  0  2  0  0  0  0  0  0  0  0  0
    6.4302   -8.6625    0.0000 C   0  0  2  0  0  0  0  0  0  0  0  0
   11.4315   -9.9000    0.0000 C   0  0  2  0  0  0  0  0  0  0  0  0
    5.7158   -9.9000    0.0000 C   0  0  2  0  0  0  0  0  0  0  0  0
   14.2894   -9.0750    0.0000 C   0  0  2  0  0  0  0  0  0  0  0  0
    2.8579   -9.0750    0.0000 C   0  0  2  0  0  0  0  0  0  0  0  0
    8.5737   -9.0750    0.0000 C   0  0  2  0  0  0  0  0  0  0  0  0
   15.7184   -9.9000    0.0000 C   0  0  1  0  0  0  0  0  0  0  0  0
    4.2868   -9.9000    0.0000 C   0  0  2  0  0  0  0  0  0  0  0  0
   10.0026   -9.9000    0.0000 C   0  0  2  0  0  0  0  0  0  0  0  0
    2.1434   -7.8375    0.0000 C   0  0  2  0  0  0  0  0  0  0  0  0
   12.8605   -9.0750    0.0000 C   0  0  2  0  0  0  0  0  0  0  0  0
    7.1447   -9.0750    0.0000 C   0  0  2  0  0  0  0  0  0  0  0  0
    3.5724   -5.3625    0.0000 O   0  0  0  0  0  0  0  0  0  0  0  0
   12.8605  -11.5500    0.0000 O   0  0  0  0  0  0  0  0  0  0  0  0
    5.7158  -11.5500    0.0000 O   0  0  0  0  0  0  0  0  0  0  0  0
   15.7184   -7.4250    0.0000 O   0  0  0  0  0  0  0  0  0  0  0  0
    4.2868   -7.4250    0.0000 O   0  0  0  0  0  0  0  0  0  0  0  0
    8.5737   -7.4250    0.0000 O   0  0  0  0  0  0  0  0  0  0  0  0
    2.1434   -5.3625    0.0000 O   0  0  0  0  0  0  0  0  0  0  0  0
    0.7145   -6.1875    0.0000 O   0  0  0  0  0  0  0  0  0  0  0  0
   10.7171   -8.6625    0.0000 O   0  0  0  0  0  0  0  0  0  0  0  0
    5.0013   -8.6625    0.0000 O   0  0  0  0  0  0  0  0  0  0  0  0
   13.5749  -10.3125    0.0000 O   0  0  0  0  0  0  0  0  0  0  0  0
    2.1434  -10.3125    0.0000 O   0  0  0  0  0  0  0  0  0  0  0  0
    7.8592  -10.3125    0.0000 O   0  0  0  0  0  0  0  0  0  0  0  0
   15.0039  -11.1375    0.0000 O   0  0  0  0  0  0  0  0  0  0  0  0
    3.5724  -11.1375    0.0000 O   0  0  0  0  0  0  0  0  0  0  0  0
    9.2881  -11.1375    0.0000 O   0  0  0  0  0  0  0  0  0  0  0  0
    0.7145   -7.8375    0.0000 O   0  0  0  0  0  0  0  0  0  0  0  0
   12.1460   -7.8375    0.0000 O   0  0  0  0  0  0  0  0  0  0  0  0
    6.4302   -7.8375    0.0000 O   0  0  0  0  0  0  0  0  0  0  0  0
   16.4328  -10.3125    0.0000 O   0  0  0  0  0  0  0  0  0  0  0  0
   15.7184   -9.0750    0.0000 O   0  0  0  0  0  0  0  0  0  0  0  0
    4.2868   -9.0750    0.0000 O   0  0  0  0  0  0  0  0  0  0  0  0
   10.0026   -9.0750    0.0000 O   0  0  0  0  0  0  0  0  0  0  0  0
    2.8579   -7.4250    0.0000 O   0  0  0  0  0  0  0  0  0  0  0  0
   12.8605   -9.9000    0.0000 O   0  0  0  0  0  0  0  0  0  0  0  0
    7.1447   -9.9000    0.0000 O   0  0  0  0  0  0  0  0  0  0  0  0
   10.7171  -10.3125    0.0000 O   0  0  0  0  0  0  0  0  0  0  0  0
    5.0013  -10.3125    0.0000 O   0  0  0  0  0  0  0  0  0  0  0  0
   13.5749   -8.6625    0.0000 S   0  0  0  0  0  0  0  0  0  0  0  0
    2.1434   -8.6625    0.0000 S   0  0  0  0  0  0  0  0  0  0  0  0
    7.8592   -8.6625    0.0000 S   0  0  0  0  0  0  0  0  0  0  0  0
    2.5757   -5.8248    0.0000 H   0  0  0  0  0  0  0  0  0  0  0  0
   11.6157  -10.9445    0.0000 H   0  0  0  0  0  0  0  0  0  0  0  0
    5.8999  -10.9445    0.0000 H   0  0  0  0  0  0  0  0  0  0  0  0
   14.1914   -8.5192    0.0000 H   0  0  0  0  0  0  0  0  0  0  0  0
    2.7599   -8.5192    0.0000 H   0  0  0  0  0  0  0  0  0  0  0  0
    8.4757   -8.5192    0.0000 H   0  0  0  0  0  0  0  0  0  0  0  0
    2.6737   -5.5555    0.0000 H   0  0  0  0  0  0  0  0  0  0  0  0
    1.4289   -5.7750    0.0000 H   0  0  0  0  0  0  0  0  0  0  0  0
   11.1494   -8.2998    0.0000 H   0  0  0  0  0  0  0  0  0  0  0  0
    5.4336   -8.2998    0.0000 H   0  0  0  0  0  0  0  0  0  0  0  0
   14.5716  -10.6752    0.0000 H   0  0  0  0  0  0  0  0  0  0  0  0
    3.1401  -10.6752    0.0000 H   0  0  0  0  0  0  0  0  0  0  0  0
    8.8558  -10.6752    0.0000 H   0  0  0  0  0  0  0  0  0  0  0  0
   14.4736  -10.9445    0.0000 H   0  0  0  0  0  0  0  0  0  0  0  0
    3.0421  -10.9445    0.0000 H   0  0  0  0  0  0  0  0  0  0  0  0
    8.7578  -10.9445    0.0000 H   0  0  0  0  0  0  0  0  0  0  0  0
    0.7145   -7.0125    0.0000 H   0  0  0  0  0  0  0  0  0  0  0  0
   11.6157   -8.0305    0.0000 H   0  0  0  0  0  0  0  0  0  0  0  0
    5.8999   -8.0305    0.0000 H   0  0  0  0  0  0  0  0  0  0  0  0
   11.1494  -10.6752    0.0000 H   0  0  0  0  0  0  0  0  0  0  0  0
    5.4336  -10.6752    0.0000 H   0  0  0  0  0  0  0  0  0  0  0  0
   14.0073   -8.2998    0.0000 H   0  0  0  0  0  0  0  0  0  0  0  0
    2.5757   -8.2998    0.0000 H   0  0  0  0  0  0  0  0  0  0  0  0
    8.2915   -8.2998    0.0000 H   0  0  0  0  0  0  0  0  0  0  0  0
   15.7184  -10.7250    0.0000 H   0  0  0  0  0  0  0  0  0  0  0  0
    4.2868  -10.7250    0.0000 H   0  0  0  0  0  0  0  0  0  0  0  0
   10.0026  -10.7250    0.0000 H   0  0  0  0  0  0  0  0  0  0  0  0
    1.4289   -8.2500    0.0000 H   0  0  0  0  0  0  0  0  0  0  0  0
   12.8605   -8.2500    0.0000 H   0  0  0  0  0  0  0  0  0  0  0  0
    7.1447   -8.2500    0.0000 H   0  0  0  0  0  0  0  0  0  0  0  0
    4.4990   -6.7225    0.0000 H   0  0  0  0  0  0  0  0  0  0  0  0
    4.4990   -5.6525    0.0000 H   0  0  0  0  0  0  0  0  0  0  0  0
   11.2194  -11.6725    0.0000 H   0  0  0  0  0  0  0  0  0  0  0  0
   12.1460  -12.2075    0.0000 H   0  0  0  0  0  0  0  0  0  0  0  0
    7.3569  -11.6725    0.0000 H   0  0  0  0  0  0  0  0  0  0  0  0
    6.4302  -12.2075    0.0000 H   0  0  0  0  0  0  0  0  0  0  0  0
   14.0773   -7.3025    0.0000 H   0  0  0  0  0  0  0  0  0  0  0  0
   15.0039   -6.7675    0.0000 H   0  0  0  0  0  0  0  0  0  0  0  0
    2.6457   -7.3025    0.0000 H   0  0  0  0  0  0  0  0  0  0  0  0
    3.5724   -6.7675    0.0000 H   0  0  0  0  0  0  0  0  0  0  0  0
   10.2148   -7.3025    0.0000 H   0  0  0  0  0  0  0  0  0  0  0  0
    9.2881   -6.7675    0.0000 H   0  0  0  0  0  0  0  0  0  0  0  0
    4.4124   -4.8775    0.0000 H   0  0  0  0  0  0  0  0  0  0  0  0
   12.8605  -12.5200    0.0000 H   0  0  0  0  0  0  0  0  0  0  0  0
    4.8757  -11.0650    0.0000 H   0  0  0  0  0  0  0  0  0  0  0  0
   16.5584   -7.9100    0.0000 H   0  0  0  0  0  0  0  0  0  0  0  0
    5.1269   -7.9100    0.0000 H   0  0  0  0  0  0  0  0  0  0  0  0
    8.5737   -6.4550    0.0000 H   0  0  0  0  0  0  0  0  0  0  0  0
    2.9834   -4.8775    0.0000 H   0  0  0  0  0  0  0  0  0  0  0  0
    0.7145   -5.2175    0.0000 H   0  0  0  0  0  0  0  0  0  0  0  0
   10.7171   -7.6925    0.0000 H   0  0  0  0  0  0  0  0  0  0  0  0
    5.0013   -7.6925    0.0000 H   0  0  0  0  0  0  0  0  0  0  0  0
   12.7349   -9.8275    0.0000 H   0  0  0  0  0  0  0  0  0  0  0  0
    1.3034   -9.8275    0.0000 H   0  0  0  0  0  0  0  0  0  0  0  0
    7.0192   -9.8275    0.0000 H   0  0  0  0  0  0  0  0  0  0  0  0
   14.1639  -11.6225    0.0000 H   0  0  0  0  0  0  0  0  0  0  0  0
    2.7324  -11.6225    0.0000 H   0  0  0  0  0  0  0  0  0  0  0  0
    8.4481  -11.6225    0.0000 H   0  0  0  0  0  0  0  0  0  0  0  0
   -0.1256   -7.3525    0.0000 H   0  0  0  0  0  0  0  0  0  0  0  0
   12.9860   -7.3525    0.0000 H   0  0  0  0  0  0  0  0  0  0  0  0
    7.2702   -7.3525    0.0000 H   0  0  0  0  0  0  0  0  0  0  0  0
   16.4328  -11.2825    0.0000 H   0  0  0  0  0  0  0  0  0  0  0  0
  1 98  1  0  0  0  0
  1 99  1  0  0  0  0
  2100  1  0  0  0  0
  2101  1  0  0  0  0
  3102  1  0  0  0  0
  3103  1  0  0  0  0
  4104  1  0  0  0  0
  4105  1  0  0  0  0
  5106  1  0  0  0  0
  5107  1  0  0  0  0
  6108  1  0  0  0  0
  6109  1  0  0  0  0
  7  1  1  0  0  0  0
  7 68  1  6  0  0  0
  8  2  1  0  0  0  0
  8 69  1  1  0  0  0
  9  3  1  0  0  0  0
  9 70  1  1  0  0  0
 10  4  1  0  0  0  0
 10 71  1  6  0  0  0
 11  5  1  0  0  0  0
 11 72  1  6  0  0  0
 12  6  1  0  0  0  0
 12 73  1  6  0  0  0
 13  7  1  0  0  0  0
 13 43  1  0  0  0  0
 13 74  1  1  0  0  0
 14 13  1  0  0  0  0
 14 44  1  0  0  0  0
 14 75  1  6  0  0  0
 15 45  1  0  0  0  0
 15 76  1  1  0  0  0
 16 46  1  0  0  0  0
 16 77  1  1  0  0  0
 17 47  1  0  0  0  0
 17 78  1  6  0  0  0
 18 48  1  0  0  0  0
 18 79  1  6  0  0  0
 19 49  1  0  0  0  0
 19 80  1  6  0  0  0
 20 17  1  0  0  0  0
 20 50  1  0  0  0  0
 20 81  1  1  0  0  0
 21 18  1  0  0  0  0
 21 51  1  0  0  0  0
 21 82  1  1  0  0  0
 22 19  1  0  0  0  0
 22 52  1  0  0  0  0
 22 83  1  1  0  0  0
 23 14  1  0  0  0  0
 23 53  1  0  0  0  0
 23 84  1  1  0  0  0
 24 15  1  0  0  0  0
 24 54  1  0  0  0  0
 24 85  1  6  0  0  0
 25 16  1  0  0  0  0
 25 55  1  0  0  0  0
 25 86  1  6  0  0  0
 26  8  1  0  0  0  0
 26 15  1  0  0  0  0
 26 63  1  0  0  0  0
 26 87  1  6  0  0  0
 27  9  1  0  0  0  0
 27 16  1  0  0  0  0
 27 64  1  0  0  0  0
 27 88  1  6  0  0  0
 28 10  1  0  0  0  0
 28 17  1  0  0  0  0
 28 65  1  0  0  0  0
 28 89  1  1  0  0  0
 29 11  1  0  0  0  0
 29 18  1  0  0  0  0
 29 66  1  0  0  0  0
 29 90  1  1  0  0  0
 30 12  1  0  0  0  0
 30 19  1  0  0  0  0
 30 67  1  0  0  0  0
 30 91  1  1  0  0  0
 31 20  1  0  0  0  0
 31 56  1  0  0  0  0
 31 92  1  1  0  0  0
 32 21  1  0  0  0  0
 32 64  1  0  0  0  0
 32 93  1  1  0  0  0
 33 22  1  0  0  0  0
 33 63  1  0  0  0  0
 33 94  1  1  0  0  0
 34 23  1  0  0  0  0
 34 66  1  0  0  0  0
 34 95  1  1  0  0  0
 35 24  1  0  0  0  0
 35 65  1  0  0  0  0
 35 96  1  6  0  0  0
 36 25  1  0  0  0  0
 36 67  1  0  0  0  0
 36 97  1  6  0  0  0
 37  1  1  0  0  0  0
 37110  1  0  0  0  0
 38  2  1  0  0  0  0
 38111  1  0  0  0  0
 39  3  1  0  0  0  0
 39112  1  0  0  0  0
 40  4  1  0  0  0  0
 40113  1  0  0  0  0
 41  5  1  0  0  0  0
 41114  1  0  0  0  0
 42  6  1  0  0  0  0
 42115  1  0  0  0  0
 43116  1  0  0  0  0
 44117  1  0  0  0  0
 45118  1  0  0  0  0
 46119  1  0  0  0  0
 47120  1  0  0  0  0
 48121  1  0  0  0  0
 49122  1  0  0  0  0
 50123  1  0  0  0  0
 51124  1  0  0  0  0
 52125  1  0  0  0  0
 53126  1  0  0  0  0
 54127  1  0  0  0  0
 55128  1  0  0  0  0
 56129  1  0  0  0  0
 57 10  1  0  0  0  0
 57 31  1  0  0  0  0
 58 11  1  0  0  0  0
 58 32  1  0  0  0  0
 59 12  1  0  0  0  0
 59 33  1  0  0  0  0
 60  7  1  0  0  0  0
 60 34  1  0  0  0  0
 61  8  1  0  0  0  0
 61 35  1  0  0  0  0
 62  9  1  0  0  0  0
 62 36  1  0  0  0  0
M  END
>  <DRUGBANK_ID>
DB03198

>  <SECONDARY_ACCESSION_NUMBERS>
EXPT03068

>  <COMMON_NAME>
Thio-Maltohexaose

$$$$
