
 OpenBabel10282417072D

 18 19  0  0  0  0  0  0  0  0999 V2000
   -2.2628   -0.0626    0.0000 C   0  0  0  0  0  0  0  0  0  0  0  0
   -1.7107    0.5503    0.0000 S   0  0  0  0  0  0  0  0  0  0  0  0
   -1.8502   -0.7771    0.0000 N   0  0  0  0  0  0  0  0  0  0  0  0
   -0.9570    0.2148    0.0000 C   0  0  0  0  0  0  0  0  0  0  0  0
   -1.0431   -0.6056    0.0000 N   0  0  0  0  0  0  0  0  0  0  0  0
   -0.2425    0.6273    0.0000 S   0  0  0  0  0  0  0  0  0  0  0  0
    0.4720    0.2148    0.0000 C   0  0  0  0  0  0  0  0  0  0  0  0
   -3.0833    0.0236    0.0000 N   0  0  0  0  0  0  0  0  0  0  0  0
    1.2257    0.5503    0.0000 S   0  0  0  0  0  0  0  0  0  0  0  0
    0.5582   -0.6057    0.0000 N   0  0  0  0  0  0  0  0  0  0  0  0
    1.7777   -0.0627    0.0000 C   0  0  0  0  0  0  0  0  0  0  0  0
    1.3653   -0.7772    0.0000 C   0  0  0  0  0  0  0  0  0  0  0  0
    2.5982    0.0235    0.0000 N   0  3  0  0  0  0  0  0  0  0  0  0
    3.0833   -0.6438    0.0000 O   0  0  0  0  0  0  0  0  0  0  0  0
    2.9338    0.7772    0.0000 O   0  5  0  0  0  0  0  0  0  0  0  0
   -3.4838    0.9230    0.0000 H   0  0  0  0  0  0  0  0  0  0  0  0
   -3.6619   -0.7729    0.0000 H   0  0  0  0  0  0  0  0  0  0  0  0
    1.7851   -1.7199    0.0000 H   0  0  0  0  0  0  0  0  0  0  0  0
  1  2  1  0  0  0  0
  1  3  2  0  0  0  0
  1  8  1  0  0  0  0
  2  4  1  0  0  0  0
  3  5  1  0  0  0  0
  4  5  2  0  0  0  0
  4  6  1  0  0  0  0
  6  7  1  0  0  0  0
  7  9  1  0  0  0  0
  7 10  2  0  0  0  0
  8 16  1  0  0  0  0
  8 17  1  0  0  0  0
  9 11  1  0  0  0  0
 10 12  1  0  0  0  0
 11 12  2  0  0  0  0
 11 13  1  0  0  0  0
 12 18  1  0  0  0  0
 13 14  2  0  0  0  0
 13 15  1  0  0  0  0
M  CHG  2  13   1  15  -1
M  END
>  <DRUGBANK_ID>
DB15624

>  <COMMON_NAME>
Halicin

>  <CAS_NUMBER>
40045-50-9

>  <UNII>
Y4KQC5P9B2

>  <SYNONYMS>
2-amino-5-[(5-nitro-2-thiazolyl)thio]-1,3,4-thiadiazole

$$$$
