
 OpenBabel10282417072D

 45 48  0  0  1  0  0  0  0  0999 V2000
    2.0306    1.7357    0.0000 C   0  0  0  0  0  0  0  0  0  0  0  0
    4.5753   -0.8489    0.0000 C   0  0  0  0  0  0  0  0  0  0  0  0
    6.1708    1.0432    0.0000 C   0  0  0  0  0  0  0  0  0  0  0  0
    3.7632   -0.7037    0.0000 C   0  0  0  0  0  0  0  0  0  0  0  0
    5.3587    1.1884    0.0000 C   0  0  0  0  0  0  0  0  0  0  0  0
    3.7344    1.4788    0.0000 C   0  0  0  0  0  0  0  0  0  0  0  0
    2.9223    1.6240    0.0000 C   0  0  0  0  0  0  0  0  0  0  0  0
    5.9193   -0.3634    0.0000 C   0  0  0  0  0  0  0  0  0  0  0  0
    2.0195   -0.2889    0.0000 C   0  0  0  0  0  0  0  0  0  0  0  0
    5.1071   -0.2182    0.0000 C   0  0  0  0  0  0  0  0  0  0  0  0
    6.4511    0.2672    0.0000 C   0  0  0  0  0  0  0  0  0  0  0  0
    4.8268    0.5577    0.0000 C   0  0  0  0  0  0  0  0  0  0  0  0
    4.0147    0.7029    0.0000 C   0  0  2  0  0  0  0  0  0  0  0  0
    3.4829    0.0722    0.0000 C   0  0  2  0  0  0  0  0  0  0  0  0
    2.6708    0.2174    0.0000 C   0  0  1  0  0  0  0  0  0  0  0  0
    1.3366    0.1740    0.0000 C   0  0  2  0  0  0  0  0  0  0  0  0
    1.5659    0.9665    0.0000 C   0  0  2  0  0  0  0  0  0  0  0  0
    2.3905    0.9933    0.0000 C   0  0  2  0  0  0  0  0  0  0  0  0
    7.2632    0.1220    0.0000 O   0  0  0  0  0  0  0  0  0  0  0  0
    0.5607   -0.1062    0.0000 O   0  0  0  0  0  0  0  0  0  0  0  0
    1.0596    1.6178    0.0000 O   0  0  0  0  0  0  0  0  0  0  0  0
    3.2026    0.8481    0.0000 H   0  0  0  0  0  0  0  0  0  0  0  0
    2.9511   -0.5584    0.0000 H   0  0  0  0  0  0  0  0  0  0  0  0
    1.8783    0.4467    0.0000 H   0  0  0  0  0  0  0  0  0  0  0  0
    0.7346    0.7381    0.0000 H   0  0  0  0  0  0  0  0  0  0  0  0
    1.5175    1.7901    0.0000 H   0  0  0  0  0  0  0  0  0  0  0  0
    2.6311    2.6213    0.0000 H   0  0  0  0  0  0  0  0  0  0  0  0
    0.9634    1.8129    0.0000 H   0  0  0  0  0  0  0  0  0  0  0  0
    1.5638    2.6985    0.0000 H   0  0  0  0  0  0  0  0  0  0  0  0
    4.9389   -1.8552    0.0000 H   0  0  0  0  0  0  0  0  0  0  0  0
    5.6286   -1.0372    0.0000 H   0  0  0  0  0  0  0  0  0  0  0  0
    6.8361    1.8322    0.0000 H   0  0  0  0  0  0  0  0  0  0  0  0
    3.0735   -1.5217    0.0000 H   0  0  0  0  0  0  0  0  0  0  0  0
    2.7099   -0.5154    0.0000 H   0  0  0  0  0  0  0  0  0  0  0  0
    5.0081    2.1590    0.0000 H   0  0  0  0  0  0  0  0  0  0  0  0
    4.4241    2.2968    0.0000 H   0  0  0  0  0  0  0  0  0  0  0  0
    4.7877    1.2905    0.0000 H   0  0  0  0  0  0  0  0  0  0  0  0
    2.5587    2.6303    0.0000 H   0  0  0  0  0  0  0  0  0  0  0  0
    1.8690    1.8123    0.0000 H   0  0  0  0  0  0  0  0  0  0  0  0
    6.2699   -1.3340    0.0000 H   0  0  0  0  0  0  0  0  0  0  0  0
    2.0543   -1.3583    0.0000 H   0  0  0  0  0  0  0  0  0  0  0  0
    1.0825   -0.8055    0.0000 H   0  0  0  0  0  0  0  0  0  0  0  0
    7.5816   -0.7593    0.0000 H   0  0  0  0  0  0  0  0  0  0  0  0
   -0.1808    0.5192    0.0000 H   0  0  0  0  0  0  0  0  0  0  0  0
    1.4252    2.5163    0.0000 H   0  0  0  0  0  0  0  0  0  0  0  0
  1 27  1  0  0  0  0
  1 28  1  0  0  0  0
  1 29  1  0  0  0  0
  2 30  1  0  0  0  0
  2 31  1  0  0  0  0
  3 32  1  0  0  0  0
  4  2  1  0  0  0  0
  4 33  1  0  0  0  0
  4 34  1  0  0  0  0
  5  3  1  0  0  0  0
  5 35  1  0  0  0  0
  6 36  1  0  0  0  0
  6 37  1  0  0  0  0
  7  6  1  0  0  0  0
  7 38  1  0  0  0  0
  7 39  1  0  0  0  0
  8 40  1  0  0  0  0
  9 41  1  0  0  0  0
  9 42  1  0  0  0  0
 10  2  1  0  0  0  0
 10  8  2  0  0  0  0
 11  3  2  0  0  0  0
 11  8  1  0  0  0  0
 12  5  2  0  0  0  0
 12 10  1  0  0  0  0
 13  6  1  0  0  0  0
 13 12  1  0  0  0  0
 13 22  1  1  0  0  0
 14  4  1  0  0  0  0
 14 13  1  0  0  0  0
 14 15  1  0  0  0  0
 14 23  1  6  0  0  0
 15  9  1  0  0  0  0
 15 18  1  0  0  0  0
 15 24  1  1  0  0  0
 16  9  1  0  0  0  0
 16 20  1  0  0  0  0
 16 25  1  6  0  0  0
 17 16  1  0  0  0  0
 17 21  1  0  0  0  0
 17 26  1  6  0  0  0
 18  1  1  6  0  0  0
 18  7  1  0  0  0  0
 18 17  1  0  0  0  0
 19 11  1  0  0  0  0
 19 43  1  0  0  0  0
 20 44  1  0  0  0  0
 21 45  1  0  0  0  0
M  END
>  <DRUGBANK_ID>
DB07702

>  <COMMON_NAME>
17alpha-Estriol

>  <CAS_NUMBER>
1228-72-4

>  <UNII>
4G7IHY560Z

$$$$
