
 OpenBabel10282417072D

 27 26  0  0  0  0  0  0  0  0999 V2000
    0.8574   -1.2374    0.0000 C   0  0  0  0  0  0  0  0  0  0  0  0
    0.1429   -1.6500    0.0000 C   0  0  0  0  0  0  0  0  0  0  0  0
   -0.5716   -1.2374    0.0000 C   0  0  0  0  0  0  0  0  0  0  0  0
   -0.5716   -0.4125    0.0000 N   0  0  0  0  0  0  0  0  0  0  0  0
    0.1429    0.0000    0.0000 C   0  0  0  0  0  0  0  0  0  0  0  0
    0.8574   -0.4125    0.0000 C   0  0  0  0  0  0  0  0  0  0  0  0
    0.1429    0.8250    0.0000 C   0  0  0  0  0  0  0  0  0  0  0  0
    0.8574    1.2374    0.0000 O   0  0  0  0  0  0  0  0  0  0  0  0
   -0.5716    1.2374    0.0000 O   0  5  0  0  0  0  0  0  0  0  0  0
    3.9487   -1.2550    0.0000 C   0  0  0  0  0  0  0  0  0  0  0  0
    3.2343   -1.6675    0.0000 C   0  0  0  0  0  0  0  0  0  0  0  0
    2.5198   -1.2550    0.0000 C   0  0  0  0  0  0  0  0  0  0  0  0
    2.5198   -0.4300    0.0000 N   0  0  0  0  0  0  0  0  0  0  0  0
    3.2343   -0.0175    0.0000 C   0  0  0  0  0  0  0  0  0  0  0  0
    3.9487   -0.4300    0.0000 C   0  0  0  0  0  0  0  0  0  0  0  0
    3.2343    0.8074    0.0000 C   0  0  0  0  0  0  0  0  0  0  0  0
    2.5198    1.2199    0.0000 O   0  0  0  0  0  0  0  0  0  0  0  0
    3.9487    1.2199    0.0000 O   0  5  0  0  0  0  0  0  0  0  0  0
   -1.3083    2.0517    0.0000 Zn  0  2  0  0  0  0  0  0  0  0  0  0
    1.7512   -1.7534    0.0000 H   0  0  0  0  0  0  0  0  0  0  0  0
    0.1429   -2.6820    0.0000 H   0  0  0  0  0  0  0  0  0  0  0  0
   -1.4654   -1.7534    0.0000 H   0  0  0  0  0  0  0  0  0  0  0  0
    1.7511    0.1035    0.0000 H   0  0  0  0  0  0  0  0  0  0  0  0
    4.8424   -1.7710    0.0000 H   0  0  0  0  0  0  0  0  0  0  0  0
    3.2343   -2.6995    0.0000 H   0  0  0  0  0  0  0  0  0  0  0  0
    1.6261   -1.7710    0.0000 H   0  0  0  0  0  0  0  0  0  0  0  0
    4.8424    0.0860    0.0000 H   0  0  0  0  0  0  0  0  0  0  0  0
  1  2  2  0  0  0  0
  1  6  1  0  0  0  0
  1 20  1  0  0  0  0
  2  3  1  0  0  0  0
  2 21  1  0  0  0  0
  3  4  2  0  0  0  0
  3 22  1  0  0  0  0
  4  5  1  0  0  0  0
  5  6  2  0  0  0  0
  5  7  1  0  0  0  0
  6 23  1  0  0  0  0
  7  8  2  0  0  0  0
  7  9  1  0  0  0  0
 10 11  2  0  0  0  0
 10 15  1  0  0  0  0
 10 24  1  0  0  0  0
 11 12  1  0  0  0  0
 11 25  1  0  0  0  0
 12 13  2  0  0  0  0
 12 26  1  0  0  0  0
 13 14  1  0  0  0  0
 14 15  2  0  0  0  0
 14 16  1  0  0  0  0
 15 27  1  0  0  0  0
 16 17  2  0  0  0  0
 16 18  1  0  0  0  0
M  CHG  3   9  -1  18  -1  19   2
M  END
>  <DRUGBANK_ID>
DB11175

>  <COMMON_NAME>
Zinc picolinate

>  <CAS_NUMBER>
17949-65-4

>  <UNII>
ALO92O31SE

$$$$
