
 OpenBabel10282417072D

 71 75  0  0  0  0  0  0  0  0999 V2000
    4.7943    0.2407    0.0000 C   0  0  0  0  0  0  0  0  0  0  0  0
    4.5396    1.0254    0.0000 C   0  0  0  0  0  0  0  0  0  0  0  0
    3.7327    1.1972    0.0000 C   0  0  0  0  0  0  0  0  0  0  0  0
    3.1805    0.5843    0.0000 C   0  0  0  0  0  0  0  0  0  0  0  0
    3.4352   -0.2004    0.0000 C   0  0  0  0  0  0  0  0  0  0  0  0
    4.2421   -0.3722    0.0000 C   0  0  0  0  0  0  0  0  0  0  0  0
    2.7676   -0.6852    0.0000 C   0  0  0  0  0  0  0  0  0  0  0  0
    2.7674   -1.5102    0.0000 O   0  0  0  0  0  0  0  0  0  0  0  0
    2.1003   -0.2000    0.0000 O   0  0  0  0  0  0  0  0  0  0  0  0
    2.3555    0.5845    0.0000 C   0  0  0  0  0  0  0  0  0  0  0  0
    2.6913    1.3381    0.0000 C   0  0  0  0  0  0  0  0  0  0  0  0
    3.5118    1.4241    0.0000 C   0  0  0  0  0  0  0  0  0  0  0  0
    3.8475    2.1777    0.0000 C   0  0  0  0  0  0  0  0  0  0  0  0
    3.3628    2.8452    0.0000 C   0  0  0  0  0  0  0  0  0  0  0  0
    2.5423    2.7592    0.0000 C   0  0  0  0  0  0  0  0  0  0  0  0
    2.2065    2.0057    0.0000 C   0  0  0  0  0  0  0  0  0  0  0  0
    1.3860    1.9197    0.0000 O   0  0  0  0  0  0  0  0  0  0  0  0
    1.0502    1.1661    0.0000 C   0  0  0  0  0  0  0  0  0  0  0  0
    1.5350    0.4985    0.0000 C   0  0  0  0  0  0  0  0  0  0  0  0
    1.1992   -0.2551    0.0000 C   0  0  0  0  0  0  0  0  0  0  0  0
    0.3787   -0.3411    0.0000 C   0  0  0  0  0  0  0  0  0  0  0  0
   -0.1060    0.3265    0.0000 C   0  0  0  0  0  0  0  0  0  0  0  0
    0.2297    1.0801    0.0000 C   0  0  0  0  0  0  0  0  0  0  0  0
   -0.9265    0.2405    0.0000 O   0  0  0  0  0  0  0  0  0  0  0  0
    0.0429   -1.0947    0.0000 C   0  0  0  0  0  0  0  0  0  0  0  0
   -0.7776   -1.1807    0.0000 N   0  0  0  0  0  0  0  0  0  0  0  0
   -1.1134   -1.9342    0.0000 C   0  0  0  0  0  0  0  0  0  0  0  0
   -1.9339   -2.0202    0.0000 C   0  0  0  0  0  0  0  0  0  0  0  0
   -2.2696   -2.7738    0.0000 O   0  0  0  0  0  0  0  0  0  0  0  0
   -2.4186   -1.3527    0.0000 O   0  0  0  0  0  0  0  0  0  0  0  0
   -1.2623   -0.5131    0.0000 C   0  0  0  0  0  0  0  0  0  0  0  0
   -2.0828   -0.5991    0.0000 C   0  0  0  0  0  0  0  0  0  0  0  0
   -2.5676    0.0685    0.0000 O   0  0  0  0  0  0  0  0  0  0  0  0
   -2.7974   -1.0114    0.0000 O   0  0  0  0  0  0  0  0  0  0  0  0
    3.6986    3.5988    0.0000 O   0  0  0  0  0  0  0  0  0  0  0  0
    4.6680    2.2637    0.0000 C   0  0  0  0  0  0  0  0  0  0  0  0
    5.0038    3.0172    0.0000 N   0  0  0  0  0  0  0  0  0  0  0  0
    4.5191    3.6848    0.0000 C   0  0  0  0  0  0  0  0  0  0  0  0
    4.8549    4.4384    0.0000 C   0  0  0  0  0  0  0  0  0  0  0  0
    4.3701    5.1060    0.0000 O   0  0  0  0  0  0  0  0  0  0  0  0
    5.6754    4.5244    0.0000 O   0  0  0  0  0  0  0  0  0  0  0  0
    5.8243    3.1032    0.0000 C   0  0  0  0  0  0  0  0  0  0  0  0
    6.1601    3.8568    0.0000 C   0  0  0  0  0  0  0  0  0  0  0  0
    6.1603    4.6818    0.0000 O   0  0  0  0  0  0  0  0  0  0  0  0
    6.9806    3.9428    0.0000 O   0  0  0  0  0  0  0  0  0  0  0  0
    5.8037    0.0258    0.0000 H   0  0  0  0  0  0  0  0  0  0  0  0
    5.2304    1.7921    0.0000 H   0  0  0  0  0  0  0  0  0  0  0  0
    3.4141    2.1788    0.0000 H   0  0  0  0  0  0  0  0  0  0  0  0
    4.5607   -1.3538    0.0000 H   0  0  0  0  0  0  0  0  0  0  0  0
    4.1182    0.5890    0.0000 H   0  0  0  0  0  0  0  0  0  0  0  0
    1.9360    3.5943    0.0000 H   0  0  0  0  0  0  0  0  0  0  0  0
    1.8055   -1.0902    0.0000 H   0  0  0  0  0  0  0  0  0  0  0  0
   -0.3767    1.9152    0.0000 H   0  0  0  0  0  0  0  0  0  0  0  0
   -1.4770    0.9987    0.0000 H   0  0  0  0  0  0  0  0  0  0  0  0
    0.6716   -1.9605    0.0000 H   0  0  0  0  0  0  0  0  0  0  0  0
   -0.3926   -2.0721    0.0000 H   0  0  0  0  0  0  0  0  0  0  0  0
   -0.4847   -2.8000    0.0000 H   0  0  0  0  0  0  0  0  0  0  0  0
   -1.5489   -2.9116    0.0000 H   0  0  0  0  0  0  0  0  0  0  0  0
   -2.0373   -0.4968    0.0000 H   0  0  0  0  0  0  0  0  0  0  0  0
   -0.8268    0.4643    0.0000 H   0  0  0  0  0  0  0  0  0  0  0  0
   -1.8910    0.3527    0.0000 H   0  0  0  0  0  0  0  0  0  0  0  0
   -3.6087   -0.5427    0.0000 H   0  0  0  0  0  0  0  0  0  0  0  0
    4.6305    3.6965    0.0000 H   0  0  0  0  0  0  0  0  0  0  0  0
    5.2967    1.3979    0.0000 H   0  0  0  0  0  0  0  0  0  0  0  0
    5.7322    2.3752    0.0000 H   0  0  0  0  0  0  0  0  0  0  0  0
    3.4549    3.5733    0.0000 H   0  0  0  0  0  0  0  0  0  0  0  0
    3.8904    4.5506    0.0000 H   0  0  0  0  0  0  0  0  0  0  0  0
    6.2259    3.7662    0.0000 H   0  0  0  0  0  0  0  0  0  0  0  0
    6.4530    2.2374    0.0000 H   0  0  0  0  0  0  0  0  0  0  0  0
    6.8885    3.2147    0.0000 H   0  0  0  0  0  0  0  0  0  0  0  0
    7.5311    3.1846    0.0000 H   0  0  0  0  0  0  0  0  0  0  0  0
  1  2  2  0  0  0  0
  1  6  1  0  0  0  0
  1 46  1  0  0  0  0
  2  3  1  0  0  0  0
  2 47  1  0  0  0  0
  3  4  2  0  0  0  0
  3 48  1  0  0  0  0
  4  5  1  0  0  0  0
  4 10  1  0  0  0  0
  5  6  2  0  0  0  0
  5  7  1  0  0  0  0
  6 49  1  0  0  0  0
  7  8  2  0  0  0  0
  7  9  1  0  0  0  0
  9 10  1  0  0  0  0
 10 11  1  0  0  0  0
 10 19  1  0  0  0  0
 11 12  2  0  0  0  0
 11 16  1  0  0  0  0
 12 13  1  0  0  0  0
 12 50  1  0  0  0  0
 13 14  2  0  0  0  0
 13 36  1  0  0  0  0
 14 15  1  0  0  0  0
 14 35  1  0  0  0  0
 15 16  2  0  0  0  0
 15 51  1  0  0  0  0
 16 17  1  0  0  0  0
 17 18  1  0  0  0  0
 18 19  2  0  0  0  0
 18 23  1  0  0  0  0
 19 20  1  0  0  0  0
 20 21  2  0  0  0  0
 20 52  1  0  0  0  0
 21 22  1  0  0  0  0
 21 25  1  0  0  0  0
 22 23  2  0  0  0  0
 22 24  1  0  0  0  0
 23 53  1  0  0  0  0
 24 54  1  0  0  0  0
 25 26  1  0  0  0  0
 25 55  1  0  0  0  0
 25 56  1  0  0  0  0
 26 27  1  0  0  0  0
 26 31  1  0  0  0  0
 27 28  1  0  0  0  0
 27 57  1  0  0  0  0
 27 58  1  0  0  0  0
 28 29  2  0  0  0  0
 28 30  1  0  0  0  0
 30 59  1  0  0  0  0
 31 32  1  0  0  0  0
 31 60  1  0  0  0  0
 31 61  1  0  0  0  0
 32 33  2  0  0  0  0
 32 34  1  0  0  0  0
 34 62  1  0  0  0  0
 35 63  1  0  0  0  0
 36 37  1  0  0  0  0
 36 64  1  0  0  0  0
 36 65  1  0  0  0  0
 37 38  1  0  0  0  0
 37 42  1  0  0  0  0
 38 39  1  0  0  0  0
 38 66  1  0  0  0  0
 38 67  1  0  0  0  0
 39 40  2  0  0  0  0
 39 41  1  0  0  0  0
 41 68  1  0  0  0  0
 42 43  1  0  0  0  0
 42 69  1  0  0  0  0
 42 70  1  0  0  0  0
 43 44  2  0  0  0  0
 43 45  1  0  0  0  0
 45 71  1  0  0  0  0
M  END
>  <DRUGBANK_ID>
DB11184

>  <COMMON_NAME>
Oftasceine

>  <CAS_NUMBER>
1461-15-0

>  <UNII>
V0YM2B16TS

>  <SYNONYMS>
oftasce√≠na; Oftasceine

$$$$
