
 OpenBabel10282417072D

124127  0  0  0  0  0  0  0  0999 V2000
   -0.5844    3.5037    0.0000 C   0  0  2  0  0  0  0  0  0  0  0  0
   -0.5913    4.3441    0.0000 C   0  0  0  0  0  0  0  0  0  0  0  0
    0.1310    3.9205    0.0000 O   0  0  0  0  0  0  0  0  0  0  0  0
   -0.5844    2.6771    0.0000 C   0  0  0  0  0  0  0  0  0  0  0  0
   -1.2998    3.9205    0.0000 C   0  0  0  0  0  0  0  0  0  0  0  0
    0.1345    2.2707    0.0000 C   0  0  1  0  0  0  0  0  0  0  0  0
   -2.0118    3.5037    0.0000 C   0  0  1  0  0  0  0  0  0  0  0  0
   -1.2998    4.7401    0.0000 O   0  0  0  0  0  0  0  0  0  0  0  0
    0.1345    1.4441    0.0000 C   0  0  1  0  0  0  0  0  0  0  0  0
    0.8430    2.6806    0.0000 C   0  0  0  0  0  0  0  0  0  0  0  0
   -2.0118    2.6771    0.0000 C   0  0  2  0  0  0  0  0  0  0  0  0
   -2.7273    3.9205    0.0000 C   0  0  0  0  0  0  0  0  0  0  0  0
   -0.5844    1.0308    0.0000 C   0  0  2  0  0  0  0  0  0  0  0  0
    0.8395    1.0308    0.0000 O   0  0  0  0  0  0  0  0  0  0  0  0
   -2.7273    2.2707    0.0000 C   0  0  2  0  0  0  0  0  0  0  0  0
   -2.9646    3.1753    0.0000 O   0  0  0  0  0  0  0  0  0  0  0  0
   -0.5844    0.2077    0.0000 C   0  0  2  0  0  0  0  0  0  0  0  0
   -1.2998    1.4441    0.0000 C   0  0  0  0  0  0  0  0  0  0  0  0
   -2.7273    1.4441    0.0000 C   0  0  2  0  0  0  0  0  0  0  0  0
   -3.4392    2.6806    0.0000 C   0  0  0  0  0  0  0  0  0  0  0  0
    0.1345   -0.2021    0.0000 O   0  0  0  0  0  0  0  0  0  0  0  0
   -1.2998   -0.2021    0.0000 C   0  0  2  0  0  0  0  0  0  0  0  0
   -2.0118    1.0308    0.0000 O   0  0  0  0  0  0  0  0  0  0  0  0
   -3.4428    1.0273    0.0000 C   0  0  0  0  0  0  0  0  0  0  0  0
   -2.0118    0.2077    0.0000 C   0  0  0  0  0  0  0  0  0  0  0  0
   -1.2998   -1.0253    0.0000 C   0  0  0  0  0  0  0  0  0  0  0  0
   -2.7273   -0.2021    0.0000 O   0  0  0  0  0  0  0  0  0  0  0  0
    0.1329   -1.0253    0.0000 C   0  0  1  0  0  0  0  0  0  0  0  0
   -0.5864   -1.4393    0.0000 C   0  0  0  0  0  0  0  0  0  0  0  0
    0.8432   -1.4378    0.0000 O   0  0  0  0  0  0  0  0  0  0  0  0
   -0.5835   -2.2591    0.0000 C   0  0  1  0  0  0  0  0  0  0  0  0
    0.8432   -2.2594    0.0000 C   0  0  2  0  0  0  0  0  0  0  0  0
    0.1238   -2.6735    0.0000 C   0  0  2  0  0  0  0  0  0  0  0  0
   -1.2950   -2.6727    0.0000 O   0  0  0  0  0  0  0  0  0  0  0  0
    1.5536   -2.6720    0.0000 C   0  0  0  0  0  0  0  0  0  0  0  0
    0.1268   -3.4933    0.0000 O   0  0  0  0  0  0  0  0  0  0  0  0
   -2.0084   -2.2618    0.0000 C   0  0  0  0  0  0  0  0  0  0  0  0
    1.5537    0.6215    0.0000 C   0  0  1  0  0  0  0  0  0  0  0  0
    2.2648    1.0347    0.0000 C   0  0  1  0  0  0  0  0  0  0  0  0
    1.5567   -0.2010    0.0000 O   0  0  0  0  0  0  0  0  0  0  0  0
    2.9791    0.6252    0.0000 C   0  0  2  0  0  0  0  0  0  0  0  0
    2.2594    1.8668    0.0000 O   0  0  0  0  0  0  0  0  0  0  0  0
    2.2678   -0.6086    0.0000 C   0  0  1  0  0  0  0  0  0  0  0  0
    2.9791   -0.1955    0.0000 C   0  0  0  0  0  0  0  0  0  0  0  0
    3.6902    1.0383    0.0000 N   0  0  0  0  0  0  0  0  0  0  0  0
    3.6812    1.8644    0.0000 C   0  0  0  0  0  0  0  0  0  0  0  0
    4.4014    0.6306    0.0000 C   0  0  0  0  0  0  0  0  0  0  0  0
    2.2701   -1.4317    0.0000 C   0  0  0  0  0  0  0  0  0  0  0  0
    2.2594    2.6963    0.0000 C   0  0  0  0  0  0  0  0  0  0  0  0
    1.5410    3.1110    0.0000 C   0  0  0  0  0  0  0  0  0  0  0  0
    2.9778    3.1110    0.0000 O   0  0  0  0  0  0  0  0  0  0  0  0
   -0.5899   -3.9106    0.0000 C   0  0  0  0  0  0  0  0  0  0  0  0
   -0.5870   -4.7401    0.0000 O   0  0  0  0  0  0  0  0  0  0  0  0
   -1.3098   -3.4985    0.0000 C   0  0  0  0  0  0  0  0  0  0  0  0
   -3.6831    3.5901    0.0000 C   0  0  0  0  0  0  0  0  0  0  0  0
   -4.4014    3.1753    0.0000 C   0  0  0  0  0  0  0  0  0  0  0  0
   -3.6831    4.4195    0.0000 O   0  0  0  0  0  0  0  0  0  0  0  0
   -1.1270    5.2704    0.0000 H   0  0  0  0  0  0  0  0  0  0  0  0
    0.1676    5.0984    0.0000 H   0  0  0  0  0  0  0  0  0  0  0  0
   -1.5086    2.1379    0.0000 H   0  0  0  0  0  0  0  0  0  0  0  0
   -0.5771    1.6071    0.0000 H   0  0  0  0  0  0  0  0  0  0  0  0
    0.1292    3.3407    0.0000 H   0  0  0  0  0  0  0  0  0  0  0  0
   -2.0129    4.5737    0.0000 H   0  0  0  0  0  0  0  0  0  0  0  0
    1.0629    1.9760    0.0000 H   0  0  0  0  0  0  0  0  0  0  0  0
    1.7701    2.1464    0.0000 H   0  0  0  0  0  0  0  0  0  0  0  0
    0.8420    3.7506    0.0000 H   0  0  0  0  0  0  0  0  0  0  0  0
    1.7692    3.2164    0.0000 H   0  0  0  0  0  0  0  0  0  0  0  0
   -2.5661    3.5924    0.0000 H   0  0  0  0  0  0  0  0  0  0  0  0
   -2.7232    4.9905    0.0000 H   0  0  0  0  0  0  0  0  0  0  0  0
   -3.6560    3.3891    0.0000 H   0  0  0  0  0  0  0  0  0  0  0  0
   -3.6519    4.4591    0.0000 H   0  0  0  0  0  0  0  0  0  0  0  0
   -0.5833    2.1008    0.0000 H   0  0  0  0  0  0  0  0  0  0  0  0
   -2.7242    3.3407    0.0000 H   0  0  0  0  0  0  0  0  0  0  0  0
    0.3408    0.7452    0.0000 H   0  0  0  0  0  0  0  0  0  0  0  0
   -1.2995    2.5141    0.0000 H   0  0  0  0  0  0  0  0  0  0  0  0
   -2.2266    0.9094    0.0000 H   0  0  0  0  0  0  0  0  0  0  0  0
   -2.2263    1.9794    0.0000 H   0  0  0  0  0  0  0  0  0  0  0  0
   -3.6550    1.9773    0.0000 H   0  0  0  0  0  0  0  0  0  0  0  0
   -3.4405    3.7506    0.0000 H   0  0  0  0  0  0  0  0  0  0  0  0
   -4.3652    2.1445    0.0000 H   0  0  0  0  0  0  0  0  0  0  0  0
   -4.3665    3.2145    0.0000 H   0  0  0  0  0  0  0  0  0  0  0  0
   -0.3741   -0.7387    0.0000 H   0  0  0  0  0  0  0  0  0  0  0  0
   -4.3715    1.5587    0.0000 H   0  0  0  0  0  0  0  0  0  0  0  0
   -3.4387   -0.0427    0.0000 H   0  0  0  0  0  0  0  0  0  0  0  0
   -4.3674    0.4887    0.0000 H   0  0  0  0  0  0  0  0  0  0  0  0
   -2.2264   -1.5603    0.0000 H   0  0  0  0  0  0  0  0  0  0  0  0
   -0.3732   -1.5603    0.0000 H   0  0  0  0  0  0  0  0  0  0  0  0
   -1.2998   -2.0953    0.0000 H   0  0  0  0  0  0  0  0  0  0  0  0
   -0.7929   -0.4888    0.0000 H   0  0  0  0  0  0  0  0  0  0  0  0
   -1.5136   -0.9053    0.0000 H   0  0  0  0  0  0  0  0  0  0  0  0
   -1.5118   -1.9764    0.0000 H   0  0  0  0  0  0  0  0  0  0  0  0
   -1.5119   -1.7271    0.0000 H   0  0  0  0  0  0  0  0  0  0  0  0
    1.7705   -1.7256    0.0000 H   0  0  0  0  0  0  0  0  0  0  0  0
   -0.8036   -3.2072    0.0000 H   0  0  0  0  0  0  0  0  0  0  0  0
    1.5508   -3.7420    0.0000 H   0  0  0  0  0  0  0  0  0  0  0  0
    2.4816   -2.1394    0.0000 H   0  0  0  0  0  0  0  0  0  0  0  0
    2.4789   -3.2094    0.0000 H   0  0  0  0  0  0  0  0  0  0  0  0
   -2.0095   -1.1918    0.0000 H   0  0  0  0  0  0  0  0  0  0  0  0
   -2.9345   -2.7978    0.0000 H   0  0  0  0  0  0  0  0  0  0  0  0
   -2.9356   -1.7278    0.0000 H   0  0  0  0  0  0  0  0  0  0  0  0
    1.5505    1.6915    0.0000 H   0  0  0  0  0  0  0  0  0  0  0  0
    1.3357    1.5654    0.0000 H   0  0  0  0  0  0  0  0  0  0  0  0
    2.9760    1.6952    0.0000 H   0  0  0  0  0  0  0  0  0  0  0  0
    1.3427   -1.1463    0.0000 H   0  0  0  0  0  0  0  0  0  0  0  0
    3.9064   -0.7293    0.0000 H   0  0  0  0  0  0  0  0  0  0  0  0
    2.9812   -1.2655    0.0000 H   0  0  0  0  0  0  0  0  0  0  0  0
    4.6020    2.4095    0.0000 H   0  0  0  0  0  0  0  0  0  0  0  0
    2.7488    2.3893    0.0000 H   0  0  0  0  0  0  0  0  0  0  0  0
    3.6695    2.9343    0.0000 H   0  0  0  0  0  0  0  0  0  0  0  0
    4.4047   -0.4394    0.0000 H   0  0  0  0  0  0  0  0  0  0  0  0
    5.3264    1.1684    0.0000 H   0  0  0  0  0  0  0  0  0  0  0  0
    5.3297    0.0985    0.0000 H   0  0  0  0  0  0  0  0  0  0  0  0
    1.3450   -1.9693    0.0000 H   0  0  0  0  0  0  0  0  0  0  0  0
    3.1982   -1.9641    0.0000 H   0  0  0  0  0  0  0  0  0  0  0  0
    2.2731   -2.5017    0.0000 H   0  0  0  0  0  0  0  0  0  0  0  0
    1.5409    4.1810    0.0000 H   0  0  0  0  0  0  0  0  0  0  0  0
    0.6144    2.5759    0.0000 H   0  0  0  0  0  0  0  0  0  0  0  0
    0.6143    3.6459    0.0000 H   0  0  0  0  0  0  0  0  0  0  0  0
   -1.3137   -2.4285    0.0000 H   0  0  0  0  0  0  0  0  0  0  0  0
   -2.2345   -4.0369    0.0000 H   0  0  0  0  0  0  0  0  0  0  0  0
   -2.2384   -2.9669    0.0000 H   0  0  0  0  0  0  0  0  0  0  0  0
   -5.3281    3.7102    0.0000 H   0  0  0  0  0  0  0  0  0  0  0  0
   -4.4013    2.1053    0.0000 H   0  0  0  0  0  0  0  0  0  0  0  0
   -5.3280    2.6402    0.0000 H   0  0  0  0  0  0  0  0  0  0  0  0
  1  2  1  0  0  0  0
  1  3  1  1  0  0  0
  1  4  1  0  0  0  0
  1  5  1  0  0  0  0
  2  3  1  0  0  0  0
  2 58  1  0  0  0  0
  2 59  1  0  0  0  0
  4  6  1  0  0  0  0
  4 60  1  0  0  0  0
  4 61  1  0  0  0  0
  5  7  1  0  0  0  0
  5  8  2  0  0  0  0
  6  9  1  0  0  0  0
  6 10  1  0  0  0  0
  6 62  1  1  0  0  0
  7 11  1  0  0  0  0
  7 12  1  0  0  0  0
  7 63  1  6  0  0  0
  9 13  1  0  0  0  0
  9 14  1  0  0  0  0
  9 64  1  1  0  0  0
 10 65  1  0  0  0  0
 10 66  1  0  0  0  0
 10 67  1  0  0  0  0
 11 15  1  0  0  0  0
 11 16  1  0  0  0  0
 11 68  1  1  0  0  0
 12 69  1  0  0  0  0
 12 70  1  0  0  0  0
 12 71  1  0  0  0  0
 13 17  1  0  0  0  0
 13 18  1  0  0  0  0
 13 72  1  1  0  0  0
 15 19  1  0  0  0  0
 15 20  1  0  0  0  0
 15 73  1  1  0  0  0
 16 55  1  0  0  0  0
 17 21  1  0  0  0  0
 17 22  1  0  0  0  0
 17 74  1  1  0  0  0
 18 75  1  0  0  0  0
 18 76  1  0  0  0  0
 18 77  1  0  0  0  0
 19 23  1  0  0  0  0
 19 24  1  0  0  0  0
 19 78  1  1  0  0  0
 20 79  1  0  0  0  0
 20 80  1  0  0  0  0
 20 81  1  0  0  0  0
 22 25  1  0  0  0  0
 22 26  1  0  0  0  0
 22 82  1  6  0  0  0
 23 25  1  0  0  0  0
 24 83  1  0  0  0  0
 24 84  1  0  0  0  0
 24 85  1  0  0  0  0
 25 27  2  0  0  0  0
 26 86  1  0  0  0  0
 26 87  1  0  0  0  0
 26 88  1  0  0  0  0
 28 29  1  0  0  0  0
 28 30  1  0  0  0  0
 28 21  1  0  0  0  0
 28 89  1  1  0  0  0
 29 31  1  0  0  0  0
 29 90  1  0  0  0  0
 29 91  1  0  0  0  0
 30 32  1  0  0  0  0
 31 33  1  0  0  0  0
 31 34  1  0  0  0  0
 31 92  1  6  0  0  0
 32 35  1  0  0  0  0
 32 33  1  0  0  0  0
 32 93  1  6  0  0  0
 33 36  1  0  0  0  0
 33 94  1  1  0  0  0
 34 37  1  0  0  0  0
 35 95  1  0  0  0  0
 35 96  1  0  0  0  0
 35 97  1  0  0  0  0
 36 52  1  0  0  0  0
 37 98  1  0  0  0  0
 37 99  1  0  0  0  0
 37100  1  0  0  0  0
 38 39  1  0  0  0  0
 38 40  1  0  0  0  0
 38 14  1  0  0  0  0
 38101  1  6  0  0  0
 39 41  1  0  0  0  0
 39 42  1  0  0  0  0
 39102  1  1  0  0  0
 40 43  1  0  0  0  0
 41 44  1  0  0  0  0
 41 45  1  0  0  0  0
 41103  1  6  0  0  0
 42 49  1  0  0  0  0
 43 44  1  0  0  0  0
 43 48  1  0  0  0  0
 43104  1  6  0  0  0
 44105  1  0  0  0  0
 44106  1  0  0  0  0
 45 46  1  0  0  0  0
 45 47  1  0  0  0  0
 46107  1  0  0  0  0
 46108  1  0  0  0  0
 46109  1  0  0  0  0
 47110  1  0  0  0  0
 47111  1  0  0  0  0
 47112  1  0  0  0  0
 48113  1  0  0  0  0
 48114  1  0  0  0  0
 48115  1  0  0  0  0
 49 50  1  0  0  0  0
 49 51  2  0  0  0  0
 50116  1  0  0  0  0
 50117  1  0  0  0  0
 50118  1  0  0  0  0
 52 53  2  0  0  0  0
 52 54  1  0  0  0  0
 54119  1  0  0  0  0
 54120  1  0  0  0  0
 54121  1  0  0  0  0
 55 56  1  0  0  0  0
 55 57  2  0  0  0  0
 56122  1  0  0  0  0
 56123  1  0  0  0  0
 56124  1  0  0  0  0
M  END
>  <DRUGBANK_ID>
DB13179

>  <SECONDARY_ACCESSION_NUMBERS>
DB01361

>  <COMMON_NAME>
Troleandomycin

>  <CAS_NUMBER>
2751-09-9

>  <UNII>
C4DZ64560D

>  <SYNONYMS>
Oleandocetine; Oleandomycin triacetate; Oleandomycin triacetyl ester; Triacetyloleandomycin; Triacetyloleandomycinum; Tribiocillina; Troleandomicina; Troleandomycin; Troleandomycine

$$$$
