
 OpenBabel10282417072D

 42 44  0  0  0  0  0  0  0  0999 V2000
    0.0000    1.6500    0.0000 N   0  0  0  0  0  0  0  0  0  0  0  0
    0.0000    0.8250    0.0000 C   0  0  0  0  0  0  0  0  0  0  0  0
    0.7144    0.4125    0.0000 C   0  0  0  0  0  0  0  0  0  0  0  0
    0.7144   -0.4125    0.0000 C   0  0  0  0  0  0  0  0  0  0  0  0
    0.0000   -0.8250    0.0000 C   0  0  0  0  0  0  0  0  0  0  0  0
    0.0000   -1.6500    0.0000 N   0  0  0  0  0  0  0  0  0  0  0  0
   -0.7144   -2.0625    0.0000 C   0  0  0  0  0  0  0  0  0  0  0  0
   -0.7144   -2.8875    0.0000 C   0  0  0  0  0  0  0  0  0  0  0  0
   -1.4289   -3.3000    0.0000 C   0  0  0  0  0  0  0  0  0  0  0  0
   -2.1434   -2.8875    0.0000 C   0  0  0  0  0  0  0  0  0  0  0  0
   -2.1434   -2.0625    0.0000 C   0  0  0  0  0  0  0  0  0  0  0  0
   -1.4289   -1.6500    0.0000 C   0  0  0  0  0  0  0  0  0  0  0  0
   -0.7144   -0.4125    0.0000 C   0  0  0  0  0  0  0  0  0  0  0  0
   -0.7144    0.4125    0.0000 C   0  0  0  0  0  0  0  0  0  0  0  0
    0.7144    2.0625    0.0000 C   0  0  0  0  0  0  0  0  0  0  0  0
    0.7144    2.8875    0.0000 C   0  0  0  0  0  0  0  0  0  0  0  0
    1.4289    3.3000    0.0000 C   0  0  0  0  0  0  0  0  0  0  0  0
    2.1434    2.8875    0.0000 C   0  0  0  0  0  0  0  0  0  0  0  0
    2.1434    2.0625    0.0000 C   0  0  0  0  0  0  0  0  0  0  0  0
    1.4289    1.6500    0.0000 C   0  0  0  0  0  0  0  0  0  0  0  0
   -0.8526    2.1422    0.0000 H   0  0  0  0  0  0  0  0  0  0  0  0
    1.6081    0.9285    0.0000 H   0  0  0  0  0  0  0  0  0  0  0  0
    1.6081   -0.9285    0.0000 H   0  0  0  0  0  0  0  0  0  0  0  0
    0.8526   -2.1422    0.0000 H   0  0  0  0  0  0  0  0  0  0  0  0
    0.1793   -3.4035    0.0000 H   0  0  0  0  0  0  0  0  0  0  0  0
   -1.4289   -4.3320    0.0000 H   0  0  0  0  0  0  0  0  0  0  0  0
   -3.0371   -3.4035    0.0000 H   0  0  0  0  0  0  0  0  0  0  0  0
   -3.0371   -1.5465    0.0000 H   0  0  0  0  0  0  0  0  0  0  0  0
   -1.4289   -0.6180    0.0000 H   0  0  0  0  0  0  0  0  0  0  0  0
   -1.6081   -0.9285    0.0000 H   0  0  0  0  0  0  0  0  0  0  0  0
   -1.6081    0.9285    0.0000 H   0  0  0  0  0  0  0  0  0  0  0  0
    1.6410    2.5975    0.0000 H   0  0  0  0  0  0  0  0  0  0  0  0
   -0.2122    3.4225    0.0000 H   0  0  0  0  0  0  0  0  0  0  0  0
    0.7144    3.9575    0.0000 H   0  0  0  0  0  0  0  0  0  0  0  0
    1.4289    4.3700    0.0000 H   0  0  0  0  0  0  0  0  0  0  0  0
    2.3555    3.8350    0.0000 H   0  0  0  0  0  0  0  0  0  0  0  0
    3.0700    3.4225    0.0000 H   0  0  0  0  0  0  0  0  0  0  0  0
    3.0700    2.3525    0.0000 H   0  0  0  0  0  0  0  0  0  0  0  0
    3.0700    1.5275    0.0000 H   0  0  0  0  0  0  0  0  0  0  0  0
    2.1434    0.9925    0.0000 H   0  0  0  0  0  0  0  0  0  0  0  0
    1.4289    0.5800    0.0000 H   0  0  0  0  0  0  0  0  0  0  0  0
    0.5023    1.1150    0.0000 H   0  0  0  0  0  0  0  0  0  0  0  0
  1  2  1  0  0  0  0
  1 15  1  0  0  0  0
  1 21  1  0  0  0  0
  2  3  2  0  0  0  0
  2 14  1  0  0  0  0
  3  4  1  0  0  0  0
  3 22  1  0  0  0  0
  4  5  2  0  0  0  0
  4 23  1  0  0  0  0
  5  6  1  0  0  0  0
  5 13  1  0  0  0  0
  6  7  1  0  0  0  0
  6 24  1  0  0  0  0
  7  8  2  0  0  0  0
  7 12  1  0  0  0  0
  8  9  1  0  0  0  0
  8 25  1  0  0  0  0
  9 10  2  0  0  0  0
  9 26  1  0  0  0  0
 10 11  1  0  0  0  0
 10 27  1  0  0  0  0
 11 12  2  0  0  0  0
 11 28  1  0  0  0  0
 12 29  1  0  0  0  0
 13 14  2  0  0  0  0
 13 30  1  0  0  0  0
 14 31  1  0  0  0  0
 15 16  1  0  0  0  0
 15 20  1  0  0  0  0
 15 32  1  0  0  0  0
 16 17  1  0  0  0  0
 16 33  1  0  0  0  0
 16 34  1  0  0  0  0
 17 18  1  0  0  0  0
 17 35  1  0  0  0  0
 17 36  1  0  0  0  0
 18 19  1  0  0  0  0
 18 37  1  0  0  0  0
 18 38  1  0  0  0  0
 19 20  1  0  0  0  0
 19 39  1  0  0  0  0
 19 40  1  0  0  0  0
 20 41  1  0  0  0  0
 20 42  1  0  0  0  0
M  END
>  <DRUGBANK_ID>
DB14196

>  <COMMON_NAME>
N-Cyclohexyl-N'-phenyl-1,4-phenylenediamine

>  <CAS_NUMBER>
101-87-1

>  <UNII>
T29JGK5V4R

>  <SYNONYMS>
CPPD; N-Cyclohexyl-N'-phenyl-1,4-phenylenediamine; N-Cyclohexyl-N'-phenyl-p-phenylendiamine; N-cyclohexyl-N'-phenyl-p-phenylenediamine

$$$$
