500
 OpenBabel10282417072D

 34 35  0  0  0  0  0  0  0  0999 V2000
    1.6500    0.5368    0.0000 O   0  0  0  0  0  0  0  0  0  0  0  0
    5.4638    3.1223    0.0000 O   0  0  0  0  0  0  0  0  0  0  0  0
    5.6132    1.7013    0.0000 O   0  0  0  0  0  0  0  0  0  0  0  0
    3.1652    1.3572    0.0000 N   0  0  0  0  0  0  0  0  0  0  0  0
    3.9722    1.5287    0.0000 C   0  0  0  0  0  0  0  0  0  0  0  0
    3.0790    0.5368    0.0000 C   0  0  0  0  0  0  0  0  0  0  0  0
    4.3847    0.8143    0.0000 C   0  0  0  0  0  0  0  0  0  0  0  0
    3.8327    0.2011    0.0000 C   0  0  0  0  0  0  0  0  0  0  0  0
    4.3078    2.2824    0.0000 C   0  0  0  0  0  0  0  0  0  0  0  0
    2.3645    0.1242    0.0000 C   0  0  0  0  0  0  0  0  0  0  0  0
    2.5521    1.9092    0.0000 C   0  0  0  0  0  0  0  0  0  0  0  0
    2.3645   -0.7008    0.0000 C   0  0  0  0  0  0  0  0  0  0  0  0
    1.6500   -1.1133    0.0000 C   0  0  0  0  0  0  0  0  0  0  0  0
    3.0790   -1.1133    0.0000 C   0  0  0  0  0  0  0  0  0  0  0  0
    2.3645   -2.3508    0.0000 C   0  0  0  0  0  0  0  0  0  0  0  0
    1.6500   -1.9383    0.0000 C   0  0  0  0  0  0  0  0  0  0  0  0
    3.0790   -1.9383    0.0000 C   0  0  0  0  0  0  0  0  0  0  0  0
    5.1283    2.3687    0.0000 C   0  0  0  0  0  0  0  0  0  0  0  0
    2.3645   -3.1758    0.0000 C   0  0  0  0  0  0  0  0  0  0  0  0
    6.3957    3.2203    0.0000 H   0  0  0  0  0  0  0  0  0  0  0  0
    5.4111    0.7065    0.0000 H   0  0  0  0  0  0  0  0  0  0  0  0
    4.0472   -0.8084    0.0000 H   0  0  0  0  0  0  0  0  0  0  0  0
    3.6789    3.1480    0.0000 H   0  0  0  0  0  0  0  0  0  0  0  0
    4.7430    3.2599    0.0000 H   0  0  0  0  0  0  0  0  0  0  0  0
    2.7745    2.9558    0.0000 H   0  0  0  0  0  0  0  0  0  0  0  0
    1.5345    1.5785    0.0000 H   0  0  0  0  0  0  0  0  0  0  0  0
    1.7569    2.6251    0.0000 H   0  0  0  0  0  0  0  0  0  0  0  0
    0.7563   -0.5973    0.0000 H   0  0  0  0  0  0  0  0  0  0  0  0
    3.9727   -0.5973    0.0000 H   0  0  0  0  0  0  0  0  0  0  0  0
    0.7563   -2.4543    0.0000 H   0  0  0  0  0  0  0  0  0  0  0  0
    3.9727   -2.4543    0.0000 H   0  0  0  0  0  0  0  0  0  0  0  0
    1.4379   -3.7108    0.0000 H   0  0  0  0  0  0  0  0  0  0  0  0
    3.2911   -3.7108    0.0000 H   0  0  0  0  0  0  0  0  0  0  0  0
    2.3645   -4.2458    0.0000 H   0  0  0  0  0  0  0  0  0  0  0  0
  1 10  2  0  0  0  0
  2 18  1  0  0  0  0
  2 20  1  0  0  0  0
  3 18  2  0  0  0  0
  4  5  1  0  0  0  0
  4  6  1  0  0  0  0
  4 11  1  0  0  0  0
  5  7  2  0  0  0  0
  5  9  1  0  0  0  0
  6  8  2  0  0  0  0
  6 10  1  0  0  0  0
  7  8  1  0  0  0  0
  7 21  1  0  0  0  0
  8 22  1  0  0  0  0
  9 18  1  0  0  0  0
  9 23  1  0  0  0  0
  9 24  1  0  0  0  0
 10 12  1  0  0  0  0
 11 25  1  0  0  0  0
 11 26  1  0  0  0  0
 11 27  1  0  0  0  0
 12 13  2  0  0  0  0
 12 14  1  0  0  0  0
 13 16  1  0  0  0  0
 13 28  1  0  0  0  0
 14 17  2  0  0  0  0
 14 29  1  0  0  0  0
 15 16  2  0  0  0  0
 15 17  1  0  0  0  0
 15 19  1  0  0  0  0
 16 30  1  0  0  0  0
 17 31  1  0  0  0  0
 19 32  1  0  0  0  0
 19 33  1  0  0  0  0
 19 34  1  0  0  0  0
M  END
>  <DRUGBANK_ID>
DB00500

>  <SECONDARY_ACCESSION_NUMBERS>
APRD01268

>  <COMMON_NAME>
Tolmetin

>  <CAS_NUMBER>
26171-23-3

>  <UNII>
D8K2JPN18B

>  <SYNONYMS>
1-Methyl-5-(4-methylbenzoyl)-pyrrole-2-acetic acid; 1-Methyl-5-p-toluoylpyrrole-2-acetic acid; 5-(p-Toluoyl)-1-methylpyrrole-2-acetic acid; Tolmetin; Tolmetina; Tolm√©tine; Tolmetino; Tolmetinum

$$$$
