
 OpenBabel10282417072D

 51 52  0  0  0  0  0  0  0  0999 V2000
   -2.8579    5.7750    0.0000 C   0  0  0  0  0  0  0  0  0  0  0  0
   -5.7158    9.0750    0.0000 C   0  0  0  0  0  0  0  0  0  0  0  0
   -5.4138    7.9480    0.0000 C   0  0  0  0  0  0  0  0  0  0  0  0
   -4.5888    9.3770    0.0000 C   0  0  0  0  0  0  0  0  0  0  0  0
   -1.4289    3.3000    0.0000 C   0  0  0  0  0  0  0  0  0  0  0  0
   -0.7145    3.7125    0.0000 C   0  0  0  0  0  0  0  0  0  0  0  0
   -2.1434    3.7125    0.0000 C   0  0  0  0  0  0  0  0  0  0  0  0
   -2.8579    8.2500    0.0000 C   0  0  0  0  0  0  0  0  0  0  0  0
   -3.5724    7.0125    0.0000 C   0  0  0  0  0  0  0  0  0  0  0  0
   -3.5724    8.6625    0.0000 C   0  0  0  0  0  0  0  0  0  0  0  0
   -4.2868    7.4250    0.0000 C   0  0  0  0  0  0  0  0  0  0  0  0
   -0.7145    4.5375    0.0000 C   0  0  0  0  0  0  0  0  0  0  0  0
   -2.1434    4.5375    0.0000 C   0  0  0  0  0  0  0  0  0  0  0  0
   -2.1434    7.0125    0.0000 C   0  0  0  0  0  0  0  0  0  0  0  0
   -1.4289    5.7750    0.0000 C   0  0  0  0  0  0  0  0  0  0  0  0
   -2.1434    6.1875    0.0000 C   0  0  3  0  0  0  0  0  0  0  0  0
   -2.8579    7.4250    0.0000 C   0  0  0  0  0  0  0  0  0  0  0  0
   -4.2868    8.2500    0.0000 C   0  0  0  0  0  0  0  0  0  0  0  0
   -5.0013    8.6625    0.0000 C   0  0  0  0  0  0  0  0  0  0  0  0
   -1.4289    4.9500    0.0000 N   0  0  0  0  0  0  0  0  0  0  0  0
   -3.7845    6.3100    0.0000 H   0  0  0  0  0  0  0  0  0  0  0  0
   -2.8579    4.7050    0.0000 H   0  0  0  0  0  0  0  0  0  0  0  0
   -3.7846    5.2400    0.0000 H   0  0  0  0  0  0  0  0  0  0  0  0
   -5.7158   10.1450    0.0000 H   0  0  0  0  0  0  0  0  0  0  0  0
   -6.6424    8.5400    0.0000 H   0  0  0  0  0  0  0  0  0  0  0  0
   -6.6425    9.6100    0.0000 H   0  0  0  0  0  0  0  0  0  0  0  0
   -6.4838    7.9480    0.0000 H   0  0  0  0  0  0  0  0  0  0  0  0
   -4.8788    7.0214    0.0000 H   0  0  0  0  0  0  0  0  0  0  0  0
   -5.9488    7.0213    0.0000 H   0  0  0  0  0  0  0  0  0  0  0  0
   -3.5188    9.3770    0.0000 H   0  0  0  0  0  0  0  0  0  0  0  0
   -5.1238   10.3036    0.0000 H   0  0  0  0  0  0  0  0  0  0  0  0
   -4.0538   10.3037    0.0000 H   0  0  0  0  0  0  0  0  0  0  0  0
   -1.4289    2.2300    0.0000 H   0  0  0  0  0  0  0  0  0  0  0  0
   -2.3555    2.7650    0.0000 H   0  0  0  0  0  0  0  0  0  0  0  0
    0.2122    3.1775    0.0000 H   0  0  0  0  0  0  0  0  0  0  0  0
    0.2121    4.2475    0.0000 H   0  0  0  0  0  0  0  0  0  0  0  0
   -3.0700    3.1775    0.0000 H   0  0  0  0  0  0  0  0  0  0  0  0
   -3.0700    4.2475    0.0000 H   0  0  0  0  0  0  0  0  0  0  0  0
   -1.9642    8.7660    0.0000 H   0  0  0  0  0  0  0  0  0  0  0  0
   -3.5724    5.9805    0.0000 H   0  0  0  0  0  0  0  0  0  0  0  0
   -3.5724    9.6945    0.0000 H   0  0  0  0  0  0  0  0  0  0  0  0
   -5.1805    6.9090    0.0000 H   0  0  0  0  0  0  0  0  0  0  0  0
    0.2122    5.0725    0.0000 H   0  0  0  0  0  0  0  0  0  0  0  0
   -0.7145    5.6075    0.0000 H   0  0  0  0  0  0  0  0  0  0  0  0
   -3.0700    5.0725    0.0000 H   0  0  0  0  0  0  0  0  0  0  0  0
   -2.1434    5.6075    0.0000 H   0  0  0  0  0  0  0  0  0  0  0  0
   -1.2168    7.5475    0.0000 H   0  0  0  0  0  0  0  0  0  0  0  0
   -2.1434    8.0825    0.0000 H   0  0  0  0  0  0  0  0  0  0  0  0
   -0.5023    6.3100    0.0000 H   0  0  0  0  0  0  0  0  0  0  0  0
   -0.5023    5.2400    0.0000 H   0  0  0  0  0  0  0  0  0  0  0  0
   -3.0700    6.7225    0.0000 H   0  0  0  0  0  0  0  0  0  0  0  0
  1 21  1  0  0  0  0
  1 22  1  0  0  0  0
  1 23  1  0  0  0  0
  2 24  1  0  0  0  0
  2 25  1  0  0  0  0
  2 26  1  0  0  0  0
  3 27  1  0  0  0  0
  3 28  1  0  0  0  0
  3 29  1  0  0  0  0
  4 30  1  0  0  0  0
  4 31  1  0  0  0  0
  4 32  1  0  0  0  0
  5 33  1  0  0  0  0
  5 34  1  0  0  0  0
  6  5  1  0  0  0  0
  6 35  1  0  0  0  0
  6 36  1  0  0  0  0
  7  5  1  0  0  0  0
  7 37  1  0  0  0  0
  7 38  1  0  0  0  0
  8 39  1  0  0  0  0
  9 40  1  0  0  0  0
 10  8  1  0  0  0  0
 10 41  1  0  0  0  0
 11  9  2  0  0  0  0
 11 42  1  0  0  0  0
 12  6  1  0  0  0  0
 12 43  1  0  0  0  0
 12 44  1  0  0  0  0
 13  7  1  0  0  0  0
 13 45  1  0  0  0  0
 13 46  1  0  0  0  0
 14 47  1  0  0  0  0
 14 48  1  0  0  0  0
 15 49  1  0  0  0  0
 15 50  1  0  0  0  0
 16  1  1  0  0  0  0
 16 14  1  0  0  0  0
 16 15  1  0  0  0  0
 16 51  1  0  0  0  0
 17  8  2  0  0  0  0
 17  9  1  0  0  0  0
 17 14  1  0  0  0  0
 18 10  2  0  0  0  0
 18 11  1  0  0  0  0
 19  2  1  0  0  0  0
 19  3  1  0  0  0  0
 19  4  1  0  0  0  0
 19 18  1  0  0  0  0
 20 12  1  0  0  0  0
 20 13  1  0  0  0  0
 20 15  1  0  0  0  0
M  END
>  <DRUGBANK_ID>
DB12728

>  <COMMON_NAME>
Fenpropidin

>  <CAS_NUMBER>
67306-00-7

>  <UNII>
845XW54F31

>  <SYNONYMS>
Patrol

$$$$
