RXC
 OpenBabel10282417072D

 41 43  0  0  0  0  0  0  0  0999 V2000
   -2.1607    2.9976    0.0000 O   0  0  0  0  0  0  0  0  0  0  0  0
   -1.4462    2.5851    0.0000 C   0  0  0  0  0  0  0  0  0  0  0  0
   -0.7318    2.9976    0.0000 N   0  0  0  0  0  0  0  0  0  0  0  0
   -0.0173    2.5851    0.0000 C   0  0  0  0  0  0  0  0  0  0  0  0
    0.6972    2.9976    0.0000 O   0  0  0  0  0  0  0  0  0  0  0  0
   -1.4462    1.7601    0.0000 C   0  0  0  0  0  0  0  0  0  0  0  0
   -0.7318    1.3476    0.0000 C   0  0  0  0  0  0  0  0  0  0  0  0
   -0.0173    1.7601    0.0000 C   0  0  0  0  0  0  0  0  0  0  0  0
    0.6972    1.3476    0.0000 O   0  0  0  0  0  0  0  0  0  0  0  0
   -2.1607    1.3476    0.0000 C   0  0  0  0  0  0  0  0  0  0  0  0
   -2.1607    0.5226    0.0000 C   0  0  0  0  0  0  0  0  0  0  0  0
   -1.4462    0.1101    0.0000 C   0  0  0  0  0  0  0  0  0  0  0  0
   -0.7318    0.5226    0.0000 C   0  0  0  0  0  0  0  0  0  0  0  0
   -0.0173    0.1101    0.0000 N   0  0  0  0  0  0  0  0  0  0  0  0
   -0.0173   -0.7149    0.0000 C   0  0  0  0  0  0  0  0  0  0  0  0
   -0.7318   -1.1274    0.0000 O   0  0  0  0  0  0  0  0  0  0  0  0
    0.6972   -1.1274    0.0000 C   0  0  1  0  0  0  0  0  0  0  0  0
    1.4116   -0.7149    0.0000 O   0  0  0  0  0  0  0  0  0  0  0  0
    1.4116    0.1101    0.0000 C   0  0  0  0  0  0  0  0  0  0  0  0
    0.6972    0.5226    0.0000 O   0  0  0  0  0  0  0  0  0  0  0  0
    2.1261    0.5226    0.0000 C   0  0  0  0  0  0  0  0  0  0  0  0
    0.6972   -1.9524    0.0000 C   0  0  0  0  0  0  0  0  0  0  0  0
    1.4116   -2.3649    0.0000 C   0  0  0  0  0  0  0  0  0  0  0  0
    1.4116   -3.1899    0.0000 C   0  0  0  0  0  0  0  0  0  0  0  0
    0.6972   -3.6024    0.0000 C   0  0  0  0  0  0  0  0  0  0  0  0
   -0.0173   -3.1899    0.0000 C   0  0  0  0  0  0  0  0  0  0  0  0
   -0.7318   -3.6024    0.0000 Cl  0  0  0  0  0  0  0  0  0  0  0  0
   -0.0173   -2.3649    0.0000 C   0  0  0  0  0  0  0  0  0  0  0  0
    0.6972   -0.5434    0.0000 H   0  0  0  0  0  0  0  0  0  0  0  0
   -0.7318    3.9821    0.0000 H   0  0  0  0  0  0  0  0  0  0  0  0
   -3.0544    1.8636    0.0000 H   0  0  0  0  0  0  0  0  0  0  0  0
   -3.0544    0.0066    0.0000 H   0  0  0  0  0  0  0  0  0  0  0  0
   -1.4462   -0.9219    0.0000 H   0  0  0  0  0  0  0  0  0  0  0  0
    0.8353    0.6024    0.0000 H   0  0  0  0  0  0  0  0  0  0  0  0
    3.0527   -0.0124    0.0000 H   0  0  0  0  0  0  0  0  0  0  0  0
    2.1261    1.5926    0.0000 H   0  0  0  0  0  0  0  0  0  0  0  0
    3.0528    1.0576    0.0000 H   0  0  0  0  0  0  0  0  0  0  0  0
    2.3053   -1.8489    0.0000 H   0  0  0  0  0  0  0  0  0  0  0  0
    2.3053   -3.7059    0.0000 H   0  0  0  0  0  0  0  0  0  0  0  0
    0.6972   -4.6344    0.0000 H   0  0  0  0  0  0  0  0  0  0  0  0
   -0.9110   -1.8489    0.0000 H   0  0  0  0  0  0  0  0  0  0  0  0
  1  2  2  0  0  0  0
  2  3  1  0  0  0  0
  2  6  1  0  0  0  0
  3  4  1  0  0  0  0
  3 30  1  0  0  0  0
  4  5  2  0  0  0  0
  4  8  1  0  0  0  0
  6  7  2  0  0  0  0
  6 10  1  0  0  0  0
  7  8  1  0  0  0  0
  7 13  1  0  0  0  0
  8  9  2  0  0  0  0
 10 11  2  0  0  0  0
 10 31  1  0  0  0  0
 11 12  1  0  0  0  0
 11 32  1  0  0  0  0
 12 13  2  0  0  0  0
 12 33  1  0  0  0  0
 13 14  1  0  0  0  0
 14 15  1  0  0  0  0
 14 34  1  0  0  0  0
 15 16  2  0  0  0  0
 15 17  1  0  0  0  0
 17 18  1  0  0  0  0
 17 22  1  0  0  0  0
 17 29  1  6  0  0  0
 18 19  1  0  0  0  0
 19 20  2  0  0  0  0
 19 21  1  0  0  0  0
 21 35  1  0  0  0  0
 21 36  1  0  0  0  0
 21 37  1  0  0  0  0
 22 23  2  0  0  0  0
 22 28  1  0  0  0  0
 23 24  1  0  0  0  0
 23 38  1  0  0  0  0
 24 25  2  0  0  0  0
 24 39  1  0  0  0  0
 25 26  1  0  0  0  0
 25 40  1  0  0  0  0
 26 27  1  0  0  0  0
 26 28  2  0  0  0  0
 28 41  1  0  0  0  0
M  END
>  <DRUGBANK_ID>
DB08498

>  <COMMON_NAME>
(1S)-1-(3-chlorophenyl)-2-oxo-2-[(1,3,4-trioxo-1,2,3,4-tetrahydroisoquinolin-5-yl)amino]ethyl acetate

$$$$
