IBR
 OpenBabel10282417072D

 28 28  0  0  0  0  0  0  0  0999 V2000
   -1.2722   -1.3651    0.0000 C   0  0  0  0  0  0  0  0  0  0  0  0
   -1.9867   -1.7776    0.0000 O   0  0  0  0  0  0  0  0  0  0  0  0
   -0.5577   -0.1276    0.0000 C   0  0  0  0  0  0  0  0  0  0  0  0
   -1.2722   -0.5401    0.0000 C   0  0  0  0  0  0  0  0  0  0  0  0
   -1.9867   -0.1276    0.0000 C   0  0  0  0  0  0  0  0  0  0  0  0
   -1.9867    0.6974    0.0000 C   0  0  0  0  0  0  0  0  0  0  0  0
   -1.2722    1.1099    0.0000 C   0  0  0  0  0  0  0  0  0  0  0  0
   -0.5577    0.6974    0.0000 C   0  0  0  0  0  0  0  0  0  0  0  0
   -2.7011    1.1099    0.0000 N   0  0  0  0  0  0  0  0  0  0  0  0
    0.8712   -0.1276    0.0000 C   0  0  0  0  0  0  0  0  0  0  0  0
    0.1568   -0.5401    0.0000 C   0  0  0  0  0  0  0  0  0  0  0  0
    1.5857   -0.5401    0.0000 O   0  0  0  0  0  0  0  0  0  0  0  0
    0.8712    0.6974    0.0000 O   0  0  0  0  0  0  0  0  0  0  0  0
    3.0146   -0.5401    0.0000 C   0  0  0  0  0  0  0  0  0  0  0  0
    2.3002   -0.1276    0.0000 C   0  0  0  0  0  0  0  0  0  0  0  0
    3.7291   -0.1276    0.0000 Br  0  0  0  0  0  0  0  0  0  0  0  0
   -0.3785   -1.8811    0.0000 H   0  0  0  0  0  0  0  0  0  0  0  0
   -2.8804   -0.6436    0.0000 H   0  0  0  0  0  0  0  0  0  0  0  0
   -1.2722    2.1419    0.0000 H   0  0  0  0  0  0  0  0  0  0  0  0
    0.3360    1.2134    0.0000 H   0  0  0  0  0  0  0  0  0  0  0  0
   -2.7011    2.0944    0.0000 H   0  0  0  0  0  0  0  0  0  0  0  0
   -3.5537    0.6177    0.0000 H   0  0  0  0  0  0  0  0  0  0  0  0
    0.1568   -1.6101    0.0000 H   0  0  0  0  0  0  0  0  0  0  0  0
    1.0835   -1.0751    0.0000 H   0  0  0  0  0  0  0  0  0  0  0  0
    3.0146   -1.6101    0.0000 H   0  0  0  0  0  0  0  0  0  0  0  0
    3.9412   -1.0751    0.0000 H   0  0  0  0  0  0  0  0  0  0  0  0
    2.3002    0.9424    0.0000 H   0  0  0  0  0  0  0  0  0  0  0  0
    3.2269    0.4074    0.0000 H   0  0  0  0  0  0  0  0  0  0  0  0
  1  2  2  0  0  0  0
  1  4  1  0  0  0  0
  1 17  1  0  0  0  0
  3  4  2  0  0  0  0
  3  8  1  0  0  0  0
  3 11  1  0  0  0  0
  4  5  1  0  0  0  0
  5  6  2  0  0  0  0
  5 18  1  0  0  0  0
  6  7  1  0  0  0  0
  6  9  1  0  0  0  0
  7  8  2  0  0  0  0
  7 19  1  0  0  0  0
  8 20  1  0  0  0  0
  9 21  1  0  0  0  0
  9 22  1  0  0  0  0
 10 11  1  0  0  0  0
 10 12  1  0  0  0  0
 10 13  2  0  0  0  0
 11 23  1  0  0  0  0
 11 24  1  0  0  0  0
 12 15  1  0  0  0  0
 14 15  1  0  0  0  0
 14 16  1  0  0  0  0
 14 25  1  0  0  0  0
 14 26  1  0  0  0  0
 15 27  1  0  0  0  0
 15 28  1  0  0  0  0
M  END
>  <DRUGBANK_ID>
DB07955

>  <COMMON_NAME>
(2-BROMOETHYL)(2-'FORMYL-4'-AMINOPHENYL) ACETATE

$$$$
