
 OpenBabel10282417072D

 55 57  0  0  0  0  0  0  0  0999 V2000
    0.7233   -1.6180    0.0000 C   0  0  0  0  0  0  0  0  0  0  0  0
   -4.7992    0.7511    0.0000 C   0  0  0  0  0  0  0  0  0  0  0  0
   -4.2051   -2.0443    0.0000 C   0  0  0  0  0  0  0  0  0  0  0  0
    0.0089   -1.2055    0.0000 C   0  0  0  0  0  0  0  0  0  0  0  0
   -2.1223    3.8254    0.0000 C   0  0  0  0  0  0  0  0  0  0  0  0
   -2.7354    3.2734    0.0000 C   0  0  0  0  0  0  0  0  0  0  0  0
   -1.3376    3.5705    0.0000 C   0  0  0  0  0  0  0  0  0  0  0  0
   -2.5638    2.4664    0.0000 C   0  0  0  0  0  0  0  0  0  0  0  0
   -1.1661    2.7635    0.0000 C   0  0  0  0  0  0  0  0  0  0  0  0
   -0.7056    0.0320    0.0000 C   0  0  0  0  0  0  0  0  0  0  0  0
   -1.4201   -0.3805    0.0000 C   0  0  0  0  0  0  0  0  0  0  0  0
    0.7233    0.0320    0.0000 C   0  0  0  0  0  0  0  0  0  0  0  0
    1.4378   -0.3805    0.0000 C   0  0  0  0  0  0  0  0  0  0  0  0
   -1.6077    1.4045    0.0000 C   0  0  0  0  0  0  0  0  0  0  0  0
   -1.7792    2.2115    0.0000 C   0  0  0  0  0  0  0  0  0  0  0  0
   -2.2208    0.8525    0.0000 C   0  0  0  0  0  0  0  0  0  0  0  0
   -2.8882   -0.3036    0.0000 C   0  0  0  0  0  0  0  0  0  0  0  0
   -3.4402    0.3095    0.0000 C   0  0  0  0  0  0  0  0  0  0  0  0
   -3.1432   -1.0882    0.0000 C   0  0  0  0  0  0  0  0  0  0  0  0
   -4.5022   -0.6466    0.0000 C   0  0  0  0  0  0  0  0  0  0  0  0
   -3.0277    1.0240    0.0000 N   0  0  0  0  0  0  0  0  0  0  0  0
   -4.2472    0.1380    0.0000 N   0  0  0  0  0  0  0  0  0  0  0  0
   -3.9501   -1.2597    0.0000 N   0  0  0  0  0  0  0  0  0  0  0  0
    0.0089   -0.3805    0.0000 N   0  0  0  0  0  0  0  0  0  0  0  0
   -2.1345    0.0320    0.0000 N   0  0  0  0  0  0  0  0  0  0  0  0
    2.1523    0.0320    0.0000 O   0  0  0  0  0  0  0  0  0  0  0  0
   -2.5911   -1.7013    0.0000 O   0  0  0  0  0  0  0  0  0  0  0  0
   -5.3091   -0.8181    0.0000 O   0  0  0  0  0  0  0  0  0  0  0  0
    0.7233   -2.6880    0.0000 H   0  0  0  0  0  0  0  0  0  0  0  0
    1.6500   -1.0830    0.0000 H   0  0  0  0  0  0  0  0  0  0  0  0
    1.6499   -2.1530    0.0000 H   0  0  0  0  0  0  0  0  0  0  0  0
   -4.4685    1.7687    0.0000 H   0  0  0  0  0  0  0  0  0  0  0  0
   -5.8458    0.5287    0.0000 H   0  0  0  0  0  0  0  0  0  0  0  0
   -5.5151    1.5463    0.0000 H   0  0  0  0  0  0  0  0  0  0  0  0
   -5.2517   -2.2667    0.0000 H   0  0  0  0  0  0  0  0  0  0  0  0
   -3.4892   -2.8395    0.0000 H   0  0  0  0  0  0  0  0  0  0  0  0
   -4.5358   -3.0619    0.0000 H   0  0  0  0  0  0  0  0  0  0  0  0
   -0.9178   -1.7405    0.0000 H   0  0  0  0  0  0  0  0  0  0  0  0
   -0.9177   -0.6705    0.0000 H   0  0  0  0  0  0  0  0  0  0  0  0
   -2.3369    4.8348    0.0000 H   0  0  0  0  0  0  0  0  0  0  0  0
   -3.7169    3.5923    0.0000 H   0  0  0  0  0  0  0  0  0  0  0  0
   -0.5707    4.2611    0.0000 H   0  0  0  0  0  0  0  0  0  0  0  0
   -3.3307    1.7758    0.0000 H   0  0  0  0  0  0  0  0  0  0  0  0
   -0.1846    2.4446    0.0000 H   0  0  0  0  0  0  0  0  0  0  0  0
   -0.7056    1.1020    0.0000 H   0  0  0  0  0  0  0  0  0  0  0  0
    0.2210    0.5670    0.0000 H   0  0  0  0  0  0  0  0  0  0  0  0
   -1.4201   -1.4505    0.0000 H   0  0  0  0  0  0  0  0  0  0  0  0
   -2.3468   -0.9155    0.0000 H   0  0  0  0  0  0  0  0  0  0  0  0
    0.7233    1.1020    0.0000 H   0  0  0  0  0  0  0  0  0  0  0  0
   -0.2034    0.5670    0.0000 H   0  0  0  0  0  0  0  0  0  0  0  0
    1.4378   -1.4505    0.0000 H   0  0  0  0  0  0  0  0  0  0  0  0
    2.3644   -0.9155    0.0000 H   0  0  0  0  0  0  0  0  0  0  0  0
   -0.5901    1.0738    0.0000 H   0  0  0  0  0  0  0  0  0  0  0  0
   -1.3853    0.3579    0.0000 H   0  0  0  0  0  0  0  0  0  0  0  0
    2.9923   -0.4530    0.0000 H   0  0  0  0  0  0  0  0  0  0  0  0
  1 29  1  0  0  0  0
  1 30  1  0  0  0  0
  1 31  1  0  0  0  0
  2 32  1  0  0  0  0
  2 33  1  0  0  0  0
  2 34  1  0  0  0  0
  3 35  1  0  0  0  0
  3 36  1  0  0  0  0
  3 37  1  0  0  0  0
  4  1  1  0  0  0  0
  4 38  1  0  0  0  0
  4 39  1  0  0  0  0
  5 40  1  0  0  0  0
  6  5  2  0  0  0  0
  6 41  1  0  0  0  0
  7  5  1  0  0  0  0
  7 42  1  0  0  0  0
  8  6  1  0  0  0  0
  8 43  1  0  0  0  0
  9  7  2  0  0  0  0
  9 44  1  0  0  0  0
 10 45  1  0  0  0  0
 10 46  1  0  0  0  0
 11 10  1  0  0  0  0
 11 47  1  0  0  0  0
 11 48  1  0  0  0  0
 12 49  1  0  0  0  0
 12 50  1  0  0  0  0
 13 12  1  0  0  0  0
 13 51  1  0  0  0  0
 13 52  1  0  0  0  0
 14 53  1  0  0  0  0
 14 54  1  0  0  0  0
 15  8  2  0  0  0  0
 15  9  1  0  0  0  0
 15 14  1  0  0  0  0
 16 14  1  0  0  0  0
 18 17  2  0  0  0  0
 19 17  1  0  0  0  0
 21 16  2  0  0  0  0
 21 18  1  0  0  0  0
 22  2  1  0  0  0  0
 22 18  1  0  0  0  0
 22 20  1  0  0  0  0
 23  3  1  0  0  0  0
 23 19  1  0  0  0  0
 23 20  1  0  0  0  0
 24  4  1  0  0  0  0
 24 10  1  0  0  0  0
 24 12  1  0  0  0  0
 25 11  1  0  0  0  0
 25 16  1  0  0  0  0
 25 17  1  0  0  0  0
 26 13  1  0  0  0  0
 26 55  1  0  0  0  0
 27 19  2  0  0  0  0
 28 20  2  0  0  0  0
M  END
>  <DRUGBANK_ID>
DB13203

>  <COMMON_NAME>
Bamifylline

>  <CAS_NUMBER>
2016-63-9

>  <UNII>
ZTY15D026H

>  <SYNONYMS>
Bamifilina; Bamifylline; Bamifyllinum

$$$$
