TL2
 OpenBabel10282417072D

 50 53  0  0  0  0  0  0  0  0999 V2000
   -4.3496   -3.1101    0.0000 N   0  0  0  0  0  0  0  0  0  0  0  0
   -4.0946   -2.3255    0.0000 C   0  0  0  0  0  0  0  0  0  0  0  0
   -3.2877   -2.1540    0.0000 C   0  0  0  0  0  0  0  0  0  0  0  0
   -3.0327   -1.3694    0.0000 C   0  0  0  0  0  0  0  0  0  0  0  0
   -2.2258   -1.1978    0.0000 C   0  0  0  0  0  0  0  0  0  0  0  0
   -2.7356   -2.7671    0.0000 C   0  0  0  0  0  0  0  0  0  0  0  0
   -1.9287   -2.5956    0.0000 C   0  0  0  0  0  0  0  0  0  0  0  0
   -1.6737   -1.8109    0.0000 C   0  0  0  0  0  0  0  0  0  0  0  0
   -0.8668   -1.6394    0.0000 O   0  0  0  0  0  0  0  0  0  0  0  0
   -0.6118   -0.8548    0.0000 C   0  0  1  0  0  0  0  0  0  0  0  0
   -1.0967   -0.1873    0.0000 C   0  0  0  0  0  0  0  0  0  0  0  0
   -0.6118    0.4801    0.0000 O   0  0  0  0  0  0  0  0  0  0  0  0
    0.1728   -0.5998    0.0000 C   0  0  2  0  0  0  0  0  0  0  0  0
    0.1728    0.2252    0.0000 C   0  0  1  0  0  0  0  0  0  0  0  0
    0.9574    0.4801    0.0000 C   0  0  2  0  0  0  0  0  0  0  0  0
    1.2124    1.2647    0.0000 O   0  0  0  0  0  0  0  0  0  0  0  0
    0.9574   -0.8548    0.0000 O   0  0  0  0  0  0  0  0  0  0  0  0
    2.5714    0.8231    0.0000 C   0  0  0  0  0  0  0  0  0  0  0  0
    1.4423   -0.1873    0.0000 C   0  0  0  0  0  0  0  0  0  0  0  0
    2.0193    1.4362    0.0000 C   0  0  0  0  0  0  0  0  0  0  0  0
    2.2743    2.2209    0.0000 C   0  0  0  0  0  0  0  0  0  0  0  0
    3.3362    3.1770    0.0000 C   0  0  0  0  0  0  0  0  0  0  0  0
    2.7841    3.7901    0.0000 N   0  0  0  0  0  0  0  0  0  0  0  0
    4.1432    3.3485    0.0000 N   0  0  0  0  0  0  0  0  0  0  0  0
    3.3783    0.9947    0.0000 C   0  0  0  0  0  0  0  0  0  0  0  0
    3.6333    1.7793    0.0000 C   0  0  0  0  0  0  0  0  0  0  0  0
    3.0812    2.3924    0.0000 C   0  0  0  0  0  0  0  0  0  0  0  0
   -4.6467   -1.7124    0.0000 N   0  0  0  0  0  0  0  0  0  0  0  0
   -1.1886   -0.9461    0.0000 H   0  0  0  0  0  0  0  0  0  0  0  0
    0.1728   -1.1838    0.0000 H   0  0  0  0  0  0  0  0  0  0  0  0
    0.1728    0.8091    0.0000 H   0  0  0  0  0  0  0  0  0  0  0  0
    0.5445    0.8930    0.0000 H   0  0  0  0  0  0  0  0  0  0  0  0
   -5.3126   -3.3147    0.0000 H   0  0  0  0  0  0  0  0  0  0  0  0
   -3.7233   -0.6025    0.0000 H   0  0  0  0  0  0  0  0  0  0  0  0
   -1.9070   -0.2163    0.0000 H   0  0  0  0  0  0  0  0  0  0  0  0
   -3.0545   -3.7486    0.0000 H   0  0  0  0  0  0  0  0  0  0  0  0
   -1.2382   -3.3625    0.0000 H   0  0  0  0  0  0  0  0  0  0  0  0
   -2.1667   -0.1873    0.0000 H   0  0  0  0  0  0  0  0  0  0  0  0
   -1.5825    0.7661    0.0000 H   0  0  0  0  0  0  0  0  0  0  0  0
    2.2526   -0.1584    0.0000 H   0  0  0  0  0  0  0  0  0  0  0  0
    2.5123   -0.1873    0.0000 H   0  0  0  0  0  0  0  0  0  0  0  0
    1.9281   -1.1407    0.0000 H   0  0  0  0  0  0  0  0  0  0  0  0
    1.5838    2.9878    0.0000 H   0  0  0  0  0  0  0  0  0  0  0  0
    3.0883    4.7264    0.0000 H   0  0  0  0  0  0  0  0  0  0  0  0
    4.8019    2.6168    0.0000 H   0  0  0  0  0  0  0  0  0  0  0  0
    4.4475    4.2848    0.0000 H   0  0  0  0  0  0  0  0  0  0  0  0
    4.0689    0.2278    0.0000 H   0  0  0  0  0  0  0  0  0  0  0  0
    4.6428    1.9939    0.0000 H   0  0  0  0  0  0  0  0  0  0  0  0
   -4.3425   -0.7761    0.0000 H   0  0  0  0  0  0  0  0  0  0  0  0
   -5.6097   -1.9171    0.0000 H   0  0  0  0  0  0  0  0  0  0  0  0
  1  2  2  0  0  0  0
  1 33  1  0  0  0  0
  2  3  1  0  0  0  0
  2 28  1  0  0  0  0
  3  4  2  0  0  0  0
  3  6  1  0  0  0  0
  4  5  1  0  0  0  0
  4 34  1  0  0  0  0
  5  8  2  0  0  0  0
  5 35  1  0  0  0  0
  6  7  2  0  0  0  0
  6 36  1  0  0  0  0
  7  8  1  0  0  0  0
  7 37  1  0  0  0  0
  8  9  1  0  0  0  0
 10  9  1  0  0  0  0
 10 11  1  0  0  0  0
 10 13  1  0  0  0  0
 10 29  1  6  0  0  0
 11 12  1  0  0  0  0
 11 38  1  0  0  0  0
 11 39  1  0  0  0  0
 12 14  1  0  0  0  0
 13 14  1  0  0  0  0
 13 17  1  0  0  0  0
 13 30  1  1  0  0  0
 14 15  1  0  0  0  0
 14 31  1  1  0  0  0
 15 16  1  0  0  0  0
 15 19  1  0  0  0  0
 15 32  1  1  0  0  0
 16 20  1  0  0  0  0
 17 19  1  0  0  0  0
 18 20  2  0  0  0  0
 18 25  1  0  0  0  0
 18 40  1  0  0  0  0
 19 41  1  0  0  0  0
 19 42  1  0  0  0  0
 20 21  1  0  0  0  0
 21 27  2  0  0  0  0
 21 43  1  0  0  0  0
 22 23  2  0  0  0  0
 22 24  1  0  0  0  0
 22 27  1  0  0  0  0
 23 44  1  0  0  0  0
 24 45  1  0  0  0  0
 24 46  1  0  0  0  0
 25 26  2  0  0  0  0
 25 47  1  0  0  0  0
 26 27  1  0  0  0  0
 26 48  1  0  0  0  0
 28 49  1  0  0  0  0
 28 50  1  0  0  0  0
M  END
>  <DRUGBANK_ID>
DB04791

>  <COMMON_NAME>
2-O-(4'-AMIDINOPHENYL)-5-O-(3''-AMIDINOPHENYL)-1,4:3,6-DIANHYDRO-D-SORBITOL

$$$$
