
 OpenBabel10282417072D

 29 30  0  0  0  0  0  0  0  0999 V2000
    2.5528   -1.3543    0.0000 O   0  0  0  0  0  0  0  0  0  0  0  0
   -0.6339    0.9260    0.0000 O   0  0  0  0  0  0  0  0  0  0  0  0
   -2.0634   -1.5545    0.0000 O   0  0  0  0  0  0  0  0  0  0  0  0
    2.2970    0.7647    0.0000 N   0  0  0  0  0  0  0  0  0  0  0  0
   -0.6339   -0.7257    0.0000 N   0  0  0  0  0  0  0  0  0  0  0  0
   -1.3515   -0.3142    0.0000 N   0  0  0  0  0  0  0  0  0  0  0  0
   -2.7809   -0.3142    0.0000 N   0  0  0  0  0  0  0  0  0  0  0  0
    1.5072   -0.3142    0.0000 C   0  0  0  0  0  0  0  0  0  0  0  0
    1.5072    0.5089    0.0000 C   0  0  0  0  0  0  0  0  0  0  0  0
    2.2970   -0.5700    0.0000 C   0  0  3  0  0  0  0  0  0  0  0  0
    0.0778   -0.3142    0.0000 C   0  0  0  0  0  0  0  0  0  0  0  0
    0.7953   -0.7257    0.0000 C   0  0  0  0  0  0  0  0  0  0  0  0
    0.0778    0.5089    0.0000 C   0  0  0  0  0  0  0  0  0  0  0  0
    0.7953    0.9260    0.0000 C   0  0  0  0  0  0  0  0  0  0  0  0
    2.7809    0.0973    0.0000 C   0  0  0  0  0  0  0  0  0  0  0  0
    2.5473    1.5545    0.0000 C   0  0  0  0  0  0  0  0  0  0  0  0
   -2.0634   -0.7313    0.0000 C   0  0  0  0  0  0  0  0  0  0  0  0
    1.9045   -2.0759    0.0000 H   0  0  0  0  0  0  0  0  0  0  0  0
   -1.3561    0.6703    0.0000 H   0  0  0  0  0  0  0  0  0  0  0  0
   -2.7780    0.6703    0.0000 H   0  0  0  0  0  0  0  0  0  0  0  0
   -3.6350   -0.8039    0.0000 H   0  0  0  0  0  0  0  0  0  0  0  0
    1.5412   -1.3274    0.0000 H   0  0  0  0  0  0  0  0  0  0  0  0
    0.7970   -1.7577    0.0000 H   0  0  0  0  0  0  0  0  0  0  0  0
    0.7971    1.9580    0.0000 H   0  0  0  0  0  0  0  0  0  0  0  0
    3.8509    0.0973    0.0000 H   0  0  0  0  0  0  0  0  0  0  0  0
    3.2671   -0.8559    0.0000 H   0  0  0  0  0  0  0  0  0  0  0  0
    3.5923    1.7846    0.0000 H   0  0  0  0  0  0  0  0  0  0  0  0
    1.8256    2.3444    0.0000 H   0  0  0  0  0  0  0  0  0  0  0  0
    2.8706    2.5745    0.0000 H   0  0  0  0  0  0  0  0  0  0  0  0
  1 10  1  0  0  0  0
  1 18  1  0  0  0  0
  2 13  2  0  0  0  0
  3 17  2  0  0  0  0
  4  9  1  0  0  0  0
  4 15  1  0  0  0  0
  4 16  1  0  0  0  0
  5  6  1  0  0  0  0
  5 11  2  0  0  0  0
  6 17  1  0  0  0  0
  6 19  1  0  0  0  0
  7 17  1  0  0  0  0
  7 20  1  0  0  0  0
  7 21  1  0  0  0  0
  8  9  1  0  0  0  0
  8 10  1  0  0  0  0
  8 12  2  0  0  0  0
  9 14  2  0  0  0  0
 10 15  1  0  0  0  0
 10 22  1  0  0  0  0
 11 12  1  0  0  0  0
 11 13  1  0  0  0  0
 12 23  1  0  0  0  0
 13 14  1  0  0  0  0
 14 24  1  0  0  0  0
 15 25  1  0  0  0  0
 15 26  1  0  0  0  0
 16 27  1  0  0  0  0
 16 28  1  0  0  0  0
 16 29  1  0  0  0  0
M  END
>  <DRUGBANK_ID>
DB09012

>  <COMMON_NAME>
Carbazochrome

>  <CAS_NUMBER>
69-81-8

>  <UNII>
81F061RQS4

>  <SYNONYMS>
3-Hydroxy-1-methyl-5,6-inodlindionsemicarbazon; Adchnon; Adedolon; Adrenostan; Carbazochrom; Carbazochrome; Carbazochromum; Carbazocromo

$$$$
