
 OpenBabel10282417072D

 92 97  0  0  0  0  0  0  0  0999 V2000
   -4.3012    2.2166    0.0000 C   0  0  0  0  0  0  0  0  0  0  0  0
   -3.4806    2.2166    0.0000 C   0  0  0  0  0  0  0  0  0  0  0  0
   -4.7163    1.5092    0.0000 C   0  0  0  0  0  0  0  0  0  0  0  0
   -3.0656    1.5092    0.0000 C   0  0  0  0  0  0  0  0  0  0  0  0
   -4.3012    0.7923    0.0000 C   0  0  0  0  0  0  0  0  0  0  0  0
   -3.4806    0.7923    0.0000 C   0  0  0  0  0  0  0  0  0  0  0  0
   -4.5560    0.0000    0.0000 C   0  0  0  0  0  0  0  0  0  0  0  0
   -3.8862   -0.4810    0.0000 C   0  0  2  0  0  0  0  0  0  0  0  0
   -3.2260    0.0000    0.0000 C   0  0  1  0  0  0  0  0  0  0  0  0
   -3.8862   -1.1790    0.0000 O   0  0  0  0  0  0  0  0  0  0  0  0
   -2.4996   -0.3961    0.0000 N   0  0  0  0  0  0  0  0  0  0  0  0
   -1.7922    0.0282    0.0000 C   0  0  0  0  0  0  0  0  0  0  0  0
   -1.0658   -0.3773    0.0000 C   0  0  1  0  0  0  0  0  0  0  0  0
   -0.3584    0.0471    0.0000 C   0  0  2  0  0  0  0  0  0  0  0  0
    0.3584   -0.3489    0.0000 C   0  0  1  0  0  0  0  0  0  0  0  0
    1.0658    0.0754    0.0000 C   0  0  2  0  0  0  0  0  0  0  0  0
    1.7922   -0.3301    0.0000 C   0  0  0  0  0  0  0  0  0  0  0  0
    2.4996    0.0943    0.0000 N   0  0  0  0  0  0  0  0  0  0  0  0
    3.2260   -0.3112    0.0000 C   0  0  2  0  0  0  0  0  0  0  0  0
   -1.7922    0.7451    0.0000 O   0  0  0  0  0  0  0  0  0  0  0  0
   -1.0564   -1.1319    0.0000 C   0  0  0  0  0  0  0  0  0  0  0  0
   -1.5752   -1.5470    0.0000 C   0  0  0  0  0  0  0  0  0  0  0  0
   -1.5752   -2.1318    0.0000 C   0  0  0  0  0  0  0  0  0  0  0  0
   -0.8583   -2.5468    0.0000 C   0  0  0  0  0  0  0  0  0  0  0  0
   -0.8583   -3.3674    0.0000 C   0  0  0  0  0  0  0  0  0  0  0  0
   -1.5752   -3.7825    0.0000 C   0  0  0  0  0  0  0  0  0  0  0  0
   -2.2920   -2.5468    0.0000 C   0  0  0  0  0  0  0  0  0  0  0  0
   -2.2920   -3.3674    0.0000 C   0  0  0  0  0  0  0  0  0  0  0  0
   -0.3489    0.7923    0.0000 O   0  0  0  0  0  0  0  0  0  0  0  0
    0.3678   -1.1508    0.0000 O   0  0  0  0  0  0  0  0  0  0  0  0
    1.0753    0.8394    0.0000 C   0  0  0  0  0  0  0  0  0  0  0  0
    1.8393    1.3299    0.0000 C   0  0  0  0  0  0  0  0  0  0  0  0
    1.8393    2.1222    0.0000 C   0  0  0  0  0  0  0  0  0  0  0  0
    2.5562    3.3674    0.0000 C   0  0  0  0  0  0  0  0  0  0  0  0
    2.5562    2.5373    0.0000 C   0  0  0  0  0  0  0  0  0  0  0  0
    1.8393    3.7825    0.0000 C   0  0  0  0  0  0  0  0  0  0  0  0
    1.1224    3.3674    0.0000 C   0  0  0  0  0  0  0  0  0  0  0  0
    1.1224    2.5373    0.0000 C   0  0  0  0  0  0  0  0  0  0  0  0
    1.7922   -1.1224    0.0000 O   0  0  0  0  0  0  0  0  0  0  0  0
    3.8957    0.1791    0.0000 C   0  0  1  0  0  0  0  0  0  0  0  0
    3.4806   -1.0942    0.0000 C   0  0  0  0  0  0  0  0  0  0  0  0
    4.5560   -0.3112    0.0000 C   0  0  0  0  0  0  0  0  0  0  0  0
    4.3012   -1.0942    0.0000 C   0  0  0  0  0  0  0  0  0  0  0  0
    3.8862    0.9337    0.0000 O   0  0  0  0  0  0  0  0  0  0  0  0
    3.0656   -1.8111    0.0000 C   0  0  0  0  0  0  0  0  0  0  0  0
    3.4806   -2.5280    0.0000 C   0  0  0  0  0  0  0  0  0  0  0  0
    4.3012   -2.5280    0.0000 C   0  0  0  0  0  0  0  0  0  0  0  0
    4.7163   -1.8111    0.0000 C   0  0  0  0  0  0  0  0  0  0  0  0
   -4.8140    3.1122    0.0000 H   0  0  0  0  0  0  0  0  0  0  0  0
   -2.9677    3.1121    0.0000 H   0  0  0  0  0  0  0  0  0  0  0  0
   -5.7483    1.5122    0.0000 H   0  0  0  0  0  0  0  0  0  0  0  0
   -2.0336    1.5122    0.0000 H   0  0  0  0  0  0  0  0  0  0  0  0
   -5.5722   -0.3350    0.0000 H   0  0  0  0  0  0  0  0  0  0  0  0
   -4.7182   -1.0576    0.0000 H   0  0  0  0  0  0  0  0  0  0  0  0
   -4.8382   -0.9694    0.0000 H   0  0  0  0  0  0  0  0  0  0  0  0
   -2.4016    0.6821    0.0000 H   0  0  0  0  0  0  0  0  0  0  0  0
   -4.7262   -1.6640    0.0000 H   0  0  0  0  0  0  0  0  0  0  0  0
   -2.4794   -1.3804    0.0000 H   0  0  0  0  0  0  0  0  0  0  0  0
   -1.9852   -0.9247    0.0000 H   0  0  0  0  0  0  0  0  0  0  0  0
   -1.2861    0.5802    0.0000 H   0  0  0  0  0  0  0  0  0  0  0  0
   -0.5600   -0.8980    0.0000 H   0  0  0  0  0  0  0  0  0  0  0  0
    0.1380    0.6084    0.0000 H   0  0  0  0  0  0  0  0  0  0  0  0
    2.4842    1.0787    0.0000 H   0  0  0  0  0  0  0  0  0  0  0  0
    3.1603    0.7568    0.0000 H   0  0  0  0  0  0  0  0  0  0  0  0
   -0.0891   -1.5894    0.0000 H   0  0  0  0  0  0  0  0  0  0  0  0
   -0.9320   -2.1946    0.0000 H   0  0  0  0  0  0  0  0  0  0  0  0
   -2.5396   -1.0835    0.0000 H   0  0  0  0  0  0  0  0  0  0  0  0
   -2.4810   -2.1166    0.0000 H   0  0  0  0  0  0  0  0  0  0  0  0
    0.0357   -2.0313    0.0000 H   0  0  0  0  0  0  0  0  0  0  0  0
    0.0358   -3.8828    0.0000 H   0  0  0  0  0  0  0  0  0  0  0  0
   -1.5752   -4.8145    0.0000 H   0  0  0  0  0  0  0  0  0  0  0  0
   -3.1860   -2.0313    0.0000 H   0  0  0  0  0  0  0  0  0  0  0  0
   -3.1861   -3.8828    0.0000 H   0  0  0  0  0  0  0  0  0  0  0  0
    0.4973    1.2666    0.0000 H   0  0  0  0  0  0  0  0  0  0  0  0
   -0.4665   -1.6456    0.0000 H   0  0  0  0  0  0  0  0  0  0  0  0
    0.1395    1.3582    0.0000 H   0  0  0  0  0  0  0  0  0  0  0  0
    1.0408    1.9088    0.0000 H   0  0  0  0  0  0  0  0  0  0  0  0
    2.7783    0.8169    0.0000 H   0  0  0  0  0  0  0  0  0  0  0  0
    2.7596    1.8758    0.0000 H   0  0  0  0  0  0  0  0  0  0  0  0
    3.4503    3.8828    0.0000 H   0  0  0  0  0  0  0  0  0  0  0  0
    3.4503    2.0219    0.0000 H   0  0  0  0  0  0  0  0  0  0  0  0
    1.8393    4.8145    0.0000 H   0  0  0  0  0  0  0  0  0  0  0  0
    0.2283    3.8828    0.0000 H   0  0  0  0  0  0  0  0  0  0  0  0
    0.2283    2.0219    0.0000 H   0  0  0  0  0  0  0  0  0  0  0  0
    2.9384    0.6571    0.0000 H   0  0  0  0  0  0  0  0  0  0  0  0
    5.5754    0.0139    0.0000 H   0  0  0  0  0  0  0  0  0  0  0  0
    5.3104   -1.0700    0.0000 H   0  0  0  0  0  0  0  0  0  0  0  0
    4.7201    1.4292    0.0000 H   0  0  0  0  0  0  0  0  0  0  0  0
    2.0336   -1.8111    0.0000 H   0  0  0  0  0  0  0  0  0  0  0  0
    2.9651   -3.4220    0.0000 H   0  0  0  0  0  0  0  0  0  0  0  0
    4.8166   -3.4221    0.0000 H   0  0  0  0  0  0  0  0  0  0  0  0
    5.7483   -1.8111    0.0000 H   0  0  0  0  0  0  0  0  0  0  0  0
  1  2  1  0  0  0  0
  1  3  2  0  0  0  0
  1 49  1  0  0  0  0
  2  4  2  0  0  0  0
  2 50  1  0  0  0  0
  3  5  1  0  0  0  0
  3 51  1  0  0  0  0
  4  6  1  0  0  0  0
  4 52  1  0  0  0  0
  5  6  2  0  0  0  0
  5  7  1  0  0  0  0
  6  9  1  0  0  0  0
  7  8  1  0  0  0  0
  7 53  1  0  0  0  0
  7 54  1  0  0  0  0
  8  9  1  0  0  0  0
  8 10  1  0  0  0  0
  8 55  1  1  0  0  0
  9 11  1  0  0  0  0
  9 56  1  1  0  0  0
 10 57  1  0  0  0  0
 11 12  1  0  0  0  0
 11 58  1  0  0  0  0
 12 13  1  0  0  0  0
 12 20  2  0  0  0  0
 13 14  1  0  0  0  0
 13 21  1  0  0  0  0
 13 59  1  6  0  0  0
 14 15  1  0  0  0  0
 14 29  1  0  0  0  0
 14 60  1  6  0  0  0
 15 16  1  0  0  0  0
 15 30  1  0  0  0  0
 15 61  1  6  0  0  0
 16 17  1  0  0  0  0
 16 31  1  0  0  0  0
 16 62  1  6  0  0  0
 17 18  1  0  0  0  0
 17 39  2  0  0  0  0
 18 63  1  0  0  0  0
 19 18  1  0  0  0  0
 19 40  1  0  0  0  0
 19 41  1  0  0  0  0
 19 64  1  1  0  0  0
 21 22  1  0  0  0  0
 21 65  1  0  0  0  0
 21 66  1  0  0  0  0
 22 23  1  0  0  0  0
 22 67  1  0  0  0  0
 22 68  1  0  0  0  0
 23 24  2  0  0  0  0
 23 27  1  0  0  0  0
 24 25  1  0  0  0  0
 24 69  1  0  0  0  0
 25 26  2  0  0  0  0
 25 70  1  0  0  0  0
 26 28  1  0  0  0  0
 26 71  1  0  0  0  0
 27 28  2  0  0  0  0
 27 72  1  0  0  0  0
 28 73  1  0  0  0  0
 29 74  1  0  0  0  0
 30 75  1  0  0  0  0
 31 32  1  0  0  0  0
 31 76  1  0  0  0  0
 31 77  1  0  0  0  0
 32 33  1  0  0  0  0
 32 78  1  0  0  0  0
 32 79  1  0  0  0  0
 33 35  2  0  0  0  0
 33 38  1  0  0  0  0
 34 35  1  0  0  0  0
 34 36  2  0  0  0  0
 34 80  1  0  0  0  0
 35 81  1  0  0  0  0
 36 37  1  0  0  0  0
 36 82  1  0  0  0  0
 37 38  2  0  0  0  0
 37 83  1  0  0  0  0
 38 84  1  0  0  0  0
 40 42  1  0  0  0  0
 40 44  1  0  0  0  0
 40 85  1  1  0  0  0
 41 45  1  0  0  0  0
 41 43  2  0  0  0  0
 42 43  1  0  0  0  0
 42 86  1  0  0  0  0
 42 87  1  0  0  0  0
 43 48  1  0  0  0  0
 44 88  1  0  0  0  0
 45 46  2  0  0  0  0
 45 89  1  0  0  0  0
 46 47  1  0  0  0  0
 46 90  1  0  0  0  0
 47 48  2  0  0  0  0
 47 91  1  0  0  0  0
 48 92  1  0  0  0  0
M  END
>  <DRUGBANK_ID>
DB02704

>  <SECONDARY_ACCESSION_NUMBERS>
EXPT00717

>  <COMMON_NAME>
(2R,3R,4R,5R)-3,4-Dihydroxy-N,N'-bis[(1S,2R)-2-hydroxy-2,3-dihydro-1H-inden-1-yl]-2,5-bis(2-phenylethyl)hexanediamide

>  <SYNONYMS>
Diol-Based HIV-1 protease inhibitor 4

$$$$
