228
 OpenBabel10282417072D

 55 59  0  0  0  0  0  0  0  0999 V2000
   -2.8080    1.8520    0.0000 C   0  0  0  0  0  0  0  0  0  0  0  0
   -3.5225    1.4395    0.0000 C   0  0  0  0  0  0  0  0  0  0  0  0
   -4.3071    1.6944    0.0000 O   0  0  0  0  0  0  0  0  0  0  0  0
   -4.7920    1.0270    0.0000 C   0  0  0  0  0  0  0  0  0  0  0  0
   -4.3071    0.3596    0.0000 O   0  0  0  0  0  0  0  0  0  0  0  0
   -3.5225    0.6145    0.0000 C   0  0  0  0  0  0  0  0  0  0  0  0
   -2.8080    0.2020    0.0000 C   0  0  0  0  0  0  0  0  0  0  0  0
   -2.0935    0.6145    0.0000 C   0  0  0  0  0  0  0  0  0  0  0  0
   -2.0935    1.4395    0.0000 C   0  0  0  0  0  0  0  0  0  0  0  0
   -1.3790    1.8520    0.0000 C   0  0  0  0  0  0  0  0  0  0  0  0
   -0.6646    1.4395    0.0000 C   0  0  0  0  0  0  0  0  0  0  0  0
    0.0499    1.8520    0.0000 N   0  0  0  0  0  0  0  0  0  0  0  0
    0.7644    1.4395    0.0000 C   0  0  0  0  0  0  0  0  0  0  0  0
    0.7644    0.6145    0.0000 O   0  0  0  0  0  0  0  0  0  0  0  0
    1.4788    1.8520    0.0000 C   0  0  1  0  0  0  0  0  0  0  0  0
    1.5651    2.6725    0.0000 C   0  0  0  0  0  0  0  0  0  0  0  0
    2.3720    2.8440    0.0000 C   0  0  0  0  0  0  0  0  0  0  0  0
    2.7845    2.1295    0.0000 C   0  0  0  0  0  0  0  0  0  0  0  0
    2.2325    1.5164    0.0000 N   0  0  0  0  0  0  0  0  0  0  0  0
    2.4040    0.7095    0.0000 C   0  0  0  0  0  0  0  0  0  0  0  0
    1.7909    0.1574    0.0000 N   0  0  0  0  0  0  0  0  0  0  0  0
    3.1887    0.4545    0.0000 C   0  0  0  0  0  0  0  0  0  0  0  0
    3.3602   -0.3525    0.0000 C   0  0  0  0  0  0  0  0  0  0  0  0
    4.1448   -0.6074    0.0000 C   0  0  0  0  0  0  0  0  0  0  0  0
    2.7471   -0.9045    0.0000 N   0  0  0  0  0  0  0  0  0  0  0  0
    1.9625   -0.6495    0.0000 C   0  0  0  0  0  0  0  0  0  0  0  0
    1.3494   -1.2016    0.0000 N   0  0  0  0  0  0  0  0  0  0  0  0
    1.4356   -2.0221    0.0000 C   0  0  0  0  0  0  0  0  0  0  0  0
    0.6819   -2.3576    0.0000 C   0  0  0  0  0  0  0  0  0  0  0  0
    0.1299   -1.7445    0.0000 N   0  0  0  0  0  0  0  0  0  0  0  0
    0.5424   -1.0301    0.0000 C   0  0  0  0  0  0  0  0  0  0  0  0
    0.9891    2.1700    0.0000 H   0  0  0  0  0  0  0  0  0  0  0  0
   -2.8080    2.8840    0.0000 H   0  0  0  0  0  0  0  0  0  0  0  0
   -5.8620    1.0270    0.0000 H   0  0  0  0  0  0  0  0  0  0  0  0
   -5.2778    0.0736    0.0000 H   0  0  0  0  0  0  0  0  0  0  0  0
   -2.8080   -0.8300    0.0000 H   0  0  0  0  0  0  0  0  0  0  0  0
   -1.1998    0.0985    0.0000 H   0  0  0  0  0  0  0  0  0  0  0  0
   -1.3790    2.9220    0.0000 H   0  0  0  0  0  0  0  0  0  0  0  0
   -0.4523    2.3870    0.0000 H   0  0  0  0  0  0  0  0  0  0  0  0
   -0.6646    0.3695    0.0000 H   0  0  0  0  0  0  0  0  0  0  0  0
    0.2620    0.9045    0.0000 H   0  0  0  0  0  0  0  0  0  0  0  0
    0.0499    2.8365    0.0000 H   0  0  0  0  0  0  0  0  0  0  0  0
    0.7700    3.3885    0.0000 H   0  0  0  0  0  0  0  0  0  0  0  0
    1.8421    3.7060    0.0000 H   0  0  0  0  0  0  0  0  0  0  0  0
    2.8072    3.8215    0.0000 H   0  0  0  0  0  0  0  0  0  0  0  0
    3.4405    2.9000    0.0000 H   0  0  0  0  0  0  0  0  0  0  0  0
    3.8486    2.0177    0.0000 H   0  0  0  0  0  0  0  0  0  0  0  0
    3.1680    1.1306    0.0000 H   0  0  0  0  0  0  0  0  0  0  0  0
    3.9557    1.1450    0.0000 H   0  0  0  0  0  0  0  0  0  0  0  0
    4.3673   -1.6540    0.0000 H   0  0  0  0  0  0  0  0  0  0  0  0
    4.9399    0.1086    0.0000 H   0  0  0  0  0  0  0  0  0  0  0  0
    5.1624   -0.9380    0.0000 H   0  0  0  0  0  0  0  0  0  0  0  0
    2.3293   -2.5382    0.0000 H   0  0  0  0  0  0  0  0  0  0  0  0
    0.4673   -3.3670    0.0000 H   0  0  0  0  0  0  0  0  0  0  0  0
    0.1226   -0.0873    0.0000 H   0  0  0  0  0  0  0  0  0  0  0  0
  1  9  2  0  0  0  0
  1  2  1  0  0  0  0
  1 33  1  0  0  0  0
  2  3  1  0  0  0  0
  2  6  2  0  0  0  0
  3  4  1  0  0  0  0
  4  5  1  0  0  0  0
  4 34  1  0  0  0  0
  4 35  1  0  0  0  0
  5  6  1  0  0  0  0
  6  7  1  0  0  0  0
  7  8  2  0  0  0  0
  7 36  1  0  0  0  0
  8  9  1  0  0  0  0
  8 37  1  0  0  0  0
  9 10  1  0  0  0  0
 10 11  1  0  0  0  0
 10 38  1  0  0  0  0
 10 39  1  0  0  0  0
 11 12  1  0  0  0  0
 11 40  1  0  0  0  0
 11 41  1  0  0  0  0
 12 13  1  0  0  0  0
 12 42  1  0  0  0  0
 13 14  2  0  0  0  0
 15 13  1  0  0  0  0
 15 16  1  0  0  0  0
 15 19  1  0  0  0  0
 15 32  1  6  0  0  0
 16 17  1  0  0  0  0
 16 43  1  0  0  0  0
 16 44  1  0  0  0  0
 17 18  1  0  0  0  0
 17 45  1  0  0  0  0
 17 46  1  0  0  0  0
 18 19  1  0  0  0  0
 18 47  1  0  0  0  0
 18 48  1  0  0  0  0
 19 20  1  0  0  0  0
 20 22  1  0  0  0  0
 20 21  2  0  0  0  0
 21 26  1  0  0  0  0
 22 23  2  0  0  0  0
 22 49  1  0  0  0  0
 23 24  1  0  0  0  0
 23 25  1  0  0  0  0
 24 50  1  0  0  0  0
 24 51  1  0  0  0  0
 24 52  1  0  0  0  0
 25 26  2  0  0  0  0
 26 27  1  0  0  0  0
 27 28  1  0  0  0  0
 27 31  1  0  0  0  0
 28 29  2  0  0  0  0
 28 53  1  0  0  0  0
 29 30  1  0  0  0  0
 29 54  1  0  0  0  0
 30 31  2  0  0  0  0
 31 55  1  0  0  0  0
M  END
>  <DRUGBANK_ID>
DB06916

>  <COMMON_NAME>
N-[2-(1,3-BENZODIOXOL-5-YL)ETHYL]-1-[2-(1H-IMIDAZOL-1-YL)-6-METHYLPYRIMIDIN-4-YL]-D-PROLINAMIDE

$$$$
