
 OpenBabel10282417072D

 59 62  0  0  0  0  0  0  0  0999 V2000
   -3.2576   -1.1501    0.0000 C   0  0  0  0  0  0  0  0  0  0  0  0
   -3.2576   -1.9772    0.0000 C   0  0  0  0  0  0  0  0  0  0  0  0
   -2.5452   -0.7340    0.0000 C   0  0  0  0  0  0  0  0  0  0  0  0
   -1.8282   -1.1501    0.0000 C   0  0  1  0  0  0  0  0  0  0  0  0
   -1.8317   -1.9772    0.0000 C   0  0  0  0  0  0  0  0  0  0  0  0
   -1.1211   -2.3915    0.0000 C   0  0  0  0  0  0  0  0  0  0  0  0
   -0.4023   -1.9832    0.0000 C   0  0  0  0  0  0  0  0  0  0  0  0
   -1.1141   -0.7372    0.0000 C   0  0  2  0  0  0  0  0  0  0  0  0
   -0.3974   -1.1597    0.0000 C   0  0  2  0  0  0  0  0  0  0  0  0
   -0.3839    0.5011    0.0000 C   0  0  0  0  0  0  0  0  0  0  0  0
   -1.1104    0.0925    0.0000 C   0  0  0  0  0  0  0  0  0  0  0  0
    0.3327    0.0784    0.0000 C   0  0  1  0  0  0  0  0  0  0  0  0
    0.3184   -0.7504    0.0000 C   0  0  1  0  0  0  0  0  0  0  0  0
    1.1025   -1.0202    0.0000 C   0  0  0  0  0  0  0  0  0  0  0  0
    1.6015   -0.3578    0.0000 C   0  0  0  0  0  0  0  0  0  0  0  0
    1.1256    0.3211    0.0000 C   0  0  2  0  0  0  0  0  0  0  0  0
   -3.9700   -2.3884    0.0000 O   0  0  0  0  0  0  0  0  0  0  0  0
   -2.5447   -2.3793    0.0000 C   0  0  0  0  0  0  0  0  0  0  0  0
   -1.8364   -0.3273    0.0000 C   0  0  0  0  0  0  0  0  0  0  0  0
   -1.1188   -1.5567    0.0000 H   0  0  0  0  0  0  0  0  0  0  0  0
   -1.8196    0.5093    0.0000 O   0  0  0  0  0  0  0  0  0  0  0  0
   -0.4058   -0.3365    0.0000 H   0  0  0  0  0  0  0  0  0  0  0  0
    0.3254    0.9020    0.0000 C   0  0  0  0  0  0  0  0  0  0  0  0
    0.3116   -1.5704    0.0000 H   0  0  0  0  0  0  0  0  0  0  0  0
    1.1205    1.1441    0.0000 C   0  0  0  0  0  0  0  0  0  0  0  0
    1.8302    1.5599    0.0000 C   0  0  0  0  0  0  0  0  0  0  0  0
    0.4055    1.5510    0.0000 O   0  0  0  0  0  0  0  0  0  0  0  0
    2.5453    1.1532    0.0000 O   0  0  0  0  0  0  0  0  0  0  0  0
    3.2550    1.5689    0.0000 C   0  0  0  0  0  0  0  0  0  0  0  0
    3.9700    1.1620    0.0000 C   0  0  0  0  0  0  0  0  0  0  0  0
    3.2498    2.3915    0.0000 O   0  0  0  0  0  0  0  0  0  0  0  0
    1.9157    0.5363    0.0000 O   0  0  0  0  0  0  0  0  0  0  0  0
   -4.1856   -0.6174    0.0000 H   0  0  0  0  0  0  0  0  0  0  0  0
   -3.2616   -0.0801    0.0000 H   0  0  0  0  0  0  0  0  0  0  0  0
   -2.5467    0.3360    0.0000 H   0  0  0  0  0  0  0  0  0  0  0  0
   -3.4736   -0.2020    0.0000 H   0  0  0  0  0  0  0  0  0  0  0  0
   -1.1271   -3.4615    0.0000 H   0  0  0  0  0  0  0  0  0  0  0  0
   -0.1979   -2.9324    0.0000 H   0  0  0  0  0  0  0  0  0  0  0  0
    0.5209   -2.5242    0.0000 H   0  0  0  0  0  0  0  0  0  0  0  0
   -0.4095   -3.0532    0.0000 H   0  0  0  0  0  0  0  0  0  0  0  0
   -0.3729    1.5710    0.0000 H   0  0  0  0  0  0  0  0  0  0  0  0
   -1.3047    1.0461    0.0000 H   0  0  0  0  0  0  0  0  0  0  0  0
    1.4155   -2.0434    0.0000 H   0  0  0  0  0  0  0  0  0  0  0  0
    2.1563   -1.2058    0.0000 H   0  0  0  0  0  0  0  0  0  0  0  0
    2.6713   -0.3761    0.0000 H   0  0  0  0  0  0  0  0  0  0  0  0
    2.1034    0.5872    0.0000 H   0  0  0  0  0  0  0  0  0  0  0  0
   -2.5447   -3.4113    0.0000 H   0  0  0  0  0  0  0  0  0  0  0  0
   -0.9151    0.2169    0.0000 H   0  0  0  0  0  0  0  0  0  0  0  0
   -2.7683    0.1984    0.0000 H   0  0  0  0  0  0  0  0  0  0  0  0
   -1.8471    0.7426    0.0000 H   0  0  0  0  0  0  0  0  0  0  0  0
    1.2473    1.4452    0.0000 H   0  0  0  0  0  0  0  0  0  0  0  0
   -0.6060    1.4288    0.0000 H   0  0  0  0  0  0  0  0  0  0  0  0
    0.3159    1.9720    0.0000 H   0  0  0  0  0  0  0  0  0  0  0  0
    1.8233    2.6299    0.0000 H   0  0  0  0  0  0  0  0  0  0  0  0
    2.7534    2.1009    0.0000 H   0  0  0  0  0  0  0  0  0  0  0  0
    3.9767    0.0920    0.0000 H   0  0  0  0  0  0  0  0  0  0  0  0
    4.8933    1.7028    0.0000 H   0  0  0  0  0  0  0  0  0  0  0  0
    4.9000    0.6328    0.0000 H   0  0  0  0  0  0  0  0  0  0  0  0
    2.6044   -0.1468    0.0000 H   0  0  0  0  0  0  0  0  0  0  0  0
  1  2  1  0  0  0  0
  1  3  1  0  0  0  0
  1 33  1  0  0  0  0
  1 34  1  0  0  0  0
  2 17  2  0  0  0  0
  2 18  1  0  0  0  0
  3 35  1  0  0  0  0
  3 36  1  0  0  0  0
  4  3  1  0  0  0  0
  4 19  1  1  0  0  0
  4  5  1  0  0  0  0
  4  8  1  0  0  0  0
  5 18  2  0  0  0  0
  5  6  1  0  0  0  0
  6  7  1  0  0  0  0
  6 37  1  0  0  0  0
  6 38  1  0  0  0  0
  7  9  1  0  0  0  0
  7 39  1  0  0  0  0
  7 40  1  0  0  0  0
  8  9  1  0  0  0  0
  8 20  1  6  0  0  0
  8 11  1  0  0  0  0
  9 22  1  1  0  0  0
  9 13  1  0  0  0  0
 10 11  1  0  0  0  0
 10 41  1  0  0  0  0
 10 42  1  0  0  0  0
 11 21  2  0  0  0  0
 12 23  1  1  0  0  0
 12 10  1  0  0  0  0
 12 13  1  0  0  0  0
 13 14  1  0  0  0  0
 13 24  1  6  0  0  0
 14 15  1  0  0  0  0
 14 43  1  0  0  0  0
 14 44  1  0  0  0  0
 15 16  1  0  0  0  0
 15 45  1  0  0  0  0
 15 46  1  0  0  0  0
 16 12  1  0  0  0  0
 16 25  1  1  0  0  0
 16 32  1  0  0  0  0
 18 47  1  0  0  0  0
 19 48  1  0  0  0  0
 19 49  1  0  0  0  0
 19 50  1  0  0  0  0
 23 51  1  0  0  0  0
 23 52  1  0  0  0  0
 23 53  1  0  0  0  0
 25 26  1  0  0  0  0
 25 27  2  0  0  0  0
 26 28  1  0  0  0  0
 26 54  1  0  0  0  0
 26 55  1  0  0  0  0
 28 29  1  0  0  0  0
 29 30  1  0  0  0  0
 29 31  2  0  0  0  0
 30 56  1  0  0  0  0
 30 57  1  0  0  0  0
 30 58  1  0  0  0  0
 32 59  1  0  0  0  0
M  END
>  <DRUGBANK_ID>
DB01380

>  <COMMON_NAME>
Cortisone acetate

>  <CAS_NUMBER>
50-04-4

>  <UNII>
883WKN7W8X

>  <SYNONYMS>
Cortisone 21-acetate; Cortisone acetate; Cortone acetate

$$$$
