
 OpenBabel10282417072D

 92 98  0  0  1  0  0  0  0  0999 V2000
   -4.1016    7.1542    0.0000 C   0  0  0  0  0  0  0  0  0  0  0  0
   -7.1701   11.0019    0.0000 C   0  0  0  0  0  0  0  0  0  0  0  0
   -4.7466    7.6686    0.0000 C   0  0  0  0  0  0  0  0  0  0  0  0
   -4.2246    6.3384    0.0000 C   0  0  0  0  0  0  0  0  0  0  0  0
   -7.9928   11.0636    0.0000 C   0  0  0  0  0  0  0  0  0  0  0  0
   -6.8121   10.2586    0.0000 C   0  0  0  0  0  0  0  0  0  0  0  0
   -5.6504    5.1689    0.0000 C   0  0  0  0  0  0  0  0  0  0  0  0
  -11.4516    6.7263    0.0000 C   0  0  0  0  0  0  0  0  0  0  0  0
   -5.5146    7.3671    0.0000 C   0  0  0  0  0  0  0  0  0  0  0  0
   -4.9925    6.0370    0.0000 C   0  0  0  0  0  0  0  0  0  0  0  0
   -8.4575   10.3819    0.0000 C   0  0  0  0  0  0  0  0  0  0  0  0
   -7.2769    9.5770    0.0000 C   0  0  0  0  0  0  0  0  0  0  0  0
   -6.3649    5.5814    0.0000 C   0  0  0  0  0  0  0  0  0  0  0  0
  -10.8905    7.3310    0.0000 C   0  0  0  0  0  0  0  0  0  0  0  0
   -5.6504    4.3439    0.0000 C   0  0  0  0  0  0  0  0  0  0  0  0
  -11.2085    5.9379    0.0000 C   0  0  0  0  0  0  0  0  0  0  0  0
   -6.0629    0.5993    0.0000 C   0  0  0  0  0  0  0  0  0  0  0  0
   -9.1335    2.6593    0.0000 C   0  0  0  0  0  0  0  0  0  0  0  0
   -5.2379    0.5993    0.0000 C   0  0  0  0  0  0  0  0  0  0  0  0
   -8.3451    2.9025    0.0000 C   0  0  0  0  0  0  0  0  0  0  0  0
   -7.0794    4.3439    0.0000 C   0  0  0  0  0  0  0  0  0  0  0  0
   -9.8430    6.3591    0.0000 C   0  0  0  0  0  0  0  0  0  0  0  0
   -6.4055    6.2500    0.0000 C   0  0  0  0  0  0  0  0  0  0  0  0
   -8.5643    8.9570    0.0000 C   0  0  0  0  0  0  0  0  0  0  0  0
   -7.7938    5.5814    0.0000 C   0  0  0  0  0  0  0  0  0  0  0  0
   -9.5250    7.7522    0.0000 C   0  0  0  0  0  0  0  0  0  0  0  0
   -5.6376    6.5514    0.0000 C   0  0  0  0  0  0  0  0  0  0  0  0
   -8.0996    9.6386    0.0000 C   0  0  0  0  0  0  0  0  0  0  0  0
   -7.0794    5.1689    0.0000 C   0  0  0  0  0  0  0  0  0  0  0  0
  -10.0862    7.1475    0.0000 C   0  0  0  0  0  0  0  0  0  0  0  0
   -6.3649    3.9314    0.0000 C   0  0  0  0  0  0  0  0  0  0  0  0
  -10.4041    5.7543    0.0000 C   0  0  0  0  0  0  0  0  0  0  0  0
   -7.0505    6.7643    0.0000 C   0  0  2  0  0  0  0  0  0  0  0  0
   -8.2063    8.2137    0.0000 C   0  0  2  0  0  0  0  0  0  0  0  0
   -6.8670    7.5686    0.0000 C   0  0  1  0  0  0  0  0  0  0  0  0
   -7.3813    8.2137    0.0000 C   0  0  1  0  0  0  0  0  0  0  0  0
   -6.3649    3.1064    0.0000 C   0  0  0  0  0  0  0  0  0  0  0  0
  -10.1610    4.9660    0.0000 C   0  0  0  0  0  0  0  0  0  0  0  0
   -5.6504    1.8689    0.0000 C   0  0  0  0  0  0  0  0  0  0  0  0
   -9.1135    3.9941    0.0000 C   0  0  0  0  0  0  0  0  0  0  0  0
   -8.5371    6.7643    0.0000 C   0  0  0  0  0  0  0  0  0  0  0  0
   -6.3179    1.3840    0.0000 N   0  0  0  0  0  0  0  0  0  0  0  0
   -9.6083    3.3340    0.0000 N   0  0  0  0  0  0  0  0  0  0  0  0
   -5.6504    2.6939    0.0000 N   0  0  0  0  0  0  0  0  0  0  0  0
   -9.3567    4.7824    0.0000 N   0  0  0  0  0  0  0  0  0  0  0  0
   -7.7938    6.4064    0.0000 N   0  0  0  0  0  0  0  0  0  0  0  0
   -8.7207    7.5686    0.0000 N   0  0  0  0  0  0  0  0  0  0  0  0
   -6.0626    7.7522    0.0000 O   0  0  0  0  0  0  0  0  0  0  0  0
   -7.0234    8.9570    0.0000 O   0  0  0  0  0  0  0  0  0  0  0  0
   -7.0794    2.6939    0.0000 O   0  0  0  0  0  0  0  0  0  0  0  0
  -10.7221    4.3612    0.0000 O   0  0  0  0  0  0  0  0  0  0  0  0
   -9.1821    6.2500    0.0000 O   0  0  0  0  0  0  0  0  0  0  0  0
   -4.9830    1.3840    0.0000 S   0  0  0  0  0  0  0  0  0  0  0  0
   -8.3328    3.7274    0.0000 S   0  0  0  0  0  0  0  0  0  0  0  0
   -6.4120    7.2867    0.0000 H   0  0  0  0  0  0  0  0  0  0  0  0
   -8.0328    9.0202    0.0000 H   0  0  0  0  0  0  0  0  0  0  0  0
   -6.1193    7.2200    0.0000 H   0  0  0  0  0  0  0  0  0  0  0  0
   -7.5549    9.0202    0.0000 H   0  0  0  0  0  0  0  0  0  0  0  0
   -3.1409    7.5312    0.0000 H   0  0  0  0  0  0  0  0  0  0  0  0
   -6.5888   11.8546    0.0000 H   0  0  0  0  0  0  0  0  0  0  0  0
   -4.5928    8.6891    0.0000 H   0  0  0  0  0  0  0  0  0  0  0  0
   -3.4178    5.6949    0.0000 H   0  0  0  0  0  0  0  0  0  0  0  0
   -8.4406   11.9934    0.0000 H   0  0  0  0  0  0  0  0  0  0  0  0
   -5.7830   10.1815    0.0000 H   0  0  0  0  0  0  0  0  0  0  0  0
   -4.7567    5.6849    0.0000 H   0  0  0  0  0  0  0  0  0  0  0  0
  -12.4577    6.9560    0.0000 H   0  0  0  0  0  0  0  0  0  0  0  0
   -6.3215    8.0105    0.0000 H   0  0  0  0  0  0  0  0  0  0  0  0
   -5.1463    5.0165    0.0000 H   0  0  0  0  0  0  0  0  0  0  0  0
   -9.4866   10.4590    0.0000 H   0  0  0  0  0  0  0  0  0  0  0  0
   -6.8291    8.6472    0.0000 H   0  0  0  0  0  0  0  0  0  0  0  0
   -6.3649    6.6134    0.0000 H   0  0  0  0  0  0  0  0  0  0  0  0
  -11.1947    8.3171    0.0000 H   0  0  0  0  0  0  0  0  0  0  0  0
   -4.7567    3.8279    0.0000 H   0  0  0  0  0  0  0  0  0  0  0  0
  -11.9105    5.1814    0.0000 H   0  0  0  0  0  0  0  0  0  0  0  0
   -6.6695   -0.2356    0.0000 H   0  0  0  0  0  0  0  0  0  0  0  0
   -9.4671    1.6827    0.0000 H   0  0  0  0  0  0  0  0  0  0  0  0
   -4.6313   -0.2356    0.0000 H   0  0  0  0  0  0  0  0  0  0  0  0
   -7.5193    2.2835    0.0000 H   0  0  0  0  0  0  0  0  0  0  0  0
   -7.9731    3.8279    0.0000 H   0  0  0  0  0  0  0  0  0  0  0  0
   -8.8369    6.1295    0.0000 H   0  0  0  0  0  0  0  0  0  0  0  0
   -6.5649    5.1919    0.0000 H   0  0  0  0  0  0  0  0  0  0  0  0
   -7.4015    5.8590    0.0000 H   0  0  0  0  0  0  0  0  0  0  0  0
   -9.6313    9.0369    0.0000 H   0  0  0  0  0  0  0  0  0  0  0  0
   -9.1670    8.0729    0.0000 H   0  0  0  0  0  0  0  0  0  0  0  0
   -8.7205    5.0464    0.0000 H   0  0  0  0  0  0  0  0  0  0  0  0
   -8.7204    6.1164    0.0000 H   0  0  0  0  0  0  0  0  0  0  0  0
   -9.8403    8.7747    0.0000 H   0  0  0  0  0  0  0  0  0  0  0  0
   -8.7972    8.5365    0.0000 H   0  0  0  0  0  0  0  0  0  0  0  0
   -4.7978    3.1862    0.0000 H   0  0  0  0  0  0  0  0  0  0  0  0
   -8.6871    5.5041    0.0000 H   0  0  0  0  0  0  0  0  0  0  0  0
   -5.4028    7.0411    0.0000 H   0  0  0  0  0  0  0  0  0  0  0  0
   -6.0561    9.0295    0.0000 H   0  0  0  0  0  0  0  0  0  0  0  0
  1 59  1  0  0  0  0
  2 60  1  0  0  0  0
  3  1  2  0  0  0  0
  3 61  1  0  0  0  0
  4  1  1  0  0  0  0
  4 62  1  0  0  0  0
  5  2  2  0  0  0  0
  5 63  1  0  0  0  0
  6  2  1  0  0  0  0
  6 64  1  0  0  0  0
  7 65  1  0  0  0  0
  8 66  1  0  0  0  0
  9  3  1  0  0  0  0
  9 67  1  0  0  0  0
 10  4  2  0  0  0  0
 10 68  1  0  0  0  0
 11  5  1  0  0  0  0
 11 69  1  0  0  0  0
 12  6  2  0  0  0  0
 12 70  1  0  0  0  0
 13  7  2  0  0  0  0
 13 71  1  0  0  0  0
 14  8  2  0  0  0  0
 14 72  1  0  0  0  0
 15  7  1  0  0  0  0
 15 73  1  0  0  0  0
 16  8  1  0  0  0  0
 16 74  1  0  0  0  0
 17 75  1  0  0  0  0
 18 76  1  0  0  0  0
 19 17  2  0  0  0  0
 19 77  1  0  0  0  0
 20 18  2  0  0  0  0
 20 78  1  0  0  0  0
 21 79  1  0  0  0  0
 22 80  1  0  0  0  0
 23 81  1  0  0  0  0
 23 82  1  0  0  0  0
 24 83  1  0  0  0  0
 24 84  1  0  0  0  0
 25 85  1  0  0  0  0
 25 86  1  0  0  0  0
 26 87  1  0  0  0  0
 26 88  1  0  0  0  0
 27  9  2  0  0  0  0
 27 10  1  0  0  0  0
 27 23  1  0  0  0  0
 28 11  2  0  0  0  0
 28 12  1  0  0  0  0
 28 24  1  0  0  0  0
 29 13  1  0  0  0  0
 29 21  2  0  0  0  0
 29 25  1  0  0  0  0
 30 14  1  0  0  0  0
 30 22  2  0  0  0  0
 30 26  1  0  0  0  0
 31 15  2  0  0  0  0
 31 21  1  0  0  0  0
 32 16  2  0  0  0  0
 32 22  1  0  0  0  0
 33 23  1  0  0  0  0
 33 55  1  6  0  0  0
 34 24  1  0  0  0  0
 34 56  1  1  0  0  0
 35 33  1  0  0  0  0
 35 48  1  0  0  0  0
 35 57  1  6  0  0  0
 36 34  1  0  0  0  0
 36 35  1  0  0  0  0
 36 49  1  0  0  0  0
 36 58  1  1  0  0  0
 37 31  1  0  0  0  0
 38 32  1  0  0  0  0
 42 17  1  0  0  0  0
 42 39  2  0  0  0  0
 43 18  1  0  0  0  0
 43 40  2  0  0  0  0
 44 37  1  0  0  0  0
 44 39  1  0  0  0  0
 44 89  1  0  0  0  0
 45 38  1  0  0  0  0
 45 40  1  0  0  0  0
 45 90  1  0  0  0  0
 46 25  1  0  0  0  0
 46 33  1  0  0  0  0
 46 41  1  0  0  0  0
 47 26  1  0  0  0  0
 47 34  1  0  0  0  0
 47 41  1  0  0  0  0
 48 91  1  0  0  0  0
 49 92  1  0  0  0  0
 50 37  2  0  0  0  0
 51 38  2  0  0  0  0
 52 41  2  0  0  0  0
 53 19  1  0  0  0  0
 53 39  1  0  0  0  0
 54 20  1  0  0  0  0
 54 40  1  0  0  0  0
M  END
>  <DRUGBANK_ID>
DB02702

>  <SECONDARY_ACCESSION_NUMBERS>
EXPT00267

>  <COMMON_NAME>
XV638

>  <CAS_NUMBER>
183854-11-7

$$$$
