
 OpenBabel10282417072D

 30 31  0  0  1  0  0  0  0  0999 V2000
   -0.6110   -1.8216    0.0000 C   0  0  0  0  0  0  0  0  0  0  0  0
   -0.2754   -1.0679    0.0000 C   0  0  0  0  0  0  0  0  0  0  0  0
   -0.7604   -0.4005    0.0000 C   0  0  0  0  0  0  0  0  0  0  0  0
   -0.4248    0.3532    0.0000 N   0  0  0  0  0  0  0  0  0  0  0  0
    0.3957    0.4394    0.0000 C   0  0  0  0  0  0  0  0  0  0  0  0
    0.7312    1.1931    0.0000 O   0  0  0  0  0  0  0  0  0  0  0  0
    0.8806   -0.2280    0.0000 N   0  0  0  0  0  0  0  0  0  0  0  0
    0.5450   -0.9817    0.0000 C   0  0  0  0  0  0  0  0  0  0  0  0
    1.0300   -1.6491    0.0000 O   0  0  0  0  0  0  0  0  0  0  0  0
   -0.9097    1.0206    0.0000 C   0  0  1  0  0  0  0  0  0  0  0  0
   -1.7347    1.0206    0.0000 C   0  0  0  0  0  0  0  0  0  0  0  0
   -1.9897    1.8053    0.0000 C   0  0  0  0  0  0  0  0  0  0  0  0
   -1.3222    2.2902    0.0000 C   0  0  2  0  0  0  0  0  0  0  0  0
   -0.6548    1.8053    0.0000 O   0  0  0  0  0  0  0  0  0  0  0  0
   -1.7272    3.0089    0.0000 C   0  0  0  0  0  0  0  0  0  0  0  0
   -2.5522    3.0176    0.0000 O   0  0  0  0  0  0  0  0  0  0  0  0
   -0.9172    3.0089    0.0000 C   0  0  0  0  0  0  0  0  0  0  0  0
   -0.5122    3.7277    0.0000 C   0  0  0  0  0  0  0  0  0  0  0  0
   -1.6751   -1.9334    0.0000 H   0  0  0  0  0  0  0  0  0  0  0  0
    0.0179   -2.6873    0.0000 H   0  0  0  0  0  0  0  0  0  0  0  0
   -1.0462   -2.7991    0.0000 H   0  0  0  0  0  0  0  0  0  0  0  0
   -1.7867   -0.5084    0.0000 H   0  0  0  0  0  0  0  0  0  0  0  0
    1.8597   -0.1251    0.0000 H   0  0  0  0  0  0  0  0  0  0  0  0
   -1.3955    0.0672    0.0000 H   0  0  0  0  0  0  0  0  0  0  0  0
   -2.3413    0.1857    0.0000 H   0  0  0  0  0  0  0  0  0  0  0  0
   -2.9712    2.1242    0.0000 H   0  0  0  0  0  0  0  0  0  0  0  0
   -1.1825    3.9299    0.0000 H   0  0  0  0  0  0  0  0  0  0  0  0
   -2.2524    3.9411    0.0000 H   0  0  0  0  0  0  0  0  0  0  0  0
   -3.0283    3.8627    0.0000 H   0  0  0  0  0  0  0  0  0  0  0  0
   -0.0243    4.5937    0.0000 H   0  0  0  0  0  0  0  0  0  0  0  0
  1  2  1  0  0  0  0
  1 19  1  0  0  0  0
  1 20  1  0  0  0  0
  1 21  1  0  0  0  0
  2  3  2  0  0  0  0
  2  8  1  0  0  0  0
  3  4  1  0  0  0  0
  3 22  1  0  0  0  0
  4  5  1  0  0  0  0
  5  6  2  0  0  0  0
  5  7  1  0  0  0  0
  7  8  1  0  0  0  0
  7 23  1  0  0  0  0
  8  9  2  0  0  0  0
 10  4  1  0  0  0  0
 10 11  1  0  0  0  0
 10 14  1  0  0  0  0
 10 24  1  6  0  0  0
 11 12  2  0  0  0  0
 11 25  1  0  0  0  0
 12 13  1  0  0  0  0
 12 26  1  0  0  0  0
 13 14  1  0  0  0  0
 13 15  1  0  0  0  0
 13 17  1  6  0  0  0
 15 16  1  0  0  0  0
 15 27  1  0  0  0  0
 15 28  1  0  0  0  0
 16 29  1  0  0  0  0
 17 18  3  0  0  0  0
 18 30  1  0  0  0  0
M  END
>  <DRUGBANK_ID>
DB12074

>  <COMMON_NAME>
Censavudine

>  <CAS_NUMBER>
634907-30-5

>  <UNII>
6IE83O6NGA

>  <SYNONYMS>
Censavudine

$$$$
