
 OpenBabel10282417072D

 64 65  0  0  0  0  0  0  0  0999 V2000
   -2.1430    1.4463    0.0000 C   0  0  0  0  0  0  0  0  0  0  0  0
   -2.8571    1.8597    0.0000 O   0  0  0  0  0  0  0  0  0  0  0  0
   -2.1436    0.6255    0.0000 C   0  0  0  0  0  0  0  0  0  0  0  0
   -1.4269    0.2129    0.0000 C   0  0  0  0  0  0  0  0  0  0  0  0
   -1.4269   -0.6120    0.0000 C   0  0  0  0  0  0  0  0  0  0  0  0
   -2.1432   -1.0245    0.0000 C   0  0  0  0  0  0  0  0  0  0  0  0
   -2.8553   -0.6120    0.0000 C   0  0  0  0  0  0  0  0  0  0  0  0
   -2.8553    0.2129    0.0000 C   0  0  0  0  0  0  0  0  0  0  0  0
   -2.1442   -1.8496    0.0000 I   0  0  0  0  0  0  0  0  0  0  0  0
   -3.5701    0.6249    0.0000 I   0  0  0  0  0  0  0  0  0  0  0  0
   -0.7126    0.6258    0.0000 I   0  0  0  0  0  0  0  0  0  0  0  0
   -3.5701   -1.0241    0.0000 C   0  0  0  0  0  0  0  0  0  0  0  0
   -4.2813   -0.6079    0.0000 N   0  0  0  0  0  0  0  0  0  0  0  0
   -4.9939   -1.0205    0.0000 C   0  0  0  0  0  0  0  0  0  0  0  0
   -3.5728   -1.8491    0.0000 O   0  0  0  0  0  0  0  0  0  0  0  0
   -0.7144   -1.0245    0.0000 N   0  0  0  0  0  0  0  0  0  0  0  0
   -0.0019   -0.6162    0.0000 C   0  0  0  0  0  0  0  0  0  0  0  0
    0.7106   -1.0288    0.0000 C   0  0  0  0  0  0  0  0  0  0  0  0
   -1.4281    1.8581    0.0000 O   0  0  0  0  0  0  0  0  0  0  0  0
   -5.7089   -0.6088    0.0000 C   0  0  0  0  0  0  0  0  0  0  0  0
   -6.4229   -1.0222    0.0000 O   0  0  0  0  0  0  0  0  0  0  0  0
   -0.0001    0.2087    0.0000 O   0  0  0  0  0  0  0  0  0  0  0  0
    1.4255   -0.6171    0.0000 N   0  0  0  0  0  0  0  0  0  0  0  0
    2.1395   -1.0304    0.0000 C   0  0  0  0  0  0  0  0  0  0  0  0
    2.8546   -0.6188    0.0000 C   0  0  0  0  0  0  0  0  0  0  0  0
    3.5651   -1.0328    0.0000 C   0  0  0  0  0  0  0  0  0  0  0  0
    4.2800   -0.6212    0.0000 C   0  0  0  0  0  0  0  0  0  0  0  0
    4.2810    0.2037    0.0000 C   0  0  0  0  0  0  0  0  0  0  0  0
    3.5669    0.6171    0.0000 C   0  0  0  0  0  0  0  0  0  0  0  0
    2.8932    0.2054    0.0000 C   0  0  0  0  0  0  0  0  0  0  0  0
    4.9940   -1.0347    0.0000 N   0  0  0  0  0  0  0  0  0  0  0  0
    4.9930   -1.8597    0.0000 C   0  0  0  0  0  0  0  0  0  0  0  0
    5.7090   -0.6229    0.0000 C   0  0  0  0  0  0  0  0  0  0  0  0
    6.4229   -1.0364    0.0000 C   0  0  0  0  0  0  0  0  0  0  0  0
    5.7100    0.2021    0.0000 O   0  0  0  0  0  0  0  0  0  0  0  0
    3.5679    1.4422    0.0000 C   0  0  0  0  0  0  0  0  0  0  0  0
    4.2830    1.8538    0.0000 O   0  0  0  0  0  0  0  0  0  0  0  0
    2.8539    1.8555    0.0000 N   0  0  0  0  0  0  0  0  0  0  0  0
    2.1389    1.4440    0.0000 C   0  0  0  0  0  0  0  0  0  0  0  0
    2.1385   -1.8555    0.0000 O   0  0  0  0  0  0  0  0  0  0  0  0
    3.5629   -1.8579    0.0000 I   0  0  0  0  0  0  0  0  0  0  0  0
    4.9960    0.6153    0.0000 I   0  0  0  0  0  0  0  0  0  0  0  0
    2.1370    0.6172    0.0000 I   0  0  0  0  0  0  0  0  0  0  0  0
   -4.2790    0.3766    0.0000 H   0  0  0  0  0  0  0  0  0  0  0  0
   -4.9926   -2.0905    0.0000 H   0  0  0  0  0  0  0  0  0  0  0  0
   -5.9199   -1.5566    0.0000 H   0  0  0  0  0  0  0  0  0  0  0  0
   -0.7166   -2.0090    0.0000 H   0  0  0  0  0  0  0  0  0  0  0  0
    0.7093   -2.0988    0.0000 H   0  0  0  0  0  0  0  0  0  0  0  0
   -0.2167   -1.5626    0.0000 H   0  0  0  0  0  0  0  0  0  0  0  0
   -0.6171    1.3888    0.0000 H   0  0  0  0  0  0  0  0  0  0  0  0
   -5.7102    0.4612    0.0000 H   0  0  0  0  0  0  0  0  0  0  0  0
   -6.6362   -0.0749    0.0000 H   0  0  0  0  0  0  0  0  0  0  0  0
   -7.2635   -0.5382    0.0000 H   0  0  0  0  0  0  0  0  0  0  0  0
    1.4266    0.3674    0.0000 H   0  0  0  0  0  0  0  0  0  0  0  0
    4.0657   -2.3936    0.0000 H   0  0  0  0  0  0  0  0  0  0  0  0
    5.9190   -2.3958    0.0000 H   0  0  0  0  0  0  0  0  0  0  0  0
    4.9917   -2.9297    0.0000 H   0  0  0  0  0  0  0  0  0  0  0  0
    6.4214   -2.1064    0.0000 H   0  0  0  0  0  0  0  0  0  0  0  0
    7.3503   -0.5027    0.0000 H   0  0  0  0  0  0  0  0  0  0  0  0
    7.3488   -1.5727    0.0000 H   0  0  0  0  0  0  0  0  0  0  0  0
    2.8551    2.8400    0.0000 H   0  0  0  0  0  0  0  0  0  0  0  0
    1.2130    1.9803    0.0000 H   0  0  0  0  0  0  0  0  0  0  0  0
    2.1374    0.3740    0.0000 H   0  0  0  0  0  0  0  0  0  0  0  0
    1.2115    0.9103    0.0000 H   0  0  0  0  0  0  0  0  0  0  0  0
  1 19  1  0  0  0  0
  1  2  2  0  0  0  0
  3  4  1  0  0  0  0
  3  1  1  0  0  0  0
  4 11  1  0  0  0  0
  4  5  2  0  0  0  0
  5  6  1  0  0  0  0
  5 16  1  0  0  0  0
  6  7  2  0  0  0  0
  6  9  1  0  0  0  0
  7 12  1  0  0  0  0
  7  8  1  0  0  0  0
  8  3  2  0  0  0  0
  8 10  1  0  0  0  0
 12 13  1  0  0  0  0
 12 15  2  0  0  0  0
 13 14  1  0  0  0  0
 13 44  1  0  0  0  0
 14 20  1  0  0  0  0
 14 45  1  0  0  0  0
 14 46  1  0  0  0  0
 16 17  1  0  0  0  0
 16 47  1  0  0  0  0
 17 22  2  0  0  0  0
 17 18  1  0  0  0  0
 18 23  1  0  0  0  0
 18 48  1  0  0  0  0
 18 49  1  0  0  0  0
 19 50  1  0  0  0  0
 20 21  1  0  0  0  0
 20 51  1  0  0  0  0
 20 52  1  0  0  0  0
 21 53  1  0  0  0  0
 23 24  1  0  0  0  0
 23 54  1  0  0  0  0
 24 25  1  0  0  0  0
 24 40  2  0  0  0  0
 25 26  2  0  0  0  0
 26 27  1  0  0  0  0
 26 41  1  0  0  0  0
 27 28  2  0  0  0  0
 27 31  1  0  0  0  0
 28 29  1  0  0  0  0
 28 42  1  0  0  0  0
 29 30  2  0  0  0  0
 29 36  1  0  0  0  0
 30 25  1  0  0  0  0
 30 43  1  0  0  0  0
 31 32  1  0  0  0  0
 31 33  1  0  0  0  0
 32 55  1  0  0  0  0
 32 56  1  0  0  0  0
 32 57  1  0  0  0  0
 33 34  1  0  0  0  0
 33 35  2  0  0  0  0
 34 58  1  0  0  0  0
 34 59  1  0  0  0  0
 34 60  1  0  0  0  0
 36 37  2  0  0  0  0
 36 38  1  0  0  0  0
 38 39  1  0  0  0  0
 38 61  1  0  0  0  0
 39 62  1  0  0  0  0
 39 63  1  0  0  0  0
 39 64  1  0  0  0  0
M  END
>  <DRUGBANK_ID>
DB09313

>  <COMMON_NAME>
Ioxaglic acid

>  <CAS_NUMBER>
59017-64-0

>  <UNII>
Z40X7EI2AF

>  <SYNONYMS>
acido ioxaglico; Ioxaglic acid

$$$$
