
 OpenBabel10282417072D

 25 26  0  0  0  0  0  0  0  0999 V2000
   -0.4869    1.1562    0.0000 O   0  0  0  0  0  0  0  0  0  0  0  0
   -0.2690    0.3605    0.0000 C   0  0  2  0  0  0  0  0  0  0  0  0
   -0.8296    0.8004    0.0000 N   0  0  0  0  0  0  0  0  0  0  0  0
   -0.5895   -0.3480    0.0000 C   0  0  0  0  0  0  0  0  0  0  0  0
   -1.2098   -0.7249    0.0000 C   0  0  0  0  0  0  0  0  0  0  0  0
   -0.6899   -0.0126    0.0000 C   0  0  2  0  0  0  0  0  0  0  0  0
    0.6598    0.3760    0.0000 C   0  0  1  0  0  0  0  0  0  0  0  0
    1.1870    1.0105    0.0000 O   0  0  0  0  0  0  0  0  0  0  0  0
    0.7980   -0.4413    0.0000 C   0  0  2  0  0  0  0  0  0  0  0  0
    1.2097   -1.1562    0.0000 O   0  0  0  0  0  0  0  0  0  0  0  0
    0.2817   -0.0126    0.0000 C   0  0  1  0  0  0  0  0  0  0  0  0
    0.0015   -0.7886    0.0000 O   0  0  0  0  0  0  0  0  0  0  0  0
   -0.2369   -0.9041    0.0000 H   0  0  0  0  0  0  0  0  0  0  0  0
    0.1952    1.8459    0.0000 H   0  0  0  0  0  0  0  0  0  0  0  0
   -1.3521    1.6764    0.0000 H   0  0  0  0  0  0  0  0  0  0  0  0
    0.2115   -1.0574    0.0000 H   0  0  0  0  0  0  0  0  0  0  0  0
   -0.6850   -1.4137    0.0000 H   0  0  0  0  0  0  0  0  0  0  0  0
   -1.9977   -1.4489    0.0000 H   0  0  0  0  0  0  0  0  0  0  0  0
   -2.0078   -0.0121    0.0000 H   0  0  0  0  0  0  0  0  0  0  0  0
    0.1972    1.3408    0.0000 H   0  0  0  0  0  0  0  0  0  0  0  0
    2.1431    0.8467    0.0000 H   0  0  0  0  0  0  0  0  0  0  0  0
    1.8049   -0.0794    0.0000 H   0  0  0  0  0  0  0  0  0  0  0  0
    0.7238   -1.9957    0.0000 H   0  0  0  0  0  0  0  0  0  0  0  0
   -0.5940   -0.6274    0.0000 H   0  0  0  0  0  0  0  0  0  0  0  0
   -0.9533   -0.9595    0.0000 H   0  0  0  0  0  0  0  0  0  0  0  0
  1 14  1  0  0  0  0
  2  1  1  1  0  0  0
  2  3  1  0  0  0  0
  2  4  1  0  0  0  0
  2  7  1  0  0  0  0
  3 15  1  0  0  0  0
  4 16  1  0  0  0  0
  4 17  1  0  0  0  0
  5  4  1  0  0  0  0
  5 18  1  0  0  0  0
  5 19  1  0  0  0  0
  6  3  1  0  0  0  0
  6  5  1  0  0  0  0
  6 13  1  6  0  0  0
  7  8  1  0  0  0  0
  7  9  1  0  0  0  0
  7 20  1  6  0  0  0
  8 21  1  0  0  0  0
  9 10  1  0  0  0  0
  9 11  1  0  0  0  0
  9 22  1  1  0  0  0
 10 23  1  0  0  0  0
 11  6  1  0  0  0  0
 11 12  1  0  0  0  0
 11 24  1  6  0  0  0
 12 25  1  0  0  0  0
M  END
>  <DRUGBANK_ID>
DB04658

>  <COMMON_NAME>
Calystegine B2

>  <CAS_NUMBER>
127414-85-1

>  <UNII>
7LZN33KW88

>  <SYNONYMS>
Calystegine B(2)

$$$$
