
 OpenBabel10282417072D

 54 56  0  0  0  0  0  0  0  0999 V2000
   -2.0663    0.2531    0.0000 C   0  0  0  0  0  0  0  0  0  0  0  0
   -2.0662    1.0781    0.0000 C   0  0  0  0  0  0  0  0  0  0  0  0
   -1.3518   -0.1593    0.0000 N   0  0  0  0  0  0  0  0  0  0  0  0
   -2.7808   -0.1593    0.0000 C   0  0  0  0  0  0  0  0  0  0  0  0
   -2.7808    1.4906    0.0000 C   0  0  0  0  0  0  0  0  0  0  0  0
   -1.3518    1.4906    0.0000 C   0  0  0  0  0  0  0  0  0  0  0  0
   -0.6373    0.2531    0.0000 C   0  0  0  0  0  0  0  0  0  0  0  0
   -3.4952    0.2531    0.0000 C   0  0  0  0  0  0  0  0  0  0  0  0
   -3.4952    1.0781    0.0000 C   0  0  0  0  0  0  0  0  0  0  0  0
   -0.6373    1.0781    0.0000 N   0  0  0  0  0  0  0  0  0  0  0  0
   -1.3518    2.3156    0.0000 N   0  0  0  0  0  0  0  0  0  0  0  0
    0.0770   -0.1593    0.0000 N   0  0  0  0  0  0  0  0  0  0  0  0
   -4.2097   -0.1592    0.0000 O   0  0  0  0  0  0  0  0  0  0  0  0
   -4.2097    1.4907    0.0000 O   0  0  0  0  0  0  0  0  0  0  0  0
    0.7587    0.3053    0.0000 C   0  0  0  0  0  0  0  0  0  0  0  0
    0.0154   -0.9820    0.0000 C   0  0  0  0  0  0  0  0  0  0  0  0
   -4.2097   -0.9842    0.0000 C   0  0  0  0  0  0  0  0  0  0  0  0
   -4.2097    2.3157    0.0000 C   0  0  0  0  0  0  0  0  0  0  0  0
    1.5470    0.0622    0.0000 C   0  0  0  0  0  0  0  0  0  0  0  0
    0.6201   -1.5431    0.0000 C   0  0  0  0  0  0  0  0  0  0  0  0
    1.8484   -0.7057    0.0000 N   0  0  0  0  0  0  0  0  0  0  0  0
    1.4359   -1.4202    0.0000 C   0  0  0  0  0  0  0  0  0  0  0  0
    2.6711   -0.7674    0.0000 C   0  0  0  0  0  0  0  0  0  0  0  0
    3.0291   -1.5107    0.0000 C   0  0  0  0  0  0  0  0  0  0  0  0
    3.1359   -0.0858    0.0000 O   0  0  0  0  0  0  0  0  0  0  0  0
    3.8518   -1.5723    0.0000 C   0  0  0  0  0  0  0  0  0  0  0  0
    4.2097   -2.3157    0.0000 C   0  0  0  0  0  0  0  0  0  0  0  0
   -2.7808   -1.1913    0.0000 H   0  0  0  0  0  0  0  0  0  0  0  0
   -2.7809    2.5226    0.0000 H   0  0  0  0  0  0  0  0  0  0  0  0
   -0.4992    2.8079    0.0000 H   0  0  0  0  0  0  0  0  0  0  0  0
   -2.2044    2.8078    0.0000 H   0  0  0  0  0  0  0  0  0  0  0  0
    0.5993    1.3634    0.0000 H   0  0  0  0  0  0  0  0  0  0  0  0
    1.5697    1.0033    0.0000 H   0  0  0  0  0  0  0  0  0  0  0  0
   -0.9806   -1.3729    0.0000 H   0  0  0  0  0  0  0  0  0  0  0  0
   -0.1835   -2.0333    0.0000 H   0  0  0  0  0  0  0  0  0  0  0  0
   -5.1363   -1.5192    0.0000 H   0  0  0  0  0  0  0  0  0  0  0  0
   -3.2831   -1.5192    0.0000 H   0  0  0  0  0  0  0  0  0  0  0  0
   -4.2097   -2.0542    0.0000 H   0  0  0  0  0  0  0  0  0  0  0  0
   -3.2831    2.8507    0.0000 H   0  0  0  0  0  0  0  0  0  0  0  0
   -5.1363    2.8507    0.0000 H   0  0  0  0  0  0  0  0  0  0  0  0
   -4.2097    3.3857    0.0000 H   0  0  0  0  0  0  0  0  0  0  0  0
    2.2747    0.8466    0.0000 H   0  0  0  0  0  0  0  0  0  0  0  0
    2.5984   -0.1367    0.0000 H   0  0  0  0  0  0  0  0  0  0  0  0
    0.3047   -2.5655    0.0000 H   0  0  0  0  0  0  0  0  0  0  0  0
    1.3180   -2.3542    0.0000 H   0  0  0  0  0  0  0  0  0  0  0  0
    2.0386   -2.3043    0.0000 H   0  0  0  0  0  0  0  0  0  0  0  0
    2.5052   -1.3802    0.0000 H   0  0  0  0  0  0  0  0  0  0  0  0
    2.4264   -2.3948    0.0000 H   0  0  0  0  0  0  0  0  0  0  0  0
    3.4934   -2.4747    0.0000 H   0  0  0  0  0  0  0  0  0  0  0  0
    4.4546   -0.6882    0.0000 H   0  0  0  0  0  0  0  0  0  0  0  0
    4.9188   -1.6523    0.0000 H   0  0  0  0  0  0  0  0  0  0  0  0
    3.6068   -3.1997    0.0000 H   0  0  0  0  0  0  0  0  0  0  0  0
    5.2767   -2.3958    0.0000 H   0  0  0  0  0  0  0  0  0  0  0  0
    4.6738   -3.2798    0.0000 H   0  0  0  0  0  0  0  0  0  0  0  0
  1  2  1  0  0  0  0
  1  3  2  0  0  0  0
  1  4  1  0  0  0  0
  2  5  1  0  0  0  0
  2  6  2  0  0  0  0
  3  7  1  0  0  0  0
  4  8  2  0  0  0  0
  4 28  1  0  0  0  0
  5  9  2  0  0  0  0
  5 29  1  0  0  0  0
  6 10  1  0  0  0  0
  6 11  1  0  0  0  0
  7 12  1  0  0  0  0
  7 10  2  0  0  0  0
  8 13  1  0  0  0  0
  8  9  1  0  0  0  0
  9 14  1  0  0  0  0
 11 30  1  0  0  0  0
 11 31  1  0  0  0  0
 12 15  1  0  0  0  0
 12 16  1  0  0  0  0
 13 17  1  0  0  0  0
 14 18  1  0  0  0  0
 15 19  1  0  0  0  0
 15 32  1  0  0  0  0
 15 33  1  0  0  0  0
 16 20  1  0  0  0  0
 16 34  1  0  0  0  0
 16 35  1  0  0  0  0
 17 36  1  0  0  0  0
 17 37  1  0  0  0  0
 17 38  1  0  0  0  0
 18 39  1  0  0  0  0
 18 40  1  0  0  0  0
 18 41  1  0  0  0  0
 19 21  1  0  0  0  0
 19 42  1  0  0  0  0
 19 43  1  0  0  0  0
 20 22  1  0  0  0  0
 20 44  1  0  0  0  0
 20 45  1  0  0  0  0
 21 23  1  0  0  0  0
 21 22  1  0  0  0  0
 22 46  1  0  0  0  0
 22 47  1  0  0  0  0
 23 24  1  0  0  0  0
 23 25  2  0  0  0  0
 24 26  1  0  0  0  0
 24 48  1  0  0  0  0
 24 49  1  0  0  0  0
 26 27  1  0  0  0  0
 26 50  1  0  0  0  0
 26 51  1  0  0  0  0
 27 52  1  0  0  0  0
 27 53  1  0  0  0  0
 27 54  1  0  0  0  0
M  END
>  <DRUGBANK_ID>
DB12230

>  <COMMON_NAME>
Bunazosin

>  <CAS_NUMBER>
80755-51-7

>  <UNII>
9UUW4V7G2H

>  <SYNONYMS>
Bunazosin

$$$$
