
 OpenBabel10282417072D

 54 55  0  0  0  0  0  0  0  0999 V2000
    0.0000    2.4750    0.0000 C   0  0  0  0  0  0  0  0  0  0  0  0
   -3.5723   -1.2375    0.0000 C   0  0  0  0  0  0  0  0  0  0  0  0
   -2.1434    1.2375    0.0000 C   0  0  0  0  0  0  0  0  0  0  0  0
   -3.5723   -0.4125    0.0000 C   0  0  0  0  0  0  0  0  0  0  0  0
    0.0000   -1.6500    0.0000 C   0  0  0  0  0  0  0  0  0  0  0  0
    0.7144   -1.2375    0.0000 C   0  0  0  0  0  0  0  0  0  0  0  0
    0.0000    0.0000    0.0000 C   0  0  0  0  0  0  0  0  0  0  0  0
    0.0000    0.8250    0.0000 C   0  0  0  0  0  0  0  0  0  0  0  0
   -1.4289   -1.6500    0.0000 C   0  0  0  0  0  0  0  0  0  0  0  0
   -0.7144   -0.4125    0.0000 C   0  0  0  0  0  0  0  0  0  0  0  0
   -0.7144   -1.2375    0.0000 C   0  0  0  0  0  0  0  0  0  0  0  0
    0.7144   -0.4125    0.0000 C   0  0  0  0  0  0  0  0  0  0  0  0
    0.7144    1.2375    0.0000 C   0  0  0  0  0  0  0  0  0  0  0  0
   -2.1434   -1.2375    0.0000 C   0  0  0  0  0  0  0  0  0  0  0  0
   -1.4289    0.0000    0.0000 C   0  0  0  0  0  0  0  0  0  0  0  0
    1.4289    0.0000    0.0000 C   0  0  0  0  0  0  0  0  0  0  0  0
   -2.1434   -0.4125    0.0000 C   0  0  0  0  0  0  0  0  0  0  0  0
    1.4289    0.8250    0.0000 C   0  0  0  0  0  0  0  0  0  0  0  0
    2.9684   -1.2375    0.0000 O   0  0  0  0  0  0  0  0  0  0  0  0
    1.3184   -1.2375    0.0000 O   0  0  0  0  0  0  0  0  0  0  0  0
    2.1434   -2.0625    0.0000 O   0  0  0  0  0  0  0  0  0  0  0  0
    3.5723    0.4125    0.0000 O   0  0  0  0  0  0  0  0  0  0  0  0
    3.2703    1.5394    0.0000 O   0  0  0  0  0  0  0  0  0  0  0  0
    2.4453    0.1105    0.0000 O   0  0  0  0  0  0  0  0  0  0  0  0
    0.7144    2.0625    0.0000 O   0  0  0  0  0  0  0  0  0  0  0  0
   -2.8578   -1.6500    0.0000 O   0  0  0  0  0  0  0  0  0  0  0  0
   -1.4289    0.8250    0.0000 O   0  0  0  0  0  0  0  0  0  0  0  0
   -2.8578    0.0000    0.0000 O   0  0  0  0  0  0  0  0  0  0  0  0
    2.1434   -0.4125    0.0000 O   0  0  0  0  0  0  0  0  0  0  0  0
    2.1434    1.2375    0.0000 O   0  0  0  0  0  0  0  0  0  0  0  0
    2.1434   -1.2375    0.0000 P   0  0  0  0  0  0  0  0  0  0  0  0
    2.8578    0.8250    0.0000 P   0  0  0  0  0  0  0  0  0  0  0  0
    0.0000   -2.4750    0.0000 H   0  0  0  0  0  0  0  0  0  0  0  0
    0.9279   -2.0343    0.0000 H   0  0  0  0  0  0  0  0  0  0  0  0
    0.0000    3.5450    0.0000 H   0  0  0  0  0  0  0  0  0  0  0  0
   -0.9267    1.9400    0.0000 H   0  0  0  0  0  0  0  0  0  0  0  0
   -0.9266    3.0100    0.0000 H   0  0  0  0  0  0  0  0  0  0  0  0
   -3.5723   -0.1675    0.0000 H   0  0  0  0  0  0  0  0  0  0  0  0
   -4.4989   -1.7725    0.0000 H   0  0  0  0  0  0  0  0  0  0  0  0
   -4.4990   -0.7025    0.0000 H   0  0  0  0  0  0  0  0  0  0  0  0
   -2.1434    2.3075    0.0000 H   0  0  0  0  0  0  0  0  0  0  0  0
   -3.0700    0.7025    0.0000 H   0  0  0  0  0  0  0  0  0  0  0  0
   -3.0701    1.7725    0.0000 H   0  0  0  0  0  0  0  0  0  0  0  0
   -4.4989    0.1225    0.0000 H   0  0  0  0  0  0  0  0  0  0  0  0
   -3.5723   -1.4825    0.0000 H   0  0  0  0  0  0  0  0  0  0  0  0
   -4.4990   -0.9475    0.0000 H   0  0  0  0  0  0  0  0  0  0  0  0
   -0.8937   -0.5160    0.0000 H   0  0  0  0  0  0  0  0  0  0  0  0
   -0.8937    1.3410    0.0000 H   0  0  0  0  0  0  0  0  0  0  0  0
   -1.4289   -2.6820    0.0000 H   0  0  0  0  0  0  0  0  0  0  0  0
    0.1793    0.1035    0.0000 H   0  0  0  0  0  0  0  0  0  0  0  0
    3.4534   -2.0775    0.0000 H   0  0  0  0  0  0  0  0  0  0  0  0
    0.8334   -0.3975    0.0000 H   0  0  0  0  0  0  0  0  0  0  0  0
    3.5723   -0.5575    0.0000 H   0  0  0  0  0  0  0  0  0  0  0  0
    4.2403    1.5394    0.0000 H   0  0  0  0  0  0  0  0  0  0  0  0
  1 35  1  0  0  0  0
  1 36  1  0  0  0  0
  1 37  1  0  0  0  0
  2 38  1  0  0  0  0
  2 39  1  0  0  0  0
  2 40  1  0  0  0  0
  3 41  1  0  0  0  0
  3 42  1  0  0  0  0
  3 43  1  0  0  0  0
  4 44  1  0  0  0  0
  4 45  1  0  0  0  0
  4 46  1  0  0  0  0
  6  5  2  0  0  0  0
  7 47  1  0  0  0  0
  8  7  2  0  0  0  0
  8 48  1  0  0  0  0
  9 49  1  0  0  0  0
 10 50  1  0  0  0  0
 11  5  1  0  0  0  0
 11  9  2  0  0  0  0
 11 10  1  0  0  0  0
 12  6  1  0  0  0  0
 12  7  1  0  0  0  0
 13  8  1  0  0  0  0
 14  9  1  0  0  0  0
 15 10  2  0  0  0  0
 16 12  2  0  0  0  0
 17 14  2  0  0  0  0
 17 15  1  0  0  0  0
 18 13  2  0  0  0  0
 18 16  1  0  0  0  0
 19 51  1  0  0  0  0
 20 52  1  0  0  0  0
 22 53  1  0  0  0  0
 23 54  1  0  0  0  0
 25  1  1  0  0  0  0
 25 13  1  0  0  0  0
 26  2  1  0  0  0  0
 26 14  1  0  0  0  0
 27  3  1  0  0  0  0
 27 15  1  0  0  0  0
 28  4  1  0  0  0  0
 28 17  1  0  0  0  0
 29 16  1  0  0  0  0
 30 18  1  0  0  0  0
 31 19  1  0  0  0  0
 31 20  1  0  0  0  0
 31 21  2  0  0  0  0
 31 29  1  0  0  0  0
 32 22  1  0  0  0  0
 32 23  1  0  0  0  0
 32 24  2  0  0  0  0
 32 30  1  0  0  0  0
 33  5  1  0  0  0  0
 34  6  1  0  0  0  0
M  END
>  <DRUGBANK_ID>
DB05143

>  <COMMON_NAME>
OXI-4503

>  <CAS_NUMBER>
288847-35-8

>  <UNII>
JH6Z94GLUD

>  <SYNONYMS>
CA1P; Combretastatin A-1 bis(phosphate); Combretastatin A1 diphosphate; OXI4503

$$$$
