
 OpenBabel10282417072D

104108  0  0  1  0  0  0  0  0999 V2000
    4.2656  -11.2988    0.0000 H   0  0  0  0  0  0  0  0  0  0  0  0
    3.5305  -11.6734    0.0000 C   0  0  1  0  0  0  0  0  0  0  0  0
    4.1979  -12.1583    0.0000 C   0  0  0  0  0  0  0  0  0  0  0  0
    3.9430  -12.9429    0.0000 C   0  0  0  0  0  0  0  0  0  0  0  0
    3.1180  -12.9429    0.0000 C   0  0  1  0  0  0  0  0  0  0  0  0
    2.3110  -12.7714    0.0000 H   0  0  0  0  0  0  0  0  0  0  0  0
    2.5659  -13.5560    0.0000 C   0  0  2  0  0  0  0  0  0  0  0  0
    3.3729  -13.7275    0.0000 H   0  0  0  0  0  0  0  0  0  0  0  0
    2.8209  -14.3406    0.0000 C   0  0  1  0  0  0  0  0  0  0  0  0
    3.6279  -14.5121    0.0000 O   0  0  0  0  0  0  0  0  0  0  0  0
    2.2689  -14.9537    0.0000 C   0  0  0  0  0  0  0  0  0  0  0  0
    1.4619  -14.7822    0.0000 C   0  0  2  0  0  0  0  0  0  0  0  0
    0.6549  -14.6107    0.0000 H   0  0  0  0  0  0  0  0  0  0  0  0
    0.9098  -15.3953    0.0000 C   0  0  0  0  0  0  0  0  0  0  0  0
    0.1029  -15.2238    0.0000 C   0  0  2  0  0  0  0  0  0  0  0  0
   -0.4492  -15.8368    0.0000 O   0  0  0  0  0  0  0  0  0  0  0  0
   -0.1521  -14.4391    0.0000 C   0  0  0  0  0  0  0  0  0  0  0  0
    0.4000  -13.8260    0.0000 C   0  0  0  0  0  0  0  0  0  0  0  0
    1.2069  -13.9976    0.0000 C   0  0  1  0  0  0  0  0  0  0  0  0
    0.9520  -13.2129    0.0000 C   0  0  0  0  0  0  0  0  0  0  0  0
    1.7590  -13.3845    0.0000 C   0  0  1  0  0  0  0  0  0  0  0  0
    2.0139  -14.1691    0.0000 H   0  0  0  0  0  0  0  0  0  0  0  0
    1.5040  -12.5998    0.0000 C   0  0  0  0  0  0  0  0  0  0  0  0
    2.0561  -11.9868    0.0000 C   0  0  0  0  0  0  0  0  0  0  0  0
    2.8630  -12.1583    0.0000 C   0  0  2  0  0  0  0  0  0  0  0  0
    2.6915  -11.3513    0.0000 C   0  0  0  0  0  0  0  0  0  0  0  0
    3.5305  -10.8484    0.0000 C   0  0  2  0  0  0  0  0  0  0  0  0
    2.8160  -10.4359    0.0000 C   0  0  0  0  0  0  0  0  0  0  0  0
    4.2449  -10.4359    0.0000 C   0  0  0  0  0  0  0  0  0  0  0  0
    4.2449   -9.6109    0.0000 C   0  0  0  0  0  0  0  0  0  0  0  0
    4.9594   -9.1984    0.0000 C   0  0  0  0  0  0  0  0  0  0  0  0
    5.6739   -9.6109    0.0000 O   0  0  0  0  0  0  0  0  0  0  0  0
    4.9594   -8.3734    0.0000 O   0  0  0  0  0  0  0  0  0  0  0  0
    5.6739   -7.9609    0.0000 C   0  0  0  0  0  0  0  0  0  0  0  0
    5.6739   -7.1359    0.0000 C   0  0  0  0  0  0  0  0  0  0  0  0
    6.3884   -6.7234    0.0000 C   0  0  0  0  0  0  0  0  0  0  0  0
    7.1028   -7.1359    0.0000 C   0  0  0  0  0  0  0  0  0  0  0  0
    7.8173   -6.7234    0.0000 C   0  0  0  0  0  0  0  0  0  0  0  0
    8.5318   -7.1359    0.0000 C   0  0  0  0  0  0  0  0  0  0  0  0
    9.2462   -6.7234    0.0000 C   0  0  0  0  0  0  0  0  0  0  0  0
    9.2462   -5.8984    0.0000 O   0  0  0  0  0  0  0  0  0  0  0  0
    9.9607   -7.1359    0.0000 O   0  0  0  0  0  0  0  0  0  0  0  0
   10.6752   -6.7234    0.0000 C   0  0  0  0  0  0  0  0  0  0  0  0
   11.3897   -7.1359    0.0000 C   0  0  0  0  0  0  0  0  0  0  0  0
   12.1041   -6.7234    0.0000 C   0  0  0  0  0  0  0  0  0  0  0  0
   12.8186   -7.1359    0.0000 C   0  0  0  0  0  0  0  0  0  0  0  0
   13.5331   -6.7234    0.0000 O   0  0  0  0  0  0  0  0  0  0  0  0
   14.2475   -7.1359    0.0000 N   0  3  0  0  0  0  0  0  0  0  0  0
   14.9620   -6.7234    0.0000 O   0  5  0  0  0  0  0  0  0  0  0  0
   14.2475   -7.9609    0.0000 O   0  0  0  0  0  0  0  0  0  0  0  0
    7.1028   -7.9609    0.0000 C   0  0  0  0  0  0  0  0  0  0  0  0
    6.3884   -8.3734    0.0000 C   0  0  0  0  0  0  0  0  0  0  0  0
    6.3884   -9.1984    0.0000 O   0  0  0  0  0  0  0  0  0  0  0  0
    7.1028   -9.6109    0.0000 C   0  0  0  0  0  0  0  0  0  0  0  0
    5.2155  -11.8276    0.0000 H   0  0  0  0  0  0  0  0  0  0  0  0
    4.9545  -12.9149    0.0000 H   0  0  0  0  0  0  0  0  0  0  0  0
    4.5719  -13.8085    0.0000 H   0  0  0  0  0  0  0  0  0  0  0  0
    3.4572  -13.8963    0.0000 H   0  0  0  0  0  0  0  0  0  0  0  0
    3.5368  -13.5454    0.0000 H   0  0  0  0  0  0  0  0  0  0  0  0
    3.9277  -15.4346    0.0000 H   0  0  0  0  0  0  0  0  0  0  0  0
    2.5996  -15.9713    0.0000 H   0  0  0  0  0  0  0  0  0  0  0  0
    1.5530  -15.7489    0.0000 H   0  0  0  0  0  0  0  0  0  0  0  0
    1.2404  -16.4129    0.0000 H   0  0  0  0  0  0  0  0  0  0  0  0
    0.1938  -16.1905    0.0000 H   0  0  0  0  0  0  0  0  0  0  0  0
    0.4335  -16.2415    0.0000 H   0  0  0  0  0  0  0  0  0  0  0  0
   -1.3980  -15.6350    0.0000 H   0  0  0  0  0  0  0  0  0  0  0  0
   -1.1987  -14.2166    0.0000 H   0  0  0  0  0  0  0  0  0  0  0  0
   -0.4827  -13.4215    0.0000 H   0  0  0  0  0  0  0  0  0  0  0  0
    0.0694  -12.8083    0.0000 H   0  0  0  0  0  0  0  0  0  0  0  0
    1.1160  -13.0309    0.0000 H   0  0  0  0  0  0  0  0  0  0  0  0
    1.6680  -12.4178    0.0000 H   0  0  0  0  0  0  0  0  0  0  0  0
   -0.0946  -12.9904    0.0000 H   0  0  0  0  0  0  0  0  0  0  0  0
    0.6214  -12.1952    0.0000 H   0  0  0  0  0  0  0  0  0  0  0  0
    0.4574  -12.3773    0.0000 H   0  0  0  0  0  0  0  0  0  0  0  0
    1.1734  -11.5821    0.0000 H   0  0  0  0  0  0  0  0  0  0  0  0
    1.7255  -10.9691    0.0000 H   0  0  0  0  0  0  0  0  0  0  0  0
    2.7721  -11.1917    0.0000 H   0  0  0  0  0  0  0  0  0  0  0  0
    3.4867  -10.6354    0.0000 H   0  0  0  0  0  0  0  0  0  0  0  0
    1.6739  -11.0206    0.0000 H   0  0  0  0  0  0  0  0  0  0  0  0
    2.4691  -10.3047    0.0000 H   0  0  0  0  0  0  0  0  0  0  0  0
    3.5305   -9.7784    0.0000 H   0  0  0  0  0  0  0  0  0  0  0  0
    2.8160   -9.3659    0.0000 H   0  0  0  0  0  0  0  0  0  0  0  0
    1.8894  -10.9709    0.0000 H   0  0  0  0  0  0  0  0  0  0  0  0
    1.8893   -9.9009    0.0000 H   0  0  0  0  0  0  0  0  0  0  0  0
    5.1716  -10.9709    0.0000 H   0  0  0  0  0  0  0  0  0  0  0  0
    5.1715   -9.9009    0.0000 H   0  0  0  0  0  0  0  0  0  0  0  0
    3.3183   -9.0759    0.0000 H   0  0  0  0  0  0  0  0  0  0  0  0
    4.2449   -8.5409    0.0000 H   0  0  0  0  0  0  0  0  0  0  0  0
    4.7802   -6.6199    0.0000 H   0  0  0  0  0  0  0  0  0  0  0  0
    6.3884   -5.6914    0.0000 H   0  0  0  0  0  0  0  0  0  0  0  0
    7.8173   -5.6914    0.0000 H   0  0  0  0  0  0  0  0  0  0  0  0
    8.5318   -8.1679    0.0000 H   0  0  0  0  0  0  0  0  0  0  0  0
   10.6752   -5.6534    0.0000 H   0  0  0  0  0  0  0  0  0  0  0  0
   11.6018   -6.1884    0.0000 H   0  0  0  0  0  0  0  0  0  0  0  0
   11.3897   -8.2059    0.0000 H   0  0  0  0  0  0  0  0  0  0  0  0
   12.3164   -7.6709    0.0000 H   0  0  0  0  0  0  0  0  0  0  0  0
   12.1041   -5.6534    0.0000 H   0  0  0  0  0  0  0  0  0  0  0  0
   13.0307   -6.1884    0.0000 H   0  0  0  0  0  0  0  0  0  0  0  0
   12.8186   -8.2059    0.0000 H   0  0  0  0  0  0  0  0  0  0  0  0
   13.7452   -7.6709    0.0000 H   0  0  0  0  0  0  0  0  0  0  0  0
    7.9965   -8.4769    0.0000 H   0  0  0  0  0  0  0  0  0  0  0  0
    7.1028  -10.6809    0.0000 H   0  0  0  0  0  0  0  0  0  0  0  0
    8.0295   -9.0759    0.0000 H   0  0  0  0  0  0  0  0  0  0  0  0
    8.0294  -10.1459    0.0000 H   0  0  0  0  0  0  0  0  0  0  0  0
  2  1  1  6  0  0  0
  2  3  1  0  0  0  0
  2 27  1  0  0  0  0
  3  4  1  0  0  0  0
  3 55  1  0  0  0  0
  3 56  1  0  0  0  0
  4 57  1  0  0  0  0
  4 58  1  0  0  0  0
  5  4  1  0  0  0  0
  5  6  1  6  0  0  0
  5 25  1  0  0  0  0
  7  5  1  0  0  0  0
  7  8  1  1  0  0  0
  7  9  1  0  0  0  0
  7 21  1  0  0  0  0
  9 10  1  0  0  0  0
  9 11  1  0  0  0  0
  9 59  1  6  0  0  0
 10 60  1  0  0  0  0
 11 61  1  0  0  0  0
 11 62  1  0  0  0  0
 12 11  1  0  0  0  0
 12 13  1  1  0  0  0
 12 14  1  0  0  0  0
 14 63  1  0  0  0  0
 14 64  1  0  0  0  0
 15 14  1  0  0  0  0
 15 16  1  0  0  0  0
 15 17  1  0  0  0  0
 15 65  1  1  0  0  0
 16 66  1  0  0  0  0
 17 18  1  0  0  0  0
 17 67  1  0  0  0  0
 17 68  1  0  0  0  0
 18 69  1  0  0  0  0
 18 70  1  0  0  0  0
 19 18  1  0  0  0  0
 19 12  1  0  0  0  0
 19 20  1  1  0  0  0
 20 71  1  0  0  0  0
 20 72  1  0  0  0  0
 20 73  1  0  0  0  0
 21 19  1  0  0  0  0
 21 22  1  6  0  0  0
 21 23  1  0  0  0  0
 23 24  1  0  0  0  0
 23 74  1  0  0  0  0
 23 75  1  0  0  0  0
 24 76  1  0  0  0  0
 24 77  1  0  0  0  0
 25 24  1  0  0  0  0
 25  2  1  0  0  0  0
 25 26  1  1  0  0  0
 26 78  1  0  0  0  0
 26 79  1  0  0  0  0
 26 80  1  0  0  0  0
 27 28  1  0  0  0  0
 27 29  1  0  0  0  0
 27 81  1  1  0  0  0
 28 82  1  0  0  0  0
 28 83  1  0  0  0  0
 28 84  1  0  0  0  0
 29 30  1  0  0  0  0
 29 85  1  0  0  0  0
 29 86  1  0  0  0  0
 30 31  1  0  0  0  0
 30 87  1  0  0  0  0
 30 88  1  0  0  0  0
 31 32  2  0  0  0  0
 31 33  1  0  0  0  0
 33 34  1  0  0  0  0
 34 35  2  0  0  0  0
 34 52  1  0  0  0  0
 35 36  1  0  0  0  0
 35 89  1  0  0  0  0
 36 37  2  0  0  0  0
 36 90  1  0  0  0  0
 37 38  1  0  0  0  0
 37 51  1  0  0  0  0
 38 39  2  0  0  0  0
 38 91  1  0  0  0  0
 39 40  1  0  0  0  0
 39 92  1  0  0  0  0
 40 41  2  0  0  0  0
 40 42  1  0  0  0  0
 42 43  1  0  0  0  0
 43 44  1  0  0  0  0
 43 93  1  0  0  0  0
 43 94  1  0  0  0  0
 44 45  1  0  0  0  0
 44 95  1  0  0  0  0
 44 96  1  0  0  0  0
 45 46  1  0  0  0  0
 45 97  1  0  0  0  0
 45 98  1  0  0  0  0
 46 47  1  0  0  0  0
 46 99  1  0  0  0  0
 46100  1  0  0  0  0
 47 48  1  0  0  0  0
 48 49  1  0  0  0  0
 48 50  2  0  0  0  0
 51 52  2  0  0  0  0
 51101  1  0  0  0  0
 52 53  1  0  0  0  0
 53 54  1  0  0  0  0
 54102  1  0  0  0  0
 54103  1  0  0  0  0
 54104  1  0  0  0  0
M  CHG  2  48   1  49  -1
M  END
>  <DRUGBANK_ID>
DB16026

>  <COMMON_NAME>
NCX-1000

>  <CAS_NUMBER>
401519-96-8

>  <UNII>
V9G7HR5L1Q

>  <SYNONYMS>
,no-udca; no-UDCA; No-ursodeoxycholic acid

$$$$
