
 OpenBabel10282417072D

 36 37  0  0  0  0  0  0  0  0999 V2000
    0.3572    0.4124    0.0000 O   0  0  0  0  0  0  0  0  0  0  0  0
   -0.3571    1.6500    0.0000 C   0  0  0  0  0  0  0  0  0  0  0  0
   -0.3571    0.8249    0.0000 C   0  0  0  0  0  0  0  0  0  0  0  0
   -1.0717    2.0625    0.0000 C   0  0  0  0  0  0  0  0  0  0  0  0
   -1.0717    0.4124    0.0000 C   0  0  0  0  0  0  0  0  0  0  0  0
   -1.7862    1.6500    0.0000 C   0  0  0  0  0  0  0  0  0  0  0  0
   -1.7862    0.8249    0.0000 C   0  0  0  0  0  0  0  0  0  0  0  0
    0.3573    2.0625    0.0000 O   0  0  0  0  0  0  0  0  0  0  0  0
   -1.0717   -0.4125    0.0000 C   0  0  1  0  0  0  0  0  0  0  0  0
   -0.3571   -0.8250    0.0000 C   0  0  0  0  0  0  0  0  0  0  0  0
   -0.3571   -1.6500    0.0000 C   0  0  0  0  0  0  0  0  0  0  0  0
   -1.0717   -2.0625    0.0000 N   0  0  0  0  0  0  0  0  0  0  0  0
   -1.7862   -0.8250    0.0000 N   0  0  0  0  0  0  0  0  0  0  0  0
   -1.7862   -1.6500    0.0000 C   0  0  0  0  0  0  0  0  0  0  0  0
   -2.5007   -2.0625    0.0000 S   0  0  0  0  0  0  0  0  0  0  0  0
    0.3572   -0.4125    0.0000 C   0  0  0  0  0  0  0  0  0  0  0  0
    1.0716   -0.8250    0.0000 O   0  0  0  0  0  0  0  0  0  0  0  0
    1.7860   -0.4125    0.0000 C   0  0  0  0  0  0  0  0  0  0  0  0
    2.5007   -0.8250    0.0000 C   0  0  0  0  0  0  0  0  0  0  0  0
    0.3573   -2.0625    0.0000 C   0  0  0  0  0  0  0  0  0  0  0  0
    0.5366    0.3089    0.0000 H   0  0  0  0  0  0  0  0  0  0  0  0
   -1.0717    3.0945    0.0000 H   0  0  0  0  0  0  0  0  0  0  0  0
   -2.6799    2.1660    0.0000 H   0  0  0  0  0  0  0  0  0  0  0  0
   -2.6799    0.3089    0.0000 H   0  0  0  0  0  0  0  0  0  0  0  0
    1.1688    1.5940    0.0000 H   0  0  0  0  0  0  0  0  0  0  0  0
   -0.1451    0.1225    0.0000 H   0  0  0  0  0  0  0  0  0  0  0  0
   -1.0717   -3.0470    0.0000 H   0  0  0  0  0  0  0  0  0  0  0  0
   -2.6388   -0.3327    0.0000 H   0  0  0  0  0  0  0  0  0  0  0  0
    1.7859    0.6575    0.0000 H   0  0  0  0  0  0  0  0  0  0  0  0
    2.7126    0.1226    0.0000 H   0  0  0  0  0  0  0  0  0  0  0  0
    2.5008   -1.8950    0.0000 H   0  0  0  0  0  0  0  0  0  0  0  0
    3.4273   -0.2899    0.0000 H   0  0  0  0  0  0  0  0  0  0  0  0
    3.4274   -1.3599    0.0000 H   0  0  0  0  0  0  0  0  0  0  0  0
    0.3573   -3.1325    0.0000 H   0  0  0  0  0  0  0  0  0  0  0  0
    1.2840   -1.5275    0.0000 H   0  0  0  0  0  0  0  0  0  0  0  0
    1.2839   -2.5975    0.0000 H   0  0  0  0  0  0  0  0  0  0  0  0
  2  8  1  0  0  0  0
  3  2  2  0  0  0  0
  3 21  1  0  0  0  0
  4  2  1  0  0  0  0
  4 22  1  0  0  0  0
  5  3  1  0  0  0  0
  6  4  2  0  0  0  0
  6 23  1  0  0  0  0
  7  5  2  0  0  0  0
  7  6  1  0  0  0  0
  7 24  1  0  0  0  0
  8 25  1  0  0  0  0
  9  5  1  0  0  0  0
  9 10  1  0  0  0  0
  9 26  1  6  0  0  0
 10 16  1  0  0  0  0
 11 10  2  0  0  0  0
 11 20  1  0  0  0  0
 12 11  1  0  0  0  0
 12 27  1  0  0  0  0
 13  9  1  0  0  0  0
 13 28  1  0  0  0  0
 14 12  1  0  0  0  0
 14 13  1  0  0  0  0
 14 15  2  0  0  0  0
 16  1  2  0  0  0  0
 16 17  1  0  0  0  0
 17 18  1  0  0  0  0
 18 19  1  0  0  0  0
 18 29  1  0  0  0  0
 18 30  1  0  0  0  0
 19 31  1  0  0  0  0
 19 32  1  0  0  0  0
 19 33  1  0  0  0  0
 20 34  1  0  0  0  0
 20 35  1  0  0  0  0
 20 36  1  0  0  0  0
M  END
>  <DRUGBANK_ID>
DB04331

>  <SECONDARY_ACCESSION_NUMBERS>
EXPT02296

>  <COMMON_NAME>
Monastrol

>  <CAS_NUMBER>
254753-54-3

>  <UNII>
6BSM97YZ8G

>  <SYNONYMS>
(+)-Monastrol; (4S)-Monastrol; (S)-monastrol

$$$$
