RE9
 OpenBabel10282417072D

 50 51  0  0  0  0  0  0  0  0999 V2000
    1.6381    1.4182    0.0000 C   0  0  0  0  0  0  0  0  0  0  0  0
    2.3526    1.0057    0.0000 C   0  0  0  0  0  0  0  0  0  0  0  0
    2.3526    0.1807    0.0000 C   0  0  0  0  0  0  0  0  0  0  0  0
    1.6381   -0.2318    0.0000 C   0  0  0  0  0  0  0  0  0  0  0  0
    0.9237    0.1807    0.0000 C   0  0  0  0  0  0  0  0  0  0  0  0
    0.1390   -0.0742    0.0000 C   0  0  0  0  0  0  0  0  0  0  0  0
   -0.3459    0.5932    0.0000 C   0  0  1  0  0  0  0  0  0  0  0  0
    0.1390    1.2606    0.0000 C   0  0  0  0  0  0  0  0  0  0  0  0
    0.9237    1.0057    0.0000 C   0  0  0  0  0  0  0  0  0  0  0  0
   -1.0646    0.1882    0.0000 C   0  0  0  0  0  0  0  0  0  0  0  0
   -1.0733   -0.6368    0.0000 C   0  0  0  0  0  0  0  0  0  0  0  0
   -1.7920   -1.0418    0.0000 C   0  0  0  0  0  0  0  0  0  0  0  0
   -1.8007   -1.8667    0.0000 C   0  0  0  0  0  0  0  0  0  0  0  0
   -2.5194   -2.2717    0.0000 C   0  0  0  0  0  0  0  0  0  0  0  0
   -2.5281   -3.0967    0.0000 C   0  0  0  0  0  0  0  0  0  0  0  0
    2.0254    2.1466    0.0000 C   0  0  0  0  0  0  0  0  0  0  0  0
    1.2508    2.1466    0.0000 C   0  0  0  0  0  0  0  0  0  0  0  0
   -0.1159   -0.8589    0.0000 C   0  0  0  0  0  0  0  0  0  0  0  0
   -1.0646    0.9982    0.0000 C   0  0  0  0  0  0  0  0  0  0  0  0
   -1.0906   -2.2867    0.0000 C   0  0  0  0  0  0  0  0  0  0  0  0
   -1.8179   -3.5166    0.0000 O   0  0  0  0  0  0  0  0  0  0  0  0
   -3.2468   -3.5017    0.0000 O   0  0  0  0  0  0  0  0  0  0  0  0
    3.2792    1.5407    0.0000 H   0  0  0  0  0  0  0  0  0  0  0  0
    3.2792    0.4707    0.0000 H   0  0  0  0  0  0  0  0  0  0  0  0
    3.2792   -0.3543    0.0000 H   0  0  0  0  0  0  0  0  0  0  0  0
    2.3526   -0.8893    0.0000 H   0  0  0  0  0  0  0  0  0  0  0  0
    1.6381   -1.3018    0.0000 H   0  0  0  0  0  0  0  0  0  0  0  0
    0.7114   -0.7668    0.0000 H   0  0  0  0  0  0  0  0  0  0  0  0
   -0.1917    2.2782    0.0000 H   0  0  0  0  0  0  0  0  0  0  0  0
    0.8956    2.0172    0.0000 H   0  0  0  0  0  0  0  0  0  0  0  0
   -1.9856    0.7329    0.0000 H   0  0  0  0  0  0  0  0  0  0  0  0
   -1.9968   -0.3370    0.0000 H   0  0  0  0  0  0  0  0  0  0  0  0
   -0.1850   -1.1621    0.0000 H   0  0  0  0  0  0  0  0  0  0  0  0
   -2.6803   -0.5165    0.0000 H   0  0  0  0  0  0  0  0  0  0  0  0
   -3.4077   -1.7464    0.0000 H   0  0  0  0  0  0  0  0  0  0  0  0
    3.0947    2.1839    0.0000 H   0  0  0  0  0  0  0  0  0  0  0  0
    1.4584    3.0540    0.0000 H   0  0  0  0  0  0  0  0  0  0  0  0
    2.5277    3.0914    0.0000 H   0  0  0  0  0  0  0  0  0  0  0  0
    1.8178    3.0540    0.0000 H   0  0  0  0  0  0  0  0  0  0  0  0
    0.1815    2.1839    0.0000 H   0  0  0  0  0  0  0  0  0  0  0  0
    0.7485    3.0914    0.0000 H   0  0  0  0  0  0  0  0  0  0  0  0
   -1.1253   -1.0735    0.0000 H   0  0  0  0  0  0  0  0  0  0  0  0
    0.5747   -1.6258    0.0000 H   0  0  0  0  0  0  0  0  0  0  0  0
   -1.0758    2.0681    0.0000 H   0  0  0  0  0  0  0  0  0  0  0  0
   -1.9856    0.4536    0.0000 H   0  0  0  0  0  0  0  0  0  0  0  0
   -1.9968    1.5235    0.0000 H   0  0  0  0  0  0  0  0  0  0  0  0
   -1.1019   -3.3566    0.0000 H   0  0  0  0  0  0  0  0  0  0  0  0
   -0.1584   -1.7615    0.0000 H   0  0  0  0  0  0  0  0  0  0  0  0
   -0.1696   -2.8314    0.0000 H   0  0  0  0  0  0  0  0  0  0  0  0
   -4.0533   -3.0248    0.0000 H   0  0  0  0  0  0  0  0  0  0  0  0
  1  2  1  0  0  0  0
  1  9  1  0  0  0  0
  1 16  1  0  0  0  0
  1 17  1  0  0  0  0
  2  3  1  0  0  0  0
  2 23  1  0  0  0  0
  2 24  1  0  0  0  0
  3  4  1  0  0  0  0
  3 25  1  0  0  0  0
  3 26  1  0  0  0  0
  4  5  1  0  0  0  0
  4 27  1  0  0  0  0
  4 28  1  0  0  0  0
  5  6  1  0  0  0  0
  5  9  2  0  0  0  0
  6  7  1  0  0  0  0
  6 18  2  0  0  0  0
  7  8  1  0  0  0  0
  7 10  1  6  0  0  0
  7 19  1  0  0  0  0
  8  9  1  0  0  0  0
  8 29  1  0  0  0  0
  8 30  1  0  0  0  0
 10 11  1  0  0  0  0
 10 31  1  0  0  0  0
 10 32  1  0  0  0  0
 11 12  2  0  0  0  0
 11 33  1  0  0  0  0
 12 13  1  0  0  0  0
 12 34  1  0  0  0  0
 13 14  2  0  0  0  0
 13 20  1  0  0  0  0
 14 15  1  0  0  0  0
 14 35  1  0  0  0  0
 15 21  2  0  0  0  0
 15 22  1  0  0  0  0
 16 36  1  0  0  0  0
 16 37  1  0  0  0  0
 16 38  1  0  0  0  0
 17 39  1  0  0  0  0
 17 40  1  0  0  0  0
 17 41  1  0  0  0  0
 18 42  1  0  0  0  0
 18 43  1  0  0  0  0
 19 44  1  0  0  0  0
 19 45  1  0  0  0  0
 19 46  1  0  0  0  0
 20 47  1  0  0  0  0
 20 48  1  0  0  0  0
 20 49  1  0  0  0  0
 22 50  1  0  0  0  0
M  END
>  <DRUGBANK_ID>
DB08467

>  <COMMON_NAME>
6-(2,3,4,5,6,7-HEXAHYDRO-2,4,4-TRIMETHYL-1-METYLENEINDEN-2-YL)-3-METHYLHEXA-2,4-DIENOIC ACID

$$$$
