
 OpenBabel10282417072D

 24 24  0  0  0  0  0  0  0  0999 V2000
   -1.7861    2.4750    0.0000 C   0  0  0  0  0  0  0  0  0  0  0  0
   -0.3572    0.0000    0.0000 C   0  0  0  0  0  0  0  0  0  0  0  0
    1.7861   -1.2375    0.0000 C   0  0  0  0  0  0  0  0  0  0  0  0
    1.7861   -0.4125    0.0000 C   0  0  0  0  0  0  0  0  0  0  0  0
   -0.3572    0.8250    0.0000 C   0  0  0  0  0  0  0  0  0  0  0  0
    0.3572   -1.2375    0.0000 C   0  0  0  0  0  0  0  0  0  0  0  0
    0.3572   -0.4125    0.0000 C   0  0  0  0  0  0  0  0  0  0  0  0
    1.0717   -1.6500    0.0000 C   0  0  0  0  0  0  0  0  0  0  0  0
    1.0717    0.0000    0.0000 C   0  0  0  0  0  0  0  0  0  0  0  0
   -1.0717    1.2375    0.0000 C   0  0  0  0  0  0  0  0  0  0  0  0
    1.0717   -2.4750    0.0000 O   0  0  0  0  0  0  0  0  0  0  0  0
    1.0717    0.8250    0.0000 O   0  0  0  0  0  0  0  0  0  0  0  0
   -1.7861    0.8250    0.0000 O   0  0  0  0  0  0  0  0  0  0  0  0
   -1.0717    2.0625    0.0000 O   0  0  0  0  0  0  0  0  0  0  0  0
   -1.0717   -0.4125    0.0000 H   0  0  0  0  0  0  0  0  0  0  0  0
    0.3572    1.2375    0.0000 H   0  0  0  0  0  0  0  0  0  0  0  0
   -1.7861    3.5450    0.0000 H   0  0  0  0  0  0  0  0  0  0  0  0
   -2.7128    1.9400    0.0000 H   0  0  0  0  0  0  0  0  0  0  0  0
   -2.7127    3.0100    0.0000 H   0  0  0  0  0  0  0  0  0  0  0  0
    2.6798   -1.7535    0.0000 H   0  0  0  0  0  0  0  0  0  0  0  0
    2.6798    0.1035    0.0000 H   0  0  0  0  0  0  0  0  0  0  0  0
   -0.5365   -1.7535    0.0000 H   0  0  0  0  0  0  0  0  0  0  0  0
    0.2602   -2.9435    0.0000 H   0  0  0  0  0  0  0  0  0  0  0  0
    1.8832    1.2935    0.0000 H   0  0  0  0  0  0  0  0  0  0  0  0
  1 17  1  0  0  0  0
  1 18  1  0  0  0  0
  1 19  1  0  0  0  0
  3 20  1  0  0  0  0
  4  3  1  0  0  0  0
  4 21  1  0  0  0  0
  5  2  2  0  0  0  0
  6 22  1  0  0  0  0
  7  2  1  0  0  0  0
  7  6  2  0  0  0  0
  8  3  2  0  0  0  0
  8  6  1  0  0  0  0
  9  4  2  0  0  0  0
  9  7  1  0  0  0  0
 10  5  1  0  0  0  0
 11  8  1  0  0  0  0
 11 23  1  0  0  0  0
 12  9  1  0  0  0  0
 12 24  1  0  0  0  0
 13 10  2  0  0  0  0
 14  1  1  0  0  0  0
 14 10  1  0  0  0  0
 15  2  1  0  0  0  0
 16  5  1  0  0  0  0
M  END
>  <DRUGBANK_ID>
DB16769

>  <COMMON_NAME>
Methyl 2,5-dihydroxycinnamate

>  <CAS_NUMBER>
63177-57-1

>  <UNII>
6LF2DGK4XM

>  <SYNONYMS>
2,4-Dihydroxymethylcinnamate; Methyl-2,5-dihydroxycinnamate

$$$$
