ENM
 OpenBabel10282417072D

 68 72  0  0  0  0  0  0  0  0999 V2000
   -2.2858   -3.1855    0.0000 C   0  0  0  0  0  0  0  0  0  0  0  0
   -2.6456   -3.9279    0.0000 C   0  0  0  0  0  0  0  0  0  0  0  0
   -3.4685   -3.9874    0.0000 F   0  0  0  0  0  0  0  0  0  0  0  0
   -2.1827   -4.6107    0.0000 C   0  0  0  0  0  0  0  0  0  0  0  0
   -1.3598   -4.5512    0.0000 C   0  0  0  0  0  0  0  0  0  0  0  0
   -0.8968   -5.2340    0.0000 F   0  0  0  0  0  0  0  0  0  0  0  0
   -0.9999   -3.8088    0.0000 C   0  0  0  0  0  0  0  0  0  0  0  0
   -1.4629   -3.1260    0.0000 C   0  0  0  0  0  0  0  0  0  0  0  0
   -1.1030   -2.3836    0.0000 C   0  0  0  0  0  0  0  0  0  0  0  0
   -1.5660   -1.7008    0.0000 O   0  0  0  0  0  0  0  0  0  0  0  0
   -1.2062   -0.9584    0.0000 C   0  0  0  0  0  0  0  0  0  0  0  0
   -1.6691   -0.2756    0.0000 C   0  0  0  0  0  0  0  0  0  0  0  0
   -1.3093    0.4668    0.0000 C   0  0  2  0  0  0  0  0  0  0  0  0
   -0.7774   -0.1639    0.0000 C   0  0  0  0  0  0  0  0  0  0  0  0
    0.0347   -0.0187    0.0000 C   0  0  0  0  0  0  0  0  0  0  0  0
    0.3150    0.7573    0.0000 C   0  0  2  0  0  0  0  0  0  0  0  0
    1.1271    0.9025    0.0000 C   0  0  1  0  0  0  0  0  0  0  0  0
    0.8468    0.1265    0.0000 C   0  0  0  0  0  0  0  0  0  0  0  0
    1.6589    0.2718    0.0000 C   0  0  0  0  0  0  0  0  0  0  0  0
    2.4710    0.4170    0.0000 C   0  0  0  0  0  0  0  0  0  0  0  0
    2.7513    1.1929    0.0000 C   0  0  0  0  0  0  0  0  0  0  0  0
    3.5635    1.3381    0.0000 O   0  0  0  0  0  0  0  0  0  0  0  0
    2.2195    1.8236    0.0000 C   0  0  0  0  0  0  0  0  0  0  0  0
    1.4074    1.6784    0.0000 C   0  0  2  0  0  0  0  0  0  0  0  0
    0.8756    2.3091    0.0000 C   0  0  0  0  0  0  0  0  0  0  0  0
    0.0635    2.1639    0.0000 C   0  0  0  0  0  0  0  0  0  0  0  0
   -0.2168    1.3880    0.0000 C   0  0  1  0  0  0  0  0  0  0  0  0
   -1.0290    1.2427    0.0000 C   0  0  2  0  0  0  0  0  0  0  0  0
   -1.6803    1.7491    0.0000 C   0  0  0  0  0  0  0  0  0  0  0  0
   -2.3631    1.2861    0.0000 C   0  0  0  0  0  0  0  0  0  0  0  0
   -2.1338    0.4936    0.0000 C   0  0  2  0  0  0  0  0  0  0  0  0
   -2.6402   -0.1577    0.0000 O   0  0  0  0  0  0  0  0  0  0  0  0
    0.6914    0.3108    0.0000 H   0  0  0  0  0  0  0  0  0  0  0  0
    1.6058    2.2276    0.0000 H   0  0  0  0  0  0  0  0  0  0  0  0
   -0.5933    1.8344    0.0000 H   0  0  0  0  0  0  0  0  0  0  0  0
   -0.8891    1.8097    0.0000 H   0  0  0  0  0  0  0  0  0  0  0  0
   -1.8858   -0.0350    0.0000 H   0  0  0  0  0  0  0  0  0  0  0  0
   -2.8650   -2.3313    0.0000 H   0  0  0  0  0  0  0  0  0  0  0  0
   -2.6329   -5.5393    0.0000 H   0  0  0  0  0  0  0  0  0  0  0  0
    0.0294   -3.7343    0.0000 H   0  0  0  0  0  0  0  0  0  0  0  0
   -0.0358   -2.3064    0.0000 H   0  0  0  0  0  0  0  0  0  0  0  0
   -0.6363   -1.4207    0.0000 H   0  0  0  0  0  0  0  0  0  0  0  0
   -0.1390   -0.8812    0.0000 H   0  0  0  0  0  0  0  0  0  0  0  0
   -0.7394    0.0044    0.0000 H   0  0  0  0  0  0  0  0  0  0  0  0
   -2.7363   -0.3528    0.0000 H   0  0  0  0  0  0  0  0  0  0  0  0
   -2.2696    0.6100    0.0000 H   0  0  0  0  0  0  0  0  0  0  0  0
   -1.1409   -1.1703    0.0000 H   0  0  0  0  0  0  0  0  0  0  0  0
   -0.0876   -0.9819    0.0000 H   0  0  0  0  0  0  0  0  0  0  0  0
    0.7245   -0.8367    0.0000 H   0  0  0  0  0  0  0  0  0  0  0  0
    1.0880    0.1697    0.0000 H   0  0  0  0  0  0  0  0  0  0  0  0
   -0.2065   -0.0619    0.0000 H   0  0  0  0  0  0  0  0  0  0  0  0
    1.5366   -0.6915    0.0000 H   0  0  0  0  0  0  0  0  0  0  0  0
    0.4833   -0.8799    0.0000 H   0  0  0  0  0  0  0  0  0  0  0  0
    1.2953   -0.7345    0.0000 H   0  0  0  0  0  0  0  0  0  0  0  0
    2.3486   -0.5462    0.0000 H   0  0  0  0  0  0  0  0  0  0  0  0
    3.1607   -0.4010    0.0000 H   0  0  0  0  0  0  0  0  0  0  0  0
    3.5243    0.6053    0.0000 H   0  0  0  0  0  0  0  0  0  0  0  0
    2.5831    2.8299    0.0000 H   0  0  0  0  0  0  0  0  0  0  0  0
    1.5298    2.6416    0.0000 H   0  0  0  0  0  0  0  0  0  0  0  0
    1.2392    3.3154    0.0000 H   0  0  0  0  0  0  0  0  0  0  0  0
    0.1859    3.1271    0.0000 H   0  0  0  0  0  0  0  0  0  0  0  0
   -0.6262    2.9819    0.0000 H   0  0  0  0  0  0  0  0  0  0  0  0
   -0.9898    1.9756    0.0000 H   0  0  0  0  0  0  0  0  0  0  0  0
   -1.6455    2.8185    0.0000 H   0  0  0  0  0  0  0  0  0  0  0  0
   -2.6174    2.2656    0.0000 H   0  0  0  0  0  0  0  0  0  0  0  0
   -3.3695    1.6496    0.0000 H   0  0  0  0  0  0  0  0  0  0  0  0
   -3.1439    0.5545    0.0000 H   0  0  0  0  0  0  0  0  0  0  0  0
   -3.6011   -0.0250    0.0000 H   0  0  0  0  0  0  0  0  0  0  0  0
  1  8  1  0  0  0  0
  1  2  2  0  0  0  0
  1 38  1  0  0  0  0
  2  4  1  0  0  0  0
  2  3  1  0  0  0  0
  4  5  2  0  0  0  0
  4 39  1  0  0  0  0
  5  7  1  0  0  0  0
  5  6  1  0  0  0  0
  7  8  2  0  0  0  0
  7 40  1  0  0  0  0
  8  9  1  0  0  0  0
  9 10  1  0  0  0  0
  9 41  1  0  0  0  0
  9 42  1  0  0  0  0
 10 11  1  0  0  0  0
 11 12  1  0  0  0  0
 11 43  1  0  0  0  0
 11 44  1  0  0  0  0
 12 45  1  0  0  0  0
 12 46  1  0  0  0  0
 13 12  1  1  0  0  0
 13 31  1  0  0  0  0
 13 28  1  0  0  0  0
 13 14  1  0  0  0  0
 14 15  1  0  0  0  0
 14 47  1  0  0  0  0
 14 48  1  0  0  0  0
 15 16  1  0  0  0  0
 15 49  1  0  0  0  0
 15 50  1  0  0  0  0
 16 27  1  0  0  0  0
 16 17  1  0  0  0  0
 16 33  1  6  0  0  0
 17 24  1  0  0  0  0
 17 19  1  0  0  0  0
 17 18  1  1  0  0  0
 18 51  1  0  0  0  0
 18 52  1  0  0  0  0
 18 53  1  0  0  0  0
 19 20  1  0  0  0  0
 19 54  1  0  0  0  0
 19 55  1  0  0  0  0
 20 21  1  0  0  0  0
 20 56  1  0  0  0  0
 20 57  1  0  0  0  0
 21 22  2  0  0  0  0
 21 23  1  0  0  0  0
 23 24  1  0  0  0  0
 23 58  1  0  0  0  0
 23 59  1  0  0  0  0
 24 25  1  0  0  0  0
 24 34  1  6  0  0  0
 25 26  1  0  0  0  0
 25 60  1  0  0  0  0
 25 61  1  0  0  0  0
 26 27  1  0  0  0  0
 26 62  1  0  0  0  0
 26 63  1  0  0  0  0
 27 28  1  0  0  0  0
 27 35  1  1  0  0  0
 28 29  1  0  0  0  0
 28 36  1  6  0  0  0
 29 30  1  0  0  0  0
 29 64  1  0  0  0  0
 29 65  1  0  0  0  0
 30 31  1  0  0  0  0
 30 66  1  0  0  0  0
 30 67  1  0  0  0  0
 31 32  1  0  0  0  0
 31 37  1  6  0  0  0
 32 68  1  0  0  0  0
M  END
>  <DRUGBANK_ID>
DB07717

>  <COMMON_NAME>
(5S,8R,9S,10S,13R,14S,17S)-13-{2-[(3,5-DIFLUOROBENZYL)OXY]ETHYL}-17-HYDROXY-10-METHYLHEXADECAHYDRO-3H-CYCLOPENTA[A]PHENANTHREN-3-ONE

$$$$
