W03
 OpenBabel10282417072D

 46 48  0  0  0  0  0  0  0  0999 V2000
   -3.6636    0.2838    0.0000 O   0  0  0  0  0  0  0  0  0  0  0  0
   -4.2157    0.8969    0.0000 N   0  0  0  0  0  0  0  0  0  0  0  0
   -3.8032    1.6114    0.0000 C   0  0  0  0  0  0  0  0  0  0  0  0
   -4.1387    2.3650    0.0000 C   0  0  0  0  0  0  0  0  0  0  0  0
   -2.9962    1.4398    0.0000 C   0  0  0  0  0  0  0  0  0  0  0  0
   -2.9100    0.6194    0.0000 C   0  0  0  0  0  0  0  0  0  0  0  0
   -2.1955    0.2069    0.0000 C   0  0  0  0  0  0  0  0  0  0  0  0
   -1.4810    0.6194    0.0000 C   0  0  0  0  0  0  0  0  0  0  0  0
   -0.7665    0.2069    0.0000 C   0  0  0  0  0  0  0  0  0  0  0  0
   -0.0521    0.6194    0.0000 O   0  0  0  0  0  0  0  0  0  0  0  0
    0.6624    0.2069    0.0000 C   0  0  0  0  0  0  0  0  0  0  0  0
    1.3769    0.6194    0.0000 C   0  0  0  0  0  0  0  0  0  0  0  0
    1.3769    1.4444    0.0000 C   0  0  0  0  0  0  0  0  0  0  0  0
    2.0913    0.2069    0.0000 C   0  0  0  0  0  0  0  0  0  0  0  0
    2.0913   -0.6181    0.0000 C   0  0  0  0  0  0  0  0  0  0  0  0
    1.3769   -1.0306    0.0000 C   0  0  0  0  0  0  0  0  0  0  0  0
    0.6624   -0.6181    0.0000 C   0  0  0  0  0  0  0  0  0  0  0  0
   -0.0521   -1.0306    0.0000 C   0  0  0  0  0  0  0  0  0  0  0  0
    2.8058   -1.0306    0.0000 C   0  0  0  0  0  0  0  0  0  0  0  0
    3.5595   -0.6951    0.0000 C   0  0  0  0  0  0  0  0  0  0  0  0
    2.8920   -1.8511    0.0000 N   0  0  0  0  0  0  0  0  0  0  0  0
    3.6990   -2.0226    0.0000 C   0  0  0  0  0  0  0  0  0  0  0  0
    4.0346   -2.7763    0.0000 C   0  0  0  0  0  0  0  0  0  0  0  0
    4.1115   -1.3082    0.0000 O   0  0  0  0  0  0  0  0  0  0  0  0
   -3.5097    3.2306    0.0000 H   0  0  0  0  0  0  0  0  0  0  0  0
   -5.2028    2.4769    0.0000 H   0  0  0  0  0  0  0  0  0  0  0  0
   -4.5739    3.3425    0.0000 H   0  0  0  0  0  0  0  0  0  0  0  0
   -2.2292    2.1303    0.0000 H   0  0  0  0  0  0  0  0  0  0  0  0
   -2.1955   -0.8631    0.0000 H   0  0  0  0  0  0  0  0  0  0  0  0
   -1.2689   -0.3281    0.0000 H   0  0  0  0  0  0  0  0  0  0  0  0
   -1.4810    1.6894    0.0000 H   0  0  0  0  0  0  0  0  0  0  0  0
   -0.5544    1.1544    0.0000 H   0  0  0  0  0  0  0  0  0  0  0  0
   -0.7665   -0.8631    0.0000 H   0  0  0  0  0  0  0  0  0  0  0  0
    0.1602   -0.3281    0.0000 H   0  0  0  0  0  0  0  0  0  0  0  0
    2.3035    1.9794    0.0000 H   0  0  0  0  0  0  0  0  0  0  0  0
    0.4503    1.9794    0.0000 H   0  0  0  0  0  0  0  0  0  0  0  0
    1.3769    2.5144    0.0000 H   0  0  0  0  0  0  0  0  0  0  0  0
    2.9850    0.7229    0.0000 H   0  0  0  0  0  0  0  0  0  0  0  0
    1.3769   -2.0626    0.0000 H   0  0  0  0  0  0  0  0  0  0  0  0
   -0.9787   -0.4956    0.0000 H   0  0  0  0  0  0  0  0  0  0  0  0
   -0.0521   -2.1006    0.0000 H   0  0  0  0  0  0  0  0  0  0  0  0
   -0.9788   -1.5656    0.0000 H   0  0  0  0  0  0  0  0  0  0  0  0
    3.7741    0.3143    0.0000 H   0  0  0  0  0  0  0  0  0  0  0  0
    3.4057   -3.6420    0.0000 H   0  0  0  0  0  0  0  0  0  0  0  0
    5.0987   -2.8881    0.0000 H   0  0  0  0  0  0  0  0  0  0  0  0
    4.4698   -3.7538    0.0000 H   0  0  0  0  0  0  0  0  0  0  0  0
  1  2  1  0  0  0  0
  1  6  1  0  0  0  0
  2  3  2  0  0  0  0
  3  4  1  0  0  0  0
  3  5  1  0  0  0  0
  4 25  1  0  0  0  0
  4 26  1  0  0  0  0
  4 27  1  0  0  0  0
  5  6  2  0  0  0  0
  5 28  1  0  0  0  0
  6  7  1  0  0  0  0
  7  8  1  0  0  0  0
  7 29  1  0  0  0  0
  7 30  1  0  0  0  0
  8  9  1  0  0  0  0
  8 31  1  0  0  0  0
  8 32  1  0  0  0  0
  9 10  1  0  0  0  0
  9 33  1  0  0  0  0
  9 34  1  0  0  0  0
 10 11  1  0  0  0  0
 11 12  2  0  0  0  0
 11 17  1  0  0  0  0
 12 13  1  0  0  0  0
 12 14  1  0  0  0  0
 13 35  1  0  0  0  0
 13 36  1  0  0  0  0
 13 37  1  0  0  0  0
 14 15  2  0  0  0  0
 14 38  1  0  0  0  0
 15 16  1  0  0  0  0
 15 19  1  0  0  0  0
 16 17  2  0  0  0  0
 16 39  1  0  0  0  0
 17 18  1  0  0  0  0
 18 40  1  0  0  0  0
 18 41  1  0  0  0  0
 18 42  1  0  0  0  0
 19 20  2  0  0  0  0
 19 21  1  0  0  0  0
 20 24  1  0  0  0  0
 20 43  1  0  0  0  0
 21 22  2  0  0  0  0
 22 23  1  0  0  0  0
 22 24  1  0  0  0  0
 23 44  1  0  0  0  0
 23 45  1  0  0  0  0
 23 46  1  0  0  0  0
M  END
>  <DRUGBANK_ID>
DB08715

>  <COMMON_NAME>
2,6-DIMETHYL-1-(3-[3-METHYL-5-ISOXAZOLYL]-PROPANYL)-4-[2-METHYL-4-ISOXAZOLYL]-PHENOL

$$$$
