AFB
 OpenBabel10282417072D

 44 45  0  0  0  0  0  0  0  0999 V2000
   -2.2885   -0.5103    0.0000 O   0  0  0  0  0  0  0  0  0  0  0  0
   -1.4873   -0.7069    0.0000 C   0  0  1  0  0  0  0  0  0  0  0  0
   -0.8572   -0.1743    0.0000 C   0  0  0  0  0  0  0  0  0  0  0  0
   -1.1754   -1.4707    0.0000 C   0  0  0  0  0  0  0  0  0  0  0  0
   -0.3527   -1.4101    0.0000 C   0  0  2  0  0  0  0  0  0  0  0  0
   -0.1560   -0.6089    0.0000 C   0  0  2  0  0  0  0  0  0  0  0  0
    0.6362   -0.3786    0.0000 C   0  0  0  0  0  0  0  0  0  0  0  0
    0.8329    0.4226    0.0000 C   0  0  0  0  0  0  0  0  0  0  0  0
    1.6251    0.6529    0.0000 C   0  0  0  0  0  0  0  0  0  0  0  0
    2.3033    0.0570    0.0000 C   0  0  0  0  0  0  0  0  0  0  0  0
    3.1279    0.0313    0.0000 C   0  0  0  0  0  0  0  0  0  0  0  0
    3.3582   -0.7610    0.0000 C   0  0  2  0  0  0  0  0  0  0  0  0
    4.1345   -1.0403    0.0000 C   0  0  0  0  0  0  0  0  0  0  0  0
    2.6759   -1.2248    0.0000 O   0  0  0  0  0  0  0  0  0  0  0  0
    2.4229   -2.0914    0.0000 C   0  0  0  0  0  0  0  0  0  0  0  0
    3.0059   -2.6751    0.0000 O   0  0  0  0  0  0  0  0  0  0  0  0
    1.6306   -2.3217    0.0000 C   0  0  0  0  0  0  0  0  0  0  0  0
    1.0351   -1.7508    0.0000 C   0  0  0  0  0  0  0  0  0  0  0  0
    0.2429   -1.9811    0.0000 C   0  0  1  0  0  0  0  0  0  0  0  0
    0.0462   -2.7823    0.0000 O   0  0  0  0  0  0  0  0  0  0  0  0
   -1.6207   -0.1384    0.0000 H   0  0  0  0  0  0  0  0  0  0  0  0
   -0.5504   -1.9596    0.0000 H   0  0  0  0  0  0  0  0  0  0  0  0
   -0.0768   -0.0304    0.0000 H   0  0  0  0  0  0  0  0  0  0  0  0
    3.7838   -0.3612    0.0000 H   0  0  0  0  0  0  0  0  0  0  0  0
   -0.3178   -2.1441    0.0000 H   0  0  0  0  0  0  0  0  0  0  0  0
   -2.5593    0.4211    0.0000 H   0  0  0  0  0  0  0  0  0  0  0  0
   -0.9357    0.8928    0.0000 H   0  0  0  0  0  0  0  0  0  0  0  0
    0.0580    0.3801    0.0000 H   0  0  0  0  0  0  0  0  0  0  0  0
   -1.7390   -2.3802    0.0000 H   0  0  0  0  0  0  0  0  0  0  0  0
   -0.6209   -2.3858    0.0000 H   0  0  0  0  0  0  0  0  0  0  0  0
    1.3812   -1.0928    0.0000 H   0  0  0  0  0  0  0  0  0  0  0  0
    0.0879    1.1368    0.0000 H   0  0  0  0  0  0  0  0  0  0  0  0
    1.8576    1.6973    0.0000 H   0  0  0  0  0  0  0  0  0  0  0  0
    2.6423    0.9849    0.0000 H   0  0  0  0  0  0  0  0  0  0  0  0
    1.9104   -0.9382    0.0000 H   0  0  0  0  0  0  0  0  0  0  0  0
    2.8913   -0.8370    0.0000 H   0  0  0  0  0  0  0  0  0  0  0  0
    3.7835    0.8769    0.0000 H   0  0  0  0  0  0  0  0  0  0  0  0
    4.1790   -0.1690    0.0000 H   0  0  0  0  0  0  0  0  0  0  0  0
    4.3242   -2.0933    0.0000 H   0  0  0  0  0  0  0  0  0  0  0  0
    4.9516   -0.3495    0.0000 H   0  0  0  0  0  0  0  0  0  0  0  0
    5.1413   -1.4025    0.0000 H   0  0  0  0  0  0  0  0  0  0  0  0
    1.3846   -3.3239    0.0000 H   0  0  0  0  0  0  0  0  0  0  0  0
    1.2811   -0.7486    0.0000 H   0  0  0  0  0  0  0  0  0  0  0  0
   -0.8853   -3.0530    0.0000 H   0  0  0  0  0  0  0  0  0  0  0  0
  1 26  1  0  0  0  0
  2  1  1  0  0  0  0
  2  3  1  0  0  0  0
  2  4  1  0  0  0  0
  2 21  1  6  0  0  0
  3  6  1  0  0  0  0
  3 27  1  0  0  0  0
  3 28  1  0  0  0  0
  4  5  1  0  0  0  0
  4 29  1  0  0  0  0
  4 30  1  0  0  0  0
  5  6  1  0  0  0  0
  5 19  1  0  0  0  0
  5 22  1  1  0  0  0
  6  7  1  0  0  0  0
  6 23  1  6  0  0  0
  7  8  2  0  0  0  0
  7 31  1  0  0  0  0
  8  9  1  0  0  0  0
  8 32  1  0  0  0  0
  9 10  1  0  0  0  0
  9 33  1  0  0  0  0
  9 34  1  0  0  0  0
 10 11  1  0  0  0  0
 10 35  1  0  0  0  0
 10 36  1  0  0  0  0
 11 12  1  0  0  0  0
 11 37  1  0  0  0  0
 11 38  1  0  0  0  0
 12 13  1  0  0  0  0
 12 14  1  0  0  0  0
 12 24  1  1  0  0  0
 13 39  1  0  0  0  0
 13 40  1  0  0  0  0
 13 41  1  0  0  0  0
 14 15  1  0  0  0  0
 15 16  2  0  0  0  0
 15 17  1  0  0  0  0
 17 18  2  0  0  0  0
 17 42  1  0  0  0  0
 18 19  1  0  0  0  0
 18 43  1  0  0  0  0
 19 20  1  0  0  0  0
 19 25  1  6  0  0  0
 20 44  1  0  0  0  0
M  END
>  <DRUGBANK_ID>
DB07348

>  <COMMON_NAME>
Brefeldin A

>  <CAS_NUMBER>
20350-15-6

>  <UNII>
XG0D35F9K6

>  <SYNONYMS>
(+)-brefeldin A; Ascotoxin; Cyanein; Decumbin; Nectrolide; Synergisidin

$$$$
