
 OpenBabel10282417072D

 45 46  0  0  0  0  0  0  0  0999 V2000
   -0.7145   -4.5375    0.0000 C   0  0  0  0  0  0  0  0  0  0  0  0
    0.4125   -4.8395    0.0000 C   0  0  0  0  0  0  0  0  0  0  0  0
   -0.4125   -3.4105    0.0000 C   0  0  0  0  0  0  0  0  0  0  0  0
    1.4289    0.8250    0.0000 C   0  0  0  0  0  0  0  0  0  0  0  0
    4.2868    0.8250    0.0000 C   0  0  0  0  0  0  0  0  0  0  0  0
    2.1434    1.2375    0.0000 C   0  0  0  0  0  0  0  0  0  0  0  0
    3.5724    1.2375    0.0000 C   0  0  0  0  0  0  0  0  0  0  0  0
    1.4289    0.0000    0.0000 C   0  0  0  0  0  0  0  0  0  0  0  0
    4.2868    0.0000    0.0000 C   0  0  0  0  0  0  0  0  0  0  0  0
    0.7145   -2.8875    0.0000 C   0  0  0  0  0  0  0  0  0  0  0  0
    1.4289   -1.6500    0.0000 C   0  0  0  0  0  0  0  0  0  0  0  0
    2.8579    0.8250    0.0000 C   0  0  0  0  0  0  0  0  0  0  0  0
    1.4289   -2.4750    0.0000 C   0  0  3  0  0  0  0  0  0  0  0  0
    2.1434   -0.4125    0.0000 C   0  0  0  0  0  0  0  0  0  0  0  0
    2.8579    0.0000    0.0000 C   0  0  0  0  0  0  0  0  0  0  0  0
    0.0000   -4.1250    0.0000 C   0  0  0  0  0  0  0  0  0  0  0  0
    0.7145   -3.7125    0.0000 N   0  0  0  0  0  0  0  0  0  0  0  0
    2.1434   -2.8875    0.0000 O   0  0  0  0  0  0  0  0  0  0  0  0
    2.1434   -1.2375    0.0000 O   0  0  0  0  0  0  0  0  0  0  0  0
    3.5724   -0.4125    0.0000 S   0  0  0  0  0  0  0  0  0  0  0  0
   -1.6411   -4.0025    0.0000 H   0  0  0  0  0  0  0  0  0  0  0  0
   -0.7145   -5.6075    0.0000 H   0  0  0  0  0  0  0  0  0  0  0  0
   -1.6412   -5.0725    0.0000 H   0  0  0  0  0  0  0  0  0  0  0  0
   -0.1225   -5.7661    0.0000 H   0  0  0  0  0  0  0  0  0  0  0  0
    1.4825   -4.8395    0.0000 H   0  0  0  0  0  0  0  0  0  0  0  0
    0.9475   -5.7662    0.0000 H   0  0  0  0  0  0  0  0  0  0  0  0
    0.1225   -2.4839    0.0000 H   0  0  0  0  0  0  0  0  0  0  0  0
   -1.4825   -3.4105    0.0000 H   0  0  0  0  0  0  0  0  0  0  0  0
   -0.9475   -2.4838    0.0000 H   0  0  0  0  0  0  0  0  0  0  0  0
    0.5352    1.3410    0.0000 H   0  0  0  0  0  0  0  0  0  0  0  0
    5.2135    1.3600    0.0000 H   0  0  0  0  0  0  0  0  0  0  0  0
    5.2134    0.2900    0.0000 H   0  0  0  0  0  0  0  0  0  0  0  0
    2.1434    2.2695    0.0000 H   0  0  0  0  0  0  0  0  0  0  0  0
    3.5724    2.3075    0.0000 H   0  0  0  0  0  0  0  0  0  0  0  0
    2.6458    1.7725    0.0000 H   0  0  0  0  0  0  0  0  0  0  0  0
    0.5352   -0.5160    0.0000 H   0  0  0  0  0  0  0  0  0  0  0  0
    5.2135   -0.5350    0.0000 H   0  0  0  0  0  0  0  0  0  0  0  0
    4.2868   -1.0700    0.0000 H   0  0  0  0  0  0  0  0  0  0  0  0
   -0.2122   -2.3525    0.0000 H   0  0  0  0  0  0  0  0  0  0  0  0
   -0.2121   -3.4225    0.0000 H   0  0  0  0  0  0  0  0  0  0  0  0
    0.5023   -1.1150    0.0000 H   0  0  0  0  0  0  0  0  0  0  0  0
    1.4289   -0.5800    0.0000 H   0  0  0  0  0  0  0  0  0  0  0  0
    0.5022   -1.9400    0.0000 H   0  0  0  0  0  0  0  0  0  0  0  0
    1.5978   -4.2225    0.0000 H   0  0  0  0  0  0  0  0  0  0  0  0
    2.1434   -3.8575    0.0000 H   0  0  0  0  0  0  0  0  0  0  0  0
  1 21  1  0  0  0  0
  1 22  1  0  0  0  0
  1 23  1  0  0  0  0
  2 24  1  0  0  0  0
  2 25  1  0  0  0  0
  2 26  1  0  0  0  0
  3 27  1  0  0  0  0
  3 28  1  0  0  0  0
  3 29  1  0  0  0  0
  4 30  1  0  0  0  0
  5 31  1  0  0  0  0
  5 32  1  0  0  0  0
  6  4  2  0  0  0  0
  6 33  1  0  0  0  0
  7  5  1  0  0  0  0
  7 34  1  0  0  0  0
  7 35  1  0  0  0  0
  8  4  1  0  0  0  0
  8 36  1  0  0  0  0
  9  5  1  0  0  0  0
  9 37  1  0  0  0  0
  9 38  1  0  0  0  0
 10 39  1  0  0  0  0
 10 40  1  0  0  0  0
 11 41  1  0  0  0  0
 11 42  1  0  0  0  0
 12  6  1  0  0  0  0
 12  7  1  0  0  0  0
 13 10  1  0  0  0  0
 13 11  1  0  0  0  0
 13 43  1  0  0  0  0
 14  8  2  0  0  0  0
 15 12  2  0  0  0  0
 15 14  1  0  0  0  0
 16  1  1  0  0  0  0
 16  2  1  0  0  0  0
 16  3  1  0  0  0  0
 17 10  1  0  0  0  0
 17 16  1  0  0  0  0
 17 44  1  0  0  0  0
 18 13  1  0  0  0  0
 18 45  1  0  0  0  0
 19 11  1  0  0  0  0
 19 14  1  0  0  0  0
 20  9  1  0  0  0  0
 20 15  1  0  0  0  0
M  END
>  <DRUGBANK_ID>
DB13775

>  <COMMON_NAME>
Tertatolol

>  <CAS_NUMBER>
83688-84-0

>  <UNII>
9ZO341YQXP

>  <SYNONYMS>
Tertatolol

$$$$
