
 OpenBabel10282417072D

 85 90  0  0  1  0  0  0  0  0999 V2000
    1.7660    5.1709    0.0000 C   0  0  0  0  0  0  0  0  0  0  0  0
    2.4805    5.5834    0.0000 C   0  0  0  0  0  0  0  0  0  0  0  0
    3.1949    5.1709    0.0000 O   0  0  0  0  0  0  0  0  0  0  0  0
    3.9094    5.5834    0.0000 C   0  0  0  0  0  0  0  0  0  0  0  0
    4.6239    5.1709    0.0000 C   0  0  0  0  0  0  0  0  0  0  0  0
    5.3383    5.5834    0.0000 O   0  0  0  0  0  0  0  0  0  0  0  0
    6.0528    5.1709    0.0000 C   0  0  0  0  0  0  0  0  0  0  0  0
    5.5679    4.5035    0.0000 O   0  0  0  0  0  0  0  0  0  0  0  0
    6.7673    5.5834    0.0000 N   0  0  0  0  0  0  0  0  0  0  0  0
    7.4818    5.1709    0.0000 C   0  0  1  0  0  0  0  0  0  0  0  0
    7.4818    4.3459    0.0000 C   0  0  0  0  0  0  0  0  0  0  0  0
    6.7673    3.9334    0.0000 C   0  0  0  0  0  0  0  0  0  0  0  0
    6.7673    3.1084    0.0000 C   0  0  0  0  0  0  0  0  0  0  0  0
    6.0528    2.6959    0.0000 C   0  0  0  0  0  0  0  0  0  0  0  0
    5.3383    3.1084    0.0000 C   0  0  0  0  0  0  0  0  0  0  0  0
    5.3383    3.9334    0.0000 C   0  0  0  0  0  0  0  0  0  0  0  0
    6.0528    4.3459    0.0000 C   0  0  0  0  0  0  0  0  0  0  0  0
    8.1962    5.5834    0.0000 C   0  0  1  0  0  0  0  0  0  0  0  0
    8.1962    6.4084    0.0000 O   0  0  0  0  0  0  0  0  0  0  0  0
    8.9107    5.1709    0.0000 C   0  0  0  0  0  0  0  0  0  0  0  0
    8.9107    4.3459    0.0000 C   0  0  2  0  0  0  0  0  0  0  0  0
    9.7312    4.4322    0.0000 C   0  0  0  0  0  0  0  0  0  0  0  0
   10.0667    5.1858    0.0000 C   0  0  0  0  0  0  0  0  0  0  0  0
    9.5818    5.8533    0.0000 C   0  0  0  0  0  0  0  0  0  0  0  0
    9.9174    6.6069    0.0000 C   0  0  0  0  0  0  0  0  0  0  0  0
   10.7378    6.6932    0.0000 C   0  0  0  0  0  0  0  0  0  0  0  0
   11.2228    6.0257    0.0000 C   0  0  0  0  0  0  0  0  0  0  0  0
   10.8872    5.2721    0.0000 C   0  0  0  0  0  0  0  0  0  0  0  0
    8.0902    4.4322    0.0000 N   0  0  0  0  0  0  0  0  0  0  0  0
    7.7547    3.6785    0.0000 C   0  0  0  0  0  0  0  0  0  0  0  0
    8.3677    3.1264    0.0000 C   0  0  0  0  0  0  0  0  0  0  0  0
    8.2815    2.3060    0.0000 C   0  0  2  0  0  0  0  0  0  0  0  0
    8.8946    1.7539    0.0000 C   0  0  2  0  0  0  0  0  0  0  0  0
    9.7151    1.6677    0.0000 O   0  0  0  0  0  0  0  0  0  0  0  0
    9.8866    0.8607    0.0000 C   0  0  0  0  0  0  0  0  0  0  0  0
   10.6403    0.5252    0.0000 O   0  0  0  0  0  0  0  0  0  0  0  0
    9.1721    0.4482    0.0000 N   0  0  0  0  0  0  0  0  0  0  0  0
    8.5591    1.0003    0.0000 C   0  0  2  0  0  0  0  0  0  0  0  0
    7.7386    1.0865    0.0000 C   0  0  0  0  0  0  0  0  0  0  0  0
    7.1255    0.5345    0.0000 C   0  0  0  0  0  0  0  0  0  0  0  0
    6.3409    0.7894    0.0000 C   0  0  0  0  0  0  0  0  0  0  0  0
    6.1693    1.5964    0.0000 C   0  0  0  0  0  0  0  0  0  0  0  0
    6.7824    2.1484    0.0000 C   0  0  0  0  0  0  0  0  0  0  0  0
    7.5670    1.8935    0.0000 C   0  0  0  0  0  0  0  0  0  0  0  0
    9.0822    3.5389    0.0000 C   0  0  0  0  0  0  0  0  0  0  0  0
    9.8359    3.2034    0.0000 O   0  0  0  0  0  0  0  0  0  0  0  0
    0.8394    5.7059    0.0000 H   0  0  0  0  0  0  0  0  0  0  0  0
    1.7660    4.1009    0.0000 H   0  0  0  0  0  0  0  0  0  0  0  0
    0.8393    4.6359    0.0000 H   0  0  0  0  0  0  0  0  0  0  0  0
    2.4805    6.6534    0.0000 H   0  0  0  0  0  0  0  0  0  0  0  0
    3.4072    6.1184    0.0000 H   0  0  0  0  0  0  0  0  0  0  0  0
    3.9094    6.6534    0.0000 H   0  0  0  0  0  0  0  0  0  0  0  0
    4.8360    6.1184    0.0000 H   0  0  0  0  0  0  0  0  0  0  0  0
    4.6239    4.1009    0.0000 H   0  0  0  0  0  0  0  0  0  0  0  0
    5.5506    4.6359    0.0000 H   0  0  0  0  0  0  0  0  0  0  0  0
    6.7673    6.5679    0.0000 H   0  0  0  0  0  0  0  0  0  0  0  0
    6.5552    4.6359    0.0000 H   0  0  0  0  0  0  0  0  0  0  0  0
    8.4084    3.8109    0.0000 H   0  0  0  0  0  0  0  0  0  0  0  0
    7.4818    3.2759    0.0000 H   0  0  0  0  0  0  0  0  0  0  0  0
    7.6610    2.5924    0.0000 H   0  0  0  0  0  0  0  0  0  0  0  0
    6.0528    1.6639    0.0000 H   0  0  0  0  0  0  0  0  0  0  0  0
    4.4446    2.5924    0.0000 H   0  0  0  0  0  0  0  0  0  0  0  0
    4.4446    4.4494    0.0000 H   0  0  0  0  0  0  0  0  0  0  0  0
    6.0528    5.3779    0.0000 H   0  0  0  0  0  0  0  0  0  0  0  0
    7.2695    6.1184    0.0000 H   0  0  0  0  0  0  0  0  0  0  0  0
    9.0362    6.8934    0.0000 H   0  0  0  0  0  0  0  0  0  0  0  0
    9.8373    5.7059    0.0000 H   0  0  0  0  0  0  0  0  0  0  0  0
    9.8373    4.6359    0.0000 H   0  0  0  0  0  0  0  0  0  0  0  0
   10.3602    3.5666    0.0000 H   0  0  0  0  0  0  0  0  0  0  0  0
   10.7953    4.5441    0.0000 H   0  0  0  0  0  0  0  0  0  0  0  0
    8.5554    5.7455    0.0000 H   0  0  0  0  0  0  0  0  0  0  0  0
    9.3108    7.4418    0.0000 H   0  0  0  0  0  0  0  0  0  0  0  0
   11.1575    7.6360    0.0000 H   0  0  0  0  0  0  0  0  0  0  0  0
   12.2491    6.1335    0.0000 H   0  0  0  0  0  0  0  0  0  0  0  0
   11.4938    4.4372    0.0000 H   0  0  0  0  0  0  0  0  0  0  0  0
    7.5979    5.2848    0.0000 H   0  0  0  0  0  0  0  0  0  0  0  0
    6.7452    3.4640    0.0000 H   0  0  0  0  0  0  0  0  0  0  0  0
    9.2804    2.6894    0.0000 H   0  0  0  0  0  0  0  0  0  0  0  0
    9.3298    2.7314    0.0000 H   0  0  0  0  0  0  0  0  0  0  0  0
    9.0691   -0.5309    0.0000 H   0  0  0  0  0  0  0  0  0  0  0  0
    9.6057    1.2227    0.0000 H   0  0  0  0  0  0  0  0  0  0  0  0
    7.3401   -0.4749    0.0000 H   0  0  0  0  0  0  0  0  0  0  0  0
    5.5740    0.0988    0.0000 H   0  0  0  0  0  0  0  0  0  0  0  0
    5.1878    1.9153    0.0000 H   0  0  0  0  0  0  0  0  0  0  0  0
    6.5678    3.1578    0.0000 H   0  0  0  0  0  0  0  0  0  0  0  0
  1  2  1  0  0  0  0
  1 47  1  0  0  0  0
  1 48  1  0  0  0  0
  1 49  1  0  0  0  0
  2  3  1  0  0  0  0
  2 50  1  0  0  0  0
  2 51  1  0  0  0  0
  3  4  1  0  0  0  0
  4  5  1  0  0  0  0
  4 52  1  0  0  0  0
  4 53  1  0  0  0  0
  5  6  1  0  0  0  0
  5 54  1  0  0  0  0
  5 55  1  0  0  0  0
  6  7  1  0  0  0  0
  7  8  2  0  0  0  0
  7  9  1  0  0  0  0
  9 56  1  0  0  0  0
 10  9  1  0  0  0  0
 10 11  1  0  0  0  0
 10 18  1  0  0  0  0
 10 57  1  1  0  0  0
 11 12  1  0  0  0  0
 11 58  1  0  0  0  0
 11 59  1  0  0  0  0
 12 13  2  0  0  0  0
 12 17  1  0  0  0  0
 13 14  1  0  0  0  0
 13 60  1  0  0  0  0
 14 15  2  0  0  0  0
 14 61  1  0  0  0  0
 15 16  1  0  0  0  0
 15 62  1  0  0  0  0
 16 17  2  0  0  0  0
 16 63  1  0  0  0  0
 17 64  1  0  0  0  0
 18 19  1  0  0  0  0
 18 20  1  0  0  0  0
 18 65  1  6  0  0  0
 19 66  1  0  0  0  0
 20 67  1  0  0  0  0
 20 68  1  0  0  0  0
 21 20  1  1  0  0  0
 21 22  1  0  0  0  0
 21 29  1  0  0  0  0
 21 45  1  0  0  0  0
 22 23  1  0  0  0  0
 22 69  1  0  0  0  0
 22 70  1  0  0  0  0
 23 24  2  0  0  0  0
 23 28  1  0  0  0  0
 24 25  1  0  0  0  0
 24 71  1  0  0  0  0
 25 26  2  0  0  0  0
 25 72  1  0  0  0  0
 26 27  1  0  0  0  0
 26 73  1  0  0  0  0
 27 28  2  0  0  0  0
 27 74  1  0  0  0  0
 28 75  1  0  0  0  0
 29 30  1  0  0  0  0
 29 76  1  0  0  0  0
 30 31  2  0  0  0  0
 30 77  1  0  0  0  0
 31 45  1  0  0  0  0
 32 31  1  0  0  0  0
 32 33  1  0  0  0  0
 32 44  1  0  0  0  0
 32 78  1  1  0  0  0
 33 34  1  0  0  0  0
 33 38  1  0  0  0  0
 33 79  1  1  0  0  0
 34 35  1  0  0  0  0
 35 36  2  0  0  0  0
 35 37  1  0  0  0  0
 37 80  1  0  0  0  0
 38 37  1  0  0  0  0
 38 39  1  0  0  0  0
 38 81  1  1  0  0  0
 39 40  2  0  0  0  0
 39 44  1  0  0  0  0
 40 41  1  0  0  0  0
 40 82  1  0  0  0  0
 41 42  2  0  0  0  0
 41 83  1  0  0  0  0
 42 43  1  0  0  0  0
 42 84  1  0  0  0  0
 43 44  2  0  0  0  0
 43 85  1  0  0  0  0
 45 46  2  0  0  0  0
M  END
>  <DRUGBANK_ID>
DB04623

>  <COMMON_NAME>
2-ETHOXYETHYL (2S,3S)-4-((S)-2-BENZYL-3-OXO-4-((3AR,8R,8AS)-2-OXO-3,3A,8,8A-TETRAHYDRO-2H-INDENO[1,2-D]OXAZOL-8-YL)-2,3-DIHYDRO-1H-PYRROL-2-YL)-3-HYDROXY-1-PHENYLBUTAN-2-YLCARBAMATE

$$$$
