
 OpenBabel10282417072D

 19 19  0  0  0  0  0  0  0  0999 V2000
   -0.7500    1.1375    0.0000 C   0  0  0  0  0  0  0  0  0  0  0  0
   -1.4645    0.7250    0.0000 C   0  0  0  0  0  0  0  0  0  0  0  0
   -1.4645   -0.1000    0.0000 C   0  0  0  0  0  0  0  0  0  0  0  0
   -0.0355    0.7250    0.0000 C   0  0  0  0  0  0  0  0  0  0  0  0
   -0.7500   -0.5125    0.0000 N   0  3  0  0  0  0  0  0  0  0  0  0
   -0.7500   -1.3375    0.0000 C   0  0  0  0  0  0  0  0  0  0  0  0
   -0.0355   -0.1000    0.0000 C   0  0  0  0  0  0  0  0  0  0  0  0
    0.6789   -0.5125    0.0000 C   0  0  0  0  0  0  0  0  0  0  0  0
    1.3934   -0.1000    0.0000 N   0  0  0  0  0  0  0  0  0  0  0  0
    2.1079   -0.5125    0.0000 O   0  0  0  0  0  0  0  0  0  0  0  0
   -0.7500    2.1695    0.0000 H   0  0  0  0  0  0  0  0  0  0  0  0
   -2.3582    1.2410    0.0000 H   0  0  0  0  0  0  0  0  0  0  0  0
   -2.3582   -0.6160    0.0000 H   0  0  0  0  0  0  0  0  0  0  0  0
    0.8582    1.2410    0.0000 H   0  0  0  0  0  0  0  0  0  0  0  0
   -1.6766   -1.8725    0.0000 H   0  0  0  0  0  0  0  0  0  0  0  0
    0.1766   -1.8725    0.0000 H   0  0  0  0  0  0  0  0  0  0  0  0
   -0.7500   -2.4075    0.0000 H   0  0  0  0  0  0  0  0  0  0  0  0
    0.6789   -1.5445    0.0000 H   0  0  0  0  0  0  0  0  0  0  0  0
    2.1079   -1.4495    0.0000 H   0  0  0  0  0  0  0  0  0  0  0  0
  1  2  1  0  0  0  0
  1  4  2  0  0  0  0
  1 11  1  0  0  0  0
  2  3  2  0  0  0  0
  2 12  1  0  0  0  0
  3  5  1  0  0  0  0
  3 13  1  0  0  0  0
  4 14  1  0  0  0  0
  5  7  2  0  0  0  0
  5  6  1  0  0  0  0
  6 15  1  0  0  0  0
  6 16  1  0  0  0  0
  6 17  1  0  0  0  0
  7  4  1  0  0  0  0
  7  8  1  0  0  0  0
  8  9  2  0  0  0  0
  8 18  1  0  0  0  0
  9 10  1  0  0  0  0
 10 19  1  0  0  0  0
M  CHG  1   5   1
M  END
>  <DRUGBANK_ID>
DB00733

>  <SECONDARY_ACCESSION_NUMBERS>
APRD01193

>  <COMMON_NAME>
Pralidoxime

>  <CAS_NUMBER>
6735-59-7

>  <UNII>
P7MU9UTP52

>  <SYNONYMS>
2-PAM; Pralidoxim; Pralidoxima; Pralidoxime; Pralidoximum

$$$$
