ZTW
 OpenBabel10282417072D

 27 29  0  0  0  0  0  0  0  0999 V2000
    1.6992    0.8428    0.0000 C   0  0  0  0  0  0  0  0  0  0  0  0
    2.4137    0.4303    0.0000 C   0  0  0  0  0  0  0  0  0  0  0  0
    2.4137   -0.3947    0.0000 C   0  0  0  0  0  0  0  0  0  0  0  0
    3.1282   -0.8072    0.0000 O   0  0  0  0  0  0  0  0  0  0  0  0
    1.6992   -0.8072    0.0000 C   0  0  0  0  0  0  0  0  0  0  0  0
    0.9848   -0.3947    0.0000 C   0  0  0  0  0  0  0  0  0  0  0  0
    0.2001   -0.6496    0.0000 S   0  0  0  0  0  0  0  0  0  0  0  0
   -0.2848    0.0178    0.0000 C   0  0  0  0  0  0  0  0  0  0  0  0
   -1.1098    0.0178    0.0000 C   0  0  0  0  0  0  0  0  0  0  0  0
   -1.5223   -0.6966    0.0000 C   0  0  0  0  0  0  0  0  0  0  0  0
   -2.3473   -0.6966    0.0000 C   0  0  0  0  0  0  0  0  0  0  0  0
   -2.7598    0.0178    0.0000 C   0  0  0  0  0  0  0  0  0  0  0  0
   -3.5848    0.0178    0.0000 O   0  0  0  0  0  0  0  0  0  0  0  0
   -2.3473    0.7323    0.0000 C   0  0  0  0  0  0  0  0  0  0  0  0
   -1.5223    0.7323    0.0000 C   0  0  0  0  0  0  0  0  0  0  0  0
    0.9848    0.4303    0.0000 C   0  0  0  0  0  0  0  0  0  0  0  0
    0.2001    0.6853    0.0000 C   0  0  0  0  0  0  0  0  0  0  0  0
    1.6992    1.8748    0.0000 H   0  0  0  0  0  0  0  0  0  0  0  0
    3.3074    0.9463    0.0000 H   0  0  0  0  0  0  0  0  0  0  0  0
    3.1282   -1.7442    0.0000 H   0  0  0  0  0  0  0  0  0  0  0  0
    1.6992   -1.8392    0.0000 H   0  0  0  0  0  0  0  0  0  0  0  0
   -1.0063   -1.5903    0.0000 H   0  0  0  0  0  0  0  0  0  0  0  0
   -2.8633   -1.5903    0.0000 H   0  0  0  0  0  0  0  0  0  0  0  0
   -4.0533    0.8293    0.0000 H   0  0  0  0  0  0  0  0  0  0  0  0
   -2.8633    1.6260    0.0000 H   0  0  0  0  0  0  0  0  0  0  0  0
   -1.0063    1.6260    0.0000 H   0  0  0  0  0  0  0  0  0  0  0  0
   -0.1188    1.6668    0.0000 H   0  0  0  0  0  0  0  0  0  0  0  0
  1  2  2  0  0  0  0
  1 16  1  0  0  0  0
  1 18  1  0  0  0  0
  2  3  1  0  0  0  0
  2 19  1  0  0  0  0
  3  4  1  0  0  0  0
  3  5  2  0  0  0  0
  4 20  1  0  0  0  0
  5  6  1  0  0  0  0
  5 21  1  0  0  0  0
  6  7  1  0  0  0  0
  6 16  2  0  0  0  0
  7  8  1  0  0  0  0
  8  9  1  0  0  0  0
  8 17  2  0  0  0  0
  9 10  2  0  0  0  0
  9 15  1  0  0  0  0
 10 11  1  0  0  0  0
 10 22  1  0  0  0  0
 11 12  2  0  0  0  0
 11 23  1  0  0  0  0
 12 13  1  0  0  0  0
 12 14  1  0  0  0  0
 13 24  1  0  0  0  0
 14 15  2  0  0  0  0
 14 25  1  0  0  0  0
 15 26  1  0  0  0  0
 16 17  1  0  0  0  0
 17 27  1  0  0  0  0
M  END
>  <DRUGBANK_ID>
DB08773

>  <COMMON_NAME>
2-(4-hydroxyphenyl)benzo[b]thiophen-6-ol

>  <CAS_NUMBER>
63676-22-2

>  <UNII>
8ZK5PJ1CM3

>  <SYNONYMS>
2-(4-hydroxyphenyl)benzo(b)thiophene-6-ol; Raloxifene core

$$$$
