
 OpenBabel10282417072D

114116  0  0  0  0  0  0  0  0999 V2000
    2.6740    2.1349    0.0000 C   0  0  2  0  0  0  0  0  0  0  0  0
    2.0066    2.6198    0.0000 O   0  0  0  0  0  0  0  0  0  0  0  0
    2.4191    1.3503    0.0000 C   0  0  1  0  0  0  0  0  0  0  0  0
    1.3391    2.1349    0.0000 C   0  0  1  0  0  0  0  0  0  0  0  0
    1.5941    1.3503    0.0000 C   0  0  1  0  0  0  0  0  0  0  0  0
    2.9040    0.6828    0.0000 O   0  0  0  0  0  0  0  0  0  0  0  0
   -4.0717   -1.9060    0.0000 C   0  0  0  0  0  0  0  0  0  0  0  0
   -3.3289   -2.3185    0.0000 C   0  0  0  0  0  0  0  0  0  0  0  0
   -4.7862   -2.3185    0.0000 N   0  0  0  0  0  0  0  0  0  0  0  0
   -5.5005   -1.9060    0.0000 C   0  0  0  0  0  0  0  0  0  0  0  0
   -6.2150   -2.3185    0.0000 O   0  0  0  0  0  0  0  0  0  0  0  0
   -4.7578   -0.6685    0.0000 C   0  0  0  0  0  0  0  0  0  0  0  0
   -5.5005   -1.0810    0.0000 C   0  0  0  0  0  0  0  0  0  0  0  0
   -4.7578    0.1564    0.0000 N   0  0  0  0  0  0  0  0  0  0  0  0
   -6.1867    0.1564    0.0000 O   0  0  0  0  0  0  0  0  0  0  0  0
   -5.4723    0.5690    0.0000 C   0  0  0  0  0  0  0  0  0  0  0  0
   -4.0432    1.3940    0.0000 C   0  0  0  0  0  0  0  0  0  0  0  0
   -5.1703    2.5209    0.0000 C   0  0  0  0  0  0  0  0  0  0  0  0
   -4.7578    1.8065    0.0000 C   0  0  0  0  0  0  0  0  0  0  0  0
   -4.3453    2.5209    0.0000 C   0  0  0  0  0  0  0  0  0  0  0  0
   -5.4723    1.3940    0.0000 C   0  0  1  0  0  0  0  0  0  0  0  0
   -6.1868    1.8065    0.0000 O   0  0  0  0  0  0  0  0  0  0  0  0
   -3.3289    1.8065    0.0000 O   0  0  0  0  0  0  0  0  0  0  0  0
   -1.6788    1.8065    0.0000 O   0  0  0  0  0  0  0  0  0  0  0  0
   -0.0288    1.8065    0.0000 O   0  0  0  0  0  0  0  0  0  0  0  0
   -2.5038    2.6315    0.0000 O   0  0  0  0  0  0  0  0  0  0  0  0
   -2.5038    0.9815    0.0000 O   0  0  0  0  0  0  0  0  0  0  0  0
   -0.8539    2.6315    0.0000 O   0  0  0  0  0  0  0  0  0  0  0  0
   -0.8539    0.9815    0.0000 O   0  0  0  0  0  0  0  0  0  0  0  0
   -2.5038    1.8065    0.0000 P   0  0  3  0  0  0  0  0  0  0  0  0
   -0.8539    1.8065    0.0000 P   0  0  3  0  0  0  0  0  0  0  0  0
    0.5544    2.3898    0.0000 C   0  0  0  0  0  0  0  0  0  0  0  0
    1.1090    0.6828    0.0000 O   0  0  0  0  0  0  0  0  0  0  0  0
    0.2840   -0.1421    0.0000 O   0  0  0  0  0  0  0  0  0  0  0  0
    1.9341   -0.1421    0.0000 O   0  0  0  0  0  0  0  0  0  0  0  0
    1.1090   -0.1421    0.0000 P   0  0  0  0  0  0  0  0  0  0  0  0
    1.1090   -0.9671    0.0000 O   0  0  0  0  0  0  0  0  0  0  0  0
    3.4586    2.3898    0.0000 N   0  0  0  0  0  0  0  0  0  0  0  0
    4.0718    1.8378    0.0000 C   0  0  0  0  0  0  0  0  0  0  0  0
    3.7942    3.1435    0.0000 C   0  0  0  0  0  0  0  0  0  0  0  0
    4.7861    2.2503    0.0000 C   0  0  0  0  0  0  0  0  0  0  0  0
    4.0718    1.0128    0.0000 N   0  0  0  0  0  0  0  0  0  0  0  0
    4.6147    3.0573    0.0000 N   0  0  0  0  0  0  0  0  0  0  0  0
    5.5007    1.8379    0.0000 C   0  0  0  0  0  0  0  0  0  0  0  0
    4.7862    0.6004    0.0000 C   0  0  0  0  0  0  0  0  0  0  0  0
    5.5007    1.0129    0.0000 N   0  0  0  0  0  0  0  0  0  0  0  0
    6.2150    2.2504    0.0000 N   0  0  0  0  0  0  0  0  0  0  0  0
   -2.6142   -1.9060    0.0000 S   0  0  0  0  0  0  0  0  0  0  0  0
   -1.8998   -3.1435    0.0000 O   0  0  0  0  0  0  0  0  0  0  0  0
   -1.8998   -2.3185    0.0000 C   0  0  0  0  0  0  0  0  0  0  0  0
   -1.1855   -1.9060    0.0000 C   0  0  0  0  0  0  0  0  0  0  0  0
   -0.4709   -3.1435    0.0000 O   0  0  0  0  0  0  0  0  0  0  0  0
   -0.4709   -2.3185    0.0000 C   0  0  2  0  0  0  0  0  0  0  0  0
    0.2435   -1.9060    0.0000 C   0  0  0  0  0  0  0  0  0  0  0  0
    0.9578   -2.3185    0.0000 C   0  0  0  0  0  0  0  0  0  0  0  0
    1.6724   -1.9060    0.0000 C   0  0  0  0  0  0  0  0  0  0  0  0
    2.3869   -2.3185    0.0000 C   0  0  0  0  0  0  0  0  0  0  0  0
    3.1014   -1.9060    0.0000 C   0  0  0  0  0  0  0  0  0  0  0  0
    3.8158   -2.3185    0.0000 C   0  0  0  0  0  0  0  0  0  0  0  0
    4.5303   -1.9060    0.0000 C   0  0  0  0  0  0  0  0  0  0  0  0
    2.8414    3.1917    0.0000 H   0  0  0  0  0  0  0  0  0  0  0  0
    3.4759    1.5177    0.0000 H   0  0  0  0  0  0  0  0  0  0  0  0
    1.1717    3.1917    0.0000 H   0  0  0  0  0  0  0  0  0  0  0  0
    2.0798    0.3969    0.0000 H   0  0  0  0  0  0  0  0  0  0  0  0
    2.5094   -0.2033    0.0000 H   0  0  0  0  0  0  0  0  0  0  0  0
   -4.0806   -0.8360    0.0000 H   0  0  0  0  0  0  0  0  0  0  0  0
   -3.1518   -1.3595    0.0000 H   0  0  0  0  0  0  0  0  0  0  0  0
   -3.3201   -3.3885    0.0000 H   0  0  0  0  0  0  0  0  0  0  0  0
   -2.4001   -2.8497    0.0000 H   0  0  0  0  0  0  0  0  0  0  0  0
   -4.7863   -3.3030    0.0000 H   0  0  0  0  0  0  0  0  0  0  0  0
   -3.8356   -1.2112    0.0000 H   0  0  0  0  0  0  0  0  0  0  0  0
   -4.7711   -1.7384    0.0000 H   0  0  0  0  0  0  0  0  0  0  0  0
   -6.4227   -0.5383    0.0000 H   0  0  0  0  0  0  0  0  0  0  0  0
   -5.4872   -0.0111    0.0000 H   0  0  0  0  0  0  0  0  0  0  0  0
   -3.9052    0.6486    0.0000 H   0  0  0  0  0  0  0  0  0  0  0  0
   -4.0431    0.3240    0.0000 H   0  0  0  0  0  0  0  0  0  0  0  0
   -3.1165    0.8591    0.0000 H   0  0  0  0  0  0  0  0  0  0  0  0
   -4.6353    3.4476    0.0000 H   0  0  0  0  0  0  0  0  0  0  0  0
   -6.2403    2.5209    0.0000 H   0  0  0  0  0  0  0  0  0  0  0  0
   -5.7053    3.4475    0.0000 H   0  0  0  0  0  0  0  0  0  0  0  0
   -3.2753    2.5209    0.0000 H   0  0  0  0  0  0  0  0  0  0  0  0
   -4.8803    3.4476    0.0000 H   0  0  0  0  0  0  0  0  0  0  0  0
   -3.8103    3.4475    0.0000 H   0  0  0  0  0  0  0  0  0  0  0  0
   -6.3989    0.8590    0.0000 H   0  0  0  0  0  0  0  0  0  0  0  0
   -6.1868    2.7765    0.0000 H   0  0  0  0  0  0  0  0  0  0  0  0
   -3.3438    0.4965    0.0000 H   0  0  0  0  0  0  0  0  0  0  0  0
   -1.6939    0.4965    0.0000 H   0  0  0  0  0  0  0  0  0  0  0  0
    0.3045    3.4302    0.0000 H   0  0  0  0  0  0  0  0  0  0  0  0
   -0.4755    2.6802    0.0000 H   0  0  0  0  0  0  0  0  0  0  0  0
   -0.2010    0.6979    0.0000 H   0  0  0  0  0  0  0  0  0  0  0  0
    2.4191   -0.9821    0.0000 H   0  0  0  0  0  0  0  0  0  0  0  0
    3.2782    4.0372    0.0000 H   0  0  0  0  0  0  0  0  0  0  0  0
    4.7862   -0.4316    0.0000 H   0  0  0  0  0  0  0  0  0  0  0  0
    7.0677    1.7582    0.0000 H   0  0  0  0  0  0  0  0  0  0  0  0
    6.2149    3.2349    0.0000 H   0  0  0  0  0  0  0  0  0  0  0  0
   -1.1856   -0.8360    0.0000 H   0  0  0  0  0  0  0  0  0  0  0  0
   -0.2589   -1.3709    0.0000 H   0  0  0  0  0  0  0  0  0  0  0  0
   -1.3109   -3.6285    0.0000 H   0  0  0  0  0  0  0  0  0  0  0  0
   -1.3975   -2.8535    0.0000 H   0  0  0  0  0  0  0  0  0  0  0  0
    0.2435   -0.8360    0.0000 H   0  0  0  0  0  0  0  0  0  0  0  0
    1.1702   -1.3711    0.0000 H   0  0  0  0  0  0  0  0  0  0  0  0
    0.9577   -3.3885    0.0000 H   0  0  0  0  0  0  0  0  0  0  0  0
    1.8844   -2.8536    0.0000 H   0  0  0  0  0  0  0  0  0  0  0  0
    1.6724   -0.8360    0.0000 H   0  0  0  0  0  0  0  0  0  0  0  0
    2.5991   -1.3710    0.0000 H   0  0  0  0  0  0  0  0  0  0  0  0
    2.3869   -3.3885    0.0000 H   0  0  0  0  0  0  0  0  0  0  0  0
    3.3135   -2.8535    0.0000 H   0  0  0  0  0  0  0  0  0  0  0  0
    3.1014   -0.8360    0.0000 H   0  0  0  0  0  0  0  0  0  0  0  0
    4.0281   -1.3710    0.0000 H   0  0  0  0  0  0  0  0  0  0  0  0
    3.8158   -3.3885    0.0000 H   0  0  0  0  0  0  0  0  0  0  0  0
    4.7424   -2.8535    0.0000 H   0  0  0  0  0  0  0  0  0  0  0  0
    5.4569   -2.4410    0.0000 H   0  0  0  0  0  0  0  0  0  0  0  0
    4.5303   -0.8360    0.0000 H   0  0  0  0  0  0  0  0  0  0  0  0
    5.4570   -1.3710    0.0000 H   0  0  0  0  0  0  0  0  0  0  0  0
  1 38  1  0  0  0  0
  1 61  1  6  0  0  0
  2  1  1  0  0  0  0
  3  1  1  0  0  0  0
  3  6  1  0  0  0  0
  3 62  1  1  0  0  0
  4  2  1  0  0  0  0
  4 32  1  0  0  0  0
  4 63  1  6  0  0  0
  5  3  1  0  0  0  0
  5  4  1  0  0  0  0
  5 33  1  0  0  0  0
  5 64  1  1  0  0  0
  6 65  1  0  0  0  0
  7  8  1  0  0  0  0
  7 66  1  0  0  0  0
  7 67  1  0  0  0  0
  8 48  1  0  0  0  0
  8 68  1  0  0  0  0
  8 69  1  0  0  0  0
  9  7  1  0  0  0  0
  9 70  1  0  0  0  0
 10  9  1  0  0  0  0
 10 11  2  0  0  0  0
 12 14  1  0  0  0  0
 12 71  1  0  0  0  0
 12 72  1  0  0  0  0
 13 10  1  0  0  0  0
 13 12  1  0  0  0  0
 13 73  1  0  0  0  0
 13 74  1  0  0  0  0
 14 75  1  0  0  0  0
 16 14  1  0  0  0  0
 16 15  2  0  0  0  0
 16 21  1  0  0  0  0
 17 23  1  0  0  0  0
 17 76  1  0  0  0  0
 17 77  1  0  0  0  0
 18 78  1  0  0  0  0
 18 79  1  0  0  0  0
 18 80  1  0  0  0  0
 19 17  1  0  0  0  0
 19 18  1  0  0  0  0
 19 20  1  0  0  0  0
 20 81  1  0  0  0  0
 20 82  1  0  0  0  0
 20 83  1  0  0  0  0
 21 19  1  0  0  0  0
 21 22  1  0  0  0  0
 21 84  1  1  0  0  0
 22 85  1  0  0  0  0
 23 30  1  0  0  0  0
 24 31  1  0  0  0  0
 27 86  1  0  0  0  0
 29 87  1  0  0  0  0
 30 24  1  0  0  0  0
 30 26  2  0  0  0  0
 30 27  1  0  0  0  0
 31 25  1  0  0  0  0
 31 28  2  0  0  0  0
 31 29  1  0  0  0  0
 32 25  1  0  0  0  0
 32 88  1  0  0  0  0
 32 89  1  0  0  0  0
 33 36  1  0  0  0  0
 34 90  1  0  0  0  0
 35 91  1  0  0  0  0
 36 34  1  0  0  0  0
 36 35  1  0  0  0  0
 36 37  2  0  0  0  0
 39 38  1  0  0  0  0
 40 38  1  0  0  0  0
 40 92  1  0  0  0  0
 41 39  2  0  0  0  0
 42 39  1  0  0  0  0
 43 40  2  0  0  0  0
 43 41  1  0  0  0  0
 44 41  1  0  0  0  0
 45 42  2  0  0  0  0
 45 93  1  0  0  0  0
 46 44  2  0  0  0  0
 46 45  1  0  0  0  0
 47 44  1  0  0  0  0
 47 94  1  0  0  0  0
 47 95  1  0  0  0  0
 48 50  1  0  0  0  0
 50 49  2  0  0  0  0
 50 51  1  0  0  0  0
 51 53  1  0  0  0  0
 51 96  1  0  0  0  0
 51 97  1  0  0  0  0
 52 98  1  0  0  0  0
 53 52  1  0  0  0  0
 53 54  1  0  0  0  0
 53 99  1  6  0  0  0
 54 55  1  0  0  0  0
 54100  1  0  0  0  0
 54101  1  0  0  0  0
 55 56  1  0  0  0  0
 55102  1  0  0  0  0
 55103  1  0  0  0  0
 56 57  1  0  0  0  0
 56104  1  0  0  0  0
 56105  1  0  0  0  0
 57 58  1  0  0  0  0
 57106  1  0  0  0  0
 57107  1  0  0  0  0
 58 59  1  0  0  0  0
 58108  1  0  0  0  0
 58109  1  0  0  0  0
 59 60  1  0  0  0  0
 59110  1  0  0  0  0
 59111  1  0  0  0  0
 60112  1  0  0  0  0
 60113  1  0  0  0  0
 60114  1  0  0  0  0
M  END
>  <DRUGBANK_ID>
DB03192

>  <SECONDARY_ACCESSION_NUMBERS>
EXPT01712

>  <COMMON_NAME>
(R)-3-hydroxydecanoyl-CoA

>  <SYNONYMS>
(R)-3-hydroxydecanoyl-coenzyme A

$$$$
