
 OpenBabel10282417072D

 49 52  0  0  0  0  0  0  0  0999 V2000
   -2.1246    0.6394    0.0000 C   0  0  0  0  0  0  0  0  0  0  0  0
   -2.1246   -0.1856    0.0000 C   0  0  0  0  0  0  0  0  0  0  0  0
   -1.4233   -0.5982    0.0000 C   0  0  0  0  0  0  0  0  0  0  0  0
   -0.7219   -0.1856    0.0000 C   0  0  0  0  0  0  0  0  0  0  0  0
   -0.7219    0.6394    0.0000 C   0  0  0  0  0  0  0  0  0  0  0  0
   -1.4233    1.0519    0.0000 C   0  0  0  0  0  0  0  0  0  0  0  0
   -2.8672   -0.5569    0.0000 O   0  0  0  0  0  0  0  0  0  0  0  0
    0.0206    1.0519    0.0000 C   0  0  0  0  0  0  0  0  0  0  0  0
    0.7219    0.6394    0.0000 C   0  0  0  0  0  0  0  0  0  0  0  0
   -0.7219    1.4645    0.0000 C   0  0  0  0  0  0  0  0  0  0  0  0
    0.7219    1.4645    0.0000 C   0  0  0  0  0  0  0  0  0  0  0  0
    0.7219   -0.1856    0.0000 C   0  0  0  0  0  0  0  0  0  0  0  0
    1.4233   -0.5982    0.0000 C   0  0  0  0  0  0  0  0  0  0  0  0
    2.1658   -0.1856    0.0000 C   0  0  0  0  0  0  0  0  0  0  0  0
    2.1658    0.6394    0.0000 C   0  0  0  0  0  0  0  0  0  0  0  0
    1.4233    1.0519    0.0000 C   0  0  0  0  0  0  0  0  0  0  0  0
    2.8671   -0.5982    0.0000 O   0  0  0  0  0  0  0  0  0  0  0  0
   -3.5686   -0.1443    0.0000 C   0  0  0  0  0  0  0  0  0  0  0  0
    3.5686   -0.1856    0.0000 C   0  0  0  0  0  0  0  0  0  0  0  0
   -4.2864   -0.5510    0.0000 C   0  0  3  0  0  0  0  0  0  0  0  0
    4.2864   -0.5923    0.0000 C   0  0  3  0  0  0  0  0  0  0  0  0
   -5.0950   -0.5569    0.0000 C   0  0  0  0  0  0  0  0  0  0  0  0
   -4.6411   -1.3820    0.0000 O   0  0  0  0  0  0  0  0  0  0  0  0
    4.6824   -1.4645    0.0000 O   0  0  0  0  0  0  0  0  0  0  0  0
    5.0950   -0.5982    0.0000 C   0  0  0  0  0  0  0  0  0  0  0  0
   -3.0204    1.1518    0.0000 H   0  0  0  0  0  0  0  0  0  0  0  0
   -1.4233   -1.6302    0.0000 H   0  0  0  0  0  0  0  0  0  0  0  0
    0.1739   -0.6980    0.0000 H   0  0  0  0  0  0  0  0  0  0  0  0
   -1.4233    2.0839    0.0000 H   0  0  0  0  0  0  0  0  0  0  0  0
   -0.7394    2.5344    0.0000 H   0  0  0  0  0  0  0  0  0  0  0  0
   -1.6397    0.9144    0.0000 H   0  0  0  0  0  0  0  0  0  0  0  0
   -1.6572    1.9842    0.0000 H   0  0  0  0  0  0  0  0  0  0  0  0
    1.6529    0.9371    0.0000 H   0  0  0  0  0  0  0  0  0  0  0  0
    0.7131    2.5345    0.0000 H   0  0  0  0  0  0  0  0  0  0  0  0
    1.6441    2.0071    0.0000 H   0  0  0  0  0  0  0  0  0  0  0  0
   -0.1739   -0.6980    0.0000 H   0  0  0  0  0  0  0  0  0  0  0  0
    1.4106   -1.6301    0.0000 H   0  0  0  0  0  0  0  0  0  0  0  0
    3.0553    1.1628    0.0000 H   0  0  0  0  0  0  0  0  0  0  0  0
    1.4106    2.0838    0.0000 H   0  0  0  0  0  0  0  0  0  0  0  0
   -3.5599    0.9257    0.0000 H   0  0  0  0  0  0  0  0  0  0  0  0
   -4.4909    0.3982    0.0000 H   0  0  0  0  0  0  0  0  0  0  0  0
    3.5599    0.8844    0.0000 H   0  0  0  0  0  0  0  0  0  0  0  0
    4.4909    0.3569    0.0000 H   0  0  0  0  0  0  0  0  0  0  0  0
   -4.5629    0.4827    0.0000 H   0  0  0  0  0  0  0  0  0  0  0  0
    3.4968   -1.3144    0.0000 H   0  0  0  0  0  0  0  0  0  0  0  0
   -6.0180   -0.0157    0.0000 H   0  0  0  0  0  0  0  0  0  0  0  0
   -5.8619   -1.3031    0.0000 H   0  0  0  0  0  0  0  0  0  0  0  0
    6.0018   -0.0303    0.0000 H   0  0  0  0  0  0  0  0  0  0  0  0
    5.8938   -1.3101    0.0000 H   0  0  0  0  0  0  0  0  0  0  0  0
  1  2  2  0  0  0  0
  1 26  1  0  0  0  0
  2  3  1  0  0  0  0
  2  7  1  0  0  0  0
  3  4  2  0  0  0  0
  3 27  1  0  0  0  0
  4  5  1  0  0  0  0
  4 28  1  0  0  0  0
  5  6  2  0  0  0  0
  5  8  1  0  0  0  0
  6  1  1  0  0  0  0
  6 29  1  0  0  0  0
  7 18  1  0  0  0  0
  8  9  1  0  0  0  0
  8 10  1  0  0  0  0
  8 11  1  0  0  0  0
  9 12  2  0  0  0  0
 10 30  1  0  0  0  0
 10 31  1  0  0  0  0
 10 32  1  0  0  0  0
 11 33  1  0  0  0  0
 11 34  1  0  0  0  0
 11 35  1  0  0  0  0
 12 13  1  0  0  0  0
 12 36  1  0  0  0  0
 13 14  2  0  0  0  0
 13 37  1  0  0  0  0
 14 15  1  0  0  0  0
 14 17  1  0  0  0  0
 15 16  2  0  0  0  0
 15 38  1  0  0  0  0
 16  9  1  0  0  0  0
 16 39  1  0  0  0  0
 17 19  1  0  0  0  0
 18 20  1  0  0  0  0
 18 40  1  0  0  0  0
 18 41  1  0  0  0  0
 19 21  1  0  0  0  0
 19 42  1  0  0  0  0
 19 43  1  0  0  0  0
 20 22  1  0  0  0  0
 20 23  1  0  0  0  0
 20 44  1  0  0  0  0
 21 24  1  0  0  0  0
 21 25  1  0  0  0  0
 21 45  1  0  0  0  0
 22 46  1  0  0  0  0
 22 47  1  0  0  0  0
 23 22  1  0  0  0  0
 25 24  1  0  0  0  0
 25 48  1  0  0  0  0
 25 49  1  0  0  0  0
M  END
>  <DRUGBANK_ID>
DB14083

>  <COMMON_NAME>
Bisphenol A diglycidyl ether

>  <CAS_NUMBER>
1675-54-3

>  <UNII>
F3XRM1NX4H

>  <SYNONYMS>
2,2-Bis(4-glycidyloxyphenyl)propane; 2,2-bis(4'-glycidyloxyphenyl)propane; 4,4'-isopropylidenediphenol diglycidyl ether; Bisphenol diglycidyl ether; DGEBPA; Diglycidyl bisphenol A ether

$$$$
