
 OpenBabel10282417072D

158162  0  0  1  0  0  0  0  0999 V2000
   -1.4655   -1.8948    0.0000 O   0  0  0  0  0  0  0  0  0  0  0  0
   -0.6403   -1.8948    0.0000 S   0  0  0  0  0  0  0  0  0  0  0  0
    0.1846   -1.8948    0.0000 O   0  0  0  0  0  0  0  0  0  0  0  0
   -0.6403   -2.7246    0.0000 O   0  0  0  0  0  0  0  0  0  0  0  0
   -0.6403   -1.0697    0.0000 O   0  0  0  0  0  0  0  0  0  0  0  0
   -0.2278   -0.3550    0.0000 C   0  0  1  0  0  0  0  0  0  0  0  0
   -0.6355    0.3502    0.0000 C   0  0  2  0  0  0  0  0  0  0  0  0
   -1.4559    0.3502    0.0000 O   0  0  0  0  0  0  0  0  0  0  0  0
   -2.6360    0.3502    0.0000 C   0  0  1  0  0  0  0  0  0  0  0  0
   -2.0555   -0.2303    0.0000 H   0  0  0  0  0  0  0  0  0  0  0  0
   -3.0580   -0.3550    0.0000 C   0  0  2  0  0  0  0  0  0  0  0  0
   -2.6551   -1.0888    0.0000 O   0  0  0  0  0  0  0  0  0  0  0  0
   -2.6551   -1.9092    0.0000 C   0  0  0  0  0  0  0  0  0  0  0  0
   -3.8927   -0.3550    0.0000 C   0  0  1  0  0  0  0  0  0  0  0  0
   -4.3101   -1.0697    0.0000 O   0  0  0  0  0  0  0  0  0  0  0  0
   -4.3101   -1.8948    0.0000 C   0  0  0  0  0  0  0  0  0  0  0  0
   -4.2908    0.3647    0.0000 C   0  0  2  0  0  0  0  0  0  0  0  0
   -5.1207    0.3647    0.0000 O   0  0  0  0  0  0  0  0  0  0  0  0
   -5.9410    0.3647    0.0000 C   0  0  1  0  0  0  0  0  0  0  0  0
   -5.3606   -0.2206    0.0000 H   0  0  0  0  0  0  0  0  0  0  0  0
   -6.3536    1.0746    0.0000 O   0  0  0  0  0  0  0  0  0  0  0  0
   -7.1738    1.0746    0.0000 C   0  0  2  0  0  0  0  0  0  0  0  0
   -7.5960    1.7796    0.0000 C   0  0  0  0  0  0  0  0  0  0  0  0
   -7.5960    2.6094    0.0000 O   0  0  0  0  0  0  0  0  0  0  0  0
   -7.5960    3.4346    0.0000 S   0  0  0  0  0  0  0  0  0  0  0  0
   -8.4258    3.4346    0.0000 O   0  0  0  0  0  0  0  0  0  0  0  0
   -6.7709    3.4346    0.0000 O   0  0  0  0  0  0  0  0  0  0  0  0
   -7.5960    4.2644    0.0000 O   0  0  0  0  0  0  0  0  0  0  0  0
   -7.5816    0.3598    0.0000 C   0  0  1  0  0  0  0  0  0  0  0  0
   -8.3970    0.3598    0.0000 O   0  0  0  0  0  0  0  0  0  0  0  0
   -8.8144   -0.3550    0.0000 C   0  0  0  0  0  0  0  0  0  0  0  0
   -7.1738   -0.3501    0.0000 C   0  0  2  0  0  0  0  0  0  0  0  0
   -7.5816   -1.0601    0.0000 O   0  0  0  0  0  0  0  0  0  0  0  0
   -7.5816   -1.8852    0.0000 C   0  0  0  0  0  0  0  0  0  0  0  0
   -6.3488   -0.3501    0.0000 C   0  0  1  0  0  0  0  0  0  0  0  0
   -5.9362   -1.0553    0.0000 O   0  0  0  0  0  0  0  0  0  0  0  0
   -5.9362   -1.8804    0.0000 C   0  0  0  0  0  0  0  0  0  0  0  0
   -3.8687    1.0794    0.0000 C   0  0  1  0  0  0  0  0  0  0  0  0
   -4.2812    1.7988    0.0000 C   0  0  0  0  0  0  0  0  0  0  0  0
   -5.1112    1.7988    0.0000 O   0  0  0  0  0  0  0  0  0  0  0  0
   -3.8687    2.5231    0.0000 O   0  0  0  0  0  0  0  0  0  0  0  0
   -3.0436    1.0794    0.0000 O   0  0  0  0  0  0  0  0  0  0  0  0
   -0.2278    1.0602    0.0000 C   0  0  1  0  0  0  0  0  0  0  0  0
   -0.6499    1.7652    0.0000 C   0  0  0  0  0  0  0  0  0  0  0  0
   -0.6499    2.5999    0.0000 O   0  0  0  0  0  0  0  0  0  0  0  0
   -0.6499    3.4249    0.0000 S   0  0  0  0  0  0  0  0  0  0  0  0
   -1.4750    3.4249    0.0000 O   0  0  0  0  0  0  0  0  0  0  0  0
    0.1798    3.4249    0.0000 O   0  0  0  0  0  0  0  0  0  0  0  0
   -0.6499    4.2500    0.0000 O   0  0  0  0  0  0  0  0  0  0  0  0
    0.5923    1.0602    0.0000 O   0  0  0  0  0  0  0  0  0  0  0  0
    1.0050    0.3550    0.0000 C   0  0  2  0  0  0  0  0  0  0  0  0
    1.5901   -0.2303    0.0000 H   0  0  0  0  0  0  0  0  0  0  0  0
    1.8203    0.3550    0.0000 O   0  0  0  0  0  0  0  0  0  0  0  0
    2.6407    0.3550    0.0000 C   0  0  1  0  0  0  0  0  0  0  0  0
    3.0436   -0.3550    0.0000 C   0  0  2  0  0  0  0  0  0  0  0  0
    2.6358   -1.0648    0.0000 O   0  0  0  0  0  0  0  0  0  0  0  0
    2.6358   -1.8948    0.0000 C   0  0  0  0  0  0  0  0  0  0  0  0
    3.8686   -0.3550    0.0000 C   0  0  1  0  0  0  0  0  0  0  0  0
    4.2717   -1.0648    0.0000 O   0  0  0  0  0  0  0  0  0  0  0  0
    4.2717   -1.8948    0.0000 C   0  0  0  0  0  0  0  0  0  0  0  0
    4.2812    0.3550    0.0000 C   0  0  2  0  0  0  0  0  0  0  0  0
    4.8617   -0.2303    0.0000 H   0  0  0  0  0  0  0  0  0  0  0  0
    5.0967    0.3550    0.0000 O   0  0  0  0  0  0  0  0  0  0  0  0
    5.9266    0.3550    0.0000 C   0  0  2  0  0  0  0  0  0  0  0  0
    6.3438    1.0650    0.0000 C   0  0  1  0  0  0  0  0  0  0  0  0
    5.9266    1.7892    0.0000 C   0  0  0  0  0  0  0  0  0  0  0  0
    5.9266    2.6143    0.0000 O   0  0  0  0  0  0  0  0  0  0  0  0
    5.9266    3.4394    0.0000 S   0  0  0  0  0  0  0  0  0  0  0  0
    5.0967    3.4394    0.0000 O   0  0  0  0  0  0  0  0  0  0  0  0
    6.7516    3.4394    0.0000 O   0  0  0  0  0  0  0  0  0  0  0  0
    5.9266    4.2692    0.0000 O   0  0  0  0  0  0  0  0  0  0  0  0
    7.1738    1.0650    0.0000 O   0  0  0  0  0  0  0  0  0  0  0  0
    7.5863    0.3406    0.0000 C   0  0  2  0  0  0  0  0  0  0  0  0
    8.4114    0.3406    0.0000 O   0  0  0  0  0  0  0  0  0  0  0  0
    8.8144    1.0602    0.0000 C   0  0  0  0  0  0  0  0  0  0  0  0
    7.1642   -0.3741    0.0000 C   0  0  2  0  0  0  0  0  0  0  0  0
    7.5767   -1.0937    0.0000 O   0  0  0  0  0  0  0  0  0  0  0  0
    7.5767   -1.9236    0.0000 S   0  0  0  0  0  0  0  0  0  0  0  0
    8.4019   -1.9236    0.0000 O   0  0  0  0  0  0  0  0  0  0  0  0
    6.7516   -1.9236    0.0000 O   0  0  0  0  0  0  0  0  0  0  0  0
    7.5767   -2.7487    0.0000 O   0  0  0  0  0  0  0  0  0  0  0  0
    6.3343   -0.3741    0.0000 C   0  0  1  0  0  0  0  0  0  0  0  0
    5.9074   -1.0841    0.0000 O   0  0  0  0  0  0  0  0  0  0  0  0
    5.9074   -3.4441    0.0000 S   0  0  0  0  0  0  0  0  0  0  0  0
    5.0823   -3.4441    0.0000 O   0  0  0  0  0  0  0  0  0  0  0  0
    6.7324   -3.4441    0.0000 O   0  0  0  0  0  0  0  0  0  0  0  0
    5.9074   -4.2692    0.0000 O   0  0  0  0  0  0  0  0  0  0  0  0
    3.8686    1.0650    0.0000 O   0  0  0  0  0  0  0  0  0  0  0  0
    3.0483    1.0650    0.0000 C   0  0  1  0  0  0  0  0  0  0  0  0
    2.6455    1.7748    0.0000 C   0  0  0  0  0  0  0  0  0  0  0  0
    1.8156    1.7748    0.0000 O   0  0  0  0  0  0  0  0  0  0  0  0
    3.0532    2.4992    0.0000 O   0  0  0  0  0  0  0  0  0  0  0  0
    0.5971   -0.3550    0.0000 C   0  0  2  0  0  0  0  0  0  0  0  0
    0.9906   -1.0648    0.0000 O   0  0  0  0  0  0  0  0  0  0  0  0
    0.9906   -3.4250    0.0000 S   0  0  0  0  0  0  0  0  0  0  0  0
    0.1654   -3.4250    0.0000 O   0  0  0  0  0  0  0  0  0  0  0  0
    1.8156   -3.4250    0.0000 O   0  0  0  0  0  0  0  0  0  0  0  0
    0.9906   -4.2500    0.0000 O   0  0  0  0  0  0  0  0  0  0  0  0
   -1.4803   -3.2096    0.0000 H   0  0  0  0  0  0  0  0  0  0  0  0
   -1.2978   -0.3554    0.0000 H   0  0  0  0  0  0  0  0  0  0  0  0
   -1.1702   -0.5766    0.0000 H   0  0  0  0  0  0  0  0  0  0  0  0
   -1.9882   -0.3749    0.0000 H   0  0  0  0  0  0  0  0  0  0  0  0
   -3.5817   -2.4442    0.0000 H   0  0  0  0  0  0  0  0  0  0  0  0
   -1.7285   -2.4442    0.0000 H   0  0  0  0  0  0  0  0  0  0  0  0
   -2.6551   -2.9792    0.0000 H   0  0  0  0  0  0  0  0  0  0  0  0
   -3.3600   -1.2830    0.0000 H   0  0  0  0  0  0  0  0  0  0  0  0
   -5.2367   -2.4298    0.0000 H   0  0  0  0  0  0  0  0  0  0  0  0
   -3.3835   -2.4298    0.0000 H   0  0  0  0  0  0  0  0  0  0  0  0
   -4.3101   -2.9648    0.0000 H   0  0  0  0  0  0  0  0  0  0  0  0
   -4.8343   -0.5570    0.0000 H   0  0  0  0  0  0  0  0  0  0  0  0
   -6.6462    2.0055    0.0000 H   0  0  0  0  0  0  0  0  0  0  0  0
   -8.6273    1.4944    0.0000 H   0  0  0  0  0  0  0  0  0  0  0  0
   -8.4475    2.4276    0.0000 H   0  0  0  0  0  0  0  0  0  0  0  0
   -6.7560    4.7494    0.0000 H   0  0  0  0  0  0  0  0  0  0  0  0
   -8.1190    1.2851    0.0000 H   0  0  0  0  0  0  0  0  0  0  0  0
   -9.8844   -0.3497    0.0000 H   0  0  0  0  0  0  0  0  0  0  0  0
   -8.2840   -1.2843    0.0000 H   0  0  0  0  0  0  0  0  0  0  0  0
   -9.3540   -1.2790    0.0000 H   0  0  0  0  0  0  0  0  0  0  0  0
   -8.2438   -0.3501    0.0000 H   0  0  0  0  0  0  0  0  0  0  0  0
   -8.5082   -2.4202    0.0000 H   0  0  0  0  0  0  0  0  0  0  0  0
   -6.6550   -2.4202    0.0000 H   0  0  0  0  0  0  0  0  0  0  0  0
   -7.5816   -2.9552    0.0000 H   0  0  0  0  0  0  0  0  0  0  0  0
   -6.8811   -1.2783    0.0000 H   0  0  0  0  0  0  0  0  0  0  0  0
   -6.8628   -2.4154    0.0000 H   0  0  0  0  0  0  0  0  0  0  0  0
   -5.0096   -2.4154    0.0000 H   0  0  0  0  0  0  0  0  0  0  0  0
   -5.9362   -2.9504    0.0000 H   0  0  0  0  0  0  0  0  0  0  0  0
   -4.9387    1.0863    0.0000 H   0  0  0  0  0  0  0  0  0  0  0  0
   -2.9317    2.5286    0.0000 H   0  0  0  0  0  0  0  0  0  0  0  0
   -1.2978    1.0504    0.0000 H   0  0  0  0  0  0  0  0  0  0  0  0
   -1.6812    1.4801    0.0000 H   0  0  0  0  0  0  0  0  0  0  0  0
   -1.5014    2.4132    0.0000 H   0  0  0  0  0  0  0  0  0  0  0  0
    0.1901    4.7350    0.0000 H   0  0  0  0  0  0  0  0  0  0  0  0
    2.1023   -0.5696    0.0000 H   0  0  0  0  0  0  0  0  0  0  0  0
    1.9736   -0.3522    0.0000 H   0  0  0  0  0  0  0  0  0  0  0  0
    1.7092   -2.4298    0.0000 H   0  0  0  0  0  0  0  0  0  0  0  0
    3.5624   -2.4298    0.0000 H   0  0  0  0  0  0  0  0  0  0  0  0
    2.6358   -2.9648    0.0000 H   0  0  0  0  0  0  0  0  0  0  0  0
    3.3303   -1.2797    0.0000 H   0  0  0  0  0  0  0  0  0  0  0  0
    3.3451   -2.4298    0.0000 H   0  0  0  0  0  0  0  0  0  0  0  0
    5.1983   -2.4298    0.0000 H   0  0  0  0  0  0  0  0  0  0  0  0
    4.2717   -2.9648    0.0000 H   0  0  0  0  0  0  0  0  0  0  0  0
    5.3952    1.2837    0.0000 H   0  0  0  0  0  0  0  0  0  0  0  0
    5.2738    1.0696    0.0000 H   0  0  0  0  0  0  0  0  0  0  0  0
    4.8929    1.5128    0.0000 H   0  0  0  0  0  0  0  0  0  0  0  0
    5.0779    2.4408    0.0000 H   0  0  0  0  0  0  0  0  0  0  0  0
    6.7666    4.7542    0.0000 H   0  0  0  0  0  0  0  0  0  0  0  0
    8.1241    1.2656    0.0000 H   0  0  0  0  0  0  0  0  0  0  0  0
    9.8843    1.0742    0.0000 H   0  0  0  0  0  0  0  0  0  0  0  0
    8.2673    1.9798    0.0000 H   0  0  0  0  0  0  0  0  0  0  0  0
    9.3372    1.9938    0.0000 H   0  0  0  0  0  0  0  0  0  0  0  0
    8.2342   -0.3810    0.0000 H   0  0  0  0  0  0  0  0  0  0  0  0
    6.7367   -3.2337    0.0000 H   0  0  0  0  0  0  0  0  0  0  0  0
    6.8611   -1.3055    0.0000 H   0  0  0  0  0  0  0  0  0  0  0  0
    5.0674   -4.7542    0.0000 H   0  0  0  0  0  0  0  0  0  0  0  0
    3.5867    1.9897    0.0000 H   0  0  0  0  0  0  0  0  0  0  0  0
    3.9901    2.5095    0.0000 H   0  0  0  0  0  0  0  0  0  0  0  0
    1.6671   -0.3632    0.0000 H   0  0  0  0  0  0  0  0  0  0  0  0
    0.1506   -4.7350    0.0000 H   0  0  0  0  0  0  0  0  0  0  0  0
  1  2  2  0  0  0  0
  2  5  1  0  0  0  0
  3  2  2  0  0  0  0
  4  2  1  0  0  0  0
  4 99  1  0  0  0  0
  6  5  1  0  0  0  0
  6100  1  6  0  0  0
  7  6  1  0  0  0  0
  7  8  1  0  0  0  0
  7101  1  1  0  0  0
  9  8  1  0  0  0  0
  9 10  1  6  0  0  0
 11  9  1  0  0  0  0
 11 12  1  0  0  0  0
 11102  1  1  0  0  0
 13 12  1  0  0  0  0
 13103  1  0  0  0  0
 13104  1  0  0  0  0
 13105  1  0  0  0  0
 14 11  1  0  0  0  0
 14 15  1  0  0  0  0
 14106  1  6  0  0  0
 16 15  1  0  0  0  0
 16107  1  0  0  0  0
 16108  1  0  0  0  0
 16109  1  0  0  0  0
 17 14  1  0  0  0  0
 17 18  1  0  0  0  0
 17110  1  1  0  0  0
 19 18  1  0  0  0  0
 19 20  1  1  0  0  0
 21 19  1  0  0  0  0
 22 21  1  0  0  0  0
 22 23  1  0  0  0  0
 22 29  1  0  0  0  0
 22111  1  6  0  0  0
 23112  1  0  0  0  0
 23113  1  0  0  0  0
 24 23  1  0  0  0  0
 25 24  1  0  0  0  0
 26 25  2  0  0  0  0
 27 25  2  0  0  0  0
 28 25  1  0  0  0  0
 28114  1  0  0  0  0
 29 30  1  0  0  0  0
 29 32  1  0  0  0  0
 29115  1  1  0  0  0
 31 30  1  0  0  0  0
 31116  1  0  0  0  0
 31117  1  0  0  0  0
 31118  1  0  0  0  0
 32 33  1  0  0  0  0
 32 35  1  0  0  0  0
 32119  1  6  0  0  0
 34 33  1  0  0  0  0
 34120  1  0  0  0  0
 34121  1  0  0  0  0
 34122  1  0  0  0  0
 35 36  1  0  0  0  0
 35 19  1  0  0  0  0
 35123  1  1  0  0  0
 37 36  1  0  0  0  0
 37124  1  0  0  0  0
 37125  1  0  0  0  0
 37126  1  0  0  0  0
 38 17  1  0  0  0  0
 38 39  1  0  0  0  0
 38 42  1  0  0  0  0
 38127  1  6  0  0  0
 40 39  2  0  0  0  0
 41 39  1  0  0  0  0
 41128  1  0  0  0  0
 42  9  1  0  0  0  0
 43  7  1  0  0  0  0
 43 44  1  0  0  0  0
 43129  1  6  0  0  0
 44130  1  0  0  0  0
 44131  1  0  0  0  0
 45 44  1  0  0  0  0
 46 45  1  0  0  0  0
 47 46  2  0  0  0  0
 48 46  2  0  0  0  0
 49 46  1  0  0  0  0
 49132  1  0  0  0  0
 50 43  1  0  0  0  0
 51 50  1  0  0  0  0
 51 52  1  1  0  0  0
 51 93  1  0  0  0  0
 53 51  1  0  0  0  0
 54 53  1  0  0  0  0
 54133  1  1  0  0  0
 55 54  1  0  0  0  0
 55 56  1  0  0  0  0
 55134  1  6  0  0  0
 57 56  1  0  0  0  0
 57135  1  0  0  0  0
 57136  1  0  0  0  0
 57137  1  0  0  0  0
 58 55  1  0  0  0  0
 58 59  1  0  0  0  0
 58 61  1  0  0  0  0
 58138  1  1  0  0  0
 60 59  1  0  0  0  0
 60139  1  0  0  0  0
 60140  1  0  0  0  0
 60141  1  0  0  0  0
 61 62  1  6  0  0  0
 61 88  1  0  0  0  0
 63 61  1  0  0  0  0
 64 63  1  0  0  0  0
 64142  1  1  0  0  0
 65 64  1  0  0  0  0
 65 66  1  0  0  0  0
 65143  1  6  0  0  0
 66144  1  0  0  0  0
 66145  1  0  0  0  0
 67 66  1  0  0  0  0
 68 67  1  0  0  0  0
 69 68  2  0  0  0  0
 70 68  2  0  0  0  0
 71 68  1  0  0  0  0
 71146  1  0  0  0  0
 72 65  1  0  0  0  0
 73 72  1  0  0  0  0
 73 74  1  0  0  0  0
 73147  1  1  0  0  0
 75 74  1  0  0  0  0
 75148  1  0  0  0  0
 75149  1  0  0  0  0
 75150  1  0  0  0  0
 76 73  1  0  0  0  0
 76 77  1  0  0  0  0
 76 82  1  0  0  0  0
 76151  1  1  0  0  0
 78 77  1  0  0  0  0
 79 78  2  0  0  0  0
 80 78  2  0  0  0  0
 81 78  1  0  0  0  0
 81152  1  0  0  0  0
 82 83  1  0  0  0  0
 82 64  1  0  0  0  0
 82153  1  6  0  0  0
 84 83  1  0  0  0  0
 85 84  2  0  0  0  0
 86 84  2  0  0  0  0
 87 84  1  0  0  0  0
 87154  1  0  0  0  0
 88 89  1  0  0  0  0
 89 90  1  0  0  0  0
 89 54  1  0  0  0  0
 89155  1  1  0  0  0
 91 90  2  0  0  0  0
 92 90  1  0  0  0  0
 92156  1  0  0  0  0
 93 94  1  0  0  0  0
 93  6  1  0  0  0  0
 93157  1  1  0  0  0
 95 94  1  0  0  0  0
 96 95  2  0  0  0  0
 97 95  2  0  0  0  0
 98 95  1  0  0  0  0
 98158  1  0  0  0  0
M  END
>  <DRUGBANK_ID>
DB06406

>  <COMMON_NAME>
Idraparinux

>  <CAS_NUMBER>
162610-17-5

>  <UNII>
6ADD3H8MFZ

$$$$
