
 OpenBabel10282417072D

 65 68  0  0  0  0  0  0  0  0999 V2000
    4.4814   -1.2214    0.0000 C   0  0  0  0  0  0  0  0  0  0  0  0
    3.6563   -1.2214    0.0000 C   0  0  0  0  0  0  0  0  0  0  0  0
    3.2461   -1.9320    0.0000 N   0  0  0  0  0  0  0  0  0  0  0  0
    3.6563   -2.6471    0.0000 C   0  0  0  0  0  0  0  0  0  0  0  0
    4.4814   -2.6471    0.0000 C   0  0  0  0  0  0  0  0  0  0  0  0
    4.8962   -1.9320    0.0000 O   0  0  0  0  0  0  0  0  0  0  0  0
    2.4203   -1.9300    0.0000 C   0  0  0  0  0  0  0  0  0  0  0  0
    2.0092   -1.2157    0.0000 C   0  0  0  0  0  0  0  0  0  0  0  0
    1.1870   -1.2157    0.0000 C   0  0  0  0  0  0  0  0  0  0  0  0
    0.7760   -1.9300    0.0000 N   0  0  0  0  0  0  0  0  0  0  0  0
   -0.0460   -1.9300    0.0000 S   0  0  0  0  0  0  0  0  0  0  0  0
   -0.4571   -1.2157    0.0000 C   0  0  0  0  0  0  0  0  0  0  0  0
   -4.8954    1.5102    0.0000 C   0  0  0  0  0  0  0  0  0  0  0  0
   -4.8962    0.6834    0.0000 C   0  0  0  0  0  0  0  0  0  0  0  0
   -4.1832    0.2692    0.0000 C   0  0  0  0  0  0  0  0  0  0  0  0
   -4.1844    1.9214    0.0000 C   0  0  0  0  0  0  0  0  0  0  0  0
   -3.4682    1.5126    0.0000 C   0  0  0  0  0  0  0  0  0  0  0  0
   -3.4702    0.6813    0.0000 C   0  0  0  0  0  0  0  0  0  0  0  0
   -2.0314    1.5092    0.0000 N   0  0  0  0  0  0  0  0  0  0  0  0
   -2.7511    1.9290    0.0000 C   0  0  0  0  0  0  0  0  0  0  0  0
   -2.0335    0.6777    0.0000 C   0  0  0  0  0  0  0  0  0  0  0  0
   -2.7504    0.2650    0.0000 C   0  0  0  0  0  0  0  0  0  0  0  0
   -2.5794   -0.5444    0.0000 C   0  0  0  0  0  0  0  0  0  0  0  0
   -1.4193    0.1233    0.0000 C   0  0  0  0  0  0  0  0  0  0  0  0
   -1.7596   -0.6296    0.0000 C   0  0  0  0  0  0  0  0  0  0  0  0
   -1.2778   -1.2986    0.0000 C   0  0  0  0  0  0  0  0  0  0  0  0
   -0.1180   -0.4583    0.0000 C   0  0  0  0  0  0  0  0  0  0  0  0
   -0.6018    0.2075    0.0000 C   0  0  0  0  0  0  0  0  0  0  0  0
   -2.7545    2.7550    0.0000 O   0  0  0  0  0  0  0  0  0  0  0  0
   -0.0490   -2.7550    0.0000 O   0  0  0  0  0  0  0  0  0  0  0  0
   -0.7632   -2.3410    0.0000 O   0  0  0  0  0  0  0  0  0  0  0  0
    1.7060    0.9883    0.0000 C   0  0  0  0  0  0  0  0  0  0  0  0
    2.5310    0.9883    0.0000 S   0  0  0  0  0  0  0  0  0  0  0  0
    2.5281    1.8133    0.0000 O   0  0  0  0  0  0  0  0  0  0  0  0
    2.5281    0.1632    0.0000 O   0  0  0  0  0  0  0  0  0  0  0  0
    3.3561    0.9883    0.0000 O   0  0  0  0  0  0  0  0  0  0  0  0
    5.0142   -0.2935    0.0000 H   0  0  0  0  0  0  0  0  0  0  0  0
    5.5514   -1.2176    0.0000 H   0  0  0  0  0  0  0  0  0  0  0  0
    3.1213   -0.2948    0.0000 H   0  0  0  0  0  0  0  0  0  0  0  0
    4.1913   -0.2947    0.0000 H   0  0  0  0  0  0  0  0  0  0  0  0
    3.1200   -3.5730    0.0000 H   0  0  0  0  0  0  0  0  0  0  0  0
    4.1907   -3.5741    0.0000 H   0  0  0  0  0  0  0  0  0  0  0  0
    5.0155   -3.5743    0.0000 H   0  0  0  0  0  0  0  0  0  0  0  0
    5.5514   -2.6487    0.0000 H   0  0  0  0  0  0  0  0  0  0  0  0
    1.8835   -2.8556    0.0000 H   0  0  0  0  0  0  0  0  0  0  0  0
    1.3503   -1.9283    0.0000 H   0  0  0  0  0  0  0  0  0  0  0  0
    2.5448   -0.2894    0.0000 H   0  0  0  0  0  0  0  0  0  0  0  0
    1.4745   -0.2889    0.0000 H   0  0  0  0  0  0  0  0  0  0  0  0
    0.6513   -0.2894    0.0000 H   0  0  0  0  0  0  0  0  0  0  0  0
    0.1170   -1.2169    0.0000 H   0  0  0  0  0  0  0  0  0  0  0  0
    1.2867   -2.8130    0.0000 H   0  0  0  0  0  0  0  0  0  0  0  0
   -5.7891    2.0263    0.0000 H   0  0  0  0  0  0  0  0  0  0  0  0
   -5.7909    0.1690    0.0000 H   0  0  0  0  0  0  0  0  0  0  0  0
   -4.1843   -0.7628    0.0000 H   0  0  0  0  0  0  0  0  0  0  0  0
   -4.1873    2.9534    0.0000 H   0  0  0  0  0  0  0  0  0  0  0  0
   -1.1771    1.9985    0.0000 H   0  0  0  0  0  0  0  0  0  0  0  0
   -3.2954   -1.3395    0.0000 H   0  0  0  0  0  0  0  0  0  0  0  0
   -2.1954   -1.5431    0.0000 H   0  0  0  0  0  0  0  0  0  0  0  0
   -1.7014   -2.2396    0.0000 H   0  0  0  0  0  0  0  0  0  0  0  0
    0.9085   -0.3515    0.0000 H   0  0  0  0  0  0  0  0  0  0  0  0
   -0.1811    1.1499    0.0000 H   0  0  0  0  0  0  0  0  0  0  0  0
    1.1710    1.9149    0.0000 H   0  0  0  0  0  0  0  0  0  0  0  0
    1.1710    0.0617    0.0000 H   0  0  0  0  0  0  0  0  0  0  0  0
    0.6360    0.9883    0.0000 H   0  0  0  0  0  0  0  0  0  0  0  0
    3.8411    0.1483    0.0000 H   0  0  0  0  0  0  0  0  0  0  0  0
  1  2  1  0  0  0  0
  1  6  1  0  0  0  0
  1 37  1  0  0  0  0
  1 38  1  0  0  0  0
  2  3  1  0  0  0  0
  2 39  1  0  0  0  0
  2 40  1  0  0  0  0
  3  4  1  0  0  0  0
  3  7  1  0  0  0  0
  4  5  1  0  0  0  0
  4 41  1  0  0  0  0
  4 42  1  0  0  0  0
  5  6  1  0  0  0  0
  5 43  1  0  0  0  0
  5 44  1  0  0  0  0
  7  8  1  0  0  0  0
  7 45  1  0  0  0  0
  7 46  1  0  0  0  0
  8  9  1  0  0  0  0
  8 47  1  0  0  0  0
  8 48  1  0  0  0  0
  9 10  1  0  0  0  0
  9 49  1  0  0  0  0
  9 50  1  0  0  0  0
 10 11  1  0  0  0  0
 10 51  1  0  0  0  0
 11 12  1  0  0  0  0
 11 30  2  0  0  0  0
 11 31  2  0  0  0  0
 12 27  1  0  0  0  0
 13 14  2  0  0  0  0
 13 52  1  0  0  0  0
 14 15  1  0  0  0  0
 14 53  1  0  0  0  0
 15 18  2  0  0  0  0
 15 54  1  0  0  0  0
 16 13  1  0  0  0  0
 16 55  1  0  0  0  0
 17 16  2  0  0  0  0
 17 18  1  0  0  0  0
 17 20  1  0  0  0  0
 18 22  1  0  0  0  0
 19 20  1  0  0  0  0
 19 56  1  0  0  0  0
 20 29  2  0  0  0  0
 21 19  1  0  0  0  0
 21 22  2  0  0  0  0
 22 23  1  0  0  0  0
 23 25  1  0  0  0  0
 23 57  1  0  0  0  0
 23 58  1  0  0  0  0
 24 21  1  0  0  0  0
 24 25  2  0  0  0  0
 25 26  1  0  0  0  0
 26 12  2  0  0  0  0
 26 59  1  0  0  0  0
 27 28  2  0  0  0  0
 27 60  1  0  0  0  0
 28 24  1  0  0  0  0
 28 61  1  0  0  0  0
 32 33  1  0  0  0  0
 32 62  1  0  0  0  0
 32 63  1  0  0  0  0
 32 64  1  0  0  0  0
 33 34  2  0  0  0  0
 33 35  2  0  0  0  0
 33 36  1  0  0  0  0
 36 65  1  0  0  0  0
M  END
>  <DRUGBANK_ID>
DB05549

>  <COMMON_NAME>
INO-1001

>  <CAS_NUMBER>
501364-91-6

>  <UNII>
55E08EN074

>  <SYNONYMS>
(9-(N-(3-Morpholinopropyl)-sulfonyl)-5,6-dihydro-5-oxo-11-H-indeno (1,2-C) isoquinoline methanesulfonic acid

$$$$
