
 OpenBabel10282417072D

 63 65  0  0  0  0  0  0  0  0999 V2000
    2.1434  -10.3125    0.0000 C   0  0  0  0  0  0  0  0  0  0  0  0
    2.8579   -9.9000    0.0000 O   0  0  0  0  0  0  0  0  0  0  0  0
    3.5724  -10.3125    0.0000 C   0  0  0  0  0  0  0  0  0  0  0  0
    4.2868   -9.9000    0.0000 C   0  0  0  0  0  0  0  0  0  0  0  0
    5.0013  -10.3125    0.0000 C   0  0  0  0  0  0  0  0  0  0  0  0
    5.0013  -11.1375    0.0000 O   0  0  0  0  0  0  0  0  0  0  0  0
    5.7158   -9.9000    0.0000 N   0  0  0  0  0  0  0  0  0  0  0  0
    6.4302  -10.3125    0.0000 C   0  0  1  0  0  0  0  0  0  0  0  0
    7.1447   -9.9000    0.0000 C   0  0  0  0  0  0  0  0  0  0  0  0
    7.8592  -10.3125    0.0000 C   0  0  0  0  0  0  0  0  0  0  0  0
    7.8592  -11.1375    0.0000 C   0  0  2  0  0  0  0  0  0  0  0  0
    8.5737  -11.5500    0.0000 C   0  0  0  0  0  0  0  0  0  0  0  0
    9.2881  -11.1375    0.0000 C   0  0  0  0  0  0  0  0  0  0  0  0
   10.0026  -11.5500    0.0000 N   0  0  0  0  0  0  0  0  0  0  0  0
   10.7171  -11.1375    0.0000 C   0  0  0  0  0  0  0  0  0  0  0  0
   11.4315  -11.5500    0.0000 C   0  0  0  0  0  0  0  0  0  0  0  0
   11.4315  -12.3750    0.0000 N   0  0  0  0  0  0  0  0  0  0  0  0
   10.7171  -12.7875    0.0000 C   0  0  0  0  0  0  0  0  0  0  0  0
   10.0026  -12.3750    0.0000 C   0  0  0  0  0  0  0  0  0  0  0  0
   12.1460  -12.7875    0.0000 C   0  0  0  0  0  0  0  0  0  0  0  0
   12.8605  -12.3750    0.0000 C   0  0  0  0  0  0  0  0  0  0  0  0
   13.5749  -12.7875    0.0000 C   0  0  0  0  0  0  0  0  0  0  0  0
   13.5749  -13.6125    0.0000 C   0  0  0  0  0  0  0  0  0  0  0  0
   12.8605  -14.0250    0.0000 C   0  0  0  0  0  0  0  0  0  0  0  0
   12.1460  -13.6125    0.0000 C   0  0  0  0  0  0  0  0  0  0  0  0
   12.8605  -14.8500    0.0000 C   0  0  0  0  0  0  0  0  0  0  0  0
   12.8605  -15.6750    0.0000 N   0  0  0  0  0  0  0  0  0  0  0  0
    7.1447  -11.5500    0.0000 C   0  0  0  0  0  0  0  0  0  0  0  0
    6.4302  -11.1375    0.0000 C   0  0  0  0  0  0  0  0  0  0  0  0
    1.2168   -9.7775    0.0000 H   0  0  0  0  0  0  0  0  0  0  0  0
    2.1434  -11.3825    0.0000 H   0  0  0  0  0  0  0  0  0  0  0  0
    1.2167  -10.8475    0.0000 H   0  0  0  0  0  0  0  0  0  0  0  0
    3.5724  -11.3825    0.0000 H   0  0  0  0  0  0  0  0  0  0  0  0
    4.4991  -10.8475    0.0000 H   0  0  0  0  0  0  0  0  0  0  0  0
    4.2868   -8.8300    0.0000 H   0  0  0  0  0  0  0  0  0  0  0  0
    5.2134   -9.3650    0.0000 H   0  0  0  0  0  0  0  0  0  0  0  0
    5.7158   -8.9155    0.0000 H   0  0  0  0  0  0  0  0  0  0  0  0
    6.4302   -9.2425    0.0000 H   0  0  0  0  0  0  0  0  0  0  0  0
    7.1447   -8.8300    0.0000 H   0  0  0  0  0  0  0  0  0  0  0  0
    8.0713   -9.3650    0.0000 H   0  0  0  0  0  0  0  0  0  0  0  0
    8.7858   -9.7775    0.0000 H   0  0  0  0  0  0  0  0  0  0  0  0
    8.7858  -10.8475    0.0000 H   0  0  0  0  0  0  0  0  0  0  0  0
    8.7858  -10.6025    0.0000 H   0  0  0  0  0  0  0  0  0  0  0  0
    8.5737  -12.6200    0.0000 H   0  0  0  0  0  0  0  0  0  0  0  0
    9.5004  -12.0850    0.0000 H   0  0  0  0  0  0  0  0  0  0  0  0
    9.2881  -10.0675    0.0000 H   0  0  0  0  0  0  0  0  0  0  0  0
   10.2147  -10.6025    0.0000 H   0  0  0  0  0  0  0  0  0  0  0  0
   10.7171  -10.0675    0.0000 H   0  0  0  0  0  0  0  0  0  0  0  0
   11.6438  -10.6025    0.0000 H   0  0  0  0  0  0  0  0  0  0  0  0
   12.3582  -11.0150    0.0000 H   0  0  0  0  0  0  0  0  0  0  0  0
   12.3581  -12.0850    0.0000 H   0  0  0  0  0  0  0  0  0  0  0  0
   10.7171  -13.8575    0.0000 H   0  0  0  0  0  0  0  0  0  0  0  0
    9.7905  -13.3225    0.0000 H   0  0  0  0  0  0  0  0  0  0  0  0
    9.0760  -12.9100    0.0000 H   0  0  0  0  0  0  0  0  0  0  0  0
    9.0760  -11.8400    0.0000 H   0  0  0  0  0  0  0  0  0  0  0  0
   12.8605  -11.3430    0.0000 H   0  0  0  0  0  0  0  0  0  0  0  0
   14.4686  -12.2715    0.0000 H   0  0  0  0  0  0  0  0  0  0  0  0
   14.4686  -14.1285    0.0000 H   0  0  0  0  0  0  0  0  0  0  0  0
   11.2523  -14.1285    0.0000 H   0  0  0  0  0  0  0  0  0  0  0  0
    7.1447  -12.6200    0.0000 H   0  0  0  0  0  0  0  0  0  0  0  0
    6.2181  -12.0850    0.0000 H   0  0  0  0  0  0  0  0  0  0  0  0
    5.5036  -11.6725    0.0000 H   0  0  0  0  0  0  0  0  0  0  0  0
    5.5036  -10.6025    0.0000 H   0  0  0  0  0  0  0  0  0  0  0  0
  1  2  1  0  0  0  0
  1 30  1  0  0  0  0
  1 31  1  0  0  0  0
  1 32  1  0  0  0  0
  2  3  1  0  0  0  0
  3  4  1  0  0  0  0
  3 33  1  0  0  0  0
  3 34  1  0  0  0  0
  4  5  1  0  0  0  0
  4 35  1  0  0  0  0
  4 36  1  0  0  0  0
  5  6  2  0  0  0  0
  5  7  1  0  0  0  0
  7 37  1  0  0  0  0
  8  7  1  0  0  0  0
  8  9  1  0  0  0  0
  8 29  1  0  0  0  0
  8 38  1  6  0  0  0
  9 10  1  0  0  0  0
  9 39  1  0  0  0  0
  9 40  1  0  0  0  0
 10 41  1  0  0  0  0
 10 42  1  0  0  0  0
 11 10  1  0  0  0  0
 11 12  1  0  0  0  0
 11 28  1  0  0  0  0
 11 43  1  1  0  0  0
 12 13  1  0  0  0  0
 12 44  1  0  0  0  0
 12 45  1  0  0  0  0
 13 14  1  0  0  0  0
 13 46  1  0  0  0  0
 13 47  1  0  0  0  0
 14 15  1  0  0  0  0
 14 19  1  0  0  0  0
 15 16  1  0  0  0  0
 15 48  1  0  0  0  0
 15 49  1  0  0  0  0
 16 17  1  0  0  0  0
 16 50  1  0  0  0  0
 16 51  1  0  0  0  0
 17 18  1  0  0  0  0
 17 20  1  0  0  0  0
 18 19  1  0  0  0  0
 18 52  1  0  0  0  0
 18 53  1  0  0  0  0
 19 54  1  0  0  0  0
 19 55  1  0  0  0  0
 20 21  2  0  0  0  0
 20 25  1  0  0  0  0
 21 22  1  0  0  0  0
 21 56  1  0  0  0  0
 22 23  2  0  0  0  0
 22 57  1  0  0  0  0
 23 24  1  0  0  0  0
 23 58  1  0  0  0  0
 24 25  2  0  0  0  0
 24 26  1  0  0  0  0
 25 59  1  0  0  0  0
 26 27  3  0  0  0  0
 28 29  1  0  0  0  0
 28 60  1  0  0  0  0
 28 61  1  0  0  0  0
 29 62  1  0  0  0  0
 29 63  1  0  0  0  0
M  END
>  <DRUGBANK_ID>
DB16302

>  <COMMON_NAME>
BP-14979

>  <CAS_NUMBER>
1000036-77-0

>  <UNII>
XN7HA74WB0

$$$$
