
 OpenBabel10282417072D

 48 51  0  0  0  0  0  0  0  0999 V2000
    0.7214   -0.1600    0.0000 C   0  0  0  0  0  0  0  0  0  0  0  0
    0.0003    0.2409    0.0000 C   0  0  0  0  0  0  0  0  0  0  0  0
    0.0003    1.0421    0.0000 C   0  0  0  0  0  0  0  0  0  0  0  0
    0.7214    1.4430    0.0000 C   0  0  0  0  0  0  0  0  0  0  0  0
    1.4430    1.0421    0.0000 C   0  0  0  0  0  0  0  0  0  0  0  0
    1.4430    0.2409    0.0000 C   0  0  0  0  0  0  0  0  0  0  0  0
    2.1647   -0.1600    0.0000 F   0  0  0  0  0  0  0  0  0  0  0  0
    1.4430    2.6458    0.0000 O   0  0  0  0  0  0  0  0  0  0  0  0
    0.7214    2.2449    0.0000 C   0  0  0  0  0  0  0  0  0  0  0  0
    0.0003    2.6458    0.0000 C   0  0  0  0  0  0  0  0  0  0  0  0
   -0.7214    2.2449    0.0000 C   0  0  0  0  0  0  0  0  0  0  0  0
   -0.7214    1.4430    0.0000 N   0  0  0  0  0  0  0  0  0  0  0  0
   -0.7214    3.8487    0.0000 O   0  0  0  0  0  0  0  0  0  0  0  0
    0.0003    3.4478    0.0000 C   0  0  0  0  0  0  0  0  0  0  0  0
    0.7214    3.8487    0.0000 O   0  0  0  0  0  0  0  0  0  0  0  0
    1.4430   -3.8487    0.0000 C   0  0  0  0  0  0  0  0  0  0  0  0
    0.7214   -3.4478    0.0000 C   0  0  0  0  0  0  0  0  0  0  0  0
   -1.3629    1.0421    0.0000 C   0  0  0  0  0  0  0  0  0  0  0  0
   -2.1647    1.0421    0.0000 C   0  0  0  0  0  0  0  0  0  0  0  0
   -1.7638    0.3211    0.0000 C   0  0  0  0  0  0  0  0  0  0  0  0
    1.4430   -1.4430    0.0000 C   0  0  0  0  0  0  0  0  0  0  0  0
    1.4430   -2.2449    0.0000 C   0  0  0  0  0  0  0  0  0  0  0  0
    0.7214   -2.6458    0.0000 N   0  0  0  0  0  0  0  0  0  0  0  0
    0.0003   -2.2449    0.0000 C   0  0  0  0  0  0  0  0  0  0  0  0
    0.0003   -1.4430    0.0000 C   0  0  0  0  0  0  0  0  0  0  0  0
    0.7214   -1.0421    0.0000 N   0  0  0  0  0  0  0  0  0  0  0  0
   -0.8892   -0.2823    0.0000 H   0  0  0  0  0  0  0  0  0  0  0  0
    2.3325    1.5655    0.0000 H   0  0  0  0  0  0  0  0  0  0  0  0
   -1.6108    2.7683    0.0000 H   0  0  0  0  0  0  0  0  0  0  0  0
    1.5252    3.3671    0.0000 H   0  0  0  0  0  0  0  0  0  0  0  0
    1.4606   -4.9186    0.0000 H   0  0  0  0  0  0  0  0  0  0  0  0
    2.3607   -3.2985    0.0000 H   0  0  0  0  0  0  0  0  0  0  0  0
    2.3783   -4.3683    0.0000 H   0  0  0  0  0  0  0  0  0  0  0  0
   -0.2008   -3.9904    0.0000 H   0  0  0  0  0  0  0  0  0  0  0  0
   -0.2074   -2.9166    0.0000 H   0  0  0  0  0  0  0  0  0  0  0  0
   -2.2852    0.4996    0.0000 H   0  0  0  0  0  0  0  0  0  0  0  0
   -3.0870    1.5846    0.0000 H   0  0  0  0  0  0  0  0  0  0  0  0
   -2.9304    0.2947    0.0000 H   0  0  0  0  0  0  0  0  0  0  0  0
   -1.7638   -0.7489    0.0000 H   0  0  0  0  0  0  0  0  0  0  0  0
   -2.7995    0.0525    0.0000 H   0  0  0  0  0  0  0  0  0  0  0  0
    2.3652   -0.9004    0.0000 H   0  0  0  0  0  0  0  0  0  0  0  0
    1.4298   -0.3731    0.0000 H   0  0  0  0  0  0  0  0  0  0  0  0
    2.3652   -2.7875    0.0000 H   0  0  0  0  0  0  0  0  0  0  0  0
    1.4298   -3.3148    0.0000 H   0  0  0  0  0  0  0  0  0  0  0  0
   -0.9220   -2.7874    0.0000 H   0  0  0  0  0  0  0  0  0  0  0  0
   -0.9285   -1.7137    0.0000 H   0  0  0  0  0  0  0  0  0  0  0  0
   -0.9220   -0.9005    0.0000 H   0  0  0  0  0  0  0  0  0  0  0  0
    0.0133   -0.3731    0.0000 H   0  0  0  0  0  0  0  0  0  0  0  0
  1  2  2  0  0  0  0
  1  6  1  0  0  0  0
  1 26  1  0  0  0  0
  2  3  1  0  0  0  0
  2 27  1  0  0  0  0
  3  4  2  0  0  0  0
  3 12  1  0  0  0  0
  4  5  1  0  0  0  0
  4  9  1  0  0  0  0
  5  6  2  0  0  0  0
  5 28  1  0  0  0  0
  6  7  1  0  0  0  0
  8  9  2  0  0  0  0
  9 10  1  0  0  0  0
 10 11  2  0  0  0  0
 10 14  1  0  0  0  0
 11 12  1  0  0  0  0
 11 29  1  0  0  0  0
 12 18  1  0  0  0  0
 13 14  2  0  0  0  0
 14 15  1  0  0  0  0
 15 30  1  0  0  0  0
 16 17  1  0  0  0  0
 16 31  1  0  0  0  0
 16 32  1  0  0  0  0
 16 33  1  0  0  0  0
 17 23  1  0  0  0  0
 17 34  1  0  0  0  0
 17 35  1  0  0  0  0
 18 19  1  0  0  0  0
 18 20  1  0  0  0  0
 18 36  1  0  0  0  0
 19 20  1  0  0  0  0
 19 37  1  0  0  0  0
 19 38  1  0  0  0  0
 20 39  1  0  0  0  0
 20 40  1  0  0  0  0
 21 22  1  0  0  0  0
 21 26  1  0  0  0  0
 21 41  1  0  0  0  0
 21 42  1  0  0  0  0
 22 23  1  0  0  0  0
 22 43  1  0  0  0  0
 22 44  1  0  0  0  0
 23 24  1  0  0  0  0
 24 25  1  0  0  0  0
 24 45  1  0  0  0  0
 24 46  1  0  0  0  0
 25 26  1  0  0  0  0
 25 47  1  0  0  0  0
 25 48  1  0  0  0  0
M  END
>  <DRUGBANK_ID>
DB11404

>  <COMMON_NAME>
Enrofloxacin

>  <CAS_NUMBER>
93106-60-6

>  <UNII>
3DX3XEK1BN

>  <SYNONYMS>
Enrofloxacin; Enrofloxacine; Enrofloxacino; Enrofloxacinum

$$$$
