
 OpenBabel10282417072D

 34 36  0  0  0  0  0  0  0  0999 V2000
    2.0548    1.1441    0.0000 Cl  0  0  0  0  0  0  0  0  0  0  0  0
    2.6596    1.7052    0.0000 C   0  0  0  0  0  0  0  0  0  0  0  0
    2.4760    2.5095    0.0000 C   0  0  0  0  0  0  0  0  0  0  0  0
    3.0808    3.0707    0.0000 C   0  0  0  0  0  0  0  0  0  0  0  0
    3.8691    2.8275    0.0000 C   0  0  0  0  0  0  0  0  0  0  0  0
    4.0527    2.0232    0.0000 C   0  0  0  0  0  0  0  0  0  0  0  0
    3.4479    1.4620    0.0000 C   0  0  0  0  0  0  0  0  0  0  0  0
    3.6315    0.6577    0.0000 C   0  0  0  0  0  0  0  0  0  0  0  0
    4.4358    0.4742    0.0000 N   0  0  0  0  0  0  0  0  0  0  0  0
    4.7938   -0.2691    0.0000 C   0  0  3  0  0  0  0  0  0  0  0  0
    5.6188   -0.2691    0.0000 O   0  0  0  0  0  0  0  0  0  0  0  0
    4.4358   -1.0124    0.0000 C   0  0  0  0  0  0  0  0  0  0  0  0
    4.9502   -1.6575    0.0000 O   0  0  0  0  0  0  0  0  0  0  0  0
    3.6315   -1.1960    0.0000 N   0  0  0  0  0  0  0  0  0  0  0  0
    2.9865   -0.6816    0.0000 C   0  0  0  0  0  0  0  0  0  0  0  0
    2.9865    0.1434    0.0000 C   0  0  0  0  0  0  0  0  0  0  0  0
    2.2720    0.5559    0.0000 C   0  0  0  0  0  0  0  0  0  0  0  0
    1.5575    0.1434    0.0000 C   0  0  0  0  0  0  0  0  0  0  0  0
    0.8431    0.5559    0.0000 Cl  0  0  0  0  0  0  0  0  0  0  0  0
    1.5575   -0.6816    0.0000 C   0  0  0  0  0  0  0  0  0  0  0  0
    2.2720   -1.0941    0.0000 C   0  0  0  0  0  0  0  0  0  0  0  0
    3.4479   -2.0003    0.0000 C   0  0  0  0  0  0  0  0  0  0  0  0
    1.4898    2.8137    0.0000 H   0  0  0  0  0  0  0  0  0  0  0  0
    2.8512    4.0768    0.0000 H   0  0  0  0  0  0  0  0  0  0  0  0
    4.6256    3.5294    0.0000 H   0  0  0  0  0  0  0  0  0  0  0  0
    5.0389    1.7190    0.0000 H   0  0  0  0  0  0  0  0  0  0  0  0
    5.3631    0.6369    0.0000 H   0  0  0  0  0  0  0  0  0  0  0  0
    6.1038   -1.1091    0.0000 H   0  0  0  0  0  0  0  0  0  0  0  0
    2.2720    1.5879    0.0000 H   0  0  0  0  0  0  0  0  0  0  0  0
    0.6638   -1.1976    0.0000 H   0  0  0  0  0  0  0  0  0  0  0  0
    2.2720   -2.1261    0.0000 H   0  0  0  0  0  0  0  0  0  0  0  0
    2.4254   -2.3157    0.0000 H   0  0  0  0  0  0  0  0  0  0  0  0
    4.2322   -2.7281    0.0000 H   0  0  0  0  0  0  0  0  0  0  0  0
    3.2098   -3.0435    0.0000 H   0  0  0  0  0  0  0  0  0  0  0  0
  1  2  1  0  0  0  0
  2  3  2  0  0  0  0
  2  7  1  0  0  0  0
  3  4  1  0  0  0  0
  3 23  1  0  0  0  0
  4  5  2  0  0  0  0
  4 24  1  0  0  0  0
  5  6  1  0  0  0  0
  5 25  1  0  0  0  0
  6  7  2  0  0  0  0
  6 26  1  0  0  0  0
  7  8  1  0  0  0  0
  8  9  2  0  0  0  0
  8 16  1  0  0  0  0
  9 10  1  0  0  0  0
 10 11  1  0  0  0  0
 10 12  1  0  0  0  0
 10 27  1  0  0  0  0
 11 28  1  0  0  0  0
 12 13  2  0  0  0  0
 12 14  1  0  0  0  0
 14 15  1  0  0  0  0
 14 22  1  0  0  0  0
 15 16  2  0  0  0  0
 15 21  1  0  0  0  0
 16 17  1  0  0  0  0
 17 18  2  0  0  0  0
 17 29  1  0  0  0  0
 18 19  1  0  0  0  0
 18 20  1  0  0  0  0
 20 21  2  0  0  0  0
 20 30  1  0  0  0  0
 21 31  1  0  0  0  0
 22 32  1  0  0  0  0
 22 33  1  0  0  0  0
 22 34  1  0  0  0  0
M  END
>  <DRUGBANK_ID>
DB13872

>  <COMMON_NAME>
Lormetazepam

>  <CAS_NUMBER>
848-75-9

>  <UNII>
GU56C842ZA

>  <SYNONYMS>
(Â±)-Lormetazepam; (RS)-Lormetazepam; 7-Chloro-1,3-dihydro-5-(o-chlorophenyl)-3-hydroxy-1-methyl-2H-1,4-benzodiazepin-2-one; 7-Chloro-5-(2-chlorophenyl)-1,3-dihydro-3-hydroxy-1-methyl-2H-1,4-benzodiazepin-2-one; Lormetazepam; Methyllorazepam; N-Methyllorazepam

$$$$
