
 OpenBabel10282417072D

 52 56  0  0  0  0  0  0  0  0999 V2000
    1.5662   -2.8960    0.0000 C   0  0  0  0  0  0  0  0  0  0  0  0
    1.5663   -3.7210    0.0000 C   0  0  0  0  0  0  0  0  0  0  0  0
    0.8518   -4.1335    0.0000 C   0  0  0  0  0  0  0  0  0  0  0  0
    0.1373   -3.7210    0.0000 C   0  0  0  0  0  0  0  0  0  0  0  0
    0.1373   -2.8960    0.0000 C   0  0  0  0  0  0  0  0  0  0  0  0
    0.8517   -2.4835    0.0000 C   0  0  0  0  0  0  0  0  0  0  0  0
    0.8517   -1.6585    0.0000 C   0  0  3  0  0  0  0  0  0  0  0  0
    0.1163   -2.0322    0.0000 C   0  0  0  0  0  0  0  0  0  0  0  0
    0.5657   -1.2419    0.0000 C   0  0  3  0  0  0  0  0  0  0  0  0
    0.5657   -0.4945    0.0000 C   0  0  0  0  0  0  0  0  0  0  0  0
    1.3012   -0.1208    0.0000 C   0  0  3  0  0  0  0  0  0  0  0  0
    0.8517   -0.9111    0.0000 C   0  0  0  0  0  0  0  0  0  0  0  0
    2.0368   -0.4945    0.0000 C   0  0  0  0  0  0  0  0  0  0  0  0
    2.0368   -1.2419    0.0000 C   0  0  3  0  0  0  0  0  0  0  0  0
    1.3012   -1.6156    0.0000 C   0  0  0  0  0  0  0  0  0  0  0  0
    1.5873   -2.0322    0.0000 C   0  0  0  0  0  0  0  0  0  0  0  0
    2.8344   -1.4529    0.0000 C   0  0  0  0  0  0  0  0  0  0  0  0
    3.4159   -0.8676    0.0000 O   0  0  0  0  0  0  0  0  0  0  0  0
    3.0505   -2.2490    0.0000 N   0  0  0  0  0  0  0  0  0  0  0  0
    3.8480   -2.4600    0.0000 C   0  0  0  0  0  0  0  0  0  0  0  0
    4.0641   -3.2562    0.0000 C   0  0  0  0  0  0  0  0  0  0  0  0
    4.8617   -3.4671    0.0000 C   0  0  0  0  0  0  0  0  0  0  0  0
    5.0778   -4.2633    0.0000 C   0  0  0  0  0  0  0  0  0  0  0  0
    4.4963   -4.8486    0.0000 N   0  0  0  0  0  0  0  0  0  0  0  0
    3.6988   -4.6376    0.0000 C   0  0  0  0  0  0  0  0  0  0  0  0
    3.4827   -3.8414    0.0000 C   0  0  0  0  0  0  0  0  0  0  0  0
    0.8519   -4.9585    0.0000 Cl  0  0  0  0  0  0  0  0  0  0  0  0
    2.4599   -2.3799    0.0000 H   0  0  0  0  0  0  0  0  0  0  0  0
    2.4601   -4.2370    0.0000 H   0  0  0  0  0  0  0  0  0  0  0  0
   -0.7564   -4.2370    0.0000 H   0  0  0  0  0  0  0  0  0  0  0  0
   -0.7564   -2.3800    0.0000 H   0  0  0  0  0  0  0  0  0  0  0  0
   -0.6578   -2.7709    0.0000 H   0  0  0  0  0  0  0  0  0  0  0  0
   -0.7271   -1.3737    0.0000 H   0  0  0  0  0  0  0  0  0  0  0  0
    0.8735   -2.2667    0.0000 H   0  0  0  0  0  0  0  0  0  0  0  0
   -0.3463    0.0651    0.0000 H   0  0  0  0  0  0  0  0  0  0  0  0
   -0.3680   -1.0171    0.0000 H   0  0  0  0  0  0  0  0  0  0  0  0
    0.5270   -0.8594    0.0000 H   0  0  0  0  0  0  0  0  0  0  0  0
   -0.1827   -0.6375    0.0000 H   0  0  0  0  0  0  0  0  0  0  0  0
    0.0039   -1.5638    0.0000 H   0  0  0  0  0  0  0  0  0  0  0  0
    2.9488    0.0651    0.0000 H   0  0  0  0  0  0  0  0  0  0  0  0
    2.9705   -1.0170    0.0000 H   0  0  0  0  0  0  0  0  0  0  0  0
    1.3012   -2.6856    0.0000 H   0  0  0  0  0  0  0  0  0  0  0  0
    2.2132   -2.1752    0.0000 H   0  0  0  0  0  0  0  0  0  0  0  0
    1.8951   -3.0570    0.0000 H   0  0  0  0  0  0  0  0  0  0  0  0
    2.6505   -2.1525    0.0000 H   0  0  0  0  0  0  0  0  0  0  0  0
    2.3566   -2.9474    0.0000 H   0  0  0  0  0  0  0  0  0  0  0  0
    4.6022   -1.7010    0.0000 H   0  0  0  0  0  0  0  0  0  0  0  0
    4.8824   -2.7336    0.0000 H   0  0  0  0  0  0  0  0  0  0  0  0
    5.5890   -2.7350    0.0000 H   0  0  0  0  0  0  0  0  0  0  0  0
    6.0755   -4.5272    0.0000 H   0  0  0  0  0  0  0  0  0  0  0  0
    2.9714   -5.3697    0.0000 H   0  0  0  0  0  0  0  0  0  0  0  0
    2.4850   -3.5775    0.0000 H   0  0  0  0  0  0  0  0  0  0  0  0
  1  2  2  0  0  0  0
  1  6  1  0  0  0  0
  1 28  1  0  0  0  0
  2  3  1  0  0  0  0
  2 29  1  0  0  0  0
  3  4  2  0  0  0  0
  3 27  1  0  0  0  0
  4  5  1  0  0  0  0
  4 30  1  0  0  0  0
  5  6  2  0  0  0  0
  5 31  1  0  0  0  0
  6  7  1  0  0  0  0
  7  8  1  0  0  0  0
  7 16  1  0  0  0  0
  7 12  1  0  0  0  0
  8  9  1  0  0  0  0
  8 32  1  0  0  0  0
  8 33  1  0  0  0  0
  9 15  1  0  0  0  0
  9 10  1  0  0  0  0
  9 34  1  0  0  0  0
 10 11  1  0  0  0  0
 10 35  1  0  0  0  0
 10 36  1  0  0  0  0
 11 12  1  0  0  0  0
 11 13  1  0  0  0  0
 11 37  1  0  0  0  0
 12 38  1  0  0  0  0
 12 39  1  0  0  0  0
 13 14  1  0  0  0  0
 13 40  1  0  0  0  0
 13 41  1  0  0  0  0
 14 16  1  0  0  0  0
 14 15  1  0  0  0  0
 14 17  1  0  0  0  0
 15 42  1  0  0  0  0
 15 43  1  0  0  0  0
 16 44  1  0  0  0  0
 16 45  1  0  0  0  0
 17 18  2  0  0  0  0
 17 19  1  0  0  0  0
 19 20  1  0  0  0  0
 19 46  1  0  0  0  0
 20 21  1  0  0  0  0
 20 47  1  0  0  0  0
 20 48  1  0  0  0  0
 21 22  2  0  0  0  0
 21 26  1  0  0  0  0
 22 23  1  0  0  0  0
 22 49  1  0  0  0  0
 23 24  2  0  0  0  0
 23 50  1  0  0  0  0
 24 25  1  0  0  0  0
 25 26  2  0  0  0  0
 25 51  1  0  0  0  0
 26 52  1  0  0  0  0
M  END
>  <DRUGBANK_ID>
DB12764

>  <COMMON_NAME>
Opaganib

>  <CAS_NUMBER>
915385-81-8

>  <UNII>
DRG21OQ517

>  <SYNONYMS>
4-Pyridinylmethyl 3(4-Chlorophenyl)Adamantine Carboxamide; 4-Pyridinylmethyl-3-(4-Chlorophenyl) Adamantine Carboxamide; ABC-294640; ABC294640; Opaganib; Yeliva

$$$$
