
 OpenBabel10282417072D

110116  0  0  0  0  0  0  0  0999 V2000
   -0.7058   -4.8248    0.0000 O   0  0  0  0  0  0  0  0  0  0  0  0
   -2.0336   -4.8248    0.0000 O   0  0  0  0  0  0  0  0  0  0  0  0
    0.2802   -1.9007    0.0000 O   0  0  0  0  0  0  0  0  0  0  0  0
   -0.5447    0.9570    0.0000 O   0  0  0  0  0  0  0  0  0  0  0  0
    0.6926    0.2425    0.0000 O   0  0  0  0  0  0  0  0  0  0  0  0
   -3.2450    2.4052    0.0000 O   0  0  0  0  0  0  0  0  0  0  0  0
   -3.2450   -0.4908    0.0000 O   0  0  0  0  0  0  0  0  0  0  0  0
    1.5177    3.1005    0.0000 O   0  0  0  0  0  0  0  0  0  0  0  0
    3.9928    1.6715    0.0000 O   0  0  0  0  0  0  0  0  0  0  0  0
    3.1676    3.1005    0.0000 O   0  0  0  0  0  0  0  0  0  0  0  0
   -0.5447   -0.4717    0.0000 N   0  0  0  0  0  0  0  0  0  0  0  0
    1.9301   -0.4717    0.0000 N   0  0  0  0  0  0  0  0  0  0  0  0
   -3.0197    0.9570    0.0000 N   0  0  0  0  0  0  0  0  0  0  0  0
   -0.9572   -2.6152    0.0000 C   0  0  1  0  0  0  0  0  0  0  0  0
   -0.9572   -4.0442    0.0000 C   0  0  3  0  0  0  0  0  0  0  0  0
   -1.7822   -4.0442    0.0000 C   0  0  3  0  0  0  0  0  0  0  0  0
   -0.5447   -3.3296    0.0000 C   0  0  0  0  0  0  0  0  0  0  0  0
   -1.7822   -2.6152    0.0000 C   0  0  0  0  0  0  0  0  0  0  0  0
   -2.1948   -3.3296    0.0000 C   0  0  0  0  0  0  0  0  0  0  0  0
   -0.5447   -1.9007    0.0000 C   0  0  0  0  0  0  0  0  0  0  0  0
   -0.9572   -1.1863    0.0000 C   0  0  0  0  0  0  0  0  0  0  0  0
   -1.3696   -5.3063    0.0000 C   0  0  0  0  0  0  0  0  0  0  0  0
    0.2802   -0.4717    0.0000 C   0  0  0  0  0  0  0  0  0  0  0  0
    0.6926   -1.1863    0.0000 C   0  0  1  0  0  0  0  0  0  0  0  0
   -0.9572    0.2425    0.0000 C   0  0  0  0  0  0  0  0  0  0  0  0
    1.5177   -1.1863    0.0000 C   0  0  2  0  0  0  0  0  0  0  0  0
   -1.7822    0.2425    0.0000 C   0  0  0  0  0  0  0  0  0  0  0  0
    1.9301   -1.9007    0.0000 C   0  0  0  0  0  0  0  0  0  0  0  0
   -2.1948    0.9570    0.0000 C   0  0  0  0  0  0  0  0  0  0  0  0
    2.7552   -1.9007    0.0000 C   0  0  0  0  0  0  0  0  0  0  0  0
    1.5177    0.2425    0.0000 C   0  0  0  0  0  0  0  0  0  0  0  0
   -3.5012    1.6210    0.0000 C   0  0  0  0  0  0  0  0  0  0  0  0
   -3.5012    0.2931    0.0000 C   0  0  0  0  0  0  0  0  0  0  0  0
    3.1676   -2.6152    0.0000 C   0  0  0  0  0  0  0  0  0  0  0  0
    3.1676   -1.1863    0.0000 C   0  0  0  0  0  0  0  0  0  0  0  0
   -4.2820    1.3694    0.0000 C   0  0  0  0  0  0  0  0  0  0  0  0
   -4.2820    0.5445    0.0000 C   0  0  0  0  0  0  0  0  0  0  0  0
    1.9301    0.9570    0.0000 C   0  0  0  0  0  0  0  0  0  0  0  0
    3.9928   -2.6152    0.0000 C   0  0  0  0  0  0  0  0  0  0  0  0
    3.9928   -1.1863    0.0000 C   0  0  0  0  0  0  0  0  0  0  0  0
    4.4052   -1.9007    0.0000 C   0  0  0  0  0  0  0  0  0  0  0  0
   -4.9964    1.7820    0.0000 C   0  0  0  0  0  0  0  0  0  0  0  0
   -4.9964    0.1319    0.0000 C   0  0  0  0  0  0  0  0  0  0  0  0
    2.7552    0.9570    0.0000 C   0  0  0  0  0  0  0  0  0  0  0  0
    1.5177    1.6715    0.0000 C   0  0  0  0  0  0  0  0  0  0  0  0
   -5.7108    1.3694    0.0000 C   0  0  0  0  0  0  0  0  0  0  0  0
   -5.7108    0.5445    0.0000 C   0  0  0  0  0  0  0  0  0  0  0  0
    1.9301    2.3860    0.0000 C   0  0  0  0  0  0  0  0  0  0  0  0
    3.1676    1.6715    0.0000 C   0  0  0  0  0  0  0  0  0  0  0  0
    2.7552    2.3860    0.0000 C   0  0  0  0  0  0  0  0  0  0  0  0
    3.9928    3.1005    0.0000 C   0  0  0  0  0  0  0  0  0  0  0  0
    1.9301    3.8149    0.0000 C   0  0  0  0  0  0  0  0  0  0  0  0
    4.4052    0.9570    0.0000 C   0  0  0  0  0  0  0  0  0  0  0  0
    4.4052    3.8149    0.0000 C   0  0  0  0  0  0  0  0  0  0  0  0
    5.2303    3.8149    0.0000 C   0  0  0  0  0  0  0  0  0  0  0  0
    3.9928    4.5294    0.0000 C   0  0  0  0  0  0  0  0  0  0  0  0
    5.6427    4.5294    0.0000 C   0  0  0  0  0  0  0  0  0  0  0  0
    4.4052    5.2440    0.0000 C   0  0  0  0  0  0  0  0  0  0  0  0
    5.2303    5.2440    0.0000 C   0  0  0  0  0  0  0  0  0  0  0  0
   -0.6898   -1.9008    0.0000 H   0  0  0  0  0  0  0  0  0  0  0  0
    2.9146   -0.4716    0.0000 H   0  0  0  0  0  0  0  0  0  0  0  0
    0.1128   -2.6152    0.0000 H   0  0  0  0  0  0  0  0  0  0  0  0
   -1.5873   -4.9090    0.0000 H   0  0  0  0  0  0  0  0  0  0  0  0
   -1.1521   -4.9090    0.0000 H   0  0  0  0  0  0  0  0  0  0  0  0
    0.5253   -3.3295    0.0000 H   0  0  0  0  0  0  0  0  0  0  0  0
   -0.0096   -4.2562    0.0000 H   0  0  0  0  0  0  0  0  0  0  0  0
   -2.3171   -1.6885    0.0000 H   0  0  0  0  0  0  0  0  0  0  0  0
   -2.8522   -2.6151    0.0000 H   0  0  0  0  0  0  0  0  0  0  0  0
   -3.2648   -3.3295    0.0000 H   0  0  0  0  0  0  0  0  0  0  0  0
   -2.7297   -2.4029    0.0000 H   0  0  0  0  0  0  0  0  0  0  0  0
    0.5253   -1.9007    0.0000 H   0  0  0  0  0  0  0  0  0  0  0  0
   -0.0097   -0.9740    0.0000 H   0  0  0  0  0  0  0  0  0  0  0  0
   -2.0272   -1.1864    0.0000 H   0  0  0  0  0  0  0  0  0  0  0  0
   -1.4922   -2.1130    0.0000 H   0  0  0  0  0  0  0  0  0  0  0  0
   -1.3695   -6.3763    0.0000 H   0  0  0  0  0  0  0  0  0  0  0  0
   -2.3227   -5.7925    0.0000 H   0  0  0  0  0  0  0  0  0  0  0  0
    0.8153    0.4549    0.0000 H   0  0  0  0  0  0  0  0  0  0  0  0
    1.3502   -0.4718    0.0000 H   0  0  0  0  0  0  0  0  0  0  0  0
   -0.3774   -1.1862    0.0000 H   0  0  0  0  0  0  0  0  0  0  0  0
    0.9826   -0.2597    0.0000 H   0  0  0  0  0  0  0  0  0  0  0  0
   -2.3172   -0.6842    0.0000 H   0  0  0  0  0  0  0  0  0  0  0  0
   -2.8522    0.2424    0.0000 H   0  0  0  0  0  0  0  0  0  0  0  0
    1.3951   -2.8273    0.0000 H   0  0  0  0  0  0  0  0  0  0  0  0
    2.4651   -2.8274    0.0000 H   0  0  0  0  0  0  0  0  0  0  0  0
   -1.6598    1.8837    0.0000 H   0  0  0  0  0  0  0  0  0  0  0  0
   -1.1248    0.9571    0.0000 H   0  0  0  0  0  0  0  0  0  0  0  0
    2.6515   -3.5089    0.0000 H   0  0  0  0  0  0  0  0  0  0  0  0
    2.6516   -0.2926    0.0000 H   0  0  0  0  0  0  0  0  0  0  0  0
    4.5089   -3.5089    0.0000 H   0  0  0  0  0  0  0  0  0  0  0  0
    4.5088   -0.2926    0.0000 H   0  0  0  0  0  0  0  0  0  0  0  0
    5.4372   -1.9007    0.0000 H   0  0  0  0  0  0  0  0  0  0  0  0
   -4.9964    2.8140    0.0000 H   0  0  0  0  0  0  0  0  0  0  0  0
   -4.9964   -0.9001    0.0000 H   0  0  0  0  0  0  0  0  0  0  0  0
    3.2713    0.0633    0.0000 H   0  0  0  0  0  0  0  0  0  0  0  0
    0.4857    1.6715    0.0000 H   0  0  0  0  0  0  0  0  0  0  0  0
   -6.6046    1.8853    0.0000 H   0  0  0  0  0  0  0  0  0  0  0  0
   -6.6046    0.0286    0.0000 H   0  0  0  0  0  0  0  0  0  0  0  0
    4.5278    2.1739    0.0000 H   0  0  0  0  0  0  0  0  0  0  0  0
    5.0628    3.1005    0.0000 H   0  0  0  0  0  0  0  0  0  0  0  0
    3.0001    3.8150    0.0000 H   0  0  0  0  0  0  0  0  0  0  0  0
    1.3950    4.7415    0.0000 H   0  0  0  0  0  0  0  0  0  0  0  0
    2.4650    4.7416    0.0000 H   0  0  0  0  0  0  0  0  0  0  0  0
    3.8701    0.0304    0.0000 H   0  0  0  0  0  0  0  0  0  0  0  0
    5.4752    0.9569    0.0000 H   0  0  0  0  0  0  0  0  0  0  0  0
    4.9401    0.0303    0.0000 H   0  0  0  0  0  0  0  0  0  0  0  0
    5.7464    2.9212    0.0000 H   0  0  0  0  0  0  0  0  0  0  0  0
    2.9608    4.5294    0.0000 H   0  0  0  0  0  0  0  0  0  0  0  0
    6.6747    4.5294    0.0000 H   0  0  0  0  0  0  0  0  0  0  0  0
    3.8891    6.1377    0.0000 H   0  0  0  0  0  0  0  0  0  0  0  0
    5.7464    6.1377    0.0000 H   0  0  0  0  0  0  0  0  0  0  0  0
  1 15  1  0  0  0  0
  1 22  1  0  0  0  0
  2 16  1  0  0  0  0
  2 22  1  0  0  0  0
  3 60  1  0  0  0  0
  4 25  2  0  0  0  0
  5 31  2  0  0  0  0
  6 32  2  0  0  0  0
  7 33  2  0  0  0  0
  8 48  1  0  0  0  0
  8 52  1  0  0  0  0
  9 49  1  0  0  0  0
  9 53  1  0  0  0  0
 10 50  1  0  0  0  0
 10 51  1  0  0  0  0
 11 21  1  0  0  0  0
 11 23  1  0  0  0  0
 11 25  1  0  0  0  0
 12 31  1  0  0  0  0
 12 61  1  0  0  0  0
 13 29  1  0  0  0  0
 13 32  1  0  0  0  0
 13 33  1  0  0  0  0
 14 17  1  0  0  0  0
 14 18  1  0  0  0  0
 14 20  1  0  0  0  0
 14 62  1  6  0  0  0
 15 16  1  0  0  0  0
 15 17  1  0  0  0  0
 15 63  1  0  0  0  0
 16 19  1  0  0  0  0
 16 64  1  0  0  0  0
 17 65  1  0  0  0  0
 17 66  1  0  0  0  0
 18 19  1  0  0  0  0
 18 67  1  0  0  0  0
 18 68  1  0  0  0  0
 19 69  1  0  0  0  0
 19 70  1  0  0  0  0
 20 21  1  0  0  0  0
 20 71  1  0  0  0  0
 20 72  1  0  0  0  0
 21 73  1  0  0  0  0
 21 74  1  0  0  0  0
 22 75  1  0  0  0  0
 22 76  1  0  0  0  0
 23 24  1  0  0  0  0
 23 77  1  0  0  0  0
 23 78  1  0  0  0  0
 24  3  1  0  0  0  0
 24 26  1  0  0  0  0
 24 79  1  6  0  0  0
 25 27  1  0  0  0  0
 26 12  1  0  0  0  0
 26 28  1  0  0  0  0
 26 80  1  6  0  0  0
 27 29  1  0  0  0  0
 27 81  1  0  0  0  0
 27 82  1  0  0  0  0
 28 30  1  0  0  0  0
 28 83  1  0  0  0  0
 28 84  1  0  0  0  0
 29 85  1  0  0  0  0
 29 86  1  0  0  0  0
 30 34  2  0  0  0  0
 30 35  1  0  0  0  0
 31 38  1  0  0  0  0
 32 36  1  0  0  0  0
 33 37  1  0  0  0  0
 34 39  1  0  0  0  0
 34 87  1  0  0  0  0
 35 40  2  0  0  0  0
 35 88  1  0  0  0  0
 36 37  1  0  0  0  0
 36 42  2  0  0  0  0
 37 43  2  0  0  0  0
 38 44  2  0  0  0  0
 38 45  1  0  0  0  0
 39 41  2  0  0  0  0
 39 89  1  0  0  0  0
 40 41  1  0  0  0  0
 40 90  1  0  0  0  0
 41 91  1  0  0  0  0
 42 46  1  0  0  0  0
 42 92  1  0  0  0  0
 43 47  1  0  0  0  0
 43 93  1  0  0  0  0
 44 49  1  0  0  0  0
 44 94  1  0  0  0  0
 45 48  2  0  0  0  0
 45 95  1  0  0  0  0
 46 47  2  0  0  0  0
 46 96  1  0  0  0  0
 47 97  1  0  0  0  0
 48 50  1  0  0  0  0
 49 50  2  0  0  0  0
 51 54  1  0  0  0  0
 51 98  1  0  0  0  0
 51 99  1  0  0  0  0
 52100  1  0  0  0  0
 52101  1  0  0  0  0
 52102  1  0  0  0  0
 53103  1  0  0  0  0
 53104  1  0  0  0  0
 53105  1  0  0  0  0
 54 55  2  0  0  0  0
 54 56  1  0  0  0  0
 55 57  1  0  0  0  0
 55106  1  0  0  0  0
 56 58  2  0  0  0  0
 56107  1  0  0  0  0
 57 59  2  0  0  0  0
 57108  1  0  0  0  0
 58 59  1  0  0  0  0
 58109  1  0  0  0  0
 59110  1  0  0  0  0
M  END
>  <DRUGBANK_ID>
DB03063

>  <SECONDARY_ACCESSION_NUMBERS>
EXPT01332

>  <COMMON_NAME>
N-[(2S,3S)-4-[2-[(5S)-3a,4,5,6,7,7a-Hexahydro-1,3-benzodioxol-5-yl]ethyl-[3-(1,3-dioxoisoindol-2-yl)propanoyl]amino]-3-hydroxy-1-phenylbutan-2-yl]-3,5-dimethoxy-4-phenylmethoxybenzamide

$$$$
