
 OpenBabel10282417072D

 24 23  0  0  1  0  0  0  0  0999 V2000
    1.0461    1.4289    0.0000 C   0  0  0  0  0  0  0  0  0  0  0  0
    1.7605    1.8414    0.0000 S   0  0  0  0  0  0  0  0  0  0  0  0
    2.4750    1.4289    0.0000 C   0  0  0  0  0  0  0  0  0  0  0  0
    3.1895    1.8414    0.0000 C   0  0  0  0  0  0  0  0  0  0  0  0
    3.9039    1.4289    0.0000 C   0  0  1  0  0  0  0  0  0  0  0  0
    4.6184    1.8414    0.0000 N   0  0  0  0  0  0  0  0  0  0  0  0
    5.3329    1.4289    0.0000 C   0  0  0  0  0  0  0  0  0  0  0  0
    6.0474    1.8414    0.0000 N   0  0  0  0  0  0  0  0  0  0  0  0
    5.3329    0.6039    0.0000 O   0  0  0  0  0  0  0  0  0  0  0  0
    3.9039    0.6039    0.0000 C   0  0  0  0  0  0  0  0  0  0  0  0
    4.6184    0.1914    0.0000 O   0  0  0  0  0  0  0  0  0  0  0  0
    3.1895    0.1914    0.0000 O   0  0  0  0  0  0  0  0  0  0  0  0
    0.1194    1.9639    0.0000 H   0  0  0  0  0  0  0  0  0  0  0  0
    1.0461    0.3589    0.0000 H   0  0  0  0  0  0  0  0  0  0  0  0
    0.1195    0.8939    0.0000 H   0  0  0  0  0  0  0  0  0  0  0  0
    2.4750    0.3589    0.0000 H   0  0  0  0  0  0  0  0  0  0  0  0
    3.4016    0.8939    0.0000 H   0  0  0  0  0  0  0  0  0  0  0  0
    3.1895    2.9114    0.0000 H   0  0  0  0  0  0  0  0  0  0  0  0
    4.1162    2.3764    0.0000 H   0  0  0  0  0  0  0  0  0  0  0  0
    3.9039    2.4989    0.0000 H   0  0  0  0  0  0  0  0  0  0  0  0
    4.6184    2.8259    0.0000 H   0  0  0  0  0  0  0  0  0  0  0  0
    6.9000    1.3491    0.0000 H   0  0  0  0  0  0  0  0  0  0  0  0
    6.0474    2.8259    0.0000 H   0  0  0  0  0  0  0  0  0  0  0  0
    4.6184   -0.7456    0.0000 H   0  0  0  0  0  0  0  0  0  0  0  0
  1  2  1  0  0  0  0
  1 13  1  0  0  0  0
  1 14  1  0  0  0  0
  1 15  1  0  0  0  0
  2  3  1  0  0  0  0
  3  4  1  0  0  0  0
  3 16  1  0  0  0  0
  3 17  1  0  0  0  0
  4  5  1  0  0  0  0
  4 18  1  0  0  0  0
  4 19  1  0  0  0  0
  5  6  1  0  0  0  0
  5 10  1  0  0  0  0
  5 20  1  6  0  0  0
  6  7  1  0  0  0  0
  6 21  1  0  0  0  0
  7  8  1  0  0  0  0
  7  9  2  0  0  0  0
  8 22  1  0  0  0  0
  8 23  1  0  0  0  0
 10 11  1  0  0  0  0
 10 12  2  0  0  0  0
 11 24  1  0  0  0  0
M  END
>  <DRUGBANK_ID>
DB03364

>  <SECONDARY_ACCESSION_NUMBERS>
EXPT00877

>  <COMMON_NAME>
N-Carbamyl-D-Methionine

$$$$
