
 OpenBabel10282417072D

 25 25  0  0  0  0  0  0  0  0999 V2000
   -0.3441   -0.6150    0.0000 C   0  0  0  0  0  0  0  0  0  0  0  0
    0.3477   -0.2132    0.0000 C   0  0  0  0  0  0  0  0  0  0  0  0
   -1.0674   -0.1935    0.0000 C   0  0  0  0  0  0  0  0  0  0  0  0
   -0.3513   -1.4400    0.0000 C   0  0  0  0  0  0  0  0  0  0  0  0
    0.3549    0.6095    0.0000 C   0  0  0  0  0  0  0  0  0  0  0  0
   -1.0602    0.6221    0.0000 C   0  0  0  0  0  0  0  0  0  0  0  0
    0.3534   -1.8650    0.0000 C   0  0  0  0  0  0  0  0  0  0  0  0
   -1.0821   -1.8523    0.0000 C   0  0  0  0  0  0  0  0  0  0  0  0
   -0.3369    1.0365    0.0000 C   0  0  0  0  0  0  0  0  0  0  0  0
    1.0821    1.0293    0.0000 O   0  0  0  0  0  0  0  0  0  0  0  0
   -0.3296    1.8650    0.0000 C   0  0  0  0  0  0  0  0  0  0  0  0
    1.2398   -0.7320    0.0000 H   0  0  0  0  0  0  0  0  0  0  0  0
   -1.9644   -0.7037    0.0000 H   0  0  0  0  0  0  0  0  0  0  0  0
   -0.3668   -2.5099    0.0000 H   0  0  0  0  0  0  0  0  0  0  0  0
   -1.9508    1.1435    0.0000 H   0  0  0  0  0  0  0  0  0  0  0  0
    0.3330   -2.9348    0.0000 H   0  0  0  0  0  0  0  0  0  0  0  0
    1.2901   -1.3478    0.0000 H   0  0  0  0  0  0  0  0  0  0  0  0
    1.2697   -2.4176    0.0000 H   0  0  0  0  0  0  0  0  0  0  0  0
   -2.0034   -1.3081    0.0000 H   0  0  0  0  0  0  0  0  0  0  0  0
   -1.0927   -2.9222    0.0000 H   0  0  0  0  0  0  0  0  0  0  0  0
   -2.0140   -2.3781    0.0000 H   0  0  0  0  0  0  0  0  0  0  0  0
    1.8935    0.5608    0.0000 H   0  0  0  0  0  0  0  0  0  0  0  0
    0.6017    2.3918    0.0000 H   0  0  0  0  0  0  0  0  0  0  0  0
   -1.2515    2.4081    0.0000 H   0  0  0  0  0  0  0  0  0  0  0  0
   -0.3202    2.9350    0.0000 H   0  0  0  0  0  0  0  0  0  0  0  0
  1  2  2  0  0  0  0
  1  3  1  0  0  0  0
  1  4  1  0  0  0  0
  2  5  1  0  0  0  0
  2 12  1  0  0  0  0
  3  6  2  0  0  0  0
  3 13  1  0  0  0  0
  4  7  1  0  0  0  0
  4  8  1  0  0  0  0
  4 14  1  0  0  0  0
  5  9  2  0  0  0  0
  5 10  1  0  0  0  0
  6  9  1  0  0  0  0
  6 15  1  0  0  0  0
  7 16  1  0  0  0  0
  7 17  1  0  0  0  0
  7 18  1  0  0  0  0
  8 19  1  0  0  0  0
  8 20  1  0  0  0  0
  8 21  1  0  0  0  0
  9 11  1  0  0  0  0
 10 22  1  0  0  0  0
 11 23  1  0  0  0  0
 11 24  1  0  0  0  0
 11 25  1  0  0  0  0
M  END
>  <DRUGBANK_ID>
DB16404

>  <COMMON_NAME>
Carvacrol

>  <CAS_NUMBER>
499-75-2

>  <UNII>
9B1J4V995Q

>  <SYNONYMS>
5-Isopropyl-o-cresol; p-Cymen-2-ol

$$$$
