
 OpenBabel10282417072D

 58 59  0  0  1  0  0  0  0  0999 V2000
    5.0013   -5.3625    0.0000 B   0  0  0  0  0  0  0  0  0  0  0  0
    5.0013   -6.1875    0.0000 C   0  0  2  0  0  0  0  0  0  0  0  0
    4.2868   -6.6000    0.0000 C   0  0  0  0  0  0  0  0  0  0  0  0
    3.5724   -6.1875    0.0000 C   0  0  0  0  0  0  0  0  0  0  0  0
    2.8579   -6.6000    0.0000 C   0  0  0  0  0  0  0  0  0  0  0  0
    3.5724   -5.3625    0.0000 C   0  0  0  0  0  0  0  0  0  0  0  0
    5.7158   -6.6000    0.0000 N   0  0  0  0  0  0  0  0  0  0  0  0
    6.4302   -6.1875    0.0000 C   0  0  0  0  0  0  0  0  0  0  0  0
    6.4302   -5.3625    0.0000 O   0  0  0  0  0  0  0  0  0  0  0  0
    7.1447   -6.6000    0.0000 C   0  0  2  0  0  0  0  0  0  0  0  0
    7.1447   -7.4250    0.0000 C   0  0  1  0  0  0  0  0  0  0  0  0
    7.8592   -7.8375    0.0000 C   0  0  0  0  0  0  0  0  0  0  0  0
    6.4302   -7.8375    0.0000 O   0  0  0  0  0  0  0  0  0  0  0  0
    7.8592   -6.1875    0.0000 N   0  0  0  0  0  0  0  0  0  0  0  0
    8.5737   -6.6000    0.0000 C   0  0  0  0  0  0  0  0  0  0  0  0
    8.5737   -7.4250    0.0000 O   0  0  0  0  0  0  0  0  0  0  0  0
    9.2881   -6.1875    0.0000 C   0  0  0  0  0  0  0  0  0  0  0  0
    9.2881   -5.3625    0.0000 C   0  0  0  0  0  0  0  0  0  0  0  0
   10.0026   -4.9500    0.0000 C   0  0  0  0  0  0  0  0  0  0  0  0
   10.7171   -5.3625    0.0000 C   0  0  0  0  0  0  0  0  0  0  0  0
   10.7171   -6.1875    0.0000 C   0  0  0  0  0  0  0  0  0  0  0  0
   10.0026   -6.6000    0.0000 N   0  0  0  0  0  0  0  0  0  0  0  0
   11.4315   -6.6000    0.0000 C   0  0  0  0  0  0  0  0  0  0  0  0
   12.1460   -6.1875    0.0000 C   0  0  0  0  0  0  0  0  0  0  0  0
   12.8605   -6.6000    0.0000 C   0  0  0  0  0  0  0  0  0  0  0  0
   12.8605   -7.4250    0.0000 C   0  0  0  0  0  0  0  0  0  0  0  0
   12.1460   -7.8375    0.0000 C   0  0  0  0  0  0  0  0  0  0  0  0
   11.4315   -7.4250    0.0000 C   0  0  0  0  0  0  0  0  0  0  0  0
    5.7158   -4.9500    0.0000 O   0  0  0  0  0  0  0  0  0  0  0  0
    4.2868   -4.9500    0.0000 O   0  0  0  0  0  0  0  0  0  0  0  0
    4.0747   -5.6525    0.0000 H   0  0  0  0  0  0  0  0  0  0  0  0
    4.2868   -7.6700    0.0000 H   0  0  0  0  0  0  0  0  0  0  0  0
    3.3601   -7.1350    0.0000 H   0  0  0  0  0  0  0  0  0  0  0  0
    2.6458   -5.6525    0.0000 H   0  0  0  0  0  0  0  0  0  0  0  0
    1.9313   -6.0650    0.0000 H   0  0  0  0  0  0  0  0  0  0  0  0
    2.8579   -7.6700    0.0000 H   0  0  0  0  0  0  0  0  0  0  0  0
    1.9312   -7.1350    0.0000 H   0  0  0  0  0  0  0  0  0  0  0  0
    4.4990   -4.8275    0.0000 H   0  0  0  0  0  0  0  0  0  0  0  0
    2.6458   -4.8275    0.0000 H   0  0  0  0  0  0  0  0  0  0  0  0
    3.5724   -4.2925    0.0000 H   0  0  0  0  0  0  0  0  0  0  0  0
    5.7158   -7.5845    0.0000 H   0  0  0  0  0  0  0  0  0  0  0  0
    7.1447   -5.5300    0.0000 H   0  0  0  0  0  0  0  0  0  0  0  0
    6.2181   -6.8900    0.0000 H   0  0  0  0  0  0  0  0  0  0  0  0
    7.8592   -8.9075    0.0000 H   0  0  0  0  0  0  0  0  0  0  0  0
    8.7858   -7.3025    0.0000 H   0  0  0  0  0  0  0  0  0  0  0  0
    8.7859   -8.3725    0.0000 H   0  0  0  0  0  0  0  0  0  0  0  0
    5.5902   -7.3525    0.0000 H   0  0  0  0  0  0  0  0  0  0  0  0
    7.8592   -5.2030    0.0000 H   0  0  0  0  0  0  0  0  0  0  0  0
    8.3944   -4.8465    0.0000 H   0  0  0  0  0  0  0  0  0  0  0  0
   10.0026   -3.9180    0.0000 H   0  0  0  0  0  0  0  0  0  0  0  0
   11.6108   -4.8465    0.0000 H   0  0  0  0  0  0  0  0  0  0  0  0
   12.1460   -5.1555    0.0000 H   0  0  0  0  0  0  0  0  0  0  0  0
   13.7542   -6.0840    0.0000 H   0  0  0  0  0  0  0  0  0  0  0  0
   13.7542   -7.9410    0.0000 H   0  0  0  0  0  0  0  0  0  0  0  0
   12.1460   -8.8695    0.0000 H   0  0  0  0  0  0  0  0  0  0  0  0
   10.5378   -7.9410    0.0000 H   0  0  0  0  0  0  0  0  0  0  0  0
    6.5558   -5.4350    0.0000 H   0  0  0  0  0  0  0  0  0  0  0  0
    4.2868   -3.9800    0.0000 H   0  0  0  0  0  0  0  0  0  0  0  0
  1 29  1  0  0  0  0
  1 30  1  0  0  0  0
  2  1  1  0  0  0  0
  2  3  1  0  0  0  0
  2  7  1  0  0  0  0
  2 31  1  6  0  0  0
  3  4  1  0  0  0  0
  3 32  1  0  0  0  0
  3 33  1  0  0  0  0
  4  5  1  0  0  0  0
  4  6  1  0  0  0  0
  4 34  1  0  0  0  0
  5 35  1  0  0  0  0
  5 36  1  0  0  0  0
  5 37  1  0  0  0  0
  6 38  1  0  0  0  0
  6 39  1  0  0  0  0
  6 40  1  0  0  0  0
  7  8  1  0  0  0  0
  7 41  1  0  0  0  0
  8  9  2  0  0  0  0
  8 10  1  0  0  0  0
 10 11  1  0  0  0  0
 10 14  1  0  0  0  0
 10 42  1  6  0  0  0
 11 12  1  0  0  0  0
 11 13  1  0  0  0  0
 11 43  1  6  0  0  0
 12 44  1  0  0  0  0
 12 45  1  0  0  0  0
 12 46  1  0  0  0  0
 13 47  1  0  0  0  0
 14 15  1  0  0  0  0
 14 48  1  0  0  0  0
 15 16  2  0  0  0  0
 15 17  1  0  0  0  0
 17 18  2  0  0  0  0
 17 22  1  0  0  0  0
 18 19  1  0  0  0  0
 18 49  1  0  0  0  0
 19 20  2  0  0  0  0
 19 50  1  0  0  0  0
 20 21  1  0  0  0  0
 20 51  1  0  0  0  0
 21 22  2  0  0  0  0
 21 23  1  0  0  0  0
 23 24  2  0  0  0  0
 23 28  1  0  0  0  0
 24 25  1  0  0  0  0
 24 52  1  0  0  0  0
 25 26  2  0  0  0  0
 25 53  1  0  0  0  0
 26 27  1  0  0  0  0
 26 54  1  0  0  0  0
 27 28  2  0  0  0  0
 27 55  1  0  0  0  0
 28 56  1  0  0  0  0
 29 57  1  0  0  0  0
 30 58  1  0  0  0  0
M  END
>  <DRUGBANK_ID>
DB11956

>  <COMMON_NAME>
Delanzomib

>  <CAS_NUMBER>
847499-27-8

>  <UNII>
6IF28942WO

>  <SYNONYMS>
Delanzomib

$$$$
