RO4
 OpenBabel10282417072D

 63 62  0  0  0  0  0  0  0  0999 V2000
   -3.7249    0.9774    0.0000 O   0  0  0  0  0  0  0  0  0  0  0  0
   -1.5815   -1.0851    0.0000 O   0  0  0  0  0  0  0  0  0  0  0  0
    0.5619    0.9774    0.0000 O   0  0  0  0  0  0  0  0  0  0  0  0
    2.7053   -1.0851    0.0000 O   0  0  0  0  0  0  0  0  0  0  0  0
    3.4198    0.1524    0.0000 O   0  0  0  0  0  0  0  0  0  0  0  0
   -4.4394   -1.0851    0.0000 O   0  0  0  0  0  0  0  0  0  0  0  0
   -4.4394   -0.2601    0.0000 N   0  0  0  0  0  0  0  0  0  0  0  0
    1.2764   -0.2601    0.0000 N   0  0  0  0  0  0  0  0  0  0  0  0
   -0.8670    0.1524    0.0000 N   0  0  0  0  0  0  0  0  0  0  0  0
   -3.7249    0.1524    0.0000 C   0  0  0  0  0  0  0  0  0  0  0  0
   -1.5815   -0.2601    0.0000 C   0  0  0  0  0  0  0  0  0  0  0  0
    0.5619    0.1524    0.0000 C   0  0  0  0  0  0  0  0  0  0  0  0
    2.7053   -0.2601    0.0000 C   0  0  0  0  0  0  0  0  0  0  0  0
   -2.2960    0.1524    0.0000 C   0  0  1  0  0  0  0  0  0  0  0  0
   -0.1526   -0.2601    0.0000 C   0  0  2  0  0  0  0  0  0  0  0  0
    1.9908    0.1524    0.0000 C   0  0  2  0  0  0  0  0  0  0  0  0
   -1.5815    1.3899    0.0000 C   0  0  0  0  0  0  0  0  0  0  0  0
    0.5619   -1.4976    0.0000 C   0  0  0  0  0  0  0  0  0  0  0  0
   -3.0104   -0.2601    0.0000 C   0  0  0  0  0  0  0  0  0  0  0  0
    4.1343   -0.2601    0.0000 C   0  0  0  0  0  0  0  0  0  0  0  0
   -2.2960    0.9774    0.0000 C   0  0  0  0  0  0  0  0  0  0  0  0
   -0.1526   -1.0851    0.0000 C   0  0  0  0  0  0  0  0  0  0  0  0
    4.8487    0.1524    0.0000 C   0  0  0  0  0  0  0  0  0  0  0  0
   -0.8670    0.9774    0.0000 C   0  0  0  0  0  0  0  0  0  0  0  0
   -1.5815    2.2149    0.0000 C   0  0  0  0  0  0  0  0  0  0  0  0
    0.5619   -2.3226    0.0000 C   0  0  0  0  0  0  0  0  0  0  0  0
    1.2764   -1.0851    0.0000 C   0  0  0  0  0  0  0  0  0  0  0  0
    1.9908    0.9774    0.0000 C   0  0  0  0  0  0  0  0  0  0  0  0
   -2.2960   -0.4315    0.0000 H   0  0  0  0  0  0  0  0  0  0  0  0
   -0.1526    0.3238    0.0000 H   0  0  0  0  0  0  0  0  0  0  0  0
    1.9908   -0.4315    0.0000 H   0  0  0  0  0  0  0  0  0  0  0  0
   -5.2794   -1.5701    0.0000 H   0  0  0  0  0  0  0  0  0  0  0  0
   -5.2920    0.2322    0.0000 H   0  0  0  0  0  0  0  0  0  0  0  0
    1.2764   -1.2446    0.0000 H   0  0  0  0  0  0  0  0  0  0  0  0
   -0.8670    1.1369    0.0000 H   0  0  0  0  0  0  0  0  0  0  0  0
   -0.6549    1.9249    0.0000 H   0  0  0  0  0  0  0  0  0  0  0  0
    1.4885   -2.0326    0.0000 H   0  0  0  0  0  0  0  0  0  0  0  0
   -3.0104   -1.3301    0.0000 H   0  0  0  0  0  0  0  0  0  0  0  0
   -2.0837   -0.7951    0.0000 H   0  0  0  0  0  0  0  0  0  0  0  0
    4.1343   -1.3301    0.0000 H   0  0  0  0  0  0  0  0  0  0  0  0
    5.0610   -0.7951    0.0000 H   0  0  0  0  0  0  0  0  0  0  0  0
   -3.2226    1.5124    0.0000 H   0  0  0  0  0  0  0  0  0  0  0  0
   -2.2960    2.0474    0.0000 H   0  0  0  0  0  0  0  0  0  0  0  0
   -1.0792   -1.6201    0.0000 H   0  0  0  0  0  0  0  0  0  0  0  0
   -0.1526   -2.1551    0.0000 H   0  0  0  0  0  0  0  0  0  0  0  0
    5.7754   -0.3826    0.0000 H   0  0  0  0  0  0  0  0  0  0  0  0
    4.8487    1.2224    0.0000 H   0  0  0  0  0  0  0  0  0  0  0  0
    5.7753    0.6874    0.0000 H   0  0  0  0  0  0  0  0  0  0  0  0
   -0.8670   -0.0926    0.0000 H   0  0  0  0  0  0  0  0  0  0  0  0
    0.0596    1.5124    0.0000 H   0  0  0  0  0  0  0  0  0  0  0  0
    0.0597    0.4424    0.0000 H   0  0  0  0  0  0  0  0  0  0  0  0
   -0.6549    2.7499    0.0000 H   0  0  0  0  0  0  0  0  0  0  0  0
   -2.5081    2.7499    0.0000 H   0  0  0  0  0  0  0  0  0  0  0  0
   -1.5815    3.2849    0.0000 H   0  0  0  0  0  0  0  0  0  0  0  0
   -0.3647   -2.8576    0.0000 H   0  0  0  0  0  0  0  0  0  0  0  0
    1.4885   -2.8576    0.0000 H   0  0  0  0  0  0  0  0  0  0  0  0
    0.5619   -3.3926    0.0000 H   0  0  0  0  0  0  0  0  0  0  0  0
    2.2030   -1.6201    0.0000 H   0  0  0  0  0  0  0  0  0  0  0  0
    1.2764   -0.0151    0.0000 H   0  0  0  0  0  0  0  0  0  0  0  0
    2.2031   -0.5501    0.0000 H   0  0  0  0  0  0  0  0  0  0  0  0
    2.9174    1.5124    0.0000 H   0  0  0  0  0  0  0  0  0  0  0  0
    1.0642    1.5124    0.0000 H   0  0  0  0  0  0  0  0  0  0  0  0
    1.9908    2.0474    0.0000 H   0  0  0  0  0  0  0  0  0  0  0  0
  1 10  2  0  0  0  0
  2 11  2  0  0  0  0
  3 12  2  0  0  0  0
  4 13  2  0  0  0  0
  5 13  1  0  0  0  0
  5 20  1  0  0  0  0
  6  7  1  0  0  0  0
  6 32  1  0  0  0  0
  7 10  1  0  0  0  0
  7 33  1  0  0  0  0
  8 12  1  0  0  0  0
  8 16  1  0  0  0  0
  8 34  1  0  0  0  0
  9 11  1  0  0  0  0
  9 35  1  0  0  0  0
 10 19  1  0  0  0  0
 11 14  1  0  0  0  0
 12 15  1  0  0  0  0
 13 16  1  0  0  0  0
 14 19  1  0  0  0  0
 14 21  1  0  0  0  0
 14 29  1  6  0  0  0
 15  9  1  0  0  0  0
 15 22  1  0  0  0  0
 15 30  1  1  0  0  0
 16 28  1  0  0  0  0
 16 31  1  6  0  0  0
 17 21  1  0  0  0  0
 17 24  1  0  0  0  0
 17 25  1  0  0  0  0
 17 36  1  0  0  0  0
 18 22  1  0  0  0  0
 18 26  1  0  0  0  0
 18 27  1  0  0  0  0
 18 37  1  0  0  0  0
 19 38  1  0  0  0  0
 19 39  1  0  0  0  0
 20 23  1  0  0  0  0
 20 40  1  0  0  0  0
 20 41  1  0  0  0  0
 21 42  1  0  0  0  0
 21 43  1  0  0  0  0
 22 44  1  0  0  0  0
 22 45  1  0  0  0  0
 23 46  1  0  0  0  0
 23 47  1  0  0  0  0
 23 48  1  0  0  0  0
 24 49  1  0  0  0  0
 24 50  1  0  0  0  0
 24 51  1  0  0  0  0
 25 52  1  0  0  0  0
 25 53  1  0  0  0  0
 25 54  1  0  0  0  0
 26 55  1  0  0  0  0
 26 56  1  0  0  0  0
 26 57  1  0  0  0  0
 27 58  1  0  0  0  0
 27 59  1  0  0  0  0
 27 60  1  0  0  0  0
 28 61  1  0  0  0  0
 28 62  1  0  0  0  0
 28 63  1  0  0  0  0
M  END
>  <DRUGBANK_ID>
DB08482

>  <COMMON_NAME>
[[1-[N-HYDROXY-ACETAMIDYL]-3-METHYL-BUTYL]-CARBONYL-LEUCINYL]-ALANINE ETHYL ESTER

$$$$
