
 OpenBabel10282417072D

 38 37  0  0  1  0  0  0  0  0999 V2000
   -2.3349    0.3020    0.0000 C   0  0  0  0  0  0  0  0  0  0  0  0
   -1.6204    0.7145    0.0000 S   0  0  0  0  0  0  0  0  0  0  0  0
   -1.2079    0.0000    0.0000 O   0  0  0  0  0  0  0  0  0  0  0  0
   -2.0329    1.4289    0.0000 O   0  0  0  0  0  0  0  0  0  0  0  0
   -0.9059    1.1270    0.0000 O   0  0  0  0  0  0  0  0  0  0  0  0
   -0.1914    0.7145    0.0000 C   0  0  0  0  0  0  0  0  0  0  0  0
    0.5230    1.1270    0.0000 C   0  0  2  0  0  0  0  0  0  0  0  0
    1.2375    0.7145    0.0000 C   0  0  2  0  0  0  0  0  0  0  0  0
    1.9520    1.1270    0.0000 C   0  0  1  0  0  0  0  0  0  0  0  0
    2.6664    0.7145    0.0000 C   0  0  1  0  0  0  0  0  0  0  0  0
    3.3809    1.1270    0.0000 C   0  0  0  0  0  0  0  0  0  0  0  0
    4.0954    0.7145    0.0000 O   0  0  0  0  0  0  0  0  0  0  0  0
    4.8099    1.1270    0.0000 S   0  0  0  0  0  0  0  0  0  0  0  0
    5.5243    1.5395    0.0000 O   0  0  0  0  0  0  0  0  0  0  0  0
    5.2224    0.4125    0.0000 O   0  0  0  0  0  0  0  0  0  0  0  0
    4.3974    1.8414    0.0000 C   0  0  0  0  0  0  0  0  0  0  0  0
    2.6664   -0.1105    0.0000 O   0  0  0  0  0  0  0  0  0  0  0  0
    1.9520    1.9520    0.0000 O   0  0  0  0  0  0  0  0  0  0  0  0
    1.2375   -0.1105    0.0000 O   0  0  0  0  0  0  0  0  0  0  0  0
    0.5230    1.9520    0.0000 O   0  0  0  0  0  0  0  0  0  0  0  0
   -3.2615    0.8370    0.0000 H   0  0  0  0  0  0  0  0  0  0  0  0
   -2.3349   -0.7680    0.0000 H   0  0  0  0  0  0  0  0  0  0  0  0
   -3.2616   -0.2330    0.0000 H   0  0  0  0  0  0  0  0  0  0  0  0
   -0.1914   -0.3555    0.0000 H   0  0  0  0  0  0  0  0  0  0  0  0
    0.7353    0.1795    0.0000 H   0  0  0  0  0  0  0  0  0  0  0  0
   -0.4037    1.6620    0.0000 H   0  0  0  0  0  0  0  0  0  0  0  0
    0.3109    0.1795    0.0000 H   0  0  0  0  0  0  0  0  0  0  0  0
    1.0254    1.6620    0.0000 H   0  0  0  0  0  0  0  0  0  0  0  0
    1.7397    0.1795    0.0000 H   0  0  0  0  0  0  0  0  0  0  0  0
    3.3809    2.1970    0.0000 H   0  0  0  0  0  0  0  0  0  0  0  0
    4.3075    1.6620    0.0000 H   0  0  0  0  0  0  0  0  0  0  0  0
    4.9324    2.7681    0.0000 H   0  0  0  0  0  0  0  0  0  0  0  0
    3.3274    1.8414    0.0000 H   0  0  0  0  0  0  0  0  0  0  0  0
    3.8624    2.7680    0.0000 H   0  0  0  0  0  0  0  0  0  0  0  0
    1.8264   -0.5955    0.0000 H   0  0  0  0  0  0  0  0  0  0  0  0
    2.7920    2.4370    0.0000 H   0  0  0  0  0  0  0  0  0  0  0  0
    0.3975   -0.5955    0.0000 H   0  0  0  0  0  0  0  0  0  0  0  0
    1.3630    2.4370    0.0000 H   0  0  0  0  0  0  0  0  0  0  0  0
  1  2  1  0  0  0  0
  1 21  1  0  0  0  0
  1 22  1  0  0  0  0
  1 23  1  0  0  0  0
  2  3  2  0  0  0  0
  2  4  2  0  0  0  0
  2  5  1  0  0  0  0
  5  6  1  0  0  0  0
  6  7  1  0  0  0  0
  6 24  1  0  0  0  0
  6 25  1  0  0  0  0
  7  8  1  0  0  0  0
  7 20  1  0  0  0  0
  7 26  1  6  0  0  0
  8  9  1  0  0  0  0
  8 19  1  0  0  0  0
  8 27  1  1  0  0  0
  9 10  1  0  0  0  0
  9 18  1  0  0  0  0
  9 28  1  1  0  0  0
 10 11  1  0  0  0  0
 10 17  1  0  0  0  0
 10 29  1  6  0  0  0
 11 12  1  0  0  0  0
 11 30  1  0  0  0  0
 11 31  1  0  0  0  0
 12 13  1  0  0  0  0
 13 14  2  0  0  0  0
 13 15  2  0  0  0  0
 13 16  1  0  0  0  0
 16 32  1  0  0  0  0
 16 33  1  0  0  0  0
 16 34  1  0  0  0  0
 17 35  1  0  0  0  0
 18 36  1  0  0  0  0
 19 37  1  0  0  0  0
 20 38  1  0  0  0  0
M  END
>  <DRUGBANK_ID>
DB12097

>  <COMMON_NAME>
Mannitol busulfan

>  <CAS_NUMBER>
1187-00-4

>  <UNII>
6STO1P091F

$$$$
