
 OpenBabel10282417072D

 51 55  0  0  1  0  0  0  0  0999 V2000
    3.9940    1.2104    0.0000 C   0  0  0  0  0  0  0  0  0  0  0  0
    4.7085    1.6229    0.0000 C   0  0  0  0  0  0  0  0  0  0  0  0
    5.4230    1.2104    0.0000 C   0  0  0  0  0  0  0  0  0  0  0  0
    6.0361    1.7625    0.0000 O   0  0  0  0  0  0  0  0  0  0  0  0
    5.7005    2.5161    0.0000 C   0  0  2  0  0  0  0  0  0  0  0  0
    4.8800    2.4299    0.0000 C   0  0  0  0  0  0  0  0  0  0  0  0
    6.1130    3.2306    0.0000 C   0  0  0  0  0  0  0  0  0  0  0  0
    6.9380    3.2306    0.0000 C   0  0  0  0  0  0  0  0  0  0  0  0
    5.7005    3.9451    0.0000 C   0  0  0  0  0  0  0  0  0  0  0  0
    5.4230    0.3854    0.0000 C   0  0  0  0  0  0  0  0  0  0  0  0
    4.7085   -0.0271    0.0000 C   0  0  0  0  0  0  0  0  0  0  0  0
    3.9940    0.3854    0.0000 C   0  0  0  0  0  0  0  0  0  0  0  0
    3.2795   -0.0271    0.0000 C   0  0  0  0  0  0  0  0  0  0  0  0
    3.2795   -0.8521    0.0000 O   0  0  0  0  0  0  0  0  0  0  0  0
    2.5651    0.3854    0.0000 C   0  0  2  0  0  0  0  0  0  0  0  0
    2.5651    1.2104    0.0000 C   0  0  2  0  0  0  0  0  0  0  0  0
    3.2795    1.6229    0.0000 O   0  0  0  0  0  0  0  0  0  0  0  0
    1.8506    1.6229    0.0000 C   0  0  0  0  0  0  0  0  0  0  0  0
    1.1361    1.2104    0.0000 O   0  0  0  0  0  0  0  0  0  0  0  0
    1.1361    0.3854    0.0000 C   0  0  0  0  0  0  0  0  0  0  0  0
    1.8506   -0.0271    0.0000 C   0  0  0  0  0  0  0  0  0  0  0  0
    1.8506   -0.8521    0.0000 C   0  0  0  0  0  0  0  0  0  0  0  0
    1.1361   -1.2646    0.0000 C   0  0  0  0  0  0  0  0  0  0  0  0
    0.4217   -0.8521    0.0000 C   0  0  0  0  0  0  0  0  0  0  0  0
    0.4217   -0.0271    0.0000 C   0  0  0  0  0  0  0  0  0  0  0  0
   -0.2928   -1.2646    0.0000 O   0  0  0  0  0  0  0  0  0  0  0  0
   -0.2928   -2.0896    0.0000 C   0  0  0  0  0  0  0  0  0  0  0  0
    1.1361   -2.0896    0.0000 O   0  0  0  0  0  0  0  0  0  0  0  0
    0.4217   -2.5021    0.0000 C   0  0  0  0  0  0  0  0  0  0  0  0
    2.5651   -0.4396    0.0000 H   0  0  0  0  0  0  0  0  0  0  0  0
    2.5651    2.0354    0.0000 H   0  0  0  0  0  0  0  0  0  0  0  0
    6.7690    2.4602    0.0000 H   0  0  0  0  0  0  0  0  0  0  0  0
    4.1640    3.2251    0.0000 H   0  0  0  0  0  0  0  0  0  0  0  0
    3.8465    2.1529    0.0000 H   0  0  0  0  0  0  0  0  0  0  0  0
    7.4540    2.3369    0.0000 H   0  0  0  0  0  0  0  0  0  0  0  0
    7.4540    4.1243    0.0000 H   0  0  0  0  0  0  0  0  0  0  0  0
    6.2355    4.8717    0.0000 H   0  0  0  0  0  0  0  0  0  0  0  0
    4.6305    3.9451    0.0000 H   0  0  0  0  0  0  0  0  0  0  0  0
    5.1655    4.8718    0.0000 H   0  0  0  0  0  0  0  0  0  0  0  0
    6.3167   -0.1306    0.0000 H   0  0  0  0  0  0  0  0  0  0  0  0
    4.7085   -1.0591    0.0000 H   0  0  0  0  0  0  0  0  0  0  0  0
    1.8506    2.6929    0.0000 H   0  0  0  0  0  0  0  0  0  0  0  0
    0.9240    2.1579    0.0000 H   0  0  0  0  0  0  0  0  0  0  0  0
    2.7443   -1.3681    0.0000 H   0  0  0  0  0  0  0  0  0  0  0  0
   -0.4720    0.4889    0.0000 H   0  0  0  0  0  0  0  0  0  0  0  0
   -1.2194   -2.6246    0.0000 H   0  0  0  0  0  0  0  0  0  0  0  0
    0.6338   -2.6246    0.0000 H   0  0  0  0  0  0  0  0  0  0  0  0
   -0.2928   -3.1596    0.0000 H   0  0  0  0  0  0  0  0  0  0  0  0
   -0.5050   -1.9671    0.0000 H   0  0  0  0  0  0  0  0  0  0  0  0
    0.4217   -3.5721    0.0000 H   0  0  0  0  0  0  0  0  0  0  0  0
   -0.5049   -3.0371    0.0000 H   0  0  0  0  0  0  0  0  0  0  0  0
  1  2  2  0  0  0  0
  1 12  1  0  0  0  0
  1 17  1  0  0  0  0
  2  3  1  0  0  0  0
  2  6  1  0  0  0  0
  3  4  1  0  0  0  0
  3 10  2  0  0  0  0
  4  5  1  0  0  0  0
  5  6  1  0  0  0  0
  5  7  1  0  0  0  0
  5 32  1  1  0  0  0
  6 33  1  0  0  0  0
  6 34  1  0  0  0  0
  7  8  2  0  0  0  0
  7  9  1  0  0  0  0
  8 35  1  0  0  0  0
  8 36  1  0  0  0  0
  9 37  1  0  0  0  0
  9 38  1  0  0  0  0
  9 39  1  0  0  0  0
 10 11  1  0  0  0  0
 10 40  1  0  0  0  0
 11 12  2  0  0  0  0
 11 41  1  0  0  0  0
 12 13  1  0  0  0  0
 13 14  2  0  0  0  0
 13 15  1  0  0  0  0
 15 16  1  0  0  0  0
 15 21  1  0  0  0  0
 15 30  1  6  0  0  0
 16 17  1  0  0  0  0
 16 18  1  0  0  0  0
 16 31  1  6  0  0  0
 18 19  1  0  0  0  0
 18 42  1  0  0  0  0
 18 43  1  0  0  0  0
 19 20  1  0  0  0  0
 20 21  2  0  0  0  0
 20 25  1  0  0  0  0
 21 22  1  0  0  0  0
 22 23  2  0  0  0  0
 22 44  1  0  0  0  0
 23 24  1  0  0  0  0
 23 28  1  0  0  0  0
 24 25  2  0  0  0  0
 24 26  1  0  0  0  0
 25 45  1  0  0  0  0
 26 27  1  0  0  0  0
 27 46  1  0  0  0  0
 27 47  1  0  0  0  0
 27 48  1  0  0  0  0
 28 29  1  0  0  0  0
 29 49  1  0  0  0  0
 29 50  1  0  0  0  0
 29 51  1  0  0  0  0
M  END
>  <DRUGBANK_ID>
DB11457

>  <COMMON_NAME>
Rotenone

>  <CAS_NUMBER>
83-79-4

>  <UNII>
03L9OT429T

>  <SYNONYMS>
(−)-cis-rotenone; (−)-rotenone; (12aS,6aS,2R)-8,9-dimethoxy-2-(1-methylvinyl)-1,2-dihydrochromano[3,4-b]furano [2,3-h]chroman-6-one; [2R-(2α,6aα,12aα)]-1,2,12,12a-tetrahydro-8,9-dimethoxy-2-(1-methylethenyl)[1]benzopyrano[3,4-b]furo[2,3-H][1]benzopyran-6(6aH)-one; 5'β-rotenone; Dactinol; Tubatoxin

$$$$
