
 OpenBabel10282417072D

156164  0  0  0  0  0  0  0  0999 V2000
   -3.1444    3.1222    0.0000 Cl  0  0  0  0  0  0  0  0  0  0  0  0
    2.5713    3.1222    0.0000 Cl  0  0  0  0  0  0  0  0  0  0  0  0
   -6.3454    1.5195    0.0000 O   0  0  0  0  0  0  0  0  0  0  0  0
   -4.9219    1.3949    0.0000 O   0  0  0  0  0  0  0  0  0  0  0  0
   -7.2980    3.5624    0.0000 O   0  0  0  0  0  0  0  0  0  0  0  0
   -7.7712    2.8865    0.0000 O   0  0  0  0  0  0  0  0  0  0  0  0
   -6.1128   -0.5902    0.0000 O   0  0  0  0  0  0  0  0  0  0  0  0
   -2.4321    0.2387    0.0000 O   0  0  0  0  0  0  0  0  0  0  0  0
   -1.7154    2.2972    0.0000 O   0  0  0  0  0  0  0  0  0  0  0  0
   -3.1303   -2.2202    0.0000 O   0  0  0  0  0  0  0  0  0  0  0  0
   -3.2276   -1.0575    0.0000 O   0  0  0  0  0  0  0  0  0  0  0  0
   -1.0020   -1.4152    0.0000 O   0  0  0  0  0  0  0  0  0  0  0  0
   -2.4299   -3.8902    0.0000 O   0  0  0  0  0  0  0  0  0  0  0  0
   -3.1444   -4.3027    0.0000 O   0  0  0  0  0  0  0  0  0  0  0  0
   -6.0022   -4.3027    0.0000 O   0  0  0  0  0  0  0  0  0  0  0  0
    1.1424    2.2972    0.0000 O   0  0  0  0  0  0  0  0  0  0  0  0
   -0.2865    3.1222    0.0000 O   0  0  0  0  0  0  0  0  0  0  0  0
    1.1424    0.6472    0.0000 O   0  0  0  0  0  0  0  0  0  0  0  0
    4.5837    1.2306    0.0000 O   0  0  0  0  0  0  0  0  0  0  0  0
    3.2858   -1.4152    0.0000 O   0  0  0  0  0  0  0  0  0  0  0  0
    4.4273   -1.7714    0.0000 O   0  0  0  0  0  0  0  0  0  0  0  0
    1.1596   -2.0856    0.0000 O   0  0  0  0  0  0  0  0  0  0  0  0
   -5.7284    3.8390    0.0000 N   0  0  0  0  0  0  0  0  0  0  0  0
   -3.8588   -0.5902    0.0000 N   0  0  0  0  0  0  0  0  0  0  0  0
   -5.2878   -1.4152    0.0000 N   0  0  0  0  0  0  0  0  0  0  0  0
   -1.7154   -0.1777    0.0000 N   0  0  0  0  0  0  0  0  0  0  0  0
    0.4279   -0.5902    0.0000 N   0  0  0  0  0  0  0  0  0  0  0  0
    2.5713   -0.1777    0.0000 N   0  0  0  0  0  0  0  0  0  0  0  0
    4.7972   -0.3912    0.0000 N   0  0  0  0  0  0  0  0  0  0  0  0
    6.0211   -2.1984    0.0000 N   0  0  0  0  0  0  0  0  0  0  0  0
    2.4547   -2.6894    0.0000 N   0  0  0  0  0  0  0  0  0  0  0  0
   -6.2016    3.1632    0.0000 C   0  0  2  0  0  0  0  0  0  0  0  0
   -6.9493    2.8146    0.0000 C   0  0  0  0  0  0  0  0  0  0  0  0
   -5.5258    2.6900    0.0000 C   0  0  0  0  0  0  0  0  0  0  0  0
   -7.0212    1.9927    0.0000 C   0  0  2  0  0  0  0  0  0  0  0  0
   -5.5977    1.8682    0.0000 C   0  0  1  0  0  0  0  0  0  0  0  0
   -6.5503    3.9109    0.0000 C   0  0  0  0  0  0  0  0  0  0  0  0
   -7.7689    1.6442    0.0000 C   0  0  0  0  0  0  0  0  0  0  0  0
   -4.5733    0.6472    0.0000 C   0  0  1  0  0  0  0  0  0  0  0  0
   -4.5733   -0.1777    0.0000 C   0  0  1  0  0  0  0  0  0  0  0  0
   -3.8588    1.0597    0.0000 C   0  0  0  0  0  0  0  0  0  0  0  0
   -5.2878   -0.5902    0.0000 C   0  0  0  0  0  0  0  0  0  0  0  0
   -3.8588    1.8847    0.0000 C   0  0  0  0  0  0  0  0  0  0  0  0
   -3.1444    0.6472    0.0000 C   0  0  0  0  0  0  0  0  0  0  0  0
   -3.1444   -0.1777    0.0000 C   0  0  0  0  0  0  0  0  0  0  0  0
   -2.4299   -0.5902    0.0000 C   0  0  1  0  0  0  0  0  0  0  0  0
   -4.5733   -1.8277    0.0000 C   0  0  1  0  0  0  0  0  0  0  0  0
   -3.1444    2.2972    0.0000 C   0  0  0  0  0  0  0  0  0  0  0  0
   -2.4299    1.0597    0.0000 C   0  0  0  0  0  0  0  0  0  0  0  0
   -2.4299    1.8847    0.0000 C   0  0  0  0  0  0  0  0  0  0  0  0
   -2.4299   -1.4152    0.0000 C   0  0  0  0  0  0  0  0  0  0  0  0
   -4.5733   -2.6527    0.0000 C   0  0  0  0  0  0  0  0  0  0  0  0
   -3.8588   -3.0652    0.0000 C   0  0  0  0  0  0  0  0  0  0  0  0
   -3.1444   -2.6527    0.0000 C   0  0  0  0  0  0  0  0  0  0  0  0
   -3.1444   -1.8277    0.0000 C   0  0  0  0  0  0  0  0  0  0  0  0
   -3.7603   -1.6875    0.0000 C   0  0  0  0  0  0  0  0  0  0  0  0
   -1.7154   -1.8277    0.0000 C   0  0  0  0  0  0  0  0  0  0  0  0
   -1.0009   -0.5902    0.0000 C   0  0  0  0  0  0  0  0  0  0  0  0
   -0.2865   -0.1777    0.0000 C   0  0  1  0  0  0  0  0  0  0  0  0
   -5.2878   -3.0652    0.0000 C   0  0  0  0  0  0  0  0  0  0  0  0
   -2.4299   -3.0652    0.0000 C   0  0  0  0  0  0  0  0  0  0  0  0
   -3.8588   -3.8902    0.0000 C   0  0  0  0  0  0  0  0  0  0  0  0
   -1.0009    1.8847    0.0000 C   0  0  0  0  0  0  0  0  0  0  0  0
   -0.2865    0.6472    0.0000 C   0  0  0  0  0  0  0  0  0  0  0  0
   -1.7154   -2.6527    0.0000 C   0  0  0  0  0  0  0  0  0  0  0  0
   -5.2878   -3.8902    0.0000 C   0  0  0  0  0  0  0  0  0  0  0  0
   -1.0009    1.0597    0.0000 C   0  0  0  0  0  0  0  0  0  0  0  0
   -4.5733   -4.3027    0.0000 C   0  0  0  0  0  0  0  0  0  0  0  0
   -0.2865    2.2972    0.0000 C   0  0  0  0  0  0  0  0  0  0  0  0
    0.4279    1.0597    0.0000 C   0  0  0  0  0  0  0  0  0  0  0  0
    0.4279    1.8847    0.0000 C   0  0  0  0  0  0  0  0  0  0  0  0
    1.8569   -0.5902    0.0000 C   0  0  2  0  0  0  0  0  0  0  0  0
    1.1424   -0.1777    0.0000 C   0  0  0  0  0  0  0  0  0  0  0  0
    4.0003   -0.1777    0.0000 C   0  0  2  0  0  0  0  0  0  0  0  0
    5.8075   -1.4015    0.0000 C   0  0  2  0  0  0  0  0  0  0  0  0
    6.3909   -0.8182    0.0000 C   0  0  0  0  0  0  0  0  0  0  0  0
    7.1878   -1.0317    0.0000 C   0  0  0  0  0  0  0  0  0  0  0  0
    4.0003    0.6472    0.0000 C   0  0  1  0  0  0  0  0  0  0  0  0
    3.2858   -0.5902    0.0000 C   0  0  0  0  0  0  0  0  0  0  0  0
    2.3301   -1.2659    0.0000 C   0  0  0  0  0  0  0  0  0  0  0  0
    5.0107   -1.1880    0.0000 C   0  0  0  0  0  0  0  0  0  0  0  0
    3.2858    1.0597    0.0000 C   0  0  0  0  0  0  0  0  0  0  0  0
    7.4014   -1.8286    0.0000 C   0  0  0  0  0  0  0  0  0  0  0  0
    7.7712   -0.4483    0.0000 C   0  0  0  0  0  0  0  0  0  0  0  0
    1.8569    1.8847    0.0000 C   0  0  0  0  0  0  0  0  0  0  0  0
    3.2858    1.8847    0.0000 C   0  0  0  0  0  0  0  0  0  0  0  0
    2.5713    0.6472    0.0000 C   0  0  0  0  0  0  0  0  0  0  0  0
    2.5713    2.2972    0.0000 C   0  0  0  0  0  0  0  0  0  0  0  0
    1.8569    1.0597    0.0000 C   0  0  0  0  0  0  0  0  0  0  0  0
    1.9814   -2.0136    0.0000 C   0  0  0  0  0  0  0  0  0  0  0  0
    6.8180   -2.4120    0.0000 C   0  0  0  0  0  0  0  0  0  0  0  0
   -5.2189    3.7945    0.0000 H   0  0  0  0  0  0  0  0  0  0  0  0
   -5.9446    4.3027    0.0000 H   0  0  0  0  0  0  0  0  0  0  0  0
   -5.1449    0.1522    0.0000 H   0  0  0  0  0  0  0  0  0  0  0  0
   -3.8588   -1.1017    0.0000 H   0  0  0  0  0  0  0  0  0  0  0  0
   -5.7307   -1.6709    0.0000 H   0  0  0  0  0  0  0  0  0  0  0  0
   -1.9140   -1.0018    0.0000 H   0  0  0  0  0  0  0  0  0  0  0  0
   -1.7154    0.3337    0.0000 H   0  0  0  0  0  0  0  0  0  0  0  0
   -0.2865   -0.8377    0.0000 H   0  0  0  0  0  0  0  0  0  0  0  0
    0.4279   -1.1017    0.0000 H   0  0  0  0  0  0  0  0  0  0  0  0
    2.1629    0.1302    0.0000 H   0  0  0  0  0  0  0  0  0  0  0  0
    5.1588   -0.0295    0.0000 H   0  0  0  0  0  0  0  0  0  0  0  0
    5.6595   -2.5602    0.0000 H   0  0  0  0  0  0  0  0  0  0  0  0
    2.2385   -3.1530    0.0000 H   0  0  0  0  0  0  0  0  0  0  0  0
    2.9642   -2.6448    0.0000 H   0  0  0  0  0  0  0  0  0  0  0  0
   -6.7606    4.3299    0.0000 H   0  0  0  0  0  0  0  0  0  0  0  0
   -8.1672    3.7357    0.0000 H   0  0  0  0  0  0  0  0  0  0  0  0
   -3.2965   -3.1423    0.0000 H   0  0  0  0  0  0  0  0  0  0  0  0
   -3.2414   -4.3587    0.0000 H   0  0  0  0  0  0  0  0  0  0  0  0
   -3.1444   -5.2397    0.0000 H   0  0  0  0  0  0  0  0  0  0  0  0
   -6.8137   -3.8342    0.0000 H   0  0  0  0  0  0  0  0  0  0  0  0
    0.5250    3.5907    0.0000 H   0  0  0  0  0  0  0  0  0  0  0  0
    5.5206    0.9795    0.0000 H   0  0  0  0  0  0  0  0  0  0  0  0
   -4.5561    3.1422    0.0000 H   0  0  0  0  0  0  0  0  0  0  0  0
   -4.6493    2.0763    0.0000 H   0  0  0  0  0  0  0  0  0  0  0  0
   -7.1145    0.9268    0.0000 H   0  0  0  0  0  0  0  0  0  0  0  0
   -5.6910    0.8023    0.0000 H   0  0  0  0  0  0  0  0  0  0  0  0
   -5.9366    4.7874    0.0000 H   0  0  0  0  0  0  0  0  0  0  0  0
   -7.6162    4.0041    0.0000 H   0  0  0  0  0  0  0  0  0  0  0  0
   -7.0025    4.8806    0.0000 H   0  0  0  0  0  0  0  0  0  0  0  0
   -8.6453    2.2581    0.0000 H   0  0  0  0  0  0  0  0  0  0  0  0
   -7.8623    0.5783    0.0000 H   0  0  0  0  0  0  0  0  0  0  0  0
   -8.7387    1.1922    0.0000 H   0  0  0  0  0  0  0  0  0  0  0  0
   -5.6179    0.4156    0.0000 H   0  0  0  0  0  0  0  0  0  0  0  0
   -4.7525    2.4007    0.0000 H   0  0  0  0  0  0  0  0  0  0  0  0
   -3.1444   -0.3848    0.0000 H   0  0  0  0  0  0  0  0  0  0  0  0
   -4.3855   -0.7743    0.0000 H   0  0  0  0  0  0  0  0  0  0  0  0
   -1.5362    0.5437    0.0000 H   0  0  0  0  0  0  0  0  0  0  0  0
   -4.0381   -1.3117    0.0000 H   0  0  0  0  0  0  0  0  0  0  0  0
   -0.8217   -1.3117    0.0000 H   0  0  0  0  0  0  0  0  0  0  0  0
   -6.1815   -2.5492    0.0000 H   0  0  0  0  0  0  0  0  0  0  0  0
   -0.8217   -3.1687    0.0000 H   0  0  0  0  0  0  0  0  0  0  0  0
   -1.8946    0.5437    0.0000 H   0  0  0  0  0  0  0  0  0  0  0  0
   -4.5733   -5.3347    0.0000 H   0  0  0  0  0  0  0  0  0  0  0  0
    1.3216    0.5437    0.0000 H   0  0  0  0  0  0  0  0  0  0  0  0
    2.9015   -0.8217    0.0000 H   0  0  0  0  0  0  0  0  0  0  0  0
    4.8492    0.4737    0.0000 H   0  0  0  0  0  0  0  0  0  0  0  0
    6.8410   -1.6784    0.0000 H   0  0  0  0  0  0  0  0  0  0  0  0
    6.1140    0.2153    0.0000 H   0  0  0  0  0  0  0  0  0  0  0  0
    7.1475   -0.0616    0.0000 H   0  0  0  0  0  0  0  0  0  0  0  0
    8.2214   -1.3086    0.0000 H   0  0  0  0  0  0  0  0  0  0  0  0
    4.9889    0.2377    0.0000 H   0  0  0  0  0  0  0  0  0  0  0  0
    3.3960   -1.1726    0.0000 H   0  0  0  0  0  0  0  0  0  0  0  0
    2.9438   -2.1424    0.0000 H   0  0  0  0  0  0  0  0  0  0  0  0
    6.6449   -2.5853    0.0000 H   0  0  0  0  0  0  0  0  0  0  0  0
    8.4350   -2.1055    0.0000 H   0  0  0  0  0  0  0  0  0  0  0  0
    7.6784   -2.8621    0.0000 H   0  0  0  0  0  0  0  0  0  0  0  0
    8.8047   -0.7252    0.0000 H   0  0  0  0  0  0  0  0  0  0  0  0
    7.4943    0.5852    0.0000 H   0  0  0  0  0  0  0  0  0  0  0  0
    8.5278    0.3083    0.0000 H   0  0  0  0  0  0  0  0  0  0  0  0
    4.1795    2.4007    0.0000 H   0  0  0  0  0  0  0  0  0  0  0  0
    2.5713   -0.3848    0.0000 H   0  0  0  0  0  0  0  0  0  0  0  0
    0.9632    0.5437    0.0000 H   0  0  0  0  0  0  0  0  0  0  0  0
    7.0949   -3.4456    0.0000 H   0  0  0  0  0  0  0  0  0  0  0  0
    7.5747   -1.6555    0.0000 H   0  0  0  0  0  0  0  0  0  0  0  0
    7.8515   -2.6890    0.0000 H   0  0  0  0  0  0  0  0  0  0  0  0
  1 48  1  0  0  0  0
  2 88  1  0  0  0  0
  3 35  1  0  0  0  0
  3 36  1  0  0  0  0
  5 33  1  0  0  0  0
  5106  1  0  0  0  0
  6 33  1  0  0  0  0
  6107  1  0  0  0  0
  7 42  2  0  0  0  0
  8 45  2  0  0  0  0
  9 50  1  0  0  0  0
  9 63  1  0  0  0  0
 10 56  1  0  0  0  0
 10108  1  0  0  0  0
 11 56  2  0  0  0  0
 12 58  2  0  0  0  0
 13 61  1  0  0  0  0
 13109  1  0  0  0  0
 14 62  1  0  0  0  0
 14110  1  0  0  0  0
 15 66  1  0  0  0  0
 15111  1  0  0  0  0
 16 71  1  0  0  0  0
 16 85  1  0  0  0  0
 17 69  1  0  0  0  0
 17112  1  0  0  0  0
 18 73  2  0  0  0  0
 19113  1  0  0  0  0
 20 79  2  0  0  0  0
 21 81  2  0  0  0  0
 22 90  2  0  0  0  0
 23 92  1  0  0  0  0
 23 93  1  0  0  0  0
 24 40  1  0  0  0  0
 24 45  1  0  0  0  0
 24 95  1  0  0  0  0
 25 42  1  0  0  0  0
 25 47  1  0  0  0  0
 25 96  1  0  0  0  0
 26 46  1  0  0  0  0
 26 58  1  0  0  0  0
 26 98  1  0  0  0  0
 27 59  1  0  0  0  0
 27 73  1  0  0  0  0
 27100  1  0  0  0  0
 28 72  1  0  0  0  0
 28 79  1  0  0  0  0
 28101  1  0  0  0  0
 29 81  1  0  0  0  0
 29102  1  0  0  0  0
 30 91  1  0  0  0  0
 30103  1  0  0  0  0
 31 90  1  0  0  0  0
 31104  1  0  0  0  0
 31105  1  0  0  0  0
 32 23  1  1  0  0  0
 32 33  1  0  0  0  0
 32 34  1  0  0  0  0
 32 37  1  0  0  0  0
 33 35  1  0  0  0  0
 34 36  1  0  0  0  0
 34114  1  0  0  0  0
 34115  1  0  0  0  0
 35 38  1  0  0  0  0
 35116  1  6  0  0  0
 36  4  1  0  0  0  0
 36117  1  1  0  0  0
 37118  1  0  0  0  0
 37119  1  0  0  0  0
 37120  1  0  0  0  0
 38121  1  0  0  0  0
 38122  1  0  0  0  0
 38123  1  0  0  0  0
 39  4  1  0  0  0  0
 39 40  1  0  0  0  0
 39 41  1  0  0  0  0
 39124  1  1  0  0  0
 40 42  1  0  0  0  0
 40 94  1  1  0  0  0
 41 43  2  0  0  0  0
 41 44  1  0  0  0  0
 43 48  1  0  0  0  0
 43125  1  0  0  0  0
 44 49  2  0  0  0  0
 44126  1  0  0  0  0
 45 46  1  0  0  0  0
 46 51  1  0  0  0  0
 46 97  1  1  0  0  0
 47 52  1  0  0  0  0
 47 56  1  0  0  0  0
 47127  1  1  0  0  0
 48 50  2  0  0  0  0
 49 50  1  0  0  0  0
 49128  1  0  0  0  0
 51 55  2  0  0  0  0
 51 57  1  0  0  0  0
 52 53  2  0  0  0  0
 52 60  1  0  0  0  0
 53 54  1  0  0  0  0
 53 62  1  0  0  0  0
 54 55  1  0  0  0  0
 54 61  2  0  0  0  0
 55129  1  0  0  0  0
 57 65  2  0  0  0  0
 57130  1  0  0  0  0
 58 59  1  0  0  0  0
 59 64  1  0  0  0  0
 59 99  1  6  0  0  0
 60 66  2  0  0  0  0
 60131  1  0  0  0  0
 61 65  1  0  0  0  0
 62 68  2  0  0  0  0
 63 67  2  0  0  0  0
 63 69  1  0  0  0  0
 64 67  1  0  0  0  0
 64 70  2  0  0  0  0
 65132  1  0  0  0  0
 66 68  1  0  0  0  0
 67133  1  0  0  0  0
 68134  1  0  0  0  0
 69 71  2  0  0  0  0
 70 71  1  0  0  0  0
 70135  1  0  0  0  0
 72 73  1  0  0  0  0
 72 80  1  0  0  0  0
 72136  1  6  0  0  0
 74 29  1  0  0  0  0
 74 78  1  0  0  0  0
 74 79  1  0  0  0  0
 74137  1  6  0  0  0
 75 30  1  0  0  0  0
 75 76  1  0  0  0  0
 75 81  1  0  0  0  0
 75138  1  6  0  0  0
 76 77  1  0  0  0  0
 76139  1  0  0  0  0
 76140  1  0  0  0  0
 77 83  1  0  0  0  0
 77 84  1  0  0  0  0
 77141  1  0  0  0  0
 78 19  1  0  0  0  0
 78 82  1  0  0  0  0
 78142  1  6  0  0  0
 80 90  1  0  0  0  0
 80143  1  0  0  0  0
 80144  1  0  0  0  0
 82 86  2  0  0  0  0
 82 87  1  0  0  0  0
 83145  1  0  0  0  0
 83146  1  0  0  0  0
 83147  1  0  0  0  0
 84148  1  0  0  0  0
 84149  1  0  0  0  0
 84150  1  0  0  0  0
 85 88  2  0  0  0  0
 85 89  1  0  0  0  0
 86 88  1  0  0  0  0
 86151  1  0  0  0  0
 87 89  2  0  0  0  0
 87152  1  0  0  0  0
 89153  1  0  0  0  0
 91154  1  0  0  0  0
 91155  1  0  0  0  0
 91156  1  0  0  0  0
M  END
>  <DRUGBANK_ID>
DB02792

>  <SECONDARY_ACCESSION_NUMBERS>
EXPT01122

>  <COMMON_NAME>
Deglucobalhimycin

$$$$
