NA4
 OpenBabel10282417072D

 39 40  0  0  0  0  0  0  0  0999 V2000
   -0.2451    0.1145    0.0000 C   0  0  0  0  0  0  0  0  0  0  0  0
   -0.9595    0.5270    0.0000 C   0  0  0  0  0  0  0  0  0  0  0  0
   -0.9595    1.3520    0.0000 C   0  0  0  0  0  0  0  0  0  0  0  0
   -0.2451    1.7645    0.0000 N   0  0  0  0  0  0  0  0  0  0  0  0
    0.4694    1.3520    0.0000 C   0  0  0  0  0  0  0  0  0  0  0  0
    0.4694    0.5270    0.0000 C   0  0  0  0  0  0  0  0  0  0  0  0
    1.1839    0.1145    0.0000 C   0  0  0  0  0  0  0  0  0  0  0  0
    1.1839   -0.7105    0.0000 O   0  0  0  0  0  0  0  0  0  0  0  0
    1.8983    0.5270    0.0000 N   0  0  0  0  0  0  0  0  0  0  0  0
    2.6128    0.1145    0.0000 C   0  0  1  0  0  0  0  0  0  0  0  0
    3.3273    0.5270    0.0000 C   0  0  0  0  0  0  0  0  0  0  0  0
    2.6128   -0.7105    0.0000 C   0  0  0  0  0  0  0  0  0  0  0  0
    3.3273   -1.1230    0.0000 O   0  0  0  0  0  0  0  0  0  0  0  0
    4.0418    0.1145    0.0000 C   0  0  0  0  0  0  0  0  0  0  0  0
    4.7562    0.5270    0.0000 O   0  0  0  0  0  0  0  0  0  0  0  0
    4.0418   -0.7105    0.0000 O   0  0  0  0  0  0  0  0  0  0  0  0
   -3.1030    0.1145    0.0000 C   0  0  0  0  0  0  0  0  0  0  0  0
   -2.3885    0.5270    0.0000 C   0  0  0  0  0  0  0  0  0  0  0  0
   -1.6740    0.1145    0.0000 C   0  0  0  0  0  0  0  0  0  0  0  0
   -1.6740   -0.7105    0.0000 C   0  0  0  0  0  0  0  0  0  0  0  0
   -2.3885   -1.1230    0.0000 C   0  0  0  0  0  0  0  0  0  0  0  0
   -3.1030   -0.7105    0.0000 C   0  0  0  0  0  0  0  0  0  0  0  0
   -3.8174   -1.1230    0.0000 C   0  0  0  0  0  0  0  0  0  0  0  0
   -3.8174   -1.9480    0.0000 O   0  0  0  0  0  0  0  0  0  0  0  0
   -4.5319   -0.7105    0.0000 O   0  0  0  0  0  0  0  0  0  0  0  0
    2.6128    0.6985    0.0000 H   0  0  0  0  0  0  0  0  0  0  0  0
   -0.2451   -0.9175    0.0000 H   0  0  0  0  0  0  0  0  0  0  0  0
   -1.8532    1.8680    0.0000 H   0  0  0  0  0  0  0  0  0  0  0  0
    1.3631    1.8680    0.0000 H   0  0  0  0  0  0  0  0  0  0  0  0
    1.8983    1.5115    0.0000 H   0  0  0  0  0  0  0  0  0  0  0  0
    3.3273    1.5970    0.0000 H   0  0  0  0  0  0  0  0  0  0  0  0
    4.2539    1.0620    0.0000 H   0  0  0  0  0  0  0  0  0  0  0  0
    1.7191   -1.2265    0.0000 H   0  0  0  0  0  0  0  0  0  0  0  0
    3.2303   -1.1790    0.0000 H   0  0  0  0  0  0  0  0  0  0  0  0
   -3.9967    0.6305    0.0000 H   0  0  0  0  0  0  0  0  0  0  0  0
   -2.3885    1.5590    0.0000 H   0  0  0  0  0  0  0  0  0  0  0  0
   -0.7803   -1.2265    0.0000 H   0  0  0  0  0  0  0  0  0  0  0  0
   -2.3885   -2.1550    0.0000 H   0  0  0  0  0  0  0  0  0  0  0  0
   -4.6289   -2.4165    0.0000 H   0  0  0  0  0  0  0  0  0  0  0  0
  1  2  2  0  0  0  0
  1  6  1  0  0  0  0
  1 27  1  0  0  0  0
  2  3  1  0  0  0  0
  2 19  1  0  0  0  0
  3  4  2  0  0  0  0
  3 28  1  0  0  0  0
  4  5  1  0  0  0  0
  5  6  2  0  0  0  0
  5 29  1  0  0  0  0
  6  7  1  0  0  0  0
  7  8  2  0  0  0  0
  7  9  1  0  0  0  0
  9 30  1  0  0  0  0
 10  9  1  0  0  0  0
 10 11  1  0  0  0  0
 10 12  1  0  0  0  0
 10 26  1  6  0  0  0
 11 14  1  0  0  0  0
 11 31  1  0  0  0  0
 11 32  1  0  0  0  0
 12 13  2  0  0  0  0
 12 33  1  0  0  0  0
 14 15  2  0  0  0  0
 14 16  1  0  0  0  0
 16 34  1  0  0  0  0
 17 18  2  0  0  0  0
 17 22  1  0  0  0  0
 17 35  1  0  0  0  0
 18 19  1  0  0  0  0
 18 36  1  0  0  0  0
 19 20  2  0  0  0  0
 20 21  1  0  0  0  0
 20 37  1  0  0  0  0
 21 22  2  0  0  0  0
 21 38  1  0  0  0  0
 22 23  1  0  0  0  0
 23 24  1  0  0  0  0
 23 25  2  0  0  0  0
 24 39  1  0  0  0  0
M  END
>  <DRUGBANK_ID>
DB08251

>  <COMMON_NAME>
4-[5-(2-CARBOXY-1-FORMYL-ETHYLCARBAMOYL)-PYRIDIN-3-YL]-BENZOIC ACID

$$$$
