979
 OpenBabel10282417072D

 55 59  0  0  0  0  0  0  0  0999 V2000
    1.5887    0.6107    0.0000 C   0  0  0  0  0  0  0  0  0  0  0  0
    0.8742    1.0232    0.0000 N   0  0  0  0  0  0  0  0  0  0  0  0
    0.1598    0.6107    0.0000 C   0  0  0  0  0  0  0  0  0  0  0  0
    0.1598   -0.2143    0.0000 C   0  0  0  0  0  0  0  0  0  0  0  0
    0.8742   -0.6268    0.0000 C   0  0  0  0  0  0  0  0  0  0  0  0
    1.5887   -0.2143    0.0000 N   0  0  0  0  0  0  0  0  0  0  0  0
   -0.6249    0.8656    0.0000 O   0  0  0  0  0  0  0  0  0  0  0  0
   -1.1098    0.1982    0.0000 C   0  0  0  0  0  0  0  0  0  0  0  0
   -0.6249   -0.4693    0.0000 C   0  0  0  0  0  0  0  0  0  0  0  0
    0.8742   -1.4518    0.0000 N   0  0  0  0  0  0  0  0  0  0  0  0
    1.5887   -1.8643    0.0000 C   0  0  0  0  0  0  0  0  0  0  0  0
    1.5887   -2.6893    0.0000 C   0  0  0  0  0  0  0  0  0  0  0  0
    2.3032   -3.1018    0.0000 N   0  0  0  0  0  0  0  0  0  0  0  0
   -0.8798   -1.2539    0.0000 C   0  0  0  0  0  0  0  0  0  0  0  0
   -1.6868   -1.4254    0.0000 C   0  0  0  0  0  0  0  0  0  0  0  0
   -1.9417   -2.2100    0.0000 C   0  0  0  0  0  0  0  0  0  0  0  0
   -1.3897   -2.8231    0.0000 C   0  0  0  0  0  0  0  0  0  0  0  0
   -0.5827   -2.6516    0.0000 C   0  0  0  0  0  0  0  0  0  0  0  0
   -0.3278   -1.8670    0.0000 C   0  0  0  0  0  0  0  0  0  0  0  0
   -1.9348    0.1982    0.0000 C   0  0  0  0  0  0  0  0  0  0  0  0
   -2.3473   -0.5163    0.0000 C   0  0  0  0  0  0  0  0  0  0  0  0
   -3.1723   -0.5163    0.0000 C   0  0  0  0  0  0  0  0  0  0  0  0
   -3.5848    0.1982    0.0000 C   0  0  0  0  0  0  0  0  0  0  0  0
   -3.1723    0.9126    0.0000 C   0  0  0  0  0  0  0  0  0  0  0  0
   -2.3473    0.9126    0.0000 C   0  0  0  0  0  0  0  0  0  0  0  0
    2.3032   -3.9268    0.0000 C   0  0  0  0  0  0  0  0  0  0  0  0
    3.0176   -2.6893    0.0000 C   0  0  0  0  0  0  0  0  0  0  0  0
    3.0176   -4.3393    0.0000 C   0  0  0  0  0  0  0  0  0  0  0  0
    3.7321   -3.1018    0.0000 C   0  0  0  0  0  0  0  0  0  0  0  0
    3.7321   -3.9268    0.0000 N   0  0  0  0  0  0  0  0  0  0  0  0
    2.4824    1.1267    0.0000 H   0  0  0  0  0  0  0  0  0  0  0  0
    0.0216   -1.9441    0.0000 H   0  0  0  0  0  0  0  0  0  0  0  0
    2.5153   -1.3293    0.0000 H   0  0  0  0  0  0  0  0  0  0  0  0
    2.5153   -2.3993    0.0000 H   0  0  0  0  0  0  0  0  0  0  0  0
    0.6621   -3.2243    0.0000 H   0  0  0  0  0  0  0  0  0  0  0  0
    1.5887   -3.7593    0.0000 H   0  0  0  0  0  0  0  0  0  0  0  0
   -2.3773   -0.6585    0.0000 H   0  0  0  0  0  0  0  0  0  0  0  0
   -2.9511   -2.4246    0.0000 H   0  0  0  0  0  0  0  0  0  0  0  0
   -1.7086   -3.8046    0.0000 H   0  0  0  0  0  0  0  0  0  0  0  0
    0.1078   -3.4185    0.0000 H   0  0  0  0  0  0  0  0  0  0  0  0
    0.6816   -1.6524    0.0000 H   0  0  0  0  0  0  0  0  0  0  0  0
   -1.8313   -1.4100    0.0000 H   0  0  0  0  0  0  0  0  0  0  0  0
   -3.6883   -1.4100    0.0000 H   0  0  0  0  0  0  0  0  0  0  0  0
   -4.6168    0.1982    0.0000 H   0  0  0  0  0  0  0  0  0  0  0  0
   -3.6883    1.8063    0.0000 H   0  0  0  0  0  0  0  0  0  0  0  0
   -1.8313    1.8063    0.0000 H   0  0  0  0  0  0  0  0  0  0  0  0
    1.3765   -4.4618    0.0000 H   0  0  0  0  0  0  0  0  0  0  0  0
    2.3032   -4.9968    0.0000 H   0  0  0  0  0  0  0  0  0  0  0  0
    3.0176   -1.6193    0.0000 H   0  0  0  0  0  0  0  0  0  0  0  0
    3.9442   -2.1543    0.0000 H   0  0  0  0  0  0  0  0  0  0  0  0
    3.0176   -5.4093    0.0000 H   0  0  0  0  0  0  0  0  0  0  0  0
    3.9442   -4.8743    0.0000 H   0  0  0  0  0  0  0  0  0  0  0  0
    4.6587   -2.5668    0.0000 H   0  0  0  0  0  0  0  0  0  0  0  0
    4.6587   -3.6368    0.0000 H   0  0  0  0  0  0  0  0  0  0  0  0
    4.6154   -4.4368    0.0000 H   0  0  0  0  0  0  0  0  0  0  0  0
  1  6  2  0  0  0  0
  1  2  1  0  0  0  0
  1 31  1  0  0  0  0
  2  3  2  0  0  0  0
  3  4  1  0  0  0  0
  3  7  1  0  0  0  0
  4  5  2  0  0  0  0
  4  9  1  0  0  0  0
  5  6  1  0  0  0  0
  5 10  1  0  0  0  0
  7  8  1  0  0  0  0
  8  9  2  0  0  0  0
  8 20  1  0  0  0  0
  9 14  1  0  0  0  0
 10 11  1  0  0  0  0
 10 32  1  0  0  0  0
 11 12  1  0  0  0  0
 11 33  1  0  0  0  0
 11 34  1  0  0  0  0
 12 13  1  0  0  0  0
 12 35  1  0  0  0  0
 12 36  1  0  0  0  0
 13 27  1  0  0  0  0
 13 26  1  0  0  0  0
 14 19  2  0  0  0  0
 14 15  1  0  0  0  0
 15 16  2  0  0  0  0
 15 37  1  0  0  0  0
 16 17  1  0  0  0  0
 16 38  1  0  0  0  0
 17 18  2  0  0  0  0
 17 39  1  0  0  0  0
 18 19  1  0  0  0  0
 18 40  1  0  0  0  0
 19 41  1  0  0  0  0
 20 21  2  0  0  0  0
 20 25  1  0  0  0  0
 21 22  1  0  0  0  0
 21 42  1  0  0  0  0
 22 23  2  0  0  0  0
 22 43  1  0  0  0  0
 23 24  1  0  0  0  0
 23 44  1  0  0  0  0
 24 25  2  0  0  0  0
 24 45  1  0  0  0  0
 25 46  1  0  0  0  0
 26 28  1  0  0  0  0
 26 47  1  0  0  0  0
 26 48  1  0  0  0  0
 27 29  1  0  0  0  0
 27 49  1  0  0  0  0
 27 50  1  0  0  0  0
 28 30  1  0  0  0  0
 28 51  1  0  0  0  0
 28 52  1  0  0  0  0
 29 30  1  0  0  0  0
 29 53  1  0  0  0  0
 29 54  1  0  0  0  0
 30 55  1  0  0  0  0
M  END
>  <DRUGBANK_ID>
DB07297

>  <COMMON_NAME>
5,6-DIPHENYL-N-(2-PIPERAZIN-1-YLETHYL)FURO[2,3-D]PYRIMIDIN-4-AMINE

$$$$
