
 OpenBabel10282417072D

 78 79  0  0  1  0  0  0  0  0999 V2000
   -4.1503   -0.8486    0.0000 O   0  0  0  0  0  0  0  0  0  0  0  0
   -4.1503   -0.0236    0.0000 S   0  0  0  0  0  0  0  0  0  0  0  0
   -4.1503    0.8013    0.0000 O   0  0  0  0  0  0  0  0  0  0  0  0
   -3.3253   -0.0236    0.0000 O   0  0  0  0  0  0  0  0  0  0  0  0
   -4.9753   -0.0236    0.0000 O   0  0  0  0  0  0  0  0  0  0  0  0
   -0.7226    2.8128    0.0000 H   0  0  0  0  0  0  0  0  0  0  0  0
    0.0123    2.4383    0.0000 C   0  0  1  0  0  0  0  0  0  0  0  0
    0.6798    1.9533    0.0000 O   0  0  0  0  0  0  0  0  0  0  0  0
    0.4248    1.1687    0.0000 C   0  0  1  0  0  0  0  0  0  0  0  0
    0.9098    0.5013    0.0000 O   0  0  0  0  0  0  0  0  0  0  0  0
    1.7303    0.5875    0.0000 C   0  0  2  0  0  0  0  0  0  0  0  0
    1.3947   -0.1661    0.0000 H   0  0  0  0  0  0  0  0  0  0  0  0
    2.0658    1.3412    0.0000 C   0  0  1  0  0  0  0  0  0  0  0  0
    1.5809    2.0086    0.0000 O   0  0  0  0  0  0  0  0  0  0  0  0
    2.8863    1.4274    0.0000 C   0  0  2  0  0  0  0  0  0  0  0  0
    3.2218    2.1811    0.0000 N   0  0  0  0  0  0  0  0  0  0  0  0
    3.3712    0.7600    0.0000 C   0  0  0  0  0  0  0  0  0  0  0  0
    3.0356    0.0063    0.0000 C   0  0  2  0  0  0  0  0  0  0  0  0
    3.5206   -0.6610    0.0000 N   0  0  0  0  0  0  0  0  0  0  0  0
    2.2152   -0.0798    0.0000 C   0  0  1  0  0  0  0  0  0  0  0  0
    1.8796   -0.8335    0.0000 O   0  0  0  0  0  0  0  0  0  0  0  0
    2.3645   -1.5010    0.0000 C   0  0  1  0  0  0  0  0  0  0  0  0
    1.5440   -1.5872    0.0000 H   0  0  0  0  0  0  0  0  0  0  0  0
    3.1850   -1.4147    0.0000 O   0  0  0  0  0  0  0  0  0  0  0  0
    3.6699   -2.0822    0.0000 C   0  0  2  0  0  0  0  0  0  0  0  0
    4.1548   -2.7496    0.0000 H   0  0  0  0  0  0  0  0  0  0  0  0
    4.4904   -1.9959    0.0000 C   0  0  1  0  0  0  0  0  0  0  0  0
    4.9753   -2.6634    0.0000 C   0  0  0  0  0  0  0  0  0  0  0  0
    4.8260   -1.2422    0.0000 O   0  0  0  0  0  0  0  0  0  0  0  0
    3.3343   -2.8358    0.0000 C   0  0  1  0  0  0  0  0  0  0  0  0
    3.8193   -3.5033    0.0000 O   0  0  0  0  0  0  0  0  0  0  0  0
    2.5139   -2.9221    0.0000 C   0  0  2  0  0  0  0  0  0  0  0  0
    2.1783   -3.6758    0.0000 O   0  0  0  0  0  0  0  0  0  0  0  0
    2.0290   -2.2546    0.0000 C   0  0  1  0  0  0  0  0  0  0  0  0
    1.2085   -2.3409    0.0000 N   0  0  0  0  0  0  0  0  0  0  0  0
   -0.4001    1.1687    0.0000 C   0  0  2  0  0  0  0  0  0  0  0  0
   -0.8850    0.5013    0.0000 O   0  0  0  0  0  0  0  0  0  0  0  0
   -0.6550    1.9533    0.0000 C   0  0  2  0  0  0  0  0  0  0  0  0
   -1.4396    2.2083    0.0000 O   0  0  0  0  0  0  0  0  0  0  0  0
    0.0123    3.2633    0.0000 C   0  0  2  0  0  0  0  0  0  0  0  0
    0.7268    3.6758    0.0000 C   0  0  0  0  0  0  0  0  0  0  0  0
   -0.7021    3.6758    0.0000 N   0  0  0  0  0  0  0  0  0  0  0  0
   -4.9903   -1.3336    0.0000 H   0  0  0  0  0  0  0  0  0  0  0  0
   -3.3103    1.2863    0.0000 H   0  0  0  0  0  0  0  0  0  0  0  0
    1.4816    1.3361    0.0000 H   0  0  0  0  0  0  0  0  0  0  0  0
    1.0017    1.2293    0.0000 H   0  0  0  0  0  0  0  0  0  0  0  0
    1.9754    2.8947    0.0000 H   0  0  0  0  0  0  0  0  0  0  0  0
    2.2574    2.2930    0.0000 H   0  0  0  0  0  0  0  0  0  0  0  0
    4.2362    2.2878    0.0000 H   0  0  0  0  0  0  0  0  0  0  0  0
    2.6222    3.0063    0.0000 H   0  0  0  0  0  0  0  0  0  0  0  0
    4.4353    0.8718    0.0000 H   0  0  0  0  0  0  0  0  0  0  0  0
    4.0001   -0.1057    0.0000 H   0  0  0  0  0  0  0  0  0  0  0  0
    4.0997    0.1182    0.0000 H   0  0  0  0  0  0  0  0  0  0  0  0
    3.1059   -1.5929    0.0000 H   0  0  0  0  0  0  0  0  0  0  0  0
    4.5350   -0.5542    0.0000 H   0  0  0  0  0  0  0  0  0  0  0  0
    2.8440   -0.9455    0.0000 H   0  0  0  0  0  0  0  0  0  0  0  0
    3.8615   -1.1303    0.0000 H   0  0  0  0  0  0  0  0  0  0  0  0
    4.5400   -3.6409    0.0000 H   0  0  0  0  0  0  0  0  0  0  0  0
    6.0394   -2.5516    0.0000 H   0  0  0  0  0  0  0  0  0  0  0  0
    5.6042   -3.5291    0.0000 H   0  0  0  0  0  0  0  0  0  0  0  0
    5.7907   -1.1408    0.0000 H   0  0  0  0  0  0  0  0  0  0  0  0
    4.3984   -2.7240    0.0000 H   0  0  0  0  0  0  0  0  0  0  0  0
    3.4248   -4.3895    0.0000 H   0  0  0  0  0  0  0  0  0  0  0  0
    3.1429   -3.7877    0.0000 H   0  0  0  0  0  0  0  0  0  0  0  0
    1.2136   -3.7772    0.0000 H   0  0  0  0  0  0  0  0  0  0  0  0
    1.5938   -3.2321    0.0000 H   0  0  0  0  0  0  0  0  0  0  0  0
    0.6089   -1.5157    0.0000 H   0  0  0  0  0  0  0  0  0  0  0  0
    0.7937   -3.2727    0.0000 H   0  0  0  0  0  0  0  0  0  0  0  0
    0.0857    0.2153    0.0000 H   0  0  0  0  0  0  0  0  0  0  0  0
   -1.8497    0.6027    0.0000 H   0  0  0  0  0  0  0  0  0  0  0  0
   -1.4116    1.1967    0.0000 H   0  0  0  0  0  0  0  0  0  0  0  0
   -1.6412    3.1571    0.0000 H   0  0  0  0  0  0  0  0  0  0  0  0
    0.0123    4.3333    0.0000 H   0  0  0  0  0  0  0  0  0  0  0  0
    1.6534    3.1408    0.0000 H   0  0  0  0  0  0  0  0  0  0  0  0
    0.7268    4.7458    0.0000 H   0  0  0  0  0  0  0  0  0  0  0  0
    1.6535    4.2108    0.0000 H   0  0  0  0  0  0  0  0  0  0  0  0
   -0.7021    4.6958    0.0000 H   0  0  0  0  0  0  0  0  0  0  0  0
   -1.5855    3.1658    0.0000 H   0  0  0  0  0  0  0  0  0  0  0  0
  1  2  1  0  0  0  0
  1 43  1  0  0  0  0
  2  3  1  0  0  0  0
  2  4  2  0  0  0  0
  2  5  2  0  0  0  0
  3 44  1  0  0  0  0
  7  6  1  6  0  0  0
  7  8  1  0  0  0  0
  7 38  1  0  0  0  0
  7 40  1  0  0  0  0
  9  8  1  0  0  0  0
  9 10  1  0  0  0  0
  9 45  1  6  0  0  0
 11 10  1  0  0  0  0
 11 12  1  1  0  0  0
 11 13  1  0  0  0  0
 11 20  1  0  0  0  0
 13 14  1  0  0  0  0
 13 15  1  0  0  0  0
 13 46  1  6  0  0  0
 14 47  1  0  0  0  0
 15 16  1  0  0  0  0
 15 17  1  0  0  0  0
 15 48  1  1  0  0  0
 16 49  1  0  0  0  0
 16 50  1  0  0  0  0
 17 51  1  0  0  0  0
 17 52  1  0  0  0  0
 18 17  1  0  0  0  0
 18 19  1  0  0  0  0
 18 53  1  1  0  0  0
 19 54  1  0  0  0  0
 19 55  1  0  0  0  0
 20 18  1  0  0  0  0
 20 21  1  0  0  0  0
 20 56  1  6  0  0  0
 22 21  1  0  0  0  0
 22 23  1  6  0  0  0
 22 24  1  0  0  0  0
 25 24  1  0  0  0  0
 25 26  1  1  0  0  0
 25 27  1  0  0  0  0
 25 30  1  0  0  0  0
 27 28  1  0  0  0  0
 27 29  1  0  0  0  0
 27 57  1  1  0  0  0
 28 58  1  0  0  0  0
 28 59  1  0  0  0  0
 28 60  1  0  0  0  0
 29 61  1  0  0  0  0
 30 31  1  0  0  0  0
 30 32  1  0  0  0  0
 30 62  1  6  0  0  0
 31 63  1  0  0  0  0
 32 33  1  0  0  0  0
 32 34  1  0  0  0  0
 32 64  1  1  0  0  0
 33 65  1  0  0  0  0
 34 22  1  0  0  0  0
 34 35  1  0  0  0  0
 34 66  1  6  0  0  0
 35 67  1  0  0  0  0
 35 68  1  0  0  0  0
 36  9  1  0  0  0  0
 36 37  1  0  0  0  0
 36 69  1  1  0  0  0
 37 70  1  0  0  0  0
 38 36  1  0  0  0  0
 38 39  1  0  0  0  0
 38 71  1  1  0  0  0
 39 72  1  0  0  0  0
 40 41  1  0  0  0  0
 40 42  1  0  0  0  0
 40 73  1  6  0  0  0
 41 74  1  0  0  0  0
 41 75  1  0  0  0  0
 41 76  1  0  0  0  0
 42 77  1  0  0  0  0
 42 78  1  0  0  0  0
M  END
>  <DRUGBANK_ID>
DB16951

>  <COMMON_NAME>
NB-124 sulfate

>  <CAS_NUMBER>
1375073-96-3

>  <UNII>
DZ671709NT

>  <SYNONYMS>
6'-(r)-methyl-5-o-(5-amino-5,6-dideoxy-a-l-talofuranosyl)- paromamine sulfate; 6'-(r)-methyl-5-o-(5-amino-5,6-dideoxy-alpha-l-talofuranosyl)-paromamine sulfate; D-streptamine, o-5-amino-5,6-dideoxy-.beta.-d-allofuranosyl-(1->5)-o-(2-amino-2,7-dideoxy-d-glycero-.alpha.-d-gluco-heptopyranosyl-(1->4))-2-deoxy-, sulfate; Elx-02 sulfate; Exaluren disulfate; Exaluren sulfate

$$$$
