FC1
 OpenBabel10282417072D

 35 36  0  0  0  0  0  0  0  0999 V2000
   -0.2195   -0.1357    0.0000 O   0  0  0  0  0  0  0  0  0  0  0  0
   -2.3629    1.1018    0.0000 S   0  0  0  0  0  0  0  0  0  0  0  0
   -3.0774   -0.1357    0.0000 C   0  0  0  0  0  0  0  0  0  0  0  0
   -2.3629   -1.3732    0.0000 C   0  0  0  0  0  0  0  0  0  0  0  0
   -0.9340    1.1018    0.0000 C   0  0  0  0  0  0  0  0  0  0  0  0
   -1.6485   -0.1357    0.0000 C   0  0  0  0  0  0  0  0  0  0  0  0
   -0.9340    0.2768    0.0000 C   0  0  0  0  0  0  0  0  0  0  0  0
   -2.3629    0.2768    0.0000 C   0  0  0  0  0  0  0  0  0  0  0  0
   -1.6485   -0.9607    0.0000 C   0  0  0  0  0  0  0  0  0  0  0  0
   -1.6485    1.5143    0.0000 C   0  0  0  0  0  0  0  0  0  0  0  0
    3.3528    0.2768    0.0000 C   0  0  0  0  0  0  0  0  0  0  0  0
    2.6384   -0.9607    0.0000 C   0  0  0  0  0  0  0  0  0  0  0  0
    2.6384   -0.1357    0.0000 N   0  0  0  0  0  0  0  0  0  0  0  0
    0.4949    0.2768    0.0000 C   0  0  0  0  0  0  0  0  0  0  0  0
   -3.0774   -0.9607    0.0000 C   0  0  0  0  0  0  0  0  0  0  0  0
   -1.6485    2.3393    0.0000 O   0  0  0  0  0  0  0  0  0  0  0  0
    1.2094   -0.1357    0.0000 C   0  0  0  0  0  0  0  0  0  0  0  0
    1.9239    0.2768    0.0000 C   0  0  0  0  0  0  0  0  0  0  0  0
   -3.9711    0.3803    0.0000 H   0  0  0  0  0  0  0  0  0  0  0  0
   -2.3629   -2.4052    0.0000 H   0  0  0  0  0  0  0  0  0  0  0  0
   -0.0403    1.6178    0.0000 H   0  0  0  0  0  0  0  0  0  0  0  0
   -0.7548   -1.4767    0.0000 H   0  0  0  0  0  0  0  0  0  0  0  0
    4.2795   -0.2582    0.0000 H   0  0  0  0  0  0  0  0  0  0  0  0
    3.3528    1.3468    0.0000 H   0  0  0  0  0  0  0  0  0  0  0  0
    4.2794    0.8118    0.0000 H   0  0  0  0  0  0  0  0  0  0  0  0
    1.7118   -1.4957    0.0000 H   0  0  0  0  0  0  0  0  0  0  0  0
    3.5650   -1.4957    0.0000 H   0  0  0  0  0  0  0  0  0  0  0  0
    2.6384   -2.0307    0.0000 H   0  0  0  0  0  0  0  0  0  0  0  0
    0.4949    1.3468    0.0000 H   0  0  0  0  0  0  0  0  0  0  0  0
    1.4215    0.8118    0.0000 H   0  0  0  0  0  0  0  0  0  0  0  0
   -3.9711   -1.4767    0.0000 H   0  0  0  0  0  0  0  0  0  0  0  0
    1.2094   -1.2057    0.0000 H   0  0  0  0  0  0  0  0  0  0  0  0
    2.1360   -0.6707    0.0000 H   0  0  0  0  0  0  0  0  0  0  0  0
    1.9239    1.3468    0.0000 H   0  0  0  0  0  0  0  0  0  0  0  0
    0.9973    0.8118    0.0000 H   0  0  0  0  0  0  0  0  0  0  0  0
  1  7  1  0  0  0  0
  1 14  1  0  0  0  0
  2  8  1  0  0  0  0
  2 10  1  0  0  0  0
  3  8  2  0  0  0  0
  3 15  1  0  0  0  0
  3 19  1  0  0  0  0
  4  9  1  0  0  0  0
  4 15  2  0  0  0  0
  4 20  1  0  0  0  0
  5  7  2  0  0  0  0
  5 10  1  0  0  0  0
  5 21  1  0  0  0  0
  6  7  1  0  0  0  0
  6  8  1  0  0  0  0
  6  9  2  0  0  0  0
  9 22  1  0  0  0  0
 10 16  2  0  0  0  0
 11 13  1  0  0  0  0
 11 23  1  0  0  0  0
 11 24  1  0  0  0  0
 11 25  1  0  0  0  0
 12 13  1  0  0  0  0
 12 26  1  0  0  0  0
 12 27  1  0  0  0  0
 12 28  1  0  0  0  0
 13 18  1  0  0  0  0
 14 17  1  0  0  0  0
 14 29  1  0  0  0  0
 14 30  1  0  0  0  0
 15 31  1  0  0  0  0
 17 18  1  0  0  0  0
 17 32  1  0  0  0  0
 17 33  1  0  0  0  0
 18 34  1  0  0  0  0
 18 35  1  0  0  0  0
M  END
>  <DRUGBANK_ID>
DB02462

>  <SECONDARY_ACCESSION_NUMBERS>
EXPT01399

>  <COMMON_NAME>
Thiocoumarin

>  <UNII>
CM773J3THB

$$$$
