
 OpenBabel10282417072D

  4  3  0  0  0  0  0  0  0  0999 V2000
   -0.4125    0.0000    0.0000 C   0  0  0  0  0  0  0  0  0  0  0  0
    0.4125    0.0000    0.0000 C   0  0  0  0  0  0  0  0  0  0  0  0
   -1.4065    0.0000    0.0000 H   0  0  0  0  0  0  0  0  0  0  0  0
    1.4065    0.0000    0.0000 H   0  0  0  0  0  0  0  0  0  0  0  0
  1  2  3  0  0  0  0
  1  3  1  0  0  0  0
  2  4  1  0  0  0  0
M  END
>  <DRUGBANK_ID>
DB15906

>  <COMMON_NAME>
Acetylene

>  <CAS_NUMBER>
74-86-2

>  <UNII>
OC7TV75O83

>  <SYNONYMS>
Ethine; Ethyne

$$$$
