
 OpenBabel10282417072D

 64 67  0  0  1  0  0  0  0  0999 V2000
   -0.7145    1.2375    0.0000 C   0  0  0  0  0  0  0  0  0  0  0  0
   -0.7145    2.0625    0.0000 C   0  0  0  0  0  0  0  0  0  0  0  0
    2.8579    6.6000    0.0000 C   0  0  0  0  0  0  0  0  0  0  0  0
    3.5724    6.1875    0.0000 C   0  0  0  0  0  0  0  0  0  0  0  0
    5.7158    2.4750    0.0000 C   0  0  0  0  0  0  0  0  0  0  0  0
    5.0013    2.8875    0.0000 C   0  0  0  0  0  0  0  0  0  0  0  0
   -0.0000    0.8250    0.0000 C   0  0  0  0  0  0  0  0  0  0  0  0
    0.0000    2.4750    0.0000 C   0  0  0  0  0  0  0  0  0  0  0  0
    6.4302    2.8875    0.0000 C   0  0  0  0  0  0  0  0  0  0  0  0
    2.1434    6.1875    0.0000 C   0  0  0  0  0  0  0  0  0  0  0  0
    1.4289    0.8250    0.0000 C   0  0  0  0  0  0  0  0  0  0  0  0
    2.1434    1.2375    0.0000 C   0  0  0  0  0  0  0  0  0  0  0  0
    3.5724    5.3625    0.0000 C   0  0  0  0  0  0  0  0  0  0  0  0
    5.7158    4.1250    0.0000 C   0  0  0  0  0  0  0  0  0  0  0  0
    4.2868    4.1250    0.0000 C   0  0  0  0  0  0  0  0  0  0  0  0
    1.4289    2.4750    0.0000 C   0  0  0  0  0  0  0  0  0  0  0  0
    5.0013    3.7125    0.0000 C   0  0  0  0  0  0  0  0  0  0  0  0
    0.7145    1.2375    0.0000 C   0  0  0  0  0  0  0  0  0  0  0  0
    0.7145    2.0625    0.0000 C   0  0  0  0  0  0  0  0  0  0  0  0
    6.4302    3.7125    0.0000 C   0  0  0  0  0  0  0  0  0  0  0  0
    2.1434    2.0625    0.0000 C   0  0  0  0  0  0  0  0  0  0  0  0
    3.5724    3.7125    0.0000 C   0  0  1  0  0  0  0  0  0  0  0  0
    2.1434    5.3625    0.0000 C   0  0  2  0  0  0  0  0  0  0  0  0
    7.1447    4.1250    0.0000 C   0  0  0  0  0  0  0  0  0  0  0  0
    2.8579    4.1250    0.0000 C   0  0  0  0  0  0  0  0  0  0  0  0
    1.4289    4.9500    0.0000 C   0  0  0  0  0  0  0  0  0  0  0  0
    7.8592    3.7125    0.0000 N   0  0  0  0  0  0  0  0  0  0  0  0
    7.1447    4.9500    0.0000 N   0  0  0  0  0  0  0  0  0  0  0  0
    3.5724    2.8875    0.0000 N   0  0  0  0  0  0  0  0  0  0  0  0
    2.8579    4.9500    0.0000 N   0  0  0  0  0  0  0  0  0  0  0  0
    2.1434    3.7125    0.0000 O   0  0  0  0  0  0  0  0  0  0  0  0
    1.4289    4.1250    0.0000 O   0  0  0  0  0  0  0  0  0  0  0  0
    0.7145    5.3625    0.0000 O   0  0  0  0  0  0  0  0  0  0  0  0
    3.2704    1.7605    0.0000 O   0  0  0  0  0  0  0  0  0  0  0  0
    2.4454    3.1895    0.0000 O   0  0  0  0  0  0  0  0  0  0  0  0
    2.8579    2.4750    0.0000 S   0  0  0  0  0  0  0  0  0  0  0  0
    3.5724    4.5375    0.0000 H   0  0  0  0  0  0  0  0  0  0  0  0
    1.4289    5.7750    0.0000 H   0  0  0  0  0  0  0  0  0  0  0  0
   -1.6082    0.7215    0.0000 H   0  0  0  0  0  0  0  0  0  0  0  0
   -1.6082    2.5785    0.0000 H   0  0  0  0  0  0  0  0  0  0  0  0
    2.8579    7.6700    0.0000 H   0  0  0  0  0  0  0  0  0  0  0  0
    1.9313    7.1350    0.0000 H   0  0  0  0  0  0  0  0  0  0  0  0
    4.4990    6.7225    0.0000 H   0  0  0  0  0  0  0  0  0  0  0  0
    4.4990    5.6525    0.0000 H   0  0  0  0  0  0  0  0  0  0  0  0
    5.7158    1.4430    0.0000 H   0  0  0  0  0  0  0  0  0  0  0  0
    4.1076    2.3715    0.0000 H   0  0  0  0  0  0  0  0  0  0  0  0
    0.0000   -0.2070    0.0000 H   0  0  0  0  0  0  0  0  0  0  0  0
    0.0000    3.5070    0.0000 H   0  0  0  0  0  0  0  0  0  0  0  0
    7.3239    2.3715    0.0000 H   0  0  0  0  0  0  0  0  0  0  0  0
    1.2168    6.7225    0.0000 H   0  0  0  0  0  0  0  0  0  0  0  0
    1.2168    5.6525    0.0000 H   0  0  0  0  0  0  0  0  0  0  0  0
    1.4289   -0.2070    0.0000 H   0  0  0  0  0  0  0  0  0  0  0  0
    3.0371    0.7215    0.0000 H   0  0  0  0  0  0  0  0  0  0  0  0
    4.4990    4.8275    0.0000 H   0  0  0  0  0  0  0  0  0  0  0  0
    3.5724    4.2925    0.0000 H   0  0  0  0  0  0  0  0  0  0  0  0
    5.7158    5.1570    0.0000 H   0  0  0  0  0  0  0  0  0  0  0  0
    4.2868    5.1950    0.0000 H   0  0  0  0  0  0  0  0  0  0  0  0
    3.3601    4.6600    0.0000 H   0  0  0  0  0  0  0  0  0  0  0  0
    1.4289    3.5070    0.0000 H   0  0  0  0  0  0  0  0  0  0  0  0
    7.8592    2.7280    0.0000 H   0  0  0  0  0  0  0  0  0  0  0  0
    7.9973    5.4423    0.0000 H   0  0  0  0  0  0  0  0  0  0  0  0
    6.2921    5.4423    0.0000 H   0  0  0  0  0  0  0  0  0  0  0  0
    4.4557    2.3775    0.0000 H   0  0  0  0  0  0  0  0  0  0  0  0
    0.7145    6.2995    0.0000 H   0  0  0  0  0  0  0  0  0  0  0  0
  1 39  1  0  0  0  0
  2  1  2  0  0  0  0
  2 40  1  0  0  0  0
  3 41  1  0  0  0  0
  3 42  1  0  0  0  0
  4  3  1  0  0  0  0
  4 43  1  0  0  0  0
  4 44  1  0  0  0  0
  5 45  1  0  0  0  0
  6  5  2  0  0  0  0
  6 46  1  0  0  0  0
  7  1  1  0  0  0  0
  7 47  1  0  0  0  0
  8  2  1  0  0  0  0
  8 48  1  0  0  0  0
  9  5  1  0  0  0  0
  9 49  1  0  0  0  0
 10  3  1  0  0  0  0
 10 50  1  0  0  0  0
 10 51  1  0  0  0  0
 11 52  1  0  0  0  0
 12 11  2  0  0  0  0
 12 53  1  0  0  0  0
 13  4  1  0  0  0  0
 13 54  1  0  0  0  0
 13 55  1  0  0  0  0
 14 56  1  0  0  0  0
 15 57  1  0  0  0  0
 15 58  1  0  0  0  0
 16 59  1  0  0  0  0
 17  6  1  0  0  0  0
 17 14  2  0  0  0  0
 17 15  1  0  0  0  0
 18  7  2  0  0  0  0
 18 11  1  0  0  0  0
 19  8  2  0  0  0  0
 19 16  1  0  0  0  0
 19 18  1  0  0  0  0
 20  9  2  0  0  0  0
 20 14  1  0  0  0  0
 21 12  1  0  0  0  0
 21 16  2  0  0  0  0
 22 15  1  0  0  0  0
 22 29  1  0  0  0  0
 22 37  1  1  0  0  0
 23 10  1  0  0  0  0
 23 26  1  0  0  0  0
 23 38  1  6  0  0  0
 24 20  1  0  0  0  0
 25 22  1  0  0  0  0
 27 24  2  0  0  0  0
 27 60  1  0  0  0  0
 28 24  1  0  0  0  0
 28 61  1  0  0  0  0
 28 62  1  0  0  0  0
 29 63  1  0  0  0  0
 30 13  1  0  0  0  0
 30 23  1  0  0  0  0
 30 25  1  0  0  0  0
 31 25  2  0  0  0  0
 32 26  2  0  0  0  0
 33 26  1  0  0  0  0
 33 64  1  0  0  0  0
 36 21  1  0  0  0  0
 36 29  1  0  0  0  0
 36 34  2  0  0  0  0
 36 35  2  0  0  0  0
M  END
>  <DRUGBANK_ID>
DB04238

>  <SECONDARY_ACCESSION_NUMBERS>
EXPT01409

>  <COMMON_NAME>
N-Alpha-(2-Naphthylsulfonyl)-N-(3-Amidino-L-Phenylalaninyl)-D-Pipecolinic Acid

$$$$
