482
 OpenBabel10282417072D

 40 42  0  0  0  0  0  0  0  0999 V2000
    3.2149   -2.4119    0.0000 S   0  0  0  0  0  0  0  0  0  0  0  0
    1.6500    2.3402    0.0000 F   0  0  0  0  0  0  0  0  0  0  0  0
    2.9849    3.3101    0.0000 F   0  0  0  0  0  0  0  0  0  0  0  0
    1.8325    3.4926    0.0000 F   0  0  0  0  0  0  0  0  0  0  0  0
    4.0399   -2.4119    0.0000 O   0  0  0  0  0  0  0  0  0  0  0  0
    2.3899   -2.4119    0.0000 O   0  0  0  0  0  0  0  0  0  0  0  0
    3.2149    0.8882    0.0000 N   0  0  0  0  0  0  0  0  0  0  0  0
    2.5475    1.3731    0.0000 N   0  0  0  0  0  0  0  0  0  0  0  0
    3.2149   -3.2369    0.0000 N   0  0  0  0  0  0  0  0  0  0  0  0
    3.8824    1.3731    0.0000 C   0  0  0  0  0  0  0  0  0  0  0  0
    3.2149    0.0632    0.0000 C   0  0  0  0  0  0  0  0  0  0  0  0
    4.6670    1.1181    0.0000 C   0  0  0  0  0  0  0  0  0  0  0  0
    3.6274    2.1578    0.0000 C   0  0  0  0  0  0  0  0  0  0  0  0
    2.8024    2.1578    0.0000 C   0  0  0  0  0  0  0  0  0  0  0  0
    3.9294   -0.3493    0.0000 C   0  0  0  0  0  0  0  0  0  0  0  0
    2.5005   -0.3493    0.0000 C   0  0  0  0  0  0  0  0  0  0  0  0
    3.2149   -1.5868    0.0000 C   0  0  0  0  0  0  0  0  0  0  0  0
    4.8386    0.3112    0.0000 C   0  0  0  0  0  0  0  0  0  0  0  0
    5.2801    1.6702    0.0000 C   0  0  0  0  0  0  0  0  0  0  0  0
    3.9294   -1.1743    0.0000 C   0  0  0  0  0  0  0  0  0  0  0  0
    2.5005   -1.1743    0.0000 C   0  0  0  0  0  0  0  0  0  0  0  0
    6.2363    0.6083    0.0000 C   0  0  0  0  0  0  0  0  0  0  0  0
    5.6232    0.0563    0.0000 C   0  0  0  0  0  0  0  0  0  0  0  0
    6.0648    1.4152    0.0000 C   0  0  0  0  0  0  0  0  0  0  0  0
    2.3175    2.8252    0.0000 C   0  0  0  0  0  0  0  0  0  0  0  0
    7.0209    0.3534    0.0000 C   0  0  0  0  0  0  0  0  0  0  0  0
    2.3316   -3.7469    0.0000 H   0  0  0  0  0  0  0  0  0  0  0  0
    4.0982   -3.7469    0.0000 H   0  0  0  0  0  0  0  0  0  0  0  0
    4.2340    2.9927    0.0000 H   0  0  0  0  0  0  0  0  0  0  0  0
    4.8231    0.1667    0.0000 H   0  0  0  0  0  0  0  0  0  0  0  0
    1.6068    0.1667    0.0000 H   0  0  0  0  0  0  0  0  0  0  0  0
    4.0717   -0.3794    0.0000 H   0  0  0  0  0  0  0  0  0  0  0  0
    5.0655    2.6796    0.0000 H   0  0  0  0  0  0  0  0  0  0  0  0
    4.8231   -1.6903    0.0000 H   0  0  0  0  0  0  0  0  0  0  0  0
    1.6068   -1.6903    0.0000 H   0  0  0  0  0  0  0  0  0  0  0  0
    5.8378   -0.9531    0.0000 H   0  0  0  0  0  0  0  0  0  0  0  0
    6.8317    2.1057    0.0000 H   0  0  0  0  0  0  0  0  0  0  0  0
    7.2434   -0.6932    0.0000 H   0  0  0  0  0  0  0  0  0  0  0  0
    7.8160    1.0694    0.0000 H   0  0  0  0  0  0  0  0  0  0  0  0
    8.0385    0.0228    0.0000 H   0  0  0  0  0  0  0  0  0  0  0  0
  1  5  2  0  0  0  0
  1  6  2  0  0  0  0
  1  9  1  0  0  0  0
  1 17  1  0  0  0  0
  2 25  1  0  0  0  0
  3 25  1  0  0  0  0
  4 25  1  0  0  0  0
  7  8  1  0  0  0  0
  7 10  1  0  0  0  0
  7 11  1  0  0  0  0
  8 14  2  0  0  0  0
  9 27  1  0  0  0  0
  9 28  1  0  0  0  0
 10 12  1  0  0  0  0
 10 13  2  0  0  0  0
 11 15  2  0  0  0  0
 11 16  1  0  0  0  0
 12 18  2  0  0  0  0
 12 19  1  0  0  0  0
 13 14  1  0  0  0  0
 13 29  1  0  0  0  0
 14 25  1  0  0  0  0
 15 20  1  0  0  0  0
 15 30  1  0  0  0  0
 16 21  2  0  0  0  0
 16 31  1  0  0  0  0
 17 20  2  0  0  0  0
 17 21  1  0  0  0  0
 18 23  1  0  0  0  0
 18 32  1  0  0  0  0
 19 24  2  0  0  0  0
 19 33  1  0  0  0  0
 20 34  1  0  0  0  0
 21 35  1  0  0  0  0
 22 23  2  0  0  0  0
 22 24  1  0  0  0  0
 22 26  1  0  0  0  0
 23 36  1  0  0  0  0
 24 37  1  0  0  0  0
 26 38  1  0  0  0  0
 26 39  1  0  0  0  0
 26 40  1  0  0  0  0
M  END
>  <DRUGBANK_ID>
DB00482

>  <SECONDARY_ACCESSION_NUMBERS>
APRD00373

>  <COMMON_NAME>
Celecoxib

>  <CAS_NUMBER>
169590-42-5

>  <UNII>
JCX84Q7J1L

>  <SYNONYMS>
Celecoxib; Célécoxib; Celecoxibum; p-(5-p-Tolyl-3-(trifluoromethyl)pyrazol-1-yl)benzenesulfonamide

$$$$
