
 OpenBabel10282417072D

 55 54  0  0  0  0  0  0  0  0999 V2000
   -1.2932    0.5404    0.0000 O   0  0  0  0  0  0  0  0  0  0  0  0
   -4.1511    0.5404    0.0000 O   0  0  0  0  0  0  0  0  0  0  0  0
   -2.0077    0.9528    0.0000 O   0  0  0  0  0  0  0  0  0  0  0  0
   -4.1511    3.0154    0.0000 O   0  0  0  0  0  0  0  0  0  0  0  0
   -4.8655    1.7778    0.0000 O   0  0  0  0  0  0  0  0  0  0  0  0
   -2.7221   -0.2846    0.0000 N   0  0  0  0  0  0  0  0  0  0  0  0
   -0.5787   -0.6971    0.0000 N   0  0  0  0  0  0  0  0  0  0  0  0
    2.9936   -0.2846    0.0000 N   0  3  0  0  0  0  0  0  0  0  0  0
    4.4225   -0.2846    0.0000 N   0  0  0  0  0  0  0  0  0  0  0  0
    3.7080   -1.5221    0.0000 N   0  0  0  0  0  0  0  0  0  0  0  0
   -2.0077   -1.5221    0.0000 C   0  0  0  0  0  0  0  0  0  0  0  0
   -2.0077   -0.6971    0.0000 C   0  0  1  0  0  0  0  0  0  0  0  0
   -2.7221   -1.9346    0.0000 C   0  0  0  0  0  0  0  0  0  0  0  0
   -1.2932   -0.2846    0.0000 C   0  0  0  0  0  0  0  0  0  0  0  0
   -2.7221   -2.7596    0.0000 C   0  0  0  0  0  0  0  0  0  0  0  0
   -3.4366   -1.5221    0.0000 C   0  0  0  0  0  0  0  0  0  0  0  0
    0.1357   -0.2846    0.0000 C   0  0  0  0  0  0  0  0  0  0  0  0
    0.8502   -0.6971    0.0000 C   0  0  0  0  0  0  0  0  0  0  0  0
    1.5646   -0.2846    0.0000 C   0  0  0  0  0  0  0  0  0  0  0  0
   -2.7221    0.5404    0.0000 C   0  0  0  0  0  0  0  0  0  0  0  0
   -3.4366    0.9528    0.0000 C   0  0  2  0  0  0  0  0  0  0  0  0
    2.2791   -0.6971    0.0000 C   0  0  0  0  0  0  0  0  0  0  0  0
   -3.4366    1.7778    0.0000 C   0  0  0  0  0  0  0  0  0  0  0  0
   -4.1511    2.1904    0.0000 C   0  0  0  0  0  0  0  0  0  0  0  0
    3.7080   -0.6971    0.0000 C   0  0  0  0  0  0  0  0  0  0  0  0
   -4.9911    1.0255    0.0000 H   0  0  0  0  0  0  0  0  0  0  0  0
   -3.3396    3.4839    0.0000 H   0  0  0  0  0  0  0  0  0  0  0  0
   -3.5747   -0.7768    0.0000 H   0  0  0  0  0  0  0  0  0  0  0  0
   -0.5787   -1.6816    0.0000 H   0  0  0  0  0  0  0  0  0  0  0  0
    2.9936    0.6999    0.0000 H   0  0  0  0  0  0  0  0  0  0  0  0
    5.2751   -0.7769    0.0000 H   0  0  0  0  0  0  0  0  0  0  0  0
    4.4225    0.6999    0.0000 H   0  0  0  0  0  0  0  0  0  0  0  0
    2.8554   -2.0144    0.0000 H   0  0  0  0  0  0  0  0  0  0  0  0
    4.5606   -2.0143    0.0000 H   0  0  0  0  0  0  0  0  0  0  0  0
   -1.0810   -2.0571    0.0000 H   0  0  0  0  0  0  0  0  0  0  0  0
   -2.0077   -2.5921    0.0000 H   0  0  0  0  0  0  0  0  0  0  0  0
   -2.9344   -1.2321    0.0000 H   0  0  0  0  0  0  0  0  0  0  0  0
   -3.6487   -2.4696    0.0000 H   0  0  0  0  0  0  0  0  0  0  0  0
   -3.6487   -3.2946    0.0000 H   0  0  0  0  0  0  0  0  0  0  0  0
   -1.7955   -3.2946    0.0000 H   0  0  0  0  0  0  0  0  0  0  0  0
   -2.7221   -3.8296    0.0000 H   0  0  0  0  0  0  0  0  0  0  0  0
   -3.4366   -0.4521    0.0000 H   0  0  0  0  0  0  0  0  0  0  0  0
   -4.3632   -2.0571    0.0000 H   0  0  0  0  0  0  0  0  0  0  0  0
   -4.3633   -0.9871    0.0000 H   0  0  0  0  0  0  0  0  0  0  0  0
    0.1357    0.7854    0.0000 H   0  0  0  0  0  0  0  0  0  0  0  0
    1.0623    0.2504    0.0000 H   0  0  0  0  0  0  0  0  0  0  0  0
    0.8502   -1.7671    0.0000 H   0  0  0  0  0  0  0  0  0  0  0  0
    1.7769   -1.2321    0.0000 H   0  0  0  0  0  0  0  0  0  0  0  0
    1.5646    0.7854    0.0000 H   0  0  0  0  0  0  0  0  0  0  0  0
    2.4912    0.2504    0.0000 H   0  0  0  0  0  0  0  0  0  0  0  0
   -3.4366   -0.1172    0.0000 H   0  0  0  0  0  0  0  0  0  0  0  0
    2.2791   -1.7671    0.0000 H   0  0  0  0  0  0  0  0  0  0  0  0
    1.3525   -1.2321    0.0000 H   0  0  0  0  0  0  0  0  0  0  0  0
   -2.5099    2.3128    0.0000 H   0  0  0  0  0  0  0  0  0  0  0  0
   -3.4365    2.8478    0.0000 H   0  0  0  0  0  0  0  0  0  0  0  0
  1 14  2  0  0  0  0
  2 26  1  0  0  0  0
  3 20  2  0  0  0  0
  4 24  1  0  0  0  0
  4 27  1  0  0  0  0
  5 24  2  0  0  0  0
  6 20  1  0  0  0  0
  6 28  1  0  0  0  0
  7 14  1  0  0  0  0
  7 17  1  0  0  0  0
  7 29  1  0  0  0  0
  8 22  1  0  0  0  0
  8 25  2  0  0  0  0
  8 30  1  0  0  0  0
  9 25  1  0  0  0  0
  9 31  1  0  0  0  0
  9 32  1  0  0  0  0
 10 25  1  0  0  0  0
 10 33  1  0  0  0  0
 10 34  1  0  0  0  0
 11 12  1  0  0  0  0
 11 13  1  0  0  0  0
 11 35  1  0  0  0  0
 11 36  1  0  0  0  0
 12  6  1  0  0  0  0
 12 14  1  0  0  0  0
 12 37  1  1  0  0  0
 13 15  1  0  0  0  0
 13 16  1  0  0  0  0
 13 38  1  0  0  0  0
 15 39  1  0  0  0  0
 15 40  1  0  0  0  0
 15 41  1  0  0  0  0
 16 42  1  0  0  0  0
 16 43  1  0  0  0  0
 16 44  1  0  0  0  0
 17 18  1  0  0  0  0
 17 45  1  0  0  0  0
 17 46  1  0  0  0  0
 18 19  1  0  0  0  0
 18 47  1  0  0  0  0
 18 48  1  0  0  0  0
 19 22  1  0  0  0  0
 19 49  1  0  0  0  0
 19 50  1  0  0  0  0
 20 21  1  0  0  0  0
 21  2  1  0  0  0  0
 21 23  1  0  0  0  0
 21 51  1  6  0  0  0
 22 52  1  0  0  0  0
 22 53  1  0  0  0  0
 23 24  1  0  0  0  0
 23 54  1  0  0  0  0
 23 55  1  0  0  0  0
M  CHG  1   8   1
M  END
>  <DRUGBANK_ID>
DB04276

>  <SECONDARY_ACCESSION_NUMBERS>
EXPT01317

>  <COMMON_NAME>
4-[[(2S)-2-[[(2S)-3-Carboxy-2-hydroxypropanoyl]amino]-4-methylpentanoyl]amino]butyl-(diaminomethylidene)azanium

$$$$
