OEV
 OpenBabel10282417072D

 49 49  0  0  0  0  0  0  0  0999 V2000
   -2.2001    0.1570    0.0000 C   0  0  1  0  0  0  0  0  0  0  0  0
   -1.4855    0.5695    0.0000 N   0  0  0  0  0  0  0  0  0  0  0  0
   -2.2001   -0.6680    0.0000 C   0  0  2  0  0  0  0  0  0  0  0  0
   -1.4855   -1.0806    0.0000 O   0  0  0  0  0  0  0  0  0  0  0  0
   -2.9146   -1.0806    0.0000 C   0  0  1  0  0  0  0  0  0  0  0  0
   -2.9146   -1.9056    0.0000 O   0  0  0  0  0  0  0  0  0  0  0  0
   -3.6291   -0.6680    0.0000 C   0  0  2  0  0  0  0  0  0  0  0  0
   -4.3436   -1.0806    0.0000 O   0  0  0  0  0  0  0  0  0  0  0  0
   -3.6291    0.1570    0.0000 C   0  0  0  0  0  0  0  0  0  0  0  0
   -4.3436    0.5695    0.0000 C   0  0  0  0  0  0  0  0  0  0  0  0
   -4.3436    1.3946    0.0000 O   0  0  0  0  0  0  0  0  0  0  0  0
   -2.9146    0.5695    0.0000 C   0  0  0  0  0  0  0  0  0  0  0  0
   -0.7711    0.1570    0.0000 C   0  0  0  0  0  0  0  0  0  0  0  0
   -0.0565    0.5695    0.0000 C   0  0  0  0  0  0  0  0  0  0  0  0
    0.6580    0.1570    0.0000 C   0  0  0  0  0  0  0  0  0  0  0  0
    1.3726    0.5695    0.0000 C   0  0  0  0  0  0  0  0  0  0  0  0
    2.0871    0.1570    0.0000 C   0  0  0  0  0  0  0  0  0  0  0  0
    2.8016    0.5695    0.0000 C   0  0  0  0  0  0  0  0  0  0  0  0
    3.5162    0.1570    0.0000 C   0  0  0  0  0  0  0  0  0  0  0  0
    4.2306    0.5695    0.0000 C   0  0  0  0  0  0  0  0  0  0  0  0
   -1.6249    0.0556    0.0000 H   0  0  0  0  0  0  0  0  0  0  0  0
   -1.6249   -0.5666    0.0000 H   0  0  0  0  0  0  0  0  0  0  0  0
   -2.4089   -1.3725    0.0000 H   0  0  0  0  0  0  0  0  0  0  0  0
   -3.6291   -1.2520    0.0000 H   0  0  0  0  0  0  0  0  0  0  0  0
   -1.4854    1.5895    0.0000 H   0  0  0  0  0  0  0  0  0  0  0  0
   -1.4855   -2.0506    0.0000 H   0  0  0  0  0  0  0  0  0  0  0  0
   -3.7546   -2.3906    0.0000 H   0  0  0  0  0  0  0  0  0  0  0  0
   -5.1837   -0.5957    0.0000 H   0  0  0  0  0  0  0  0  0  0  0  0
   -5.2702    0.0345    0.0000 H   0  0  0  0  0  0  0  0  0  0  0  0
   -5.2702    1.1045    0.0000 H   0  0  0  0  0  0  0  0  0  0  0  0
   -3.5036    1.8796    0.0000 H   0  0  0  0  0  0  0  0  0  0  0  0
   -2.9146    1.6015    0.0000 H   0  0  0  0  0  0  0  0  0  0  0  0
   -0.7712   -0.9130    0.0000 H   0  0  0  0  0  0  0  0  0  0  0  0
    0.1555   -0.3781    0.0000 H   0  0  0  0  0  0  0  0  0  0  0  0
   -0.0565    1.6395    0.0000 H   0  0  0  0  0  0  0  0  0  0  0  0
    0.8702    1.1045    0.0000 H   0  0  0  0  0  0  0  0  0  0  0  0
    0.6580   -0.9130    0.0000 H   0  0  0  0  0  0  0  0  0  0  0  0
    1.5846   -0.3781    0.0000 H   0  0  0  0  0  0  0  0  0  0  0  0
    1.3726    1.6395    0.0000 H   0  0  0  0  0  0  0  0  0  0  0  0
    2.2993    1.1045    0.0000 H   0  0  0  0  0  0  0  0  0  0  0  0
    2.0871   -0.9130    0.0000 H   0  0  0  0  0  0  0  0  0  0  0  0
    3.0137   -0.3780    0.0000 H   0  0  0  0  0  0  0  0  0  0  0  0
    2.8016    1.6395    0.0000 H   0  0  0  0  0  0  0  0  0  0  0  0
    3.7282    1.1046    0.0000 H   0  0  0  0  0  0  0  0  0  0  0  0
    3.5163   -0.9130    0.0000 H   0  0  0  0  0  0  0  0  0  0  0  0
    4.4429   -0.3780    0.0000 H   0  0  0  0  0  0  0  0  0  0  0  0
    5.1573    0.0345    0.0000 H   0  0  0  0  0  0  0  0  0  0  0  0
    4.2306    1.6395    0.0000 H   0  0  0  0  0  0  0  0  0  0  0  0
    5.1572    1.1045    0.0000 H   0  0  0  0  0  0  0  0  0  0  0  0
  1  2  1  0  0  0  0
  1 21  1  6  0  0  0
  2 13  1  0  0  0  0
  2 25  1  0  0  0  0
  3  1  1  0  0  0  0
  3  4  1  0  0  0  0
  3 22  1  1  0  0  0
  4 26  1  0  0  0  0
  5  3  1  0  0  0  0
  5 23  1  6  0  0  0
  5  6  1  0  0  0  0
  6 27  1  0  0  0  0
  7  5  1  0  0  0  0
  7  9  1  0  0  0  0
  7 24  1  1  0  0  0
  7  8  1  0  0  0  0
  8 28  1  0  0  0  0
  9 12  2  0  0  0  0
 10  9  1  0  0  0  0
 10 11  1  0  0  0  0
 10 29  1  0  0  0  0
 10 30  1  0  0  0  0
 11 31  1  0  0  0  0
 12  1  1  0  0  0  0
 12 32  1  0  0  0  0
 13 14  1  0  0  0  0
 13 33  1  0  0  0  0
 13 34  1  0  0  0  0
 14 15  1  0  0  0  0
 14 35  1  0  0  0  0
 14 36  1  0  0  0  0
 15 37  1  0  0  0  0
 15 38  1  0  0  0  0
 16 15  1  0  0  0  0
 16 39  1  0  0  0  0
 16 40  1  0  0  0  0
 17 16  1  0  0  0  0
 17 41  1  0  0  0  0
 17 42  1  0  0  0  0
 18 17  1  0  0  0  0
 18 43  1  0  0  0  0
 18 44  1  0  0  0  0
 19 18  1  0  0  0  0
 19 45  1  0  0  0  0
 19 46  1  0  0  0  0
 20 19  1  0  0  0  0
 20 47  1  0  0  0  0
 20 48  1  0  0  0  0
 20 49  1  0  0  0  0
M  END
>  <DRUGBANK_ID>
DB08321

>  <COMMON_NAME>
(1S,2S,3R,6R)-4-(hydroxymethyl)-6-(octylamino)cyclohex-4-ene-1,2,3-triol

$$$$
