OPA
 OpenBabel10282417072D

 27 28  0  0  0  0  0  0  0  0999 V2000
    2.2933   -0.5895    0.0000 O   0  0  0  0  0  0  0  0  0  0  0  0
    1.5789   -1.0020    0.0000 C   0  0  0  0  0  0  0  0  0  0  0  0
    0.8644   -0.5895    0.0000 C   0  0  0  0  0  0  0  0  0  0  0  0
    0.8644    0.2355    0.0000 C   0  0  0  0  0  0  0  0  0  0  0  0
    1.5789    0.6480    0.0000 C   0  0  0  0  0  0  0  0  0  0  0  0
    2.2933    0.2355    0.0000 C   0  0  0  0  0  0  0  0  0  0  0  0
    0.0798   -0.8445    0.0000 S   0  0  0  0  0  0  0  0  0  0  0  0
   -0.4051   -0.1770    0.0000 C   0  0  0  0  0  0  0  0  0  0  0  0
    0.0798    0.4904    0.0000 C   0  0  0  0  0  0  0  0  0  0  0  0
   -0.1752    1.2750    0.0000 C   0  0  0  0  0  0  0  0  0  0  0  0
   -0.9821    1.4466    0.0000 O   0  0  0  0  0  0  0  0  0  0  0  0
    0.3769    1.8881    0.0000 O   0  0  0  0  0  0  0  0  0  0  0  0
   -1.2301   -0.1770    0.0000 N   0  0  0  0  0  0  0  0  0  0  0  0
   -1.6426   -0.8915    0.0000 C   0  0  0  0  0  0  0  0  0  0  0  0
   -2.4676   -0.8915    0.0000 C   0  0  0  0  0  0  0  0  0  0  0  0
   -2.8801   -1.6060    0.0000 O   0  0  0  0  0  0  0  0  0  0  0  0
   -2.8801   -0.1770    0.0000 O   0  0  0  0  0  0  0  0  0  0  0  0
   -1.2301   -1.6060    0.0000 O   0  0  0  0  0  0  0  0  0  0  0  0
    1.5789   -2.0720    0.0000 H   0  0  0  0  0  0  0  0  0  0  0  0
    0.6523   -1.5370    0.0000 H   0  0  0  0  0  0  0  0  0  0  0  0
    1.5789    1.7180    0.0000 H   0  0  0  0  0  0  0  0  0  0  0  0
    2.5056    1.1830    0.0000 H   0  0  0  0  0  0  0  0  0  0  0  0
    3.2200    0.7705    0.0000 H   0  0  0  0  0  0  0  0  0  0  0  0
    2.2933    1.3055    0.0000 H   0  0  0  0  0  0  0  0  0  0  0  0
   -1.2716    2.3378    0.0000 H   0  0  0  0  0  0  0  0  0  0  0  0
   -1.7224    0.6756    0.0000 H   0  0  0  0  0  0  0  0  0  0  0  0
   -3.8171   -1.6060    0.0000 H   0  0  0  0  0  0  0  0  0  0  0  0
  1  2  1  0  0  0  0
  1  6  1  0  0  0  0
  2  3  1  0  0  0  0
  2 19  1  0  0  0  0
  2 20  1  0  0  0  0
  3  4  2  0  0  0  0
  3  7  1  0  0  0  0
  4  5  1  0  0  0  0
  4  9  1  0  0  0  0
  5  6  1  0  0  0  0
  5 21  1  0  0  0  0
  5 22  1  0  0  0  0
  6 23  1  0  0  0  0
  6 24  1  0  0  0  0
  7  8  1  0  0  0  0
  8  9  2  0  0  0  0
  8 13  1  0  0  0  0
  9 10  1  0  0  0  0
 10 11  1  0  0  0  0
 10 12  2  0  0  0  0
 11 25  1  0  0  0  0
 13 14  1  0  0  0  0
 13 26  1  0  0  0  0
 14 15  1  0  0  0  0
 14 18  2  0  0  0  0
 15 16  1  0  0  0  0
 15 17  2  0  0  0  0
 16 27  1  0  0  0  0
M  END
>  <DRUGBANK_ID>
DB03102

>  <SECONDARY_ACCESSION_NUMBERS>
EXPT02439

>  <COMMON_NAME>
2-(Oxalyl-Amino)-4,7-Dihydro-5h-Thieno[2,3-C]Pyran-3-Carboxylic Acid

$$$$
