
 OpenBabel10282417072D

 15 14  0  0  0  0  0  0  0  0999 V2000
   -0.1914   -0.7145    0.0000 O   0  0  0  0  0  0  0  0  0  0  0  0
    0.5230   -1.1270    0.0000 N   0  0  0  0  0  0  0  0  0  0  0  0
    1.2375   -0.7145    0.0000 C   0  0  0  0  0  0  0  0  0  0  0  0
    1.2375    0.1105    0.0000 O   0  0  0  0  0  0  0  0  0  0  0  0
    1.9520   -1.1270    0.0000 C   0  0  0  0  0  0  0  0  0  0  0  0
    2.6664   -0.7145    0.0000 P   0  0  0  0  0  0  0  0  0  0  0  0
    3.3809   -0.3020    0.0000 O   0  0  0  0  0  0  0  0  0  0  0  0
    3.0789   -1.4289    0.0000 O   0  0  0  0  0  0  0  0  0  0  0  0
    2.2539    0.0000    0.0000 O   0  0  0  0  0  0  0  0  0  0  0  0
   -0.1914    0.2555    0.0000 H   0  0  0  0  0  0  0  0  0  0  0  0
    0.5230   -2.1115    0.0000 H   0  0  0  0  0  0  0  0  0  0  0  0
    1.9520   -2.1970    0.0000 H   0  0  0  0  0  0  0  0  0  0  0  0
    2.8787   -1.6620    0.0000 H   0  0  0  0  0  0  0  0  0  0  0  0
    4.2209   -0.7870    0.0000 H   0  0  0  0  0  0  0  0  0  0  0  0
    2.5939   -2.2690    0.0000 H   0  0  0  0  0  0  0  0  0  0  0  0
  1  2  1  0  0  0  0
  1 10  1  0  0  0  0
  2  3  1  0  0  0  0
  2 11  1  0  0  0  0
  3  4  2  0  0  0  0
  3  5  1  0  0  0  0
  5  6  1  0  0  0  0
  5 12  1  0  0  0  0
  5 13  1  0  0  0  0
  6  7  1  0  0  0  0
  6  8  1  0  0  0  0
  6  9  2  0  0  0  0
  7 14  1  0  0  0  0
  8 15  1  0  0  0  0
M  END
>  <DRUGBANK_ID>
DB03645

>  <SECONDARY_ACCESSION_NUMBERS>
EXPT02491

>  <COMMON_NAME>
Phosphonoacetohydroxamic Acid

>  <UNII>
QMJ2VH9SGQ

$$$$
