
 OpenBabel10282417072D

 69 75  0  0  1  0  0  0  0  0999 V2000
   -9.6652    0.3171    0.0000 C   0  0  0  0  0  0  0  0  0  0  0  0
   -8.8402    0.3171    0.0000 C   0  0  0  0  0  0  0  0  0  0  0  0
   -8.3552    0.9845    0.0000 C   0  0  0  0  0  0  0  0  0  0  0  0
   -7.5706    0.7296    0.0000 N   0  0  0  0  0  0  0  0  0  0  0  0
   -6.7860    0.9845    0.0000 C   0  0  0  0  0  0  0  0  0  0  0  0
   -6.3011    0.3171    0.0000 C   0  0  0  0  0  0  0  0  0  0  0  0
   -5.4761    0.3171    0.0000 C   0  0  0  0  0  0  0  0  0  0  0  0
   -5.0636    1.0316    0.0000 C   0  0  0  0  0  0  0  0  0  0  0  0
   -5.4761    1.7460    0.0000 O   0  0  0  0  0  0  0  0  0  0  0  0
   -4.2386    1.0316    0.0000 N   0  0  0  0  0  0  0  0  0  0  0  0
   -3.8261    1.7460    0.0000 C   0  0  0  0  0  0  0  0  0  0  0  0
   -3.0011    1.7460    0.0000 C   0  0  0  0  0  0  0  0  0  0  0  0
   -2.5886    1.0316    0.0000 C   0  0  0  0  0  0  0  0  0  0  0  0
   -2.0052    1.6149    0.0000 C   0  0  0  0  0  0  0  0  0  0  0  0
   -1.4218    1.0316    0.0000 N   0  0  0  0  0  0  0  0  0  0  0  0
   -2.0052    0.4482    0.0000 C   0  0  0  0  0  0  0  0  0  0  0  0
   -0.5968    1.0316    0.0000 C   0  0  2  0  0  0  0  0  0  0  0  0
   -0.1119    0.3641    0.0000 C   0  0  0  0  0  0  0  0  0  0  0  0
    0.6727    0.6191    0.0000 C   0  0  0  0  0  0  0  0  0  0  0  0
    0.6727    1.4441    0.0000 C   0  0  0  0  0  0  0  0  0  0  0  0
   -0.1119    1.6990    0.0000 C   0  0  0  0  0  0  0  0  0  0  0  0
   -0.2834    2.5060    0.0000 C   0  0  0  0  0  0  0  0  0  0  0  0
    0.3296    3.0580    0.0000 C   0  0  0  0  0  0  0  0  0  0  0  0
    1.1143    2.8031    0.0000 C   0  0  0  0  0  0  0  0  0  0  0  0
    1.2858    1.9961    0.0000 C   0  0  0  0  0  0  0  0  0  0  0  0
    1.7274    3.3551    0.0000 C   0  0  0  0  0  0  0  0  0  0  0  0
    1.5558    4.1621    0.0000 C   0  0  0  0  0  0  0  0  0  0  0  0
    2.1689    4.7141    0.0000 C   0  0  0  0  0  0  0  0  0  0  0  0
    1.9974    5.5211    0.0000 C   0  0  0  0  0  0  0  0  0  0  0  0
    2.9536    4.4592    0.0000 N   0  0  0  0  0  0  0  0  0  0  0  0
    3.1251    3.6522    0.0000 C   0  0  0  0  0  0  0  0  0  0  0  0
    2.5120    3.1002    0.0000 N   0  0  0  0  0  0  0  0  0  0  0  0
   -3.0011    0.3171    0.0000 C   0  0  0  0  0  0  0  0  0  0  0  0
   -3.8261    0.3171    0.0000 C   0  0  0  0  0  0  0  0  0  0  0  0
   -6.7860   -0.3504    0.0000 N   0  0  0  0  0  0  0  0  0  0  0  0
   -7.5706   -0.0954    0.0000 C   0  0  0  0  0  0  0  0  0  0  0  0
   -8.3552   -0.3504    0.0000 S   0  0  0  0  0  0  0  0  0  0  0  0
  -10.2002    1.2437    0.0000 H   0  0  0  0  0  0  0  0  0  0  0  0
  -10.2002   -0.6095    0.0000 H   0  0  0  0  0  0  0  0  0  0  0  0
  -10.7352    0.3171    0.0000 H   0  0  0  0  0  0  0  0  0  0  0  0
   -8.6741    1.9660    0.0000 H   0  0  0  0  0  0  0  0  0  0  0  0
   -6.4671    1.9660    0.0000 H   0  0  0  0  0  0  0  0  0  0  0  0
   -4.9411   -0.6095    0.0000 H   0  0  0  0  0  0  0  0  0  0  0  0
   -4.4061    0.3171    0.0000 H   0  0  0  0  0  0  0  0  0  0  0  0
   -4.3611    2.6727    0.0000 H   0  0  0  0  0  0  0  0  0  0  0  0
   -3.2911    2.6726    0.0000 H   0  0  0  0  0  0  0  0  0  0  0  0
   -2.4661    2.6727    0.0000 H   0  0  0  0  0  0  0  0  0  0  0  0
   -1.9311    1.7460    0.0000 H   0  0  0  0  0  0  0  0  0  0  0  0
   -2.0052    2.6849    0.0000 H   0  0  0  0  0  0  0  0  0  0  0  0
   -1.0167    2.0244    0.0000 H   0  0  0  0  0  0  0  0  0  0  0  0
   -2.0052   -0.6218    0.0000 H   0  0  0  0  0  0  0  0  0  0  0  0
   -2.9938    0.0387    0.0000 H   0  0  0  0  0  0  0  0  0  0  0  0
   -1.0826    0.0782    0.0000 H   0  0  0  0  0  0  0  0  0  0  0  0
   -0.4425   -0.6535    0.0000 H   0  0  0  0  0  0  0  0  0  0  0  0
    0.6447   -0.3925    0.0000 H   0  0  0  0  0  0  0  0  0  0  0  0
    1.5384   -0.0098    0.0000 H   0  0  0  0  0  0  0  0  0  0  0  0
    1.6261    1.1049    0.0000 H   0  0  0  0  0  0  0  0  0  0  0  0
   -1.2649    2.8249    0.0000 H   0  0  0  0  0  0  0  0  0  0  0  0
    0.1150    4.0674    0.0000 H   0  0  0  0  0  0  0  0  0  0  0  0
    2.2673    1.6772    0.0000 H   0  0  0  0  0  0  0  0  0  0  0  0
    0.5743    4.4810    0.0000 H   0  0  0  0  0  0  0  0  0  0  0  0
    2.7926    6.2370    0.0000 H   0  0  0  0  0  0  0  0  0  0  0  0
    0.9798    5.8518    0.0000 H   0  0  0  0  0  0  0  0  0  0  0  0
    1.7750    6.5677    0.0000 H   0  0  0  0  0  0  0  0  0  0  0  0
    4.1066    3.3333    0.0000 H   0  0  0  0  0  0  0  0  0  0  0  0
   -2.4661   -0.6095    0.0000 H   0  0  0  0  0  0  0  0  0  0  0  0
   -3.5361   -0.6095    0.0000 H   0  0  0  0  0  0  0  0  0  0  0  0
   -4.3611   -0.6095    0.0000 H   0  0  0  0  0  0  0  0  0  0  0  0
   -4.8961    0.3171    0.0000 H   0  0  0  0  0  0  0  0  0  0  0  0
  1  2  1  0  0  0  0
  1 38  1  0  0  0  0
  1 39  1  0  0  0  0
  1 40  1  0  0  0  0
  2  3  2  0  0  0  0
  2 37  1  0  0  0  0
  3  4  1  0  0  0  0
  3 41  1  0  0  0  0
  4  5  1  0  0  0  0
  4 36  1  0  0  0  0
  5  6  2  0  0  0  0
  5 42  1  0  0  0  0
  6  7  1  0  0  0  0
  6 35  1  0  0  0  0
  7  8  1  0  0  0  0
  7 43  1  0  0  0  0
  7 44  1  0  0  0  0
  8  9  2  0  0  0  0
  8 10  1  0  0  0  0
 10 11  1  0  0  0  0
 10 34  1  0  0  0  0
 11 12  1  0  0  0  0
 11 45  1  0  0  0  0
 11 46  1  0  0  0  0
 12 13  1  0  0  0  0
 12 47  1  0  0  0  0
 12 48  1  0  0  0  0
 13 14  1  0  0  0  0
 13 16  1  0  0  0  0
 13 33  1  0  0  0  0
 14 15  1  0  0  0  0
 14 49  1  0  0  0  0
 14 50  1  0  0  0  0
 15 16  1  0  0  0  0
 16 51  1  0  0  0  0
 16 52  1  0  0  0  0
 17 15  1  0  0  0  0
 17 18  1  0  0  0  0
 17 21  1  0  0  0  0
 17 53  1  6  0  0  0
 18 19  1  0  0  0  0
 18 54  1  0  0  0  0
 18 55  1  0  0  0  0
 19 20  1  0  0  0  0
 19 56  1  0  0  0  0
 19 57  1  0  0  0  0
 20 21  2  0  0  0  0
 20 25  1  0  0  0  0
 21 22  1  0  0  0  0
 22 23  2  0  0  0  0
 22 58  1  0  0  0  0
 23 24  1  0  0  0  0
 23 59  1  0  0  0  0
 24 25  2  0  0  0  0
 24 26  1  0  0  0  0
 25 60  1  0  0  0  0
 26 27  2  0  0  0  0
 26 32  1  0  0  0  0
 27 28  1  0  0  0  0
 27 61  1  0  0  0  0
 28 29  1  0  0  0  0
 28 30  2  0  0  0  0
 29 62  1  0  0  0  0
 29 63  1  0  0  0  0
 29 64  1  0  0  0  0
 30 31  1  0  0  0  0
 31 32  2  0  0  0  0
 31 65  1  0  0  0  0
 33 34  1  0  0  0  0
 33 66  1  0  0  0  0
 33 67  1  0  0  0  0
 34 68  1  0  0  0  0
 34 69  1  0  0  0  0
 35 36  2  0  0  0  0
 36 37  1  0  0  0  0
M  END
>  <DRUGBANK_ID>
DB14870

>  <COMMON_NAME>
PF-5190457

>  <CAS_NUMBER>
1334782-79-4

>  <UNII>
FF33NL9U5G

$$$$
