MBP
 OpenBabel10282417072D

 30 31  0  0  0  0  0  0  0  0999 V2000
    1.7320    1.1235    0.0000 C   0  0  0  0  0  0  0  0  0  0  0  0
    2.4465   -0.1140    0.0000 C   0  0  0  0  0  0  0  0  0  0  0  0
    1.7320   -0.5265    0.0000 C   0  0  0  0  0  0  0  0  0  0  0  0
   -1.1258   -0.5265    0.0000 C   0  0  0  0  0  0  0  0  0  0  0  0
   -1.1258   -1.3515    0.0000 O   0  0  0  0  0  0  0  0  0  0  0  0
   -2.5548   -0.5265    0.0000 C   0  0  0  0  0  0  0  0  0  0  0  0
   -1.8403   -0.1140    0.0000 C   0  0  0  0  0  0  0  0  0  0  0  0
   -1.8403    0.7110    0.0000 C   0  0  0  0  0  0  0  0  0  0  0  0
    3.0596   -0.6660    0.0000 N   0  0  0  0  0  0  0  0  0  0  0  0
    2.4465    0.7110    0.0000 N   0  0  0  0  0  0  0  0  0  0  0  0
    1.7320    1.9485    0.0000 N   0  0  0  0  0  0  0  0  0  0  0  0
    1.0176    0.7110    0.0000 N   0  0  0  0  0  0  0  0  0  0  0  0
    1.0176   -0.1140    0.0000 C   0  0  0  0  0  0  0  0  0  0  0  0
    0.3031   -0.5265    0.0000 O   0  0  0  0  0  0  0  0  0  0  0  0
   -0.4114   -0.1140    0.0000 C   0  0  0  0  0  0  0  0  0  0  0  0
    1.9036   -1.3334    0.0000 N   0  0  0  0  0  0  0  0  0  0  0  0
    2.7241   -1.4197    0.0000 C   0  0  0  0  0  0  0  0  0  0  0  0
   -3.4814    0.0085    0.0000 H   0  0  0  0  0  0  0  0  0  0  0  0
   -2.5548   -1.5965    0.0000 H   0  0  0  0  0  0  0  0  0  0  0  0
   -3.4815   -1.0615    0.0000 H   0  0  0  0  0  0  0  0  0  0  0  0
   -2.7669    0.4210    0.0000 H   0  0  0  0  0  0  0  0  0  0  0  0
   -0.9137    1.2460    0.0000 H   0  0  0  0  0  0  0  0  0  0  0  0
   -2.7669    1.2460    0.0000 H   0  0  0  0  0  0  0  0  0  0  0  0
   -1.8403    1.7810    0.0000 H   0  0  0  0  0  0  0  0  0  0  0  0
    2.5846    2.4407    0.0000 H   0  0  0  0  0  0  0  0  0  0  0  0
    0.8794    2.4407    0.0000 H   0  0  0  0  0  0  0  0  0  0  0  0
   -0.4114    0.9560    0.0000 H   0  0  0  0  0  0  0  0  0  0  0  0
    0.5152    0.4210    0.0000 H   0  0  0  0  0  0  0  0  0  0  0  0
    1.2449   -2.0650    0.0000 H   0  0  0  0  0  0  0  0  0  0  0  0
    3.2401   -2.3134    0.0000 H   0  0  0  0  0  0  0  0  0  0  0  0
  1 10  2  0  0  0  0
  1 11  1  0  0  0  0
  1 12  1  0  0  0  0
  2  3  2  0  0  0  0
  2  9  1  0  0  0  0
  2 10  1  0  0  0  0
  3 13  1  0  0  0  0
  3 16  1  0  0  0  0
  4  5  2  0  0  0  0
  4  7  1  0  0  0  0
  4 15  1  0  0  0  0
  6  7  1  0  0  0  0
  6 18  1  0  0  0  0
  6 19  1  0  0  0  0
  6 20  1  0  0  0  0
  7  8  1  0  0  0  0
  7 21  1  0  0  0  0
  8 22  1  0  0  0  0
  8 23  1  0  0  0  0
  8 24  1  0  0  0  0
  9 17  2  0  0  0  0
 11 25  1  0  0  0  0
 11 26  1  0  0  0  0
 12 13  2  0  0  0  0
 13 14  1  0  0  0  0
 14 15  1  0  0  0  0
 15 27  1  0  0  0  0
 15 28  1  0  0  0  0
 16 17  1  0  0  0  0
 16 29  1  0  0  0  0
 17 30  1  0  0  0  0
M  END
>  <DRUGBANK_ID>
DB03663

>  <SECONDARY_ACCESSION_NUMBERS>
EXPT02125

>  <COMMON_NAME>
1-[(2-Amino-6,9-Dihydro-1h-Purin-6-Yl)Oxy]-3-Methyl-2-Butanol

$$$$
