
 OpenBabel10282417072D

 47 50  0  0  1  0  0  0  0  0999 V2000
   -2.1349   -0.6674    0.0000 C   0  0  0  0  0  0  0  0  0  0  0  0
   -1.3099   -0.6674    0.0000 S   0  0  0  0  0  0  0  0  0  0  0  0
   -1.3099   -1.4924    0.0000 O   0  0  0  0  0  0  0  0  0  0  0  0
   -1.3099    0.1576    0.0000 O   0  0  0  0  0  0  0  0  0  0  0  0
   -0.4849   -0.6674    0.0000 N   0  0  0  0  0  0  0  0  0  0  0  0
   -0.0000   -1.3349    0.0000 C   0  0  0  0  0  0  0  0  0  0  0  0
    0.7846   -1.0799    0.0000 C   0  0  0  0  0  0  0  0  0  0  0  0
    0.7846   -0.2549    0.0000 C   0  0  0  0  0  0  0  0  0  0  0  0
   -0.0000    0.0000    0.0000 N   0  0  0  0  0  0  0  0  0  0  0  0
    1.5692    0.0000    0.0000 C   0  0  0  0  0  0  0  0  0  0  0  0
    2.0542   -0.6674    0.0000 N   0  0  3  0  0  0  0  0  0  0  0  0
    1.5692   -1.3349    0.0000 C   0  0  0  0  0  0  0  0  0  0  0  0
    2.8792   -0.6674    0.0000 C   0  0  2  0  0  0  0  0  0  0  0  0
    3.2917    0.0470    0.0000 C   0  0  0  0  0  0  0  0  0  0  0  0
    4.1167    0.0470    0.0000 C   0  0  1  0  0  0  0  0  0  0  0  0
    4.5292   -0.6674    0.0000 C   0  0  2  0  0  0  0  0  0  0  0  0
    4.1167   -1.3819    0.0000 O   0  0  0  0  0  0  0  0  0  0  0  0
    3.2917   -1.3819    0.0000 C   0  0  0  0  0  0  0  0  0  0  0  0
    5.3542   -0.6674    0.0000 C   0  0  0  0  0  0  0  0  0  0  0  0
    5.7667    0.0470    0.0000 C   0  0  0  0  0  0  0  0  0  0  0  0
    6.5917    0.0470    0.0000 C   0  0  0  0  0  0  0  0  0  0  0  0
    7.0042   -0.6674    0.0000 C   0  0  0  0  0  0  0  0  0  0  0  0
    6.5917   -1.3819    0.0000 C   0  0  0  0  0  0  0  0  0  0  0  0
    5.7667   -1.3819    0.0000 C   0  0  0  0  0  0  0  0  0  0  0  0
    5.3542   -2.0964    0.0000 F   0  0  0  0  0  0  0  0  0  0  0  0
    7.0042    0.7615    0.0000 F   0  0  0  0  0  0  0  0  0  0  0  0
    4.5292    0.7615    0.0000 N   0  0  0  0  0  0  0  0  0  0  0  0
   -2.6699    0.2592    0.0000 H   0  0  0  0  0  0  0  0  0  0  0  0
   -2.6699   -1.5940    0.0000 H   0  0  0  0  0  0  0  0  0  0  0  0
   -3.2049   -0.6674    0.0000 H   0  0  0  0  0  0  0  0  0  0  0  0
   -0.3189   -2.3164    0.0000 H   0  0  0  0  0  0  0  0  0  0  0  0
    1.8998    1.0176    0.0000 H   0  0  0  0  0  0  0  0  0  0  0  0
    2.6260    0.1675    0.0000 H   0  0  0  0  0  0  0  0  0  0  0  0
    1.8998   -2.3525    0.0000 H   0  0  0  0  0  0  0  0  0  0  0  0
    0.8125   -2.0915    0.0000 H   0  0  0  0  0  0  0  0  0  0  0  0
    2.3442    0.2593    0.0000 H   0  0  0  0  0  0  0  0  0  0  0  0
    2.7567    0.9737    0.0000 H   0  0  0  0  0  0  0  0  0  0  0  0
    3.8267    0.9736    0.0000 H   0  0  0  0  0  0  0  0  0  0  0  0
    3.5817    0.9736    0.0000 H   0  0  0  0  0  0  0  0  0  0  0  0
    5.0642    0.2593    0.0000 H   0  0  0  0  0  0  0  0  0  0  0  0
    2.7567   -2.3085    0.0000 H   0  0  0  0  0  0  0  0  0  0  0  0
    2.2217   -1.3819    0.0000 H   0  0  0  0  0  0  0  0  0  0  0  0
    5.2507    0.9407    0.0000 H   0  0  0  0  0  0  0  0  0  0  0  0
    8.0362   -0.6674    0.0000 H   0  0  0  0  0  0  0  0  0  0  0  0
    7.1077   -2.2756    0.0000 H   0  0  0  0  0  0  0  0  0  0  0  0
    5.5492    0.7615    0.0000 H   0  0  0  0  0  0  0  0  0  0  0  0
    4.0192    1.6448    0.0000 H   0  0  0  0  0  0  0  0  0  0  0  0
  1  2  1  0  0  0  0
  1 28  1  0  0  0  0
  1 29  1  0  0  0  0
  1 30  1  0  0  0  0
  2  3  2  0  0  0  0
  2  4  2  0  0  0  0
  2  5  1  0  0  0  0
  5  6  1  0  0  0  0
  5  9  1  0  0  0  0
  6  7  2  0  0  0  0
  6 31  1  0  0  0  0
  7  8  1  0  0  0  0
  7 12  1  0  0  0  0
  8  9  2  0  0  0  0
  8 10  1  0  0  0  0
 10 11  1  0  0  0  0
 10 32  1  0  0  0  0
 10 33  1  0  0  0  0
 11 12  1  0  0  0  0
 12 34  1  0  0  0  0
 12 35  1  0  0  0  0
 13 11  1  0  0  0  0
 13 14  1  0  0  0  0
 13 18  1  0  0  0  0
 13 36  1  1  0  0  0
 14 15  1  0  0  0  0
 14 37  1  0  0  0  0
 14 38  1  0  0  0  0
 15 16  1  0  0  0  0
 15 27  1  0  0  0  0
 15 39  1  1  0  0  0
 16 17  1  0  0  0  0
 16 19  1  0  0  0  0
 16 40  1  6  0  0  0
 17 18  1  0  0  0  0
 18 41  1  0  0  0  0
 18 42  1  0  0  0  0
 19 20  2  0  0  0  0
 19 24  1  0  0  0  0
 20 21  1  0  0  0  0
 20 43  1  0  0  0  0
 21 22  2  0  0  0  0
 21 26  1  0  0  0  0
 22 23  1  0  0  0  0
 22 44  1  0  0  0  0
 23 24  2  0  0  0  0
 23 45  1  0  0  0  0
 24 25  1  0  0  0  0
 27 46  1  0  0  0  0
 27 47  1  0  0  0  0
M  END
>  <DRUGBANK_ID>
DB11992

>  <COMMON_NAME>
Omarigliptin

>  <CAS_NUMBER>
1226781-44-7

>  <UNII>
CVP59Q4JE1

>  <SYNONYMS>
Omarigliptin

$$$$
