
 OpenBabel10282417072D

 17 16  0  0  0  0  0  0  0  0999 V2000
    1.7862   -0.2062    0.0000 O   0  0  0  0  0  0  0  0  0  0  0  0
    1.0717    0.2062    0.0000 C   0  0  0  0  0  0  0  0  0  0  0  0
    0.3572   -0.2063    0.0000 C   0  0  2  0  0  0  0  0  0  0  0  0
   -0.3571    0.2060    0.0000 C   0  0  0  0  0  0  0  0  0  0  0  0
   -1.7862    0.2060    0.0000 O   0  0  0  0  0  0  0  0  0  0  0  0
   -1.0717   -0.2063    0.0000 S   0  0  0  0  0  0  0  0  0  0  0  0
    1.0717    1.0313    0.0000 O   0  0  0  0  0  0  0  0  0  0  0  0
    0.3572   -1.0313    0.0000 N   0  0  0  0  0  0  0  0  0  0  0  0
   -0.6592   -0.9208    0.0000 O   0  0  0  0  0  0  0  0  0  0  0  0
   -1.4842   -0.9208    0.0000 O   0  0  0  0  0  0  0  0  0  0  0  0
    1.7863   -1.1432    0.0000 H   0  0  0  0  0  0  0  0  0  0  0  0
    1.2838   -0.7413    0.0000 H   0  0  0  0  0  0  0  0  0  0  0  0
   -0.3570    1.2760    0.0000 H   0  0  0  0  0  0  0  0  0  0  0  0
   -1.2836    0.7412    0.0000 H   0  0  0  0  0  0  0  0  0  0  0  0
   -1.7864    1.1760    0.0000 H   0  0  0  0  0  0  0  0  0  0  0  0
   -0.5261   -1.5413    0.0000 H   0  0  0  0  0  0  0  0  0  0  0  0
    1.2405   -1.5413    0.0000 H   0  0  0  0  0  0  0  0  0  0  0  0
  1  2  1  0  0  0  0
  1 11  1  0  0  0  0
  3  2  1  0  0  0  0
  3  8  1  0  0  0  0
  3 12  1  6  0  0  0
  4  3  1  0  0  0  0
  4 13  1  0  0  0  0
  4 14  1  0  0  0  0
  5  6  1  0  0  0  0
  5 15  1  0  0  0  0
  6  4  1  0  0  0  0
  7  2  2  0  0  0  0
  8 16  1  0  0  0  0
  8 17  1  0  0  0  0
  9  6  2  0  0  0  0
 10  6  2  0  0  0  0
M  END
>  <DRUGBANK_ID>
DB03661

>  <SECONDARY_ACCESSION_NUMBERS>
EXPT02415

>  <COMMON_NAME>
L-cysteic acid

>  <CAS_NUMBER>
498-40-8

>  <UNII>
M6W2DJ6N5K

>  <SYNONYMS>
(2R)-2-amino-3-sulfopropanoic acid; 2-Amino-3-sulfopropionic acid; 3-sulfo-L-alanine; 3-Sulfoalanine; Cysteinesulfonic acid; Cysteric acid; L-Cysteate

$$$$
