
 OpenBabel10282417072D

 25 25  0  0  0  0  0  0  0  0999 V2000
   -0.8079    2.2158    0.0000 C   0  0  0  0  0  0  0  0  0  0  0  0
   -0.0934    1.8033    0.0000 C   0  0  0  0  0  0  0  0  0  0  0  0
   -0.0934    0.9783    0.0000 C   0  0  0  0  0  0  0  0  0  0  0  0
   -0.8079    0.5658    0.0000 C   0  0  0  0  0  0  0  0  0  0  0  0
   -1.5223    0.9783    0.0000 C   0  0  0  0  0  0  0  0  0  0  0  0
   -1.5223    1.8033    0.0000 C   0  0  0  0  0  0  0  0  0  0  0  0
    0.6210    0.5658    0.0000 C   0  0  0  0  0  0  0  0  0  0  0  0
    1.3354    0.9783    0.0000 N   0  0  0  0  0  0  0  0  0  0  0  0
    2.0499    0.5658    0.0000 C   0  0  0  0  0  0  0  0  0  0  0  0
    2.7644    0.9783    0.0000 C   0  0  0  0  0  0  0  0  0  0  0  0
    3.4789    0.5658    0.0000 C   0  0  0  0  0  0  0  0  0  0  0  0
    4.1933    0.9783    0.0000 Cl  0  0  0  0  0  0  0  0  0  0  0  0
    2.0499   -0.2591    0.0000 O   0  0  0  0  0  0  0  0  0  0  0  0
   -0.8079    3.2478    0.0000 H   0  0  0  0  0  0  0  0  0  0  0  0
    0.8003    2.3193    0.0000 H   0  0  0  0  0  0  0  0  0  0  0  0
   -0.8079   -0.4662    0.0000 H   0  0  0  0  0  0  0  0  0  0  0  0
   -2.4160    0.4623    0.0000 H   0  0  0  0  0  0  0  0  0  0  0  0
   -2.4160    2.3193    0.0000 H   0  0  0  0  0  0  0  0  0  0  0  0
    0.6210   -0.5042    0.0000 H   0  0  0  0  0  0  0  0  0  0  0  0
    1.5477    0.0308    0.0000 H   0  0  0  0  0  0  0  0  0  0  0  0
    1.3354    1.9628    0.0000 H   0  0  0  0  0  0  0  0  0  0  0  0
    2.7644    2.0483    0.0000 H   0  0  0  0  0  0  0  0  0  0  0  0
    3.6910    1.5133    0.0000 H   0  0  0  0  0  0  0  0  0  0  0  0
    3.4789   -0.5042    0.0000 H   0  0  0  0  0  0  0  0  0  0  0  0
    4.4056    0.0308    0.0000 H   0  0  0  0  0  0  0  0  0  0  0  0
  1  2  1  0  0  0  0
  1  6  2  0  0  0  0
  1 14  1  0  0  0  0
  2  3  2  0  0  0  0
  2 15  1  0  0  0  0
  3  4  1  0  0  0  0
  3  7  1  0  0  0  0
  4  5  2  0  0  0  0
  4 16  1  0  0  0  0
  5  6  1  0  0  0  0
  5 17  1  0  0  0  0
  6 18  1  0  0  0  0
  7  8  1  0  0  0  0
  7 19  1  0  0  0  0
  7 20  1  0  0  0  0
  8  9  1  0  0  0  0
  8 21  1  0  0  0  0
  9 10  1  0  0  0  0
  9 13  2  0  0  0  0
 10 11  1  0  0  0  0
 10 22  1  0  0  0  0
 10 23  1  0  0  0  0
 11 12  1  0  0  0  0
 11 24  1  0  0  0  0
 11 25  1  0  0  0  0
M  END
>  <DRUGBANK_ID>
DB09011

>  <COMMON_NAME>
Beclamide

>  <CAS_NUMBER>
501-68-8

>  <UNII>
F5N0ALI65V

>  <SYNONYMS>
Beclamida; Beclamide; Beclamidum; Benzchlorpropamide; Benzylamide

$$$$
