CAX
 OpenBabel10282417072D

 31 31  0  0  0  0  0  0  0  0999 V2000
    2.0223    1.5951    0.0000 O   0  0  0  0  0  0  0  0  0  0  0  0
    1.2377    1.3401    0.0000 C   0  0  0  0  0  0  0  0  0  0  0  0
    0.6246    1.8922    0.0000 O   0  0  0  0  0  0  0  0  0  0  0  0
    1.0662    0.5332    0.0000 C   0  0  0  0  0  0  0  0  0  0  0  0
    0.2815    0.2782    0.0000 C   0  0  1  0  0  0  0  0  0  0  0  0
    0.0266   -0.5064    0.0000 C   0  0  0  0  0  0  0  0  0  0  0  0
    0.8336   -0.6779    0.0000 C   0  0  0  0  0  0  0  0  0  0  0  0
   -0.0596   -1.3269    0.0000 C   0  0  0  0  0  0  0  0  0  0  0  0
   -0.7984   -0.5064    0.0000 C   0  0  2  0  0  0  0  0  0  0  0  0
   -1.2833   -1.1738    0.0000 C   0  0  0  0  0  0  0  0  0  0  0  0
   -1.0533    0.2782    0.0000 C   0  0  0  0  0  0  0  0  0  0  0  0
   -1.8380    0.5332    0.0000 O   0  0  0  0  0  0  0  0  0  0  0  0
   -0.3859    0.7632    0.0000 C   0  0  0  0  0  0  0  0  0  0  0  0
    0.8108    0.0315    0.0000 H   0  0  0  0  0  0  0  0  0  0  0  0
   -0.7272   -1.0860    0.0000 H   0  0  0  0  0  0  0  0  0  0  0  0
    2.7187    0.9682    0.0000 H   0  0  0  0  0  0  0  0  0  0  0  0
    0.2201    1.0095    0.0000 H   0  0  0  0  0  0  0  0  0  0  0  0
    0.8195    2.8087    0.0000 H   0  0  0  0  0  0  0  0  0  0  0  0
    1.8614   -0.1827    0.0000 H   0  0  0  0  0  0  0  0  0  0  0  0
    0.8438   -0.5134    0.0000 H   0  0  0  0  0  0  0  0  0  0  0  0
    1.1643   -1.6955    0.0000 H   0  0  0  0  0  0  0  0  0  0  0  0
    1.5495    0.1173    0.0000 H   0  0  0  0  0  0  0  0  0  0  0  0
    1.8802   -0.9003    0.0000 H   0  0  0  0  0  0  0  0  0  0  0  0
   -1.0371   -1.7622    0.0000 H   0  0  0  0  0  0  0  0  0  0  0  0
    0.8061   -1.9558    0.0000 H   0  0  0  0  0  0  0  0  0  0  0  0
   -0.1714   -2.3910    0.0000 H   0  0  0  0  0  0  0  0  0  0  0  0
   -2.3474   -1.0619    0.0000 H   0  0  0  0  0  0  0  0  0  0  0  0
   -0.8481   -2.1513    0.0000 H   0  0  0  0  0  0  0  0  0  0  0  0
   -1.9122   -2.0394    0.0000 H   0  0  0  0  0  0  0  0  0  0  0  0
   -0.3859    1.8332    0.0000 H   0  0  0  0  0  0  0  0  0  0  0  0
   -1.3393    1.2489    0.0000 H   0  0  0  0  0  0  0  0  0  0  0  0
  1  2  1  0  0  0  0
  1 16  1  0  0  0  0
  2  3  1  0  0  0  0
  2  4  1  0  0  0  0
  2 17  1  0  0  0  0
  3 18  1  0  0  0  0
  4 19  1  0  0  0  0
  4 20  1  0  0  0  0
  5  4  1  0  0  0  0
  5  6  1  0  0  0  0
  5 13  1  0  0  0  0
  5 14  1  6  0  0  0
  6  7  1  0  0  0  0
  6  8  1  0  0  0  0
  6  9  1  0  0  0  0
  7 21  1  0  0  0  0
  7 22  1  0  0  0  0
  7 23  1  0  0  0  0
  8 24  1  0  0  0  0
  8 25  1  0  0  0  0
  8 26  1  0  0  0  0
  9 10  1  0  0  0  0
  9 11  1  0  0  0  0
  9 15  1  1  0  0  0
 10 27  1  0  0  0  0
 10 28  1  0  0  0  0
 10 29  1  0  0  0  0
 11 12  2  0  0  0  0
 11 13  1  0  0  0  0
 13 30  1  0  0  0  0
 13 31  1  0  0  0  0
M  END
>  <DRUGBANK_ID>
DB02906

>  <SECONDARY_ACCESSION_NUMBERS>
EXPT00834

>  <COMMON_NAME>
(2s,4s)-Alpha-Campholinic Acid

$$$$
