780
 OpenBabel10282417072D

 22 22  0  0  0  0  0  0  0  0999 V2000
    3.0790    1.3942    0.0000 N   0  0  0  0  0  0  0  0  0  0  0  0
    3.7934    1.8067    0.0000 N   0  0  0  0  0  0  0  0  0  0  0  0
    2.3644    0.1568    0.0000 C   0  0  0  0  0  0  0  0  0  0  0  0
    2.3644   -0.6683    0.0000 C   0  0  0  0  0  0  0  0  0  0  0  0
    3.0790    0.5692    0.0000 C   0  0  0  0  0  0  0  0  0  0  0  0
    3.0790   -1.0808    0.0000 C   0  0  0  0  0  0  0  0  0  0  0  0
    1.6500   -1.0808    0.0000 C   0  0  0  0  0  0  0  0  0  0  0  0
    3.0790   -1.9058    0.0000 C   0  0  0  0  0  0  0  0  0  0  0  0
    1.6500   -1.9058    0.0000 C   0  0  0  0  0  0  0  0  0  0  0  0
    2.3644   -2.3182    0.0000 C   0  0  0  0  0  0  0  0  0  0  0  0
    2.1956    1.9042    0.0000 H   0  0  0  0  0  0  0  0  0  0  0  0
    4.6768    1.2967    0.0000 H   0  0  0  0  0  0  0  0  0  0  0  0
    3.7934    2.8267    0.0000 H   0  0  0  0  0  0  0  0  0  0  0  0
    1.4378    0.6919    0.0000 H   0  0  0  0  0  0  0  0  0  0  0  0
    2.3645    1.2268    0.0000 H   0  0  0  0  0  0  0  0  0  0  0  0
    4.0056    0.0341    0.0000 H   0  0  0  0  0  0  0  0  0  0  0  0
    3.0789   -0.5008    0.0000 H   0  0  0  0  0  0  0  0  0  0  0  0
    3.9727   -0.5648    0.0000 H   0  0  0  0  0  0  0  0  0  0  0  0
    0.7563   -0.5648    0.0000 H   0  0  0  0  0  0  0  0  0  0  0  0
    3.9727   -2.4219    0.0000 H   0  0  0  0  0  0  0  0  0  0  0  0
    0.7563   -2.4218    0.0000 H   0  0  0  0  0  0  0  0  0  0  0  0
    2.3643   -3.3502    0.0000 H   0  0  0  0  0  0  0  0  0  0  0  0
  1  2  1  0  0  0  0
  1  5  1  0  0  0  0
  1 11  1  0  0  0  0
  2 12  1  0  0  0  0
  2 13  1  0  0  0  0
  3  4  1  0  0  0  0
  3  5  1  0  0  0  0
  3 14  1  0  0  0  0
  3 15  1  0  0  0  0
  4  6  2  0  0  0  0
  4  7  1  0  0  0  0
  5 16  1  0  0  0  0
  5 17  1  0  0  0  0
  6  8  1  0  0  0  0
  6 18  1  0  0  0  0
  7  9  2  0  0  0  0
  7 19  1  0  0  0  0
  8 10  2  0  0  0  0
  8 20  1  0  0  0  0
  9 10  1  0  0  0  0
  9 21  1  0  0  0  0
 10 22  1  0  0  0  0
M  END
>  <DRUGBANK_ID>
DB00780

>  <SECONDARY_ACCESSION_NUMBERS>
APRD00099

>  <COMMON_NAME>
Phenelzine

>  <CAS_NUMBER>
51-71-8

>  <UNII>
O408N561GF

>  <SYNONYMS>
Fenelzina; Phenelzin; Phenelzine; Ph√©nelzine; Phenelzinum

$$$$
