
 OpenBabel10282417072D

 80 85  0  0  1  0  0  0  0  0999 V2000
    6.7602   -2.6912    0.0000 C   0  0  0  0  0  0  0  0  0  0  0  0
    4.5466    1.3336    0.0000 C   0  0  0  0  0  0  0  0  0  0  0  0
    2.0307    1.7357    0.0000 C   0  0  0  0  0  0  0  0  0  0  0  0
    1.3705    2.3821    0.0000 C   0  0  0  0  0  0  0  0  0  0  0  0
    4.5754   -0.8489    0.0000 C   0  0  0  0  0  0  0  0  0  0  0  0
    3.7633   -0.7037    0.0000 C   0  0  0  0  0  0  0  0  0  0  0  0
    0.8642    3.0334    0.0000 C   0  0  0  0  0  0  0  0  0  0  0  0
    6.1708    1.0432    0.0000 C   0  0  0  0  0  0  0  0  0  0  0  0
    3.7345    1.4789    0.0000 C   0  0  0  0  0  0  0  0  0  0  0  0
    1.3367    0.1741    0.0000 C   0  0  0  0  0  0  0  0  0  0  0  0
    5.3587    1.1884    0.0000 C   0  0  0  0  0  0  0  0  0  0  0  0
    2.9224    1.6241    0.0000 C   0  0  0  0  0  0  0  0  0  0  0  0
    2.0195   -0.2889    0.0000 C   0  0  0  0  0  0  0  0  0  0  0  0
    5.9193   -0.3634    0.0000 C   0  0  0  0  0  0  0  0  0  0  0  0
    0.2424    1.5050    0.0000 C   0  0  0  0  0  0  0  0  0  0  0  0
    7.2920   -2.0605    0.0000 C   0  0  1  0  0  0  0  0  0  0  0  0
    1.0596    1.6179    0.0000 C   0  0  0  0  0  0  0  0  0  0  0  0
    5.1072   -0.2182    0.0000 C   0  0  0  0  0  0  0  0  0  0  0  0
    6.4511    0.2673    0.0000 C   0  0  1  0  0  0  0  0  0  0  0  0
    1.5660    0.9666    0.0000 C   0  0  2  0  0  0  0  0  0  0  0  0
    4.0148    0.7029    0.0000 C   0  0  1  0  0  0  0  0  0  0  0  0
    3.4830    0.0722    0.0000 C   0  0  2  0  0  0  0  0  0  0  0  0
    0.0469    2.9205    0.0000 C   0  0  0  0  0  0  0  0  0  0  0  0
    8.1041   -2.2057    0.0000 C   0  0  1  0  0  0  0  0  0  0  0  0
    8.6360   -1.5750    0.0000 C   0  0  2  0  0  0  0  0  0  0  0  0
    8.3557   -0.7991    0.0000 C   0  0  2  0  0  0  0  0  0  0  0  0
    7.5435   -0.6539    0.0000 C   0  0  1  0  0  0  0  0  0  0  0  0
    4.8269    0.5577    0.0000 C   0  0  2  0  0  0  0  0  0  0  0  0
    2.3905    0.9934    0.0000 C   0  0  1  0  0  0  0  0  0  0  0  0
    2.6708    0.2174    0.0000 C   0  0  2  0  0  0  0  0  0  0  0  0
   -0.4594    3.5719    0.0000 O   0  0  0  0  0  0  0  0  0  0  0  0
    8.3844   -2.9816    0.0000 O   0  0  0  0  0  0  0  0  0  0  0  0
    9.4481   -1.7202    0.0000 O   0  0  0  0  0  0  0  0  0  0  0  0
    8.8875   -0.1684    0.0000 O   0  0  0  0  0  0  0  0  0  0  0  0
    2.8685   -0.5835    0.0000 O   0  0  0  0  0  0  0  0  0  0  0  0
   -0.2640    2.1564    0.0000 O   0  0  0  0  0  0  0  0  0  0  0  0
    7.0117   -1.2846    0.0000 O   0  0  0  0  0  0  0  0  0  0  0  0
    7.2632    0.1221    0.0000 O   0  0  0  0  0  0  0  0  0  0  0  0
    7.5723   -2.8364    0.0000 H   0  0  0  0  0  0  0  0  0  0  0  0
    6.7314   -0.5086    0.0000 H   0  0  0  0  0  0  0  0  0  0  0  0
    0.7557    0.8111    0.0000 H   0  0  0  0  0  0  0  0  0  0  0  0
    3.2027    0.8481    0.0000 H   0  0  0  0  0  0  0  0  0  0  0  0
    4.2951   -0.0730    0.0000 H   0  0  0  0  0  0  0  0  0  0  0  0
    8.9163   -2.3509    0.0000 H   0  0  0  0  0  0  0  0  0  0  0  0
    7.8238   -1.4298    0.0000 H   0  0  0  0  0  0  0  0  0  0  0  0
    9.1678   -0.9443    0.0000 H   0  0  0  0  0  0  0  0  0  0  0  0
    8.0754   -0.0231    0.0000 H   0  0  0  0  0  0  0  0  0  0  0  0
    5.7069   -2.5029    0.0000 H   0  0  0  0  0  0  0  0  0  0  0  0
    7.1238   -3.6975    0.0000 H   0  0  0  0  0  0  0  0  0  0  0  0
    6.0705   -3.5092    0.0000 H   0  0  0  0  0  0  0  0  0  0  0  0
    5.2363    2.1516    0.0000 H   0  0  0  0  0  0  0  0  0  0  0  0
    3.4933    1.5219    0.0000 H   0  0  0  0  0  0  0  0  0  0  0  0
    4.1830    2.3399    0.0000 H   0  0  0  0  0  0  0  0  0  0  0  0
    2.6312    2.6213    0.0000 H   0  0  0  0  0  0  0  0  0  0  0  0
    0.9635    1.8129    0.0000 H   0  0  0  0  0  0  0  0  0  0  0  0
    1.5640    2.6986    0.0000 H   0  0  0  0  0  0  0  0  0  0  0  0
    2.3928    2.5233    0.0000 H   0  0  0  0  0  0  0  0  0  0  0  0
    4.9390   -1.8552    0.0000 H   0  0  0  0  0  0  0  0  0  0  0  0
    5.6287   -1.0372    0.0000 H   0  0  0  0  0  0  0  0  0  0  0  0
    3.0736   -1.5217    0.0000 H   0  0  0  0  0  0  0  0  0  0  0  0
    2.7100   -0.5154    0.0000 H   0  0  0  0  0  0  0  0  0  0  0  0
    1.2531    3.9893    0.0000 H   0  0  0  0  0  0  0  0  0  0  0  0
    6.8605    1.8612    0.0000 H   0  0  0  0  0  0  0  0  0  0  0  0
    7.2241    0.8549    0.0000 H   0  0  0  0  0  0  0  0  0  0  0  0
    4.4243    2.2969    0.0000 H   0  0  0  0  0  0  0  0  0  0  0  0
    4.7878    1.2905    0.0000 H   0  0  0  0  0  0  0  0  0  0  0  0
    0.3303   -0.1894    0.0000 H   0  0  0  0  0  0  0  0  0  0  0  0
    0.5559    0.9057    0.0000 H   0  0  0  0  0  0  0  0  0  0  0  0
    4.9951    2.1947    0.0000 H   0  0  0  0  0  0  0  0  0  0  0  0
    4.3054    1.3767    0.0000 H   0  0  0  0  0  0  0  0  0  0  0  0
    2.5589    2.6305    0.0000 H   0  0  0  0  0  0  0  0  0  0  0  0
    1.8691    1.8125    0.0000 H   0  0  0  0  0  0  0  0  0  0  0  0
    2.0542   -1.3583    0.0000 H   0  0  0  0  0  0  0  0  0  0  0  0
    2.9881   -0.7435    0.0000 H   0  0  0  0  0  0  0  0  0  0  0  0
    6.2699   -1.3340    0.0000 H   0  0  0  0  0  0  0  0  0  0  0  0
   -0.1465    0.5491    0.0000 H   0  0  0  0  0  0  0  0  0  0  0  0
    7.7591   -3.7232    0.0000 H   0  0  0  0  0  0  0  0  0  0  0  0
    9.7777   -2.6325    0.0000 H   0  0  0  0  0  0  0  0  0  0  0  0
    9.8424   -0.3391    0.0000 H   0  0  0  0  0  0  0  0  0  0  0  0
    2.1692   -1.2557    0.0000 H   0  0  0  0  0  0  0  0  0  0  0  0
  1 48  1  0  0  0  0
  1 49  1  0  0  0  0
  1 50  1  0  0  0  0
  2 51  1  0  0  0  0
  2 52  1  0  0  0  0
  2 53  1  0  0  0  0
  3 54  1  0  0  0  0
  3 55  1  0  0  0  0
  3 56  1  0  0  0  0
  4 57  1  0  0  0  0
  5 58  1  0  0  0  0
  5 59  1  0  0  0  0
  6  5  1  0  0  0  0
  6 60  1  0  0  0  0
  6 61  1  0  0  0  0
  7  4  2  0  0  0  0
  7 62  1  0  0  0  0
  8 63  1  0  0  0  0
  8 64  1  0  0  0  0
  9 65  1  0  0  0  0
  9 66  1  0  0  0  0
 10 67  1  0  0  0  0
 10 68  1  0  0  0  0
 11  8  1  0  0  0  0
 11 69  1  0  0  0  0
 11 70  1  0  0  0  0
 12  9  1  0  0  0  0
 12 71  1  0  0  0  0
 12 72  1  0  0  0  0
 13 10  1  0  0  0  0
 13 73  1  0  0  0  0
 13 74  1  0  0  0  0
 14 75  1  0  0  0  0
 15 76  1  0  0  0  0
 16  1  1  0  0  0  0
 16 39  1  1  0  0  0
 17  4  1  0  0  0  0
 17 15  2  0  0  0  0
 18  5  1  0  0  0  0
 18 14  2  0  0  0  0
 19  8  1  0  0  0  0
 19 14  1  0  0  0  0
 19 38  1  0  0  0  0
 19 40  1  1  0  0  0
 20 10  1  0  0  0  0
 20 17  1  0  0  0  0
 20 41  1  1  0  0  0
 21  9  1  0  0  0  0
 21 42  1  1  0  0  0
 22  6  1  0  0  0  0
 22 21  1  0  0  0  0
 22 43  1  6  0  0  0
 23  7  1  0  0  0  0
 24 16  1  0  0  0  0
 24 32  1  0  0  0  0
 24 44  1  6  0  0  0
 25 24  1  0  0  0  0
 25 33  1  0  0  0  0
 25 45  1  1  0  0  0
 26 25  1  0  0  0  0
 26 34  1  0  0  0  0
 26 46  1  1  0  0  0
 27 26  1  0  0  0  0
 27 38  1  0  0  0  0
 27 47  1  6  0  0  0
 28  2  1  6  0  0  0
 28 11  1  0  0  0  0
 28 18  1  0  0  0  0
 28 21  1  0  0  0  0
 29  3  1  6  0  0  0
 29 12  1  0  0  0  0
 29 20  1  0  0  0  0
 30 13  1  0  0  0  0
 30 22  1  0  0  0  0
 30 29  1  0  0  0  0
 30 35  1  6  0  0  0
 31 23  2  0  0  0  0
 32 77  1  0  0  0  0
 33 78  1  0  0  0  0
 34 79  1  0  0  0  0
 35 80  1  0  0  0  0
 36 15  1  0  0  0  0
 36 23  1  0  0  0  0
 37 16  1  0  0  0  0
 37 27  1  0  0  0  0
M  END
>  <DRUGBANK_ID>
DB13307

>  <COMMON_NAME>
Proscillaridin

>  <CAS_NUMBER>
466-06-8

>  <UNII>
KC6BL281EN

>  <SYNONYMS>
Proscillaridin

$$$$
