
 OpenBabel10282417072D

 39 39  0  0  0  0  0  0  0  0999 V2000
   -0.7168    0.0000    0.0000 O   0  0  0  0  0  0  0  0  0  0  0  0
   -1.4263    1.2400    0.0000 O   0  0  0  0  0  0  0  0  0  0  0  0
   -2.1574    0.0000    0.0000 C   0  0  0  0  0  0  0  0  0  0  0  0
   -1.4263    0.4085    0.0000 C   0  0  0  0  0  0  0  0  0  0  0  0
   -2.8671    0.4085    0.0000 C   0  0  0  0  0  0  0  0  0  0  0  0
   -2.1574   -0.8314    0.0000 C   0  0  0  0  0  0  0  0  0  0  0  0
    0.7168    0.0000    0.0000 C   0  0  3  0  0  0  0  0  0  0  0  0
    0.0000    0.4085    0.0000 C   0  0  0  0  0  0  0  0  0  0  0  0
   -3.5838    0.0000    0.0000 C   0  0  0  0  0  0  0  0  0  0  0  0
   -2.8671   -1.2400    0.0000 C   0  0  0  0  0  0  0  0  0  0  0  0
   -3.5838   -0.8314    0.0000 C   0  0  0  0  0  0  0  0  0  0  0  0
    1.4263    0.4085    0.0000 C   0  0  0  0  0  0  0  0  0  0  0  0
    0.7168   -0.8314    0.0000 C   0  0  0  0  0  0  0  0  0  0  0  0
    2.1574    0.0000    0.0000 C   0  0  0  0  0  0  0  0  0  0  0  0
    1.4263   -1.2400    0.0000 C   0  0  0  0  0  0  0  0  0  0  0  0
    2.8671    0.4085    0.0000 C   0  0  0  0  0  0  0  0  0  0  0  0
    3.5838    0.0000    0.0000 C   0  0  0  0  0  0  0  0  0  0  0  0
   -2.8649    1.4405    0.0000 H   0  0  0  0  0  0  0  0  0  0  0  0
   -1.2640   -1.3479    0.0000 H   0  0  0  0  0  0  0  0  0  0  0  0
    0.7144    1.0700    0.0000 H   0  0  0  0  0  0  0  0  0  0  0  0
    0.0000    1.4785    0.0000 H   0  0  0  0  0  0  0  0  0  0  0  0
    0.9251    0.9461    0.0000 H   0  0  0  0  0  0  0  0  0  0  0  0
   -4.4761    0.5185    0.0000 H   0  0  0  0  0  0  0  0  0  0  0  0
   -2.8649   -2.2720    0.0000 H   0  0  0  0  0  0  0  0  0  0  0  0
   -4.4761   -1.3498    0.0000 H   0  0  0  0  0  0  0  0  0  0  0  0
    1.4194    1.4785    0.0000 H   0  0  0  0  0  0  0  0  0  0  0  0
    2.3474    0.9530    0.0000 H   0  0  0  0  0  0  0  0  0  0  0  0
   -0.2096   -1.3669    0.0000 H   0  0  0  0  0  0  0  0  0  0  0  0
    0.7177   -1.9014    0.0000 H   0  0  0  0  0  0  0  0  0  0  0  0
    2.1642   -1.0700    0.0000 H   0  0  0  0  0  0  0  0  0  0  0  0
    3.0854   -0.5327    0.0000 H   0  0  0  0  0  0  0  0  0  0  0  0
    1.4275   -2.3100    0.0000 H   0  0  0  0  0  0  0  0  0  0  0  0
    2.3524   -0.7040    0.0000 H   0  0  0  0  0  0  0  0  0  0  0  0
    2.3535   -1.7740    0.0000 H   0  0  0  0  0  0  0  0  0  0  0  0
    2.8648    1.4785    0.0000 H   0  0  0  0  0  0  0  0  0  0  0  0
    3.7917    0.9470    0.0000 H   0  0  0  0  0  0  0  0  0  0  0  0
    3.5897   -1.0700    0.0000 H   0  0  0  0  0  0  0  0  0  0  0  0
    4.5075    0.5401    0.0000 H   0  0  0  0  0  0  0  0  0  0  0  0
    4.5134   -0.5298    0.0000 H   0  0  0  0  0  0  0  0  0  0  0  0
  1  4  1  0  0  0  0
  1  8  1  0  0  0  0
  2  4  2  0  0  0  0
  3  4  1  0  0  0  0
  3  5  2  0  0  0  0
  3  6  1  0  0  0  0
  5  9  1  0  0  0  0
  5 18  1  0  0  0  0
  6 10  2  0  0  0  0
  6 19  1  0  0  0  0
  7  8  1  0  0  0  0
  7 12  1  0  0  0  0
  7 13  1  0  0  0  0
  7 20  1  0  0  0  0
  8 21  1  0  0  0  0
  8 22  1  0  0  0  0
  9 11  2  0  0  0  0
  9 23  1  0  0  0  0
 10 11  1  0  0  0  0
 10 24  1  0  0  0  0
 11 25  1  0  0  0  0
 12 14  1  0  0  0  0
 12 26  1  0  0  0  0
 12 27  1  0  0  0  0
 13 15  1  0  0  0  0
 13 28  1  0  0  0  0
 13 29  1  0  0  0  0
 14 16  1  0  0  0  0
 14 30  1  0  0  0  0
 14 31  1  0  0  0  0
 15 32  1  0  0  0  0
 15 33  1  0  0  0  0
 15 34  1  0  0  0  0
 16 17  1  0  0  0  0
 16 35  1  0  0  0  0
 16 36  1  0  0  0  0
 17 37  1  0  0  0  0
 17 38  1  0  0  0  0
 17 39  1  0  0  0  0
M  END
>  <DRUGBANK_ID>
DB11291

>  <COMMON_NAME>
2-ethylhexyl benzoate

>  <CAS_NUMBER>
5444-75-7

>  <UNII>
R63ZWW1A13

>  <SYNONYMS>
2-Ethyl-1-hexanol benzoate; Ethylhexyl benzoate

$$$$
