
 OpenBabel10282417072D

 46 49  0  0  1  0  0  0  0  0999 V2000
   -1.0472   -0.5196    0.0000 C   0  0  0  0  0  0  0  0  0  0  0  0
   -1.0472   -1.3447    0.0000 C   0  0  0  0  0  0  0  0  0  0  0  0
   -1.7618   -0.1070    0.0000 C   0  0  0  0  0  0  0  0  0  0  0  0
   -1.7618   -1.7571    0.0000 C   0  0  0  0  0  0  0  0  0  0  0  0
   -2.4762   -0.5196    0.0000 C   0  0  0  0  0  0  0  0  0  0  0  0
   -2.4762   -1.3447    0.0000 C   0  0  0  0  0  0  0  0  0  0  0  0
   -0.3326   -0.1070    0.0000 C   0  0  2  0  0  0  0  0  0  0  0  0
    0.3816   -0.5197    0.0000 C   0  0  1  0  0  0  0  0  0  0  0  0
   -0.3328   -1.7571    0.0000 C   0  0  0  0  0  0  0  0  0  0  0  0
    0.3816   -1.3447    0.0000 C   0  0  0  0  0  0  0  0  0  0  0  0
   -0.3326    0.7179    0.0000 C   0  0  0  0  0  0  0  0  0  0  0  0
    0.3818    1.1302    0.0000 C   0  0  0  0  0  0  0  0  0  0  0  0
    1.0961   -0.1073    0.0000 C   0  0  1  0  0  0  0  0  0  0  0  0
    1.0962    0.7177    0.0000 C   0  0  1  0  0  0  0  0  0  0  0  0
    1.8808   -0.3622    0.0000 C   0  0  2  0  0  0  0  0  0  0  0  0
    2.3658    0.3050    0.0000 C   0  0  2  0  0  0  0  0  0  0  0  0
    1.8809    0.9725    0.0000 C   0  0  2  0  0  0  0  0  0  0  0  0
   -3.1908   -1.7571    0.0000 O   0  0  0  0  0  0  0  0  0  0  0  0
    3.1908    0.3048    0.0000 O   0  0  0  0  0  0  0  0  0  0  0  0
    2.1356   -1.1469    0.0000 O   0  0  0  0  0  0  0  0  0  0  0  0
    2.1361    1.7571    0.0000 O   0  0  0  0  0  0  0  0  0  0  0  0
    1.1051    1.5830    0.0000 C   0  0  0  0  0  0  0  0  0  0  0  0
    1.0847   -0.8638    0.0000 H   0  0  0  0  0  0  0  0  0  0  0  0
   -0.3570   -0.9046    0.0000 H   0  0  0  0  0  0  0  0  0  0  0  0
    0.3678    0.2784    0.0000 H   0  0  0  0  0  0  0  0  0  0  0  0
   -1.7619    0.9250    0.0000 H   0  0  0  0  0  0  0  0  0  0  0  0
   -1.7619   -2.7891    0.0000 H   0  0  0  0  0  0  0  0  0  0  0  0
   -3.3700   -0.0037    0.0000 H   0  0  0  0  0  0  0  0  0  0  0  0
   -0.3328   -2.8271    0.0000 H   0  0  0  0  0  0  0  0  0  0  0  0
    0.5938   -2.2921    0.0000 H   0  0  0  0  0  0  0  0  0  0  0  0
    1.3082   -1.8797    0.0000 H   0  0  0  0  0  0  0  0  0  0  0  0
    0.3816   -2.4147    0.0000 H   0  0  0  0  0  0  0  0  0  0  0  0
   -1.2592    1.2530    0.0000 H   0  0  0  0  0  0  0  0  0  0  0  0
   -0.3325    1.7879    0.0000 H   0  0  0  0  0  0  0  0  0  0  0  0
    0.3819    2.2002    0.0000 H   0  0  0  0  0  0  0  0  0  0  0  0
    1.3085    1.6651    0.0000 H   0  0  0  0  0  0  0  0  0  0  0  0
    1.1242   -1.1188    0.0000 H   0  0  0  0  0  0  0  0  0  0  0  0
    2.8513   -0.6485    0.0000 H   0  0  0  0  0  0  0  0  0  0  0  0
    1.1245    1.7293    0.0000 H   0  0  0  0  0  0  0  0  0  0  0  0
   -4.0022   -1.2885    0.0000 H   0  0  0  0  0  0  0  0  0  0  0  0
    3.6756   -0.5354    0.0000 H   0  0  0  0  0  0  0  0  0  0  0  0
    1.4864   -1.8676    0.0000 H   0  0  0  0  0  0  0  0  0  0  0  0
    3.0850    1.9585    0.0000 H   0  0  0  0  0  0  0  0  0  0  0  0
    2.0372    2.1084    0.0000 H   0  0  0  0  0  0  0  0  0  0  0  0
    0.1840    2.1275    0.0000 H   0  0  0  0  0  0  0  0  0  0  0  0
    1.1161    2.6529    0.0000 H   0  0  0  0  0  0  0  0  0  0  0  0
  2  1  1  0  0  0  0
  3  1  2  0  0  0  0
  3 26  1  0  0  0  0
  4  2  2  0  0  0  0
  4 27  1  0  0  0  0
  5  3  1  0  0  0  0
  5 28  1  0  0  0  0
  6  4  1  0  0  0  0
  6  5  2  0  0  0  0
  6 18  1  0  0  0  0
  7  1  1  0  0  0  0
  7 24  1  6  0  0  0
  8  7  1  0  0  0  0
  8 25  1  1  0  0  0
  9  2  1  0  0  0  0
  9 29  1  0  0  0  0
  9 30  1  0  0  0  0
 10  8  1  0  0  0  0
 10  9  1  0  0  0  0
 10 31  1  0  0  0  0
 10 32  1  0  0  0  0
 11  7  1  0  0  0  0
 11 33  1  0  0  0  0
 11 34  1  0  0  0  0
 12 11  1  0  0  0  0
 12 35  1  0  0  0  0
 12 36  1  0  0  0  0
 13  8  1  0  0  0  0
 13 23  1  6  0  0  0
 14 12  1  0  0  0  0
 14 13  1  0  0  0  0
 14 22  1  1  0  0  0
 15 13  1  0  0  0  0
 15 20  1  0  0  0  0
 15 37  1  1  0  0  0
 16 15  1  0  0  0  0
 16 19  1  0  0  0  0
 16 38  1  1  0  0  0
 17 14  1  0  0  0  0
 17 16  1  0  0  0  0
 17 21  1  0  0  0  0
 17 39  1  6  0  0  0
 18 40  1  0  0  0  0
 19 41  1  0  0  0  0
 20 42  1  0  0  0  0
 21 43  1  0  0  0  0
 22 44  1  0  0  0  0
 22 45  1  0  0  0  0
 22 46  1  0  0  0  0
M  END
>  <DRUGBANK_ID>
DB12235

>  <COMMON_NAME>
Estetrol

>  <CAS_NUMBER>
15183-37-6

>  <UNII>
ENB39R14VF

>  <SYNONYMS>
15α-hydroxyestriol; Estétrol; Estetrol; Estetrolum; Oestetrol

$$$$
