BBL
 OpenBabel10282417072D

 29 29  0  0  0  0  0  0  0  0999 V2000
   -3.5778    0.1575    0.0000 O   0  0  0  0  0  0  0  0  0  0  0  0
   -2.8633   -0.2550    0.0000 C   0  0  0  0  0  0  0  0  0  0  0  0
   -2.8633   -1.0800    0.0000 O   0  0  0  0  0  0  0  0  0  0  0  0
   -2.1489    0.1575    0.0000 C   0  0  2  0  0  0  0  0  0  0  0  0
   -2.1489    0.9825    0.0000 C   0  0  0  0  0  0  0  0  0  0  0  0
   -1.4344   -0.2550    0.0000 N   0  0  0  0  0  0  0  0  0  0  0  0
   -0.7199    0.1575    0.0000 C   0  0  0  0  0  0  0  0  0  0  0  0
   -0.7199    0.9825    0.0000 O   0  0  0  0  0  0  0  0  0  0  0  0
   -0.0055   -0.2550    0.0000 O   0  0  0  0  0  0  0  0  0  0  0  0
    0.7090    0.1575    0.0000 C   0  0  0  0  0  0  0  0  0  0  0  0
    1.4235   -0.2550    0.0000 C   0  0  0  0  0  0  0  0  0  0  0  0
    2.1380    0.1575    0.0000 C   0  0  0  0  0  0  0  0  0  0  0  0
    2.8524   -0.2550    0.0000 C   0  0  0  0  0  0  0  0  0  0  0  0
    2.8524   -1.0800    0.0000 C   0  0  0  0  0  0  0  0  0  0  0  0
    2.1380   -1.4925    0.0000 C   0  0  0  0  0  0  0  0  0  0  0  0
    1.4235   -1.0800    0.0000 C   0  0  0  0  0  0  0  0  0  0  0  0
   -2.6546    0.4495    0.0000 H   0  0  0  0  0  0  0  0  0  0  0  0
   -3.5778    1.0945    0.0000 H   0  0  0  0  0  0  0  0  0  0  0  0
   -1.2223    1.5175    0.0000 H   0  0  0  0  0  0  0  0  0  0  0  0
   -3.0755    1.5175    0.0000 H   0  0  0  0  0  0  0  0  0  0  0  0
   -2.1489    2.0525    0.0000 H   0  0  0  0  0  0  0  0  0  0  0  0
   -1.4344   -1.2395    0.0000 H   0  0  0  0  0  0  0  0  0  0  0  0
    0.7090    1.2275    0.0000 H   0  0  0  0  0  0  0  0  0  0  0  0
    1.6356    0.6925    0.0000 H   0  0  0  0  0  0  0  0  0  0  0  0
    2.1380    1.1895    0.0000 H   0  0  0  0  0  0  0  0  0  0  0  0
    3.7461    0.2610    0.0000 H   0  0  0  0  0  0  0  0  0  0  0  0
    3.7461   -1.5960    0.0000 H   0  0  0  0  0  0  0  0  0  0  0  0
    2.1380   -2.5245    0.0000 H   0  0  0  0  0  0  0  0  0  0  0  0
    0.5298   -1.5960    0.0000 H   0  0  0  0  0  0  0  0  0  0  0  0
  1  2  1  0  0  0  0
  1 18  1  0  0  0  0
  2  3  2  0  0  0  0
  2  4  1  0  0  0  0
  4  5  1  0  0  0  0
  4  6  1  0  0  0  0
  4 17  1  1  0  0  0
  5 19  1  0  0  0  0
  5 20  1  0  0  0  0
  5 21  1  0  0  0  0
  6  7  1  0  0  0  0
  6 22  1  0  0  0  0
  7  8  2  0  0  0  0
  7  9  1  0  0  0  0
  9 10  1  0  0  0  0
 10 11  1  0  0  0  0
 10 23  1  0  0  0  0
 10 24  1  0  0  0  0
 11 12  2  0  0  0  0
 11 16  1  0  0  0  0
 12 13  1  0  0  0  0
 12 25  1  0  0  0  0
 13 14  2  0  0  0  0
 13 26  1  0  0  0  0
 14 15  1  0  0  0  0
 14 27  1  0  0  0  0
 15 16  2  0  0  0  0
 15 28  1  0  0  0  0
 16 29  1  0  0  0  0
M  END
>  <DRUGBANK_ID>
DB04634

>  <COMMON_NAME>
N-BENZYLOXYCARBONYL-L-SERINE-BETALACTONE

>  <UNII>
PUL5J6PUL2

$$$$
