
 OpenBabel10282417072D

 31 30  0  0  1  0  0  0  0  0999 V2000
    2.2836    2.1434    0.0000 C   0  0  0  0  0  0  0  0  0  0  0  0
    2.9980    2.5559    0.0000 C   0  0  0  0  0  0  0  0  0  0  0  0
    2.9980    3.3809    0.0000 C   0  0  0  0  0  0  0  0  0  0  0  0
    3.7125    2.1434    0.0000 C   0  0  2  0  0  0  0  0  0  0  0  0
    3.7125    1.3184    0.0000 N   0  0  0  0  0  0  0  0  0  0  0  0
    4.4270    2.5559    0.0000 C   0  0  0  0  0  0  0  0  0  0  0  0
    4.4270    3.3809    0.0000 O   0  0  0  0  0  0  0  0  0  0  0  0
    5.1414    2.1434    0.0000 O   0  0  0  0  0  0  0  0  0  0  0  0
    5.8559    2.5559    0.0000 C   0  0  0  0  0  0  0  0  0  0  0  0
    6.5704    2.1434    0.0000 C   0  0  0  0  0  0  0  0  0  0  0  0
    7.2849    2.5559    0.0000 C   0  0  0  0  0  0  0  0  0  0  0  0
    7.9993    2.1434    0.0000 C   0  0  0  0  0  0  0  0  0  0  0  0
    8.7138    2.5559    0.0000 O   0  0  0  0  0  0  0  0  0  0  0  0
    7.9993    1.3184    0.0000 O   0  0  0  0  0  0  0  0  0  0  0  0
    1.3569    2.6784    0.0000 H   0  0  0  0  0  0  0  0  0  0  0  0
    2.2836    1.0734    0.0000 H   0  0  0  0  0  0  0  0  0  0  0  0
    1.3570    1.6084    0.0000 H   0  0  0  0  0  0  0  0  0  0  0  0
    3.9246    3.0909    0.0000 H   0  0  0  0  0  0  0  0  0  0  0  0
    3.9246    3.9159    0.0000 H   0  0  0  0  0  0  0  0  0  0  0  0
    2.0714    3.9159    0.0000 H   0  0  0  0  0  0  0  0  0  0  0  0
    2.9980    4.4509    0.0000 H   0  0  0  0  0  0  0  0  0  0  0  0
    2.7859    1.6084    0.0000 H   0  0  0  0  0  0  0  0  0  0  0  0
    2.8292    0.8084    0.0000 H   0  0  0  0  0  0  0  0  0  0  0  0
    4.5958    0.8084    0.0000 H   0  0  0  0  0  0  0  0  0  0  0  0
    5.8559    3.6259    0.0000 H   0  0  0  0  0  0  0  0  0  0  0  0
    6.7825    3.0909    0.0000 H   0  0  0  0  0  0  0  0  0  0  0  0
    6.5704    1.0734    0.0000 H   0  0  0  0  0  0  0  0  0  0  0  0
    7.4970    1.6084    0.0000 H   0  0  0  0  0  0  0  0  0  0  0  0
    7.2849    3.6259    0.0000 H   0  0  0  0  0  0  0  0  0  0  0  0
    8.2116    3.0909    0.0000 H   0  0  0  0  0  0  0  0  0  0  0  0
    9.5253    2.0874    0.0000 H   0  0  0  0  0  0  0  0  0  0  0  0
  1  2  1  0  0  0  0
  1 15  1  0  0  0  0
  1 16  1  0  0  0  0
  1 17  1  0  0  0  0
  2  3  1  0  0  0  0
  2 18  1  0  0  0  0
  3 19  1  0  0  0  0
  3 20  1  0  0  0  0
  3 21  1  0  0  0  0
  4  2  1  0  0  0  0
  4  5  1  0  0  0  0
  4  6  1  0  0  0  0
  4 22  1  6  0  0  0
  5 23  1  0  0  0  0
  5 24  1  0  0  0  0
  6  7  2  0  0  0  0
  6  8  1  0  0  0  0
  8  9  1  0  0  0  0
  9 10  1  0  0  0  0
  9 25  1  0  0  0  0
  9 26  1  0  0  0  0
 10 11  1  0  0  0  0
 10 27  1  0  0  0  0
 10 28  1  0  0  0  0
 11 12  1  0  0  0  0
 11 29  1  0  0  0  0
 11 30  1  0  0  0  0
 12 13  1  0  0  0  0
 12 14  2  0  0  0  0
 13 31  1  0  0  0  0
M  END
>  <DRUGBANK_ID>
DB16937

>  <COMMON_NAME>
Valiloxibic acid

>  <CAS_NUMBER>
238401-16-6

>  <UNII>
9B8NWP8K91

>  <SYNONYMS>
4-((l-valyl)oxy)butanoic acid; L-valine, 3-carboxypropyl ester; Valiloxybate

$$$$
