
 OpenBabel10282417072D

 52 55  0  0  0  0  0  0  0  0999 V2000
    2.6378    3.9979    0.0000 C   0  0  0  0  0  0  0  0  0  0  0  0
    3.3523    3.5854    0.0000 C   0  0  0  0  0  0  0  0  0  0  0  0
    2.9398    2.8710    0.0000 C   0  0  0  0  0  0  0  0  0  0  0  0
    4.0668    3.1729    0.0000 C   0  0  0  0  0  0  0  0  0  0  0  0
    4.7812    3.5854    0.0000 C   0  0  0  0  0  0  0  0  0  0  0  0
    5.4957    3.1729    0.0000 C   0  0  0  0  0  0  0  0  0  0  0  0
    5.4957    2.3479    0.0000 C   0  0  0  0  0  0  0  0  0  0  0  0
    4.7812    1.9354    0.0000 C   0  0  0  0  0  0  0  0  0  0  0  0
    4.0668    2.3479    0.0000 C   0  0  0  0  0  0  0  0  0  0  0  0
    3.3523    1.9354    0.0000 C   0  0  0  0  0  0  0  0  0  0  0  0
    3.3523    1.1104    0.0000 C   0  0  0  0  0  0  0  0  0  0  0  0
    2.6378    0.6979    0.0000 C   0  0  0  0  0  0  0  0  0  0  0  0
    1.9233    1.1104    0.0000 C   0  0  0  0  0  0  0  0  0  0  0  0
    1.9233    1.9354    0.0000 C   0  0  0  0  0  0  0  0  0  0  0  0
    2.6378    2.3479    0.0000 C   0  0  0  0  0  0  0  0  0  0  0  0
    1.1387    2.1904    0.0000 N   0  0  0  0  0  0  0  0  0  0  0  0
    0.6538    1.5229    0.0000 C   0  0  0  0  0  0  0  0  0  0  0  0
    1.1387    0.8555    0.0000 N   0  0  0  0  0  0  0  0  0  0  0  0
   -0.1712    1.5229    0.0000 C   0  0  0  0  0  0  0  0  0  0  0  0
   -0.5837    0.8085    0.0000 C   0  0  0  0  0  0  0  0  0  0  0  0
   -1.4087    0.8085    0.0000 C   0  0  0  0  0  0  0  0  0  0  0  0
   -1.8212    0.0940    0.0000 C   0  0  0  0  0  0  0  0  0  0  0  0
   -2.6462    0.0940    0.0000 C   0  0  0  0  0  0  0  0  0  0  0  0
   -3.0587    0.8085    0.0000 C   0  0  0  0  0  0  0  0  0  0  0  0
   -2.6462    1.5229    0.0000 C   0  0  0  0  0  0  0  0  0  0  0  0
   -1.8212    1.5229    0.0000 C   0  0  0  0  0  0  0  0  0  0  0  0
   -3.8837    0.8085    0.0000 C   0  0  0  0  0  0  0  0  0  0  0  0
   -4.7087    0.8085    0.0000 F   0  0  0  0  0  0  0  0  0  0  0  0
   -3.8837    1.6335    0.0000 F   0  0  0  0  0  0  0  0  0  0  0  0
   -3.8837   -0.0165    0.0000 F   0  0  0  0  0  0  0  0  0  0  0  0
    3.7648    4.2999    0.0000 O   0  0  0  0  0  0  0  0  0  0  0  0
    2.6378    5.0679    0.0000 H   0  0  0  0  0  0  0  0  0  0  0  0
    1.7112    3.4629    0.0000 H   0  0  0  0  0  0  0  0  0  0  0  0
    1.7111    4.5329    0.0000 H   0  0  0  0  0  0  0  0  0  0  0  0
    1.8698    2.8710    0.0000 H   0  0  0  0  0  0  0  0  0  0  0  0
    3.4748    1.9443    0.0000 H   0  0  0  0  0  0  0  0  0  0  0  0
    2.4048    1.9444    0.0000 H   0  0  0  0  0  0  0  0  0  0  0  0
    4.7812    4.6174    0.0000 H   0  0  0  0  0  0  0  0  0  0  0  0
    6.3894    3.6889    0.0000 H   0  0  0  0  0  0  0  0  0  0  0  0
    6.3894    1.8319    0.0000 H   0  0  0  0  0  0  0  0  0  0  0  0
    4.7812    0.9034    0.0000 H   0  0  0  0  0  0  0  0  0  0  0  0
    4.2460    0.5944    0.0000 H   0  0  0  0  0  0  0  0  0  0  0  0
    2.6378   -0.3341    0.0000 H   0  0  0  0  0  0  0  0  0  0  0  0
    2.6378    3.3799    0.0000 H   0  0  0  0  0  0  0  0  0  0  0  0
    0.8345    3.1267    0.0000 H   0  0  0  0  0  0  0  0  0  0  0  0
   -0.6872    2.4166    0.0000 H   0  0  0  0  0  0  0  0  0  0  0  0
   -0.0677   -0.0852    0.0000 H   0  0  0  0  0  0  0  0  0  0  0  0
   -1.3052   -0.7997    0.0000 H   0  0  0  0  0  0  0  0  0  0  0  0
   -3.1622   -0.7997    0.0000 H   0  0  0  0  0  0  0  0  0  0  0  0
   -3.1622    2.4166    0.0000 H   0  0  0  0  0  0  0  0  0  0  0  0
   -1.3052    2.4166    0.0000 H   0  0  0  0  0  0  0  0  0  0  0  0
    4.7348    4.2999    0.0000 H   0  0  0  0  0  0  0  0  0  0  0  0
  1  2  1  0  0  0  0
  1 32  1  0  0  0  0
  1 33  1  0  0  0  0
  1 34  1  0  0  0  0
  2  3  1  0  0  0  0
  2  4  1  0  0  0  0
  2 31  1  0  0  0  0
  3 35  1  0  0  0  0
  3 36  1  0  0  0  0
  3 37  1  0  0  0  0
  4  5  2  0  0  0  0
  4  9  1  0  0  0  0
  5  6  1  0  0  0  0
  5 38  1  0  0  0  0
  6  7  2  0  0  0  0
  6 39  1  0  0  0  0
  7  8  1  0  0  0  0
  7 40  1  0  0  0  0
  8  9  2  0  0  0  0
  8 41  1  0  0  0  0
  9 10  1  0  0  0  0
 10 11  2  0  0  0  0
 10 15  1  0  0  0  0
 11 12  1  0  0  0  0
 11 42  1  0  0  0  0
 12 13  2  0  0  0  0
 12 43  1  0  0  0  0
 13 14  1  0  0  0  0
 13 18  1  0  0  0  0
 14 15  2  0  0  0  0
 14 16  1  0  0  0  0
 15 44  1  0  0  0  0
 16 17  1  0  0  0  0
 16 45  1  0  0  0  0
 17 18  2  0  0  0  0
 17 19  1  0  0  0  0
 19 20  2  0  0  0  0
 19 46  1  0  0  0  0
 20 21  1  0  0  0  0
 20 47  1  0  0  0  0
 21 22  2  0  0  0  0
 21 26  1  0  0  0  0
 22 23  1  0  0  0  0
 22 48  1  0  0  0  0
 23 24  2  0  0  0  0
 23 49  1  0  0  0  0
 24 25  1  0  0  0  0
 24 27  1  0  0  0  0
 25 26  2  0  0  0  0
 25 50  1  0  0  0  0
 26 51  1  0  0  0  0
 27 28  1  0  0  0  0
 27 29  1  0  0  0  0
 27 30  1  0  0  0  0
 31 52  1  0  0  0  0
M  END
>  <DRUGBANK_ID>
DB12875

>  <COMMON_NAME>
Mavatrep

>  <CAS_NUMBER>
956274-94-5

>  <UNII>
F197218T99

>  <SYNONYMS>
Mavatrep

$$$$
