
 OpenBabel10282417072D

 26 27  0  0  0  0  0  0  0  0999 V2000
   -0.6077    3.5276    0.0000 C   0  0  0  0  0  0  0  0  0  0  0  0
   -2.2196    0.3531    0.0000 C   0  0  0  0  0  0  0  0  0  0  0  0
   -0.6547    1.8052    0.0000 C   0  0  0  0  0  0  0  0  0  0  0  0
   -0.6077    4.3526    0.0000 C   0  0  0  0  0  0  0  0  0  0  0  0
   -1.3222    2.2901    0.0000 C   0  0  3  0  0  0  0  0  0  0  0  0
   -1.7347    1.0206    0.0000 C   0  0  3  0  0  0  0  0  0  0  0  0
   -1.3222    4.7651    0.0000 C   0  0  0  0  0  0  0  0  0  0  0  0
   -2.0367    3.5276    0.0000 C   0  0  0  0  0  0  0  0  0  0  0  0
    0.1067    4.7651    0.0000 F   0  0  0  0  0  0  0  0  0  0  0  0
   -1.3222    5.5901    0.0000 N   0  0  0  0  0  0  0  0  0  0  0  0
   -2.0367    4.3526    0.0000 N   0  0  0  0  0  0  0  0  0  0  0  0
   -1.3222    3.1151    0.0000 N   0  0  0  0  0  0  0  0  0  0  0  0
   -1.8841   -0.4004    0.0000 O   0  0  0  0  0  0  0  0  0  0  0  0
   -2.7511    3.1151    0.0000 O   0  0  0  0  0  0  0  0  0  0  0  0
   -1.9896    1.8052    0.0000 O   0  0  0  0  0  0  0  0  0  0  0  0
   -0.9097    1.0206    0.0000 S   0  0  0  0  0  0  0  0  0  0  0  0
    0.2860    3.0116    0.0000 H   0  0  0  0  0  0  0  0  0  0  0  0
   -3.2837    0.4649    0.0000 H   0  0  0  0  0  0  0  0  0  0  0  0
   -2.8485   -0.5126    0.0000 H   0  0  0  0  0  0  0  0  0  0  0  0
    0.3629    2.1358    0.0000 H   0  0  0  0  0  0  0  0  0  0  0  0
    0.1019    1.0486    0.0000 H   0  0  0  0  0  0  0  0  0  0  0  0
   -0.3688    2.7759    0.0000 H   0  0  0  0  0  0  0  0  0  0  0  0
   -2.7915    1.1880    0.0000 H   0  0  0  0  0  0  0  0  0  0  0  0
   -0.4696    6.0823    0.0000 H   0  0  0  0  0  0  0  0  0  0  0  0
   -2.4542   -1.1852    0.0000 H   0  0  0  0  0  0  0  0  0  0  0  0
   -3.5626    3.5836    0.0000 H   0  0  0  0  0  0  0  0  0  0  0  0
  1 17  1  0  0  0  0
  2 18  1  0  0  0  0
  2 19  1  0  0  0  0
  3 20  1  0  0  0  0
  3 21  1  0  0  0  0
  4  1  2  0  0  0  0
  5  3  1  0  0  0  0
  5 22  1  0  0  0  0
  6  2  1  0  0  0  0
  6 23  1  0  0  0  0
  7  4  1  0  0  0  0
  9  4  1  0  0  0  0
 10  7  2  0  0  0  0
 10 24  1  0  0  0  0
 11  7  1  0  0  0  0
 11  8  2  0  0  0  0
 12  1  1  0  0  0  0
 12  5  1  0  0  0  0
 12  8  1  0  0  0  0
 13  2  1  0  0  0  0
 13 25  1  0  0  0  0
 14  8  1  0  0  0  0
 14 26  1  0  0  0  0
 15  5  1  0  0  0  0
 15  6  1  0  0  0  0
 16  3  1  0  0  0  0
 16  6  1  0  0  0  0
M  END
>  <DRUGBANK_ID>
DB12753

>  <COMMON_NAME>
Racivir

>  <CAS_NUMBER>
143491-54-7

>  <SYNONYMS>
(+/-)-Emtricitabine; Emtricitabine, (+/-)-; RCV

$$$$
