24U
 OpenBabel10282417072D

 47 48  0  0  0  0  0  0  0  0999 V2000
    0.8678   -1.6349    0.0000 N   0  0  0  0  0  0  0  0  0  0  0  0
    0.2003   -1.1500    0.0000 C   0  0  2  0  0  0  0  0  0  0  0  0
    0.2003   -0.3250    0.0000 C   0  0  0  0  0  0  0  0  0  0  0  0
    0.9148    0.0875    0.0000 O   0  0  0  0  0  0  0  0  0  0  0  0
   -0.5141    0.0875    0.0000 N   0  0  0  0  0  0  0  0  0  0  0  0
   -0.5141    0.9125    0.0000 C   0  0  0  0  0  0  0  0  0  0  0  0
   -1.2286    1.3250    0.0000 C   0  0  0  0  0  0  0  0  0  0  0  0
   -1.2286    2.1500    0.0000 C   0  0  0  0  0  0  0  0  0  0  0  0
   -1.9431    2.5625    0.0000 C   0  0  0  0  0  0  0  0  0  0  0  0
   -2.6576    2.1500    0.0000 C   0  0  0  0  0  0  0  0  0  0  0  0
   -3.3720    2.5625    0.0000 C   0  0  0  0  0  0  0  0  0  0  0  0
   -4.0865    2.1500    0.0000 N   0  0  0  0  0  0  0  0  0  0  0  0
   -3.3720    3.3875    0.0000 N   0  0  0  0  0  0  0  0  0  0  0  0
   -2.6576    1.3250    0.0000 C   0  0  0  0  0  0  0  0  0  0  0  0
   -1.9431    0.9125    0.0000 C   0  0  0  0  0  0  0  0  0  0  0  0
   -0.4671   -1.6349    0.0000 C   0  0  0  0  0  0  0  0  0  0  0  0
   -0.2122   -2.4195    0.0000 C   0  0  0  0  0  0  0  0  0  0  0  0
    0.6128   -2.4195    0.0000 C   0  0  0  0  0  0  0  0  0  0  0  0
    1.6524   -1.3800    0.0000 C   0  0  0  0  0  0  0  0  0  0  0  0
    1.8239   -0.5730    0.0000 C   0  0  0  0  0  0  0  0  0  0  0  0
    2.6085   -0.3181    0.0000 C   0  0  0  0  0  0  0  0  0  0  0  0
    3.2216   -0.8701    0.0000 C   0  0  0  0  0  0  0  0  0  0  0  0
    2.2655   -1.9320    0.0000 O   0  0  0  0  0  0  0  0  0  0  0  0
    0.7206   -0.8849    0.0000 H   0  0  0  0  0  0  0  0  0  0  0  0
   -1.3667   -0.4047    0.0000 H   0  0  0  0  0  0  0  0  0  0  0  0
    0.4125    1.4475    0.0000 H   0  0  0  0  0  0  0  0  0  0  0  0
   -0.5141    1.9825    0.0000 H   0  0  0  0  0  0  0  0  0  0  0  0
   -0.3349    2.6660    0.0000 H   0  0  0  0  0  0  0  0  0  0  0  0
   -1.9431    3.5945    0.0000 H   0  0  0  0  0  0  0  0  0  0  0  0
   -4.9391    2.6423    0.0000 H   0  0  0  0  0  0  0  0  0  0  0  0
   -4.0865    1.1655    0.0000 H   0  0  0  0  0  0  0  0  0  0  0  0
   -2.5194    3.8798    0.0000 H   0  0  0  0  0  0  0  0  0  0  0  0
   -3.5513    0.8090    0.0000 H   0  0  0  0  0  0  0  0  0  0  0  0
   -1.9431   -0.1195    0.0000 H   0  0  0  0  0  0  0  0  0  0  0  0
   -1.4847   -1.3042    0.0000 H   0  0  0  0  0  0  0  0  0  0  0  0
   -1.2237   -2.3915    0.0000 H   0  0  0  0  0  0  0  0  0  0  0  0
   -0.8411   -3.2851    0.0000 H   0  0  0  0  0  0  0  0  0  0  0  0
    0.2736   -3.3729    0.0000 H   0  0  0  0  0  0  0  0  0  0  0  0
    1.2417   -3.2852    0.0000 H   0  0  0  0  0  0  0  0  0  0  0  0
    1.6696   -2.2522    0.0000 H   0  0  0  0  0  0  0  0  0  0  0  0
    1.0287    0.1430    0.0000 H   0  0  0  0  0  0  0  0  0  0  0  0
    2.0464    0.4736    0.0000 H   0  0  0  0  0  0  0  0  0  0  0  0
    2.8310    0.7285    0.0000 H   0  0  0  0  0  0  0  0  0  0  0  0
    3.6261    0.0126    0.0000 H   0  0  0  0  0  0  0  0  0  0  0  0
    2.9992   -1.9167    0.0000 H   0  0  0  0  0  0  0  0  0  0  0  0
    4.2392   -0.5394    0.0000 H   0  0  0  0  0  0  0  0  0  0  0  0
    4.0168   -1.5860    0.0000 H   0  0  0  0  0  0  0  0  0  0  0  0
  1 19  1  0  0  0  0
  2  1  1  0  0  0  0
  2 24  1  6  0  0  0
  2  3  1  0  0  0  0
  3  5  1  0  0  0  0
  4  3  2  0  0  0  0
  5 25  1  0  0  0  0
  6  5  1  0  0  0  0
  6  7  1  0  0  0  0
  6 26  1  0  0  0  0
  6 27  1  0  0  0  0
  7 15  2  0  0  0  0
  7  8  1  0  0  0  0
  8  9  2  0  0  0  0
  8 28  1  0  0  0  0
  9 10  1  0  0  0  0
  9 29  1  0  0  0  0
 10 11  1  0  0  0  0
 11 13  2  0  0  0  0
 11 12  1  0  0  0  0
 12 30  1  0  0  0  0
 12 31  1  0  0  0  0
 13 32  1  0  0  0  0
 14 10  2  0  0  0  0
 14 33  1  0  0  0  0
 15 14  1  0  0  0  0
 15 34  1  0  0  0  0
 16  2  1  0  0  0  0
 16 17  1  0  0  0  0
 16 35  1  0  0  0  0
 16 36  1  0  0  0  0
 17 18  1  0  0  0  0
 17 37  1  0  0  0  0
 17 38  1  0  0  0  0
 18  1  1  0  0  0  0
 18 39  1  0  0  0  0
 18 40  1  0  0  0  0
 19 23  2  0  0  0  0
 19 20  1  0  0  0  0
 20 21  1  0  0  0  0
 20 41  1  0  0  0  0
 20 42  1  0  0  0  0
 21 22  1  0  0  0  0
 21 43  1  0  0  0  0
 21 44  1  0  0  0  0
 22 45  1  0  0  0  0
 22 46  1  0  0  0  0
 22 47  1  0  0  0  0
M  END
>  <DRUGBANK_ID>
DB06929

>  <COMMON_NAME>
1-butanoyl-N-(4-carbamimidoylbenzyl)-L-prolinamide

$$$$
