
 OpenBabel10282417072D

 61 64  0  0  0  0  0  0  0  0999 V2000
    2.1434   -3.7125    0.0000 O   0  0  0  0  0  0  0  0  0  0  0  0
    2.8579   -4.1250    0.0000 C   0  0  0  0  0  0  0  0  0  0  0  0
    3.5724   -3.7125    0.0000 O   0  0  0  0  0  0  0  0  0  0  0  0
    2.8579   -4.9500    0.0000 C   0  0  0  0  0  0  0  0  0  0  0  0
    3.5724   -5.3625    0.0000 C   0  0  0  0  0  0  0  0  0  0  0  0
    3.5724   -6.1875    0.0000 C   0  0  0  0  0  0  0  0  0  0  0  0
    2.8579   -6.6000    0.0000 C   0  0  0  0  0  0  0  0  0  0  0  0
    2.8579   -7.4250    0.0000 O   0  0  0  0  0  0  0  0  0  0  0  0
    2.1434   -7.8375    0.0000 C   0  0  0  0  0  0  0  0  0  0  0  0
    2.1434   -8.6625    0.0000 C   0  0  0  0  0  0  0  0  0  0  0  0
    2.8579   -9.0750    0.0000 N   0  0  0  0  0  0  0  0  0  0  0  0
    3.5724   -8.6625    0.0000 C   0  0  0  0  0  0  0  0  0  0  0  0
    3.5724   -7.8375    0.0000 O   0  0  0  0  0  0  0  0  0  0  0  0
    4.2868   -9.0750    0.0000 C   0  0  0  0  0  0  0  0  0  0  0  0
    5.0013   -8.6625    0.0000 C   0  0  0  0  0  0  0  0  0  0  0  0
    5.7158   -9.0750    0.0000 C   0  0  0  0  0  0  0  0  0  0  0  0
    5.7158   -9.9000    0.0000 C   0  0  0  0  0  0  0  0  0  0  0  0
    5.0013  -10.3125    0.0000 C   0  0  0  0  0  0  0  0  0  0  0  0
    4.2868   -9.9000    0.0000 C   0  0  0  0  0  0  0  0  0  0  0  0
    6.4302   -8.6625    0.0000 N   0  3  0  0  0  0  0  0  0  0  0  0
    7.1447   -9.0750    0.0000 O   0  5  0  0  0  0  0  0  0  0  0  0
    6.4302   -7.8375    0.0000 O   0  0  0  0  0  0  0  0  0  0  0  0
    1.4289   -9.0750    0.0000 C   0  0  0  0  0  0  0  0  0  0  0  0
    0.7145   -8.6625    0.0000 C   0  0  0  0  0  0  0  0  0  0  0  0
    0.0000   -9.0750    0.0000 N   0  0  0  0  0  0  0  0  0  0  0  0
    0.0000   -9.9000    0.0000 C   0  0  0  0  0  0  0  0  0  0  0  0
    0.7145  -10.3125    0.0000 O   0  0  0  0  0  0  0  0  0  0  0  0
   -0.7145  -10.3125    0.0000 C   0  0  0  0  0  0  0  0  0  0  0  0
   -0.7145  -11.1375    0.0000 C   0  0  0  0  0  0  0  0  0  0  0  0
   -1.4289  -11.5500    0.0000 C   0  0  0  0  0  0  0  0  0  0  0  0
   -2.1434  -11.1375    0.0000 C   0  0  0  0  0  0  0  0  0  0  0  0
   -2.1434  -10.3125    0.0000 C   0  0  0  0  0  0  0  0  0  0  0  0
   -1.4289   -9.9000    0.0000 C   0  0  0  0  0  0  0  0  0  0  0  0
   -1.4289  -12.3750    0.0000 N   0  3  0  0  0  0  0  0  0  0  0  0
   -2.1434  -12.7875    0.0000 O   0  5  0  0  0  0  0  0  0  0  0  0
   -0.7145  -12.7875    0.0000 O   0  0  0  0  0  0  0  0  0  0  0  0
    0.7145   -7.8375    0.0000 C   0  0  0  0  0  0  0  0  0  0  0  0
    1.4289   -7.4250    0.0000 C   0  0  0  0  0  0  0  0  0  0  0  0
    2.1434   -6.1875    0.0000 C   0  0  0  0  0  0  0  0  0  0  0  0
    2.1434   -5.3625    0.0000 C   0  0  0  0  0  0  0  0  0  0  0  0
    4.2868   -4.9500    0.0000 C   0  0  0  0  0  0  0  0  0  0  0  0
    5.0013   -5.3625    0.0000 O   0  0  0  0  0  0  0  0  0  0  0  0
    4.2868   -4.1250    0.0000 O   0  0  0  0  0  0  0  0  0  0  0  0
    2.1434   -2.7755    0.0000 H   0  0  0  0  0  0  0  0  0  0  0  0
    4.4661   -6.7035    0.0000 H   0  0  0  0  0  0  0  0  0  0  0  0
    2.8579  -10.0595    0.0000 H   0  0  0  0  0  0  0  0  0  0  0  0
    5.0013   -7.6305    0.0000 H   0  0  0  0  0  0  0  0  0  0  0  0
    6.6095  -10.4160    0.0000 H   0  0  0  0  0  0  0  0  0  0  0  0
    5.0013  -11.3445    0.0000 H   0  0  0  0  0  0  0  0  0  0  0  0
    3.3931  -10.4160    0.0000 H   0  0  0  0  0  0  0  0  0  0  0  0
    1.4289  -10.1070    0.0000 H   0  0  0  0  0  0  0  0  0  0  0  0
   -0.8526   -8.5827    0.0000 H   0  0  0  0  0  0  0  0  0  0  0  0
    0.1792  -11.6535    0.0000 H   0  0  0  0  0  0  0  0  0  0  0  0
   -3.0371  -11.6535    0.0000 H   0  0  0  0  0  0  0  0  0  0  0  0
   -3.0371   -9.7965    0.0000 H   0  0  0  0  0  0  0  0  0  0  0  0
   -1.4289   -8.8680    0.0000 H   0  0  0  0  0  0  0  0  0  0  0  0
   -0.1792   -7.3215    0.0000 H   0  0  0  0  0  0  0  0  0  0  0  0
    1.4289   -6.3930    0.0000 H   0  0  0  0  0  0  0  0  0  0  0  0
    1.2497   -6.7035    0.0000 H   0  0  0  0  0  0  0  0  0  0  0  0
    1.2497   -4.8465    0.0000 H   0  0  0  0  0  0  0  0  0  0  0  0
    5.0013   -6.2995    0.0000 H   0  0  0  0  0  0  0  0  0  0  0  0
  1  2  1  0  0  0  0
  1 44  1  0  0  0  0
  2  3  2  0  0  0  0
  2  4  1  0  0  0  0
  4  5  2  0  0  0  0
  4 40  1  0  0  0  0
  5  6  1  0  0  0  0
  5 41  1  0  0  0  0
  6  7  2  0  0  0  0
  6 45  1  0  0  0  0
  7  8  1  0  0  0  0
  7 39  1  0  0  0  0
  8  9  1  0  0  0  0
  9 10  2  0  0  0  0
  9 38  1  0  0  0  0
 10 11  1  0  0  0  0
 10 23  1  0  0  0  0
 11 12  1  0  0  0  0
 11 46  1  0  0  0  0
 12 13  2  0  0  0  0
 12 14  1  0  0  0  0
 14 15  2  0  0  0  0
 14 19  1  0  0  0  0
 15 16  1  0  0  0  0
 15 47  1  0  0  0  0
 16 17  2  0  0  0  0
 16 20  1  0  0  0  0
 17 18  1  0  0  0  0
 17 48  1  0  0  0  0
 18 19  2  0  0  0  0
 18 49  1  0  0  0  0
 19 50  1  0  0  0  0
 20 21  1  0  0  0  0
 20 22  2  0  0  0  0
 23 24  2  0  0  0  0
 23 51  1  0  0  0  0
 24 25  1  0  0  0  0
 24 37  1  0  0  0  0
 25 26  1  0  0  0  0
 25 52  1  0  0  0  0
 26 27  2  0  0  0  0
 26 28  1  0  0  0  0
 28 29  2  0  0  0  0
 28 33  1  0  0  0  0
 29 30  1  0  0  0  0
 29 53  1  0  0  0  0
 30 31  2  0  0  0  0
 30 34  1  0  0  0  0
 31 32  1  0  0  0  0
 31 54  1  0  0  0  0
 32 33  2  0  0  0  0
 32 55  1  0  0  0  0
 33 56  1  0  0  0  0
 34 35  1  0  0  0  0
 34 36  2  0  0  0  0
 37 38  2  0  0  0  0
 37 57  1  0  0  0  0
 38 58  1  0  0  0  0
 39 40  2  0  0  0  0
 39 59  1  0  0  0  0
 40 60  1  0  0  0  0
 41 42  1  0  0  0  0
 41 43  2  0  0  0  0
 42 61  1  0  0  0  0
M  CHG  4  20   1  21  -1  34   1  35  -1
M  END
>  <DRUGBANK_ID>
DB03067

>  <SECONDARY_ACCESSION_NUMBERS>
EXPT00062

>  <COMMON_NAME>
4-{2,4-Bis[(3-Nitrobenzoyl)Amino]Phenoxy}Phthalic Acid

$$$$
