
 OpenBabel10282417072D

 35 37  0  0  0  0  0  0  0  0999 V2000
   -1.4289    0.6187    0.0000 C   0  0  0  0  0  0  0  0  0  0  0  0
   -0.7144    0.2062    0.0000 C   0  0  0  0  0  0  0  0  0  0  0  0
   -0.7144   -0.6187    0.0000 C   0  0  0  0  0  0  0  0  0  0  0  0
    0.0000   -1.0312    0.0000 C   0  0  0  0  0  0  0  0  0  0  0  0
   -1.4289   -1.0312    0.0000 C   0  0  0  0  0  0  0  0  0  0  0  0
    0.0000    0.6187    0.0000 O   0  0  0  0  0  0  0  0  0  0  0  0
    0.7144   -0.6187    0.0000 C   0  0  0  0  0  0  0  0  0  0  0  0
   -2.1433   -0.6187    0.0000 C   0  0  0  0  0  0  0  0  0  0  0  0
    0.7144    0.2062    0.0000 C   0  0  1  0  0  0  0  0  0  0  0  0
   -2.1433    0.2062    0.0000 C   0  0  0  0  0  0  0  0  0  0  0  0
    0.0000   -1.8562    0.0000 O   0  0  0  0  0  0  0  0  0  0  0  0
   -1.4289   -1.8562    0.0000 O   0  0  0  0  0  0  0  0  0  0  0  0
    1.4289    0.6187    0.0000 C   0  0  0  0  0  0  0  0  0  0  0  0
    1.4289    1.4437    0.0000 C   0  0  0  0  0  0  0  0  0  0  0  0
    2.1434    0.2062    0.0000 C   0  0  0  0  0  0  0  0  0  0  0  0
    2.1434    1.8562    0.0000 C   0  0  0  0  0  0  0  0  0  0  0  0
    2.8579    0.6187    0.0000 C   0  0  0  0  0  0  0  0  0  0  0  0
    2.8579    1.4437    0.0000 C   0  0  0  0  0  0  0  0  0  0  0  0
    3.5723    1.8562    0.0000 O   0  0  0  0  0  0  0  0  0  0  0  0
   -2.8578    0.6187    0.0000 O   0  0  0  0  0  0  0  0  0  0  0  0
   -3.5723    0.2062    0.0000 C   0  0  0  0  0  0  0  0  0  0  0  0
   -1.4289    1.6507    0.0000 H   0  0  0  0  0  0  0  0  0  0  0  0
    1.6411   -1.1537    0.0000 H   0  0  0  0  0  0  0  0  0  0  0  0
    1.6410   -0.0837    0.0000 H   0  0  0  0  0  0  0  0  0  0  0  0
   -3.0370   -1.1347    0.0000 H   0  0  0  0  0  0  0  0  0  0  0  0
    0.7144    1.2762    0.0000 H   0  0  0  0  0  0  0  0  0  0  0  0
   -2.2404   -2.3247    0.0000 H   0  0  0  0  0  0  0  0  0  0  0  0
    0.5352    1.9597    0.0000 H   0  0  0  0  0  0  0  0  0  0  0  0
    2.1434   -0.8258    0.0000 H   0  0  0  0  0  0  0  0  0  0  0  0
    2.1434    2.8882    0.0000 H   0  0  0  0  0  0  0  0  0  0  0  0
    3.7516    0.1027    0.0000 H   0  0  0  0  0  0  0  0  0  0  0  0
    4.3838    1.3877    0.0000 H   0  0  0  0  0  0  0  0  0  0  0  0
   -4.4989    0.7412    0.0000 H   0  0  0  0  0  0  0  0  0  0  0  0
   -3.5723   -0.8638    0.0000 H   0  0  0  0  0  0  0  0  0  0  0  0
   -4.4990   -0.3288    0.0000 H   0  0  0  0  0  0  0  0  0  0  0  0
  1 10  1  0  0  0  0
  1 22  1  0  0  0  0
  2  1  2  0  0  0  0
  2  6  1  0  0  0  0
  3  2  1  0  0  0  0
  3  4  1  0  0  0  0
  3  5  2  0  0  0  0
  4 11  2  0  0  0  0
  4  7  1  0  0  0  0
  5 12  1  0  0  0  0
  5  8  1  0  0  0  0
  6  9  1  0  0  0  0
  7  9  1  0  0  0  0
  7 23  1  0  0  0  0
  7 24  1  0  0  0  0
  8 10  2  0  0  0  0
  8 25  1  0  0  0  0
  9 13  1  0  0  0  0
  9 26  1  1  0  0  0
 10 20  1  0  0  0  0
 12 27  1  0  0  0  0
 13 14  2  0  0  0  0
 13 15  1  0  0  0  0
 14 16  1  0  0  0  0
 14 28  1  0  0  0  0
 15 17  2  0  0  0  0
 15 29  1  0  0  0  0
 16 18  2  0  0  0  0
 16 30  1  0  0  0  0
 17 18  1  0  0  0  0
 17 31  1  0  0  0  0
 18 19  1  0  0  0  0
 19 32  1  0  0  0  0
 20 21  1  0  0  0  0
 21 33  1  0  0  0  0
 21 34  1  0  0  0  0
 21 35  1  0  0  0  0
M  END
>  <DRUGBANK_ID>
DB08517

>  <COMMON_NAME>
Sakuranetin

>  <CAS_NUMBER>
2957-21-3

>  <UNII>
3O38P61299

>  <SYNONYMS>
(2S)-sakuranetin; (S)-(âˆ’)-4',5-dihydroxy-7-methoxyflavanone; 4',5-dihydroxy-7-methoxyflavanone; 5-hydroxy-2-(4-hydroxyphenyl)-7-methoxy-chroman-4-one; 5,4'-Dihydroxy-7-methoxyflavanone; Naringenin 7-methyl ether

$$$$
