
 OpenBabel10282417072D

 74 78  0  0  0  0  0  0  0  0999 V2000
    1.1587    0.8618    0.0000 N   0  0  0  0  0  0  0  0  0  0  0  0
    1.8731    1.2754    0.0000 C   0  0  0  0  0  0  0  0  0  0  0  0
    1.8731    2.1004    0.0000 O   0  0  0  0  0  0  0  0  0  0  0  0
    2.5877    0.8618    0.0000 C   0  0  0  0  0  0  0  0  0  0  0  0
    2.5877    0.0368    0.0000 C   0  0  0  0  0  0  0  0  0  0  0  0
    3.3041   -0.3746    0.0000 C   0  0  0  0  0  0  0  0  0  0  0  0
    3.3041   -1.1996    0.0000 N   0  0  0  0  0  0  0  0  0  0  0  0
    2.5897   -1.6132    0.0000 C   0  0  1  0  0  0  0  0  0  0  0  0
    1.8752   -1.1996    0.0000 C   0  0  0  0  0  0  0  0  0  0  0  0
    1.1607   -1.6132    0.0000 C   0  0  0  0  0  0  0  0  0  0  0  0
    2.5897   -2.4382    0.0000 C   0  0  0  0  0  0  0  0  0  0  0  0
    4.0165    0.0368    0.0000 C   0  0  0  0  0  0  0  0  0  0  0  0
    4.0165    0.8618    0.0000 C   0  0  0  0  0  0  0  0  0  0  0  0
    3.3041    1.2754    0.0000 C   0  0  0  0  0  0  0  0  0  0  0  0
    3.3041    2.1004    0.0000 C   0  0  0  0  0  0  0  0  0  0  0  0
    4.7311   -0.3746    0.0000 C   0  0  0  0  0  0  0  0  0  0  0  0
    5.4476    0.0368    0.0000 N   0  0  0  0  0  0  0  0  0  0  0  0
    4.7311   -1.1996    0.0000 O   0  0  0  0  0  0  0  0  0  0  0  0
    0.4442    1.2754    0.0000 C   0  0  1  0  0  0  0  0  0  0  0  0
   -0.0716    0.6305    0.0000 C   0  0  0  0  0  0  0  0  0  0  0  0
   -0.8966    0.6305    0.0000 C   0  0  2  0  0  0  0  0  0  0  0  0
   -0.4831    1.4842    0.0000 N   0  0  0  0  0  0  0  0  0  0  0  0
   -0.4831    2.4382    0.0000 C   0  0  2  0  0  0  0  0  0  0  0  0
    0.2620    2.0800    0.0000 C   0  0  0  0  0  0  0  0  0  0  0  0
   -1.2262    2.0800    0.0000 C   0  0  0  0  0  0  0  0  0  0  0  0
   -1.4126    1.2754    0.0000 C   0  0  0  0  0  0  0  0  0  0  0  0
   -1.7525    1.7073    0.0000 C   0  0  0  0  0  0  0  0  0  0  0  0
   -2.4649    2.1209    0.0000 C   0  0  0  0  0  0  0  0  0  0  0  0
   -3.1814    1.7073    0.0000 C   0  0  0  0  0  0  0  0  0  0  0  0
   -3.1814    0.8843    0.0000 C   0  0  0  0  0  0  0  0  0  0  0  0
   -2.4649    0.4708    0.0000 C   0  0  0  0  0  0  0  0  0  0  0  0
   -1.7525    0.8843    0.0000 N   0  0  0  0  0  0  0  0  0  0  0  0
   -3.9020    0.4831    0.0000 C   0  0  0  0  0  0  0  0  0  0  0  0
   -3.9020   -0.3418    0.0000 O   0  0  0  0  0  0  0  0  0  0  0  0
   -4.6165    0.8966    0.0000 C   0  0  0  0  0  0  0  0  0  0  0  0
   -5.4476    0.8966    0.0000 C   0  0  0  0  0  0  0  0  0  0  0  0
   -5.0320    1.6091    0.0000 C   0  0  0  0  0  0  0  0  0  0  0  0
    1.1587   -0.1227    0.0000 H   0  0  0  0  0  0  0  0  0  0  0  0
    1.6946   -0.4802    0.0000 H   0  0  0  0  0  0  0  0  0  0  0  0
    4.1570   -1.6913    0.0000 H   0  0  0  0  0  0  0  0  0  0  0  0
    3.5167   -2.1476    0.0000 H   0  0  0  0  0  0  0  0  0  0  0  0
    1.8752   -0.1296    0.0000 H   0  0  0  0  0  0  0  0  0  0  0  0
    0.9482   -0.6651    0.0000 H   0  0  0  0  0  0  0  0  0  0  0  0
    0.2334   -1.0793    0.0000 H   0  0  0  0  0  0  0  0  0  0  0  0
    1.1619   -2.6832    0.0000 H   0  0  0  0  0  0  0  0  0  0  0  0
    0.2347   -2.1493    0.0000 H   0  0  0  0  0  0  0  0  0  0  0  0
    1.6631   -2.9732    0.0000 H   0  0  0  0  0  0  0  0  0  0  0  0
    3.5163   -2.9732    0.0000 H   0  0  0  0  0  0  0  0  0  0  0  0
    2.5897   -3.5082    0.0000 H   0  0  0  0  0  0  0  0  0  0  0  0
    4.9109    1.3767    0.0000 H   0  0  0  0  0  0  0  0  0  0  0  0
    4.2307    2.6354    0.0000 H   0  0  0  0  0  0  0  0  0  0  0  0
    2.3775    2.6354    0.0000 H   0  0  0  0  0  0  0  0  0  0  0  0
    3.3041    3.1704    0.0000 H   0  0  0  0  0  0  0  0  0  0  0  0
    6.2990   -0.4575    0.0000 H   0  0  0  0  0  0  0  0  0  0  0  0
    5.4499    1.0213    0.0000 H   0  0  0  0  0  0  0  0  0  0  0  0
    0.6418    0.2238    0.0000 H   0  0  0  0  0  0  0  0  0  0  0  0
    0.3920   -0.3339    0.0000 H   0  0  0  0  0  0  0  0  0  0  0  0
   -0.6412   -0.2753    0.0000 H   0  0  0  0  0  0  0  0  0  0  0  0
    0.0100    1.1988    0.0000 H   0  0  0  0  0  0  0  0  0  0  0  0
    0.0865    1.5324    0.0000 H   0  0  0  0  0  0  0  0  0  0  0  0
    1.0989    2.7467    0.0000 H   0  0  0  0  0  0  0  0  0  0  0  0
    0.1421    3.1433    0.0000 H   0  0  0  0  0  0  0  0  0  0  0  0
   -2.0618    2.7483    0.0000 H   0  0  0  0  0  0  0  0  0  0  0  0
   -2.2370    1.7290    0.0000 H   0  0  0  0  0  0  0  0  0  0  0  0
   -2.4560    1.0382    0.0000 H   0  0  0  0  0  0  0  0  0  0  0  0
   -2.1677    2.0335    0.0000 H   0  0  0  0  0  0  0  0  0  0  0  0
   -2.4636    3.1529    0.0000 H   0  0  0  0  0  0  0  0  0  0  0  0
   -4.0751    2.2233    0.0000 H   0  0  0  0  0  0  0  0  0  0  0  0
   -2.4636   -0.5612    0.0000 H   0  0  0  0  0  0  0  0  0  0  0  0
   -5.5443    1.4296    0.0000 H   0  0  0  0  0  0  0  0  0  0  0  0
   -6.3754    0.3637    0.0000 H   0  0  0  0  0  0  0  0  0  0  0  0
   -6.2017    1.6557    0.0000 H   0  0  0  0  0  0  0  0  0  0  0  0
   -5.0319    2.6791    0.0000 H   0  0  0  0  0  0  0  0  0  0  0  0
   -6.0649    1.8884    0.0000 H   0  0  0  0  0  0  0  0  0  0  0  0
  1  2  1  0  0  0  0
  1 38  1  0  0  0  0
  2  3  2  0  0  0  0
  2  4  1  0  0  0  0
  4  5  2  0  0  0  0
  4 14  1  0  0  0  0
  5  6  1  0  0  0  0
  5 39  1  0  0  0  0
  6  7  1  0  0  0  0
  6 12  2  0  0  0  0
  7  8  1  0  0  0  0
  7 40  1  0  0  0  0
  8  9  1  0  0  0  0
  8 11  1  0  0  0  0
  8 41  1  1  0  0  0
  9 10  1  0  0  0  0
  9 42  1  0  0  0  0
  9 43  1  0  0  0  0
 10 44  1  0  0  0  0
 10 45  1  0  0  0  0
 10 46  1  0  0  0  0
 11 47  1  0  0  0  0
 11 48  1  0  0  0  0
 11 49  1  0  0  0  0
 12 16  1  0  0  0  0
 13 12  1  0  0  0  0
 13 50  1  0  0  0  0
 14 13  2  0  0  0  0
 14 15  1  0  0  0  0
 15 51  1  0  0  0  0
 15 52  1  0  0  0  0
 15 53  1  0  0  0  0
 16 17  1  0  0  0  0
 16 18  2  0  0  0  0
 17 54  1  0  0  0  0
 17 55  1  0  0  0  0
 19  1  1  0  0  0  0
 19 20  1  0  0  0  0
 19 24  1  0  0  0  0
 19 56  1  6  0  0  0
 20 21  1  0  0  0  0
 20 57  1  0  0  0  0
 20 58  1  0  0  0  0
 21 22  1  0  0  0  0
 21 26  1  0  0  0  0
 21 59  1  6  0  0  0
 22 27  1  0  0  0  0
 23 22  1  0  0  0  0
 23 25  1  0  0  0  0
 23 60  1  6  0  0  0
 24 23  1  0  0  0  0
 24 61  1  0  0  0  0
 24 62  1  0  0  0  0
 25 63  1  0  0  0  0
 25 64  1  0  0  0  0
 26 25  1  0  0  0  0
 26 65  1  0  0  0  0
 26 66  1  0  0  0  0
 27 28  2  0  0  0  0
 27 32  1  0  0  0  0
 28 29  1  0  0  0  0
 28 67  1  0  0  0  0
 29 30  2  0  0  0  0
 29 68  1  0  0  0  0
 30 33  1  0  0  0  0
 31 30  1  0  0  0  0
 31 69  1  0  0  0  0
 32 31  2  0  0  0  0
 33 34  2  0  0  0  0
 33 35  1  0  0  0  0
 35 36  1  0  0  0  0
 35 37  1  0  0  0  0
 35 70  1  0  0  0  0
 36 37  1  0  0  0  0
 36 71  1  0  0  0  0
 36 72  1  0  0  0  0
 37 73  1  0  0  0  0
 37 74  1  0  0  0  0
M  END
>  <DRUGBANK_ID>
DB12981

>  <COMMON_NAME>
XL-888

>  <CAS_NUMBER>
1149705-71-4

>  <UNII>
7M346920EV

>  <SYNONYMS>
EXEL-4888; XL888

$$$$
