
 OpenBabel10282417072D

 42 44  0  0  0  0  0  0  0  0999 V2000
   -0.3562   -0.2062    0.0000 C   0  0  0  0  0  0  0  0  0  0  0  0
   -0.3562    0.6188    0.0000 C   0  0  0  0  0  0  0  0  0  0  0  0
   -1.0730   -0.6188    0.0000 C   0  0  0  0  0  0  0  0  0  0  0  0
    0.3562   -0.6188    0.0000 C   0  0  0  0  0  0  0  0  0  0  0  0
   -1.0730    1.0313    0.0000 N   0  0  0  0  0  0  0  0  0  0  0  0
   -1.7856   -0.2062    0.0000 C   0  0  0  0  0  0  0  0  0  0  0  0
   -1.7856    0.6188    0.0000 C   0  0  0  0  0  0  0  0  0  0  0  0
    1.0730   -0.2062    0.0000 N   0  0  0  0  0  0  0  0  0  0  0  0
   -1.0730   -1.4439    0.0000 O   0  0  0  0  0  0  0  0  0  0  0  0
    0.3562    1.0313    0.0000 O   0  0  0  0  0  0  0  0  0  0  0  0
   -2.5023   -0.6188    0.0000 C   0  0  0  0  0  0  0  0  0  0  0  0
    0.3562   -1.4439    0.0000 O   0  0  0  0  0  0  0  0  0  0  0  0
    1.7856   -0.6188    0.0000 C   0  0  0  0  0  0  0  0  0  0  0  0
   -1.0730    1.8564    0.0000 C   0  0  0  0  0  0  0  0  0  0  0  0
   -2.5023    1.0313    0.0000 C   0  0  0  0  0  0  0  0  0  0  0  0
   -2.5023   -1.4439    0.0000 Cl  0  0  0  0  0  0  0  0  0  0  0  0
    1.0730    0.6188    0.0000 C   0  0  0  0  0  0  0  0  0  0  0  0
   -3.2149    0.6188    0.0000 C   0  0  0  0  0  0  0  0  0  0  0  0
   -3.2149   -0.2062    0.0000 C   0  0  0  0  0  0  0  0  0  0  0  0
    1.7856   -1.4439    0.0000 C   0  0  0  0  0  0  0  0  0  0  0  0
    2.5023   -0.2062    0.0000 C   0  0  0  0  0  0  0  0  0  0  0  0
    1.7856    1.0313    0.0000 C   0  0  0  0  0  0  0  0  0  0  0  0
    2.5023   -1.8564    0.0000 C   0  0  0  0  0  0  0  0  0  0  0  0
    3.2149   -0.6188    0.0000 C   0  0  0  0  0  0  0  0  0  0  0  0
    3.2149   -1.4439    0.0000 C   0  0  0  0  0  0  0  0  0  0  0  0
   -1.8845   -1.9124    0.0000 H   0  0  0  0  0  0  0  0  0  0  0  0
   -0.1464    2.3914    0.0000 H   0  0  0  0  0  0  0  0  0  0  0  0
   -1.9996    2.3914    0.0000 H   0  0  0  0  0  0  0  0  0  0  0  0
   -1.0730    2.9264    0.0000 H   0  0  0  0  0  0  0  0  0  0  0  0
   -2.5036    2.0633    0.0000 H   0  0  0  0  0  0  0  0  0  0  0  0
    0.1460    1.1533    0.0000 H   0  0  0  0  0  0  0  0  0  0  0  0
    1.0721    1.6888    0.0000 H   0  0  0  0  0  0  0  0  0  0  0  0
   -4.1089    1.1343    0.0000 H   0  0  0  0  0  0  0  0  0  0  0  0
   -4.1090   -0.7216    0.0000 H   0  0  0  0  0  0  0  0  0  0  0  0
    0.8922   -1.9605    0.0000 H   0  0  0  0  0  0  0  0  0  0  0  0
    2.5036    0.8258    0.0000 H   0  0  0  0  0  0  0  0  0  0  0  0
    2.7129    0.4974    0.0000 H   0  0  0  0  0  0  0  0  0  0  0  0
    1.7844    2.1013    0.0000 H   0  0  0  0  0  0  0  0  0  0  0  0
    2.7116    1.5674    0.0000 H   0  0  0  0  0  0  0  0  0  0  0  0
    2.5036   -2.8884    0.0000 H   0  0  0  0  0  0  0  0  0  0  0  0
    4.1090   -0.1034    0.0000 H   0  0  0  0  0  0  0  0  0  0  0  0
    4.1089   -1.9594    0.0000 H   0  0  0  0  0  0  0  0  0  0  0  0
  2  1  1  0  0  0  0
  3  1  2  0  0  0  0
  4  1  1  0  0  0  0
  5  2  1  0  0  0  0
  6  3  1  0  0  0  0
  6  7  2  0  0  0  0
  7  5  1  0  0  0  0
  8  4  1  0  0  0  0
  9  3  1  0  0  0  0
  9 26  1  0  0  0  0
 10  2  2  0  0  0  0
 11  6  1  0  0  0  0
 12  4  2  0  0  0  0
 13  8  1  0  0  0  0
 14  5  1  0  0  0  0
 14 27  1  0  0  0  0
 14 28  1  0  0  0  0
 14 29  1  0  0  0  0
 15  7  1  0  0  0  0
 15 30  1  0  0  0  0
 16 11  1  0  0  0  0
 17  8  1  0  0  0  0
 17 31  1  0  0  0  0
 17 32  1  0  0  0  0
 18 15  2  0  0  0  0
 18 33  1  0  0  0  0
 19 11  2  0  0  0  0
 19 18  1  0  0  0  0
 19 34  1  0  0  0  0
 20 13  1  0  0  0  0
 20 35  1  0  0  0  0
 21 13  2  0  0  0  0
 21 36  1  0  0  0  0
 22 17  1  0  0  0  0
 22 37  1  0  0  0  0
 22 38  1  0  0  0  0
 22 39  1  0  0  0  0
 23 20  2  0  0  0  0
 23 40  1  0  0  0  0
 24 21  1  0  0  0  0
 24 25  2  0  0  0  0
 24 41  1  0  0  0  0
 25 23  1  0  0  0  0
 25 42  1  0  0  0  0
M  END
>  <DRUGBANK_ID>
DB06685

>  <COMMON_NAME>
Laquinimod

>  <CAS_NUMBER>
248281-84-7

>  <UNII>
908SY76S4G

>  <SYNONYMS>
Laquinimod

$$$$
