
 OpenBabel10282417072D

 34 34  0  0  0  0  0  0  0  0999 V2000
   -0.3572   -1.8562    0.0000 O   0  0  0  0  0  0  0  0  0  0  0  0
   -1.7861   -0.2062    0.0000 O   0  0  0  0  0  0  0  0  0  0  0  0
   -2.5007   -1.4437    0.0000 O   0  0  0  0  0  0  0  0  0  0  0  0
   -2.5007   -3.0938    0.0000 O   0  0  0  0  0  0  0  0  0  0  0  0
    1.0717    3.0938    0.0000 O   0  0  0  0  0  0  0  0  0  0  0  0
    2.5007    0.6187    0.0000 O   0  0  0  0  0  0  0  0  0  0  0  0
   -0.3572    3.0938    0.0000 O   0  0  0  0  0  0  0  0  0  0  0  0
   -0.3572    0.6187    0.0000 N   0  0  0  0  0  0  0  0  0  0  0  0
    1.0717    0.6187    0.0000 N   0  0  0  0  0  0  0  0  0  0  0  0
    1.7862    1.8562    0.0000 N   0  0  0  0  0  0  0  0  0  0  0  0
   -0.3572    2.2687    0.0000 N   0  0  0  0  0  0  0  0  0  0  0  0
   -1.0716   -1.4437    0.0000 C   0  0  1  0  0  0  0  0  0  0  0  0
   -1.0716   -0.6187    0.0000 C   0  0  2  0  0  0  0  0  0  0  0  0
   -1.7861   -1.8562    0.0000 C   0  0  1  0  0  0  0  0  0  0  0  0
   -0.3572   -0.2062    0.0000 C   0  0  0  0  0  0  0  0  0  0  0  0
   -1.7861   -2.6813    0.0000 C   0  0  0  0  0  0  0  0  0  0  0  0
    0.3572    1.0312    0.0000 C   0  0  0  0  0  0  0  0  0  0  0  0
    0.3572    1.8562    0.0000 C   0  0  0  0  0  0  0  0  0  0  0  0
    1.0717    2.2687    0.0000 C   0  0  0  0  0  0  0  0  0  0  0  0
    1.7862    1.0312    0.0000 C   0  0  0  0  0  0  0  0  0  0  0  0
   -0.8001    0.8745    0.0000 H   0  0  0  0  0  0  0  0  0  0  0  0
    1.0717    0.1072    0.0000 H   0  0  0  0  0  0  0  0  0  0  0  0
    2.2291    2.1120    0.0000 H   0  0  0  0  0  0  0  0  0  0  0  0
   -0.3572   -2.8262    0.0000 H   0  0  0  0  0  0  0  0  0  0  0  0
   -1.7861    0.7638    0.0000 H   0  0  0  0  0  0  0  0  0  0  0  0
   -2.5008   -0.4737    0.0000 H   0  0  0  0  0  0  0  0  0  0  0  0
   -3.3407   -2.6087    0.0000 H   0  0  0  0  0  0  0  0  0  0  0  0
   -0.1449   -0.9087    0.0000 H   0  0  0  0  0  0  0  0  0  0  0  0
   -1.9982   -1.1537    0.0000 H   0  0  0  0  0  0  0  0  0  0  0  0
   -1.7861   -0.7862    0.0000 H   0  0  0  0  0  0  0  0  0  0  0  0
    0.5695   -0.7412    0.0000 H   0  0  0  0  0  0  0  0  0  0  0  0
   -0.3572   -1.2762    0.0000 H   0  0  0  0  0  0  0  0  0  0  0  0
   -0.8595   -3.2163    0.0000 H   0  0  0  0  0  0  0  0  0  0  0  0
   -0.8594   -2.1463    0.0000 H   0  0  0  0  0  0  0  0  0  0  0  0
  1 24  1  0  0  0  0
  2 25  1  0  0  0  0
  3 26  1  0  0  0  0
  4 16  1  0  0  0  0
  4 27  1  0  0  0  0
  5 19  2  0  0  0  0
  6 20  2  0  0  0  0
  7 11  2  0  0  0  0
  8 15  1  0  0  0  0
  8 17  1  0  0  0  0
  8 21  1  0  0  0  0
  9 17  1  0  0  0  0
  9 20  1  0  0  0  0
  9 22  1  0  0  0  0
 10 19  1  0  0  0  0
 10 20  1  0  0  0  0
 10 23  1  0  0  0  0
 11 18  1  0  0  0  0
 12  1  1  0  0  0  0
 12 13  1  0  0  0  0
 12 14  1  0  0  0  0
 12 28  1  1  0  0  0
 13  2  1  0  0  0  0
 13 15  1  0  0  0  0
 13 29  1  6  0  0  0
 14  3  1  0  0  0  0
 14 16  1  0  0  0  0
 14 30  1  6  0  0  0
 15 31  1  0  0  0  0
 15 32  1  0  0  0  0
 16 33  1  0  0  0  0
 16 34  1  0  0  0  0
 17 18  2  0  0  0  0
 18 19  1  0  0  0  0
M  END
>  <DRUGBANK_ID>
DB04128

>  <SECONDARY_ACCESSION_NUMBERS>
EXPT02045

>  <COMMON_NAME>
5-Nitroso-6-ribityl-amino-2,4(1H,3H)-pyrimidinedione

>  <SYNONYMS>
1-Deoxy-1-[(5-nitroso-2,6-dioxo-1,2,3,6-tetrahydro-4-pyrimidinyl)amino]-D-ribitol

$$$$
