
 OpenBabel10282417072D

 50 50  0  0  0  0  0  0  0  0999 V2000
   -3.2093    1.6344    0.0000 C   0  0  0  0  0  0  0  0  0  0  0  0
   -2.4960    1.2255    0.0000 C   0  0  0  0  0  0  0  0  0  0  0  0
   -1.7829    1.6385    0.0000 C   0  0  0  0  0  0  0  0  0  0  0  0
   -1.0697    1.2298    0.0000 N   0  0  0  0  0  0  0  0  0  0  0  0
   -0.3565    1.6427    0.0000 C   0  0  0  0  0  0  0  0  0  0  0  0
    0.3565    1.2340    0.0000 C   0  0  3  0  0  0  0  0  0  0  0  0
    1.0697    1.6469    0.0000 C   0  0  0  0  0  0  0  0  0  0  0  0
    1.7830    1.2381    0.0000 C   0  0  0  0  0  0  0  0  0  0  0  0
    2.4961    1.6510    0.0000 C   0  0  0  0  0  0  0  0  0  0  0  0
    3.2093    1.2423    0.0000 O   0  0  0  0  0  0  0  0  0  0  0  0
   -1.0679    0.4041    0.0000 C   0  0  0  0  0  0  0  0  0  0  0  0
   -1.7822   -0.0105    0.0000 C   0  0  0  0  0  0  0  0  0  0  0  0
   -1.7803   -0.8361    0.0000 C   0  0  0  0  0  0  0  0  0  0  0  0
   -0.3583    2.4684    0.0000 O   0  0  0  0  0  0  0  0  0  0  0  0
    0.3584    0.4081    0.0000 N   0  0  0  0  0  0  0  0  0  0  0  0
    1.0745   -0.0032    0.0000 C   0  0  0  0  0  0  0  0  0  0  0  0
    1.0763   -0.8289    0.0000 C   0  0  0  0  0  0  0  0  0  0  0  0
    1.7886    0.4113    0.0000 O   0  0  0  0  0  0  0  0  0  0  0  0
    2.4942    2.4767    0.0000 O   0  0  0  0  0  0  0  0  0  0  0  0
    0.3631   -1.2397    0.0000 C   0  0  0  0  0  0  0  0  0  0  0  0
    0.3650   -2.0656    0.0000 C   0  0  0  0  0  0  0  0  0  0  0  0
    1.0811   -2.4767    0.0000 C   0  0  0  0  0  0  0  0  0  0  0  0
    1.7953   -2.0623    0.0000 C   0  0  0  0  0  0  0  0  0  0  0  0
    1.7935   -1.2365    0.0000 C   0  0  0  0  0  0  0  0  0  0  0  0
   -3.2126    2.7044    0.0000 H   0  0  0  0  0  0  0  0  0  0  0  0
   -4.1343    1.0965    0.0000 H   0  0  0  0  0  0  0  0  0  0  0  0
   -4.1376    2.1665    0.0000 H   0  0  0  0  0  0  0  0  0  0  0  0
   -2.4936    0.1555    0.0000 H   0  0  0  0  0  0  0  0  0  0  0  0
   -1.5684    0.6922    0.0000 H   0  0  0  0  0  0  0  0  0  0  0  0
   -1.7854    2.7085    0.0000 H   0  0  0  0  0  0  0  0  0  0  0  0
   -2.7105    2.1718    0.0000 H   0  0  0  0  0  0  0  0  0  0  0  0
    1.2841    0.7006    0.0000 H   0  0  0  0  0  0  0  0  0  0  0  0
    1.0674    2.7169    0.0000 H   0  0  0  0  0  0  0  0  0  0  0  0
    1.9949    2.1844    0.0000 H   0  0  0  0  0  0  0  0  0  0  0  0
    1.7854    0.1681    0.0000 H   0  0  0  0  0  0  0  0  0  0  0  0
    2.7106    0.7047    0.0000 H   0  0  0  0  0  0  0  0  0  0  0  0
    3.2123    0.3053    0.0000 H   0  0  0  0  0  0  0  0  0  0  0  0
   -0.1401   -0.1288    0.0000 H   0  0  0  0  0  0  0  0  0  0  0  0
   -1.0655   -0.6659    0.0000 H   0  0  0  0  0  0  0  0  0  0  0  0
   -2.7101    0.5224    0.0000 H   0  0  0  0  0  0  0  0  0  0  0  0
   -1.7847    1.0595    0.0000 H   0  0  0  0  0  0  0  0  0  0  0  0
   -2.7057   -1.3732    0.0000 H   0  0  0  0  0  0  0  0  0  0  0  0
   -0.8524   -1.3690    0.0000 H   0  0  0  0  0  0  0  0  0  0  0  0
   -1.7778   -1.9061    0.0000 H   0  0  0  0  0  0  0  0  0  0  0  0
   -0.4931   -0.0861    0.0000 H   0  0  0  0  0  0  0  0  0  0  0  0
   -0.5310   -0.7243    0.0000 H   0  0  0  0  0  0  0  0  0  0  0  0
   -0.5275   -2.5837    0.0000 H   0  0  0  0  0  0  0  0  0  0  0  0
    1.0835   -3.5087    0.0000 H   0  0  0  0  0  0  0  0  0  0  0  0
    2.6902   -2.5764    0.0000 H   0  0  0  0  0  0  0  0  0  0  0  0
    2.6849   -0.7165    0.0000 H   0  0  0  0  0  0  0  0  0  0  0  0
  1  2  1  0  0  0  0
  1 25  1  0  0  0  0
  1 26  1  0  0  0  0
  1 27  1  0  0  0  0
  2  3  1  0  0  0  0
  2 28  1  0  0  0  0
  2 29  1  0  0  0  0
  3  4  1  0  0  0  0
  3 30  1  0  0  0  0
  3 31  1  0  0  0  0
  4  5  1  0  0  0  0
  4 11  1  0  0  0  0
  5 14  2  0  0  0  0
  5  6  1  0  0  0  0
  6  7  1  0  0  0  0
  6 15  1  0  0  0  0
  6 32  1  0  0  0  0
  7  8  1  0  0  0  0
  7 33  1  0  0  0  0
  7 34  1  0  0  0  0
  8  9  1  0  0  0  0
  8 35  1  0  0  0  0
  8 36  1  0  0  0  0
  9 19  2  0  0  0  0
  9 10  1  0  0  0  0
 10 37  1  0  0  0  0
 11 12  1  0  0  0  0
 11 38  1  0  0  0  0
 11 39  1  0  0  0  0
 12 13  1  0  0  0  0
 12 40  1  0  0  0  0
 12 41  1  0  0  0  0
 13 42  1  0  0  0  0
 13 43  1  0  0  0  0
 13 44  1  0  0  0  0
 15 16  1  0  0  0  0
 15 45  1  0  0  0  0
 16 17  1  0  0  0  0
 16 18  2  0  0  0  0
 17 20  2  0  0  0  0
 20 21  1  0  0  0  0
 20 46  1  0  0  0  0
 21 22  2  0  0  0  0
 21 47  1  0  0  0  0
 22 23  1  0  0  0  0
 22 48  1  0  0  0  0
 23 24  2  0  0  0  0
 23 49  1  0  0  0  0
 24 17  1  0  0  0  0
 24 50  1  0  0  0  0
M  END
>  <DRUGBANK_ID>
DB13431

>  <COMMON_NAME>
Proglumide

>  <CAS_NUMBER>
6620-60-6

>  <UNII>
EPL8W5565D

>  <SYNONYMS>
proglumida; Proglumide

$$$$
