
 OpenBabel10282417072D

 15 15  0  0  0  0  0  0  0  0999 V2000
    1.2352    0.6294    0.0000 C   0  0  0  0  0  0  0  0  0  0  0  0
    0.1553   -0.1553    0.0000 C   0  0  0  0  0  0  0  0  0  0  0  0
    0.5678    1.1143    0.0000 C   0  0  3  0  0  0  0  0  0  0  0  0
    0.5678    1.9393    0.0000 C   0  0  0  0  0  0  0  0  0  0  0  0
   -0.0997    0.6294    0.0000 N   0  0  0  0  0  0  0  0  0  0  0  0
   -0.1467    2.3518    0.0000 O   0  0  0  0  0  0  0  0  0  0  0  0
    1.2822    2.3518    0.0000 O   0  0  0  0  0  0  0  0  0  0  0  0
    0.9803   -0.1553    0.0000 S   0  0  0  0  0  0  0  0  0  0  0  0
    2.2528    0.9601    0.0000 H   0  0  0  0  0  0  0  0  0  0  0  0
    1.9918   -0.1272    0.0000 H   0  0  0  0  0  0  0  0  0  0  0  0
   -0.4736   -1.0210    0.0000 H   0  0  0  0  0  0  0  0  0  0  0  0
    0.6411   -1.1087    0.0000 H   0  0  0  0  0  0  0  0  0  0  0  0
    1.5212    1.6001    0.0000 H   0  0  0  0  0  0  0  0  0  0  0  0
   -1.0698    0.9446    0.0000 H   0  0  0  0  0  0  0  0  0  0  0  0
    2.0937    1.8833    0.0000 H   0  0  0  0  0  0  0  0  0  0  0  0
  1  9  1  0  0  0  0
  1 10  1  0  0  0  0
  2 11  1  0  0  0  0
  2 12  1  0  0  0  0
  3  1  1  0  0  0  0
  3 13  1  0  0  0  0
  4  3  1  0  0  0  0
  5  2  1  0  0  0  0
  5  3  1  0  0  0  0
  5 14  1  0  0  0  0
  6  4  2  0  0  0  0
  7  4  1  0  0  0  0
  7 15  1  0  0  0  0
  8  1  1  0  0  0  0
  8  2  1  0  0  0  0
M  END
>  <DRUGBANK_ID>
DB12856

>  <COMMON_NAME>
Timonacic

>  <CAS_NUMBER>
444-27-9

>  <UNII>
E5913T3IBL

>  <SYNONYMS>
ATC; Timonacic

$$$$
