
 OpenBabel10282417072D

 68 69  0  0  0  0  0  0  0  0999 V2000
    2.4989    0.2062    0.0000 C   0  0  0  0  0  0  0  0  0  0  0  0
    3.2147   -0.2062    0.0000 C   0  0  0  0  0  0  0  0  0  0  0  0
    3.9304    0.2062    0.0000 C   0  0  3  0  0  0  0  0  0  0  0  0
    4.6340   -0.2062    0.0000 C   0  0  1  0  0  0  0  0  0  0  0  0
    4.6340   -1.0311    0.0000 N   0  0  0  0  0  0  0  0  0  0  0  0
    5.3497    0.2062    0.0000 N   0  0  0  0  0  0  0  0  0  0  0  0
    5.3497    1.0311    0.0000 C   0  0  1  0  0  0  0  0  0  0  0  0
    6.0655    1.4435    0.0000 N   0  0  0  0  0  0  0  0  0  0  0  0
    4.6340    1.4435    0.0000 N   0  0  0  0  0  0  0  0  0  0  0  0
    3.9304    1.0311    0.0000 C   0  0  0  0  0  0  0  0  0  0  0  0
    3.2147    1.4435    0.0000 O   0  0  0  0  0  0  0  0  0  0  0  0
    6.0655    0.6186    0.0000 H   0  0  0  0  0  0  0  0  0  0  0  0
    4.1124   -0.8370    0.0000 H   0  0  0  0  0  0  0  0  0  0  0  0
    1.7832   -0.2062    0.0000 C   0  0  0  0  0  0  0  0  0  0  0  0
    1.0674    0.2062    0.0000 C   0  0  2  0  0  0  0  0  0  0  0  0
    0.3518   -0.2062    0.0000 C   0  0  0  0  0  0  0  0  0  0  0  0
   -0.3517    0.2062    0.0000 C   0  0  0  0  0  0  0  0  0  0  0  0
   -1.0674   -0.2062    0.0000 C   0  0  0  0  0  0  0  0  0  0  0  0
   -1.0674   -1.0311    0.0000 C   0  0  0  0  0  0  0  0  0  0  0  0
   -0.3517   -1.4435    0.0000 C   0  0  0  0  0  0  0  0  0  0  0  0
    0.3518   -1.0311    0.0000 C   0  0  0  0  0  0  0  0  0  0  0  0
   -1.7832   -1.4435    0.0000 C   0  0  0  0  0  0  0  0  0  0  0  0
   -2.4989   -1.0311    0.0000 N   0  0  0  0  0  0  0  0  0  0  0  0
   -3.2147   -1.4435    0.0000 C   0  0  1  0  0  0  0  0  0  0  0  0
   -3.9303   -1.0311    0.0000 C   0  0  0  0  0  0  0  0  0  0  0  0
   -4.6340   -1.4435    0.0000 C   0  0  0  0  0  0  0  0  0  0  0  0
   -5.3497   -1.0311    0.0000 C   0  0  0  0  0  0  0  0  0  0  0  0
   -6.0655   -1.4435    0.0000 O   0  0  0  0  0  0  0  0  0  0  0  0
   -5.3497   -0.2062    0.0000 O   0  0  0  0  0  0  0  0  0  0  0  0
   -3.2147   -2.2684    0.0000 C   0  0  0  0  0  0  0  0  0  0  0  0
   -2.4989   -2.6809    0.0000 O   0  0  0  0  0  0  0  0  0  0  0  0
   -3.9303   -2.6809    0.0000 O   0  0  0  0  0  0  0  0  0  0  0  0
   -3.9303   -1.8560    0.0000 H   0  0  0  0  0  0  0  0  0  0  0  0
   -1.7832   -2.2684    0.0000 O   0  0  0  0  0  0  0  0  0  0  0  0
    1.0674    1.0311    0.0000 C   0  0  0  0  0  0  0  0  0  0  0  0
    1.0674    1.8560    0.0000 C   0  0  0  0  0  0  0  0  0  0  0  0
    1.8924    1.8560    0.0000 F   0  0  0  0  0  0  0  0  0  0  0  0
    0.2426    1.8560    0.0000 F   0  0  0  0  0  0  0  0  0  0  0  0
    1.0674    2.6809    0.0000 F   0  0  0  0  0  0  0  0  0  0  0  0
    1.8924    1.0311    0.0000 O   0  0  0  0  0  0  0  0  0  0  0  0
    0.2426    1.0311    0.0000 O   0  0  0  0  0  0  0  0  0  0  0  0
    1.0674   -0.6186    0.0000 H   0  0  0  0  0  0  0  0  0  0  0  0
    2.4989    1.2762    0.0000 H   0  0  0  0  0  0  0  0  0  0  0  0
    1.5725    0.7416    0.0000 H   0  0  0  0  0  0  0  0  0  0  0  0
    3.2147   -1.2762    0.0000 H   0  0  0  0  0  0  0  0  0  0  0  0
    4.1411   -0.7416    0.0000 H   0  0  0  0  0  0  0  0  0  0  0  0
    3.9264   -0.8638    0.0000 H   0  0  0  0  0  0  0  0  0  0  0  0
    3.7507   -1.5411    0.0000 H   0  0  0  0  0  0  0  0  0  0  0  0
    5.5173   -1.5411    0.0000 H   0  0  0  0  0  0  0  0  0  0  0  0
    6.2328   -0.3042    0.0000 H   0  0  0  0  0  0  0  0  0  0  0  0
    6.9484    0.9327    0.0000 H   0  0  0  0  0  0  0  0  0  0  0  0
    6.0664    2.4635    0.0000 H   0  0  0  0  0  0  0  0  0  0  0  0
    3.2139    2.3805    0.0000 H   0  0  0  0  0  0  0  0  0  0  0  0
    1.7832   -1.2762    0.0000 H   0  0  0  0  0  0  0  0  0  0  0  0
    0.8568   -0.7416    0.0000 H   0  0  0  0  0  0  0  0  0  0  0  0
   -0.3478    1.2382    0.0000 H   0  0  0  0  0  0  0  0  0  0  0  0
   -1.9609    0.3102    0.0000 H   0  0  0  0  0  0  0  0  0  0  0  0
   -0.3478   -2.4755    0.0000 H   0  0  0  0  0  0  0  0  0  0  0  0
    1.2472   -1.5441    0.0000 H   0  0  0  0  0  0  0  0  0  0  0  0
   -2.4989   -0.0466    0.0000 H   0  0  0  0  0  0  0  0  0  0  0  0
   -3.9342    0.0389    0.0000 H   0  0  0  0  0  0  0  0  0  0  0  0
   -4.8596   -0.5008    0.0000 H   0  0  0  0  0  0  0  0  0  0  0  0
   -4.6301   -2.5135    0.0000 H   0  0  0  0  0  0  0  0  0  0  0  0
   -5.5594   -1.9806    0.0000 H   0  0  0  0  0  0  0  0  0  0  0  0
   -4.5382    0.2623    0.0000 H   0  0  0  0  0  0  0  0  0  0  0  0
   -4.7414   -2.2118    0.0000 H   0  0  0  0  0  0  0  0  0  0  0  0
    2.3609    0.2196    0.0000 H   0  0  0  0  0  0  0  0  0  0  0  0
   -0.2259    1.8426    0.0000 H   0  0  0  0  0  0  0  0  0  0  0  0
  1  2  1  0  0  0  0
  1 14  1  0  0  0  0
  1 43  1  0  0  0  0
  1 44  1  0  0  0  0
  2  3  1  0  0  0  0
  2 45  1  0  0  0  0
  2 46  1  0  0  0  0
  3  4  1  0  0  0  0
  3 10  1  0  0  0  0
  3 47  1  0  0  0  0
  4  5  1  0  0  0  0
  4  6  1  0  0  0  0
  4 13  1  1  0  0  0
  5 48  1  0  0  0  0
  5 49  1  0  0  0  0
  6  7  1  0  0  0  0
  6 50  1  0  0  0  0
  7  8  1  0  0  0  0
  7  9  1  0  0  0  0
  7 12  1  1  0  0  0
  8 51  1  0  0  0  0
  8 52  1  0  0  0  0
  9 10  2  0  0  0  0
 10 11  1  0  0  0  0
 11 53  1  0  0  0  0
 14 15  1  0  0  0  0
 14 54  1  0  0  0  0
 14 55  1  0  0  0  0
 15 16  1  0  0  0  0
 15 35  1  0  0  0  0
 15 42  1  1  0  0  0
 16 17  2  0  0  0  0
 16 21  1  0  0  0  0
 17 18  1  0  0  0  0
 17 56  1  0  0  0  0
 18 19  2  0  0  0  0
 18 57  1  0  0  0  0
 19 20  1  0  0  0  0
 19 22  1  0  0  0  0
 20 21  2  0  0  0  0
 20 58  1  0  0  0  0
 21 59  1  0  0  0  0
 22 23  1  0  0  0  0
 22 34  2  0  0  0  0
 23 24  1  0  0  0  0
 23 60  1  0  0  0  0
 24 25  1  0  0  0  0
 24 30  1  0  0  0  0
 24 33  1  1  0  0  0
 25 26  1  0  0  0  0
 25 61  1  0  0  0  0
 25 62  1  0  0  0  0
 26 27  1  0  0  0  0
 26 63  1  0  0  0  0
 26 64  1  0  0  0  0
 27 28  2  0  0  0  0
 27 29  1  0  0  0  0
 29 65  1  0  0  0  0
 30 31  2  0  0  0  0
 30 32  1  0  0  0  0
 32 66  1  0  0  0  0
 35 36  1  0  0  0  0
 35 40  1  0  0  0  0
 35 41  1  0  0  0  0
 36 37  1  0  0  0  0
 36 38  1  0  0  0  0
 36 39  1  0  0  0  0
 40 67  1  0  0  0  0
 41 68  1  0  0  0  0
M  END
>  <DRUGBANK_ID>
DB03546

>  <SECONDARY_ACCESSION_NUMBERS>
EXPT01969

>  <COMMON_NAME>
N-({4-[(1R)-4-[(2R,4S,5S)-2,4-diamino-6-oxohexahydropyrimidin-5-yl]-1-(2,2,2-trifluoro-1,1-dihydroxyethyl)butyl]phenyl}carbonyl)-L-glutamic acid

$$$$
