
 OpenBabel10282417072D

 52 54  0  0  0  0  0  0  0  0999 V2000
    1.7849   -2.4751    0.0000 Cl  0  0  0  0  0  0  0  0  0  0  0  0
   -0.3550    1.2451    0.0000 O   0  0  0  0  0  0  0  0  0  0  0  0
   -2.5000   -1.6500    0.0000 O   0  0  0  0  0  0  0  0  0  0  0  0
   -1.7850    1.2451    0.0000 O   0  0  0  0  0  0  0  0  0  0  0  0
    0.3549    0.0000    0.0000 N   0  0  0  0  0  0  0  0  0  0  0  0
   -0.3550   -1.2400    0.0000 N   0  0  0  0  0  0  0  0  0  0  0  0
   -1.7850   -0.4150    0.0000 N   0  0  0  0  0  0  0  0  0  0  0  0
    1.0700   -1.2400    0.0000 C   0  0  0  0  0  0  0  0  0  0  0  0
    1.0700   -0.4049    0.0000 C   0  0  0  0  0  0  0  0  0  0  0  0
    1.7849   -1.6500    0.0000 C   0  0  0  0  0  0  0  0  0  0  0  0
    0.3549   -1.6500    0.0000 C   0  0  0  0  0  0  0  0  0  0  0  0
    1.7849    0.0000    0.0000 C   0  0  0  0  0  0  0  0  0  0  0  0
    0.3549    0.8250    0.0000 C   0  0  0  0  0  0  0  0  0  0  0  0
    2.5000   -1.2400    0.0000 C   0  0  0  0  0  0  0  0  0  0  0  0
    1.0700    1.2451    0.0000 C   0  0  0  0  0  0  0  0  0  0  0  0
   -1.7850   -1.2400    0.0000 C   0  0  0  0  0  0  0  0  0  0  0  0
    2.5000   -0.4150    0.0000 C   0  0  0  0  0  0  0  0  0  0  0  0
   -1.0699   -1.6500    0.0000 C   0  0  0  0  0  0  0  0  0  0  0  0
    1.7849    0.8250    0.0000 C   0  0  0  0  0  0  0  0  0  0  0  0
    1.0700    2.0701    0.0000 C   0  0  0  0  0  0  0  0  0  0  0  0
   -2.5000    0.0000    0.0000 C   0  0  0  0  0  0  0  0  0  0  0  0
   -1.0699    0.0000    0.0000 C   0  0  0  0  0  0  0  0  0  0  0  0
   -0.3550   -0.4049    0.0000 C   0  0  0  0  0  0  0  0  0  0  0  0
   -2.5000    0.8250    0.0000 C   0  0  0  0  0  0  0  0  0  0  0  0
   -1.0699    0.8250    0.0000 C   0  0  0  0  0  0  0  0  0  0  0  0
    2.5000    1.2451    0.0000 C   0  0  0  0  0  0  0  0  0  0  0  0
    1.7849    2.4751    0.0000 C   0  0  0  0  0  0  0  0  0  0  0  0
    2.5000    2.0701    0.0000 C   0  0  0  0  0  0  0  0  0  0  0  0
   -0.4956   -0.4958    0.0000 H   0  0  0  0  0  0  0  0  0  0  0  0
    0.3532   -2.7200    0.0000 H   0  0  0  0  0  0  0  0  0  0  0  0
    1.2803   -2.1871    0.0000 H   0  0  0  0  0  0  0  0  0  0  0  0
    1.7903    1.0320    0.0000 H   0  0  0  0  0  0  0  0  0  0  0  0
    3.3930   -1.7573    0.0000 H   0  0  0  0  0  0  0  0  0  0  0  0
    3.3943    0.1000    0.0000 H   0  0  0  0  0  0  0  0  0  0  0  0
   -1.0698   -2.7200    0.0000 H   0  0  0  0  0  0  0  0  0  0  0  0
   -1.9957   -2.1864    0.0000 H   0  0  0  0  0  0  0  0  0  0  0  0
    1.7848   -0.2070    0.0000 H   0  0  0  0  0  0  0  0  0  0  0  0
    0.1784    2.5897    0.0000 H   0  0  0  0  0  0  0  0  0  0  0  0
   -3.4273   -0.5339    0.0000 H   0  0  0  0  0  0  0  0  0  0  0  0
   -3.4263    0.5355    0.0000 H   0  0  0  0  0  0  0  0  0  0  0  0
   -0.1427   -0.5340    0.0000 H   0  0  0  0  0  0  0  0  0  0  0  0
   -0.1436    0.5355    0.0000 H   0  0  0  0  0  0  0  0  0  0  0  0
    0.5716    0.1301    0.0000 H   0  0  0  0  0  0  0  0  0  0  0  0
   -1.2816    0.1301    0.0000 H   0  0  0  0  0  0  0  0  0  0  0  0
   -0.3550    0.6651    0.0000 H   0  0  0  0  0  0  0  0  0  0  0  0
   -3.4287    1.3565    0.0000 H   0  0  0  0  0  0  0  0  0  0  0  0
   -3.4256    0.2882    0.0000 H   0  0  0  0  0  0  0  0  0  0  0  0
   -0.1412    1.3565    0.0000 H   0  0  0  0  0  0  0  0  0  0  0  0
   -0.1443    0.2883    0.0000 H   0  0  0  0  0  0  0  0  0  0  0  0
    3.3957    0.7325    0.0000 H   0  0  0  0  0  0  0  0  0  0  0  0
    1.7848    3.5071    0.0000 H   0  0  0  0  0  0  0  0  0  0  0  0
    3.3916    2.5898    0.0000 H   0  0  0  0  0  0  0  0  0  0  0  0
  1 10  1  0  0  0  0
  2 13  2  0  0  0  0
  3 16  2  0  0  0  0
  4 24  1  0  0  0  0
  4 25  1  0  0  0  0
  5  9  1  0  0  0  0
  5 13  1  0  0  0  0
  5 29  1  0  0  0  0
  6 11  1  0  0  0  0
  6 18  1  0  0  0  0
  6 23  1  0  0  0  0
  7 16  1  0  0  0  0
  7 21  1  0  0  0  0
  7 22  1  0  0  0  0
  8  9  1  0  0  0  0
  8 10  2  0  0  0  0
  8 11  1  0  0  0  0
  9 12  2  0  0  0  0
 10 14  1  0  0  0  0
 11 30  1  0  0  0  0
 11 31  1  0  0  0  0
 12 17  1  0  0  0  0
 12 32  1  0  0  0  0
 13 15  1  0  0  0  0
 14 17  2  0  0  0  0
 14 33  1  0  0  0  0
 15 19  2  0  0  0  0
 15 20  1  0  0  0  0
 16 18  1  0  0  0  0
 17 34  1  0  0  0  0
 18 35  1  0  0  0  0
 18 36  1  0  0  0  0
 19 26  1  0  0  0  0
 19 37  1  0  0  0  0
 20 27  2  0  0  0  0
 20 38  1  0  0  0  0
 21 24  1  0  0  0  0
 21 39  1  0  0  0  0
 21 40  1  0  0  0  0
 22 25  1  0  0  0  0
 22 41  1  0  0  0  0
 22 42  1  0  0  0  0
 23 43  1  0  0  0  0
 23 44  1  0  0  0  0
 23 45  1  0  0  0  0
 24 46  1  0  0  0  0
 24 47  1  0  0  0  0
 25 48  1  0  0  0  0
 25 49  1  0  0  0  0
 26 28  2  0  0  0  0
 26 50  1  0  0  0  0
 27 28  1  0  0  0  0
 27 51  1  0  0  0  0
 28 52  1  0  0  0  0
M  END
>  <DRUGBANK_ID>
DB08968

>  <COMMON_NAME>
Fominoben

>  <CAS_NUMBER>
18053-31-1

>  <UNII>
TJ2KK6NYJS

>  <SYNONYMS>
Fominoben; Fominobene; Fominobenum

$$$$
