
 OpenBabel10282417072D

103105  0  0  1  0  0  0  0  0999 V2000
    8.7600    0.0627    0.0000 C   0  0  0  0  0  0  0  0  0  0  0  0
    9.1123   -0.6833    0.0000 O   0  0  0  0  0  0  0  0  0  0  0  0
    8.6425   -1.3614    0.0000 C   0  0  0  0  0  0  0  0  0  0  0  0
    8.9949   -2.1074    0.0000 C   0  0  0  0  0  0  0  0  0  0  0  0
    8.5250   -2.7855    0.0000 C   0  0  0  0  0  0  0  0  0  0  0  0
    7.7028   -2.7177    0.0000 C   0  0  0  0  0  0  0  0  0  0  0  0
    7.2330   -3.3959    0.0000 C   0  0  0  0  0  0  0  0  0  0  0  0
    7.5854   -4.1418    0.0000 C   0  0  2  0  0  0  0  0  0  0  0  0
    7.1155   -4.8200    0.0000 N   0  0  0  0  0  0  0  0  0  0  0  0
    6.2933   -4.7522    0.0000 C   0  0  0  0  0  0  0  0  0  0  0  0
    5.9410   -4.0062    0.0000 O   0  0  0  0  0  0  0  0  0  0  0  0
    5.8235   -5.4303    0.0000 C   0  0  0  0  0  0  0  0  0  0  0  0
    5.0013   -5.3625    0.0000 C   0  0  0  0  0  0  0  0  0  0  0  0
    4.9335   -6.1847    0.0000 C   0  0  0  0  0  0  0  0  0  0  0  0
    5.0691   -4.5403    0.0000 C   0  0  0  0  0  0  0  0  0  0  0  0
    4.1791   -5.2947    0.0000 N   0  0  0  0  0  0  0  0  0  0  0  0
    8.4076   -4.2097    0.0000 C   0  0  0  0  0  0  0  0  0  0  0  0
    8.8774   -3.5315    0.0000 O   0  0  0  0  0  0  0  0  0  0  0  0
    8.7600   -4.9556    0.0000 N   0  0  0  0  0  0  0  0  0  0  0  0
    9.5822   -5.0234    0.0000 C   0  0  1  0  0  0  0  0  0  0  0  0
   10.0520   -4.3453    0.0000 C   0  0  0  0  0  0  0  0  0  0  0  0
   10.8742   -4.4131    0.0000 C   0  0  0  0  0  0  0  0  0  0  0  0
   11.3026   -5.1181    0.0000 C   0  0  0  0  0  0  0  0  0  0  0  0
   12.1056   -4.9286    0.0000 N   0  0  0  0  0  0  0  0  0  0  0  0
   12.1734   -4.1063    0.0000 C   0  0  0  0  0  0  0  0  0  0  0  0
   11.4124   -3.7878    0.0000 N   0  0  0  0  0  0  0  0  0  0  0  0
    9.9345   -5.7694    0.0000 C   0  0  0  0  0  0  0  0  0  0  0  0
    9.4647   -6.4475    0.0000 O   0  0  0  0  0  0  0  0  0  0  0  0
   10.7568   -5.8372    0.0000 N   0  0  0  0  0  0  0  0  0  0  0  0
   11.1091   -6.5832    0.0000 C   0  0  1  0  0  0  0  0  0  0  0  0
   10.6393   -7.2613    0.0000 C   0  0  0  0  0  0  0  0  0  0  0  0
   10.9917   -8.0073    0.0000 C   0  0  0  0  0  0  0  0  0  0  0  0
   11.8139   -8.0751    0.0000 C   0  0  0  0  0  0  0  0  0  0  0  0
   12.1663   -8.8210    0.0000 C   0  0  0  0  0  0  0  0  0  0  0  0
   11.6964   -9.4992    0.0000 C   0  0  0  0  0  0  0  0  0  0  0  0
   10.8742   -9.4314    0.0000 C   0  0  0  0  0  0  0  0  0  0  0  0
   10.5218   -8.6854    0.0000 C   0  0  0  0  0  0  0  0  0  0  0  0
   11.9313   -6.6510    0.0000 C   0  0  1  0  0  0  0  0  0  0  0  0
   12.2837   -7.3969    0.0000 O   0  0  0  0  0  0  0  0  0  0  0  0
   12.4012   -5.9728    0.0000 C   0  0  1  0  0  0  0  0  0  0  0  0
   12.0488   -5.2269    0.0000 O   0  0  0  0  0  0  0  0  0  0  0  0
   13.2234   -6.0406    0.0000 C   0  0  0  0  0  0  0  0  0  0  0  0
   13.6932   -5.3625    0.0000 C   0  0  0  0  0  0  0  0  0  0  0  0
   13.3408   -4.6165    0.0000 C   0  0  0  0  0  0  0  0  0  0  0  0
   14.5154   -5.4303    0.0000 C   0  0  0  0  0  0  0  0  0  0  0  0
    7.3505   -1.9718    0.0000 C   0  0  0  0  0  0  0  0  0  0  0  0
    7.8203   -1.2936    0.0000 C   0  0  0  0  0  0  0  0  0  0  0  0
    9.3694    0.9422    0.0000 H   0  0  0  0  0  0  0  0  0  0  0  0
    7.6936    0.1508    0.0000 H   0  0  0  0  0  0  0  0  0  0  0  0
    8.3031    1.0302    0.0000 H   0  0  0  0  0  0  0  0  0  0  0  0
   10.0234   -2.1923    0.0000 H   0  0  0  0  0  0  0  0  0  0  0  0
    8.9658   -3.7186    0.0000 H   0  0  0  0  0  0  0  0  0  0  0  0
    6.1666   -3.3080    0.0000 H   0  0  0  0  0  0  0  0  0  0  0  0
    6.6237   -4.2755    0.0000 H   0  0  0  0  0  0  0  0  0  0  0  0
    6.5190   -4.0539    0.0000 H   0  0  0  0  0  0  0  0  0  0  0  0
    7.5360   -5.7102    0.0000 H   0  0  0  0  0  0  0  0  0  0  0  0
    6.2805   -6.3978    0.0000 H   0  0  0  0  0  0  0  0  0  0  0  0
    5.2142   -6.3098    0.0000 H   0  0  0  0  0  0  0  0  0  0  0  0
    3.9660   -6.6417    0.0000 H   0  0  0  0  0  0  0  0  0  0  0  0
    5.8130   -6.7940    0.0000 H   0  0  0  0  0  0  0  0  0  0  0  0
    4.8456   -7.2511    0.0000 H   0  0  0  0  0  0  0  0  0  0  0  0
    6.0366   -4.0833    0.0000 H   0  0  0  0  0  0  0  0  0  0  0  0
    4.1896   -3.9310    0.0000 H   0  0  0  0  0  0  0  0  0  0  0  0
    5.1570   -3.4739    0.0000 H   0  0  0  0  0  0  0  0  0  0  0  0
    3.7434   -4.3724    0.0000 H   0  0  0  0  0  0  0  0  0  0  0  0
    3.5982   -6.1331    0.0000 H   0  0  0  0  0  0  0  0  0  0  0  0
    8.1994   -5.7649    0.0000 H   0  0  0  0  0  0  0  0  0  0  0  0
    9.1252   -4.0559    0.0000 H   0  0  0  0  0  0  0  0  0  0  0  0
    9.5950   -3.3778    0.0000 H   0  0  0  0  0  0  0  0  0  0  0  0
   10.6613   -3.4658    0.0000 H   0  0  0  0  0  0  0  0  0  0  0  0
   10.9040   -6.0700    0.0000 H   0  0  0  0  0  0  0  0  0  0  0  0
   13.0553   -3.5703    0.0000 H   0  0  0  0  0  0  0  0  0  0  0  0
   11.1862   -2.8296    0.0000 H   0  0  0  0  0  0  0  0  0  0  0  0
   11.3175   -5.0280    0.0000 H   0  0  0  0  0  0  0  0  0  0  0  0
   10.0427   -6.4952    0.0000 H   0  0  0  0  0  0  0  0  0  0  0  0
    9.5729   -7.1734    0.0000 H   0  0  0  0  0  0  0  0  0  0  0  0
   10.0299   -8.1408    0.0000 H   0  0  0  0  0  0  0  0  0  0  0  0
   11.4487   -8.9748    0.0000 H   0  0  0  0  0  0  0  0  0  0  0  0
   12.4232   -7.1955    0.0000 H   0  0  0  0  0  0  0  0  0  0  0  0
   12.8803   -8.1630    0.0000 H   0  0  0  0  0  0  0  0  0  0  0  0
   13.2327   -8.9089    0.0000 H   0  0  0  0  0  0  0  0  0  0  0  0
   12.6233   -9.7885    0.0000 H   0  0  0  0  0  0  0  0  0  0  0  0
   12.1534  -10.4667    0.0000 H   0  0  0  0  0  0  0  0  0  0  0  0
   11.0870  -10.3787    0.0000 H   0  0  0  0  0  0  0  0  0  0  0  0
   10.2649  -10.3109    0.0000 H   0  0  0  0  0  0  0  0  0  0  0  0
    9.8078   -9.3435    0.0000 H   0  0  0  0  0  0  0  0  0  0  0  0
    9.4554   -8.5974    0.0000 H   0  0  0  0  0  0  0  0  0  0  0  0
   10.0648   -7.7179    0.0000 H   0  0  0  0  0  0  0  0  0  0  0  0
   11.3220   -7.5306    0.0000 H   0  0  0  0  0  0  0  0  0  0  0  0
   11.7313   -8.1943    0.0000 H   0  0  0  0  0  0  0  0  0  0  0  0
   11.3348   -5.8849    0.0000 H   0  0  0  0  0  0  0  0  0  0  0  0
   12.6012   -4.4295    0.0000 H   0  0  0  0  0  0  0  0  0  0  0  0
   13.6804   -7.0081    0.0000 H   0  0  0  0  0  0  0  0  0  0  0  0
   14.2898   -6.1285    0.0000 H   0  0  0  0  0  0  0  0  0  0  0  0
   14.3025   -4.4830    0.0000 H   0  0  0  0  0  0  0  0  0  0  0  0
   13.9502   -3.7370    0.0000 H   0  0  0  0  0  0  0  0  0  0  0  0
   12.2744   -4.5286    0.0000 H   0  0  0  0  0  0  0  0  0  0  0  0
   12.8838   -3.6490    0.0000 H   0  0  0  0  0  0  0  0  0  0  0  0
   14.9724   -6.3978    0.0000 H   0  0  0  0  0  0  0  0  0  0  0  0
   15.1247   -4.5508    0.0000 H   0  0  0  0  0  0  0  0  0  0  0  0
   15.5818   -5.5182    0.0000 H   0  0  0  0  0  0  0  0  0  0  0  0
    6.3220   -1.8870    0.0000 H   0  0  0  0  0  0  0  0  0  0  0  0
    7.3795   -0.3605    0.0000 H   0  0  0  0  0  0  0  0  0  0  0  0
  1  2  1  0  0  0  0
  1 48  1  0  0  0  0
  1 49  1  0  0  0  0
  1 50  1  0  0  0  0
  2  3  1  0  0  0  0
  3  4  2  0  0  0  0
  3 47  1  0  0  0  0
  4  5  1  0  0  0  0
  4 51  1  0  0  0  0
  5  6  2  0  0  0  0
  5 52  1  0  0  0  0
  6  7  1  0  0  0  0
  6 46  1  0  0  0  0
  7  8  1  0  0  0  0
  7 53  1  0  0  0  0
  7 54  1  0  0  0  0
  8  9  1  0  0  0  0
  8 17  1  0  0  0  0
  8 55  1  6  0  0  0
  9 10  1  0  0  0  0
  9 56  1  0  0  0  0
 10 11  2  0  0  0  0
 10 12  1  0  0  0  0
 12 13  1  0  0  0  0
 12 57  1  0  0  0  0
 12 58  1  0  0  0  0
 13 14  1  0  0  0  0
 13 15  1  0  0  0  0
 13 16  1  0  0  0  0
 14 59  1  0  0  0  0
 14 60  1  0  0  0  0
 14 61  1  0  0  0  0
 15 62  1  0  0  0  0
 15 63  1  0  0  0  0
 15 64  1  0  0  0  0
 16 65  1  0  0  0  0
 16 66  1  0  0  0  0
 17 18  2  0  0  0  0
 17 19  1  0  0  0  0
 19 67  1  0  0  0  0
 20 19  1  0  0  0  0
 20 21  1  0  0  0  0
 20 27  1  0  0  0  0
 20 68  1  6  0  0  0
 21 22  1  0  0  0  0
 21 69  1  0  0  0  0
 21 70  1  0  0  0  0
 22 23  2  0  0  0  0
 22 26  1  0  0  0  0
 23 24  1  0  0  0  0
 23 71  1  0  0  0  0
 24 25  2  0  0  0  0
 25 26  1  0  0  0  0
 25 72  1  0  0  0  0
 26 73  1  0  0  0  0
 27 28  2  0  0  0  0
 27 29  1  0  0  0  0
 29 74  1  0  0  0  0
 30 29  1  0  0  0  0
 30 31  1  0  0  0  0
 30 38  1  0  0  0  0
 30 75  1  1  0  0  0
 31 32  1  0  0  0  0
 31 76  1  0  0  0  0
 31 77  1  0  0  0  0
 32 33  1  0  0  0  0
 32 37  1  0  0  0  0
 32 78  1  0  0  0  0
 33 34  1  0  0  0  0
 33 79  1  0  0  0  0
 33 80  1  0  0  0  0
 34 35  1  0  0  0  0
 34 81  1  0  0  0  0
 34 82  1  0  0  0  0
 35 36  1  0  0  0  0
 35 83  1  0  0  0  0
 35 84  1  0  0  0  0
 36 37  1  0  0  0  0
 36 85  1  0  0  0  0
 36 86  1  0  0  0  0
 37 87  1  0  0  0  0
 37 88  1  0  0  0  0
 38 39  1  0  0  0  0
 38 40  1  0  0  0  0
 38 89  1  1  0  0  0
 39 90  1  0  0  0  0
 40 41  1  0  0  0  0
 40 42  1  0  0  0  0
 40 91  1  6  0  0  0
 41 92  1  0  0  0  0
 42 43  1  0  0  0  0
 42 93  1  0  0  0  0
 42 94  1  0  0  0  0
 43 44  1  0  0  0  0
 43 45  1  0  0  0  0
 43 95  1  0  0  0  0
 44 96  1  0  0  0  0
 44 97  1  0  0  0  0
 44 98  1  0  0  0  0
 45 99  1  0  0  0  0
 45100  1  0  0  0  0
 45101  1  0  0  0  0
 46 47  2  0  0  0  0
 46102  1  0  0  0  0
 47103  1  0  0  0  0
M  END
>  <DRUGBANK_ID>
DB03395

>  <SECONDARY_ACCESSION_NUMBERS>
EXPT03298

>  <COMMON_NAME>
Enalkiren

>  <CAS_NUMBER>
113082-98-7

>  <UNII>
0U7YZ42Z47

>  <SYNONYMS>
Enalkiren; Enalkirene; Enalkirenum; Enalquireno

$$$$
