
 OpenBabel10282417072D

 53 57  0  0  0  0  0  0  0  0999 V2000
    1.1809    2.1518    0.0000 C   0  0  0  0  0  0  0  0  0  0  0  0
    1.4358    1.3672    0.0000 C   0  0  0  0  0  0  0  0  0  0  0  0
    0.8838    0.7541    0.0000 C   0  0  0  0  0  0  0  0  0  0  0  0
    0.0768    0.9256    0.0000 C   0  0  0  0  0  0  0  0  0  0  0  0
   -0.1781    1.7103    0.0000 C   0  0  0  0  0  0  0  0  0  0  0  0
    0.3739    2.3234    0.0000 C   0  0  0  0  0  0  0  0  0  0  0  0
   -0.9851    1.8818    0.0000 O   0  0  0  0  0  0  0  0  0  0  0  0
   -1.2400    2.6664    0.0000 C   0  0  0  0  0  0  0  0  0  0  0  0
   -2.0470    2.8379    0.0000 C   0  0  0  0  0  0  0  0  0  0  0  0
   -2.3020    3.6226    0.0000 N   0  0  0  0  0  0  0  0  0  0  0  0
   -3.1089    3.7941    0.0000 C   0  0  0  0  0  0  0  0  0  0  0  0
   -3.3639    4.5787    0.0000 C   0  0  0  0  0  0  0  0  0  0  0  0
   -2.8118    5.1918    0.0000 C   0  0  0  0  0  0  0  0  0  0  0  0
   -2.0049    5.0203    0.0000 C   0  0  0  0  0  0  0  0  0  0  0  0
   -1.7499    4.2357    0.0000 C   0  0  0  0  0  0  0  0  0  0  0  0
    1.1387   -0.0305    0.0000 C   0  0  0  0  0  0  0  0  0  0  0  0
    1.9233   -0.2854    0.0000 C   0  0  0  0  0  0  0  0  0  0  0  0
    2.6378    0.1271    0.0000 C   0  0  0  0  0  0  0  0  0  0  0  0
    3.3523   -0.2854    0.0000 C   0  0  0  0  0  0  0  0  0  0  0  0
    3.3523   -1.1104    0.0000 C   0  0  0  0  0  0  0  0  0  0  0  0
    2.6378   -1.5229    0.0000 C   0  0  0  0  0  0  0  0  0  0  0  0
    1.9233   -1.1104    0.0000 C   0  0  0  0  0  0  0  0  0  0  0  0
    1.1387   -1.3654    0.0000 N   0  0  0  0  0  0  0  0  0  0  0  0
    0.6538   -0.6979    0.0000 N   0  0  0  0  0  0  0  0  0  0  0  0
    4.0668    0.1271    0.0000 C   0  0  0  0  0  0  0  0  0  0  0  0
    4.1530    0.9475    0.0000 N   0  0  0  0  0  0  0  0  0  0  0  0
    4.9600    1.1191    0.0000 C   0  0  0  0  0  0  0  0  0  0  0  0
    5.3725    0.4046    0.0000 N   0  0  0  0  0  0  0  0  0  0  0  0
    4.8204   -0.2085    0.0000 N   0  0  0  0  0  0  0  0  0  0  0  0
    1.8715    2.9187    0.0000 H   0  0  0  0  0  0  0  0  0  0  0  0
    2.4452    1.1526    0.0000 H   0  0  0  0  0  0  0  0  0  0  0  0
   -0.6138    0.1587    0.0000 H   0  0  0  0  0  0  0  0  0  0  0  0
    0.0550    3.3049    0.0000 H   0  0  0  0  0  0  0  0  0  0  0  0
   -0.5240    3.4616    0.0000 H   0  0  0  0  0  0  0  0  0  0  0  0
   -1.5707    3.6840    0.0000 H   0  0  0  0  0  0  0  0  0  0  0  0
   -2.7629    2.0427    0.0000 H   0  0  0  0  0  0  0  0  0  0  0  0
   -3.0936    3.0603    0.0000 H   0  0  0  0  0  0  0  0  0  0  0  0
   -3.8248    2.9989    0.0000 H   0  0  0  0  0  0  0  0  0  0  0  0
   -4.1555    4.0165    0.0000 H   0  0  0  0  0  0  0  0  0  0  0  0
   -4.4105    4.8012    0.0000 H   0  0  0  0  0  0  0  0  0  0  0  0
   -3.6945    5.5963    0.0000 H   0  0  0  0  0  0  0  0  0  0  0  0
   -3.1424    6.2094    0.0000 H   0  0  0  0  0  0  0  0  0  0  0  0
   -2.0958    5.9870    0.0000 H   0  0  0  0  0  0  0  0  0  0  0  0
   -1.2890    5.8155    0.0000 H   0  0  0  0  0  0  0  0  0  0  0  0
   -0.9583    4.7979    0.0000 H   0  0  0  0  0  0  0  0  0  0  0  0
   -0.7033    4.0132    0.0000 H   0  0  0  0  0  0  0  0  0  0  0  0
   -1.4193    3.2181    0.0000 H   0  0  0  0  0  0  0  0  0  0  0  0
    2.6378    1.1591    0.0000 H   0  0  0  0  0  0  0  0  0  0  0  0
    4.2460   -1.6264    0.0000 H   0  0  0  0  0  0  0  0  0  0  0  0
    2.6378   -2.5549    0.0000 H   0  0  0  0  0  0  0  0  0  0  0  0
    0.8345   -2.3017    0.0000 H   0  0  0  0  0  0  0  0  0  0  0  0
    5.3797    2.0619    0.0000 H   0  0  0  0  0  0  0  0  0  0  0  0
    6.3516    0.3017    0.0000 H   0  0  0  0  0  0  0  0  0  0  0  0
  1  2  2  0  0  0  0
  1  6  1  0  0  0  0
  1 30  1  0  0  0  0
  2  3  1  0  0  0  0
  2 31  1  0  0  0  0
  3  4  2  0  0  0  0
  3 16  1  0  0  0  0
  4  5  1  0  0  0  0
  4 32  1  0  0  0  0
  5  6  2  0  0  0  0
  5  7  1  0  0  0  0
  6 33  1  0  0  0  0
  7  8  1  0  0  0  0
  8  9  1  0  0  0  0
  8 34  1  0  0  0  0
  8 35  1  0  0  0  0
  9 10  1  0  0  0  0
  9 36  1  0  0  0  0
  9 37  1  0  0  0  0
 10 11  1  0  0  0  0
 10 15  1  0  0  0  0
 11 12  1  0  0  0  0
 11 38  1  0  0  0  0
 11 39  1  0  0  0  0
 12 13  1  0  0  0  0
 12 40  1  0  0  0  0
 12 41  1  0  0  0  0
 13 14  1  0  0  0  0
 13 42  1  0  0  0  0
 13 43  1  0  0  0  0
 14 15  1  0  0  0  0
 14 44  1  0  0  0  0
 14 45  1  0  0  0  0
 15 46  1  0  0  0  0
 15 47  1  0  0  0  0
 16 17  1  0  0  0  0
 16 24  2  0  0  0  0
 17 18  2  0  0  0  0
 17 22  1  0  0  0  0
 18 19  1  0  0  0  0
 18 48  1  0  0  0  0
 19 20  2  0  0  0  0
 19 25  1  0  0  0  0
 20 21  1  0  0  0  0
 20 49  1  0  0  0  0
 21 22  2  0  0  0  0
 21 50  1  0  0  0  0
 22 23  1  0  0  0  0
 23 24  1  0  0  0  0
 23 51  1  0  0  0  0
 25 26  1  0  0  0  0
 25 29  2  0  0  0  0
 26 27  2  0  0  0  0
 27 28  1  0  0  0  0
 27 52  1  0  0  0  0
 28 29  1  0  0  0  0
 28 53  1  0  0  0  0
M  END
>  <DRUGBANK_ID>
DB12432

>  <COMMON_NAME>
CC-401

>  <CAS_NUMBER>
395104-30-0

>  <UNII>
NOE38VQA1W

$$$$
