JEN
 OpenBabel10282417072D

 41 43  0  0  0  0  0  0  0  0999 V2000
   -0.7263    4.4727    0.0000 C   0  0  0  0  0  0  0  0  0  0  0  0
   -0.0118    4.0602    0.0000 O   0  0  0  0  0  0  0  0  0  0  0  0
   -0.0118    3.2352    0.0000 C   0  0  0  0  0  0  0  0  0  0  0  0
    0.7027    2.8227    0.0000 N   0  0  0  0  0  0  0  0  0  0  0  0
    0.7027    1.9977    0.0000 N   0  0  0  0  0  0  0  0  0  0  0  0
   -0.0118    1.5852    0.0000 C   0  0  0  0  0  0  0  0  0  0  0  0
   -0.7263    1.9977    0.0000 C   0  0  0  0  0  0  0  0  0  0  0  0
   -0.7263    2.8227    0.0000 C   0  0  0  0  0  0  0  0  0  0  0  0
   -0.0118    0.7602    0.0000 N   0  0  0  0  0  0  0  0  0  0  0  0
    0.7027    0.3477    0.0000 C   0  0  0  0  0  0  0  0  0  0  0  0
    0.7027   -0.4773    0.0000 C   0  0  0  0  0  0  0  0  0  0  0  0
   -0.0118   -0.8898    0.0000 N   0  0  0  0  0  0  0  0  0  0  0  0
   -0.7263   -0.4773    0.0000 C   0  0  0  0  0  0  0  0  0  0  0  0
   -0.7263    0.3477    0.0000 C   0  0  0  0  0  0  0  0  0  0  0  0
   -0.0118   -1.7148    0.0000 C   0  0  0  0  0  0  0  0  0  0  0  0
    0.7027   -2.1273    0.0000 C   0  0  0  0  0  0  0  0  0  0  0  0
    0.7027   -2.9523    0.0000 C   0  0  0  0  0  0  0  0  0  0  0  0
   -0.0118   -3.3648    0.0000 C   0  0  0  0  0  0  0  0  0  0  0  0
   -0.7263   -2.9523    0.0000 C   0  0  0  0  0  0  0  0  0  0  0  0
   -0.7263   -2.1273    0.0000 C   0  0  0  0  0  0  0  0  0  0  0  0
    1.4171   -3.3648    0.0000 C   0  0  0  0  0  0  0  0  0  0  0  0
   -0.7263    5.5427    0.0000 H   0  0  0  0  0  0  0  0  0  0  0  0
   -1.6529    3.9377    0.0000 H   0  0  0  0  0  0  0  0  0  0  0  0
   -1.6530    5.0077    0.0000 H   0  0  0  0  0  0  0  0  0  0  0  0
   -1.6200    1.4817    0.0000 H   0  0  0  0  0  0  0  0  0  0  0  0
   -1.6200    3.3387    0.0000 H   0  0  0  0  0  0  0  0  0  0  0  0
    1.6293    0.8827    0.0000 H   0  0  0  0  0  0  0  0  0  0  0  0
    1.6293   -0.1873    0.0000 H   0  0  0  0  0  0  0  0  0  0  0  0
    1.6293   -1.0123    0.0000 H   0  0  0  0  0  0  0  0  0  0  0  0
    0.7027   -1.5473    0.0000 H   0  0  0  0  0  0  0  0  0  0  0  0
   -1.6529   -1.0123    0.0000 H   0  0  0  0  0  0  0  0  0  0  0  0
   -1.6529    0.0577    0.0000 H   0  0  0  0  0  0  0  0  0  0  0  0
   -1.6529    0.8827    0.0000 H   0  0  0  0  0  0  0  0  0  0  0  0
   -1.6529   -0.1873    0.0000 H   0  0  0  0  0  0  0  0  0  0  0  0
    1.5964   -1.6113    0.0000 H   0  0  0  0  0  0  0  0  0  0  0  0
   -0.0118   -4.3968    0.0000 H   0  0  0  0  0  0  0  0  0  0  0  0
   -1.6200   -3.4683    0.0000 H   0  0  0  0  0  0  0  0  0  0  0  0
   -1.6200   -1.6113    0.0000 H   0  0  0  0  0  0  0  0  0  0  0  0
    1.4171   -4.4348    0.0000 H   0  0  0  0  0  0  0  0  0  0  0  0
    2.3438   -2.8298    0.0000 H   0  0  0  0  0  0  0  0  0  0  0  0
    2.3437   -3.8998    0.0000 H   0  0  0  0  0  0  0  0  0  0  0  0
  1  2  1  0  0  0  0
  1 22  1  0  0  0  0
  1 23  1  0  0  0  0
  1 24  1  0  0  0  0
  2  3  1  0  0  0  0
  3  4  2  0  0  0  0
  3  8  1  0  0  0  0
  4  5  1  0  0  0  0
  5  6  2  0  0  0  0
  6  7  1  0  0  0  0
  6  9  1  0  0  0  0
  7  8  2  0  0  0  0
  7 25  1  0  0  0  0
  8 26  1  0  0  0  0
  9 10  1  0  0  0  0
  9 14  1  0  0  0  0
 10 11  1  0  0  0  0
 10 27  1  0  0  0  0
 10 28  1  0  0  0  0
 11 12  1  0  0  0  0
 11 29  1  0  0  0  0
 11 30  1  0  0  0  0
 12 13  1  0  0  0  0
 12 15  1  0  0  0  0
 13 14  1  0  0  0  0
 13 31  1  0  0  0  0
 13 32  1  0  0  0  0
 14 33  1  0  0  0  0
 14 34  1  0  0  0  0
 15 16  2  0  0  0  0
 15 20  1  0  0  0  0
 16 17  1  0  0  0  0
 16 35  1  0  0  0  0
 17 18  2  0  0  0  0
 17 21  1  0  0  0  0
 18 19  1  0  0  0  0
 18 36  1  0  0  0  0
 19 20  2  0  0  0  0
 19 37  1  0  0  0  0
 20 38  1  0  0  0  0
 21 39  1  0  0  0  0
 21 40  1  0  0  0  0
 21 41  1  0  0  0  0
M  END
>  <DRUGBANK_ID>
DB08017

>  <COMMON_NAME>
3-METHOXY-6-[4-(3-METHYLPHENYL)-1-PIPERAZINYL]PYRIDAZINE

>  <UNII>
HK76HE61AQ

$$$$
