
 OpenBabel10282417072D

 33 33  0  0  0  0  0  0  0  0999 V2000
   -0.1595   -0.1755    0.0000 C   0  0  3  0  0  0  0  0  0  0  0  0
    0.6654   -0.1755    0.0000 C   0  0  0  0  0  0  0  0  0  0  0  0
   -0.4753   -0.9377    0.0000 C   0  0  0  0  0  0  0  0  0  0  0  0
   -0.4753    0.5866    0.0000 N   0  0  0  0  0  0  0  0  0  0  0  0
    1.0779    0.5389    0.0000 N   0  0  0  0  0  0  0  0  0  0  0  0
   -1.2375   -1.2534    0.0000 C   0  0  0  0  0  0  0  0  0  0  0  0
   -1.2375    0.9023    0.0000 C   0  0  0  0  0  0  0  0  0  0  0  0
    1.9029    0.5389    0.0000 C   0  0  0  0  0  0  0  0  0  0  0  0
   -1.9997   -0.9377    0.0000 C   0  0  0  0  0  0  0  0  0  0  0  0
   -1.9997    0.5866    0.0000 C   0  0  0  0  0  0  0  0  0  0  0  0
    2.3154    1.2534    0.0000 N   0  0  0  0  0  0  0  0  0  0  0  0
    2.3154   -0.1755    0.0000 N   0  0  0  0  0  0  0  0  0  0  0  0
   -2.3154   -0.1755    0.0000 C   0  0  0  0  0  0  0  0  0  0  0  0
    0.4349   -1.0652    0.0000 H   0  0  0  0  0  0  0  0  0  0  0  0
    1.2004   -1.1022    0.0000 H   0  0  0  0  0  0  0  0  0  0  0  0
    1.7354   -0.1755    0.0000 H   0  0  0  0  0  0  0  0  0  0  0  0
    0.2813   -1.6943    0.0000 H   0  0  0  0  0  0  0  0  0  0  0  0
   -0.6841   -1.9871    0.0000 H   0  0  0  0  0  0  0  0  0  0  0  0
    0.2459    1.3079    0.0000 H   0  0  0  0  0  0  0  0  0  0  0  0
    0.5857    1.3915    0.0000 H   0  0  0  0  0  0  0  0  0  0  0  0
   -1.2375   -2.3234    0.0000 H   0  0  0  0  0  0  0  0  0  0  0  0
   -2.1272   -1.8479    0.0000 H   0  0  0  0  0  0  0  0  0  0  0  0
   -1.2375    1.9723    0.0000 H   0  0  0  0  0  0  0  0  0  0  0  0
   -2.1272    1.4968    0.0000 H   0  0  0  0  0  0  0  0  0  0  0  0
   -2.7563   -1.6943    0.0000 H   0  0  0  0  0  0  0  0  0  0  0  0
   -3.0491   -0.7289    0.0000 H   0  0  0  0  0  0  0  0  0  0  0  0
   -2.7563    1.3432    0.0000 H   0  0  0  0  0  0  0  0  0  0  0  0
   -3.0491    0.3779    0.0000 H   0  0  0  0  0  0  0  0  0  0  0  0
    3.2999    1.2534    0.0000 H   0  0  0  0  0  0  0  0  0  0  0  0
    1.8232   -1.0281    0.0000 H   0  0  0  0  0  0  0  0  0  0  0  0
    3.2999   -0.1755    0.0000 H   0  0  0  0  0  0  0  0  0  0  0  0
   -3.3854   -0.1755    0.0000 H   0  0  0  0  0  0  0  0  0  0  0  0
   -2.9098    0.7142    0.0000 H   0  0  0  0  0  0  0  0  0  0  0  0
  1  2  1  0  0  0  0
  1  3  1  0  0  0  0
  1  4  1  0  0  0  0
  1 14  1  0  0  0  0
  2  5  1  0  0  0  0
  2 15  1  0  0  0  0
  2 16  1  0  0  0  0
  3  6  1  0  0  0  0
  3 17  1  0  0  0  0
  3 18  1  0  0  0  0
  4  7  1  0  0  0  0
  4 19  1  0  0  0  0
  5  8  1  0  0  0  0
  5 20  1  0  0  0  0
  6  9  1  0  0  0  0
  6 21  1  0  0  0  0
  6 22  1  0  0  0  0
  7 10  1  0  0  0  0
  7 23  1  0  0  0  0
  7 24  1  0  0  0  0
  8 11  2  0  0  0  0
  8 12  1  0  0  0  0
  9 13  1  0  0  0  0
  9 25  1  0  0  0  0
  9 26  1  0  0  0  0
 10 13  1  0  0  0  0
 10 27  1  0  0  0  0
 10 28  1  0  0  0  0
 11 29  1  0  0  0  0
 12 30  1  0  0  0  0
 12 31  1  0  0  0  0
 13 32  1  0  0  0  0
 13 33  1  0  0  0  0
M  END
>  <DRUGBANK_ID>
DB13604

>  <COMMON_NAME>
Guanazodine

>  <CAS_NUMBER>
32059-15-7

>  <UNII>
7N05KQ38YI

>  <SYNONYMS>
Guanazodine

$$$$
