
 OpenBabel10282417072D

 76 80  0  0  0  0  0  0  0  0999 V2000
   -3.4866    2.4750    0.0000 C   0  0  0  0  0  0  0  0  0  0  0  0
   -3.4866    1.6500    0.0000 N   0  0  0  0  0  0  0  0  0  0  0  0
   -4.2011    1.2375    0.0000 C   0  0  0  0  0  0  0  0  0  0  0  0
   -2.7721    1.2375    0.0000 C   0  0  0  0  0  0  0  0  0  0  0  0
   -2.0577    1.6500    0.0000 C   0  0  0  0  0  0  0  0  0  0  0  0
   -2.7721    0.4125    0.0000 C   0  0  0  0  0  0  0  0  0  0  0  0
   -2.0577    0.0000    0.0000 C   0  0  0  0  0  0  0  0  0  0  0  0
   -1.3432    0.4125    0.0000 C   0  0  0  0  0  0  0  0  0  0  0  0
   -1.3432    1.2375    0.0000 C   0  0  0  0  0  0  0  0  0  0  0  0
   -0.6287    0.0000    0.0000 C   0  0  1  0  0  0  0  0  0  0  0  0
    0.0856    0.4125    0.0000 C   0  0  0  0  0  0  0  0  0  0  0  0
   -0.6287   -0.8250    0.0000 C   0  0  0  0  0  0  0  0  0  0  0  0
    0.0856   -1.2375    0.0000 C   0  0  2  0  0  0  0  0  0  0  0  0
    0.7706   -0.7955    0.0000 C   0  0  1  0  0  0  0  0  0  0  0  0
    0.7706    0.0294    0.0000 C   0  0  1  0  0  0  0  0  0  0  0  0
    1.5552    0.2844    0.0000 C   0  0  2  0  0  0  0  0  0  0  0  0
    1.5553   -1.0504    0.0000 C   0  0  0  0  0  0  0  0  0  0  0  0
    2.0402   -0.3830    0.0000 C   0  0  0  0  0  0  0  0  0  0  0  0
   -1.3727   -1.2375    0.0000 C   0  0  0  0  0  0  0  0  0  0  0  0
   -1.3727   -2.0625    0.0000 C   0  0  0  0  0  0  0  0  0  0  0  0
   -0.6287   -2.4750    0.0000 C   0  0  0  0  0  0  0  0  0  0  0  0
    0.0856   -2.0625    0.0000 C   0  0  0  0  0  0  0  0  0  0  0  0
   -2.0871   -0.8250    0.0000 C   0  0  0  0  0  0  0  0  0  0  0  0
   -2.8016   -1.2375    0.0000 C   0  0  0  0  0  0  0  0  0  0  0  0
   -2.8016   -2.0625    0.0000 C   0  0  0  0  0  0  0  0  0  0  0  0
   -2.0871   -2.4750    0.0000 C   0  0  0  0  0  0  0  0  0  0  0  0
   -3.5161   -2.4750    0.0000 O   0  0  0  0  0  0  0  0  0  0  0  0
    0.7706    0.8544    0.0000 C   0  0  0  0  0  0  0  0  0  0  0  0
    1.9677    0.9989    0.0000 C   0  0  0  0  0  0  0  0  0  0  0  0
    1.5552    1.7133    0.0000 O   0  0  0  0  0  0  0  0  0  0  0  0
    2.7927    0.9989    0.0000 C   0  0  0  0  0  0  0  0  0  0  0  0
    3.3761    1.5822    0.0000 O   0  0  0  0  0  0  0  0  0  0  0  0
    2.3802    0.2844    0.0000 O   0  0  0  0  0  0  0  0  0  0  0  0
    3.0947   -0.1280    0.0000 C   0  0  0  0  0  0  0  0  0  0  0  0
    3.9197   -0.1280    0.0000 C   0  0  0  0  0  0  0  0  0  0  0  0
    3.0947   -0.9530    0.0000 O   0  0  0  0  0  0  0  0  0  0  0  0
    4.2011    1.5822    0.0000 C   0  0  0  0  0  0  0  0  0  0  0  0
    0.8997   -1.7871    0.0000 H   0  0  0  0  0  0  0  0  0  0  0  0
    0.9637   -1.7159    0.0000 H   0  0  0  0  0  0  0  0  0  0  0  0
   -2.5600    3.0100    0.0000 H   0  0  0  0  0  0  0  0  0  0  0  0
   -4.4132    3.0100    0.0000 H   0  0  0  0  0  0  0  0  0  0  0  0
   -3.4866    3.5450    0.0000 H   0  0  0  0  0  0  0  0  0  0  0  0
   -5.1277    1.7725    0.0000 H   0  0  0  0  0  0  0  0  0  0  0  0
   -4.2011    0.1675    0.0000 H   0  0  0  0  0  0  0  0  0  0  0  0
   -5.1278    0.7025    0.0000 H   0  0  0  0  0  0  0  0  0  0  0  0
   -2.0577    2.6820    0.0000 H   0  0  0  0  0  0  0  0  0  0  0  0
   -3.6658   -0.1035    0.0000 H   0  0  0  0  0  0  0  0  0  0  0  0
   -2.0577   -1.0320    0.0000 H   0  0  0  0  0  0  0  0  0  0  0  0
   -0.4495    1.7535    0.0000 H   0  0  0  0  0  0  0  0  0  0  0  0
   -0.6288    1.0700    0.0000 H   0  0  0  0  0  0  0  0  0  0  0  0
    0.0782    1.4825    0.0000 H   0  0  0  0  0  0  0  0  0  0  0  0
    1.0067    0.9570    0.0000 H   0  0  0  0  0  0  0  0  0  0  0  0
    1.8860   -2.0680    0.0000 H   0  0  0  0  0  0  0  0  0  0  0  0
    2.6121   -1.2178    0.0000 H   0  0  0  0  0  0  0  0  0  0  0  0
    3.1102   -0.3829    0.0000 H   0  0  0  0  0  0  0  0  0  0  0  0
    2.5260   -1.3364    0.0000 H   0  0  0  0  0  0  0  0  0  0  0  0
   -0.6194   -3.5450    0.0000 H   0  0  0  0  0  0  0  0  0  0  0  0
    0.3003   -3.0059    0.0000 H   0  0  0  0  0  0  0  0  0  0  0  0
    1.0123   -2.5975    0.0000 H   0  0  0  0  0  0  0  0  0  0  0  0
    0.0857   -3.1325    0.0000 H   0  0  0  0  0  0  0  0  0  0  0  0
   -2.0871    0.2450    0.0000 H   0  0  0  0  0  0  0  0  0  0  0  0
   -3.0137   -0.2900    0.0000 H   0  0  0  0  0  0  0  0  0  0  0  0
   -3.7282   -0.7025    0.0000 H   0  0  0  0  0  0  0  0  0  0  0  0
   -3.7282   -1.7725    0.0000 H   0  0  0  0  0  0  0  0  0  0  0  0
   -2.0871   -3.5070    0.0000 H   0  0  0  0  0  0  0  0  0  0  0  0
    1.6972    1.3894    0.0000 H   0  0  0  0  0  0  0  0  0  0  0  0
   -0.1560    1.3894    0.0000 H   0  0  0  0  0  0  0  0  0  0  0  0
    0.7706    1.9244    0.0000 H   0  0  0  0  0  0  0  0  0  0  0  0
    3.2021    0.0103    0.0000 H   0  0  0  0  0  0  0  0  0  0  0  0
    3.8421    0.7901    0.0000 H   0  0  0  0  0  0  0  0  0  0  0  0
    4.4547   -1.0546    0.0000 H   0  0  0  0  0  0  0  0  0  0  0  0
    4.4547    0.7986    0.0000 H   0  0  0  0  0  0  0  0  0  0  0  0
    4.9897   -0.1280    0.0000 H   0  0  0  0  0  0  0  0  0  0  0  0
    4.7361    0.6556    0.0000 H   0  0  0  0  0  0  0  0  0  0  0  0
    4.7361    2.5088    0.0000 H   0  0  0  0  0  0  0  0  0  0  0  0
    5.2711    1.5822    0.0000 H   0  0  0  0  0  0  0  0  0  0  0  0
  1  2  1  0  0  0  0
  1 40  1  0  0  0  0
  1 41  1  0  0  0  0
  1 42  1  0  0  0  0
  2  3  1  0  0  0  0
  2  4  1  0  0  0  0
  3 43  1  0  0  0  0
  3 44  1  0  0  0  0
  3 45  1  0  0  0  0
  4  6  1  0  0  0  0
  5  4  2  0  0  0  0
  5  9  1  0  0  0  0
  5 46  1  0  0  0  0
  6  7  2  0  0  0  0
  6 47  1  0  0  0  0
  7  8  1  0  0  0  0
  7 48  1  0  0  0  0
  8  9  2  0  0  0  0
  9 49  1  0  0  0  0
 10  8  1  0  0  0  0
 10 12  1  0  0  0  0
 10 50  1  6  0  0  0
 11 10  1  0  0  0  0
 11 15  1  0  0  0  0
 11 51  1  0  0  0  0
 11 52  1  0  0  0  0
 12 13  1  0  0  0  0
 12 19  2  0  0  0  0
 13 14  1  0  0  0  0
 13 39  1  1  0  0  0
 14 17  1  0  0  0  0
 14 38  1  6  0  0  0
 15 14  1  0  0  0  0
 15 28  1  1  0  0  0
 16 15  1  0  0  0  0
 16 18  1  0  0  0  0
 16 29  1  1  0  0  0
 16 33  1  0  0  0  0
 17 18  1  0  0  0  0
 17 53  1  0  0  0  0
 17 54  1  0  0  0  0
 18 55  1  0  0  0  0
 18 56  1  0  0  0  0
 19 20  1  0  0  0  0
 20 21  1  0  0  0  0
 21 22  1  0  0  0  0
 21 57  1  0  0  0  0
 21 58  1  0  0  0  0
 22 13  1  0  0  0  0
 22 59  1  0  0  0  0
 22 60  1  0  0  0  0
 23 19  1  0  0  0  0
 23 24  1  0  0  0  0
 23 61  1  0  0  0  0
 23 62  1  0  0  0  0
 24 25  1  0  0  0  0
 24 63  1  0  0  0  0
 24 64  1  0  0  0  0
 25 26  1  0  0  0  0
 25 27  2  0  0  0  0
 26 20  2  0  0  0  0
 26 65  1  0  0  0  0
 28 66  1  0  0  0  0
 28 67  1  0  0  0  0
 28 68  1  0  0  0  0
 29 30  2  0  0  0  0
 29 31  1  0  0  0  0
 31 32  1  0  0  0  0
 31 69  1  0  0  0  0
 31 70  1  0  0  0  0
 32 37  1  0  0  0  0
 33 34  1  0  0  0  0
 34 35  1  0  0  0  0
 34 36  2  0  0  0  0
 35 71  1  0  0  0  0
 35 72  1  0  0  0  0
 35 73  1  0  0  0  0
 37 74  1  0  0  0  0
 37 75  1  0  0  0  0
 37 76  1  0  0  0  0
M  END
>  <DRUGBANK_ID>
DB05253

>  <COMMON_NAME>
Telapristone acetate

>  <CAS_NUMBER>
198414-31-2

>  <UNII>
1K9EYK92PQ

>  <SYNONYMS>
17alpha-Acetoxy-11beta-(4-(dimethylamino)phenyl)-21-methoxy-19-norpregna-4,9-dien-3,20-dione; Telapristone acetate

$$$$
