476
 OpenBabel10282417072D

 40 42  0  0  1  0  0  0  0  0999 V2000
    5.1753   -1.7207    0.0000 S   0  0  0  0  0  0  0  0  0  0  0  0
    5.2223    0.0017    0.0000 O   0  0  0  0  0  0  0  0  0  0  0  0
    2.3644    0.0017    0.0000 N   0  0  0  0  0  0  0  0  0  0  0  0
    4.5079   -0.4108    0.0000 C   0  0  1  0  0  0  0  0  0  0  0  0
    3.7934    0.0017    0.0000 C   0  0  0  0  0  0  0  0  0  0  0  0
    3.0790   -0.4108    0.0000 C   0  0  0  0  0  0  0  0  0  0  0  0
    4.5079   -1.2358    0.0000 C   0  0  0  0  0  0  0  0  0  0  0  0
    5.2223    0.8267    0.0000 C   0  0  0  0  0  0  0  0  0  0  0  0
    5.9369    1.2392    0.0000 C   0  0  0  0  0  0  0  0  0  0  0  0
    5.9369    2.0642    0.0000 C   0  0  0  0  0  0  0  0  0  0  0  0
    3.8405   -1.7207    0.0000 C   0  0  0  0  0  0  0  0  0  0  0  0
    4.5079    1.2392    0.0000 C   0  0  0  0  0  0  0  0  0  0  0  0
    6.6743    0.7981    0.0000 C   0  0  0  0  0  0  0  0  0  0  0  0
    5.2223    2.4767    0.0000 C   0  0  0  0  0  0  0  0  0  0  0  0
    4.5079    2.0642    0.0000 C   0  0  0  0  0  0  0  0  0  0  0  0
    6.6743    2.5054    0.0000 C   0  0  0  0  0  0  0  0  0  0  0  0
    4.0954   -2.5054    0.0000 C   0  0  0  0  0  0  0  0  0  0  0  0
    4.9204   -2.5054    0.0000 C   0  0  0  0  0  0  0  0  0  0  0  0
    1.6500   -0.4108    0.0000 C   0  0  0  0  0  0  0  0  0  0  0  0
    7.4219    1.2221    0.0000 C   0  0  0  0  0  0  0  0  0  0  0  0
    7.4219    2.0814    0.0000 C   0  0  0  0  0  0  0  0  0  0  0  0
    2.3643    1.0217    0.0000 H   0  0  0  0  0  0  0  0  0  0  0  0
    4.5079    0.6592    0.0000 H   0  0  0  0  0  0  0  0  0  0  0  0
    3.7934    1.0717    0.0000 H   0  0  0  0  0  0  0  0  0  0  0  0
    2.8667    0.5367    0.0000 H   0  0  0  0  0  0  0  0  0  0  0  0
    3.0791   -1.4808    0.0000 H   0  0  0  0  0  0  0  0  0  0  0  0
    4.0057   -0.9458    0.0000 H   0  0  0  0  0  0  0  0  0  0  0  0
    2.8590   -1.4018    0.0000 H   0  0  0  0  0  0  0  0  0  0  0  0
    3.6142    0.7232    0.0000 H   0  0  0  0  0  0  0  0  0  0  0  0
    6.6623   -0.2338    0.0000 H   0  0  0  0  0  0  0  0  0  0  0  0
    5.2222    3.5087    0.0000 H   0  0  0  0  0  0  0  0  0  0  0  0
    3.6142    2.5802    0.0000 H   0  0  0  0  0  0  0  0  0  0  0  0
    6.6623    3.5373    0.0000 H   0  0  0  0  0  0  0  0  0  0  0  0
    3.4888   -3.3403    0.0000 H   0  0  0  0  0  0  0  0  0  0  0  0
    5.5270   -3.3403    0.0000 H   0  0  0  0  0  0  0  0  0  0  0  0
    0.7233    0.1242    0.0000 H   0  0  0  0  0  0  0  0  0  0  0  0
    1.6500   -1.4808    0.0000 H   0  0  0  0  0  0  0  0  0  0  0  0
    0.7234   -0.9458    0.0000 H   0  0  0  0  0  0  0  0  0  0  0  0
    8.3136    0.7027    0.0000 H   0  0  0  0  0  0  0  0  0  0  0  0
    8.3136    2.6008    0.0000 H   0  0  0  0  0  0  0  0  0  0  0  0
  1  7  1  0  0  0  0
  1 18  1  0  0  0  0
  2  8  1  0  0  0  0
  3  6  1  0  0  0  0
  3 19  1  0  0  0  0
  3 22  1  0  0  0  0
  4  2  1  0  0  0  0
  4  5  1  0  0  0  0
  4  7  1  0  0  0  0
  4 23  1  1  0  0  0
  5  6  1  0  0  0  0
  5 24  1  0  0  0  0
  5 25  1  0  0  0  0
  6 26  1  0  0  0  0
  6 27  1  0  0  0  0
  7 11  2  0  0  0  0
  8  9  1  0  0  0  0
  8 12  2  0  0  0  0
  9 10  1  0  0  0  0
  9 13  2  0  0  0  0
 10 14  1  0  0  0  0
 10 16  2  0  0  0  0
 11 17  1  0  0  0  0
 11 28  1  0  0  0  0
 12 15  1  0  0  0  0
 12 29  1  0  0  0  0
 13 20  1  0  0  0  0
 13 30  1  0  0  0  0
 14 15  2  0  0  0  0
 14 31  1  0  0  0  0
 15 32  1  0  0  0  0
 16 21  1  0  0  0  0
 16 33  1  0  0  0  0
 17 18  2  0  0  0  0
 17 34  1  0  0  0  0
 18 35  1  0  0  0  0
 19 36  1  0  0  0  0
 19 37  1  0  0  0  0
 19 38  1  0  0  0  0
 20 21  2  0  0  0  0
 20 39  1  0  0  0  0
 21 40  1  0  0  0  0
M  END
>  <DRUGBANK_ID>
DB00476

>  <SECONDARY_ACCESSION_NUMBERS>
APRD00060

>  <COMMON_NAME>
Duloxetine

>  <CAS_NUMBER>
116539-59-4

>  <UNII>
O5TNM5N07U

>  <SYNONYMS>
(3S)-N-methyl-3-(1-naphthyloxy)-3-(2-thienyl)propan-1-amine; (S)-duloxetine; Duloxetina; Duloxetine

$$$$
