
 OpenBabel10282417072D

 14 13  0  0  0  0  0  0  0  0999 V2000
   -4.5302    5.3625    0.0000 C   0  0  0  0  0  0  0  0  0  0  0  0
   -3.8157    4.9500    0.0000 C   0  0  0  0  0  0  0  0  0  0  0  0
   -3.1012    5.3625    0.0000 C   0  0  1  0  0  0  0  0  0  0  0  0
   -2.3868    4.9500    0.0000 C   0  0  0  0  0  0  0  0  0  0  0  0
   -3.8157    4.1250    0.0000 O   0  0  0  0  0  0  0  0  0  0  0  0
   -3.1012    6.1875    0.0000 O   0  0  0  0  0  0  0  0  0  0  0  0
   -4.5302    6.4325    0.0000 H   0  0  0  0  0  0  0  0  0  0  0  0
   -5.4568    4.8275    0.0000 H   0  0  0  0  0  0  0  0  0  0  0  0
   -5.4569    5.8975    0.0000 H   0  0  0  0  0  0  0  0  0  0  0  0
   -3.1012    4.2925    0.0000 H   0  0  0  0  0  0  0  0  0  0  0  0
   -2.3868    3.8800    0.0000 H   0  0  0  0  0  0  0  0  0  0  0  0
   -1.4601    5.4850    0.0000 H   0  0  0  0  0  0  0  0  0  0  0  0
   -1.4602    4.4150    0.0000 H   0  0  0  0  0  0  0  0  0  0  0  0
   -2.2612    6.6725    0.0000 H   0  0  0  0  0  0  0  0  0  0  0  0
  1  2  1  0  0  0  0
  1  7  1  0  0  0  0
  1  8  1  0  0  0  0
  1  9  1  0  0  0  0
  2  3  1  0  0  0  0
  2  5  2  0  0  0  0
  3  4  1  0  0  0  0
  3  6  1  0  0  0  0
  3 10  1  1  0  0  0
  4 11  1  0  0  0  0
  4 12  1  0  0  0  0
  4 13  1  0  0  0  0
  6 14  1  0  0  0  0
M  END
>  <DRUGBANK_ID>
DB04364

>  <SECONDARY_ACCESSION_NUMBERS>
EXPT01701

>  <COMMON_NAME>
(R)-acetoin

>  <SYNONYMS>
(R)-2-acetoin; (R)-3-hydroxy-2-butanone; (R)-3-hydroxybutan-2-one; (R)-dimethylketol

$$$$
