
 OpenBabel10282417072D

 34 36  0  0  1  0  0  0  0  0999 V2000
    0.6538   -0.6979    0.0000 C   0  0  0  0  0  0  0  0  0  0  0  0
    1.1387   -0.0305    0.0000 N   0  0  0  0  0  0  0  0  0  0  0  0
    1.9233   -0.2854    0.0000 C   0  0  0  0  0  0  0  0  0  0  0  0
    2.6378    0.1271    0.0000 C   0  0  0  0  0  0  0  0  0  0  0  0
    2.6378    0.9521    0.0000 O   0  0  0  0  0  0  0  0  0  0  0  0
    3.3523   -0.2854    0.0000 N   0  0  0  0  0  0  0  0  0  0  0  0
    3.3523   -1.1104    0.0000 C   0  0  0  0  0  0  0  0  0  0  0  0
    2.6378   -1.5229    0.0000 N   0  0  0  0  0  0  0  0  0  0  0  0
    1.9233   -1.1104    0.0000 C   0  0  0  0  0  0  0  0  0  0  0  0
    1.1387   -1.3654    0.0000 N   0  0  0  0  0  0  0  0  0  0  0  0
    0.8838   -2.1500    0.0000 C   0  0  2  0  0  0  0  0  0  0  0  0
    1.2583   -2.8851    0.0000 C   0  0  0  0  0  0  0  0  0  0  0  0
    0.5232   -3.2596    0.0000 C   0  0  1  0  0  0  0  0  0  0  0  0
    0.1487   -2.5245    0.0000 C   0  0  1  0  0  0  0  0  0  0  0  0
   -0.6359   -2.2696    0.0000 C   0  0  0  0  0  0  0  0  0  0  0  0
   -0.8074   -1.4626    0.0000 O   0  0  0  0  0  0  0  0  0  0  0  0
    0.2683   -4.0442    0.0000 C   0  0  0  0  0  0  0  0  0  0  0  0
    0.8203   -4.6573    0.0000 O   0  0  0  0  0  0  0  0  0  0  0  0
    4.0668   -1.5229    0.0000 N   0  0  0  0  0  0  0  0  0  0  0  0
   -0.3782   -0.6979    0.0000 H   0  0  0  0  0  0  0  0  0  0  0  0
    4.2049    0.2069    0.0000 H   0  0  0  0  0  0  0  0  0  0  0  0
    1.9505   -2.0661    0.0000 H   0  0  0  0  0  0  0  0  0  0  0  0
    2.2759   -3.2158    0.0000 H   0  0  0  0  0  0  0  0  0  0  0  0
    1.3422   -3.9518    0.0000 H   0  0  0  0  0  0  0  0  0  0  0  0
    1.3368   -3.9545    0.0000 H   0  0  0  0  0  0  0  0  0  0  0  0
   -0.5462   -3.3381    0.0000 H   0  0  0  0  0  0  0  0  0  0  0  0
   -1.4311   -2.9856    0.0000 H   0  0  0  0  0  0  0  0  0  0  0  0
   -1.6535   -1.9389    0.0000 H   0  0  0  0  0  0  0  0  0  0  0  0
   -0.0865   -0.8136    0.0000 H   0  0  0  0  0  0  0  0  0  0  0  0
   -0.7783   -4.2667    0.0000 H   0  0  0  0  0  0  0  0  0  0  0  0
   -0.0624   -5.0618    0.0000 H   0  0  0  0  0  0  0  0  0  0  0  0
    0.5205   -5.5798    0.0000 H   0  0  0  0  0  0  0  0  0  0  0  0
    4.0668   -2.5074    0.0000 H   0  0  0  0  0  0  0  0  0  0  0  0
    4.9194   -1.0306    0.0000 H   0  0  0  0  0  0  0  0  0  0  0  0
  1  2  2  0  0  0  0
  1 10  1  0  0  0  0
  1 20  1  0  0  0  0
  2  3  1  0  0  0  0
  3  4  1  0  0  0  0
  3  9  2  0  0  0  0
  4  5  2  0  0  0  0
  4  6  1  0  0  0  0
  6  7  1  0  0  0  0
  6 21  1  0  0  0  0
  7  8  2  0  0  0  0
  7 19  1  0  0  0  0
  8  9  1  0  0  0  0
  9 10  1  0  0  0  0
 11 10  1  0  0  0  0
 11 12  1  0  0  0  0
 11 14  1  0  0  0  0
 11 22  1  1  0  0  0
 12 13  1  0  0  0  0
 12 23  1  0  0  0  0
 12 24  1  0  0  0  0
 13 14  1  0  0  0  0
 13 17  1  0  0  0  0
 13 25  1  1  0  0  0
 14 15  1  0  0  0  0
 14 26  1  6  0  0  0
 15 16  1  0  0  0  0
 15 27  1  0  0  0  0
 15 28  1  0  0  0  0
 16 29  1  0  0  0  0
 17 18  1  0  0  0  0
 17 30  1  0  0  0  0
 17 31  1  0  0  0  0
 18 32  1  0  0  0  0
 19 33  1  0  0  0  0
 19 34  1  0  0  0  0
M  END
>  <DRUGBANK_ID>
DB12531

>  <COMMON_NAME>
Lobucavir

>  <CAS_NUMBER>
127759-89-1

>  <UNII>
8U5PYQ1R2E

>  <SYNONYMS>
Lobucavir

$$$$
