
 OpenBabel10282417072D

 52 51  0  0  0  0  0  0  0  0999 V2000
    0.4319   -2.0443    0.0000 C   0  0  0  0  0  0  0  0  0  0  0  0
    0.0194   -1.3298    0.0000 C   0  0  0  0  0  0  0  0  0  0  0  0
    0.4319   -0.6153    0.0000 C   0  0  0  0  0  0  0  0  0  0  0  0
   -0.8056   -1.3298    0.0000 C   0  0  0  0  0  0  0  0  0  0  0  0
   -1.2181   -2.0443    0.0000 C   0  0  0  0  0  0  0  0  0  0  0  0
   -2.0431   -2.0443    0.0000 C   0  0  0  0  0  0  0  0  0  0  0  0
   -2.4556   -1.3298    0.0000 C   0  0  0  0  0  0  0  0  0  0  0  0
   -2.0431   -0.6153    0.0000 C   0  0  0  0  0  0  0  0  0  0  0  0
   -1.2181   -0.6153    0.0000 C   0  0  0  0  0  0  0  0  0  0  0  0
   -0.8056    0.0992    0.0000 N   0  0  0  0  0  0  0  0  0  0  0  0
    0.0194    0.0992    0.0000 C   0  0  0  0  0  0  0  0  0  0  0  0
    0.7730   -0.2364    0.0000 O   0  0  0  0  0  0  0  0  0  0  0  0
    0.4319    0.8136    0.0000 C   0  0  0  0  0  0  0  0  0  0  0  0
    1.2569    0.8136    0.0000 N   0  0  0  0  0  0  0  0  0  0  0  0
    1.6694    1.5281    0.0000 C   0  0  0  0  0  0  0  0  0  0  0  0
    1.2569    2.2426    0.0000 C   0  0  0  0  0  0  0  0  0  0  0  0
    0.4319    2.2426    0.0000 O   0  0  0  0  0  0  0  0  0  0  0  0
    1.6694    2.9570    0.0000 O   0  0  0  0  0  0  0  0  0  0  0  0
    1.6694    0.0992    0.0000 C   0  0  0  0  0  0  0  0  0  0  0  0
    2.4944    0.0992    0.0000 C   0  0  0  0  0  0  0  0  0  0  0  0
    2.9069    0.8136    0.0000 O   0  0  0  0  0  0  0  0  0  0  0  0
    2.9069   -0.6153    0.0000 O   0  0  0  0  0  0  0  0  0  0  0  0
   -2.4556    0.0992    0.0000 C   0  0  0  0  0  0  0  0  0  0  0  0
   -2.0431    0.8136    0.0000 C   0  0  0  0  0  0  0  0  0  0  0  0
   -3.2806    0.0992    0.0000 C   0  0  0  0  0  0  0  0  0  0  0  0
    5.3819    0.0000    0.0000 Tc  0  0  0  0  0  0  0  0  0  0  0  0
   -0.1031   -2.9709    0.0000 H   0  0  0  0  0  0  0  0  0  0  0  0
    1.5019   -2.0443    0.0000 H   0  0  0  0  0  0  0  0  0  0  0  0
    0.9669   -2.9710    0.0000 H   0  0  0  0  0  0  0  0  0  0  0  0
   -0.5156   -0.4032    0.0000 H   0  0  0  0  0  0  0  0  0  0  0  0
    1.5019   -0.6153    0.0000 H   0  0  0  0  0  0  0  0  0  0  0  0
   -0.1031    0.3113    0.0000 H   0  0  0  0  0  0  0  0  0  0  0  0
    0.9669    0.3114    0.0000 H   0  0  0  0  0  0  0  0  0  0  0  0
   -0.7021   -2.9380    0.0000 H   0  0  0  0  0  0  0  0  0  0  0  0
   -2.5591   -2.9380    0.0000 H   0  0  0  0  0  0  0  0  0  0  0  0
   -3.4876   -1.3298    0.0000 H   0  0  0  0  0  0  0  0  0  0  0  0
   -1.2979    0.9518    0.0000 H   0  0  0  0  0  0  0  0  0  0  0  0
   -0.1031    1.7403    0.0000 H   0  0  0  0  0  0  0  0  0  0  0  0
    0.9669    1.7402    0.0000 H   0  0  0  0  0  0  0  0  0  0  0  0
    2.7394    1.5281    0.0000 H   0  0  0  0  0  0  0  0  0  0  0  0
    2.2044    2.4547    0.0000 H   0  0  0  0  0  0  0  0  0  0  0  0
    2.6064    2.9570    0.0000 H   0  0  0  0  0  0  0  0  0  0  0  0
    1.1344   -0.8275    0.0000 H   0  0  0  0  0  0  0  0  0  0  0  0
    2.2044   -0.8274    0.0000 H   0  0  0  0  0  0  0  0  0  0  0  0
    2.4384   -1.4268    0.0000 H   0  0  0  0  0  0  0  0  0  0  0  0
   -2.9906    1.0259    0.0000 H   0  0  0  0  0  0  0  0  0  0  0  0
   -0.9731    0.8136    0.0000 H   0  0  0  0  0  0  0  0  0  0  0  0
   -2.5781    1.7403    0.0000 H   0  0  0  0  0  0  0  0  0  0  0  0
   -1.5081    1.7402    0.0000 H   0  0  0  0  0  0  0  0  0  0  0  0
   -3.8156    1.0258    0.0000 H   0  0  0  0  0  0  0  0  0  0  0  0
   -3.8156   -0.8274    0.0000 H   0  0  0  0  0  0  0  0  0  0  0  0
   -4.3506    0.0992    0.0000 H   0  0  0  0  0  0  0  0  0  0  0  0
  1  2  1  0  0  0  0
  1 27  1  0  0  0  0
  1 28  1  0  0  0  0
  1 29  1  0  0  0  0
  2  3  1  0  0  0  0
  2  4  1  0  0  0  0
  2 30  1  0  0  0  0
  3 31  1  0  0  0  0
  3 32  1  0  0  0  0
  3 33  1  0  0  0  0
  4  5  2  0  0  0  0
  4  9  1  0  0  0  0
  5  6  1  0  0  0  0
  5 34  1  0  0  0  0
  6  7  2  0  0  0  0
  6 35  1  0  0  0  0
  7  8  1  0  0  0  0
  7 36  1  0  0  0  0
  8  9  2  0  0  0  0
  8 23  1  0  0  0  0
  9 10  1  0  0  0  0
 10 11  1  0  0  0  0
 10 37  1  0  0  0  0
 11 12  2  0  0  0  0
 11 13  1  0  0  0  0
 13 14  1  0  0  0  0
 13 38  1  0  0  0  0
 13 39  1  0  0  0  0
 14 15  1  0  0  0  0
 14 19  1  0  0  0  0
 15 16  1  0  0  0  0
 15 40  1  0  0  0  0
 15 41  1  0  0  0  0
 16 17  2  0  0  0  0
 16 18  1  0  0  0  0
 18 42  1  0  0  0  0
 19 20  1  0  0  0  0
 19 43  1  0  0  0  0
 19 44  1  0  0  0  0
 20 21  2  0  0  0  0
 20 22  1  0  0  0  0
 22 45  1  0  0  0  0
 23 24  1  0  0  0  0
 23 25  1  0  0  0  0
 23 46  1  0  0  0  0
 24 47  1  0  0  0  0
 24 48  1  0  0  0  0
 24 49  1  0  0  0  0
 25 50  1  0  0  0  0
 25 51  1  0  0  0  0
 25 52  1  0  0  0  0
M  ISO  1  26  99
M  END
>  <DRUGBANK_ID>
DB09164

>  <COMMON_NAME>
Technetium Tc-99m disofenin

>  <UNII>
QTJ2VIW97T

>  <SYNONYMS>
99mTc-DISIDA; 99mTc-Disofenin; Technetium (99mTc) disofenin; Technetium Tc 99m Disofenin; Technetium-99m-Diisopropyliminodiacetic Acid

$$$$
