
 OpenBabel10282417072D

 39 38  0  0  0  0  0  0  0  0999 V2000
    0.5401    1.7150    0.0000 C   0  0  0  0  0  0  0  0  0  0  0  0
   -0.5401   -1.7150    0.0000 C   0  0  0  0  0  0  0  0  0  0  0  0
   -0.0000    1.0914    0.0000 C   0  0  0  0  0  0  0  0  0  0  0  0
    1.3502    1.5591    0.0000 C   0  0  0  0  0  0  0  0  0  0  0  0
   -1.3502   -1.5591    0.0000 C   0  0  0  0  0  0  0  0  0  0  0  0
    0.0000   -1.0914    0.0000 C   0  0  0  0  0  0  0  0  0  0  0  0
   -1.3502    0.6236    0.0000 C   0  0  0  0  0  0  0  0  0  0  0  0
    1.0802    0.1559    0.0000 C   0  0  0  0  0  0  0  0  0  0  0  0
   -1.0802   -0.1559    0.0000 C   0  0  0  0  0  0  0  0  0  0  0  0
    1.3502   -0.6236    0.0000 C   0  0  0  0  0  0  0  0  0  0  0  0
   -0.8101    1.2473    0.0000 N   0  0  0  0  0  0  0  0  0  0  0  0
    1.6203    0.7796    0.0000 N   0  0  0  0  0  0  0  0  0  0  0  0
   -1.6203   -0.7796    0.0000 N   0  0  0  0  0  0  0  0  0  0  0  0
    0.8101   -1.2473    0.0000 N   0  0  0  0  0  0  0  0  0  0  0  0
    3.7417    0.0000    0.0000 Cu  0  0  0  0  0  0  0  0  0  0  0  0
    0.1899    2.7261    0.0000 H   0  0  0  0  0  0  0  0  0  0  0  0
    1.2406    2.5238    0.0000 H   0  0  0  0  0  0  0  0  0  0  0  0
   -0.1899   -2.7261    0.0000 H   0  0  0  0  0  0  0  0  0  0  0  0
    0.5106   -1.9172    0.0000 H   0  0  0  0  0  0  0  0  0  0  0  0
    0.3502    0.0803    0.0000 H   0  0  0  0  0  0  0  0  0  0  0  0
   -0.7005    0.2826    0.0000 H   0  0  0  0  0  0  0  0  0  0  0  0
    2.0506    2.3680    0.0000 H   0  0  0  0  0  0  0  0  0  0  0  0
    2.4009    1.3570    0.0000 H   0  0  0  0  0  0  0  0  0  0  0  0
   -2.0506   -2.3680    0.0000 H   0  0  0  0  0  0  0  0  0  0  0  0
   -2.4009   -1.3570    0.0000 H   0  0  0  0  0  0  0  0  0  0  0  0
   -0.3502   -0.0803    0.0000 H   0  0  0  0  0  0  0  0  0  0  0  0
    0.7005   -0.2826    0.0000 H   0  0  0  0  0  0  0  0  0  0  0  0
   -2.4009    0.8258    0.0000 H   0  0  0  0  0  0  0  0  0  0  0  0
   -1.7005    1.6346    0.0000 H   0  0  0  0  0  0  0  0  0  0  0  0
    0.0295    0.3581    0.0000 H   0  0  0  0  0  0  0  0  0  0  0  0
    0.7299    1.1669    0.0000 H   0  0  0  0  0  0  0  0  0  0  0  0
   -0.0295   -0.3581    0.0000 H   0  0  0  0  0  0  0  0  0  0  0  0
   -0.7299   -1.1669    0.0000 H   0  0  0  0  0  0  0  0  0  0  0  0
    2.4009   -0.8258    0.0000 H   0  0  0  0  0  0  0  0  0  0  0  0
    1.7005   -1.6346    0.0000 H   0  0  0  0  0  0  0  0  0  0  0  0
   -1.1440    2.2111    0.0000 H   0  0  0  0  0  0  0  0  0  0  0  0
    2.6219    0.5869    0.0000 H   0  0  0  0  0  0  0  0  0  0  0  0
   -2.6219   -0.5869    0.0000 H   0  0  0  0  0  0  0  0  0  0  0  0
    1.1440   -2.2111    0.0000 H   0  0  0  0  0  0  0  0  0  0  0  0
  1 16  1  0  0  0  0
  1 17  1  0  0  0  0
  2 18  1  0  0  0  0
  2 19  1  0  0  0  0
  3  1  1  0  0  0  0
  3 20  1  0  0  0  0
  3 21  1  0  0  0  0
  4  1  1  0  0  0  0
  4 22  1  0  0  0  0
  4 23  1  0  0  0  0
  5  2  1  0  0  0  0
  5 24  1  0  0  0  0
  5 25  1  0  0  0  0
  6  2  1  0  0  0  0
  6 26  1  0  0  0  0
  6 27  1  0  0  0  0
  7 28  1  0  0  0  0
  7 29  1  0  0  0  0
  8 30  1  0  0  0  0
  8 31  1  0  0  0  0
  9  7  1  0  0  0  0
  9 32  1  0  0  0  0
  9 33  1  0  0  0  0
 10  8  1  0  0  0  0
 10 34  1  0  0  0  0
 10 35  1  0  0  0  0
 11  3  1  0  0  0  0
 11  7  1  0  0  0  0
 11 36  1  0  0  0  0
 12  4  1  0  0  0  0
 12  8  1  0  0  0  0
 12 37  1  0  0  0  0
 13  5  1  0  0  0  0
 13  9  1  0  0  0  0
 13 38  1  0  0  0  0
 14  6  1  0  0  0  0
 14 10  1  0  0  0  0
 14 39  1  0  0  0  0
M  END
>  <DRUGBANK_ID>
DB03189

>  <SECONDARY_ACCESSION_NUMBERS>
EXPT02191

>  <COMMON_NAME>
Cu-Cyclam

$$$$
