
 OpenBabel10282417072D

107111  0  0  1  0  0  0  0  0999 V2000
   -0.7693   -0.4031    0.0000 H   0  0  0  0  0  0  0  0  0  0  0  0
   -0.0224   -0.0526    0.0000 C   0  0  2  0  0  0  0  0  0  0  0  0
    0.6961    0.3525    0.0000 C   0  0  0  0  0  0  0  0  0  0  0  0
    1.4064   -0.0671    0.0000 C   0  0  2  0  0  0  0  0  0  0  0  0
    2.1460   -0.4325    0.0000 H   0  0  0  0  0  0  0  0  0  0  0  0
    2.0566    0.4407    0.0000 O   0  0  0  0  0  0  0  0  0  0  0  0
    2.8590    0.2489    0.0000 C   0  0  2  0  0  0  0  0  0  0  0  0
    3.6840    0.2406    0.0000 H   0  0  0  0  0  0  0  0  0  0  0  0
    3.2244    0.9886    0.0000 C   0  0  0  0  0  0  0  0  0  0  0  0
    4.0306    1.1640    0.0000 C   0  0  0  0  0  0  0  0  0  0  0  0
    4.6703    0.6432    0.0000 C   0  0  2  0  0  0  0  0  0  0  0  0
    5.0358    1.3828    0.0000 C   0  0  0  0  0  0  0  0  0  0  0  0
    5.4728    0.4515    0.0000 O   0  0  0  0  0  0  0  0  0  0  0  0
    4.6620   -0.1817    0.0000 C   0  0  1  0  0  0  0  0  0  0  0  0
    5.4017   -0.5472    0.0000 C   0  0  0  0  0  0  0  0  0  0  0  0
    6.0880   -0.0893    0.0000 C   0  0  0  0  0  0  0  0  0  0  0  0
    6.8276   -0.4547    0.0000 C   0  0  0  0  0  0  0  0  0  0  0  0
    7.5139    0.0030    0.0000 C   0  0  0  0  0  0  0  0  0  0  0  0
    7.4606    0.8263    0.0000 C   0  0  0  0  0  0  0  0  0  0  0  0
    8.1469    1.2841    0.0000 C   0  0  0  0  0  0  0  0  0  0  0  0
    4.0118   -0.6895    0.0000 O   0  0  0  0  0  0  0  0  0  0  0  0
    3.2094   -0.4978    0.0000 C   0  0  1  0  0  0  0  0  0  0  0  0
    2.3845   -0.4895    0.0000 H   0  0  0  0  0  0  0  0  0  0  0  0
    2.8440   -1.2375    0.0000 C   0  0  0  0  0  0  0  0  0  0  0  0
    2.0378   -1.4129    0.0000 C   0  0  0  0  0  0  0  0  0  0  0  0
    1.3981   -0.8920    0.0000 C   0  0  2  0  0  0  0  0  0  0  0  0
    1.3281   -1.7141    0.0000 C   0  0  0  0  0  0  0  0  0  0  0  0
    0.6795   -1.2973    0.0000 O   0  0  0  0  0  0  0  0  0  0  0  0
   -0.0307   -0.8776    0.0000 C   0  0  1  0  0  0  0  0  0  0  0  0
    0.6878   -0.4724    0.0000 H   0  0  0  0  0  0  0  0  0  0  0  0
   -0.6809   -1.3854    0.0000 C   0  0  1  0  0  0  0  0  0  0  0  0
   -0.5055   -2.1916    0.0000 O   0  0  0  0  0  0  0  0  0  0  0  0
   -1.4833   -1.1938    0.0000 C   0  0  0  0  0  0  0  0  0  0  0  0
   -1.8338   -0.4469    0.0000 C   0  0  1  0  0  0  0  0  0  0  0  0
   -2.2534   -1.1571    0.0000 C   0  0  0  0  0  0  0  0  0  0  0  0
   -2.6570   -0.5002    0.0000 O   0  0  0  0  0  0  0  0  0  0  0  0
   -3.1149    0.1860    0.0000 C   0  0  1  0  0  0  0  0  0  0  0  0
   -3.9381    0.1327    0.0000 C   0  0  0  0  0  0  0  0  0  0  0  0
   -4.3960    0.8190    0.0000 C   0  0  0  0  0  0  0  0  0  0  0  0
   -5.2192    0.7656    0.0000 C   0  0  0  0  0  0  0  0  0  0  0  0
   -5.6771    1.4519    0.0000 C   0  0  0  0  0  0  0  0  0  0  0  0
   -5.3116    2.1916    0.0000 C   0  0  0  0  0  0  0  0  0  0  0  0
   -6.5003    1.3986    0.0000 C   0  0  0  0  0  0  0  0  0  0  0  0
   -6.8658    0.6590    0.0000 C   0  0  0  0  0  0  0  0  0  0  0  0
   -6.9581    2.0849    0.0000 C   0  0  0  0  0  0  0  0  0  0  0  0
   -7.7814    2.0316    0.0000 C   0  0  0  0  0  0  0  0  0  0  0  0
   -8.1469    1.2920    0.0000 O   0  0  0  0  0  0  0  0  0  0  0  0
   -2.7494    0.9256    0.0000 C   0  0  1  0  0  0  0  0  0  0  0  0
   -3.2072    1.6119    0.0000 C   0  0  0  0  0  0  0  0  0  0  0  0
   -1.9261    0.9790    0.0000 C   0  0  0  0  0  0  0  0  0  0  0  0
   -1.4683    0.2927    0.0000 C   0  0  2  0  0  0  0  0  0  0  0  0
   -0.9605   -0.3574    0.0000 H   0  0  0  0  0  0  0  0  0  0  0  0
   -0.6621    0.4681    0.0000 O   0  0  0  0  0  0  0  0  0  0  0  0
    0.7069    1.4224    0.0000 H   0  0  0  0  0  0  0  0  0  0  0  0
    1.6281    0.8782    0.0000 H   0  0  0  0  0  0  0  0  0  0  0  0
    2.5657    1.8319    0.0000 H   0  0  0  0  0  0  0  0  0  0  0  0
    3.5880    1.9949    0.0000 H   0  0  0  0  0  0  0  0  0  0  0  0
    4.2793    2.2047    0.0000 H   0  0  0  0  0  0  0  0  0  0  0  0
    5.0441    1.5072    0.0000 H   0  0  0  0  0  0  0  0  0  0  0  0
    6.1036    1.4519    0.0000 H   0  0  0  0  0  0  0  0  0  0  0  0
    4.4421    2.2730    0.0000 H   0  0  0  0  0  0  0  0  0  0  0  0
    5.5099    2.3421    0.0000 H   0  0  0  0  0  0  0  0  0  0  0  0
    5.7494   -0.4782    0.0000 H   0  0  0  0  0  0  0  0  0  0  0  0
    5.5737    0.3784    0.0000 H   0  0  0  0  0  0  0  0  0  0  0  0
    5.4709   -1.6150    0.0000 H   0  0  0  0  0  0  0  0  0  0  0  0
    6.3610   -1.0211    0.0000 H   0  0  0  0  0  0  0  0  0  0  0  0
    6.0188    0.9785    0.0000 H   0  0  0  0  0  0  0  0  0  0  0  0
    6.9781    0.5045    0.0000 H   0  0  0  0  0  0  0  0  0  0  0  0
    6.8943   -1.4845    0.0000 H   0  0  0  0  0  0  0  0  0  0  0  0
    8.4391   -0.4542    0.0000 H   0  0  0  0  0  0  0  0  0  0  0  0
    6.5354    1.2835    0.0000 H   0  0  0  0  0  0  0  0  0  0  0  0
    9.0721    0.8269    0.0000 H   0  0  0  0  0  0  0  0  0  0  0  0
    8.0802    2.3139    0.0000 H   0  0  0  0  0  0  0  0  0  0  0  0
    3.5027   -2.0808    0.0000 H   0  0  0  0  0  0  0  0  0  0  0  0
    2.4804   -2.2438    0.0000 H   0  0  0  0  0  0  0  0  0  0  0  0
    1.7891   -2.4536    0.0000 H   0  0  0  0  0  0  0  0  0  0  0  0
    1.0243   -1.7560    0.0000 H   0  0  0  0  0  0  0  0  0  0  0  0
    0.3594   -2.1686    0.0000 H   0  0  0  0  0  0  0  0  0  0  0  0
    2.2060   -2.3258    0.0000 H   0  0  0  0  0  0  0  0  0  0  0  0
    1.2373   -2.7802    0.0000 H   0  0  0  0  0  0  0  0  0  0  0  0
    0.3254   -1.7490    0.0000 H   0  0  0  0  0  0  0  0  0  0  0  0
   -1.2232   -2.8441    0.0000 H   0  0  0  0  0  0  0  0  0  0  0  0
   -2.1588   -2.0236    0.0000 H   0  0  0  0  0  0  0  0  0  0  0  0
   -2.5453   -1.0633    0.0000 H   0  0  0  0  0  0  0  0  0  0  0  0
   -3.3233   -1.1464    0.0000 H   0  0  0  0  0  0  0  0  0  0  0  0
   -1.7277   -2.0891    0.0000 H   0  0  0  0  0  0  0  0  0  0  0  0
   -2.7977   -2.0783    0.0000 H   0  0  0  0  0  0  0  0  0  0  0  0
   -3.5888   -0.7733    0.0000 H   0  0  0  0  0  0  0  0  0  0  0  0
   -4.4121   -0.8266    0.0000 H   0  0  0  0  0  0  0  0  0  0  0  0
   -5.0059    0.0635    0.0000 H   0  0  0  0  0  0  0  0  0  0  0  0
   -3.9221    1.7783    0.0000 H   0  0  0  0  0  0  0  0  0  0  0  0
   -4.9899    1.7091    0.0000 H   0  0  0  0  0  0  0  0  0  0  0  0
   -5.6763   -0.1597    0.0000 H   0  0  0  0  0  0  0  0  0  0  0  0
   -4.2438    2.2607    0.0000 H   0  0  0  0  0  0  0  0  0  0  0  0
   -5.9054    3.0817    0.0000 H   0  0  0  0  0  0  0  0  0  0  0  0
   -4.8376    3.1509    0.0000 H   0  0  0  0  0  0  0  0  0  0  0  0
   -7.9336    0.5899    0.0000 H   0  0  0  0  0  0  0  0  0  0  0  0
   -6.2721   -0.2312    0.0000 H   0  0  0  0  0  0  0  0  0  0  0  0
   -7.3399   -0.3003    0.0000 H   0  0  0  0  0  0  0  0  0  0  0  0
   -6.5009    3.0101    0.0000 H   0  0  0  0  0  0  0  0  0  0  0  0
   -8.3540    2.8901    0.0000 H   0  0  0  0  0  0  0  0  0  0  0  0
   -3.8172    0.8565    0.0000 H   0  0  0  0  0  0  0  0  0  0  0  0
   -2.7332    2.5712    0.0000 H   0  0  0  0  0  0  0  0  0  0  0  0
   -4.2750    1.5427    0.0000 H   0  0  0  0  0  0  0  0  0  0  0  0
   -3.8010    2.5020    0.0000 H   0  0  0  0  0  0  0  0  0  0  0  0
   -1.4522    1.9383    0.0000 H   0  0  0  0  0  0  0  0  0  0  0  0
   -0.8583    1.0482    0.0000 H   0  0  0  0  0  0  0  0  0  0  0  0
  2  1  1  1  0  0  0
  2  3  1  0  0  0  0
  2 53  1  0  0  0  0
  3 54  1  0  0  0  0
  3 55  1  0  0  0  0
  4  3  1  0  0  0  0
  4  5  1  1  0  0  0
  4  6  1  0  0  0  0
  4 26  1  0  0  0  0
  7  6  1  0  0  0  0
  7  8  1  1  0  0  0
  7  9  1  0  0  0  0
  7 22  1  0  0  0  0
  9 10  1  0  0  0  0
  9 56  1  0  0  0  0
  9 57  1  0  0  0  0
 10 58  1  0  0  0  0
 10 59  1  0  0  0  0
 11 10  1  0  0  0  0
 11 12  1  0  0  0  0
 11 13  1  6  0  0  0
 11 14  1  0  0  0  0
 12 60  1  0  0  0  0
 12 61  1  0  0  0  0
 12 62  1  0  0  0  0
 13 63  1  0  0  0  0
 14 15  1  0  0  0  0
 14 21  1  0  0  0  0
 14 64  1  6  0  0  0
 15 16  1  0  0  0  0
 15 65  1  0  0  0  0
 15 66  1  0  0  0  0
 16 17  1  0  0  0  0
 16 67  1  0  0  0  0
 16 68  1  0  0  0  0
 17 18  2  0  0  0  0
 17 69  1  0  0  0  0
 18 19  1  0  0  0  0
 18 70  1  0  0  0  0
 19 20  2  0  0  0  0
 19 71  1  0  0  0  0
 20 72  1  0  0  0  0
 20 73  1  0  0  0  0
 22 21  1  0  0  0  0
 22 23  1  6  0  0  0
 22 24  1  0  0  0  0
 24 25  1  0  0  0  0
 24 74  1  0  0  0  0
 24 75  1  0  0  0  0
 25 76  1  0  0  0  0
 25 77  1  0  0  0  0
 26 25  1  0  0  0  0
 26 27  1  6  0  0  0
 26 28  1  0  0  0  0
 27 78  1  0  0  0  0
 27 79  1  0  0  0  0
 27 80  1  0  0  0  0
 29 28  1  0  0  0  0
 29  2  1  0  0  0  0
 29 30  1  6  0  0  0
 29 31  1  0  0  0  0
 31 32  1  0  0  0  0
 31 33  1  0  0  0  0
 31 81  1  6  0  0  0
 32 82  1  0  0  0  0
 33 83  1  0  0  0  0
 33 84  1  0  0  0  0
 34 33  1  0  0  0  0
 34 35  1  6  0  0  0
 34 36  1  0  0  0  0
 34 51  1  0  0  0  0
 35 85  1  0  0  0  0
 35 86  1  0  0  0  0
 35 87  1  0  0  0  0
 37 36  1  0  0  0  0
 37 38  1  0  0  0  0
 37 48  1  0  0  0  0
 37 88  1  6  0  0  0
 38 39  1  0  0  0  0
 38 89  1  0  0  0  0
 38 90  1  0  0  0  0
 39 40  1  0  0  0  0
 39 91  1  0  0  0  0
 39 92  1  0  0  0  0
 40 41  2  0  0  0  0
 40 93  1  0  0  0  0
 41 42  1  0  0  0  0
 41 43  1  0  0  0  0
 42 94  1  0  0  0  0
 42 95  1  0  0  0  0
 42 96  1  0  0  0  0
 43 44  1  0  0  0  0
 43 45  2  0  0  0  0
 44 97  1  0  0  0  0
 44 98  1  0  0  0  0
 44 99  1  0  0  0  0
 45 46  1  0  0  0  0
 45100  1  0  0  0  0
 46 47  2  0  0  0  0
 46101  1  0  0  0  0
 48 49  1  0  0  0  0
 48 50  1  0  0  0  0
 48102  1  6  0  0  0
 49103  1  0  0  0  0
 49104  1  0  0  0  0
 49105  1  0  0  0  0
 50106  1  0  0  0  0
 50107  1  0  0  0  0
 51 50  1  0  0  0  0
 51 52  1  1  0  0  0
 51 53  1  0  0  0  0
M  END
>  <DRUGBANK_ID>
DB17865

>  <COMMON_NAME>
Brevenal

>  <CAS_NUMBER>
776331-34-1

>  <UNII>
ECX1L89MFR

>  <SYNONYMS>
(-)-brevenal; 2,4-HEPTADIENAL, 7-((2S,3S,4AS,5AR,6AS,7AR,10S,11R,12AS,14AR,15AS,16S,17AR)-11-(3Z)-3,5-HEXADIEN-1-YLEICOSAHYDRO-10,16-DIHYDROXY-3,10,14A,17A-TETRAMETHYLOXEPINO(3,2-B)PYRANO(2'',3'':6',7')OXEPINO(2',3':5,6)PYRANO(2,3-F)OXEPIN-2-YL)-3,4-DIMETHYL-, (2E,4E)-

$$$$
