
 OpenBabel10282417072D

 59 61  0  0  0  0  0  0  0  0999 V2000
    7.8592   -2.8875    0.0000 O   0  0  0  0  0  0  0  0  0  0  0  0
    8.5737   -3.3000    0.0000 N   0  0  0  0  0  0  0  0  0  0  0  0
    9.2881   -2.8875    0.0000 C   0  0  0  0  0  0  0  0  0  0  0  0
    9.2881   -2.0625    0.0000 O   0  0  0  0  0  0  0  0  0  0  0  0
   10.0026   -3.3000    0.0000 C   0  0  0  0  0  0  0  0  0  0  0  0
   10.7171   -2.8875    0.0000 C   0  0  0  0  0  0  0  0  0  0  0  0
   11.4315   -3.3000    0.0000 C   0  0  0  0  0  0  0  0  0  0  0  0
   12.1460   -2.8875    0.0000 C   0  0  0  0  0  0  0  0  0  0  0  0
   12.8605   -3.3000    0.0000 C   0  0  0  0  0  0  0  0  0  0  0  0
   13.5749   -2.8875    0.0000 C   0  0  0  0  0  0  0  0  0  0  0  0
   14.2894   -3.3000    0.0000 N   0  0  0  0  0  0  0  0  0  0  0  0
   15.0039   -2.8875    0.0000 C   0  0  0  0  0  0  0  0  0  0  0  0
   15.0039   -2.0625    0.0000 O   0  0  0  0  0  0  0  0  0  0  0  0
   15.7184   -3.3000    0.0000 C   0  0  0  0  0  0  0  0  0  0  0  0
   16.4328   -2.8875    0.0000 C   0  0  0  0  0  0  0  0  0  0  0  0
   17.1473   -3.3000    0.0000 N   0  0  0  0  0  0  0  0  0  0  0  0
   17.1473   -4.1250    0.0000 C   0  0  0  0  0  0  0  0  0  0  0  0
   16.4328   -4.5375    0.0000 N   0  0  0  0  0  0  0  0  0  0  0  0
   15.7184   -4.1250    0.0000 C   0  0  0  0  0  0  0  0  0  0  0  0
   17.8618   -4.5375    0.0000 N   0  0  0  0  0  0  0  0  0  0  0  0
   18.5762   -4.1250    0.0000 C   0  0  0  0  0  0  0  0  0  0  0  0
   18.5762   -3.3000    0.0000 C   0  0  0  0  0  0  0  0  0  0  0  0
   19.2907   -2.8875    0.0000 C   0  0  0  0  0  0  0  0  0  0  0  0
   20.0052   -3.3000    0.0000 C   0  0  0  0  0  0  0  0  0  0  0  0
   20.0052   -4.1250    0.0000 C   0  0  0  0  0  0  0  0  0  0  0  0
   19.2907   -4.5375    0.0000 C   0  0  0  0  0  0  0  0  0  0  0  0
   17.8618   -5.3625    0.0000 C   0  0  0  0  0  0  0  0  0  0  0  0
   18.5762   -5.7750    0.0000 C   0  0  0  0  0  0  0  0  0  0  0  0
   18.5762   -6.6000    0.0000 C   0  0  0  0  0  0  0  0  0  0  0  0
   17.8618   -7.0125    0.0000 C   0  0  0  0  0  0  0  0  0  0  0  0
   17.1473   -6.6000    0.0000 C   0  0  0  0  0  0  0  0  0  0  0  0
   17.1473   -5.7750    0.0000 C   0  0  0  0  0  0  0  0  0  0  0  0
   16.4328   -5.3625    0.0000 Cl  0  0  0  0  0  0  0  0  0  0  0  0
    7.8592   -1.9175    0.0000 H   0  0  0  0  0  0  0  0  0  0  0  0
    8.5737   -4.2845    0.0000 H   0  0  0  0  0  0  0  0  0  0  0  0
   10.0026   -4.3700    0.0000 H   0  0  0  0  0  0  0  0  0  0  0  0
   10.9292   -3.8350    0.0000 H   0  0  0  0  0  0  0  0  0  0  0  0
   10.7171   -1.8175    0.0000 H   0  0  0  0  0  0  0  0  0  0  0  0
   11.6438   -2.3525    0.0000 H   0  0  0  0  0  0  0  0  0  0  0  0
   11.4315   -4.3700    0.0000 H   0  0  0  0  0  0  0  0  0  0  0  0
   12.3581   -3.8350    0.0000 H   0  0  0  0  0  0  0  0  0  0  0  0
   12.1460   -1.8175    0.0000 H   0  0  0  0  0  0  0  0  0  0  0  0
   13.0726   -2.3525    0.0000 H   0  0  0  0  0  0  0  0  0  0  0  0
   12.8605   -4.3700    0.0000 H   0  0  0  0  0  0  0  0  0  0  0  0
   13.7872   -3.8350    0.0000 H   0  0  0  0  0  0  0  0  0  0  0  0
   13.5749   -1.8175    0.0000 H   0  0  0  0  0  0  0  0  0  0  0  0
   14.5015   -2.3525    0.0000 H   0  0  0  0  0  0  0  0  0  0  0  0
   14.2894   -4.2845    0.0000 H   0  0  0  0  0  0  0  0  0  0  0  0
   16.4328   -1.8555    0.0000 H   0  0  0  0  0  0  0  0  0  0  0  0
   14.8247   -4.6410    0.0000 H   0  0  0  0  0  0  0  0  0  0  0  0
   17.6825   -2.7840    0.0000 H   0  0  0  0  0  0  0  0  0  0  0  0
   19.2907   -1.8555    0.0000 H   0  0  0  0  0  0  0  0  0  0  0  0
   20.8989   -2.7840    0.0000 H   0  0  0  0  0  0  0  0  0  0  0  0
   20.8989   -4.6410    0.0000 H   0  0  0  0  0  0  0  0  0  0  0  0
   19.2907   -5.5695    0.0000 H   0  0  0  0  0  0  0  0  0  0  0  0
   19.4699   -5.2590    0.0000 H   0  0  0  0  0  0  0  0  0  0  0  0
   19.4699   -7.1160    0.0000 H   0  0  0  0  0  0  0  0  0  0  0  0
   17.8618   -8.0445    0.0000 H   0  0  0  0  0  0  0  0  0  0  0  0
   16.2536   -7.1160    0.0000 H   0  0  0  0  0  0  0  0  0  0  0  0
  1  2  1  0  0  0  0
  1 34  1  0  0  0  0
  2  3  1  0  0  0  0
  2 35  1  0  0  0  0
  3  4  2  0  0  0  0
  3  5  1  0  0  0  0
  5  6  1  0  0  0  0
  5 36  1  0  0  0  0
  5 37  1  0  0  0  0
  6  7  1  0  0  0  0
  6 38  1  0  0  0  0
  6 39  1  0  0  0  0
  7  8  1  0  0  0  0
  7 40  1  0  0  0  0
  7 41  1  0  0  0  0
  8  9  1  0  0  0  0
  8 42  1  0  0  0  0
  8 43  1  0  0  0  0
  9 10  1  0  0  0  0
  9 44  1  0  0  0  0
  9 45  1  0  0  0  0
 10 11  1  0  0  0  0
 10 46  1  0  0  0  0
 10 47  1  0  0  0  0
 11 12  1  0  0  0  0
 11 48  1  0  0  0  0
 12 13  2  0  0  0  0
 12 14  1  0  0  0  0
 14 15  2  0  0  0  0
 14 19  1  0  0  0  0
 15 16  1  0  0  0  0
 15 49  1  0  0  0  0
 16 17  2  0  0  0  0
 17 18  1  0  0  0  0
 17 20  1  0  0  0  0
 18 19  2  0  0  0  0
 19 50  1  0  0  0  0
 20 21  1  0  0  0  0
 20 27  1  0  0  0  0
 21 22  2  0  0  0  0
 21 26  1  0  0  0  0
 22 23  1  0  0  0  0
 22 51  1  0  0  0  0
 23 24  2  0  0  0  0
 23 52  1  0  0  0  0
 24 25  1  0  0  0  0
 24 53  1  0  0  0  0
 25 26  2  0  0  0  0
 25 54  1  0  0  0  0
 26 55  1  0  0  0  0
 27 28  2  0  0  0  0
 27 32  1  0  0  0  0
 28 29  1  0  0  0  0
 28 56  1  0  0  0  0
 29 30  2  0  0  0  0
 29 57  1  0  0  0  0
 30 31  1  0  0  0  0
 30 58  1  0  0  0  0
 31 32  2  0  0  0  0
 31 59  1  0  0  0  0
 32 33  1  0  0  0  0
M  END
>  <DRUGBANK_ID>
DB15449

>  <COMMON_NAME>
Citarinostat

>  <CAS_NUMBER>
1316215-12-9

>  <UNII>
441P620G3P

>  <SYNONYMS>
(2-((2-chlorophenyl)(phenyl)amino)-N-(7-(hydroxyamino)-7-oxoheptyl)pyrimidine-5-carboxamide); Citarinostat

$$$$
