
 OpenBabel10282417072D

 51 54  0  0  1  0  0  0  0  0999 V2000
    2.1265   -1.1368    0.0000 C   0  0  0  0  0  0  0  0  0  0  0  0
    2.6666   -0.5132    0.0000 O   0  0  0  0  0  0  0  0  0  0  0  0
    3.4767   -0.6691    0.0000 C   0  0  0  0  0  0  0  0  0  0  0  0
    3.7467   -1.4486    0.0000 C   0  0  0  0  0  0  0  0  0  0  0  0
    4.5569   -1.6046    0.0000 C   0  0  0  0  0  0  0  0  0  0  0  0
    5.0970   -0.9809    0.0000 C   0  0  0  0  0  0  0  0  0  0  0  0
    4.8269   -0.2014    0.0000 C   0  0  0  0  0  0  0  0  0  0  0  0
    4.0168   -0.0454    0.0000 C   0  0  0  0  0  0  0  0  0  0  0  0
    3.7467    0.7341    0.0000 O   0  0  0  0  0  0  0  0  0  0  0  0
    2.9366    0.8900    0.0000 C   0  0  0  0  0  0  0  0  0  0  0  0
    5.3670    0.4223    0.0000 C   0  0  0  0  0  0  0  0  0  0  0  0
    6.1771    0.2664    0.0000 N   0  0  3  0  0  0  0  0  0  0  0  0
    6.7172    0.8900    0.0000 C   0  0  0  0  0  0  0  0  0  0  0  0
    7.5274    0.7341    0.0000 C   0  0  0  0  0  0  0  0  0  0  0  0
    7.7974   -0.0454    0.0000 C   0  0  0  0  0  0  0  0  0  0  0  0
    8.6075   -0.2014    0.0000 C   0  0  0  0  0  0  0  0  0  0  0  0
    8.8776   -0.9809    0.0000 C   0  0  0  0  0  0  0  0  0  0  0  0
    8.3375   -1.6046    0.0000 C   0  0  0  0  0  0  0  0  0  0  0  0
    7.5274   -1.4486    0.0000 C   0  0  0  0  0  0  0  0  0  0  0  0
    7.2573   -0.6691    0.0000 C   0  0  0  0  0  0  0  0  0  0  0  0
    6.4472   -0.5132    0.0000 C   0  0  2  0  0  0  0  0  0  0  0  0
    5.9071   -1.1368    0.0000 C   0  0  0  0  0  0  0  0  0  0  0  0
    8.6075   -2.3841    0.0000 O   0  0  0  0  0  0  0  0  0  0  0  0
    8.0675   -3.0077    0.0000 C   0  0  0  0  0  0  0  0  0  0  0  0
    9.6877   -1.1368    0.0000 O   0  0  0  0  0  0  0  0  0  0  0  0
   10.2278   -0.5132    0.0000 C   0  0  0  0  0  0  0  0  0  0  0  0
    1.0758   -0.9345    0.0000 H   0  0  0  0  0  0  0  0  0  0  0  0
    2.4767   -2.1479    0.0000 H   0  0  0  0  0  0  0  0  0  0  0  0
    1.4260   -1.9456    0.0000 H   0  0  0  0  0  0  0  0  0  0  0  0
    3.0710   -2.2287    0.0000 H   0  0  0  0  0  0  0  0  0  0  0  0
    4.8947   -2.5798    0.0000 H   0  0  0  0  0  0  0  0  0  0  0  0
    2.5864    1.9011    0.0000 H   0  0  0  0  0  0  0  0  0  0  0  0
    2.2361    0.0812    0.0000 H   0  0  0  0  0  0  0  0  0  0  0  0
    1.8859    1.0922    0.0000 H   0  0  0  0  0  0  0  0  0  0  0  0
    5.0167    1.4333    0.0000 H   0  0  0  0  0  0  0  0  0  0  0  0
    6.0675    1.2312    0.0000 H   0  0  0  0  0  0  0  0  0  0  0  0
    6.3670    1.9011    0.0000 H   0  0  0  0  0  0  0  0  0  0  0  0
    7.4177    1.6989    0.0000 H   0  0  0  0  0  0  0  0  0  0  0  0
    8.2279    1.5429    0.0000 H   0  0  0  0  0  0  0  0  0  0  0  0
    8.5781    0.5319    0.0000 H   0  0  0  0  0  0  0  0  0  0  0  0
    9.2831    0.5787    0.0000 H   0  0  0  0  0  0  0  0  0  0  0  0
    6.8518   -2.2287    0.0000 H   0  0  0  0  0  0  0  0  0  0  0  0
    7.1477    0.2957    0.0000 H   0  0  0  0  0  0  0  0  0  0  0  0
    6.2573   -2.1479    0.0000 H   0  0  0  0  0  0  0  0  0  0  0  0
    5.2066   -1.9456    0.0000 H   0  0  0  0  0  0  0  0  0  0  0  0
    7.0168   -2.8055    0.0000 H   0  0  0  0  0  0  0  0  0  0  0  0
    8.4178   -4.0187    0.0000 H   0  0  0  0  0  0  0  0  0  0  0  0
    7.3671   -3.8166    0.0000 H   0  0  0  0  0  0  0  0  0  0  0  0
   11.2785   -0.7155    0.0000 H   0  0  0  0  0  0  0  0  0  0  0  0
    9.8776    0.4979    0.0000 H   0  0  0  0  0  0  0  0  0  0  0  0
   10.9283    0.2956    0.0000 H   0  0  0  0  0  0  0  0  0  0  0  0
  1  2  1  0  0  0  0
  1 27  1  0  0  0  0
  1 28  1  0  0  0  0
  1 29  1  0  0  0  0
  2  3  1  0  0  0  0
  3  4  2  0  0  0  0
  3  8  1  0  0  0  0
  4  5  1  0  0  0  0
  4 30  1  0  0  0  0
  5  6  2  0  0  0  0
  5 31  1  0  0  0  0
  6  7  1  0  0  0  0
  6 22  1  0  0  0  0
  7  8  2  0  0  0  0
  7 11  1  0  0  0  0
  8  9  1  0  0  0  0
  9 10  1  0  0  0  0
 10 32  1  0  0  0  0
 10 33  1  0  0  0  0
 10 34  1  0  0  0  0
 11 12  1  0  0  0  0
 11 35  1  0  0  0  0
 11 36  1  0  0  0  0
 12 13  1  0  0  0  0
 13 14  1  0  0  0  0
 13 37  1  0  0  0  0
 13 38  1  0  0  0  0
 14 15  1  0  0  0  0
 14 39  1  0  0  0  0
 14 40  1  0  0  0  0
 15 16  2  0  0  0  0
 15 20  1  0  0  0  0
 16 17  1  0  0  0  0
 16 41  1  0  0  0  0
 17 18  2  0  0  0  0
 17 25  1  0  0  0  0
 18 19  1  0  0  0  0
 18 23  1  0  0  0  0
 19 20  2  0  0  0  0
 19 42  1  0  0  0  0
 20 21  1  0  0  0  0
 21 12  1  0  0  0  0
 21 22  1  0  0  0  0
 21 43  1  1  0  0  0
 22 44  1  0  0  0  0
 22 45  1  0  0  0  0
 23 24  1  0  0  0  0
 24 46  1  0  0  0  0
 24 47  1  0  0  0  0
 24 48  1  0  0  0  0
 25 26  1  0  0  0  0
 26 49  1  0  0  0  0
 26 50  1  0  0  0  0
 26 51  1  0  0  0  0
M  END
>  <DRUGBANK_ID>
DB12093

>  <COMMON_NAME>
Tetrahydropalmatine

>  <CAS_NUMBER>
483-14-7

>  <UNII>
3X69CO5I79

$$$$
