
 OpenBabel10282417072D

 19 20  0  0  0  0  0  0  0  0999 V2000
    1.3222    4.7652    0.0000 N   0  0  0  0  0  0  0  0  0  0  0  0
    2.0367    4.3527    0.0000 C   0  0  0  0  0  0  0  0  0  0  0  0
    2.7512    4.7652    0.0000 N   0  0  0  0  0  0  0  0  0  0  0  0
    3.4656    4.3527    0.0000 C   0  0  0  0  0  0  0  0  0  0  0  0
    3.4656    3.5277    0.0000 C   0  0  0  0  0  0  0  0  0  0  0  0
    2.7512    3.1152    0.0000 C   0  0  0  0  0  0  0  0  0  0  0  0
    2.0367    3.5277    0.0000 N   0  0  0  0  0  0  0  0  0  0  0  0
    2.7512    2.2902    0.0000 C   0  0  0  0  0  0  0  0  0  0  0  0
    3.4186    1.8053    0.0000 C   0  0  0  0  0  0  0  0  0  0  0  0
    4.2032    2.0602    0.0000 Cl  0  0  0  0  0  0  0  0  0  0  0  0
    3.1637    1.0206    0.0000 S   0  0  0  0  0  0  0  0  0  0  0  0
    2.3387    1.0206    0.0000 C   0  0  0  0  0  0  0  0  0  0  0  0
    1.8538    0.3532    0.0000 Cl  0  0  0  0  0  0  0  0  0  0  0  0
    2.0837    1.8053    0.0000 C   0  0  0  0  0  0  0  0  0  0  0  0
    1.3222    5.7497    0.0000 H   0  0  0  0  0  0  0  0  0  0  0  0
    0.4696    4.2729    0.0000 H   0  0  0  0  0  0  0  0  0  0  0  0
    4.3593    4.8687    0.0000 H   0  0  0  0  0  0  0  0  0  0  0  0
    4.3593    3.0117    0.0000 H   0  0  0  0  0  0  0  0  0  0  0  0
    1.1022    2.1242    0.0000 H   0  0  0  0  0  0  0  0  0  0  0  0
  1  2  1  0  0  0  0
  1 15  1  0  0  0  0
  1 16  1  0  0  0  0
  2  3  2  0  0  0  0
  2  7  1  0  0  0  0
  3  4  1  0  0  0  0
  4  5  2  0  0  0  0
  4 17  1  0  0  0  0
  5  6  1  0  0  0  0
  5 18  1  0  0  0  0
  6  7  2  0  0  0  0
  6  8  1  0  0  0  0
  8  9  2  0  0  0  0
  8 14  1  0  0  0  0
  9 10  1  0  0  0  0
  9 11  1  0  0  0  0
 11 12  1  0  0  0  0
 12 13  1  0  0  0  0
 12 14  2  0  0  0  0
 14 19  1  0  0  0  0
M  END
>  <DRUGBANK_ID>
DB03019

>  <SECONDARY_ACCESSION_NUMBERS>
EXPT00924

>  <COMMON_NAME>
4-(2,5-Dichloro-Thiophen-3-Yl)-Pyrimidin-2-Ylamine

$$$$
