
 OpenBabel10282417072D

 83 85  0  0  0  0  0  0  0  0999 V2000
   -2.5353    2.2702    0.0000 S   0  0  0  0  0  0  0  0  0  0  0  0
   -2.5353    1.4452    0.0000 S   0  0  0  0  0  0  0  0  0  0  0  0
   -1.1064    1.4452    0.0000 C   0  0  0  0  0  0  0  0  0  0  0  0
   -1.1064    2.2702    0.0000 C   0  0  1  0  0  0  0  0  0  0  0  0
   -1.8209    2.6827    0.0000 C   0  0  0  0  0  0  0  0  0  0  0  0
   -3.2498    0.2078    0.0000 C   0  0  1  0  0  0  0  0  0  0  0  0
   -2.5353   -0.2871    0.0000 N   0  0  0  0  0  0  0  0  0  0  0  0
   -1.1064   -0.2046    0.0000 C   0  0  0  0  0  0  0  0  0  0  0  0
   -0.3918    0.2078    0.0000 C   0  0  0  0  0  0  0  0  0  0  0  0
   -0.3918    1.0328    0.0000 N   0  0  0  0  0  0  0  0  0  0  0  0
   -2.5353   -1.0296    0.0000 C   0  0  0  0  0  0  0  0  0  0  0  0
   -1.8208   -1.4421    0.0000 C   0  0  1  0  0  0  0  0  0  0  0  0
   -1.1064   -1.0296    0.0000 N   0  0  0  0  0  0  0  0  0  0  0  0
   -1.8097    0.2014    0.0000 O   0  0  0  0  0  0  0  0  0  0  0  0
   -1.8097    1.0390    0.0000 O   0  0  0  0  0  0  0  0  0  0  0  0
   -0.3770    2.6827    0.0000 N   0  0  0  0  0  0  0  0  0  0  0  0
    0.3373    2.2702    0.0000 C   0  0  0  0  0  0  0  0  0  0  0  0
    1.0518    2.6827    0.0000 C   0  0  2  0  0  0  0  0  0  0  0  0
    1.7661    2.2702    0.0000 C   0  0  0  0  0  0  0  0  0  0  0  0
    2.4808    2.6827    0.0000 C   0  0  0  0  0  0  0  0  0  0  0  0
    3.2074    2.2631    0.0000 C   0  0  0  0  0  0  0  0  0  0  0  0
    3.9219    2.6754    0.0000 C   0  0  0  0  0  0  0  0  0  0  0  0
    3.9221    3.5004    0.0000 C   0  0  0  0  0  0  0  0  0  0  0  0
    3.1954    3.9201    0.0000 C   0  0  0  0  0  0  0  0  0  0  0  0
    2.4808    3.5077    0.0000 C   0  0  0  0  0  0  0  0  0  0  0  0
    1.0518    3.5077    0.0000 N   0  0  0  0  0  0  0  0  0  0  0  0
    0.3373    1.5691    0.0000 O   0  0  0  0  0  0  0  0  0  0  0  0
   -1.4083    3.3972    0.0000 C   0  0  0  0  0  0  0  0  0  0  0  0
   -2.2333    3.3972    0.0000 C   0  0  0  0  0  0  0  0  0  0  0  0
   -3.9542   -0.1990    0.0000 C   0  0  0  0  0  0  0  0  0  0  0  0
   -4.6539    0.2048    0.0000 O   0  0  0  0  0  0  0  0  0  0  0  0
   -3.9543   -1.0295    0.0000 O   0  0  0  0  0  0  0  0  0  0  0  0
   -3.2498   -1.4421    0.0000 O   0  0  0  0  0  0  0  0  0  0  0  0
    4.6538    3.9228    0.0000 O   0  0  0  0  0  0  0  0  0  0  0  0
   -1.8208   -2.2670    0.0000 C   0  0  0  0  0  0  0  0  0  0  0  0
   -2.5452   -2.6854    0.0000 C   0  0  0  0  0  0  0  0  0  0  0  0
   -3.2546   -2.2758    0.0000 C   0  0  0  0  0  0  0  0  0  0  0  0
   -3.9691   -2.6881    0.0000 C   0  0  0  0  0  0  0  0  0  0  0  0
   -3.9691   -3.5131    0.0000 C   0  0  0  0  0  0  0  0  0  0  0  0
   -3.2597   -3.9228    0.0000 C   0  0  0  0  0  0  0  0  0  0  0  0
   -2.5452   -3.5104    0.0000 C   0  0  0  0  0  0  0  0  0  0  0  0
   -3.6622    1.7472    0.0000 C   0  0  0  0  0  0  0  0  0  0  0  0
   -4.0747    1.0328    0.0000 C   0  0  0  0  0  0  0  0  0  0  0  0
   -3.2498    1.0328    0.0000 C   0  0  0  0  0  0  0  0  0  0  0  0
   -0.1821    1.7311    0.0000 H   0  0  0  0  0  0  0  0  0  0  0  0
   -4.1765    0.7427    0.0000 H   0  0  0  0  0  0  0  0  0  0  0  0
   -1.6632    0.1697    0.0000 H   0  0  0  0  0  0  0  0  0  0  0  0
    0.5348   -0.3273    0.0000 H   0  0  0  0  0  0  0  0  0  0  0  0
    0.5349    0.7428    0.0000 H   0  0  0  0  0  0  0  0  0  0  0  0
    0.4608    1.5251    0.0000 H   0  0  0  0  0  0  0  0  0  0  0  0
   -2.7474   -1.9771    0.0000 H   0  0  0  0  0  0  0  0  0  0  0  0
   -0.2538   -1.5218    0.0000 H   0  0  0  0  0  0  0  0  0  0  0  0
   -0.3726    3.6672    0.0000 H   0  0  0  0  0  0  0  0  0  0  0  0
    0.1252    3.2177    0.0000 H   0  0  0  0  0  0  0  0  0  0  0  0
    1.7660    1.2002    0.0000 H   0  0  0  0  0  0  0  0  0  0  0  0
    2.6927    1.7351    0.0000 H   0  0  0  0  0  0  0  0  0  0  0  0
    3.2072    1.2311    0.0000 H   0  0  0  0  0  0  0  0  0  0  0  0
    4.8155    2.1592    0.0000 H   0  0  0  0  0  0  0  0  0  0  0  0
    3.1956    4.9521    0.0000 H   0  0  0  0  0  0  0  0  0  0  0  0
    1.5871    4.0238    0.0000 H   0  0  0  0  0  0  0  0  0  0  0  0
    1.9351    4.0177    0.0000 H   0  0  0  0  0  0  0  0  0  0  0  0
    0.1685    4.0177    0.0000 H   0  0  0  0  0  0  0  0  0  0  0  0
   -0.3383    3.3971    0.0000 H   0  0  0  0  0  0  0  0  0  0  0  0
   -1.9432    4.3239    0.0000 H   0  0  0  0  0  0  0  0  0  0  0  0
   -0.8732    4.3238    0.0000 H   0  0  0  0  0  0  0  0  0  0  0  0
   -1.6982    4.3238    0.0000 H   0  0  0  0  0  0  0  0  0  0  0  0
   -3.3033    3.3973    0.0000 H   0  0  0  0  0  0  0  0  0  0  0  0
   -2.7682    4.3239    0.0000 H   0  0  0  0  0  0  0  0  0  0  0  0
   -4.6541    1.1418    0.0000 H   0  0  0  0  0  0  0  0  0  0  0  0
    5.4652    3.4543    0.0000 H   0  0  0  0  0  0  0  0  0  0  0  0
   -0.8941   -2.8019    0.0000 H   0  0  0  0  0  0  0  0  0  0  0  0
   -1.8207   -3.3370    0.0000 H   0  0  0  0  0  0  0  0  0  0  0  0
   -3.2545   -1.2438    0.0000 H   0  0  0  0  0  0  0  0  0  0  0  0
   -4.8628   -2.1720    0.0000 H   0  0  0  0  0  0  0  0  0  0  0  0
   -4.8629   -4.0290    0.0000 H   0  0  0  0  0  0  0  0  0  0  0  0
   -3.2598   -4.9548    0.0000 H   0  0  0  0  0  0  0  0  0  0  0  0
   -1.6515   -4.0265    0.0000 H   0  0  0  0  0  0  0  0  0  0  0  0
   -3.1271    2.6738    0.0000 H   0  0  0  0  0  0  0  0  0  0  0  0
   -4.7322    1.7473    0.0000 H   0  0  0  0  0  0  0  0  0  0  0  0
   -4.1971    2.6739    0.0000 H   0  0  0  0  0  0  0  0  0  0  0  0
   -4.6097    1.9594    0.0000 H   0  0  0  0  0  0  0  0  0  0  0  0
   -4.6097    0.1062    0.0000 H   0  0  0  0  0  0  0  0  0  0  0  0
   -5.1447    1.0328    0.0000 H   0  0  0  0  0  0  0  0  0  0  0  0
  1  2  1  0  0  0  0
  1  5  1  0  0  0  0
  2 44  1  0  0  0  0
  3  4  1  0  0  0  0
  3 10  1  0  0  0  0
  3 15  2  0  0  0  0
  4  5  1  0  0  0  0
  4 16  1  0  0  0  0
  4 45  1  6  0  0  0
  5 28  1  0  0  0  0
  5 29  1  0  0  0  0
  6  7  1  0  0  0  0
  6 30  1  0  0  0  0
  6 46  1  6  0  0  0
  7 11  1  0  0  0  0
  7 47  1  0  0  0  0
  8  9  1  0  0  0  0
  8 14  2  0  0  0  0
  9 10  1  0  0  0  0
  9 48  1  0  0  0  0
  9 49  1  0  0  0  0
 10 50  1  0  0  0  0
 11 12  1  0  0  0  0
 11 33  2  0  0  0  0
 12 13  1  0  0  0  0
 12 35  1  0  0  0  0
 12 51  1  6  0  0  0
 13  8  1  0  0  0  0
 13 52  1  0  0  0  0
 16 17  1  0  0  0  0
 16 53  1  0  0  0  0
 17 18  1  0  0  0  0
 17 27  2  0  0  0  0
 18 19  1  0  0  0  0
 18 26  1  0  0  0  0
 18 54  1  6  0  0  0
 19 20  1  0  0  0  0
 19 55  1  0  0  0  0
 19 56  1  0  0  0  0
 20 21  2  0  0  0  0
 20 25  1  0  0  0  0
 21 22  1  0  0  0  0
 21 57  1  0  0  0  0
 22 23  2  0  0  0  0
 22 58  1  0  0  0  0
 23 24  1  0  0  0  0
 23 34  1  0  0  0  0
 24 25  2  0  0  0  0
 24 59  1  0  0  0  0
 25 60  1  0  0  0  0
 26 61  1  0  0  0  0
 26 62  1  0  0  0  0
 28 63  1  0  0  0  0
 28 64  1  0  0  0  0
 28 65  1  0  0  0  0
 29 66  1  0  0  0  0
 29 67  1  0  0  0  0
 29 68  1  0  0  0  0
 30 31  1  0  0  0  0
 30 32  2  0  0  0  0
 31 69  1  0  0  0  0
 34 70  1  0  0  0  0
 35 36  1  0  0  0  0
 35 71  1  0  0  0  0
 35 72  1  0  0  0  0
 36 37  2  0  0  0  0
 36 41  1  0  0  0  0
 37 38  1  0  0  0  0
 37 73  1  0  0  0  0
 38 39  2  0  0  0  0
 38 74  1  0  0  0  0
 39 40  1  0  0  0  0
 39 75  1  0  0  0  0
 40 41  2  0  0  0  0
 40 76  1  0  0  0  0
 41 77  1  0  0  0  0
 42 78  1  0  0  0  0
 42 79  1  0  0  0  0
 42 80  1  0  0  0  0
 43 44  1  0  0  0  0
 43 81  1  0  0  0  0
 43 82  1  0  0  0  0
 43 83  1  0  0  0  0
 44  6  1  0  0  0  0
 44 42  1  0  0  0  0
M  END
>  <DRUGBANK_ID>
DB08861

>  <COMMON_NAME>
DPDPE

>  <CAS_NUMBER>
88373-73-3

>  <UNII>
HB4QD9GL6F

>  <SYNONYMS>
(D-Pen2,D-Pen5)-Enkephalin; [D-Pen2-D-Pen5]-enkephaline; 2,5-Pen-enkephalin; cyclo-[D-Pen2,5]-enkephalin; D-penicillamine-(2,5)-enkephalin; L-tyrosyl-3-mercapto-D-valylglycyl-L-phenylalanyl-3-mercapto-D-valine, cyclic (2-5)-disulfide

$$$$
