
 OpenBabel10282417072D

129132  0  0  0  0  0  0  0  0999 V2000
   -0.2575   -0.7810    0.0000 C   0  0  0  0  0  0  0  0  0  0  0  0
   -4.5443   -0.7810    0.0000 C   0  0  0  0  0  0  0  0  0  0  0  0
    5.4582    0.8689    0.0000 C   0  0  0  0  0  0  0  0  0  0  0  0
   -3.1153   -0.7810    0.0000 C   0  0  0  0  0  0  0  0  0  0  0  0
    3.3148   -2.0185    0.0000 C   0  0  0  0  0  0  0  0  0  0  0  0
   -3.1153   -4.0810    0.0000 C   0  0  0  0  0  0  0  0  0  0  0  0
   -6.6877   -2.8435    0.0000 C   0  0  0  0  0  0  0  0  0  0  0  0
    1.8859    0.4564    0.0000 C   0  0  0  0  0  0  0  0  0  0  0  0
   -0.2575   -3.2560    0.0000 C   0  0  0  0  0  0  0  0  0  0  0  0
    4.7437   -2.0185    0.0000 C   0  0  0  0  0  0  0  0  0  0  0  0
    3.3148    0.4564    0.0000 C   0  0  0  0  0  0  0  0  0  0  0  0
    5.4582   -1.6060    0.0000 C   0  0  0  0  0  0  0  0  0  0  0  0
    4.7437   -2.8435    0.0000 C   0  0  0  0  0  0  0  0  0  0  0  0
    3.3148   -0.3685    0.0000 C   0  0  0  0  0  0  0  0  0  0  0  0
    4.0293    0.8689    0.0000 C   0  0  0  0  0  0  0  0  0  0  0  0
   -0.9719   -2.0185    0.0000 C   0  0  0  0  0  0  0  0  0  0  0  0
   -1.6864   -1.6060    0.0000 C   0  0  0  0  0  0  0  0  0  0  0  0
   -5.2588   -2.0185    0.0000 C   0  0  0  0  0  0  0  0  0  0  0  0
   -5.9732   -1.6060    0.0000 C   0  0  0  0  0  0  0  0  0  0  0  0
    6.1727   -0.3685    0.0000 C   0  0  0  0  0  0  0  0  0  0  0  0
    3.3148   -2.8435    0.0000 C   0  0  0  0  0  0  0  0  0  0  0  0
    1.1714   -1.6060    0.0000 C   0  0  0  0  0  0  0  0  0  0  0  0
    7.8167    1.0926    0.0000 C   0  0  0  0  0  0  0  0  0  0  0  0
    3.8897    3.0214    0.0000 C   0  0  0  0  0  0  0  0  0  0  0  0
    6.6442    3.9565    0.0000 C   0  0  0  0  0  0  0  0  0  0  0  0
   -7.4022   -1.6060    0.0000 C   0  0  0  0  0  0  0  0  0  0  0  0
   -0.2575   -1.6060    0.0000 C   0  0  1  0  0  0  0  0  0  0  0  0
   -4.5443   -1.6060    0.0000 C   0  0  3  0  0  0  0  0  0  0  0  0
    6.1727    0.4564    0.0000 C   0  0  1  0  0  0  0  0  0  0  0  0
   -3.1153   -1.6060    0.0000 C   0  0  2  0  0  0  0  0  0  0  0  0
    2.6003   -1.6060    0.0000 C   0  0  2  0  0  0  0  0  0  0  0  0
   -3.1153   -3.2560    0.0000 C   0  0  0  0  0  0  0  0  0  0  0  0
    5.4582   -0.7810    0.0000 C   0  0  0  0  0  0  0  0  0  0  0  0
    4.0293   -3.2560    0.0000 C   0  0  1  0  0  0  0  0  0  0  0  0
    6.8872    0.8689    0.0000 C   0  0  0  0  0  0  0  0  0  0  0  0
    4.7437    2.9314    0.0000 C   0  0  0  0  0  0  0  0  0  0  0  0
    7.0659    3.0984    0.0000 C   0  0  0  0  0  0  0  0  0  0  0  0
   -2.4009   -2.0185    0.0000 C   0  0  0  0  0  0  0  0  0  0  0  0
    2.6003   -0.7810    0.0000 C   0  0  1  0  0  0  0  0  0  0  0  0
    0.4569   -2.0185    0.0000 C   0  0  1  0  0  0  0  0  0  0  0  0
    1.8859   -2.0185    0.0000 C   0  0  1  0  0  0  0  0  0  0  0  0
    4.0293    1.6939    0.0000 C   0  0  0  0  0  0  0  0  0  0  0  0
    2.6003   -3.2560    0.0000 C   0  0  0  0  0  0  0  0  0  0  0  0
   -3.8298   -2.0185    0.0000 C   0  0  3  0  0  0  0  0  0  0  0  0
    5.4582    3.3439    0.0000 C   0  0  0  0  0  0  0  0  0  0  0  0
    7.4784    2.3839    0.0000 C   0  0  0  0  0  0  0  0  0  0  0  0
    4.7437    2.1064    0.0000 N   0  0  0  0  0  0  0  0  0  0  0  0
    6.9263    1.7708    0.0000 N   0  0  0  0  0  0  0  0  0  0  0  0
    6.2589    2.9268    0.0000 N   0  0  0  0  0  0  0  0  0  0  0  0
   -6.6877   -2.0185    0.0000 N   0  0  0  0  0  0  0  0  0  0  0  0
   -8.1166   -2.0185    0.0000 O   0  0  0  0  0  0  0  0  0  0  0  0
   -2.4009   -2.8435    0.0000 O   0  0  0  0  0  0  0  0  0  0  0  0
    4.7437   -0.3685    0.0000 O   0  0  0  0  0  0  0  0  0  0  0  0
    4.0293   -4.0810    0.0000 O   0  0  0  0  0  0  0  0  0  0  0  0
   -1.9159   -2.6860    0.0000 O   0  0  0  0  0  0  0  0  0  0  0  0
    2.6003   -4.0810    0.0000 O   0  0  0  0  0  0  0  0  0  0  0  0
    1.8859   -0.3685    0.0000 O   0  0  0  0  0  0  0  0  0  0  0  0
    0.4569   -2.8435    0.0000 O   0  0  0  0  0  0  0  0  0  0  0  0
    3.4772    2.3070    0.0000 O   0  0  0  0  0  0  0  0  0  0  0  0
    8.1166    1.8612    0.0000 O   0  0  0  0  0  0  0  0  0  0  0  0
    5.8287    4.0810    0.0000 O   0  0  0  0  0  0  0  0  0  0  0  0
   -3.8298   -2.8435    0.0000 O   0  0  0  0  0  0  0  0  0  0  0  0
    1.8859   -2.8435    0.0000 O   0  0  0  0  0  0  0  0  0  0  0  0
    2.6003    0.8689    0.0000 H   0  0  0  0  0  0  0  0  0  0  0  0
    4.7437    0.4564    0.0000 H   0  0  0  0  0  0  0  0  0  0  0  0
   -5.2588   -2.8435    0.0000 H   0  0  0  0  0  0  0  0  0  0  0  0
   -5.9732   -0.7810    0.0000 H   0  0  0  0  0  0  0  0  0  0  0  0
   -0.9719   -1.1935    0.0000 H   0  0  0  0  0  0  0  0  0  0  0  0
   -5.2588   -1.1935    0.0000 H   0  0  0  0  0  0  0  0  0  0  0  0
    5.4582    0.0439    0.0000 H   0  0  0  0  0  0  0  0  0  0  0  0
   -2.4009   -1.1935    0.0000 H   0  0  0  0  0  0  0  0  0  0  0  0
    3.3148   -1.1935    0.0000 H   0  0  0  0  0  0  0  0  0  0  0  0
    3.3148   -3.6685    0.0000 H   0  0  0  0  0  0  0  0  0  0  0  0
    2.6003    0.0439    0.0000 H   0  0  0  0  0  0  0  0  0  0  0  0
    0.4569   -1.1935    0.0000 H   0  0  0  0  0  0  0  0  0  0  0  0
    1.8859   -1.1935    0.0000 H   0  0  0  0  0  0  0  0  0  0  0  0
   -3.8298   -1.1935    0.0000 H   0  0  0  0  0  0  0  0  0  0  0  0
    0.6691   -0.2460    0.0000 H   0  0  0  0  0  0  0  0  0  0  0  0
   -1.1841   -0.2460    0.0000 H   0  0  0  0  0  0  0  0  0  0  0  0
   -0.2575    0.2890    0.0000 H   0  0  0  0  0  0  0  0  0  0  0  0
   -3.6177   -0.2460    0.0000 H   0  0  0  0  0  0  0  0  0  0  0  0
   -5.4709   -0.2460    0.0000 H   0  0  0  0  0  0  0  0  0  0  0  0
   -4.5443    0.2890    0.0000 H   0  0  0  0  0  0  0  0  0  0  0  0
    5.4582    1.9389    0.0000 H   0  0  0  0  0  0  0  0  0  0  0  0
    4.5316    0.3339    0.0000 H   0  0  0  0  0  0  0  0  0  0  0  0
    4.5315    1.4039    0.0000 H   0  0  0  0  0  0  0  0  0  0  0  0
   -2.1887   -0.2460    0.0000 H   0  0  0  0  0  0  0  0  0  0  0  0
   -4.0419   -0.2460    0.0000 H   0  0  0  0  0  0  0  0  0  0  0  0
   -3.1153    0.2890    0.0000 H   0  0  0  0  0  0  0  0  0  0  0  0
    3.3148   -3.0885    0.0000 H   0  0  0  0  0  0  0  0  0  0  0  0
    4.2414   -1.4835    0.0000 H   0  0  0  0  0  0  0  0  0  0  0  0
    4.2415   -2.5535    0.0000 H   0  0  0  0  0  0  0  0  0  0  0  0
   -4.0419   -4.6160    0.0000 H   0  0  0  0  0  0  0  0  0  0  0  0
   -2.1887   -4.6160    0.0000 H   0  0  0  0  0  0  0  0  0  0  0  0
   -3.1153   -5.1510    0.0000 H   0  0  0  0  0  0  0  0  0  0  0  0
   -7.6143   -3.3785    0.0000 H   0  0  0  0  0  0  0  0  0  0  0  0
   -5.7611   -3.3785    0.0000 H   0  0  0  0  0  0  0  0  0  0  0  0
   -6.6877   -3.9135    0.0000 H   0  0  0  0  0  0  0  0  0  0  0  0
    2.8125    0.9914    0.0000 H   0  0  0  0  0  0  0  0  0  0  0  0
    0.9593    0.9914    0.0000 H   0  0  0  0  0  0  0  0  0  0  0  0
    1.8859    1.5264    0.0000 H   0  0  0  0  0  0  0  0  0  0  0  0
   -1.1842   -2.7210    0.0000 H   0  0  0  0  0  0  0  0  0  0  0  0
   -0.2575   -4.3260    0.0000 H   0  0  0  0  0  0  0  0  0  0  0  0
   -1.1841   -3.7910    0.0000 H   0  0  0  0  0  0  0  0  0  0  0  0
    3.8171   -1.4835    0.0000 H   0  0  0  0  0  0  0  0  0  0  0  0
    3.8171   -2.5535    0.0000 H   0  0  0  0  0  0  0  0  0  0  0  0
    6.3848   -2.1410    0.0000 H   0  0  0  0  0  0  0  0  0  0  0  0
    6.3848   -1.0710    0.0000 H   0  0  0  0  0  0  0  0  0  0  0  0
    5.6704   -3.3785    0.0000 H   0  0  0  0  0  0  0  0  0  0  0  0
    4.7437   -3.9135    0.0000 H   0  0  0  0  0  0  0  0  0  0  0  0
    4.2414   -0.9035    0.0000 H   0  0  0  0  0  0  0  0  0  0  0  0
    3.3148   -1.4385    0.0000 H   0  0  0  0  0  0  0  0  0  0  0  0
   -0.9719   -3.0885    0.0000 H   0  0  0  0  0  0  0  0  0  0  0  0
   -0.0452   -2.5535    0.0000 H   0  0  0  0  0  0  0  0  0  0  0  0
   -1.6864   -0.5360    0.0000 H   0  0  0  0  0  0  0  0  0  0  0  0
   -2.6130   -1.0710    0.0000 H   0  0  0  0  0  0  0  0  0  0  0  0
    7.0993   -0.9035    0.0000 H   0  0  0  0  0  0  0  0  0  0  0  0
    6.1727   -1.4385    0.0000 H   0  0  0  0  0  0  0  0  0  0  0  0
    3.3148   -1.7735    0.0000 H   0  0  0  0  0  0  0  0  0  0  0  0
    2.3882   -2.3085    0.0000 H   0  0  0  0  0  0  0  0  0  0  0  0
    1.1714   -0.5360    0.0000 H   0  0  0  0  0  0  0  0  0  0  0  0
    2.0980   -1.0710    0.0000 H   0  0  0  0  0  0  0  0  0  0  0  0
    8.4952    0.3150    0.0000 H   0  0  0  0  0  0  0  0  0  0  0  0
    3.4213    3.9410    0.0000 H   0  0  0  0  0  0  0  0  0  0  0  0
    7.2545    4.7887    0.0000 H   0  0  0  0  0  0  0  0  0  0  0  0
   -7.4022   -0.5360    0.0000 H   0  0  0  0  0  0  0  0  0  0  0  0
   -8.3289   -1.0710    0.0000 H   0  0  0  0  0  0  0  0  0  0  0  0
   -8.9567   -1.5335    0.0000 H   0  0  0  0  0  0  0  0  0  0  0  0
    3.1893   -4.5660    0.0000 H   0  0  0  0  0  0  0  0  0  0  0  0
  1 78  1  0  0  0  0
  1 79  1  0  0  0  0
  1 80  1  0  0  0  0
  2 81  1  0  0  0  0
  2 82  1  0  0  0  0
  2 83  1  0  0  0  0
  3 84  1  0  0  0  0
  3 85  1  0  0  0  0
  3 86  1  0  0  0  0
  4 87  1  0  0  0  0
  4 88  1  0  0  0  0
  4 89  1  0  0  0  0
  5 90  1  0  0  0  0
  5 91  1  0  0  0  0
  5 92  1  0  0  0  0
  6 93  1  0  0  0  0
  6 94  1  0  0  0  0
  6 95  1  0  0  0  0
  7 96  1  0  0  0  0
  7 97  1  0  0  0  0
  7 98  1  0  0  0  0
  8 99  1  0  0  0  0
  8100  1  0  0  0  0
  8101  1  0  0  0  0
  9102  1  0  0  0  0
  9103  1  0  0  0  0
  9104  1  0  0  0  0
 10105  1  0  0  0  0
 10106  1  0  0  0  0
 12 10  1  0  0  0  0
 12107  1  0  0  0  0
 12108  1  0  0  0  0
 13 10  1  0  0  0  0
 13109  1  0  0  0  0
 13110  1  0  0  0  0
 14 11  1  0  0  0  0
 14111  1  0  0  0  0
 14112  1  0  0  0  0
 15 11  2  0  0  0  0
 16113  1  0  0  0  0
 16114  1  0  0  0  0
 17 16  1  0  0  0  0
 17115  1  0  0  0  0
 17116  1  0  0  0  0
 19 18  2  3  0  0  0
 19 67  1  0  0  0  0
 20117  1  0  0  0  0
 20118  1  0  0  0  0
 21119  1  0  0  0  0
 21120  1  0  0  0  0
 22121  1  0  0  0  0
 22122  1  0  0  0  0
 23123  1  0  0  0  0
 24124  1  0  0  0  0
 25125  1  0  0  0  0
 26126  1  0  0  0  0
 26127  1  0  0  0  0
 27  1  1  0  0  0  0
 27 16  1  0  0  0  0
 27 40  1  0  0  0  0
 27 68  1  1  0  0  0
 28  2  1  0  0  0  0
 28 18  1  0  0  0  0
 29  3  1  0  0  0  0
 29 20  1  0  0  0  0
 29 35  1  0  0  0  0
 29 70  1  1  0  0  0
 30  4  1  0  0  0  0
 30 38  1  0  0  0  0
 30 44  1  0  0  0  0
 30 71  1  1  0  0  0
 31  5  1  0  0  0  0
 31 39  1  0  0  0  0
 31 41  1  0  0  0  0
 31 72  1  6  0  0  0
 32  6  1  0  0  0  0
 33 12  1  0  0  0  0
 33 20  1  0  0  0  0
 34 13  1  0  0  0  0
 34 21  1  0  0  0  0
 34 54  1  0  0  0  0
 34 73  1  1  0  0  0
 35 23  2  0  0  0  0
 36 24  2  0  0  0  0
 37 25  2  0  0  0  0
 38 17  1  0  0  0  0
 39 14  1  0  0  0  0
 39 57  1  0  0  0  0
 39 74  1  6  0  0  0
 40 22  1  0  0  0  0
 40 58  1  0  0  0  0
 40 75  1  1  0  0  0
 41 22  1  0  0  0  0
 41 63  1  0  0  0  0
 41 76  1  6  0  0  0
 42 15  1  0  0  0  0
 43 21  1  0  0  0  0
 44 28  1  0  0  0  0
 45 36  1  0  0  0  0
 46 37  1  0  0  0  0
 47 36  1  0  0  0  0
 47 42  2  0  0  0  0
 48 35  1  0  0  0  0
 48 46  2  0  0  0  0
 49 37  1  0  0  0  0
 49 45  2  0  0  0  0
 50  7  1  0  0  0  0
 50 19  1  0  0  0  0
 50 26  1  0  0  0  0
 51 26  1  0  0  0  0
 51128  1  0  0  0  0
 52 32  2  0  0  0  0
 53 33  2  0  0  0  0
 54129  1  0  0  0  0
 55 38  2  0  0  0  0
 56 43  2  0  0  0  0
 57  8  1  0  0  0  0
 58  9  1  0  0  0  0
 59 24  1  0  0  0  0
 59 42  1  0  0  0  0
 60 23  1  0  0  0  0
 60 46  1  0  0  0  0
 61 25  1  0  0  0  0
 61 45  1  0  0  0  0
 62 32  1  0  0  0  0
 62 44  1  0  0  0  0
 63 43  1  0  0  0  0
 64 11  1  0  0  0  0
 65 15  1  0  0  0  0
 66 18  1  0  0  0  0
 69 28  1  0  0  0  0
 77 44  1  0  0  0  0
M  END
>  <DRUGBANK_ID>
DB03021

>  <SECONDARY_ACCESSION_NUMBERS>
EXPT03182

>  <COMMON_NAME>
Ulapualide A

$$$$
