
 OpenBabel10282417072D

 14 14  0  0  0  0  0  0  0  0999 V2000
   -0.3288    0.4342    0.0000 C   0  0  0  0  0  0  0  0  0  0  0  0
   -0.3533   -0.4097    0.0000 C   0  0  0  0  0  0  0  0  0  0  0  0
    0.3548    0.8378    0.0000 C   0  0  0  0  0  0  0  0  0  0  0  0
   -1.0359    0.8592    0.0000 C   0  0  0  0  0  0  0  0  0  0  0  0
    0.3515   -0.8333    0.0000 C   0  0  0  0  0  0  0  0  0  0  0  0
   -1.0898   -0.8320    0.0000 C   0  0  0  0  0  0  0  0  0  0  0  0
    1.0902    0.3958    0.0000 C   0  0  0  0  0  0  0  0  0  0  0  0
    0.3585    1.6470    0.0000 O   0  0  0  0  0  0  0  0  0  0  0  0
   -1.7408    1.2828    0.0000 N   0  0  0  0  0  0  0  0  0  0  0  0
    1.0853   -0.4155    0.0000 C   0  0  0  0  0  0  0  0  0  0  0  0
    0.3453   -1.6470    0.0000 O   0  0  0  0  0  0  0  0  0  0  0  0
   -1.8032   -1.2206    0.0000 N   0  0  0  0  0  0  0  0  0  0  0  0
    1.8032    0.7788    0.0000 Cl  0  0  0  0  0  0  0  0  0  0  0  0
    1.7924   -0.8405    0.0000 Cl  0  0  0  0  0  0  0  0  0  0  0  0
  1  2  2  0  0  0  0
  1  3  1  0  0  0  0
  1  4  1  0  0  0  0
  2  5  1  0  0  0  0
  2  6  1  0  0  0  0
  3  7  1  0  0  0  0
  3  8  2  0  0  0  0
  4  9  3  0  0  0  0
  5 10  1  0  0  0  0
  5 11  2  0  0  0  0
  6 12  3  0  0  0  0
  7 13  1  0  0  0  0
  7 10  2  0  0  0  0
 10 14  1  0  0  0  0
M  END
>  <DRUGBANK_ID>
DB15684

>  <COMMON_NAME>
2,3-dichloro-5,6-dicyanobenzoquinone

>  <CAS_NUMBER>
84-58-2

>  <UNII>
1H5KD39UH7

>  <SYNONYMS>
2,3-Dichloro-5,6-dicyanoquinone; DDQ; Dichlorodicyanobenzoquinone

$$$$
