TMJ
 OpenBabel10282417072D

 36 38  0  0  0  0  0  0  0  0999 V2000
    1.8201   -0.2365    0.0000 C   0  0  0  0  0  0  0  0  0  0  0  0
   -2.4668    1.4135    0.0000 C   0  0  0  0  0  0  0  0  0  0  0  0
   -3.8957    0.5885    0.0000 C   0  0  0  0  0  0  0  0  0  0  0  0
   -3.8957    1.4135    0.0000 C   0  0  0  0  0  0  0  0  0  0  0  0
   -3.1812    0.1760    0.0000 C   0  0  0  0  0  0  0  0  0  0  0  0
   -3.1812    1.8260    0.0000 C   0  0  0  0  0  0  0  0  0  0  0  0
   -2.4668    0.5885    0.0000 C   0  0  0  0  0  0  0  0  0  0  0  0
    0.3911   -0.2365    0.0000 C   0  0  0  0  0  0  0  0  0  0  0  0
    1.1056    1.0010    0.0000 C   0  0  0  0  0  0  0  0  0  0  0  0
    2.5345    0.1760    0.0000 C   0  0  0  0  0  0  0  0  0  0  0  0
    1.8201    1.4135    0.0000 C   0  0  0  0  0  0  0  0  0  0  0  0
   -4.6102    0.1760    0.0000 Cl  0  0  0  0  0  0  0  0  0  0  0  0
   -1.7523    1.8260    0.0000 N   0  0  0  0  0  0  0  0  0  0  0  0
   -1.0378    1.4135    0.0000 S   0  0  0  0  0  0  0  0  0  0  0  0
   -1.4503    0.6990    0.0000 O   0  0  0  0  0  0  0  0  0  0  0  0
   -0.6253    2.1280    0.0000 O   0  0  0  0  0  0  0  0  0  0  0  0
   -0.3233    1.0010    0.0000 C   0  0  0  0  0  0  0  0  0  0  0  0
    0.3911    1.4135    0.0000 C   0  0  0  0  0  0  0  0  0  0  0  0
   -0.3233    0.1760    0.0000 C   0  0  0  0  0  0  0  0  0  0  0  0
    1.1056    0.1760    0.0000 C   0  0  0  0  0  0  0  0  0  0  0  0
    2.5345    1.0010    0.0000 N   0  0  0  0  0  0  0  0  0  0  0  0
    1.8201   -1.3065    0.0000 H   0  0  0  0  0  0  0  0  0  0  0  0
    2.7468   -0.7715    0.0000 H   0  0  0  0  0  0  0  0  0  0  0  0
   -4.7894    1.9295    0.0000 H   0  0  0  0  0  0  0  0  0  0  0  0
   -3.1812   -0.8560    0.0000 H   0  0  0  0  0  0  0  0  0  0  0  0
   -3.1812    2.8580    0.0000 H   0  0  0  0  0  0  0  0  0  0  0  0
   -1.5731    0.0725    0.0000 H   0  0  0  0  0  0  0  0  0  0  0  0
    0.3911   -1.2685    0.0000 H   0  0  0  0  0  0  0  0  0  0  0  0
    3.4612   -0.3590    0.0000 H   0  0  0  0  0  0  0  0  0  0  0  0
    3.4611    0.7110    0.0000 H   0  0  0  0  0  0  0  0  0  0  0  0
    1.8201    2.4835    0.0000 H   0  0  0  0  0  0  0  0  0  0  0  0
    2.7468    1.9485    0.0000 H   0  0  0  0  0  0  0  0  0  0  0  0
   -1.7523    2.8105    0.0000 H   0  0  0  0  0  0  0  0  0  0  0  0
    0.3911    2.4455    0.0000 H   0  0  0  0  0  0  0  0  0  0  0  0
   -1.2170   -0.3400    0.0000 H   0  0  0  0  0  0  0  0  0  0  0  0
    3.4179    1.5110    0.0000 H   0  0  0  0  0  0  0  0  0  0  0  0
  1 20  1  0  0  0  0
  1 10  1  0  0  0  0
  1 22  1  0  0  0  0
  1 23  1  0  0  0  0
  2  7  2  0  0  0  0
  2  6  1  0  0  0  0
  2 13  1  0  0  0  0
  3 12  1  0  0  0  0
  3  5  2  0  0  0  0
  3  4  1  0  0  0  0
  4  6  2  0  0  0  0
  4 24  1  0  0  0  0
  5  7  1  0  0  0  0
  5 25  1  0  0  0  0
  6 26  1  0  0  0  0
  7 27  1  0  0  0  0
  8 19  1  0  0  0  0
  8 20  2  0  0  0  0
  8 28  1  0  0  0  0
  9 18  2  0  0  0  0
  9 20  1  0  0  0  0
  9 11  1  0  0  0  0
 10 21  1  0  0  0  0
 10 29  1  0  0  0  0
 10 30  1  0  0  0  0
 11 21  1  0  0  0  0
 11 31  1  0  0  0  0
 11 32  1  0  0  0  0
 13 14  1  0  0  0  0
 13 33  1  0  0  0  0
 14 16  2  0  0  0  0
 14 15  2  0  0  0  0
 14 17  1  0  0  0  0
 17 19  2  0  0  0  0
 17 18  1  0  0  0  0
 18 34  1  0  0  0  0
 19 35  1  0  0  0  0
 21 36  1  0  0  0  0
M  END
>  <DRUGBANK_ID>
DB08631

>  <COMMON_NAME>
N-(4-CHLOROPHENYL)-1,2,3,4-TETRAHYDROISOQUINOLINE-7-SULFONAMIDE

$$$$
