422
 OpenBabel10282417072D

 36 37  0  0  1  0  0  0  0  0999 V2000
    3.0791   -1.0313    0.0000 O   0  0  0  0  0  0  0  0  0  0  0  0
    4.5080   -1.0313    0.0000 O   0  0  0  0  0  0  0  0  0  0  0  0
    5.2224    0.2063    0.0000 N   0  0  0  0  0  0  0  0  0  0  0  0
    4.5080    0.6188    0.0000 C   0  0  3  0  0  0  0  0  0  0  0  0
    4.5080    1.4438    0.0000 C   0  0  0  0  0  0  0  0  0  0  0  0
    3.7935    0.2063    0.0000 C   0  0  3  0  0  0  0  0  0  0  0  0
    5.2224    1.8563    0.0000 C   0  0  0  0  0  0  0  0  0  0  0  0
    5.9370    1.4438    0.0000 C   0  0  0  0  0  0  0  0  0  0  0  0
    5.9370    0.6188    0.0000 C   0  0  0  0  0  0  0  0  0  0  0  0
    3.0791    0.6188    0.0000 C   0  0  0  0  0  0  0  0  0  0  0  0
    3.7935   -0.6188    0.0000 C   0  0  0  0  0  0  0  0  0  0  0  0
    2.3645    0.2063    0.0000 C   0  0  0  0  0  0  0  0  0  0  0  0
    3.0791    1.4438    0.0000 C   0  0  0  0  0  0  0  0  0  0  0  0
    1.6500    0.6188    0.0000 C   0  0  0  0  0  0  0  0  0  0  0  0
    2.3645    1.8563    0.0000 C   0  0  0  0  0  0  0  0  0  0  0  0
    1.6500    1.4438    0.0000 C   0  0  0  0  0  0  0  0  0  0  0  0
    3.0791   -1.8563    0.0000 C   0  0  0  0  0  0  0  0  0  0  0  0
    5.2223   -0.8137    0.0000 H   0  0  0  0  0  0  0  0  0  0  0  0
    5.4347    1.1538    0.0000 H   0  0  0  0  0  0  0  0  0  0  0  0
    3.5813    1.9788    0.0000 H   0  0  0  0  0  0  0  0  0  0  0  0
    4.5080    2.5138    0.0000 H   0  0  0  0  0  0  0  0  0  0  0  0
    3.7935    1.2763    0.0000 H   0  0  0  0  0  0  0  0  0  0  0  0
    5.2223    2.9263    0.0000 H   0  0  0  0  0  0  0  0  0  0  0  0
    6.1490    2.3914    0.0000 H   0  0  0  0  0  0  0  0  0  0  0  0
    6.8636    1.9788    0.0000 H   0  0  0  0  0  0  0  0  0  0  0  0
    6.8637    0.9088    0.0000 H   0  0  0  0  0  0  0  0  0  0  0  0
    6.8636    0.0838    0.0000 H   0  0  0  0  0  0  0  0  0  0  0  0
    6.8637    1.1538    0.0000 H   0  0  0  0  0  0  0  0  0  0  0  0
    2.3645   -0.8257    0.0000 H   0  0  0  0  0  0  0  0  0  0  0  0
    3.9728    1.9598    0.0000 H   0  0  0  0  0  0  0  0  0  0  0  0
    0.7563    0.1028    0.0000 H   0  0  0  0  0  0  0  0  0  0  0  0
    2.3645    2.8883    0.0000 H   0  0  0  0  0  0  0  0  0  0  0  0
    0.7563    1.9598    0.0000 H   0  0  0  0  0  0  0  0  0  0  0  0
    2.1525   -2.3913    0.0000 H   0  0  0  0  0  0  0  0  0  0  0  0
    4.0057   -2.3913    0.0000 H   0  0  0  0  0  0  0  0  0  0  0  0
    3.0791   -2.9263    0.0000 H   0  0  0  0  0  0  0  0  0  0  0  0
  1 11  1  0  0  0  0
  1 17  1  0  0  0  0
  2 11  2  0  0  0  0
  3  4  1  0  0  0  0
  3  9  1  0  0  0  0
  3 18  1  0  0  0  0
  4  5  1  0  0  0  0
  4  6  1  0  0  0  0
  4 19  1  0  0  0  0
  5  7  1  0  0  0  0
  5 20  1  0  0  0  0
  5 21  1  0  0  0  0
  6 10  1  0  0  0  0
  6 11  1  0  0  0  0
  6 22  1  0  0  0  0
  7  8  1  0  0  0  0
  7 23  1  0  0  0  0
  7 24  1  0  0  0  0
  8  9  1  0  0  0  0
  8 25  1  0  0  0  0
  8 26  1  0  0  0  0
  9 27  1  0  0  0  0
  9 28  1  0  0  0  0
 10 12  2  0  0  0  0
 10 13  1  0  0  0  0
 12 14  1  0  0  0  0
 12 29  1  0  0  0  0
 13 15  2  0  0  0  0
 13 30  1  0  0  0  0
 14 16  2  0  0  0  0
 14 31  1  0  0  0  0
 15 16  1  0  0  0  0
 15 32  1  0  0  0  0
 16 33  1  0  0  0  0
 17 34  1  0  0  0  0
 17 35  1  0  0  0  0
 17 36  1  0  0  0  0
M  END
>  <DRUGBANK_ID>
DB00422

>  <SECONDARY_ACCESSION_NUMBERS>
APRD00657

>  <COMMON_NAME>
Methylphenidate

>  <CAS_NUMBER>
113-45-1

>  <UNII>
207ZZ9QZ49

>  <SYNONYMS>
Methyl phenidylacetate; methyl phenyl(piperidin-2-yl)acetate; methyl α-phenyl-α-(2-piperidyl)acetate; methyl α-phenyl-α-2-piperidinylacetate; Methylphenidan; Methylphenidate; Methylphenidatum; Metilfenidato; MPH; α-phenyl-2-piperidineacetic acid methyl ester

$$$$
