
 OpenBabel10282417072D

 55 58  0  0  1  0  0  0  0  0999 V2000
   -1.3626    2.0417    0.0000 C   0  0  0  0  0  0  0  0  0  0  0  0
    2.6232    0.6018    0.0000 C   0  0  0  0  0  0  0  0  0  0  0  0
    0.1073    0.1997    0.0000 C   0  0  0  0  0  0  0  0  0  0  0  0
    2.6520    2.7844    0.0000 C   0  0  0  0  0  0  0  0  0  0  0  0
    1.8399    2.6391    0.0000 C   0  0  0  0  0  0  0  0  0  0  0  0
    4.2475    0.8922    0.0000 C   0  0  0  0  0  0  0  0  0  0  0  0
    3.4354    0.7470    0.0000 C   0  0  0  0  0  0  0  0  0  0  0  0
    0.0962    2.2244    0.0000 C   0  0  0  0  0  0  0  0  0  0  0  0
    3.9960    2.2989    0.0000 C   0  0  0  0  0  0  0  0  0  0  0  0
    0.9990    0.3114    0.0000 C   0  0  0  0  0  0  0  0  0  0  0  0
   -1.4498    0.0477    0.0000 C   0  0  0  0  0  0  0  0  0  0  0  0
   -0.5867    1.7614    0.0000 C   0  0  1  0  0  0  0  0  0  0  0  0
    3.1838    2.1537    0.0000 C   0  0  0  0  0  0  0  0  0  0  0  0
    4.5278    1.6682    0.0000 C   0  0  0  0  0  0  0  0  0  0  0  0
    1.5596    1.8632    0.0000 C   0  0  1  0  0  0  0  0  0  0  0  0
    0.7475    1.7180    0.0000 C   0  0  1  0  0  0  0  0  0  0  0  0
    1.8111    0.4566    0.0000 C   0  0  0  0  0  0  0  0  0  0  0  0
   -1.1695    0.8237    0.0000 C   0  0  0  0  0  0  0  0  0  0  0  0
    2.0914    1.2325    0.0000 C   0  0  2  0  0  0  0  0  0  0  0  0
    2.9035    1.3777    0.0000 C   0  0  2  0  0  0  0  0  0  0  0  0
    0.4672    0.9421    0.0000 C   0  0  2  0  0  0  0  0  0  0  0  0
   -0.3574    0.9689    0.0000 C   0  0  2  0  0  0  0  0  0  0  0  0
   -0.9180   -0.5830    0.0000 O   0  0  0  0  0  0  0  0  0  0  0  0
    5.3399    1.8134    0.0000 O   0  0  0  0  0  0  0  0  0  0  0  0
    2.3429   -0.1741    0.0000 O   0  0  0  0  0  0  0  0  0  0  0  0
   -1.7013    1.4544    0.0000 O   0  0  0  0  0  0  0  0  0  0  0  0
   -0.2978    0.1460    0.0000 O   0  0  0  0  0  0  0  0  0  0  0  0
   -1.1887    1.1973    0.0000 H   0  0  0  0  0  0  0  0  0  0  0  0
    1.0278    2.4939    0.0000 H   0  0  0  0  0  0  0  0  0  0  0  0
    1.2793    1.0873    0.0000 H   0  0  0  0  0  0  0  0  0  0  0  0
    2.3717    2.0084    0.0000 H   0  0  0  0  0  0  0  0  0  0  0  0
   -1.5509    3.0950    0.0000 H   0  0  0  0  0  0  0  0  0  0  0  0
   -2.1806    1.3520    0.0000 H   0  0  0  0  0  0  0  0  0  0  0  0
   -2.3689    2.4053    0.0000 H   0  0  0  0  0  0  0  0  0  0  0  0
    1.5699    0.4135    0.0000 H   0  0  0  0  0  0  0  0  0  0  0  0
    3.3129   -0.2162    0.0000 H   0  0  0  0  0  0  0  0  0  0  0  0
    2.2596   -0.4045    0.0000 H   0  0  0  0  0  0  0  0  0  0  0  0
   -0.9599    0.1225    0.0000 H   0  0  0  0  0  0  0  0  0  0  0  0
    0.7078   -0.6859    0.0000 H   0  0  0  0  0  0  0  0  0  0  0  0
   -0.3595   -0.7631    0.0000 H   0  0  0  0  0  0  0  0  0  0  0  0
    3.0155    3.7908    0.0000 H   0  0  0  0  0  0  0  0  0  0  0  0
    3.7053    2.9728    0.0000 H   0  0  0  0  0  0  0  0  0  0  0  0
    1.1501    3.4571    0.0000 H   0  0  0  0  0  0  0  0  0  0  0  0
    0.7866    2.4507    0.0000 H   0  0  0  0  0  0  0  0  0  0  0  0
    4.9128    0.1032    0.0000 H   0  0  0  0  0  0  0  0  0  0  0  0
    3.0848   -0.2236    0.0000 H   0  0  0  0  0  0  0  0  0  0  0  0
    0.1310    3.2938    0.0000 H   0  0  0  0  0  0  0  0  0  0  0  0
    1.0649    2.6789    0.0000 H   0  0  0  0  0  0  0  0  0  0  0  0
    4.3467    3.2695    0.0000 H   0  0  0  0  0  0  0  0  0  0  0  0
    0.6354   -0.6949    0.0000 H   0  0  0  0  0  0  0  0  0  0  0  0
   -0.0543    0.1231    0.0000 H   0  0  0  0  0  0  0  0  0  0  0  0
   -2.5031   -0.1406    0.0000 H   0  0  0  0  0  0  0  0  0  0  0  0
   -1.8133   -0.9586    0.0000 H   0  0  0  0  0  0  0  0  0  0  0  0
   -1.2476   -1.4953    0.0000 H   0  0  0  0  0  0  0  0  0  0  0  0
   -1.1006   -0.3984    0.0000 H   0  0  0  0  0  0  0  0  0  0  0  0
  1 32  1  0  0  0  0
  1 33  1  0  0  0  0
  1 34  1  0  0  0  0
  2 35  1  0  0  0  0
  2 36  1  0  0  0  0
  2 37  1  0  0  0  0
  3 38  1  0  0  0  0
  3 39  1  0  0  0  0
  3 40  1  0  0  0  0
  4 41  1  0  0  0  0
  4 42  1  0  0  0  0
  5  4  1  0  0  0  0
  5 43  1  0  0  0  0
  5 44  1  0  0  0  0
  6 45  1  0  0  0  0
  7  6  2  0  0  0  0
  7 46  1  0  0  0  0
  8 47  1  0  0  0  0
  8 48  1  0  0  0  0
  9 49  1  0  0  0  0
 10 50  1  0  0  0  0
 10 51  1  0  0  0  0
 11 52  1  0  0  0  0
 11 53  1  0  0  0  0
 12  1  1  0  0  0  0
 12  8  1  0  0  0  0
 12 28  1  6  0  0  0
 13  4  1  0  0  0  0
 13  9  2  0  0  0  0
 14  6  1  0  0  0  0
 14  9  1  0  0  0  0
 15  5  1  0  0  0  0
 15 29  1  1  0  0  0
 16  8  1  0  0  0  0
 16 15  1  0  0  0  0
 16 30  1  6  0  0  0
 17 10  1  0  0  0  0
 18 11  1  0  0  0  0
 19 15  1  0  0  0  0
 19 17  1  0  0  0  0
 19 31  1  6  0  0  0
 20  2  1  1  0  0  0
 20  7  1  0  0  0  0
 20 13  1  0  0  0  0
 20 19  1  0  0  0  0
 21  3  1  1  0  0  0
 21 10  1  0  0  0  0
 21 16  1  0  0  0  0
 22 12  1  0  0  0  0
 22 18  1  1  0  0  0
 22 21  1  0  0  0  0
 22 27  1  0  0  0  0
 23 11  1  0  0  0  0
 23 54  1  0  0  0  0
 24 14  2  0  0  0  0
 25 17  2  0  0  0  0
 26 18  2  0  0  0  0
 27 55  1  0  0  0  0
M  END
>  <DRUGBANK_ID>
DB09383

>  <COMMON_NAME>
Meprednisone

>  <CAS_NUMBER>
1247-42-3

>  <UNII>
67U96J8P35

>  <SYNONYMS>
Meprednisone

$$$$
