
 OpenBabel10282417072D

 27 28  0  0  0  0  0  0  0  0999 V2000
    0.7189   -0.7170    0.0000 N   0  0  0  0  0  0  0  0  0  0  0  0
   -0.1060   -0.7170    0.0000 C   0  0  0  0  0  0  0  0  0  0  0  0
   -0.3609    0.0675    0.0000 C   0  0  3  0  0  0  0  0  0  0  0  0
    0.3065    0.5525    0.0000 O   0  0  0  0  0  0  0  0  0  0  0  0
    0.9739    0.0675    0.0000 C   0  0  0  0  0  0  0  0  0  0  0  0
   -1.1455    0.3225    0.0000 C   0  0  0  0  0  0  0  0  0  0  0  0
   -1.7586   -0.2294    0.0000 C   0  0  0  0  0  0  0  0  0  0  0  0
   -2.5432    0.0254    0.0000 C   0  0  0  0  0  0  0  0  0  0  0  0
   -2.7147    0.8324    0.0000 C   0  0  0  0  0  0  0  0  0  0  0  0
   -2.1016    1.3844    0.0000 C   0  0  0  0  0  0  0  0  0  0  0  0
   -1.3170    1.1295    0.0000 C   0  0  0  0  0  0  0  0  0  0  0  0
   -0.5909   -1.3844    0.0000 O   0  0  0  0  0  0  0  0  0  0  0  0
    1.7585    0.3224    0.0000 N   0  0  0  0  0  0  0  0  0  0  0  0
    1.9301    1.1294    0.0000 C   0  0  0  0  0  0  0  0  0  0  0  0
    2.7147    1.3843    0.0000 C   0  0  0  0  0  0  0  0  0  0  0  0
    0.6567   -0.2631    0.0000 H   0  0  0  0  0  0  0  0  0  0  0  0
   -1.5440   -1.2388    0.0000 H   0  0  0  0  0  0  0  0  0  0  0  0
   -3.3101   -0.6652    0.0000 H   0  0  0  0  0  0  0  0  0  0  0  0
   -3.6962    1.1513    0.0000 H   0  0  0  0  0  0  0  0  0  0  0  0
   -2.3162    2.3938    0.0000 H   0  0  0  0  0  0  0  0  0  0  0  0
   -0.5501    1.8200    0.0000 H   0  0  0  0  0  0  0  0  0  0  0  0
    2.4901   -0.3364    0.0000 H   0  0  0  0  0  0  0  0  0  0  0  0
    1.1350    1.8454    0.0000 H   0  0  0  0  0  0  0  0  0  0  0  0
    2.1526    2.1760    0.0000 H   0  0  0  0  0  0  0  0  0  0  0  0
    3.5098    0.6683    0.0000 H   0  0  0  0  0  0  0  0  0  0  0  0
    2.9372    2.4309    0.0000 H   0  0  0  0  0  0  0  0  0  0  0  0
    3.7323    1.7149    0.0000 H   0  0  0  0  0  0  0  0  0  0  0  0
  1  2  1  0  0  0  0
  2  3  1  0  0  0  0
  2 12  2  0  0  0  0
  3  4  1  0  0  0  0
  3  6  1  0  0  0  0
  3 16  1  0  0  0  0
  4  5  1  0  0  0  0
  5  1  2  0  0  0  0
  5 13  1  0  0  0  0
  6  7  2  0  0  0  0
  7  8  1  0  0  0  0
  7 17  1  0  0  0  0
  8  9  2  0  0  0  0
  8 18  1  0  0  0  0
  9 10  1  0  0  0  0
  9 19  1  0  0  0  0
 10 11  2  0  0  0  0
 10 20  1  0  0  0  0
 11  6  1  0  0  0  0
 11 21  1  0  0  0  0
 13 14  1  0  0  0  0
 13 22  1  0  0  0  0
 14 15  1  0  0  0  0
 14 23  1  0  0  0  0
 14 24  1  0  0  0  0
 15 25  1  0  0  0  0
 15 26  1  0  0  0  0
 15 27  1  0  0  0  0
M  END
>  <DRUGBANK_ID>
DB13341

>  <COMMON_NAME>
Fenozolone

>  <CAS_NUMBER>
15302-16-6

>  <UNII>
1NZI4LMU6G

>  <SYNONYMS>
Fenozolona; Fenozolone; Fenozolonum

$$$$
