963
 OpenBabel10282417072D

 32 33  0  0  0  0  0  0  0  0999 V2000
    1.6500   -1.3654    0.0000 Br  0  0  0  0  0  0  0  0  0  0  0  0
    4.5080    1.1096    0.0000 O   0  0  0  0  0  0  0  0  0  0  0  0
    8.7949    0.2846    0.0000 O   0  0  0  0  0  0  0  0  0  0  0  0
    8.0804   -0.9529    0.0000 O   0  0  0  0  0  0  0  0  0  0  0  0
    5.9370    1.1096    0.0000 N   0  0  0  0  0  0  0  0  0  0  0  0
    6.6515   -0.1279    0.0000 C   0  0  0  0  0  0  0  0  0  0  0  0
    5.2224   -0.1279    0.0000 C   0  0  0  0  0  0  0  0  0  0  0  0
    5.9370    0.2846    0.0000 C   0  0  0  0  0  0  0  0  0  0  0  0
    7.3659    0.2846    0.0000 C   0  0  0  0  0  0  0  0  0  0  0  0
    6.6515   -0.9529    0.0000 C   0  0  0  0  0  0  0  0  0  0  0  0
    4.5080    0.2846    0.0000 C   0  0  0  0  0  0  0  0  0  0  0  0
    5.2224   -0.9529    0.0000 C   0  0  0  0  0  0  0  0  0  0  0  0
    3.7935   -0.1279    0.0000 C   0  0  0  0  0  0  0  0  0  0  0  0
    5.9370   -1.3654    0.0000 C   0  0  0  0  0  0  0  0  0  0  0  0
    3.7935   -0.9529    0.0000 C   0  0  0  0  0  0  0  0  0  0  0  0
    3.0791    0.2846    0.0000 C   0  0  0  0  0  0  0  0  0  0  0  0
    8.0804   -0.1279    0.0000 C   0  0  0  0  0  0  0  0  0  0  0  0
    3.0791   -1.3654    0.0000 C   0  0  0  0  0  0  0  0  0  0  0  0
    2.3645   -0.1279    0.0000 C   0  0  0  0  0  0  0  0  0  0  0  0
    2.3645   -0.9529    0.0000 C   0  0  0  0  0  0  0  0  0  0  0  0
    9.6064   -0.1839    0.0000 H   0  0  0  0  0  0  0  0  0  0  0  0
    6.7896    1.6019    0.0000 H   0  0  0  0  0  0  0  0  0  0  0  0
    5.0844    1.6018    0.0000 H   0  0  0  0  0  0  0  0  0  0  0  0
    7.3659    1.3546    0.0000 H   0  0  0  0  0  0  0  0  0  0  0  0
    8.2925    0.8196    0.0000 H   0  0  0  0  0  0  0  0  0  0  0  0
    7.5452   -1.4689    0.0000 H   0  0  0  0  0  0  0  0  0  0  0  0
    4.3287   -1.4689    0.0000 H   0  0  0  0  0  0  0  0  0  0  0  0
    5.9370   -2.3974    0.0000 H   0  0  0  0  0  0  0  0  0  0  0  0
    4.6872   -1.4689    0.0000 H   0  0  0  0  0  0  0  0  0  0  0  0
    3.0792    1.3166    0.0000 H   0  0  0  0  0  0  0  0  0  0  0  0
    3.0792   -2.3974    0.0000 H   0  0  0  0  0  0  0  0  0  0  0  0
    1.4708    0.3881    0.0000 H   0  0  0  0  0  0  0  0  0  0  0  0
  1 20  1  0  0  0  0
  2 11  2  0  0  0  0
  3 17  1  0  0  0  0
  3 21  1  0  0  0  0
  4 17  2  0  0  0  0
  5  8  1  0  0  0  0
  5 22  1  0  0  0  0
  5 23  1  0  0  0  0
  6  8  2  0  0  0  0
  6  9  1  0  0  0  0
  6 10  1  0  0  0  0
  7  8  1  0  0  0  0
  7 11  1  0  0  0  0
  7 12  2  0  0  0  0
  9 17  1  0  0  0  0
  9 24  1  0  0  0  0
  9 25  1  0  0  0  0
 10 14  2  0  0  0  0
 10 26  1  0  0  0  0
 11 13  1  0  0  0  0
 12 14  1  0  0  0  0
 12 27  1  0  0  0  0
 13 15  2  0  0  0  0
 13 16  1  0  0  0  0
 14 28  1  0  0  0  0
 15 18  1  0  0  0  0
 15 29  1  0  0  0  0
 16 19  2  0  0  0  0
 16 30  1  0  0  0  0
 18 20  2  0  0  0  0
 18 31  1  0  0  0  0
 19 20  1  0  0  0  0
 19 32  1  0  0  0  0
M  END
>  <DRUGBANK_ID>
DB00963

>  <SECONDARY_ACCESSION_NUMBERS>
APRD00831

>  <COMMON_NAME>
Bromfenac

>  <CAS_NUMBER>
91714-94-2

>  <UNII>
864P0921DW

>  <SYNONYMS>
[2-Amino-3-(4-bromo-benzoyl)-phenyl]-acetic acid; 2-amino-3-(4-bromobenzoyl)benzeneacetic acid; Bromfenac; Bromfenaco; Bromfenacum

$$$$
