
 OpenBabel10282417072D

 40 44  0  0  1  0  0  0  0  0999 V2000
    1.9854    1.9809    0.0000 C   0  0  0  0  0  0  0  0  0  0  0  0
    2.2057    1.1858    0.0000 C   0  0  1  0  0  0  0  0  0  0  0  0
    3.0044    0.9791    0.0000 C   0  0  0  0  0  0  0  0  0  0  0  0
    3.2246    0.1841    0.0000 C   0  0  0  0  0  0  0  0  0  0  0  0
    3.9629   -0.1842    0.0000 C   0  0  0  0  0  0  0  0  0  0  0  0
    4.7305    0.1180    0.0000 C   0  0  0  0  0  0  0  0  0  0  0  0
    5.3761   -0.3958    0.0000 C   0  0  0  0  0  0  0  0  0  0  0  0
    5.2540   -1.2117    0.0000 C   0  0  0  0  0  0  0  0  0  0  0  0
    4.4863   -1.5139    0.0000 C   0  0  0  0  0  0  0  0  0  0  0  0
    3.8408   -1.0001    0.0000 C   0  0  0  0  0  0  0  0  0  0  0  0
    3.0270   -1.1361    0.0000 N   0  0  0  0  0  0  0  0  0  0  0  0
    2.6463   -0.4042    0.0000 C   0  0  0  0  0  0  0  0  0  0  0  0
    1.8476   -0.1975    0.0000 C   0  0  2  0  0  0  0  0  0  0  0  0
    1.6273    0.5975    0.0000 N   0  0  0  0  0  0  0  0  0  0  0  0
    1.9836   -1.0112    0.0000 C   0  0  0  0  0  0  0  0  0  0  0  0
    2.6793   -1.4546    0.0000 C   0  0  0  0  0  0  0  0  0  0  0  0
    2.6431   -2.2789    0.0000 C   0  0  0  0  0  0  0  0  0  0  0  0
    1.9112   -2.6596    0.0000 C   0  0  0  0  0  0  0  0  0  0  0  0
    1.2155   -2.2162    0.0000 C   0  0  0  0  0  0  0  0  0  0  0  0
    1.2517   -1.3920    0.0000 C   0  0  0  0  0  0  0  0  0  0  0  0
    0.6634   -0.8136    0.0000 N   0  0  0  0  0  0  0  0  0  0  0  0
    1.0317   -0.0754    0.0000 C   0  0  0  0  0  0  0  0  0  0  0  0
    0.6509    0.6565    0.0000 O   0  0  0  0  0  0  0  0  0  0  0  0
    3.3388   -2.7223    0.0000 Cl  0  0  0  0  0  0  0  0  0  0  0  0
    5.8995   -1.7254    0.0000 Cl  0  0  0  0  0  0  0  0  0  0  0  0
    6.1437   -0.0936    0.0000 F   0  0  0  0  0  0  0  0  0  0  0  0
    2.7356    2.7439    0.0000 H   0  0  0  0  0  0  0  0  0  0  0  0
    0.9495    2.2490    0.0000 H   0  0  0  0  0  0  0  0  0  0  0  0
    1.6997    3.0121    0.0000 H   0  0  0  0  0  0  0  0  0  0  0  0
    2.9558    1.9488    0.0000 H   0  0  0  0  0  0  0  0  0  0  0  0
    3.7546    1.7421    0.0000 H   0  0  0  0  0  0  0  0  0  0  0  0
    4.0402    0.7109    0.0000 H   0  0  0  0  0  0  0  0  0  0  0  0
    4.8833    1.1386    0.0000 H   0  0  0  0  0  0  0  0  0  0  0  0
    4.3335   -2.5345    0.0000 H   0  0  0  0  0  0  0  0  0  0  0  0
    2.5875   -2.0170    0.0000 H   0  0  0  0  0  0  0  0  0  0  0  0
    0.6398    0.8531    0.0000 H   0  0  0  0  0  0  0  0  0  0  0  0
    3.5948   -0.9783    0.0000 H   0  0  0  0  0  0  0  0  0  0  0  0
    1.8659   -3.6906    0.0000 H   0  0  0  0  0  0  0  0  0  0  0  0
    0.3000   -2.6925    0.0000 H   0  0  0  0  0  0  0  0  0  0  0  0
   -0.3076   -0.9758    0.0000 H   0  0  0  0  0  0  0  0  0  0  0  0
  1 27  1  0  0  0  0
  1 28  1  0  0  0  0
  1 29  1  0  0  0  0
  2  1  1  0  0  0  0
  2  3  1  0  0  0  0
  2 14  1  0  0  0  0
  2 30  1  6  0  0  0
  3  4  1  0  0  0  0
  3 31  1  0  0  0  0
  3 32  1  0  0  0  0
  4  5  1  0  0  0  0
  4 12  2  0  0  0  0
  5  6  2  0  0  0  0
  5 10  1  0  0  0  0
  6  7  1  0  0  0  0
  6 33  1  0  0  0  0
  7  8  2  0  0  0  0
  7 26  1  0  0  0  0
  8  9  1  0  0  0  0
  8 25  1  0  0  0  0
  9 10  2  0  0  0  0
  9 34  1  0  0  0  0
 10 11  1  0  0  0  0
 11 12  1  0  0  0  0
 11 35  1  0  0  0  0
 13 12  1  6  0  0  0
 13 14  1  0  0  0  0
 13 15  1  0  0  0  0
 13 22  1  0  0  0  0
 14 36  1  0  0  0  0
 15 16  2  0  0  0  0
 15 20  1  0  0  0  0
 16 17  1  0  0  0  0
 16 37  1  0  0  0  0
 17 18  2  0  0  0  0
 17 24  1  0  0  0  0
 18 19  1  0  0  0  0
 18 38  1  0  0  0  0
 19 20  2  0  0  0  0
 19 39  1  0  0  0  0
 20 21  1  0  0  0  0
 21 22  1  0  0  0  0
 21 40  1  0  0  0  0
 22 23  2  0  0  0  0
M  END
>  <DRUGBANK_ID>
DB12306

>  <COMMON_NAME>
Cipargamin

>  <CAS_NUMBER>
1193314-23-6

>  <UNII>
Z7Q4FWA04P

>  <SYNONYMS>
Cipargamin

$$$$
