
 OpenBabel10282417072D

 98103  0  0  0  0  0  0  0  0999 V2000
    5.8447    5.3814    0.0000 C   0  0  0  0  0  0  0  0  0  0  0  0
    5.1339    4.9626    0.0000 C   0  0  0  0  0  0  0  0  0  0  0  0
    5.1339    4.1503    0.0000 C   0  0  0  0  0  0  0  0  0  0  0  0
    4.4105    3.7315    0.0000 C   0  0  0  0  0  0  0  0  0  0  0  0
    4.4105    2.9065    0.0000 C   0  0  0  0  0  0  0  0  0  0  0  0
    3.6997    2.4876    0.0000 C   0  0  0  0  0  0  0  0  0  0  0  0
    3.6997    1.6626    0.0000 C   0  0  0  0  0  0  0  0  0  0  0  0
    4.4105    1.2565    0.0000 O   0  0  0  0  0  0  0  0  0  0  0  0
    2.9889    1.2565    0.0000 O   0  0  0  0  0  0  0  0  0  0  0  0
    2.9889    0.4314    0.0000 C   0  0  2  0  0  0  0  0  0  0  0  0
    2.2782    0.0126    0.0000 C   0  0  2  0  0  0  0  0  0  0  0  0
    2.2782   -0.8249    0.0000 C   0  0  1  0  0  0  0  0  0  0  0  0
    3.7124   -0.8249    0.0000 C   0  0  0  0  0  0  0  0  0  0  0  0
    3.7124    0.0000    0.0000 C   0  0  0  0  0  0  0  0  0  0  0  0
    1.5547   -1.2438    0.0000 C   0  0  2  0  0  0  0  0  0  0  0  0
    1.5547   -2.0688    0.0000 C   0  0  0  0  0  0  0  0  0  0  0  0
    0.8313   -2.4877    0.0000 C   0  0  0  0  0  0  0  0  0  0  0  0
    0.1078   -2.0688    0.0000 C   0  0  0  0  0  0  0  0  0  0  0  0
    0.1078   -1.2438    0.0000 C   0  0  2  0  0  0  0  0  0  0  0  0
    0.8313   -0.8249    0.0000 C   0  0  1  0  0  0  0  0  0  0  0  0
    0.8313    0.0126    0.0000 C   0  0  0  0  0  0  0  0  0  0  0  0
    1.5420    0.4188    0.0000 C   0  0  0  0  0  0  0  0  0  0  0  0
    0.8313   -1.7768    0.0000 H   0  0  0  0  0  0  0  0  0  0  0  0
    0.1078   -0.4188    0.0000 C   0  0  0  0  0  0  0  0  0  0  0  0
   -0.6028   -0.8249    0.0000 C   0  0  0  0  0  0  0  0  0  0  0  0
   -1.3136   -1.2438    0.0000 C   0  0  0  0  0  0  0  0  0  0  0  0
   -1.3136   -2.0688    0.0000 C   0  0  0  0  0  0  0  0  0  0  0  0
   -2.0244   -2.4877    0.0000 N   0  0  0  0  0  0  0  0  0  0  0  0
   -2.0244   -3.3126    0.0000 N   0  0  0  0  0  0  0  0  0  0  0  0
   -2.7478   -3.7315    0.0000 C   0  0  0  0  0  0  0  0  0  0  0  0
   -3.4586   -3.3126    0.0000 O   0  0  0  0  0  0  0  0  0  0  0  0
   -2.7478   -4.5438    0.0000 C   0  0  0  0  0  0  0  0  0  0  0  0
   -1.3009   -4.5438    0.0000 C   0  0  0  0  0  0  0  0  0  0  0  0
   -0.8821   -5.2545    0.0000 C   0  0  0  0  0  0  0  0  0  0  0  0
   -0.0571   -5.2545    0.0000 C   0  0  0  0  0  0  0  0  0  0  0  0
    0.3490   -4.5311    0.0000 C   0  0  0  0  0  0  0  0  0  0  0  0
   -0.0571   -3.8330    0.0000 C   0  0  0  0  0  0  0  0  0  0  0  0
   -0.8948   -3.8330    0.0000 C   0  0  0  0  0  0  0  0  0  0  0  0
   -4.1947   -4.5438    0.0000 C   0  0  0  0  0  0  0  0  0  0  0  0
   -4.6009   -3.8457    0.0000 C   0  0  0  0  0  0  0  0  0  0  0  0
   -5.4259   -3.8457    0.0000 C   0  0  0  0  0  0  0  0  0  0  0  0
   -5.8447   -4.5564    0.0000 C   0  0  0  0  0  0  0  0  0  0  0  0
   -5.4259   -5.2672    0.0000 C   0  0  0  0  0  0  0  0  0  0  0  0
   -4.6009   -5.2672    0.0000 C   0  0  0  0  0  0  0  0  0  0  0  0
   -2.7478   -5.3814    0.0000 O   0  0  0  0  0  0  0  0  0  0  0  0
   -0.6028   -2.4877    0.0000 C   0  0  0  0  0  0  0  0  0  0  0  0
    1.5547   -0.2792    0.0000 H   0  0  0  0  0  0  0  0  0  0  0  0
    2.2782   -1.7896    0.0000 H   0  0  0  0  0  0  0  0  0  0  0  0
    2.2021    0.9392    0.0000 C   0  0  0  0  0  0  0  0  0  0  0  0
   -1.5675   -3.5792    0.0000 H   0  0  0  0  0  0  0  0  0  0  0  0
    6.7760    4.8546    0.0000 H   0  0  0  0  0  0  0  0  0  0  0  0
    5.8352    6.4514    0.0000 H   0  0  0  0  0  0  0  0  0  0  0  0
    6.7666    5.9246    0.0000 H   0  0  0  0  0  0  0  0  0  0  0  0
    4.2049    5.4935    0.0000 H   0  0  0  0  0  0  0  0  0  0  0  0
    4.2084    4.4256    0.0000 H   0  0  0  0  0  0  0  0  0  0  0  0
    6.0609    3.6158    0.0000 H   0  0  0  0  0  0  0  0  0  0  0  0
    5.1349    3.0803    0.0000 H   0  0  0  0  0  0  0  0  0  0  0  0
    3.4835    4.2660    0.0000 H   0  0  0  0  0  0  0  0  0  0  0  0
    3.4840    3.1962    0.0000 H   0  0  0  0  0  0  0  0  0  0  0  0
    5.3395    2.3756    0.0000 H   0  0  0  0  0  0  0  0  0  0  0  0
    4.4177    1.8365    0.0000 H   0  0  0  0  0  0  0  0  0  0  0  0
    2.7707    3.0185    0.0000 H   0  0  0  0  0  0  0  0  0  0  0  0
    2.7743    1.9505    0.0000 H   0  0  0  0  0  0  0  0  0  0  0  0
    2.0599    0.9623    0.0000 H   0  0  0  0  0  0  0  0  0  0  0  0
    4.4690   -1.5815    0.0000 H   0  0  0  0  0  0  0  0  0  0  0  0
    4.7010   -0.4154    0.0000 H   0  0  0  0  0  0  0  0  0  0  0  0
    4.6428    0.5285    0.0000 H   0  0  0  0  0  0  0  0  0  0  0  0
    4.6372   -0.5383    0.0000 H   0  0  0  0  0  0  0  0  0  0  0  0
    2.4817   -2.6032    0.0000 H   0  0  0  0  0  0  0  0  0  0  0  0
    1.5557   -3.1388    0.0000 H   0  0  0  0  0  0  0  0  0  0  0  0
    0.8313   -3.5577    0.0000 H   0  0  0  0  0  0  0  0  0  0  0  0
   -0.0957   -3.0221    0.0000 H   0  0  0  0  0  0  0  0  0  0  0  0
   -0.0942    0.5496    0.0000 H   0  0  0  0  0  0  0  0  0  0  0  0
    0.8348    1.0826    0.0000 H   0  0  0  0  0  0  0  0  0  0  0  0
    1.5339    1.4888    0.0000 H   0  0  0  0  0  0  0  0  0  0  0  0
    0.6145    0.9523    0.0000 H   0  0  0  0  0  0  0  0  0  0  0  0
    1.0344    0.1162    0.0000 H   0  0  0  0  0  0  0  0  0  0  0  0
   -0.8188    0.1162    0.0000 H   0  0  0  0  0  0  0  0  0  0  0  0
    0.1078    0.6512    0.0000 H   0  0  0  0  0  0  0  0  0  0  0  0
   -0.6027    0.2451    0.0000 H   0  0  0  0  0  0  0  0  0  0  0  0
   -1.5318   -0.2940    0.0000 H   0  0  0  0  0  0  0  0  0  0  0  0
   -2.2426   -0.7129    0.0000 H   0  0  0  0  0  0  0  0  0  0  0  0
   -2.2390   -1.7809    0.0000 H   0  0  0  0  0  0  0  0  0  0  0  0
   -1.3941   -6.1505    0.0000 H   0  0  0  0  0  0  0  0  0  0  0  0
    0.4643   -6.1451    0.0000 H   0  0  0  0  0  0  0  0  0  0  0  0
    1.3810   -4.5232    0.0000 H   0  0  0  0  0  0  0  0  0  0  0  0
    0.4574   -2.9384    0.0000 H   0  0  0  0  0  0  0  0  0  0  0  0
   -1.4128   -2.9404    0.0000 H   0  0  0  0  0  0  0  0  0  0  0  0
   -4.0864   -2.9511    0.0000 H   0  0  0  0  0  0  0  0  0  0  0  0
   -5.9379   -2.9497    0.0000 H   0  0  0  0  0  0  0  0  0  0  0  0
   -6.8767   -4.5564    0.0000 H   0  0  0  0  0  0  0  0  0  0  0  0
   -5.9379   -6.1632    0.0000 H   0  0  0  0  0  0  0  0  0  0  0  0
   -4.0796   -6.1578    0.0000 H   0  0  0  0  0  0  0  0  0  0  0  0
   -3.5878   -5.8664    0.0000 H   0  0  0  0  0  0  0  0  0  0  0  0
   -0.6027   -3.5197    0.0000 H   0  0  0  0  0  0  0  0  0  0  0  0
    3.0818    1.5483    0.0000 H   0  0  0  0  0  0  0  0  0  0  0  0
    1.2348    1.3966    0.0000 H   0  0  0  0  0  0  0  0  0  0  0  0
    2.1145    2.0056    0.0000 H   0  0  0  0  0  0  0  0  0  0  0  0
  1  2  1  0  0  0  0
  1 51  1  0  0  0  0
  1 52  1  0  0  0  0
  1 53  1  0  0  0  0
  2  3  1  0  0  0  0
  2 54  1  0  0  0  0
  2 55  1  0  0  0  0
  3  4  1  0  0  0  0
  3 56  1  0  0  0  0
  3 57  1  0  0  0  0
  4  5  1  0  0  0  0
  4 58  1  0  0  0  0
  4 59  1  0  0  0  0
  5  6  1  0  0  0  0
  5 60  1  0  0  0  0
  5 61  1  0  0  0  0
  6  7  1  0  0  0  0
  6 62  1  0  0  0  0
  6 63  1  0  0  0  0
  7  8  2  0  0  0  0
  7  9  1  0  0  0  0
 10  9  1  0  0  0  0
 10 11  1  0  0  0  0
 10 14  1  0  0  0  0
 10 64  1  6  0  0  0
 11 12  1  0  0  0  0
 11 22  1  0  0  0  0
 11 49  1  1  0  0  0
 12 13  1  0  0  0  0
 12 15  1  0  0  0  0
 12 48  1  6  0  0  0
 13 14  1  0  0  0  0
 13 65  1  0  0  0  0
 13 66  1  0  0  0  0
 14 67  1  0  0  0  0
 14 68  1  0  0  0  0
 15 16  1  0  0  0  0
 15 20  1  0  0  0  0
 15 47  1  1  0  0  0
 16 17  1  0  0  0  0
 16 69  1  0  0  0  0
 16 70  1  0  0  0  0
 17 18  1  0  0  0  0
 17 71  1  0  0  0  0
 17 72  1  0  0  0  0
 18 19  1  0  0  0  0
 18 46  2  0  0  0  0
 19 20  1  0  0  0  0
 19 24  1  1  0  0  0
 19 25  1  0  0  0  0
 20 21  1  0  0  0  0
 20 23  1  6  0  0  0
 21 22  1  0  0  0  0
 21 73  1  0  0  0  0
 21 74  1  0  0  0  0
 22 75  1  0  0  0  0
 22 76  1  0  0  0  0
 24 77  1  0  0  0  0
 24 78  1  0  0  0  0
 24 79  1  0  0  0  0
 25 26  1  0  0  0  0
 25 80  1  0  0  0  0
 25 81  1  0  0  0  0
 26 27  1  0  0  0  0
 26 82  1  0  0  0  0
 26 83  1  0  0  0  0
 27 28  2  3  0  0  0
 27 46  1  0  0  0  0
 28 29  1  0  0  0  0
 29 30  1  0  0  0  0
 29 50  1  0  0  0  0
 30 31  2  0  0  0  0
 30 32  1  0  0  0  0
 32 33  1  0  0  0  0
 32 39  1  0  0  0  0
 32 45  1  0  0  0  0
 33 34  1  0  0  0  0
 33 38  2  0  0  0  0
 34 35  2  0  0  0  0
 34 84  1  0  0  0  0
 35 36  1  0  0  0  0
 35 85  1  0  0  0  0
 36 37  2  0  0  0  0
 36 86  1  0  0  0  0
 37 38  1  0  0  0  0
 37 87  1  0  0  0  0
 38 88  1  0  0  0  0
 39 40  1  0  0  0  0
 39 44  2  0  0  0  0
 40 41  2  0  0  0  0
 40 89  1  0  0  0  0
 41 42  1  0  0  0  0
 41 90  1  0  0  0  0
 42 43  2  0  0  0  0
 42 91  1  0  0  0  0
 43 44  1  0  0  0  0
 43 92  1  0  0  0  0
 44 93  1  0  0  0  0
 45 94  1  0  0  0  0
 46 95  1  0  0  0  0
 49 96  1  0  0  0  0
 49 97  1  0  0  0  0
 49 98  1  0  0  0  0
M  END
>  <DRUGBANK_ID>
DB13947

>  <SECONDARY_ACCESSION_NUMBERS>
DBSALT002571

>  <COMMON_NAME>
Testosterone enantate benzilic acid hydrazone

>  <CAS_NUMBER>
18625-33-7

>  <UNII>
X8Z8A2G2Y4

>  <SYNONYMS>
Testosterone 17-enanthate 3-benzilic acid hydrazone; Testosterone enanthate benzilic acid hydrazone

$$$$
