F1L
 OpenBabel10282417072D

 52 53  0  0  0  0  0  0  0  0999 V2000
    3.8704    1.1780    0.0000 C   0  0  0  0  0  0  0  0  0  0  0  0
    1.7270    0.7655    0.0000 C   0  0  0  0  0  0  0  0  0  0  0  0
    2.4415   -0.4720    0.0000 C   0  0  0  0  0  0  0  0  0  0  0  0
    3.1560   -0.0595    0.0000 C   0  0  0  0  0  0  0  0  0  0  0  0
    3.8704   -0.4720    0.0000 C   0  0  0  0  0  0  0  0  0  0  0  0
    1.7270   -0.0595    0.0000 O   0  0  0  0  0  0  0  0  0  0  0  0
    3.1560   -1.7095    0.0000 C   0  0  0  0  0  0  0  0  0  0  0  0
   -3.9887   -0.0595    0.0000 C   0  0  0  0  0  0  0  0  0  0  0  0
   -3.2743   -0.4720    0.0000 C   0  0  0  0  0  0  0  0  0  0  0  0
   -2.5598   -0.0595    0.0000 C   0  0  0  0  0  0  0  0  0  0  0  0
   -1.8453   -0.4720    0.0000 C   0  0  0  0  0  0  0  0  0  0  0  0
    0.2981   -1.7095    0.0000 C   0  0  0  0  0  0  0  0  0  0  0  0
   -0.4164   -1.2970    0.0000 C   0  0  0  0  0  0  0  0  0  0  0  0
   -0.4164   -0.4720    0.0000 C   0  0  0  0  0  0  0  0  0  0  0  0
    1.0126   -0.4720    0.0000 C   0  0  0  0  0  0  0  0  0  0  0  0
    0.2981   -0.0595    0.0000 C   0  0  0  0  0  0  0  0  0  0  0  0
    4.5849   -1.7095    0.0000 Br  0  0  0  0  0  0  0  0  0  0  0  0
    3.8704   -1.2970    0.0000 C   0  0  0  0  0  0  0  0  0  0  0  0
    3.1560    0.7655    0.0000 O   0  0  0  0  0  0  0  0  0  0  0  0
    2.4415   -1.2970    0.0000 C   0  0  0  0  0  0  0  0  0  0  0  0
    1.7270   -1.7095    0.0000 C   0  0  0  0  0  0  0  0  0  0  0  0
    1.0126   -1.2970    0.0000 N   0  0  0  0  0  0  0  0  0  0  0  0
   -1.1308   -0.0595    0.0000 N   0  0  0  0  0  0  0  0  0  0  0  0
   -1.8453   -1.2970    0.0000 O   0  0  0  0  0  0  0  0  0  0  0  0
   -4.7032   -0.4720    0.0000 S   0  0  0  0  0  0  0  0  0  0  0  0
    4.7971    0.6430    0.0000 H   0  0  0  0  0  0  0  0  0  0  0  0
    3.8704    2.2480    0.0000 H   0  0  0  0  0  0  0  0  0  0  0  0
    4.7970    1.7130    0.0000 H   0  0  0  0  0  0  0  0  0  0  0  0
    2.6536    1.3005    0.0000 H   0  0  0  0  0  0  0  0  0  0  0  0
    0.8004    1.3005    0.0000 H   0  0  0  0  0  0  0  0  0  0  0  0
    1.7270    1.8355    0.0000 H   0  0  0  0  0  0  0  0  0  0  0  0
    4.7641    0.0440    0.0000 H   0  0  0  0  0  0  0  0  0  0  0  0
    3.1560   -2.7415    0.0000 H   0  0  0  0  0  0  0  0  0  0  0  0
   -3.9887    1.0105    0.0000 H   0  0  0  0  0  0  0  0  0  0  0  0
   -4.9153    0.4755    0.0000 H   0  0  0  0  0  0  0  0  0  0  0  0
   -3.2743   -1.5420    0.0000 H   0  0  0  0  0  0  0  0  0  0  0  0
   -2.3477   -1.0070    0.0000 H   0  0  0  0  0  0  0  0  0  0  0  0
   -2.5598    1.0105    0.0000 H   0  0  0  0  0  0  0  0  0  0  0  0
   -1.6332    0.4755    0.0000 H   0  0  0  0  0  0  0  0  0  0  0  0
    0.2981   -2.7795    0.0000 H   0  0  0  0  0  0  0  0  0  0  0  0
    1.2247   -2.2445    0.0000 H   0  0  0  0  0  0  0  0  0  0  0  0
   -1.3430   -1.8320    0.0000 H   0  0  0  0  0  0  0  0  0  0  0  0
   -1.3430   -0.7620    0.0000 H   0  0  0  0  0  0  0  0  0  0  0  0
   -0.4164    0.5980    0.0000 H   0  0  0  0  0  0  0  0  0  0  0  0
    1.9392    0.0630    0.0000 H   0  0  0  0  0  0  0  0  0  0  0  0
    1.9392   -1.0070    0.0000 H   0  0  0  0  0  0  0  0  0  0  0  0
    0.2981    1.0105    0.0000 H   0  0  0  0  0  0  0  0  0  0  0  0
    1.2247    0.4755    0.0000 H   0  0  0  0  0  0  0  0  0  0  0  0
    1.7270   -2.7795    0.0000 H   0  0  0  0  0  0  0  0  0  0  0  0
    0.8003   -2.2445    0.0000 H   0  0  0  0  0  0  0  0  0  0  0  0
   -1.1308    0.9250    0.0000 H   0  0  0  0  0  0  0  0  0  0  0  0
   -5.8810    0.2080    0.0000 H   0  0  0  0  0  0  0  0  0  0  0  0
  1 19  1  0  0  0  0
  1 26  1  0  0  0  0
  1 27  1  0  0  0  0
  1 28  1  0  0  0  0
  2  6  1  0  0  0  0
  2 29  1  0  0  0  0
  2 30  1  0  0  0  0
  2 31  1  0  0  0  0
  3  4  2  0  0  0  0
  3  6  1  0  0  0  0
  3 20  1  0  0  0  0
  4  5  1  0  0  0  0
  4 19  1  0  0  0  0
  5 18  2  0  0  0  0
  5 32  1  0  0  0  0
  7 18  1  0  0  0  0
  7 20  2  0  0  0  0
  7 33  1  0  0  0  0
  8  9  1  0  0  0  0
  8 25  1  0  0  0  0
  8 34  1  0  0  0  0
  8 35  1  0  0  0  0
  9 10  1  0  0  0  0
  9 36  1  0  0  0  0
  9 37  1  0  0  0  0
 10 11  1  0  0  0  0
 10 38  1  0  0  0  0
 10 39  1  0  0  0  0
 11 23  1  0  0  0  0
 11 24  2  0  0  0  0
 12 13  1  0  0  0  0
 12 22  1  0  0  0  0
 12 40  1  0  0  0  0
 12 41  1  0  0  0  0
 13 14  1  0  0  0  0
 13 42  1  0  0  0  0
 13 43  1  0  0  0  0
 14 16  1  0  0  0  0
 14 23  1  0  0  0  0
 14 44  1  0  0  0  0
 15 16  1  0  0  0  0
 15 22  1  0  0  0  0
 15 45  1  0  0  0  0
 15 46  1  0  0  0  0
 16 47  1  0  0  0  0
 16 48  1  0  0  0  0
 17 18  1  0  0  0  0
 20 21  1  0  0  0  0
 21 22  1  0  0  0  0
 21 49  1  0  0  0  0
 21 50  1  0  0  0  0
 23 51  1  0  0  0  0
 25 52  1  0  0  0  0
M  END
>  <DRUGBANK_ID>
DB07738

>  <COMMON_NAME>
N-[1-(5-bromo-2,3-dimethoxybenzyl)piperidin-4-yl]-4-sulfanylbutanamide

$$$$
