PY8
 OpenBabel10282417072D

 36 38  0  0  0  0  0  0  0  0999 V2000
    4.9485   -0.1974    0.0000 Br  0  0  0  0  0  0  0  0  0  0  0  0
    4.2341    0.2151    0.0000 C   0  0  0  0  0  0  0  0  0  0  0  0
    4.2341    1.0401    0.0000 C   0  0  0  0  0  0  0  0  0  0  0  0
    3.5196    1.4526    0.0000 N   0  0  0  0  0  0  0  0  0  0  0  0
    2.8051    1.0401    0.0000 C   0  0  0  0  0  0  0  0  0  0  0  0
    2.8051    0.2151    0.0000 N   0  0  0  0  0  0  0  0  0  0  0  0
    3.5196   -0.1974    0.0000 C   0  0  0  0  0  0  0  0  0  0  0  0
    3.5196   -1.0224    0.0000 N   0  0  0  0  0  0  0  0  0  0  0  0
    2.7581   -1.5073    0.0000 C   0  0  0  0  0  0  0  0  0  0  0  0
    2.5031   -2.2919    0.0000 C   0  0  0  0  0  0  0  0  0  0  0  0
    1.6781   -2.2919    0.0000 C   0  0  0  0  0  0  0  0  0  0  0  0
    1.4232   -1.5073    0.0000 N   0  0  0  0  0  0  0  0  0  0  0  0
    0.6617   -1.0224    0.0000 S   0  0  0  0  0  0  0  0  0  0  0  0
    0.3572   -1.7891    0.0000 O   0  0  0  0  0  0  0  0  0  0  0  0
   -0.1486   -0.8674    0.0000 O   0  0  0  0  0  0  0  0  0  0  0  0
    0.6617   -0.1974    0.0000 C   0  0  0  0  0  0  0  0  0  0  0  0
    1.3762    0.2151    0.0000 C   0  0  0  0  0  0  0  0  0  0  0  0
   -0.0528    0.2151    0.0000 C   0  0  0  0  0  0  0  0  0  0  0  0
   -0.0528    1.0401    0.0000 C   0  0  0  0  0  0  0  0  0  0  0  0
    0.6617    1.4526    0.0000 C   0  0  0  0  0  0  0  0  0  0  0  0
    1.3762    1.0401    0.0000 C   0  0  0  0  0  0  0  0  0  0  0  0
    2.0906    1.4526    0.0000 N   0  0  0  0  0  0  0  0  0  0  0  0
    5.1278    1.5561    0.0000 H   0  0  0  0  0  0  0  0  0  0  0  0
    4.3827   -1.4960    0.0000 H   0  0  0  0  0  0  0  0  0  0  0  0
    1.9122   -0.8521    0.0000 H   0  0  0  0  0  0  0  0  0  0  0  0
    1.7355   -1.8223    0.0000 H   0  0  0  0  0  0  0  0  0  0  0  0
    3.1320   -3.1576    0.0000 H   0  0  0  0  0  0  0  0  0  0  0  0
    2.0173   -3.2453    0.0000 H   0  0  0  0  0  0  0  0  0  0  0  0
    1.0492   -3.1575    0.0000 H   0  0  0  0  0  0  0  0  0  0  0  0
    0.6213   -2.1245    0.0000 H   0  0  0  0  0  0  0  0  0  0  0  0
    2.2296   -0.8828    0.0000 H   0  0  0  0  0  0  0  0  0  0  0  0
    2.2699   -0.3009    0.0000 H   0  0  0  0  0  0  0  0  0  0  0  0
   -0.9465   -0.3009    0.0000 H   0  0  0  0  0  0  0  0  0  0  0  0
   -0.9465    1.5561    0.0000 H   0  0  0  0  0  0  0  0  0  0  0  0
    0.6617    2.4846    0.0000 H   0  0  0  0  0  0  0  0  0  0  0  0
    2.0906    2.4371    0.0000 H   0  0  0  0  0  0  0  0  0  0  0  0
  1  2  1  0  0  0  0
  2  3  1  0  0  0  0
  2  7  2  0  0  0  0
  3  4  2  0  0  0  0
  3 23  1  0  0  0  0
  4  5  1  0  0  0  0
  5  6  2  0  0  0  0
  5 22  1  0  0  0  0
  6  7  1  0  0  0  0
  7  8  1  0  0  0  0
  8  9  1  0  0  0  0
  8 24  1  0  0  0  0
  9 10  1  0  0  0  0
  9 25  1  0  0  0  0
  9 26  1  0  0  0  0
 10 11  1  0  0  0  0
 10 27  1  0  0  0  0
 10 28  1  0  0  0  0
 11 12  1  0  0  0  0
 11 29  1  0  0  0  0
 11 30  1  0  0  0  0
 12 13  1  0  0  0  0
 12 31  1  0  0  0  0
 13 14  2  0  0  0  0
 13 15  2  0  0  0  0
 13 16  1  0  0  0  0
 16 17  1  0  0  0  0
 16 18  2  0  0  0  0
 17 21  2  0  0  0  0
 17 32  1  0  0  0  0
 18 19  1  0  0  0  0
 18 33  1  0  0  0  0
 19 20  2  0  0  0  0
 19 34  1  0  0  0  0
 20 21  1  0  0  0  0
 20 35  1  0  0  0  0
 21 22  1  0  0  0  0
 22 36  1  0  0  0  0
M  END
>  <DRUGBANK_ID>
DB08441

>  <COMMON_NAME>
6-BROMO-13-THIA-2,4,8,12,19-PENTAAZATRICYCLO[12.3.1.1~3,7~]NONADECA-1(18),3(19),4,6,14,16-HEXAENE 13,13-DIOXIDE

$$$$
