
 OpenBabel10282417072D

 31 32  0  0  0  0  0  0  0  0999 V2000
   -0.0392   -1.8401    0.0000 N   0  0  0  0  0  0  0  0  0  0  0  0
   -0.7067   -2.3250    0.0000 C   0  0  0  0  0  0  0  0  0  0  0  0
    0.6281   -2.3251    0.0000 C   0  0  0  0  0  0  0  0  0  0  0  0
   -0.0391   -1.0151    0.0000 C   0  0  0  0  0  0  0  0  0  0  0  0
   -0.4518   -3.1096    0.0000 N   0  0  0  0  0  0  0  0  0  0  0  0
   -1.4913   -2.0700    0.0000 N   0  3  0  0  0  0  0  0  0  0  0  0
    0.3731   -3.1096    0.0000 C   0  0  0  0  0  0  0  0  0  0  0  0
    0.6753   -0.6027    0.0000 C   0  0  0  0  0  0  0  0  0  0  0  0
   -2.1044   -2.6220    0.0000 O   0  0  0  0  0  0  0  0  0  0  0  0
   -1.6627   -1.2630    0.0000 O   0  5  0  0  0  0  0  0  0  0  0  0
    0.6753    0.2222    0.0000 N   0  0  0  0  0  0  0  0  0  0  0  0
    1.3896   -1.0152    0.0000 O   0  0  0  0  0  0  0  0  0  0  0  0
    1.3898    0.6347    0.0000 C   0  0  0  0  0  0  0  0  0  0  0  0
    1.3899    1.4597    0.0000 C   0  0  0  0  0  0  0  0  0  0  0  0
    2.1044    1.8721    0.0000 C   0  0  0  0  0  0  0  0  0  0  0  0
    0.6754    1.8722    0.0000 C   0  0  0  0  0  0  0  0  0  0  0  0
    2.1044    2.6971    0.0000 C   0  0  0  0  0  0  0  0  0  0  0  0
    0.6755    2.6972    0.0000 C   0  0  0  0  0  0  0  0  0  0  0  0
    1.3900    3.1096    0.0000 C   0  0  0  0  0  0  0  0  0  0  0  0
    1.6096   -2.0063    0.0000 H   0  0  0  0  0  0  0  0  0  0  0  0
   -0.9657   -0.4800    0.0000 H   0  0  0  0  0  0  0  0  0  0  0  0
   -0.0390    0.0549    0.0000 H   0  0  0  0  0  0  0  0  0  0  0  0
    0.9796   -3.9445    0.0000 H   0  0  0  0  0  0  0  0  0  0  0  0
   -0.1773    0.7145    0.0000 H   0  0  0  0  0  0  0  0  0  0  0  0
    2.3164    0.0996    0.0000 H   0  0  0  0  0  0  0  0  0  0  0  0
    2.3165    1.1696    0.0000 H   0  0  0  0  0  0  0  0  0  0  0  0
    2.9981    1.3560    0.0000 H   0  0  0  0  0  0  0  0  0  0  0  0
   -0.2184    1.3562    0.0000 H   0  0  0  0  0  0  0  0  0  0  0  0
    2.9981    3.2131    0.0000 H   0  0  0  0  0  0  0  0  0  0  0  0
   -0.2182    3.2133    0.0000 H   0  0  0  0  0  0  0  0  0  0  0  0
    1.3901    4.1416    0.0000 H   0  0  0  0  0  0  0  0  0  0  0  0
  1  2  1  0  0  0  0
  1  3  1  0  0  0  0
  1  4  1  0  0  0  0
  2  5  2  0  0  0  0
  2  6  1  0  0  0  0
  3  7  2  0  0  0  0
  3 20  1  0  0  0  0
  4  8  1  0  0  0  0
  4 21  1  0  0  0  0
  4 22  1  0  0  0  0
  5  7  1  0  0  0  0
  6  9  2  0  0  0  0
  6 10  1  0  0  0  0
  7 23  1  0  0  0  0
  8 11  1  0  0  0  0
  8 12  2  0  0  0  0
 11 13  1  0  0  0  0
 11 24  1  0  0  0  0
 13 14  1  0  0  0  0
 13 25  1  0  0  0  0
 13 26  1  0  0  0  0
 14 15  2  0  0  0  0
 14 16  1  0  0  0  0
 15 17  1  0  0  0  0
 15 27  1  0  0  0  0
 16 18  2  0  0  0  0
 16 28  1  0  0  0  0
 17 19  2  0  0  0  0
 17 29  1  0  0  0  0
 18 19  1  0  0  0  0
 18 30  1  0  0  0  0
 19 31  1  0  0  0  0
M  CHG  2   6   1  10  -1
M  END
>  <DRUGBANK_ID>
DB11989

>  <COMMON_NAME>
Benznidazole

>  <CAS_NUMBER>
22994-85-0

>  <UNII>
YC42NRJ1ZD

>  <SYNONYMS>
Benznidazol; Benznidazole; Benznidazolum

$$$$
