
 OpenBabel10282417072D

 48 49  0  0  0  0  0  0  0  0999 V2000
    5.2224    2.8876    0.0000 I   0  0  0  0  0  0  0  0  0  0  0  0
    2.3645   -2.8876    0.0000 I   0  0  0  0  0  0  0  0  0  0  0  0
    8.0804    2.8876    0.0000 I   0  0  0  0  0  0  0  0  0  0  0  0
    5.2224   -2.8876    0.0000 I   0  0  0  0  0  0  0  0  0  0  0  0
    6.6515    5.3626    0.0000 I   0  0  0  0  0  0  0  0  0  0  0  0
    3.7935   -5.3626    0.0000 I   0  0  0  0  0  0  0  0  0  0  0  0
    5.2224    2.0625    0.0000 O   0  0  0  0  0  0  0  0  0  0  0  0
    5.2224   -2.0625    0.0000 O   0  0  0  0  0  0  0  0  0  0  0  0
    5.2224    5.3626    0.0000 O   0  0  0  0  0  0  0  0  0  0  0  0
    2.3645   -5.3626    0.0000 O   0  0  0  0  0  0  0  0  0  0  0  0
    4.5080    4.1251    0.0000 O   0  0  0  0  0  0  0  0  0  0  0  0
    1.6500   -4.1251    0.0000 O   0  0  0  0  0  0  0  0  0  0  0  0
    6.6515    2.0625    0.0000 N   0  0  0  0  0  0  0  0  0  0  0  0
    3.7935   -2.0625    0.0000 N   0  0  0  0  0  0  0  0  0  0  0  0
    5.2224    0.4125    0.0000 C   0  0  0  0  0  0  0  0  0  0  0  0
    5.2224   -0.4125    0.0000 C   0  0  0  0  0  0  0  0  0  0  0  0
    5.9370    0.8250    0.0000 C   0  0  0  0  0  0  0  0  0  0  0  0
    4.5080   -0.8250    0.0000 C   0  0  0  0  0  0  0  0  0  0  0  0
    5.9370    1.6500    0.0000 C   0  0  0  0  0  0  0  0  0  0  0  0
    4.5080   -1.6500    0.0000 C   0  0  0  0  0  0  0  0  0  0  0  0
    6.6515    2.8876    0.0000 C   0  0  0  0  0  0  0  0  0  0  0  0
    3.7935   -2.8876    0.0000 C   0  0  0  0  0  0  0  0  0  0  0  0
    5.9370    3.3001    0.0000 C   0  0  0  0  0  0  0  0  0  0  0  0
    3.0791   -3.3001    0.0000 C   0  0  0  0  0  0  0  0  0  0  0  0
    7.3659    3.3001    0.0000 C   0  0  0  0  0  0  0  0  0  0  0  0
    4.5080   -3.3001    0.0000 C   0  0  0  0  0  0  0  0  0  0  0  0
    5.9370    4.1251    0.0000 C   0  0  0  0  0  0  0  0  0  0  0  0
    3.0791   -4.1251    0.0000 C   0  0  0  0  0  0  0  0  0  0  0  0
    7.3659    4.1251    0.0000 C   0  0  0  0  0  0  0  0  0  0  0  0
    4.5080   -4.1251    0.0000 C   0  0  0  0  0  0  0  0  0  0  0  0
    6.6515    4.5376    0.0000 C   0  0  0  0  0  0  0  0  0  0  0  0
    3.7935   -4.5376    0.0000 C   0  0  0  0  0  0  0  0  0  0  0  0
    5.2224    4.5376    0.0000 C   0  0  0  0  0  0  0  0  0  0  0  0
    2.3645   -4.5376    0.0000 C   0  0  0  0  0  0  0  0  0  0  0  0
    6.0339    5.8311    0.0000 H   0  0  0  0  0  0  0  0  0  0  0  0
    1.5530   -5.8311    0.0000 H   0  0  0  0  0  0  0  0  0  0  0  0
    7.5041    1.5702    0.0000 H   0  0  0  0  0  0  0  0  0  0  0  0
    2.9409   -1.5702    0.0000 H   0  0  0  0  0  0  0  0  0  0  0  0
    4.2958    0.9475    0.0000 H   0  0  0  0  0  0  0  0  0  0  0  0
    5.2225    1.4825    0.0000 H   0  0  0  0  0  0  0  0  0  0  0  0
    6.1491   -0.9475    0.0000 H   0  0  0  0  0  0  0  0  0  0  0  0
    5.2224   -1.4825    0.0000 H   0  0  0  0  0  0  0  0  0  0  0  0
    6.8636    0.2900    0.0000 H   0  0  0  0  0  0  0  0  0  0  0  0
    6.8637    1.3600    0.0000 H   0  0  0  0  0  0  0  0  0  0  0  0
    3.5813   -0.2900    0.0000 H   0  0  0  0  0  0  0  0  0  0  0  0
    3.5814   -1.3600    0.0000 H   0  0  0  0  0  0  0  0  0  0  0  0
    8.2596    4.6411    0.0000 H   0  0  0  0  0  0  0  0  0  0  0  0
    5.4017   -4.6411    0.0000 H   0  0  0  0  0  0  0  0  0  0  0  0
  1 23  1  0  0  0  0
  2 24  1  0  0  0  0
  3 25  1  0  0  0  0
  4 26  1  0  0  0  0
  5 31  1  0  0  0  0
  6 32  1  0  0  0  0
  7 19  2  0  0  0  0
  8 20  2  0  0  0  0
  9 33  1  0  0  0  0
  9 35  1  0  0  0  0
 10 34  1  0  0  0  0
 10 36  1  0  0  0  0
 11 33  2  0  0  0  0
 12 34  2  0  0  0  0
 13 19  1  0  0  0  0
 13 21  1  0  0  0  0
 13 37  1  0  0  0  0
 14 20  1  0  0  0  0
 14 22  1  0  0  0  0
 14 38  1  0  0  0  0
 15 16  1  0  0  0  0
 15 17  1  0  0  0  0
 15 39  1  0  0  0  0
 15 40  1  0  0  0  0
 16 18  1  0  0  0  0
 16 41  1  0  0  0  0
 16 42  1  0  0  0  0
 17 19  1  0  0  0  0
 17 43  1  0  0  0  0
 17 44  1  0  0  0  0
 18 20  1  0  0  0  0
 18 45  1  0  0  0  0
 18 46  1  0  0  0  0
 21 23  1  0  0  0  0
 21 25  2  0  0  0  0
 22 24  1  0  0  0  0
 22 26  2  0  0  0  0
 23 27  2  0  0  0  0
 24 28  2  0  0  0  0
 25 29  1  0  0  0  0
 26 30  1  0  0  0  0
 27 31  1  0  0  0  0
 27 33  1  0  0  0  0
 28 32  1  0  0  0  0
 28 34  1  0  0  0  0
 29 31  2  0  0  0  0
 29 47  1  0  0  0  0
 30 32  2  0  0  0  0
 30 48  1  0  0  0  0
M  END
>  <DRUGBANK_ID>
DB04711

>  <COMMON_NAME>
Iodipamide

>  <CAS_NUMBER>
606-17-7

>  <UNII>
TKQ858A3VW

>  <SYNONYMS>
3,3'-(adipoyldiimino)bis(2,4,6-triiodobenzoic acid); Adipiodona; Adipiodone; Adipiodonum; Iodipamide

$$$$
