A04
 OpenBabel10282417072D

 26 27  0  0  0  0  0  0  0  0999 V2000
   -1.0987    2.6538    0.0000 O   0  0  0  0  0  0  0  0  0  0  0  0
   -0.3842    2.2413    0.0000 C   0  0  0  0  0  0  0  0  0  0  0  0
    0.3303    2.6538    0.0000 O   0  0  0  0  0  0  0  0  0  0  0  0
   -0.3842    1.4163    0.0000 C   0  0  0  0  0  0  0  0  0  0  0  0
    0.2833    0.9314    0.0000 O   0  0  0  0  0  0  0  0  0  0  0  0
   -1.0516    0.9314    0.0000 C   0  0  0  0  0  0  0  0  0  0  0  0
   -0.7967    0.1468    0.0000 C   0  0  0  0  0  0  0  0  0  0  0  0
    0.0283    0.1468    0.0000 C   0  0  0  0  0  0  0  0  0  0  0  0
    0.5132   -0.5207    0.0000 C   0  0  0  0  0  0  0  0  0  0  0  0
    1.3337   -0.4344    0.0000 C   0  0  0  0  0  0  0  0  0  0  0  0
    1.8186   -1.1019    0.0000 C   0  0  0  0  0  0  0  0  0  0  0  0
    1.4831   -1.8556    0.0000 C   0  0  0  0  0  0  0  0  0  0  0  0
    0.6626   -1.9418    0.0000 C   0  0  0  0  0  0  0  0  0  0  0  0
    0.1777   -1.2744    0.0000 C   0  0  0  0  0  0  0  0  0  0  0  0
   -0.6428   -1.3606    0.0000 O   0  0  0  0  0  0  0  0  0  0  0  0
   -0.9784   -2.1143    0.0000 C   0  0  0  0  0  0  0  0  0  0  0  0
   -1.3139   -2.8679    0.0000 F   0  0  0  0  0  0  0  0  0  0  0  0
   -1.7320   -1.7787    0.0000 F   0  0  0  0  0  0  0  0  0  0  0  0
   -0.2247   -2.4498    0.0000 F   0  0  0  0  0  0  0  0  0  0  0  0
   -1.0987    3.5908    0.0000 H   0  0  0  0  0  0  0  0  0  0  0  0
   -2.0331    1.2503    0.0000 H   0  0  0  0  0  0  0  0  0  0  0  0
   -1.4033   -0.6881    0.0000 H   0  0  0  0  0  0  0  0  0  0  0  0
    1.7534    0.5084    0.0000 H   0  0  0  0  0  0  0  0  0  0  0  0
    2.8449   -0.9940    0.0000 H   0  0  0  0  0  0  0  0  0  0  0  0
    2.0897   -2.6905    0.0000 H   0  0  0  0  0  0  0  0  0  0  0  0
    0.2428   -2.8846    0.0000 H   0  0  0  0  0  0  0  0  0  0  0  0
  1  2  1  0  0  0  0
  1 20  1  0  0  0  0
  2  3  2  0  0  0  0
  2  4  1  0  0  0  0
  4  5  1  0  0  0  0
  4  6  2  0  0  0  0
  5  8  1  0  0  0  0
  6  7  1  0  0  0  0
  6 21  1  0  0  0  0
  7  8  2  0  0  0  0
  7 22  1  0  0  0  0
  8  9  1  0  0  0  0
  9 10  1  0  0  0  0
  9 14  2  0  0  0  0
 10 11  2  0  0  0  0
 10 23  1  0  0  0  0
 11 12  1  0  0  0  0
 11 24  1  0  0  0  0
 12 13  2  0  0  0  0
 12 25  1  0  0  0  0
 13 14  1  0  0  0  0
 13 26  1  0  0  0  0
 14 15  1  0  0  0  0
 15 16  1  0  0  0  0
 16 17  1  0  0  0  0
 16 18  1  0  0  0  0
 16 19  1  0  0  0  0
M  END
>  <DRUGBANK_ID>
DB07304

>  <COMMON_NAME>
5-[2-(TRIFLUOROMETHOXY)PHENYL]-2-FUROIC ACID

$$$$
