1080
 OpenBabel10282417072D

 20 19  0  0  1  0  0  0  0  0999 V2000
    2.0930    0.0000    0.0000 O   0  0  0  0  0  0  0  0  0  0  0  0
    2.8075    1.2375    0.0000 O   0  0  0  0  0  0  0  0  0  0  0  0
    5.6655    0.4125    0.0000 N   0  0  0  0  0  0  0  0  0  0  0  0
    4.2365    0.4125    0.0000 C   0  0  0  0  0  0  0  0  0  0  0  0
    4.9509    0.0000    0.0000 C   0  0  3  0  0  0  0  0  0  0  0  0
    3.5220    0.0000    0.0000 C   0  0  0  0  0  0  0  0  0  0  0  0
    4.9509   -0.8250    0.0000 C   0  0  0  0  0  0  0  0  0  0  0  0
    2.8075    0.4125    0.0000 C   0  0  0  0  0  0  0  0  0  0  0  0
    4.2365   -1.2375    0.0000 C   0  0  0  0  0  0  0  0  0  0  0  0
    1.2815    0.4685    0.0000 H   0  0  0  0  0  0  0  0  0  0  0  0
    6.5488   -0.0976    0.0000 H   0  0  0  0  0  0  0  0  0  0  0  0
    5.6656    1.4325    0.0000 H   0  0  0  0  0  0  0  0  0  0  0  0
    4.2365    1.4825    0.0000 H   0  0  0  0  0  0  0  0  0  0  0  0
    3.3099    0.9475    0.0000 H   0  0  0  0  0  0  0  0  0  0  0  0
    4.9510    1.0700    0.0000 H   0  0  0  0  0  0  0  0  0  0  0  0
    3.5220   -1.0700    0.0000 H   0  0  0  0  0  0  0  0  0  0  0  0
    2.5954   -0.5350    0.0000 H   0  0  0  0  0  0  0  0  0  0  0  0
    5.8446   -1.3410    0.0000 H   0  0  0  0  0  0  0  0  0  0  0  0
    3.3427   -0.7215    0.0000 H   0  0  0  0  0  0  0  0  0  0  0  0
    4.2365   -2.2695    0.0000 H   0  0  0  0  0  0  0  0  0  0  0  0
  1  8  1  0  0  0  0
  1 10  1  0  0  0  0
  2  8  2  0  0  0  0
  3  5  1  0  0  0  0
  3 11  1  0  0  0  0
  3 12  1  0  0  0  0
  4  5  1  0  0  0  0
  4  6  1  0  0  0  0
  4 13  1  0  0  0  0
  4 14  1  0  0  0  0
  5  7  1  0  0  0  0
  5 15  1  0  0  0  0
  6  8  1  0  0  0  0
  6 16  1  0  0  0  0
  6 17  1  0  0  0  0
  7  9  2  0  0  0  0
  7 18  1  0  0  0  0
  9 19  1  0  0  0  0
  9 20  1  0  0  0  0
M  END
>  <DRUGBANK_ID>
DB01080

>  <SECONDARY_ACCESSION_NUMBERS>
APRD00282

>  <COMMON_NAME>
Vigabatrin

>  <CAS_NUMBER>
68506-86-5

>  <UNII>
GR120KRT6K

>  <SYNONYMS>
4-Amino-5-hexenoic acid; Gamma vinyl GABA; gamma-Vinyl GABA; gamma-Vinyl-gamma-aminobutyric acid; GVG; Vigabatrin; Vigabatrina; Vigabatrine; Vigabatrinum; Vinyl gamma-aminobutyric acid

$$$$
