HEF
 OpenBabel10282417072D

 37 38  0  0  0  0  0  0  0  0999 V2000
    0.2806   -0.6902    0.0000 N   0  0  0  0  0  0  0  0  0  0  0  0
    0.2806   -1.5152    0.0000 C   0  0  0  0  0  0  0  0  0  0  0  0
    0.9951   -1.9277    0.0000 O   0  0  0  0  0  0  0  0  0  0  0  0
   -0.4339   -1.9277    0.0000 N   0  0  0  0  0  0  0  0  0  0  0  0
   -1.1483   -1.5152    0.0000 C   0  0  0  0  0  0  0  0  0  0  0  0
   -1.8628   -1.9277    0.0000 O   0  0  0  0  0  0  0  0  0  0  0  0
   -1.1483   -0.6902    0.0000 C   0  0  0  0  0  0  0  0  0  0  0  0
   -0.4339   -0.2777    0.0000 C   0  0  0  0  0  0  0  0  0  0  0  0
   -1.8628   -0.2777    0.0000 C   0  0  0  0  0  0  0  0  0  0  0  0
    0.9951   -0.2777    0.0000 C   0  0  0  0  0  0  0  0  0  0  0  0
    1.7095   -0.6902    0.0000 O   0  0  0  0  0  0  0  0  0  0  0  0
    2.4240   -0.2777    0.0000 C   0  0  0  0  0  0  0  0  0  0  0  0
    3.1385   -0.6902    0.0000 C   0  0  0  0  0  0  0  0  0  0  0  0
    3.8530   -0.2777    0.0000 O   0  0  0  0  0  0  0  0  0  0  0  0
   -0.4339    0.5473    0.0000 S   0  0  0  0  0  0  0  0  0  0  0  0
   -1.1483    0.9598    0.0000 C   0  0  0  0  0  0  0  0  0  0  0  0
   -1.8628    0.5473    0.0000 C   0  0  0  0  0  0  0  0  0  0  0  0
   -2.5773    0.9598    0.0000 C   0  0  0  0  0  0  0  0  0  0  0  0
   -2.5773    1.7848    0.0000 C   0  0  0  0  0  0  0  0  0  0  0  0
   -1.8628    2.1973    0.0000 C   0  0  0  0  0  0  0  0  0  0  0  0
   -1.1483    1.7848    0.0000 C   0  0  0  0  0  0  0  0  0  0  0  0
   -0.4339   -2.9122    0.0000 H   0  0  0  0  0  0  0  0  0  0  0  0
   -1.8628    0.7923    0.0000 H   0  0  0  0  0  0  0  0  0  0  0  0
   -2.7894   -0.8127    0.0000 H   0  0  0  0  0  0  0  0  0  0  0  0
   -2.7895    0.2573    0.0000 H   0  0  0  0  0  0  0  0  0  0  0  0
    0.9951    0.7923    0.0000 H   0  0  0  0  0  0  0  0  0  0  0  0
    1.9218    0.2573    0.0000 H   0  0  0  0  0  0  0  0  0  0  0  0
    2.4240    0.7923    0.0000 H   0  0  0  0  0  0  0  0  0  0  0  0
    3.3506    0.2573    0.0000 H   0  0  0  0  0  0  0  0  0  0  0  0
    3.1385   -1.7602    0.0000 H   0  0  0  0  0  0  0  0  0  0  0  0
    4.0651   -1.2252    0.0000 H   0  0  0  0  0  0  0  0  0  0  0  0
    4.6930   -0.7627    0.0000 H   0  0  0  0  0  0  0  0  0  0  0  0
   -1.8628   -0.4847    0.0000 H   0  0  0  0  0  0  0  0  0  0  0  0
   -3.4710    0.4438    0.0000 H   0  0  0  0  0  0  0  0  0  0  0  0
   -3.4710    2.3008    0.0000 H   0  0  0  0  0  0  0  0  0  0  0  0
   -1.8628    3.2293    0.0000 H   0  0  0  0  0  0  0  0  0  0  0  0
   -0.2546    2.3008    0.0000 H   0  0  0  0  0  0  0  0  0  0  0  0
  1  2  1  0  0  0  0
  1  8  1  0  0  0  0
  1 10  1  0  0  0  0
  2  3  2  0  0  0  0
  2  4  1  0  0  0  0
  4  5  1  0  0  0  0
  4 22  1  0  0  0  0
  5  6  2  0  0  0  0
  5  7  1  0  0  0  0
  7  8  2  0  0  0  0
  7  9  1  0  0  0  0
  8 15  1  0  0  0  0
  9 23  1  0  0  0  0
  9 24  1  0  0  0  0
  9 25  1  0  0  0  0
 10 11  1  0  0  0  0
 10 26  1  0  0  0  0
 10 27  1  0  0  0  0
 11 12  1  0  0  0  0
 12 13  1  0  0  0  0
 12 28  1  0  0  0  0
 12 29  1  0  0  0  0
 13 14  1  0  0  0  0
 13 30  1  0  0  0  0
 13 31  1  0  0  0  0
 14 32  1  0  0  0  0
 15 16  1  0  0  0  0
 16 17  2  0  0  0  0
 16 21  1  0  0  0  0
 17 18  1  0  0  0  0
 17 33  1  0  0  0  0
 18 19  2  0  0  0  0
 18 34  1  0  0  0  0
 19 20  1  0  0  0  0
 19 35  1  0  0  0  0
 20 21  2  0  0  0  0
 20 36  1  0  0  0  0
 21 37  1  0  0  0  0
M  END
>  <DRUGBANK_ID>
DB07892

>  <COMMON_NAME>
1-(2-HYDROXYETHYLOXYMETHYL)-6-PHENYL THIOTHYMINE

$$$$
