
 OpenBabel10282417072D

 36 36  0  0  0  0  0  0  0  0999 V2000
    2.0671   -1.8976    0.0000 C   0  0  0  0  0  0  0  0  0  0  0  0
   -1.2423   -0.2385    0.0000 O   0  0  0  0  0  0  0  0  0  0  0  0
   -0.7522    0.2030    0.0000 C   0  0  0  0  0  0  0  0  0  0  0  0
   -0.9244    1.0099    0.0000 O   0  0  0  0  0  0  0  0  0  0  0  0
   -1.7090    1.2648    0.0000 C   0  0  0  0  0  0  0  0  0  0  0  0
   -2.3219    0.7126    0.0000 C   0  0  0  0  0  0  0  0  0  0  0  0
   -1.0831    1.8266    0.0000 C   0  0  0  0  0  0  0  0  0  0  0  0
   -1.8810    2.0717    0.0000 C   0  0  0  0  0  0  0  0  0  0  0  0
    0.0323   -0.0519    0.0000 N   0  0  0  0  0  0  0  0  0  0  0  0
    0.2044   -0.8588    0.0000 C   0  0  2  0  0  0  0  0  0  0  0  0
   -0.4085   -1.4110    0.0000 C   0  0  0  0  0  0  0  0  0  0  0  0
   -1.2310   -1.6303    0.0000 C   0  0  0  0  0  0  0  0  0  0  0  0
    0.1283   -2.0717    0.0000 C   0  0  0  0  0  0  0  0  0  0  0  0
    0.9877   -1.1134    0.0000 C   0  0  0  0  0  0  0  0  0  0  0  0
    1.2425   -1.8976    0.0000 O   0  0  0  0  0  0  0  0  0  0  0  0
    2.3219   -1.1134    0.0000 N   0  0  0  0  0  0  0  0  0  0  0  0
    1.6548   -0.6286    0.0000 N   0  0  0  0  0  0  0  0  0  0  0  0
    0.4407    0.3160    0.0000 H   0  0  0  0  0  0  0  0  0  0  0  0
    0.6128   -0.4909    0.0000 H   0  0  0  0  0  0  0  0  0  0  0  0
    2.6737   -2.7325    0.0000 H   0  0  0  0  0  0  0  0  0  0  0  0
   -3.3396    1.0429    0.0000 H   0  0  0  0  0  0  0  0  0  0  0  0
   -2.0991   -0.3339    0.0000 H   0  0  0  0  0  0  0  0  0  0  0  0
   -3.1168   -0.0036    0.0000 H   0  0  0  0  0  0  0  0  0  0  0  0
   -0.0660    1.4944    0.0000 H   0  0  0  0  0  0  0  0  0  0  0  0
   -1.3039    2.8736    0.0000 H   0  0  0  0  0  0  0  0  0  0  0  0
   -0.2868    2.5413    0.0000 H   0  0  0  0  0  0  0  0  0  0  0  0
   -1.0862    2.7881    0.0000 H   0  0  0  0  0  0  0  0  0  0  0  0
   -2.8988    2.4018    0.0000 H   0  0  0  0  0  0  0  0  0  0  0  0
   -2.1041    3.1182    0.0000 H   0  0  0  0  0  0  0  0  0  0  0  0
   -0.7390   -2.4287    0.0000 H   0  0  0  0  0  0  0  0  0  0  0  0
   -1.9867   -0.8728    0.0000 H   0  0  0  0  0  0  0  0  0  0  0  0
   -1.5092   -2.6635    0.0000 H   0  0  0  0  0  0  0  0  0  0  0  0
   -2.2649   -1.9060    0.0000 H   0  0  0  0  0  0  0  0  0  0  0  0
   -0.2535   -3.0713    0.0000 H   0  0  0  0  0  0  0  0  0  0  0  0
    1.1849   -1.9026    0.0000 H   0  0  0  0  0  0  0  0  0  0  0  0
    0.8030   -2.9022    0.0000 H   0  0  0  0  0  0  0  0  0  0  0  0
  1 16  2  0  0  0  0
  1 15  1  0  0  0  0
  1 20  1  0  0  0  0
  3  2  2  0  0  0  0
  3  4  1  0  0  0  0
  3  9  1  0  0  0  0
  5  4  1  0  0  0  0
  5  8  1  0  0  0  0
  5  7  1  0  0  0  0
  5  6  1  0  0  0  0
  6 21  1  0  0  0  0
  6 22  1  0  0  0  0
  6 23  1  0  0  0  0
  7 24  1  0  0  0  0
  7 25  1  0  0  0  0
  7 26  1  0  0  0  0
  8 27  1  0  0  0  0
  8 28  1  0  0  0  0
  8 29  1  0  0  0  0
 10  9  1  0  0  0  0
 10 19  1  6  0  0  0
 11 10  1  0  0  0  0
 11 13  1  0  0  0  0
 11 12  1  0  0  0  0
 11 30  1  0  0  0  0
 12 31  1  0  0  0  0
 12 32  1  0  0  0  0
 12 33  1  0  0  0  0
 13 34  1  0  0  0  0
 13 35  1  0  0  0  0
 13 36  1  0  0  0  0
 14 10  1  0  0  0  0
 14 17  2  0  0  0  0
 14 15  1  0  0  0  0
 17 16  1  0  0  0  0
 18  9  1  0  0  0  0
M  END
>  <DRUGBANK_ID>
DB08336

>  <COMMON_NAME>
2-Methyl-2-propanyl [(1R)-2-methyl-1-(1,3,4-oxadiazol-2-yl)propyl]carbamate

$$$$
