
 OpenBabel10282417072D

 75 78  0  0  0  0  0  0  0  0999 V2000
   -2.8732   -0.3288    0.0000 C   0  0  0  0  0  0  0  0  0  0  0  0
   -3.5958   -0.7255    0.0000 C   0  0  0  0  0  0  0  0  0  0  0  0
   -3.5958   -1.5646    0.0000 C   0  0  1  0  0  0  0  0  0  0  0  0
   -2.8732   -1.9768    0.0000 C   0  0  0  0  0  0  0  0  0  0  0  0
   -2.1735   -1.5646    0.0000 C   0  0  0  0  0  0  0  0  0  0  0  0
   -1.4586   -1.9768    0.0000 C   0  0  0  0  0  0  0  0  0  0  0  0
   -2.1735   -0.7255    0.0000 C   0  0  2  0  0  0  0  0  0  0  0  0
   -1.4586    0.4792    0.0000 C   0  0  0  0  0  0  0  0  0  0  0  0
   -0.7278    0.8992    0.0000 C   0  0  0  0  0  0  0  0  0  0  0  0
   -0.0280    0.4792    0.0000 C   0  0  1  0  0  0  0  0  0  0  0  0
   -0.0280   -0.3288    0.0000 C   0  0  1  0  0  0  0  0  0  0  0  0
    0.7566   -0.5856    0.0000 C   0  0  0  0  0  0  0  0  0  0  0  0
    1.2229    0.0674    0.0000 C   0  0  0  0  0  0  0  0  0  0  0  0
    0.7566    0.7356    0.0000 C   0  0  2  0  0  0  0  0  0  0  0  0
   -0.0280    1.3266    0.0000 C   0  0  0  0  0  0  0  0  0  0  0  0
   -2.1735    0.0829    0.0000 C   0  0  0  0  0  0  0  0  0  0  0  0
   -0.0280   -1.1607    0.0000 H   0  0  0  0  0  0  0  0  0  0  0  0
    1.4797    1.1401    0.0000 H   0  0  0  0  0  0  0  0  0  0  0  0
   -4.3291   -1.9955    0.0000 O   0  0  0  0  0  0  0  0  0  0  0  0
   -1.4586   -0.3288    0.0000 C   0  0  1  0  0  0  0  0  0  0  0  0
   -1.4586   -1.1542    0.0000 H   0  0  0  0  0  0  0  0  0  0  0  0
    0.0421    1.9955    0.0000 C   0  0  0  0  0  0  0  0  0  0  0  0
   -0.7278   -0.7255    0.0000 C   0  0  1  0  0  0  0  0  0  0  0  0
   -0.7278    0.0996    0.0000 H   0  0  0  0  0  0  0  0  0  0  0  0
   -0.7278   -1.5646    0.0000 C   0  0  0  0  0  0  0  0  0  0  0  0
    2.1857    1.5830    0.0000 C   0  0  0  0  0  0  0  0  0  0  0  0
    3.6145    0.7581    0.0000 C   0  0  0  0  0  0  0  0  0  0  0  0
    1.4711    1.9955    0.0000 C   0  0  0  0  0  0  0  0  0  0  0  0
    0.7566    1.5830    0.0000 C   0  0  2  0  0  0  0  0  0  0  0  0
    4.3291    1.9955    0.0000 C   0  0  0  0  0  0  0  0  0  0  0  0
    2.9000    1.9955    0.0000 C   0  0  0  0  0  0  0  0  0  0  0  0
    3.6145    1.5830    0.0000 C   0  0  0  0  0  0  0  0  0  0  0  0
    4.3291    1.1706    0.0000 O   0  0  0  0  0  0  0  0  0  0  0  0
   -2.8659    0.7412    0.0000 H   0  0  0  0  0  0  0  0  0  0  0  0
   -3.7922    0.2193    0.0000 H   0  0  0  0  0  0  0  0  0  0  0  0
   -4.5166   -0.1806    0.0000 H   0  0  0  0  0  0  0  0  0  0  0  0
   -4.5253   -1.2555    0.0000 H   0  0  0  0  0  0  0  0  0  0  0  0
   -3.5889   -2.6346    0.0000 H   0  0  0  0  0  0  0  0  0  0  0  0
   -2.8657   -3.0468    0.0000 H   0  0  0  0  0  0  0  0  0  0  0  0
   -3.7966   -2.5174    0.0000 H   0  0  0  0  0  0  0  0  0  0  0  0
   -1.4635   -3.0088    0.0000 H   0  0  0  0  0  0  0  0  0  0  0  0
   -2.3847    1.0151    0.0000 H   0  0  0  0  0  0  0  0  0  0  0  0
   -1.4570    1.5492    0.0000 H   0  0  0  0  0  0  0  0  0  0  0  0
   -0.7177    1.9692    0.0000 H   0  0  0  0  0  0  0  0  0  0  0  0
   -1.6514    1.4395    0.0000 H   0  0  0  0  0  0  0  0  0  0  0  0
    1.0903   -1.6022    0.0000 H   0  0  0  0  0  0  0  0  0  0  0  0
    1.8143   -0.7471    0.0000 H   0  0  0  0  0  0  0  0  0  0  0  0
    2.2929    0.0616    0.0000 H   0  0  0  0  0  0  0  0  0  0  0  0
    1.7100   -0.8853    0.0000 H   0  0  0  0  0  0  0  0  0  0  0  0
    0.8986    1.8616    0.0000 H   0  0  0  0  0  0  0  0  0  0  0  0
   -0.9546    1.8616    0.0000 H   0  0  0  0  0  0  0  0  0  0  0  0
   -0.0280    2.3966    0.0000 H   0  0  0  0  0  0  0  0  0  0  0  0
   -1.2469    0.6179    0.0000 H   0  0  0  0  0  0  0  0  0  0  0  0
   -3.1001    0.6179    0.0000 H   0  0  0  0  0  0  0  0  0  0  0  0
   -2.1735    1.1529    0.0000 H   0  0  0  0  0  0  0  0  0  0  0  0
   -5.1728   -1.5170    0.0000 H   0  0  0  0  0  0  0  0  0  0  0  0
    0.0421    3.0655    0.0000 H   0  0  0  0  0  0  0  0  0  0  0  0
   -0.8845    1.4605    0.0000 H   0  0  0  0  0  0  0  0  0  0  0  0
   -0.8846    2.5305    0.0000 H   0  0  0  0  0  0  0  0  0  0  0  0
    0.1961   -2.1042    0.0000 H   0  0  0  0  0  0  0  0  0  0  0  0
   -0.7359   -2.6346    0.0000 H   0  0  0  0  0  0  0  0  0  0  0  0
    2.1858    0.5130    0.0000 H   0  0  0  0  0  0  0  0  0  0  0  0
    3.1124    1.0481    0.0000 H   0  0  0  0  0  0  0  0  0  0  0  0
    2.6879    0.2231    0.0000 H   0  0  0  0  0  0  0  0  0  0  0  0
    4.5411    0.2231    0.0000 H   0  0  0  0  0  0  0  0  0  0  0  0
    3.6145   -0.3119    0.0000 H   0  0  0  0  0  0  0  0  0  0  0  0
    1.4711    3.0655    0.0000 H   0  0  0  0  0  0  0  0  0  0  0  0
    0.5444    2.5305    0.0000 H   0  0  0  0  0  0  0  0  0  0  0  0
   -0.1700    1.0480    0.0000 H   0  0  0  0  0  0  0  0  0  0  0  0
    5.2557    1.4604    0.0000 H   0  0  0  0  0  0  0  0  0  0  0  0
    4.3292    3.0655    0.0000 H   0  0  0  0  0  0  0  0  0  0  0  0
    5.2558    2.5304    0.0000 H   0  0  0  0  0  0  0  0  0  0  0  0
    2.8999    3.0655    0.0000 H   0  0  0  0  0  0  0  0  0  0  0  0
    3.8266    2.5305    0.0000 H   0  0  0  0  0  0  0  0  0  0  0  0
    4.3293    0.2006    0.0000 H   0  0  0  0  0  0  0  0  0  0  0  0
  1  7  1  0  0  0  0
  1 34  1  0  0  0  0
  1 35  1  0  0  0  0
  2  1  1  0  0  0  0
  2 36  1  0  0  0  0
  2 37  1  0  0  0  0
  3  4  1  0  0  0  0
  3  2  1  0  0  0  0
  3 19  1  0  0  0  0
  3 38  1  6  0  0  0
  4  5  1  0  0  0  0
  4 39  1  0  0  0  0
  4 40  1  0  0  0  0
  5  7  1  0  0  0  0
  6 25  1  0  0  0  0
  6  5  2  0  0  0  0
  6 41  1  0  0  0  0
  7 20  1  0  0  0  0
  7 16  1  1  0  0  0
  8 20  1  0  0  0  0
  8  9  1  0  0  0  0
  8 42  1  0  0  0  0
  8 43  1  0  0  0  0
  9 10  1  0  0  0  0
  9 44  1  0  0  0  0
  9 45  1  0  0  0  0
 10 15  1  1  0  0  0
 11 10  1  0  0  0  0
 11 17  1  6  0  0  0
 12 11  1  0  0  0  0
 12 46  1  0  0  0  0
 12 47  1  0  0  0  0
 13 14  1  0  0  0  0
 13 12  1  0  0  0  0
 13 48  1  0  0  0  0
 13 49  1  0  0  0  0
 14 10  1  0  0  0  0
 14 18  1  6  0  0  0
 15 50  1  0  0  0  0
 15 51  1  0  0  0  0
 15 52  1  0  0  0  0
 16 53  1  0  0  0  0
 16 54  1  0  0  0  0
 16 55  1  0  0  0  0
 19 56  1  0  0  0  0
 20 21  1  6  0  0  0
 22 57  1  0  0  0  0
 22 58  1  0  0  0  0
 22 59  1  0  0  0  0
 23 11  1  0  0  0  0
 23 20  1  0  0  0  0
 23 24  1  1  0  0  0
 25 23  1  0  0  0  0
 25 60  1  0  0  0  0
 25 61  1  0  0  0  0
 26 62  1  0  0  0  0
 26 63  1  0  0  0  0
 27 32  1  0  0  0  0
 27 64  1  0  0  0  0
 27 65  1  0  0  0  0
 27 66  1  0  0  0  0
 28 26  1  0  0  0  0
 28 29  1  0  0  0  0
 28 67  1  0  0  0  0
 28 68  1  0  0  0  0
 29 14  1  0  0  0  0
 29 22  1  0  0  0  0
 29 69  1  1  0  0  0
 30 32  1  0  0  0  0
 30 70  1  0  0  0  0
 30 71  1  0  0  0  0
 30 72  1  0  0  0  0
 31 26  1  0  0  0  0
 31 73  1  0  0  0  0
 31 74  1  0  0  0  0
 32 31  1  0  0  0  0
 32 33  1  0  0  0  0
 33 75  1  0  0  0  0
M  END
>  <DRUGBANK_ID>
DB04705

>  <COMMON_NAME>
25-Hydroxycholesterol

>  <CAS_NUMBER>
2140-46-7

>  <UNII>
767JTD2N31

>  <SYNONYMS>
5-Cholestene-3beta,25-diol; Cholest-5-ene-3beta,25-diol

$$$$
