
 OpenBabel10282417072D

 57 60  0  0  1  0  0  0  0  0999 V2000
    9.1110  -10.3796    0.0000 C   0  0  0  0  0  0  0  0  0  0  0  0
    9.1110  -11.2046    0.0000 C   0  0  2  0  0  0  0  0  0  0  0  0
    9.8255  -11.6171    0.0000 C   0  0  0  0  0  0  0  0  0  0  0  0
   10.5400  -11.2046    0.0000 C   0  0  2  0  0  0  0  0  0  0  0  0
   10.5400  -10.3796    0.0000 C   0  0  2  0  0  0  0  0  0  0  0  0
    9.8255   -9.9672    0.0000 C   0  0  0  0  0  0  0  0  0  0  0  0
   11.2544  -11.6171    0.0000 C   0  0  0  0  0  0  0  0  0  0  0  0
   11.9688  -11.2046    0.0000 C   0  0  0  0  0  0  0  0  0  0  0  0
   11.9688  -10.3796    0.0000 C   0  0  2  0  0  0  0  0  0  0  0  0
   11.2544   -9.9672    0.0000 C   0  0  2  0  0  0  0  0  0  0  0  0
   12.6833   -9.9672    0.0000 C   0  0  1  0  0  0  0  0  0  0  0  0
   12.6833   -9.1422    0.0000 C   0  0  2  0  0  0  0  0  0  0  0  0
   11.9688   -8.7297    0.0000 C   0  0  0  0  0  0  0  0  0  0  0  0
   11.2544   -9.1422    0.0000 C   0  0  0  0  0  0  0  0  0  0  0  0
   14.1122   -9.9672    0.0000 C   0  0  0  0  0  0  0  0  0  0  0  0
   14.1122   -9.1422    0.0000 C   0  0  0  0  0  0  0  0  0  0  0  0
   13.3978   -8.7297    0.0000 C   0  0  2  0  0  0  0  0  0  0  0  0
   13.3978   -7.9047    0.0000 C   0  0  0  0  0  0  0  0  0  0  0  0
   12.6833   -8.3171    0.0000 C   0  0  0  0  0  0  0  0  0  0  0  0
   11.9688   -9.5546    0.0000 H   0  0  0  0  0  0  0  0  0  0  0  0
   10.5400   -9.5546    0.0000 C   0  0  0  0  0  0  0  0  0  0  0  0
   10.5400  -12.0296    0.0000 H   0  0  0  0  0  0  0  0  0  0  0  0
    8.3966  -11.6171    0.0000 O   0  0  0  0  0  0  0  0  0  0  0  0
   11.2544  -10.7921    0.0000 H   0  0  0  0  0  0  0  0  0  0  0  0
   12.6833  -10.7921    0.0000 H   0  0  0  0  0  0  0  0  0  0  0  0
   14.1146   -7.4908    0.0000 C   0  0  0  0  0  0  0  0  0  0  0  0
   12.6857   -7.4935    0.0000 O   0  0  0  0  0  0  0  0  0  0  0  0
    8.1844   -9.8445    0.0000 H   0  0  0  0  0  0  0  0  0  0  0  0
    9.1111   -9.3096    0.0000 H   0  0  0  0  0  0  0  0  0  0  0  0
    8.1843  -10.6696    0.0000 H   0  0  0  0  0  0  0  0  0  0  0  0
    9.8255  -12.6871    0.0000 H   0  0  0  0  0  0  0  0  0  0  0  0
   10.7521  -12.1521    0.0000 H   0  0  0  0  0  0  0  0  0  0  0  0
    9.8255   -8.8972    0.0000 H   0  0  0  0  0  0  0  0  0  0  0  0
    8.8989   -9.4321    0.0000 H   0  0  0  0  0  0  0  0  0  0  0  0
   11.2544  -12.6871    0.0000 H   0  0  0  0  0  0  0  0  0  0  0  0
   12.1811  -12.1521    0.0000 H   0  0  0  0  0  0  0  0  0  0  0  0
   12.8955  -11.7396    0.0000 H   0  0  0  0  0  0  0  0  0  0  0  0
   12.8954  -10.6696    0.0000 H   0  0  0  0  0  0  0  0  0  0  0  0
   11.9688   -7.6597    0.0000 H   0  0  0  0  0  0  0  0  0  0  0  0
   11.0421   -8.1947    0.0000 H   0  0  0  0  0  0  0  0  0  0  0  0
   10.3277   -8.6072    0.0000 H   0  0  0  0  0  0  0  0  0  0  0  0
   10.3278   -9.6772    0.0000 H   0  0  0  0  0  0  0  0  0  0  0  0
   14.8688  -10.7238    0.0000 H   0  0  0  0  0  0  0  0  0  0  0  0
   15.1008   -9.5577    0.0000 H   0  0  0  0  0  0  0  0  0  0  0  0
   15.0389   -8.6072    0.0000 H   0  0  0  0  0  0  0  0  0  0  0  0
   14.1122   -8.0722    0.0000 H   0  0  0  0  0  0  0  0  0  0  0  0
   14.3245   -8.1947    0.0000 H   0  0  0  0  0  0  0  0  0  0  0  0
   13.6099   -7.7821    0.0000 H   0  0  0  0  0  0  0  0  0  0  0  0
   11.7567   -7.7821    0.0000 H   0  0  0  0  0  0  0  0  0  0  0  0
   12.6833   -7.2471    0.0000 H   0  0  0  0  0  0  0  0  0  0  0  0
   11.4666   -9.0196    0.0000 H   0  0  0  0  0  0  0  0  0  0  0  0
    9.6134   -9.0196    0.0000 H   0  0  0  0  0  0  0  0  0  0  0  0
   10.5400   -8.4846    0.0000 H   0  0  0  0  0  0  0  0  0  0  0  0
    7.5565  -11.1321    0.0000 H   0  0  0  0  0  0  0  0  0  0  0  0
   15.0413   -8.0257    0.0000 H   0  0  0  0  0  0  0  0  0  0  0  0
   14.1145   -6.4208    0.0000 H   0  0  0  0  0  0  0  0  0  0  0  0
   15.0412   -6.9557    0.0000 H   0  0  0  0  0  0  0  0  0  0  0  0
  1  2  1  0  0  0  0
  1  6  1  0  0  0  0
  1 28  1  0  0  0  0
  1 29  1  0  0  0  0
  2  3  1  0  0  0  0
  2 23  1  0  0  0  0
  2 30  1  1  0  0  0
  3  4  1  0  0  0  0
  3 31  1  0  0  0  0
  3 32  1  0  0  0  0
  4  5  1  0  0  0  0
  4  7  1  0  0  0  0
  4 22  1  1  0  0  0
  5  6  1  0  0  0  0
  5 10  1  0  0  0  0
  5 21  1  1  0  0  0
  6 33  1  0  0  0  0
  6 34  1  0  0  0  0
  7  8  1  0  0  0  0
  7 35  1  0  0  0  0
  7 36  1  0  0  0  0
  8  9  1  0  0  0  0
  8 37  1  0  0  0  0
  8 38  1  0  0  0  0
  9 10  1  0  0  0  0
  9 11  1  0  0  0  0
  9 20  1  1  0  0  0
 10 14  1  0  0  0  0
 10 24  1  6  0  0  0
 11 12  1  0  0  0  0
 11 15  1  0  0  0  0
 11 25  1  6  0  0  0
 12 13  1  0  0  0  0
 12 17  1  0  0  0  0
 12 19  1  1  0  0  0
 13 14  1  0  0  0  0
 13 39  1  0  0  0  0
 13 40  1  0  0  0  0
 14 41  1  0  0  0  0
 14 42  1  0  0  0  0
 15 16  1  0  0  0  0
 15 43  1  0  0  0  0
 15 44  1  0  0  0  0
 16 17  1  0  0  0  0
 16 45  1  0  0  0  0
 16 46  1  0  0  0  0
 17 18  1  0  0  0  0
 17 47  1  6  0  0  0
 18 26  1  0  0  0  0
 18 27  2  0  0  0  0
 19 48  1  0  0  0  0
 19 49  1  0  0  0  0
 19 50  1  0  0  0  0
 21 51  1  0  0  0  0
 21 52  1  0  0  0  0
 21 53  1  0  0  0  0
 23 54  1  0  0  0  0
 26 55  1  0  0  0  0
 26 56  1  0  0  0  0
 26 57  1  0  0  0  0
M  END
>  <DRUGBANK_ID>
DB12308

>  <COMMON_NAME>
Eltanolone

>  <CAS_NUMBER>
128-20-1

>  <UNII>
BXO86P3XXW

>  <SYNONYMS>
eltanolona; Eltanolone; Pregnanolone

$$$$
