
 OpenBabel10282417072D

 42 41  0  0  1  0  0  0  0  0999 V2000
    2.2836    2.1434    0.0000 C   0  0  0  0  0  0  0  0  0  0  0  0
    8.7138    3.3809    0.0000 C   0  0  0  0  0  0  0  0  0  0  0  0
    5.8559    3.3809    0.0000 C   0  0  0  0  0  0  0  0  0  0  0  0
   11.5717    2.5559    0.0000 C   0  0  0  0  0  0  0  0  0  0  0  0
    3.7125    2.1434    0.0000 C   0  0  0  0  0  0  0  0  0  0  0  0
    9.4283    2.1434    0.0000 C   0  0  0  0  0  0  0  0  0  0  0  0
    6.5704    2.1434    0.0000 C   0  0  0  0  0  0  0  0  0  0  0  0
    2.9980    2.5559    0.0000 C   0  0  2  0  0  0  0  0  0  0  0  0
    8.7138    2.5559    0.0000 C   0  0  2  0  0  0  0  0  0  0  0  0
    5.8559    2.5559    0.0000 C   0  0  2  0  0  0  0  0  0  0  0  0
   10.1427    2.5559    0.0000 C   0  0  0  0  0  0  0  0  0  0  0  0
    4.4270    2.5559    0.0000 C   0  0  0  0  0  0  0  0  0  0  0  0
    7.2849    2.5559    0.0000 C   0  0  0  0  0  0  0  0  0  0  0  0
    2.9980    3.3809    0.0000 O   0  0  0  0  0  0  0  0  0  0  0  0
   10.1427    3.3809    0.0000 O   0  0  0  0  0  0  0  0  0  0  0  0
    4.4270    3.3809    0.0000 O   0  0  0  0  0  0  0  0  0  0  0  0
    7.2849    3.3809    0.0000 O   0  0  0  0  0  0  0  0  0  0  0  0
   10.8572    2.1434    0.0000 O   0  0  0  0  0  0  0  0  0  0  0  0
    5.1414    2.1434    0.0000 O   0  0  0  0  0  0  0  0  0  0  0  0
    7.9993    2.1434    0.0000 O   0  0  0  0  0  0  0  0  0  0  0  0
    2.9980    1.7309    0.0000 H   0  0  0  0  0  0  0  0  0  0  0  0
    9.4283    2.9684    0.0000 H   0  0  0  0  0  0  0  0  0  0  0  0
    6.5704    2.9684    0.0000 H   0  0  0  0  0  0  0  0  0  0  0  0
    1.3569    2.6784    0.0000 H   0  0  0  0  0  0  0  0  0  0  0  0
    2.2836    1.0734    0.0000 H   0  0  0  0  0  0  0  0  0  0  0  0
    1.3570    1.6084    0.0000 H   0  0  0  0  0  0  0  0  0  0  0  0
    9.6404    3.9159    0.0000 H   0  0  0  0  0  0  0  0  0  0  0  0
    7.7872    3.9159    0.0000 H   0  0  0  0  0  0  0  0  0  0  0  0
    8.7138    4.4509    0.0000 H   0  0  0  0  0  0  0  0  0  0  0  0
    6.7825    3.9159    0.0000 H   0  0  0  0  0  0  0  0  0  0  0  0
    4.9293    3.9159    0.0000 H   0  0  0  0  0  0  0  0  0  0  0  0
    5.8559    4.4509    0.0000 H   0  0  0  0  0  0  0  0  0  0  0  0
   12.4983    2.0209    0.0000 H   0  0  0  0  0  0  0  0  0  0  0  0
   11.5717    3.6259    0.0000 H   0  0  0  0  0  0  0  0  0  0  0  0
   12.4984    3.0909    0.0000 H   0  0  0  0  0  0  0  0  0  0  0  0
    3.7125    1.0734    0.0000 H   0  0  0  0  0  0  0  0  0  0  0  0
    4.6391    1.6084    0.0000 H   0  0  0  0  0  0  0  0  0  0  0  0
    9.4283    1.0734    0.0000 H   0  0  0  0  0  0  0  0  0  0  0  0
   10.3550    1.6084    0.0000 H   0  0  0  0  0  0  0  0  0  0  0  0
    6.5704    1.0734    0.0000 H   0  0  0  0  0  0  0  0  0  0  0  0
    7.4970    1.6084    0.0000 H   0  0  0  0  0  0  0  0  0  0  0  0
    3.8380    3.8659    0.0000 H   0  0  0  0  0  0  0  0  0  0  0  0
  1 24  1  0  0  0  0
  1 25  1  0  0  0  0
  1 26  1  0  0  0  0
  2 27  1  0  0  0  0
  2 28  1  0  0  0  0
  2 29  1  0  0  0  0
  3 30  1  0  0  0  0
  3 31  1  0  0  0  0
  3 32  1  0  0  0  0
  4 33  1  0  0  0  0
  4 34  1  0  0  0  0
  4 35  1  0  0  0  0
  5 36  1  0  0  0  0
  5 37  1  0  0  0  0
  6 38  1  0  0  0  0
  6 39  1  0  0  0  0
  7 40  1  0  0  0  0
  7 41  1  0  0  0  0
  8  1  1  0  0  0  0
  8  5  1  0  0  0  0
  8 14  1  0  0  0  0
  8 21  1  6  0  0  0
  9  2  1  0  0  0  0
  9  6  1  0  0  0  0
  9 22  1  1  0  0  0
 10  3  1  0  0  0  0
 10  7  1  0  0  0  0
 10 23  1  1  0  0  0
 11  6  1  0  0  0  0
 12  5  1  0  0  0  0
 13  7  1  0  0  0  0
 14 42  1  0  0  0  0
 15 11  2  0  0  0  0
 16 12  2  0  0  0  0
 17 13  2  0  0  0  0
 18  4  1  0  0  0  0
 18 11  1  0  0  0  0
 19 10  1  0  0  0  0
 19 12  1  0  0  0  0
 20  9  1  0  0  0  0
 20 13  1  0  0  0  0
M  END
>  <DRUGBANK_ID>
DB04773

>  <COMMON_NAME>
METHYL (3R)-3-{[(3R)-3-{[(3R)-3-HYDROXYBUTANOYL]OXY}BUTANOYL]OXY}BUTANOATE

$$$$
