P1E
 OpenBabel10282417072D

 56 58  0  0  0  0  0  0  0  0999 V2000
    0.3715    2.2868    0.0000 C   0  0  0  0  0  0  0  0  0  0  0  0
    1.0860    3.5243    0.0000 C   0  0  0  0  0  0  0  0  0  0  0  0
   -0.3430    1.0493    0.0000 C   0  0  0  0  0  0  0  0  0  0  0  0
    0.3715   -0.1882    0.0000 C   0  0  0  0  0  0  0  0  0  0  0  0
   -0.3430   -2.2507    0.0000 F   0  0  0  0  0  0  0  0  0  0  0  0
   -0.3430   -1.4257    0.0000 C   0  0  0  0  0  0  0  0  0  0  0  0
   -1.1680   -1.4257    0.0000 F   0  0  0  0  0  0  0  0  0  0  0  0
    0.4820   -1.4257    0.0000 F   0  0  0  0  0  0  0  0  0  0  0  0
   -0.3430   -0.6007    0.0000 C   0  0  0  0  0  0  0  0  0  0  0  0
    0.3715    0.6368    0.0000 N   0  0  0  0  0  0  0  0  0  0  0  0
   -1.0574   -0.1882    0.0000 C   0  0  0  0  0  0  0  0  0  0  0  0
   -1.7719   -0.6007    0.0000 N   0  0  0  0  0  0  0  0  0  0  0  0
   -1.7719   -1.4257    0.0000 C   0  0  2  0  0  0  0  0  0  0  0  0
   -1.1045   -1.9106    0.0000 C   0  0  0  0  0  0  0  0  0  0  0  0
   -1.3594   -2.6953    0.0000 C   0  0  0  0  0  0  0  0  0  0  0  0
   -2.1844   -2.6953    0.0000 C   0  0  0  0  0  0  0  0  0  0  0  0
   -2.4393   -1.9106    0.0000 C   0  0  1  0  0  0  0  0  0  0  0  0
   -3.2240   -1.6557    0.0000 N   0  0  0  0  0  0  0  0  0  0  0  0
   -3.8371   -2.2077    0.0000 C   0  0  0  0  0  0  0  0  0  0  0  0
   -3.3955   -0.8487    0.0000 C   0  0  0  0  0  0  0  0  0  0  0  0
   -1.0574    0.6368    0.0000 N   0  0  0  0  0  0  0  0  0  0  0  0
   -0.3430    1.8743    0.0000 N   0  0  0  0  0  0  0  0  0  0  0  0
    0.3715    3.1118    0.0000 C   0  0  0  0  0  0  0  0  0  0  0  0
    1.0860    1.8743    0.0000 C   0  0  0  0  0  0  0  0  0  0  0  0
    1.8004    2.2868    0.0000 C   0  0  0  0  0  0  0  0  0  0  0  0
    1.8004    3.1118    0.0000 C   0  0  0  0  0  0  0  0  0  0  0  0
    2.5149    3.5243    0.0000 S   0  0  0  0  0  0  0  0  0  0  0  0
    2.9274    2.8098    0.0000 O   0  0  0  0  0  0  0  0  0  0  0  0
    2.1024    4.2388    0.0000 O   0  0  0  0  0  0  0  0  0  0  0  0
    3.2294    3.9368    0.0000 N   0  0  0  0  0  0  0  0  0  0  0  0
    3.2294    4.7618    0.0000 C   0  0  0  0  0  0  0  0  0  0  0  0
   -1.2516   -1.1606    0.0000 H   0  0  0  0  0  0  0  0  0  0  0  0
   -2.5307   -1.3339    0.0000 H   0  0  0  0  0  0  0  0  0  0  0  0
    1.0860    4.5563    0.0000 H   0  0  0  0  0  0  0  0  0  0  0  0
    1.2652   -0.7042    0.0000 H   0  0  0  0  0  0  0  0  0  0  0  0
   -2.6245   -0.1084    0.0000 H   0  0  0  0  0  0  0  0  0  0  0  0
   -0.0869   -1.5799    0.0000 H   0  0  0  0  0  0  0  0  0  0  0  0
   -0.3479   -2.6672    0.0000 H   0  0  0  0  0  0  0  0  0  0  0  0
   -0.7304   -3.5609    0.0000 H   0  0  0  0  0  0  0  0  0  0  0  0
   -1.8452   -3.6487    0.0000 H   0  0  0  0  0  0  0  0  0  0  0  0
   -2.8134   -3.5609    0.0000 H   0  0  0  0  0  0  0  0  0  0  0  0
   -3.2412   -2.5279    0.0000 H   0  0  0  0  0  0  0  0  0  0  0  0
   -4.8547   -1.8770    0.0000 H   0  0  0  0  0  0  0  0  0  0  0  0
   -3.6147   -3.2543    0.0000 H   0  0  0  0  0  0  0  0  0  0  0  0
   -4.6323   -2.9236    0.0000 H   0  0  0  0  0  0  0  0  0  0  0  0
   -2.6003   -0.1328    0.0000 H   0  0  0  0  0  0  0  0  0  0  0  0
   -4.4131   -0.5180    0.0000 H   0  0  0  0  0  0  0  0  0  0  0  0
   -3.6179    0.1979    0.0000 H   0  0  0  0  0  0  0  0  0  0  0  0
   -1.1956    2.3666    0.0000 H   0  0  0  0  0  0  0  0  0  0  0  0
   -0.5222    3.6278    0.0000 H   0  0  0  0  0  0  0  0  0  0  0  0
    1.0860    0.8423    0.0000 H   0  0  0  0  0  0  0  0  0  0  0  0
    2.6941    1.7708    0.0000 H   0  0  0  0  0  0  0  0  0  0  0  0
    4.1127    3.4268    0.0000 H   0  0  0  0  0  0  0  0  0  0  0  0
    4.1560    5.2968    0.0000 H   0  0  0  0  0  0  0  0  0  0  0  0
    2.3028    5.2968    0.0000 H   0  0  0  0  0  0  0  0  0  0  0  0
    3.2294    5.8318    0.0000 H   0  0  0  0  0  0  0  0  0  0  0  0
  1 22  1  0  0  0  0
  1 23  2  0  0  0  0
  1 24  1  0  0  0  0
  2 23  1  0  0  0  0
  2 26  2  0  0  0  0
  2 34  1  0  0  0  0
  3 10  2  0  0  0  0
  3 21  1  0  0  0  0
  3 22  1  0  0  0  0
  4  9  2  0  0  0  0
  4 10  1  0  0  0  0
  4 35  1  0  0  0  0
  5  6  1  0  0  0  0
  6  7  1  0  0  0  0
  6  8  1  0  0  0  0
  6  9  1  0  0  0  0
  9 11  1  0  0  0  0
 11 12  1  0  0  0  0
 11 21  2  0  0  0  0
 12 36  1  0  0  0  0
 13 12  1  0  0  0  0
 13 14  1  0  0  0  0
 13 17  1  0  0  0  0
 13 32  1  1  0  0  0
 14 15  1  0  0  0  0
 14 37  1  0  0  0  0
 14 38  1  0  0  0  0
 15 16  1  0  0  0  0
 15 39  1  0  0  0  0
 15 40  1  0  0  0  0
 16 17  1  0  0  0  0
 16 41  1  0  0  0  0
 16 42  1  0  0  0  0
 17 18  1  0  0  0  0
 17 33  1  6  0  0  0
 18 19  1  0  0  0  0
 18 20  1  0  0  0  0
 19 43  1  0  0  0  0
 19 44  1  0  0  0  0
 19 45  1  0  0  0  0
 20 46  1  0  0  0  0
 20 47  1  0  0  0  0
 20 48  1  0  0  0  0
 22 49  1  0  0  0  0
 23 50  1  0  0  0  0
 24 25  2  0  0  0  0
 24 51  1  0  0  0  0
 25 26  1  0  0  0  0
 25 52  1  0  0  0  0
 26 27  1  0  0  0  0
 27 28  2  0  0  0  0
 27 29  2  0  0  0  0
 27 30  1  0  0  0  0
 30 31  1  0  0  0  0
 30 53  1  0  0  0  0
 31 54  1  0  0  0  0
 31 55  1  0  0  0  0
 31 56  1  0  0  0  0
M  END
>  <DRUGBANK_ID>
DB08341

>  <COMMON_NAME>
4-{[4-{[(1R,2R)-2-(dimethylamino)cyclopentyl]amino}-5-(trifluoromethyl)pyrimidin-2-yl]amino}-N-methylbenzenesulfonamide

$$$$
