344
 OpenBabel10282417072D

 41 43  0  0  0  0  0  0  0  0999 V2000
    2.5989   -1.7283    0.0000 N   0  0  0  0  0  0  0  0  0  0  0  0
    4.0276    0.7461    0.0000 C   0  0  3  0  0  0  0  0  0  0  0  0
    4.0276   -0.0786    0.0000 C   0  0  0  0  0  0  0  0  0  0  0  0
    4.7706    1.1040    0.0000 C   0  0  0  0  0  0  0  0  0  0  0  0
    3.2842    1.1040    0.0000 C   0  0  0  0  0  0  0  0  0  0  0  0
    3.3131   -0.4911    0.0000 C   0  0  0  0  0  0  0  0  0  0  0  0
    4.9542    1.9080    0.0000 C   0  0  0  0  0  0  0  0  0  0  0  0
    3.1007    1.9080    0.0000 C   0  0  0  0  0  0  0  0  0  0  0  0
    3.3130   -1.3158    0.0000 C   0  0  0  0  0  0  0  0  0  0  0  0
    5.3914    0.5102    0.0000 C   0  0  0  0  0  0  0  0  0  0  0  0
    2.6637    0.5102    0.0000 C   0  0  0  0  0  0  0  0  0  0  0  0
    4.4398    2.5530    0.0000 C   0  0  0  0  0  0  0  0  0  0  0  0
    3.6151    2.5530    0.0000 C   0  0  0  0  0  0  0  0  0  0  0  0
    5.7710    2.1739    0.0000 C   0  0  0  0  0  0  0  0  0  0  0  0
    2.2838    2.1739    0.0000 C   0  0  0  0  0  0  0  0  0  0  0  0
    6.2142    0.7568    0.0000 C   0  0  0  0  0  0  0  0  0  0  0  0
    1.8406    0.7568    0.0000 C   0  0  0  0  0  0  0  0  0  0  0  0
    6.4054    1.5946    0.0000 C   0  0  0  0  0  0  0  0  0  0  0  0
    1.6497    1.5947    0.0000 C   0  0  0  0  0  0  0  0  0  0  0  0
    2.5989   -2.5530    0.0000 C   0  0  0  0  0  0  0  0  0  0  0  0
    1.7155   -1.2184    0.0000 H   0  0  0  0  0  0  0  0  0  0  0  0
    4.9336    0.1769    0.0000 H   0  0  0  0  0  0  0  0  0  0  0  0
    4.9542   -0.6136    0.0000 H   0  0  0  0  0  0  0  0  0  0  0  0
    4.0276   -1.1486    0.0000 H   0  0  0  0  0  0  0  0  0  0  0  0
    2.3865    0.0440    0.0000 H   0  0  0  0  0  0  0  0  0  0  0  0
    2.3864   -1.0260    0.0000 H   0  0  0  0  0  0  0  0  0  0  0  0
    4.2397   -1.8508    0.0000 H   0  0  0  0  0  0  0  0  0  0  0  0
    4.2397   -0.7808    0.0000 H   0  0  0  0  0  0  0  0  0  0  0  0
    5.1501   -0.4932    0.0000 H   0  0  0  0  0  0  0  0  0  0  0  0
    2.9052   -0.4932    0.0000 H   0  0  0  0  0  0  0  0  0  0  0  0
    4.8876    3.4828    0.0000 H   0  0  0  0  0  0  0  0  0  0  0  0
    3.1673    3.4828    0.0000 H   0  0  0  0  0  0  0  0  0  0  0  0
    5.9888    3.1827    0.0000 H   0  0  0  0  0  0  0  0  0  0  0  0
    2.0659    3.1826    0.0000 H   0  0  0  0  0  0  0  0  0  0  0  0
    6.9679    0.0518    0.0000 H   0  0  0  0  0  0  0  0  0  0  0  0
    1.0868    0.0519    0.0000 H   0  0  0  0  0  0  0  0  0  0  0  0
    7.3903    1.9027    0.0000 H   0  0  0  0  0  0  0  0  0  0  0  0
    0.6648    1.9029    0.0000 H   0  0  0  0  0  0  0  0  0  0  0  0
    1.6723   -3.0880    0.0000 H   0  0  0  0  0  0  0  0  0  0  0  0
    3.5255   -3.0880    0.0000 H   0  0  0  0  0  0  0  0  0  0  0  0
    2.5989   -3.6230    0.0000 H   0  0  0  0  0  0  0  0  0  0  0  0
  1  9  1  0  0  0  0
  1 20  1  0  0  0  0
  1 21  1  0  0  0  0
  2  3  1  0  0  0  0
  2  4  1  0  0  0  0
  2  5  1  0  0  0  0
  2 22  1  0  0  0  0
  3  6  1  0  0  0  0
  3 23  1  0  0  0  0
  3 24  1  0  0  0  0
  4  7  1  0  0  0  0
  4 10  2  0  0  0  0
  5  8  1  0  0  0  0
  5 11  2  0  0  0  0
  6  9  1  0  0  0  0
  6 25  1  0  0  0  0
  6 26  1  0  0  0  0
  7 12  1  0  0  0  0
  7 14  2  0  0  0  0
  8 13  1  0  0  0  0
  8 15  2  0  0  0  0
  9 27  1  0  0  0  0
  9 28  1  0  0  0  0
 10 16  1  0  0  0  0
 10 29  1  0  0  0  0
 11 17  1  0  0  0  0
 11 30  1  0  0  0  0
 12 13  2  0  0  0  0
 12 31  1  0  0  0  0
 13 32  1  0  0  0  0
 14 18  1  0  0  0  0
 14 33  1  0  0  0  0
 15 19  1  0  0  0  0
 15 34  1  0  0  0  0
 16 18  2  0  0  0  0
 16 35  1  0  0  0  0
 17 19  2  0  0  0  0
 17 36  1  0  0  0  0
 18 37  1  0  0  0  0
 19 38  1  0  0  0  0
 20 39  1  0  0  0  0
 20 40  1  0  0  0  0
 20 41  1  0  0  0  0
M  END
>  <DRUGBANK_ID>
DB00344

>  <SECONDARY_ACCESSION_NUMBERS>
APRD00441

>  <COMMON_NAME>
Protriptyline

>  <CAS_NUMBER>
438-60-8

>  <UNII>
4NDU154T12

>  <SYNONYMS>
3-(5H-dibenzo[a,d][7]annulen-5-yl)-N-methylpropan-1-amine; 3-(5H-dibenzo[a,d]cyclohepten-5-yl)-N-methyl-1-propanamine; 5-(3-methylaminopropyl)-5H-dibenzo[a,d]cycloheptene; 7-(3-methylaminopropyl)-1,2:5,6-dibenzocycloheptatriene; Amimetilina; N-methyl-5H-dibenzo[a,d]cycloheptene-5-propanamine; N-methyl-5H-dibenzo[a,d]cycloheptene-5-propylamine; Protriptilina; Protriptylin; Protriptyline; Protriptylinum

$$$$
