1534
 OpenBabel10282417072D

 29 28  0  0  1  0  0  0  0  0999 V2000
    7.0944    0.8019    0.0000 Cl  0  0  0  0  0  0  0  0  0  0  0  0
    6.7925   -0.3251    0.0000 Cl  0  0  0  0  0  0  0  0  0  0  0  0
    5.9674    1.1039    0.0000 Cl  0  0  0  0  0  0  0  0  0  0  0  0
    4.9509    0.3894    0.0000 O   0  0  0  0  0  0  0  0  0  0  0  0
    2.0930   -0.4356    0.0000 O   0  0  0  0  0  0  0  0  0  0  0  0
    5.6655   -0.8481    0.0000 O   0  0  0  0  0  0  0  0  0  0  0  0
    2.8075   -0.0231    0.0000 C   0  0  0  0  0  0  0  0  0  0  0  0
    3.5220    0.3894    0.0000 C   0  0  0  0  0  0  0  0  0  0  0  0
    4.2365   -0.0231    0.0000 C   0  0  3  0  0  0  0  0  0  0  0  0
    2.3950    0.6914    0.0000 C   0  0  0  0  0  0  0  0  0  0  0  0
    3.2200   -0.7376    0.0000 C   0  0  0  0  0  0  0  0  0  0  0  0
    4.2365   -0.8481    0.0000 C   0  0  0  0  0  0  0  0  0  0  0  0
    5.6655   -0.0231    0.0000 C   0  0  3  0  0  0  0  0  0  0  0  0
    6.3799    0.3894    0.0000 C   0  0  0  0  0  0  0  0  0  0  0  0
    1.2530    0.0494    0.0000 H   0  0  0  0  0  0  0  0  0  0  0  0
    4.8255   -1.3331    0.0000 H   0  0  0  0  0  0  0  0  0  0  0  0
    3.5220    1.4594    0.0000 H   0  0  0  0  0  0  0  0  0  0  0  0
    4.4486    0.9244    0.0000 H   0  0  0  0  0  0  0  0  0  0  0  0
    4.2365    1.0469    0.0000 H   0  0  0  0  0  0  0  0  0  0  0  0
    2.9300    1.6180    0.0000 H   0  0  0  0  0  0  0  0  0  0  0  0
    1.3250    0.6914    0.0000 H   0  0  0  0  0  0  0  0  0  0  0  0
    1.8600    1.6181    0.0000 H   0  0  0  0  0  0  0  0  0  0  0  0
    2.6850   -1.6642    0.0000 H   0  0  0  0  0  0  0  0  0  0  0  0
    4.2900   -0.7376    0.0000 H   0  0  0  0  0  0  0  0  0  0  0  0
    3.7550   -1.6643    0.0000 H   0  0  0  0  0  0  0  0  0  0  0  0
    3.3099   -1.3831    0.0000 H   0  0  0  0  0  0  0  0  0  0  0  0
    5.1631   -1.3831    0.0000 H   0  0  0  0  0  0  0  0  0  0  0  0
    4.2365   -1.9181    0.0000 H   0  0  0  0  0  0  0  0  0  0  0  0
    4.7389   -0.5581    0.0000 H   0  0  0  0  0  0  0  0  0  0  0  0
  1 14  1  0  0  0  0
  2 14  1  0  0  0  0
  3 14  1  0  0  0  0
  4  9  1  0  0  0  0
  4 13  1  0  0  0  0
  5  7  1  0  0  0  0
  5 15  1  0  0  0  0
  6 13  1  0  0  0  0
  6 16  1  0  0  0  0
  7  8  1  0  0  0  0
  7 10  1  0  0  0  0
  7 11  1  0  0  0  0
  8  9  1  0  0  0  0
  8 17  1  0  0  0  0
  8 18  1  0  0  0  0
  9 12  1  0  0  0  0
  9 19  1  0  0  0  0
 10 20  1  0  0  0  0
 10 21  1  0  0  0  0
 10 22  1  0  0  0  0
 11 23  1  0  0  0  0
 11 24  1  0  0  0  0
 11 25  1  0  0  0  0
 12 26  1  0  0  0  0
 12 27  1  0  0  0  0
 12 28  1  0  0  0  0
 13 14  1  0  0  0  0
 13 29  1  0  0  0  0
M  END
>  <DRUGBANK_ID>
DB01534

>  <COMMON_NAME>
Chlorhexadol

>  <CAS_NUMBER>
3563-58-4

>  <UNII>
W8RD4N93R2

>  <SYNONYMS>
Chloralodol; Chloralodolum; Cloralodol

$$$$
