
 OpenBabel10282417072D

 45 47  0  0  0  0  0  0  0  0999 V2000
   -0.4369   -0.4125    0.0000 C   0  0  0  0  0  0  0  0  0  0  0  0
   -0.4369    0.4125    0.0000 C   0  0  3  0  0  0  0  0  0  0  0  0
   -1.1513    0.8250    0.0000 C   0  0  0  0  0  0  0  0  0  0  0  0
   -1.8658    0.4125    0.0000 C   0  0  0  0  0  0  0  0  0  0  0  0
   -1.8658   -0.4125    0.0000 C   0  0  0  0  0  0  0  0  0  0  0  0
   -2.5803   -0.8250    0.0000 C   0  0  0  0  0  0  0  0  0  0  0  0
   -3.2947   -0.4125    0.0000 C   0  0  0  0  0  0  0  0  0  0  0  0
   -4.0794   -0.6674    0.0000 O   0  0  0  0  0  0  0  0  0  0  0  0
   -4.5643    0.0000    0.0000 C   0  0  0  0  0  0  0  0  0  0  0  0
   -4.0794    0.6673    0.0000 O   0  0  0  0  0  0  0  0  0  0  0  0
   -3.2947    0.4125    0.0000 C   0  0  0  0  0  0  0  0  0  0  0  0
   -2.5803    0.8250    0.0000 C   0  0  0  0  0  0  0  0  0  0  0  0
    0.2775    0.8250    0.0000 N   0  0  0  0  0  0  0  0  0  0  0  0
    0.9920    0.4125    0.0000 C   0  0  0  0  0  0  0  0  0  0  0  0
    1.7065    0.8250    0.0000 C   0  0  3  0  0  0  0  0  0  0  0  0
    1.7065    1.6500    0.0000 O   0  0  0  0  0  0  0  0  0  0  0  0
    2.4209    0.4125    0.0000 C   0  0  0  0  0  0  0  0  0  0  0  0
    3.1354    0.8250    0.0000 C   0  0  0  0  0  0  0  0  0  0  0  0
    3.8499    0.4125    0.0000 C   0  0  0  0  0  0  0  0  0  0  0  0
    3.8499   -0.4125    0.0000 C   0  0  0  0  0  0  0  0  0  0  0  0
    4.5643   -0.8250    0.0000 O   0  0  0  0  0  0  0  0  0  0  0  0
    3.1354   -0.8250    0.0000 C   0  0  0  0  0  0  0  0  0  0  0  0
    3.1354   -1.6500    0.0000 O   0  0  0  0  0  0  0  0  0  0  0  0
    2.4209   -0.4125    0.0000 C   0  0  0  0  0  0  0  0  0  0  0  0
   -1.3635   -0.9475    0.0000 H   0  0  0  0  0  0  0  0  0  0  0  0
    0.4897   -0.9475    0.0000 H   0  0  0  0  0  0  0  0  0  0  0  0
   -0.4369   -1.4825    0.0000 H   0  0  0  0  0  0  0  0  0  0  0  0
   -1.3636   -0.1225    0.0000 H   0  0  0  0  0  0  0  0  0  0  0  0
   -1.1513    1.8950    0.0000 H   0  0  0  0  0  0  0  0  0  0  0  0
   -2.0779    1.3600    0.0000 H   0  0  0  0  0  0  0  0  0  0  0  0
   -0.9721   -0.9285    0.0000 H   0  0  0  0  0  0  0  0  0  0  0  0
   -2.5803   -1.8570    0.0000 H   0  0  0  0  0  0  0  0  0  0  0  0
   -5.6343    0.0000    0.0000 H   0  0  0  0  0  0  0  0  0  0  0  0
   -5.0500    0.9534    0.0000 H   0  0  0  0  0  0  0  0  0  0  0  0
   -2.5803    1.8570    0.0000 H   0  0  0  0  0  0  0  0  0  0  0  0
    0.2775    1.8450    0.0000 H   0  0  0  0  0  0  0  0  0  0  0  0
    0.9920   -0.6575    0.0000 H   0  0  0  0  0  0  0  0  0  0  0  0
    1.9186   -0.1225    0.0000 H   0  0  0  0  0  0  0  0  0  0  0  0
    0.7799    1.3600    0.0000 H   0  0  0  0  0  0  0  0  0  0  0  0
    2.5465    2.1350    0.0000 H   0  0  0  0  0  0  0  0  0  0  0  0
    3.1354    1.8570    0.0000 H   0  0  0  0  0  0  0  0  0  0  0  0
    4.7436    0.9285    0.0000 H   0  0  0  0  0  0  0  0  0  0  0  0
    4.5643   -1.7620    0.0000 H   0  0  0  0  0  0  0  0  0  0  0  0
    2.3239   -2.1185    0.0000 H   0  0  0  0  0  0  0  0  0  0  0  0
    1.5272   -0.9285    0.0000 H   0  0  0  0  0  0  0  0  0  0  0  0
  1  2  1  0  0  0  0
  1 25  1  0  0  0  0
  1 26  1  0  0  0  0
  1 27  1  0  0  0  0
  2  3  1  0  0  0  0
  2 13  1  0  0  0  0
  2 28  1  0  0  0  0
  3  4  1  0  0  0  0
  3 29  1  0  0  0  0
  3 30  1  0  0  0  0
  4  5  2  0  0  0  0
  4 12  1  0  0  0  0
  5  6  1  0  0  0  0
  5 31  1  0  0  0  0
  6  7  2  0  0  0  0
  6 32  1  0  0  0  0
  7  8  1  0  0  0  0
  7 11  1  0  0  0  0
  8  9  1  0  0  0  0
  9 10  1  0  0  0  0
  9 33  1  0  0  0  0
  9 34  1  0  0  0  0
 10 11  1  0  0  0  0
 11 12  2  0  0  0  0
 12 35  1  0  0  0  0
 13 14  1  0  0  0  0
 13 36  1  0  0  0  0
 14 15  1  0  0  0  0
 14 37  1  0  0  0  0
 14 38  1  0  0  0  0
 15 16  1  0  0  0  0
 15 17  1  0  0  0  0
 15 39  1  0  0  0  0
 16 40  1  0  0  0  0
 17 18  2  0  0  0  0
 17 24  1  0  0  0  0
 18 19  1  0  0  0  0
 18 41  1  0  0  0  0
 19 20  2  0  0  0  0
 19 42  1  0  0  0  0
 20 21  1  0  0  0  0
 20 22  1  0  0  0  0
 21 43  1  0  0  0  0
 22 23  1  0  0  0  0
 22 24  2  0  0  0  0
 23 44  1  0  0  0  0
 24 45  1  0  0  0  0
M  END
>  <DRUGBANK_ID>
DB06814

>  <COMMON_NAME>
Protokylol

>  <CAS_NUMBER>
136-70-9

>  <UNII>
8Y5Y4EEO2V

>  <SYNONYMS>
Protokylol; Protokylolum; Protoquilol

$$$$
