
 OpenBabel10282417072D

 56 59  0  0  0  0  0  0  0  0999 V2000
    1.0688    1.6596    0.0000 C   0  0  0  0  0  0  0  0  0  0  0  0
    1.0688    0.8345    0.0000 C   0  0  2  0  0  0  0  0  0  0  0  0
    1.0688    0.0009    0.0000 C   0  0  2  0  0  0  0  0  0  0  0  0
    1.7813    1.2500    0.0000 C   0  0  1  0  0  0  0  0  0  0  0  0
    0.3563    1.2500    0.0000 C   0  0  0  0  0  0  0  0  0  0  0  0
    0.3563   -0.4146    0.0000 C   0  0  1  0  0  0  0  0  0  0  0  0
    2.4940    0.0009    0.0000 C   0  0  0  0  0  0  0  0  0  0  0  0
    1.7813    2.0751    0.0000 C   0  0  0  0  0  0  0  0  0  0  0  0
    2.4940    0.8345    0.0000 C   0  0  1  0  0  0  0  0  0  0  0  0
   -0.3584    0.8345    0.0000 C   0  0  1  0  0  0  0  0  0  0  0  0
   -0.3584    0.0009    0.0000 C   0  0  2  0  0  0  0  0  0  0  0  0
    0.3563   -1.2459    0.0000 C   0  0  0  0  0  0  0  0  0  0  0  0
    2.4960    2.4868    0.0000 C   0  0  0  0  0  0  0  0  0  0  0  0
    1.0668    2.4868    0.0000 O   0  0  0  0  0  0  0  0  0  0  0  0
    3.2085    1.2459    0.0000 C   0  0  0  0  0  0  0  0  0  0  0  0
   -1.0729    1.2459    0.0000 O   0  0  0  0  0  0  0  0  0  0  0  0
   -1.0709   -0.4146    0.0000 C   0  0  2  0  0  0  0  0  0  0  0  0
   -0.3584   -1.6616    0.0000 C   0  0  1  0  0  0  0  0  0  0  0  0
    3.2106    2.0751    0.0000 O   0  0  0  0  0  0  0  0  0  0  0  0
   -1.0709    0.4105    0.0000 C   0  0  0  0  0  0  0  0  0  0  0  0
   -1.0709   -1.2459    0.0000 C   0  0  0  0  0  0  0  0  0  0  0  0
   -1.7834    0.0009    0.0000 C   0  0  0  0  0  0  0  0  0  0  0  0
   -0.3584   -2.4868    0.0000 F   0  0  0  0  0  0  0  0  0  0  0  0
   -1.7834   -1.6616    0.0000 C   0  0  0  0  0  0  0  0  0  0  0  0
   -2.4960   -0.4146    0.0000 C   0  0  0  0  0  0  0  0  0  0  0  0
   -2.4960   -1.2459    0.0000 C   0  0  0  0  0  0  0  0  0  0  0  0
   -3.2106   -1.6574    0.0000 O   0  0  0  0  0  0  0  0  0  0  0  0
    0.3563    0.4105    0.0000 H   0  0  0  0  0  0  0  0  0  0  0  0
   -0.3584   -0.8240    0.0000 H   0  0  0  0  0  0  0  0  0  0  0  0
    1.0688   -0.8240    0.0000 H   0  0  0  0  0  0  0  0  0  0  0  0
    1.9954    2.1946    0.0000 H   0  0  0  0  0  0  0  0  0  0  0  0
    0.1422    2.1946    0.0000 H   0  0  0  0  0  0  0  0  0  0  0  0
    1.0688    2.7296    0.0000 H   0  0  0  0  0  0  0  0  0  0  0  0
    0.8535    1.7830    0.0000 H   0  0  0  0  0  0  0  0  0  0  0  0
    0.3570    2.3200    0.0000 H   0  0  0  0  0  0  0  0  0  0  0  0
   -0.5710    1.7839    0.0000 H   0  0  0  0  0  0  0  0  0  0  0  0
    3.2506   -0.7557    0.0000 H   0  0  0  0  0  0  0  0  0  0  0  0
    3.4826    0.4104    0.0000 H   0  0  0  0  0  0  0  0  0  0  0  0
    2.4969    1.9045    0.0000 H   0  0  0  0  0  0  0  0  0  0  0  0
   -0.3606    1.9045    0.0000 H   0  0  0  0  0  0  0  0  0  0  0  0
    1.2838   -1.7794    0.0000 H   0  0  0  0  0  0  0  0  0  0  0  0
    0.3589   -2.3159    0.0000 H   0  0  0  0  0  0  0  0  0  0  0  0
    2.4960    3.5568    0.0000 H   0  0  0  0  0  0  0  0  0  0  0  0
    3.4224    3.0222    0.0000 H   0  0  0  0  0  0  0  0  0  0  0  0
    4.1345    0.7098    0.0000 H   0  0  0  0  0  0  0  0  0  0  0  0
    3.2098    2.3159    0.0000 H   0  0  0  0  0  0  0  0  0  0  0  0
    4.1358    1.7798    0.0000 H   0  0  0  0  0  0  0  0  0  0  0  0
   -1.0740    2.2159    0.0000 H   0  0  0  0  0  0  0  0  0  0  0  0
    0.5691   -2.1951    0.0000 H   0  0  0  0  0  0  0  0  0  0  0  0
    3.2115    1.1051    0.0000 H   0  0  0  0  0  0  0  0  0  0  0  0
   -0.1443    0.9455    0.0000 H   0  0  0  0  0  0  0  0  0  0  0  0
   -1.9975    0.9455    0.0000 H   0  0  0  0  0  0  0  0  0  0  0  0
   -1.0709    1.4805    0.0000 H   0  0  0  0  0  0  0  0  0  0  0  0
   -1.7834    1.0329    0.0000 H   0  0  0  0  0  0  0  0  0  0  0  0
   -1.7834   -2.6936    0.0000 H   0  0  0  0  0  0  0  0  0  0  0  0
   -3.3908    0.0995    0.0000 H   0  0  0  0  0  0  0  0  0  0  0  0
  1 31  1  0  0  0  0
  1 32  1  0  0  0  0
  1 33  1  0  0  0  0
  2  1  1  1  0  0  0
  2  4  1  0  0  0  0
  2  5  1  0  0  0  0
  3  2  1  0  0  0  0
  3  7  1  0  0  0  0
  3 30  1  6  0  0  0
  4  8  1  0  0  0  0
  4  9  1  0  0  0  0
  4 34  1  6  0  0  0
  5 35  1  0  0  0  0
  5 36  1  0  0  0  0
  6  3  1  0  0  0  0
  6 12  1  0  0  0  0
  6 28  1  1  0  0  0
  7 37  1  0  0  0  0
  7 38  1  0  0  0  0
  8 13  1  0  0  0  0
  8 14  2  0  0  0  0
  9  7  1  0  0  0  0
  9 15  1  0  0  0  0
  9 39  1  1  0  0  0
 10  5  1  0  0  0  0
 10 16  1  0  0  0  0
 10 40  1  6  0  0  0
 11  6  1  0  0  0  0
 11 10  1  0  0  0  0
 11 17  1  0  0  0  0
 11 29  1  6  0  0  0
 12 41  1  0  0  0  0
 12 42  1  0  0  0  0
 13 19  1  0  0  0  0
 13 43  1  0  0  0  0
 13 44  1  0  0  0  0
 15 45  1  0  0  0  0
 15 46  1  0  0  0  0
 15 47  1  0  0  0  0
 16 48  1  0  0  0  0
 17 20  1  1  0  0  0
 17 21  1  0  0  0  0
 17 22  1  0  0  0  0
 18 12  1  0  0  0  0
 18 21  1  0  0  0  0
 18 23  1  0  0  0  0
 18 49  1  1  0  0  0
 19 50  1  0  0  0  0
 20 51  1  0  0  0  0
 20 52  1  0  0  0  0
 20 53  1  0  0  0  0
 21 24  2  0  0  0  0
 22 25  2  0  0  0  0
 22 54  1  0  0  0  0
 24 26  1  0  0  0  0
 24 55  1  0  0  0  0
 25 26  1  0  0  0  0
 25 56  1  0  0  0  0
 26 27  2  0  0  0  0
M  END
>  <DRUGBANK_ID>
DB08971

>  <COMMON_NAME>
Fluocortolone

>  <CAS_NUMBER>
152-97-6

>  <UNII>
65VXC1MH0J

>  <SYNONYMS>
Fluocortolona; Fluocortolone

$$$$
