
 OpenBabel10282417072D

 15 15  0  0  0  0  0  0  0  0999 V2000
    0.6594    0.6815    0.0000 S   0  0  0  0  0  0  0  0  0  0  0  0
    0.6594   -0.1435    0.0000 N   0  0  0  0  0  0  0  0  0  0  0  0
   -0.0551    1.0940    0.0000 O   0  0  0  0  0  0  0  0  0  0  0  0
    1.4841    0.7103    0.0000 O   0  0  0  0  0  0  0  0  0  0  0  0
    1.0967    1.3811    0.0000 O   0  0  0  0  0  0  0  0  0  0  0  0
   -0.0551   -0.5560    0.0000 C   0  0  0  0  0  0  0  0  0  0  0  0
   -0.7697    0.6815    0.0000 C   0  0  0  0  0  0  0  0  0  0  0  0
   -0.7696   -0.1435    0.0000 C   0  0  0  0  0  0  0  0  0  0  0  0
   -0.0551   -1.3811    0.0000 O   0  0  0  0  0  0  0  0  0  0  0  0
   -1.4841    1.0940    0.0000 C   0  0  0  0  0  0  0  0  0  0  0  0
    1.5120   -0.6358    0.0000 H   0  0  0  0  0  0  0  0  0  0  0  0
   -1.6633   -0.6596    0.0000 H   0  0  0  0  0  0  0  0  0  0  0  0
   -1.4841    2.1640    0.0000 H   0  0  0  0  0  0  0  0  0  0  0  0
   -2.4108    0.5590    0.0000 H   0  0  0  0  0  0  0  0  0  0  0  0
   -2.4107    1.6290    0.0000 H   0  0  0  0  0  0  0  0  0  0  0  0
  1  2  1  0  0  0  0
  1  3  1  0  0  0  0
  1  4  2  0  0  0  0
  1  5  2  0  0  0  0
  2  6  1  0  0  0  0
  2 11  1  0  0  0  0
  3  7  1  0  0  0  0
  6  8  1  0  0  0  0
  6  9  2  0  0  0  0
  7 10  1  0  0  0  0
  7  8  2  0  0  0  0
  8 12  1  0  0  0  0
 10 13  1  0  0  0  0
 10 14  1  0  0  0  0
 10 15  1  0  0  0  0
M  END
>  <DRUGBANK_ID>
DB16868

>  <COMMON_NAME>
Acesulfame

>  <CAS_NUMBER>
33665-90-6

>  <UNII>
MA3UYZ6K1H

>  <SYNONYMS>
Acesulfame; Acesulfamo; Acetosulfame

$$$$
