
 OpenBabel10282417072D

 59 62  0  0  0  0  0  0  0  0999 V2000
    0.7600   -1.2319    0.0000 C   0  0  0  0  0  0  0  0  0  0  0  0
    0.7600   -0.4069    0.0000 C   0  0  0  0  0  0  0  0  0  0  0  0
    0.0456    0.0056    0.0000 C   0  0  0  0  0  0  0  0  0  0  0  0
   -0.6689   -0.4069    0.0000 C   0  0  0  0  0  0  0  0  0  0  0  0
   -0.6689   -1.2319    0.0000 C   0  0  0  0  0  0  0  0  0  0  0  0
   -1.3834   -1.6444    0.0000 C   0  0  0  0  0  0  0  0  0  0  0  0
   -1.3834   -2.4693    0.0000 C   0  0  0  0  0  0  0  0  0  0  0  0
   -0.6689   -2.8819    0.0000 C   0  0  0  0  0  0  0  0  0  0  0  0
    0.0456   -2.4693    0.0000 C   0  0  0  0  0  0  0  0  0  0  0  0
    0.0456   -1.6444    0.0000 C   0  0  0  0  0  0  0  0  0  0  0  0
    1.4745   -1.6444    0.0000 C   0  0  0  0  0  0  0  0  0  0  0  0
    1.4745   -2.4693    0.0000 O   0  0  0  0  0  0  0  0  0  0  0  0
    2.1890   -1.2319    0.0000 N   0  0  0  0  0  0  0  0  0  0  0  0
    2.9034   -1.6444    0.0000 C   0  0  0  0  0  0  0  0  0  0  0  0
    3.6179   -1.2319    0.0000 C   0  0  0  0  0  0  0  0  0  0  0  0
    4.3324   -1.6444    0.0000 N   0  0  0  0  0  0  0  0  0  0  0  0
    5.0469   -1.2319    0.0000 C   0  0  0  0  0  0  0  0  0  0  0  0
    5.7614   -1.6444    0.0000 C   0  0  0  0  0  0  0  0  0  0  0  0
    6.4757   -2.0569    0.0000 F   0  0  0  0  0  0  0  0  0  0  0  0
    6.1739   -0.9299    0.0000 F   0  0  0  0  0  0  0  0  0  0  0  0
    5.3489   -2.3589    0.0000 F   0  0  0  0  0  0  0  0  0  0  0  0
    3.6179   -0.4069    0.0000 O   0  0  0  0  0  0  0  0  0  0  0  0
   -2.2766    0.9976    0.0000 O   0  0  0  0  0  0  0  0  0  0  0  0
   -1.4696    0.8261    0.0000 N   0  0  0  0  0  0  0  0  0  0  0  0
   -1.3834    0.0056    0.0000 C   0  0  0  0  0  0  0  0  0  0  0  0
   -2.1371   -0.3300    0.0000 C   0  0  0  0  0  0  0  0  0  0  0  0
   -2.6891    0.2831    0.0000 C   0  0  3  0  0  0  0  0  0  0  0  0
   -3.2622   -0.3103    0.0000 C   0  0  0  0  0  0  0  0  0  0  0  0
   -2.9681   -1.0367    0.0000 F   0  0  0  0  0  0  0  0  0  0  0  0
   -3.8456   -0.8937    0.0000 F   0  0  0  0  0  0  0  0  0  0  0  0
   -4.0256   -0.0301    0.0000 F   0  0  0  0  0  0  0  0  0  0  0  0
   -3.6179    0.8194    0.0000 C   0  0  0  0  0  0  0  0  0  0  0  0
   -3.6179    1.6444    0.0000 C   0  0  0  0  0  0  0  0  0  0  0  0
   -4.3324    2.0569    0.0000 C   0  0  0  0  0  0  0  0  0  0  0  0
   -5.0469    1.6444    0.0000 C   0  0  0  0  0  0  0  0  0  0  0  0
   -5.0469    0.8194    0.0000 C   0  0  0  0  0  0  0  0  0  0  0  0
   -4.3324    0.4069    0.0000 C   0  0  0  0  0  0  0  0  0  0  0  0
   -5.7614    0.4069    0.0000 C   0  0  0  0  0  0  0  0  0  0  0  0
   -6.4757   -0.0056    0.0000 F   0  0  0  0  0  0  0  0  0  0  0  0
   -6.1739    1.1214    0.0000 F   0  0  0  0  0  0  0  0  0  0  0  0
   -5.3489   -0.3076    0.0000 F   0  0  0  0  0  0  0  0  0  0  0  0
   -4.3324    2.8819    0.0000 Cl  0  0  0  0  0  0  0  0  0  0  0  0
    1.6537    0.1091    0.0000 H   0  0  0  0  0  0  0  0  0  0  0  0
    0.0456    1.0376    0.0000 H   0  0  0  0  0  0  0  0  0  0  0  0
   -2.2771   -1.1284    0.0000 H   0  0  0  0  0  0  0  0  0  0  0  0
   -2.2772   -2.9853    0.0000 H   0  0  0  0  0  0  0  0  0  0  0  0
   -0.6689   -3.9139    0.0000 H   0  0  0  0  0  0  0  0  0  0  0  0
    0.9394   -2.9853    0.0000 H   0  0  0  0  0  0  0  0  0  0  0  0
    2.1890   -0.2474    0.0000 H   0  0  0  0  0  0  0  0  0  0  0  0
    2.9034   -2.7144    0.0000 H   0  0  0  0  0  0  0  0  0  0  0  0
    1.9767   -2.1794    0.0000 H   0  0  0  0  0  0  0  0  0  0  0  0
    4.3324   -2.6289    0.0000 H   0  0  0  0  0  0  0  0  0  0  0  0
    5.0469   -0.1619    0.0000 H   0  0  0  0  0  0  0  0  0  0  0  0
    4.1203   -0.6969    0.0000 H   0  0  0  0  0  0  0  0  0  0  0  0
   -2.3596   -1.3766    0.0000 H   0  0  0  0  0  0  0  0  0  0  0  0
   -3.1706   -0.6069    0.0000 H   0  0  0  0  0  0  0  0  0  0  0  0
   -2.7242    2.1604    0.0000 H   0  0  0  0  0  0  0  0  0  0  0  0
   -5.9406    2.1604    0.0000 H   0  0  0  0  0  0  0  0  0  0  0  0
   -4.3324   -0.6251    0.0000 H   0  0  0  0  0  0  0  0  0  0  0  0
  1  2  1  0  0  0  0
  1 10  2  0  0  0  0
  1 11  1  0  0  0  0
  2  3  2  0  0  0  0
  2 43  1  0  0  0  0
  3  4  1  0  0  0  0
  3 44  1  0  0  0  0
  4  5  2  0  0  0  0
  4 25  1  0  0  0  0
  5  6  1  0  0  0  0
  5 10  1  0  0  0  0
  6  7  2  0  0  0  0
  6 45  1  0  0  0  0
  7  8  1  0  0  0  0
  7 46  1  0  0  0  0
  8  9  2  0  0  0  0
  8 47  1  0  0  0  0
  9 10  1  0  0  0  0
  9 48  1  0  0  0  0
 11 12  2  0  0  0  0
 11 13  1  0  0  0  0
 13 14  1  0  0  0  0
 13 49  1  0  0  0  0
 14 15  1  0  0  0  0
 14 50  1  0  0  0  0
 14 51  1  0  0  0  0
 15 16  1  0  0  0  0
 15 22  2  0  0  0  0
 16 17  1  0  0  0  0
 16 52  1  0  0  0  0
 17 18  1  0  0  0  0
 17 53  1  0  0  0  0
 17 54  1  0  0  0  0
 18 19  1  0  0  0  0
 18 20  1  0  0  0  0
 18 21  1  0  0  0  0
 23 24  1  0  0  0  0
 23 27  1  0  0  0  0
 24 25  2  0  0  0  0
 25 26  1  0  0  0  0
 26 27  1  0  0  0  0
 26 55  1  0  0  0  0
 26 56  1  0  0  0  0
 27 28  1  0  0  0  0
 27 32  1  0  0  0  0
 28 29  1  0  0  0  0
 28 30  1  0  0  0  0
 28 31  1  0  0  0  0
 32 33  1  0  0  0  0
 32 37  2  0  0  0  0
 33 34  2  0  0  0  0
 33 57  1  0  0  0  0
 34 35  1  0  0  0  0
 34 42  1  0  0  0  0
 35 36  2  0  0  0  0
 35 58  1  0  0  0  0
 36 37  1  0  0  0  0
 36 38  1  0  0  0  0
 37 59  1  0  0  0  0
 38 39  1  0  0  0  0
 38 40  1  0  0  0  0
 38 41  1  0  0  0  0
M  END
>  <DRUGBANK_ID>
DB11369

>  <COMMON_NAME>
Afoxolaner

>  <CAS_NUMBER>
1093861-60-9

>  <UNII>
02L07H6D0U

>  <SYNONYMS>
Afoxolaner

$$$$
