
 OpenBabel10282417072D

255253  0  0  0  0  0  0  0  0999 V2000
   -6.7051    5.4262    0.0000 O   0  6  0  0  0  0  0  0  0  0  0  0
   -3.4051    5.4262    0.0000 O   0  6  0  0  0  0  0  0  0  0  0  0
   -1.0480    5.4262    0.0000 O   0  6  0  0  0  0  0  0  0  0  0  0
   -4.2598    2.3381    0.0000 Na  0  3  0  0  0  0  0  0  0  0  0  0
   -7.5301    5.4262    0.0000 Fe  0  1  0  0  0  0  0  0  0  0  0  0
   -4.2301    5.4262    0.0000 Fe  0  1  0  0  0  0  0  0  0  0  0  0
   -9.9755    1.5131    0.0000 O   0  0  0  0  0  0  0  0  0  0  0  0
   -9.2611    1.9256    0.0000 C   0  0  0  0  0  0  0  0  0  0  0  0
   -8.5466    1.5131    0.0000 C   0  0  1  0  0  0  0  0  0  0  0  0
   -8.5466    0.6881    0.0000 O   0  0  0  0  0  0  0  0  0  0  0  0
   -7.8321    1.9256    0.0000 C   0  0  1  0  0  0  0  0  0  0  0  0
   -7.8321    2.7506    0.0000 O   0  0  0  0  0  0  0  0  0  0  0  0
   -7.1176    1.5131    0.0000 C   0  0  2  0  0  0  0  0  0  0  0  0
   -7.1176    0.6881    0.0000 O   0  0  0  0  0  0  0  0  0  0  0  0
   -6.4032    1.9256    0.0000 C   0  0  1  0  0  0  0  0  0  0  0  0
   -6.4032    2.7506    0.0000 O   0  0  0  0  0  0  0  0  0  0  0  0
   -5.6887    1.5131    0.0000 C   0  0  0  0  0  0  0  0  0  0  0  0
   -5.6887    0.6881    0.0000 O   0  0  0  0  0  0  0  0  0  0  0  0
   -4.9742    1.9256    0.0000 O   0  5  0  0  0  0  0  0  0  0  0  0
    2.5607    0.4662    0.0000 O   0  0  0  0  0  0  0  0  0  0  0  0
    1.7538    0.6377    0.0000 C   0  0  0  0  0  0  0  0  0  0  0  0
    1.4988    1.4224    0.0000 C   0  0  1  0  0  0  0  0  0  0  0  0
    0.6919    1.5939    0.0000 O   0  0  0  0  0  0  0  0  0  0  0  0
    0.4369    2.3785    0.0000 C   0  0  2  0  0  0  0  0  0  0  0  0
   -0.3700    2.5500    0.0000 O   0  0  0  0  0  0  0  0  0  0  0  0
   -0.9220    1.9369    0.0000 C   0  0  2  0  0  0  0  0  0  0  0  0
   -1.4740    2.5500    0.0000 C   0  0  0  0  0  0  0  0  0  0  0  0
   -2.2810    2.3785    0.0000 O   0  0  0  0  0  0  0  0  0  0  0  0
   -0.2545    1.4520    0.0000 O   0  0  0  0  0  0  0  0  0  0  0  0
   -0.5095    0.6674    0.0000 C   0  0  2  0  0  0  0  0  0  0  0  0
   -0.0246    0.0000    0.0000 C   0  0  0  0  0  0  0  0  0  0  0  0
    0.7958    0.0862    0.0000 O   0  0  0  0  0  0  0  0  0  0  0  0
   -1.3345    0.6674    0.0000 C   0  0  1  0  0  0  0  0  0  0  0  0
   -1.8194    0.0000    0.0000 O   0  0  0  0  0  0  0  0  0  0  0  0
   -1.5894    1.4520    0.0000 C   0  0  2  0  0  0  0  0  0  0  0  0
   -2.3740    1.7069    0.0000 O   0  0  0  0  0  0  0  0  0  0  0  0
    0.9890    2.9916    0.0000 C   0  0  2  0  0  0  0  0  0  0  0  0
    0.7340    3.7762    0.0000 O   0  0  0  0  0  0  0  0  0  0  0  0
    1.7959    2.8201    0.0000 C   0  0  1  0  0  0  0  0  0  0  0  0
    2.3480    3.4332    0.0000 O   0  0  0  0  0  0  0  0  0  0  0  0
    2.0509    2.0354    0.0000 C   0  0  2  0  0  0  0  0  0  0  0  0
    2.8578    1.8639    0.0000 O   0  0  0  0  0  0  0  0  0  0  0  0
    9.6784    0.4662    0.0000 O   0  0  0  0  0  0  0  0  0  0  0  0
    8.8715    0.6377    0.0000 C   0  0  0  0  0  0  0  0  0  0  0  0
    8.6165    1.4224    0.0000 C   0  0  1  0  0  0  0  0  0  0  0  0
    7.8096    1.5939    0.0000 O   0  0  0  0  0  0  0  0  0  0  0  0
    7.5546    2.3785    0.0000 C   0  0  2  0  0  0  0  0  0  0  0  0
    6.7476    2.5500    0.0000 O   0  0  0  0  0  0  0  0  0  0  0  0
    6.1956    1.9369    0.0000 C   0  0  2  0  0  0  0  0  0  0  0  0
    5.6436    2.5500    0.0000 C   0  0  0  0  0  0  0  0  0  0  0  0
    4.8366    2.3785    0.0000 O   0  0  0  0  0  0  0  0  0  0  0  0
    6.8630    1.4520    0.0000 O   0  0  0  0  0  0  0  0  0  0  0  0
    6.6081    0.6674    0.0000 C   0  0  2  0  0  0  0  0  0  0  0  0
    7.0930    0.0000    0.0000 C   0  0  0  0  0  0  0  0  0  0  0  0
    7.9135    0.0862    0.0000 O   0  0  0  0  0  0  0  0  0  0  0  0
    5.7831    0.6674    0.0000 C   0  0  1  0  0  0  0  0  0  0  0  0
    5.2982    0.0000    0.0000 O   0  0  0  0  0  0  0  0  0  0  0  0
    5.5282    1.4520    0.0000 C   0  0  2  0  0  0  0  0  0  0  0  0
    4.7435    1.7069    0.0000 O   0  0  0  0  0  0  0  0  0  0  0  0
    8.1066    2.9916    0.0000 C   0  0  2  0  0  0  0  0  0  0  0  0
    7.8517    3.7762    0.0000 O   0  0  0  0  0  0  0  0  0  0  0  0
    8.9136    2.8201    0.0000 C   0  0  1  0  0  0  0  0  0  0  0  0
    9.4657    3.4332    0.0000 O   0  0  0  0  0  0  0  0  0  0  0  0
    9.1686    2.0354    0.0000 C   0  0  2  0  0  0  0  0  0  0  0  0
    9.9755    1.8639    0.0000 O   0  0  0  0  0  0  0  0  0  0  0  0
   -4.7986   -4.9600    0.0000 O   0  0  0  0  0  0  0  0  0  0  0  0
   -5.6056   -4.7884    0.0000 C   0  0  0  0  0  0  0  0  0  0  0  0
   -5.8605   -4.0038    0.0000 C   0  0  1  0  0  0  0  0  0  0  0  0
   -6.6675   -3.8323    0.0000 O   0  0  0  0  0  0  0  0  0  0  0  0
   -6.9224   -3.0477    0.0000 C   0  0  2  0  0  0  0  0  0  0  0  0
   -7.7294   -2.8761    0.0000 O   0  0  0  0  0  0  0  0  0  0  0  0
   -8.2814   -3.4892    0.0000 C   0  0  2  0  0  0  0  0  0  0  0  0
   -8.8335   -2.8761    0.0000 C   0  0  0  0  0  0  0  0  0  0  0  0
   -9.6405   -3.0477    0.0000 O   0  0  0  0  0  0  0  0  0  0  0  0
   -7.6140   -3.9742    0.0000 O   0  0  0  0  0  0  0  0  0  0  0  0
   -7.8689   -4.7588    0.0000 C   0  0  2  0  0  0  0  0  0  0  0  0
   -7.3840   -5.4262    0.0000 C   0  0  0  0  0  0  0  0  0  0  0  0
   -6.5635   -5.3400    0.0000 O   0  0  0  0  0  0  0  0  0  0  0  0
   -8.6939   -4.7588    0.0000 C   0  0  1  0  0  0  0  0  0  0  0  0
   -9.1789   -5.4262    0.0000 O   0  0  0  0  0  0  0  0  0  0  0  0
   -8.9489   -3.9742    0.0000 C   0  0  2  0  0  0  0  0  0  0  0  0
   -9.7335   -3.7192    0.0000 O   0  0  0  0  0  0  0  0  0  0  0  0
   -6.3704   -2.4346    0.0000 C   0  0  2  0  0  0  0  0  0  0  0  0
   -6.6253   -1.6500    0.0000 O   0  0  0  0  0  0  0  0  0  0  0  0
   -5.5634   -2.6061    0.0000 C   0  0  1  0  0  0  0  0  0  0  0  0
   -5.0114   -1.9930    0.0000 O   0  0  0  0  0  0  0  0  0  0  0  0
   -5.3085   -3.3907    0.0000 C   0  0  2  0  0  0  0  0  0  0  0  0
   -4.5015   -3.5622    0.0000 O   0  0  0  0  0  0  0  0  0  0  0  0
    2.3190   -4.9600    0.0000 O   0  0  0  0  0  0  0  0  0  0  0  0
    1.5120   -4.7884    0.0000 C   0  0  0  0  0  0  0  0  0  0  0  0
    1.2571   -4.0038    0.0000 C   0  0  1  0  0  0  0  0  0  0  0  0
    0.4501   -3.8323    0.0000 O   0  0  0  0  0  0  0  0  0  0  0  0
    0.1952   -3.0477    0.0000 C   0  0  2  0  0  0  0  0  0  0  0  0
   -0.6117   -2.8761    0.0000 O   0  0  0  0  0  0  0  0  0  0  0  0
   -1.1638   -3.4892    0.0000 C   0  0  2  0  0  0  0  0  0  0  0  0
   -1.7158   -2.8761    0.0000 C   0  0  0  0  0  0  0  0  0  0  0  0
   -2.5228   -3.0477    0.0000 O   0  0  0  0  0  0  0  0  0  0  0  0
   -0.4963   -3.9742    0.0000 O   0  0  0  0  0  0  0  0  0  0  0  0
   -0.7513   -4.7588    0.0000 C   0  0  2  0  0  0  0  0  0  0  0  0
   -0.2663   -5.4262    0.0000 C   0  0  0  0  0  0  0  0  0  0  0  0
    0.5541   -5.3400    0.0000 O   0  0  0  0  0  0  0  0  0  0  0  0
   -1.5763   -4.7588    0.0000 C   0  0  1  0  0  0  0  0  0  0  0  0
   -2.0612   -5.4262    0.0000 O   0  0  0  0  0  0  0  0  0  0  0  0
   -1.8312   -3.9742    0.0000 C   0  0  2  0  0  0  0  0  0  0  0  0
   -2.6158   -3.7192    0.0000 O   0  0  0  0  0  0  0  0  0  0  0  0
    0.7472   -2.4346    0.0000 C   0  0  2  0  0  0  0  0  0  0  0  0
    0.4922   -1.6500    0.0000 O   0  0  0  0  0  0  0  0  0  0  0  0
    1.5542   -2.6061    0.0000 C   0  0  1  0  0  0  0  0  0  0  0  0
    2.1062   -1.9930    0.0000 O   0  0  0  0  0  0  0  0  0  0  0  0
    1.8091   -3.3907    0.0000 C   0  0  2  0  0  0  0  0  0  0  0  0
    2.6161   -3.5622    0.0000 O   0  0  0  0  0  0  0  0  0  0  0  0
    9.4367   -4.9600    0.0000 O   0  0  0  0  0  0  0  0  0  0  0  0
    8.6297   -4.7884    0.0000 C   0  0  0  0  0  0  0  0  0  0  0  0
    8.3748   -4.0038    0.0000 C   0  0  1  0  0  0  0  0  0  0  0  0
    7.5678   -3.8323    0.0000 O   0  0  0  0  0  0  0  0  0  0  0  0
    7.3128   -3.0477    0.0000 C   0  0  2  0  0  0  0  0  0  0  0  0
    6.5059   -2.8761    0.0000 O   0  0  0  0  0  0  0  0  0  0  0  0
    5.9538   -3.4892    0.0000 C   0  0  2  0  0  0  0  0  0  0  0  0
    5.4018   -2.8761    0.0000 C   0  0  0  0  0  0  0  0  0  0  0  0
    4.5948   -3.0477    0.0000 O   0  0  0  0  0  0  0  0  0  0  0  0
    6.6213   -3.9742    0.0000 O   0  0  0  0  0  0  0  0  0  0  0  0
    6.3663   -4.7588    0.0000 C   0  0  2  0  0  0  0  0  0  0  0  0
    6.8513   -5.4262    0.0000 C   0  0  0  0  0  0  0  0  0  0  0  0
    7.6717   -5.3400    0.0000 O   0  0  0  0  0  0  0  0  0  0  0  0
    5.5413   -4.7588    0.0000 C   0  0  1  0  0  0  0  0  0  0  0  0
    5.0564   -5.4262    0.0000 O   0  0  0  0  0  0  0  0  0  0  0  0
    5.2864   -3.9742    0.0000 C   0  0  2  0  0  0  0  0  0  0  0  0
    4.5018   -3.7192    0.0000 O   0  0  0  0  0  0  0  0  0  0  0  0
    7.8649   -2.4346    0.0000 C   0  0  2  0  0  0  0  0  0  0  0  0
    7.6099   -1.6500    0.0000 O   0  0  0  0  0  0  0  0  0  0  0  0
    8.6719   -2.6061    0.0000 C   0  0  1  0  0  0  0  0  0  0  0  0
    9.2239   -1.9930    0.0000 O   0  0  0  0  0  0  0  0  0  0  0  0
    8.9268   -3.3907    0.0000 C   0  0  2  0  0  0  0  0  0  0  0  0
    9.7338   -3.5622    0.0000 O   0  0  0  0  0  0  0  0  0  0  0  0
  -10.8156    1.9981    0.0000 H   0  0  0  0  0  0  0  0  0  0  0  0
   -9.2611    2.9956    0.0000 H   0  0  0  0  0  0  0  0  0  0  0  0
   -8.3345    2.4606    0.0000 H   0  0  0  0  0  0  0  0  0  0  0  0
   -9.4732    0.9781    0.0000 H   0  0  0  0  0  0  0  0  0  0  0  0
   -9.3866    0.2031    0.0000 H   0  0  0  0  0  0  0  0  0  0  0  0
   -8.7587    2.4606    0.0000 H   0  0  0  0  0  0  0  0  0  0  0  0
   -6.9921    3.2356    0.0000 H   0  0  0  0  0  0  0  0  0  0  0  0
   -8.0442    0.9781    0.0000 H   0  0  0  0  0  0  0  0  0  0  0  0
   -7.9576    0.2031    0.0000 H   0  0  0  0  0  0  0  0  0  0  0  0
   -7.3299    2.4606    0.0000 H   0  0  0  0  0  0  0  0  0  0  0  0
   -5.5632    3.2356    0.0000 H   0  0  0  0  0  0  0  0  0  0  0  0
    2.8605   -0.4563    0.0000 H   0  0  0  0  0  0  0  0  0  0  0  0
    1.0379   -0.1575    0.0000 H   0  0  0  0  0  0  0  0  0  0  0  0
    0.7072    0.8601    0.0000 H   0  0  0  0  0  0  0  0  0  0  0  0
    0.7829    0.6272    0.0000 H   0  0  0  0  0  0  0  0  0  0  0  0
   -0.2790    1.5833    0.0000 H   0  0  0  0  0  0  0  0  0  0  0  0
   -1.1433    3.5676    0.0000 H   0  0  0  0  0  0  0  0  0  0  0  0
   -2.1899    3.3452    0.0000 H   0  0  0  0  0  0  0  0  0  0  0  0
   -2.9300    3.0994    0.0000 H   0  0  0  0  0  0  0  0  0  0  0  0
    0.5473    0.8347    0.0000 H   0  0  0  0  0  0  0  0  0  0  0  0
   -0.4598   -0.9775    0.0000 H   0  0  0  0  0  0  0  0  0  0  0  0
    0.6043   -0.8657    0.0000 H   0  0  0  0  0  0  0  0  0  0  0  0
    1.3659   -0.6986    0.0000 H   0  0  0  0  0  0  0  0  0  0  0  0
   -0.8487   -0.2860    0.0000 H   0  0  0  0  0  0  0  0  0  0  0  0
   -2.7841    0.1014    0.0000 H   0  0  0  0  0  0  0  0  0  0  0  0
   -2.3460    0.6954    0.0000 H   0  0  0  0  0  0  0  0  0  0  0  0
   -2.5757    2.6557    0.0000 H   0  0  0  0  0  0  0  0  0  0  0  0
   -0.0576    3.2141    0.0000 H   0  0  0  0  0  0  0  0  0  0  0  0
    1.3830    4.4971    0.0000 H   0  0  0  0  0  0  0  0  0  0  0  0
    1.4653    3.8377    0.0000 H   0  0  0  0  0  0  0  0  0  0  0  0
    3.2968    3.2315    0.0000 H   0  0  0  0  0  0  0  0  0  0  0  0
    2.7668    2.8306    0.0000 H   0  0  0  0  0  0  0  0  0  0  0  0
    3.1576    0.9414    0.0000 H   0  0  0  0  0  0  0  0  0  0  0  0
    9.9782   -0.4563    0.0000 H   0  0  0  0  0  0  0  0  0  0  0  0
    8.1556   -0.1575    0.0000 H   0  0  0  0  0  0  0  0  0  0  0  0
    7.8249    0.8601    0.0000 H   0  0  0  0  0  0  0  0  0  0  0  0
    7.9006    0.6272    0.0000 H   0  0  0  0  0  0  0  0  0  0  0  0
    6.8387    1.5833    0.0000 H   0  0  0  0  0  0  0  0  0  0  0  0
    5.9743    3.5676    0.0000 H   0  0  0  0  0  0  0  0  0  0  0  0
    4.9277    3.3452    0.0000 H   0  0  0  0  0  0  0  0  0  0  0  0
    4.1876    3.0994    0.0000 H   0  0  0  0  0  0  0  0  0  0  0  0
    7.6649    0.8348    0.0000 H   0  0  0  0  0  0  0  0  0  0  0  0
    6.6578   -0.9775    0.0000 H   0  0  0  0  0  0  0  0  0  0  0  0
    7.7219   -0.8657    0.0000 H   0  0  0  0  0  0  0  0  0  0  0  0
    8.4836   -0.6986    0.0000 H   0  0  0  0  0  0  0  0  0  0  0  0
    6.2689   -0.2860    0.0000 H   0  0  0  0  0  0  0  0  0  0  0  0
    4.3335    0.1014    0.0000 H   0  0  0  0  0  0  0  0  0  0  0  0
    4.7716    0.6954    0.0000 H   0  0  0  0  0  0  0  0  0  0  0  0
    4.5418    2.6557    0.0000 H   0  0  0  0  0  0  0  0  0  0  0  0
    7.0600    3.2141    0.0000 H   0  0  0  0  0  0  0  0  0  0  0  0
    8.5008    4.4970    0.0000 H   0  0  0  0  0  0  0  0  0  0  0  0
    8.5830    3.8377    0.0000 H   0  0  0  0  0  0  0  0  0  0  0  0
   10.4145    3.2315    0.0000 H   0  0  0  0  0  0  0  0  0  0  0  0
    9.8845    2.8306    0.0000 H   0  0  0  0  0  0  0  0  0  0  0  0
   10.2753    0.9414    0.0000 H   0  0  0  0  0  0  0  0  0  0  0  0
   -4.4989   -5.8825    0.0000 H   0  0  0  0  0  0  0  0  0  0  0  0
   -6.3216   -5.5835    0.0000 H   0  0  0  0  0  0  0  0  0  0  0  0
   -6.6522   -4.5659    0.0000 H   0  0  0  0  0  0  0  0  0  0  0  0
   -6.5765   -4.7990    0.0000 H   0  0  0  0  0  0  0  0  0  0  0  0
   -7.6384   -3.8428    0.0000 H   0  0  0  0  0  0  0  0  0  0  0  0
   -8.5029   -1.8584    0.0000 H   0  0  0  0  0  0  0  0  0  0  0  0
   -9.5495   -2.0810    0.0000 H   0  0  0  0  0  0  0  0  0  0  0  0
  -10.2896   -2.3269    0.0000 H   0  0  0  0  0  0  0  0  0  0  0  0
   -6.8121   -4.5914    0.0000 H   0  0  0  0  0  0  0  0  0  0  0  0
   -7.8192   -6.4037    0.0000 H   0  0  0  0  0  0  0  0  0  0  0  0
   -6.7551   -6.2919    0.0000 H   0  0  0  0  0  0  0  0  0  0  0  0
   -5.9934   -6.1248    0.0000 H   0  0  0  0  0  0  0  0  0  0  0  0
   -8.2082   -5.7122    0.0000 H   0  0  0  0  0  0  0  0  0  0  0  0
  -10.1436   -5.3247    0.0000 H   0  0  0  0  0  0  0  0  0  0  0  0
   -9.7055   -4.7308    0.0000 H   0  0  0  0  0  0  0  0  0  0  0  0
   -9.9351   -2.7704    0.0000 H   0  0  0  0  0  0  0  0  0  0  0  0
   -7.4170   -2.2121    0.0000 H   0  0  0  0  0  0  0  0  0  0  0  0
   -5.9762   -0.9292    0.0000 H   0  0  0  0  0  0  0  0  0  0  0  0
   -5.8941   -1.5885    0.0000 H   0  0  0  0  0  0  0  0  0  0  0  0
   -4.0626   -2.1946    0.0000 H   0  0  0  0  0  0  0  0  0  0  0  0
   -4.5925   -2.5955    0.0000 H   0  0  0  0  0  0  0  0  0  0  0  0
   -4.2017   -4.4847    0.0000 H   0  0  0  0  0  0  0  0  0  0  0  0
    2.6187   -5.8825    0.0000 H   0  0  0  0  0  0  0  0  0  0  0  0
    0.7960   -5.5835    0.0000 H   0  0  0  0  0  0  0  0  0  0  0  0
    0.4654   -4.5659    0.0000 H   0  0  0  0  0  0  0  0  0  0  0  0
    0.5411   -4.7990    0.0000 H   0  0  0  0  0  0  0  0  0  0  0  0
   -0.5208   -3.8428    0.0000 H   0  0  0  0  0  0  0  0  0  0  0  0
   -1.3852   -1.8585    0.0000 H   0  0  0  0  0  0  0  0  0  0  0  0
   -2.4318   -2.0810    0.0000 H   0  0  0  0  0  0  0  0  0  0  0  0
   -3.1719   -2.3269    0.0000 H   0  0  0  0  0  0  0  0  0  0  0  0
    0.3055   -4.5914    0.0000 H   0  0  0  0  0  0  0  0  0  0  0  0
   -0.7015   -6.4037    0.0000 H   0  0  0  0  0  0  0  0  0  0  0  0
    0.3626   -6.2918    0.0000 H   0  0  0  0  0  0  0  0  0  0  0  0
    1.1242   -6.1248    0.0000 H   0  0  0  0  0  0  0  0  0  0  0  0
   -1.0905   -5.7122    0.0000 H   0  0  0  0  0  0  0  0  0  0  0  0
   -3.0259   -5.3248    0.0000 H   0  0  0  0  0  0  0  0  0  0  0  0
   -2.5878   -4.7308    0.0000 H   0  0  0  0  0  0  0  0  0  0  0  0
   -2.8174   -2.7704    0.0000 H   0  0  0  0  0  0  0  0  0  0  0  0
   -0.2994   -2.2122    0.0000 H   0  0  0  0  0  0  0  0  0  0  0  0
    1.1412   -0.9291    0.0000 H   0  0  0  0  0  0  0  0  0  0  0  0
    1.2235   -1.5885    0.0000 H   0  0  0  0  0  0  0  0  0  0  0  0
    3.0550   -2.1946    0.0000 H   0  0  0  0  0  0  0  0  0  0  0  0
    2.5251   -2.5955    0.0000 H   0  0  0  0  0  0  0  0  0  0  0  0
    2.9159   -4.4847    0.0000 H   0  0  0  0  0  0  0  0  0  0  0  0
    9.7364   -5.8825    0.0000 H   0  0  0  0  0  0  0  0  0  0  0  0
    7.9137   -5.5835    0.0000 H   0  0  0  0  0  0  0  0  0  0  0  0
    7.5831   -4.5659    0.0000 H   0  0  0  0  0  0  0  0  0  0  0  0
    7.6588   -4.7990    0.0000 H   0  0  0  0  0  0  0  0  0  0  0  0
    6.5968   -3.8429    0.0000 H   0  0  0  0  0  0  0  0  0  0  0  0
    5.7324   -1.8585    0.0000 H   0  0  0  0  0  0  0  0  0  0  0  0
    4.6858   -2.0810    0.0000 H   0  0  0  0  0  0  0  0  0  0  0  0
    3.9457   -2.3269    0.0000 H   0  0  0  0  0  0  0  0  0  0  0  0
    7.4231   -4.5914    0.0000 H   0  0  0  0  0  0  0  0  0  0  0  0
    6.4161   -6.4037    0.0000 H   0  0  0  0  0  0  0  0  0  0  0  0
    7.4802   -6.2918    0.0000 H   0  0  0  0  0  0  0  0  0  0  0  0
    8.2418   -6.1248    0.0000 H   0  0  0  0  0  0  0  0  0  0  0  0
    6.0271   -5.7122    0.0000 H   0  0  0  0  0  0  0  0  0  0  0  0
    4.0917   -5.3248    0.0000 H   0  0  0  0  0  0  0  0  0  0  0  0
    4.5298   -4.7308    0.0000 H   0  0  0  0  0  0  0  0  0  0  0  0
    4.3002   -2.7704    0.0000 H   0  0  0  0  0  0  0  0  0  0  0  0
    6.8183   -2.2121    0.0000 H   0  0  0  0  0  0  0  0  0  0  0  0
    8.2589   -0.9291    0.0000 H   0  0  0  0  0  0  0  0  0  0  0  0
    8.3412   -1.5885    0.0000 H   0  0  0  0  0  0  0  0  0  0  0  0
   10.1727   -2.1946    0.0000 H   0  0  0  0  0  0  0  0  0  0  0  0
    9.6428   -2.5955    0.0000 H   0  0  0  0  0  0  0  0  0  0  0  0
   10.0336   -4.4847    0.0000 H   0  0  0  0  0  0  0  0  0  0  0  0
  7  8  1  0  0  0  0
  7135  1  0  0  0  0
  8  9  1  0  0  0  0
  8136  1  0  0  0  0
  8137  1  0  0  0  0
  9 10  1  0  0  0  0
  9 11  1  0  0  0  0
  9138  1  1  0  0  0
 10139  1  0  0  0  0
 11 12  1  0  0  0  0
 11 13  1  0  0  0  0
 11140  1  6  0  0  0
 12141  1  0  0  0  0
 13 14  1  0  0  0  0
 13 15  1  0  0  0  0
 13142  1  6  0  0  0
 14143  1  0  0  0  0
 15 16  1  0  0  0  0
 15 17  1  0  0  0  0
 15144  1  6  0  0  0
 16145  1  0  0  0  0
 17 18  2  0  0  0  0
 17 19  1  0  0  0  0
 20 21  1  0  0  0  0
 20146  1  0  0  0  0
 21147  1  0  0  0  0
 21148  1  0  0  0  0
 22 21  1  0  0  0  0
 22 23  1  0  0  0  0
 22 41  1  0  0  0  0
 22149  1  6  0  0  0
 23 24  1  0  0  0  0
 24 25  1  0  0  0  0
 24 37  1  0  0  0  0
 24150  1  1  0  0  0
 26 25  1  6  0  0  0
 26 27  1  0  0  0  0
 26 29  1  0  0  0  0
 26 35  1  0  0  0  0
 27 28  1  0  0  0  0
 27151  1  0  0  0  0
 27152  1  0  0  0  0
 28153  1  0  0  0  0
 29 30  1  0  0  0  0
 30 31  1  0  0  0  0
 30 33  1  0  0  0  0
 30154  1  1  0  0  0
 31 32  1  0  0  0  0
 31155  1  0  0  0  0
 31156  1  0  0  0  0
 32157  1  0  0  0  0
 33 34  1  0  0  0  0
 33 35  1  0  0  0  0
 33158  1  6  0  0  0
 34159  1  0  0  0  0
 35 36  1  0  0  0  0
 35160  1  1  0  0  0
 36161  1  0  0  0  0
 37 38  1  0  0  0  0
 37 39  1  0  0  0  0
 37162  1  1  0  0  0
 38163  1  0  0  0  0
 39 40  1  0  0  0  0
 39 41  1  0  0  0  0
 39164  1  6  0  0  0
 40165  1  0  0  0  0
 41 42  1  0  0  0  0
 41166  1  1  0  0  0
 42167  1  0  0  0  0
 43 44  1  0  0  0  0
 43168  1  0  0  0  0
 44169  1  0  0  0  0
 44170  1  0  0  0  0
 45 44  1  0  0  0  0
 45 46  1  0  0  0  0
 45 64  1  0  0  0  0
 45171  1  6  0  0  0
 46 47  1  0  0  0  0
 47 48  1  0  0  0  0
 47 60  1  0  0  0  0
 47172  1  1  0  0  0
 49 48  1  6  0  0  0
 49 50  1  0  0  0  0
 49 52  1  0  0  0  0
 49 58  1  0  0  0  0
 50 51  1  0  0  0  0
 50173  1  0  0  0  0
 50174  1  0  0  0  0
 51175  1  0  0  0  0
 52 53  1  0  0  0  0
 53 54  1  0  0  0  0
 53 56  1  0  0  0  0
 53176  1  1  0  0  0
 54 55  1  0  0  0  0
 54177  1  0  0  0  0
 54178  1  0  0  0  0
 55179  1  0  0  0  0
 56 57  1  0  0  0  0
 56 58  1  0  0  0  0
 56180  1  6  0  0  0
 57181  1  0  0  0  0
 58 59  1  0  0  0  0
 58182  1  1  0  0  0
 59183  1  0  0  0  0
 60 61  1  0  0  0  0
 60 62  1  0  0  0  0
 60184  1  1  0  0  0
 61185  1  0  0  0  0
 62 63  1  0  0  0  0
 62 64  1  0  0  0  0
 62186  1  6  0  0  0
 63187  1  0  0  0  0
 64 65  1  0  0  0  0
 64188  1  1  0  0  0
 65189  1  0  0  0  0
 66 67  1  0  0  0  0
 66190  1  0  0  0  0
 67191  1  0  0  0  0
 67192  1  0  0  0  0
 68 67  1  0  0  0  0
 68 69  1  0  0  0  0
 68 87  1  0  0  0  0
 68193  1  6  0  0  0
 69 70  1  0  0  0  0
 70 71  1  0  0  0  0
 70 83  1  0  0  0  0
 70194  1  1  0  0  0
 72 71  1  6  0  0  0
 72 73  1  0  0  0  0
 72 75  1  0  0  0  0
 72 81  1  0  0  0  0
 73 74  1  0  0  0  0
 73195  1  0  0  0  0
 73196  1  0  0  0  0
 74197  1  0  0  0  0
 75 76  1  0  0  0  0
 76 77  1  0  0  0  0
 76 79  1  0  0  0  0
 76198  1  1  0  0  0
 77 78  1  0  0  0  0
 77199  1  0  0  0  0
 77200  1  0  0  0  0
 78201  1  0  0  0  0
 79 80  1  0  0  0  0
 79 81  1  0  0  0  0
 79202  1  6  0  0  0
 80203  1  0  0  0  0
 81 82  1  0  0  0  0
 81204  1  1  0  0  0
 82205  1  0  0  0  0
 83 84  1  0  0  0  0
 83 85  1  0  0  0  0
 83206  1  1  0  0  0
 84207  1  0  0  0  0
 85 86  1  0  0  0  0
 85 87  1  0  0  0  0
 85208  1  6  0  0  0
 86209  1  0  0  0  0
 87 88  1  0  0  0  0
 87210  1  1  0  0  0
 88211  1  0  0  0  0
 89 90  1  0  0  0  0
 89212  1  0  0  0  0
 90213  1  0  0  0  0
 90214  1  0  0  0  0
 91 90  1  0  0  0  0
 91 92  1  0  0  0  0
 91110  1  0  0  0  0
 91215  1  6  0  0  0
 92 93  1  0  0  0  0
 93 94  1  0  0  0  0
 93106  1  0  0  0  0
 93216  1  1  0  0  0
 95 94  1  6  0  0  0
 95 96  1  0  0  0  0
 95 98  1  0  0  0  0
 95104  1  0  0  0  0
 96 97  1  0  0  0  0
 96217  1  0  0  0  0
 96218  1  0  0  0  0
 97219  1  0  0  0  0
 98 99  1  0  0  0  0
 99100  1  0  0  0  0
 99102  1  0  0  0  0
 99220  1  1  0  0  0
100101  1  0  0  0  0
100221  1  0  0  0  0
100222  1  0  0  0  0
101223  1  0  0  0  0
102103  1  0  0  0  0
102104  1  0  0  0  0
102224  1  6  0  0  0
103225  1  0  0  0  0
104105  1  0  0  0  0
104226  1  1  0  0  0
105227  1  0  0  0  0
106107  1  0  0  0  0
106108  1  0  0  0  0
106228  1  1  0  0  0
107229  1  0  0  0  0
108109  1  0  0  0  0
108110  1  0  0  0  0
108230  1  6  0  0  0
109231  1  0  0  0  0
110111  1  0  0  0  0
110232  1  1  0  0  0
111233  1  0  0  0  0
112113  1  0  0  0  0
112234  1  0  0  0  0
113235  1  0  0  0  0
113236  1  0  0  0  0
114113  1  0  0  0  0
114115  1  0  0  0  0
114133  1  0  0  0  0
114237  1  6  0  0  0
115116  1  0  0  0  0
116117  1  0  0  0  0
116129  1  0  0  0  0
116238  1  1  0  0  0
118117  1  6  0  0  0
118119  1  0  0  0  0
118121  1  0  0  0  0
118127  1  0  0  0  0
119120  1  0  0  0  0
119239  1  0  0  0  0
119240  1  0  0  0  0
120241  1  0  0  0  0
121122  1  0  0  0  0
122123  1  0  0  0  0
122125  1  0  0  0  0
122242  1  1  0  0  0
123124  1  0  0  0  0
123243  1  0  0  0  0
123244  1  0  0  0  0
124245  1  0  0  0  0
125126  1  0  0  0  0
125127  1  0  0  0  0
125246  1  6  0  0  0
126247  1  0  0  0  0
127128  1  0  0  0  0
127248  1  1  0  0  0
128249  1  0  0  0  0
129130  1  0  0  0  0
129131  1  0  0  0  0
129250  1  1  0  0  0
130251  1  0  0  0  0
131132  1  0  0  0  0
131133  1  0  0  0  0
131252  1  6  0  0  0
132253  1  0  0  0  0
133134  1  0  0  0  0
133254  1  1  0  0  0
134255  1  0  0  0  0
M  CHG  7   1  -2   2  -2   3  -2   4   1   5   3   6   3  19  -1
M  END
>  <DRUGBANK_ID>
DB09517

>  <COMMON_NAME>
Sodium ferric gluconate complex

>  <CAS_NUMBER>
34089-81-1

>  <UNII>
CC9149U2QX

>  <SYNONYMS>
Ferric sodium gluconate complex; Sodium ferric gluconate complex

$$$$
