
 OpenBabel10282417072D

 41 44  0  0  1  0  0  0  0  0999 V2000
    7.2792    0.0584    0.0000 N   0  0  0  0  0  0  0  0  0  0  0  0
    6.4735    0.2354    0.0000 C   0  0  0  0  0  0  0  0  0  0  0  0
    5.9172   -0.3739    0.0000 N   0  0  0  0  0  0  0  0  0  0  0  0
    5.1115   -0.1968    0.0000 C   0  0  0  0  0  0  0  0  0  0  0  0
    4.8619    0.5896    0.0000 C   0  0  0  0  0  0  0  0  0  0  0  0
    4.0561    0.7666    0.0000 N   0  0  0  0  0  0  0  0  0  0  0  0
    3.4999    0.1573    0.0000 C   0  0  2  0  0  0  0  0  0  0  0  0
    3.7495   -0.6290    0.0000 C   0  0  2  0  0  0  0  0  0  0  0  0
    4.5552   -0.8061    0.0000 N   0  0  0  0  0  0  0  0  0  0  0  0
    3.1932   -1.2383    0.0000 O   0  0  0  0  0  0  0  0  0  0  0  0
    2.3875   -1.0613    0.0000 C   0  0  1  0  0  0  0  0  0  0  0  0
    1.8312   -1.6706    0.0000 C   0  0  0  0  0  0  0  0  0  0  0  0
    1.0255   -1.4935    0.0000 O   0  0  0  0  0  0  0  0  0  0  0  0
    0.4692   -2.1028    0.0000 P   0  0  0  0  0  0  0  0  0  0  0  0
   -0.0870   -2.7121    0.0000 O   0  0  0  0  0  0  0  0  0  0  0  0
   -0.1401   -1.5466    0.0000 O   0  0  0  0  0  0  0  0  0  0  0  0
    1.0785   -2.6590    0.0000 O   0  0  0  0  0  0  0  0  0  0  0  0
    2.1379   -0.2749    0.0000 C   0  0  0  0  0  0  0  0  0  0  0  0
    2.6941    0.3344    0.0000 C   0  0  0  0  0  0  0  0  0  0  0  0
    2.2865    1.0516    0.0000 S   0  0  0  0  0  0  0  0  0  0  0  0
    1.4784    0.8856    0.0000 Mo  0  0  0  0  0  0  0  0  0  0  0  0
    1.6974    1.6811    0.0000 S   0  0  0  0  0  0  0  0  0  0  0  0
    0.8691    1.4419    0.0000 O   0  0  0  0  0  0  0  0  0  0  0  0
    0.7062    0.5953    0.0000 O   0  0  0  0  0  0  0  0  0  0  0  0
    1.3865    0.0658    0.0000 S   0  0  0  0  0  0  0  0  0  0  0  0
    5.4181    1.1989    0.0000 C   0  0  0  0  0  0  0  0  0  0  0  0
    5.1686    1.9852    0.0000 O   0  0  0  0  0  0  0  0  0  0  0  0
    6.2239    1.0218    0.0000 N   0  0  0  0  0  0  0  0  0  0  0  0
    7.5770   -0.8800    0.0000 H   0  0  0  0  0  0  0  0  0  0  0  0
    7.9429    0.7855    0.0000 H   0  0  0  0  0  0  0  0  0  0  0  0
    3.7583    1.7050    0.0000 H   0  0  0  0  0  0  0  0  0  0  0  0
    4.5450   -0.0723    0.0000 H   0  0  0  0  0  0  0  0  0  0  0  0
    2.7044   -0.3994    0.0000 H   0  0  0  0  0  0  0  0  0  0  0  0
    4.8529   -1.7445    0.0000 H   0  0  0  0  0  0  0  0  0  0  0  0
    2.7112   -2.0812    0.0000 H   0  0  0  0  0  0  0  0  0  0  0  0
    2.1548   -2.6905    0.0000 H   0  0  0  0  0  0  0  0  0  0  0  0
    1.1097   -2.4608    0.0000 H   0  0  0  0  0  0  0  0  0  0  0  0
   -1.0344   -2.5039    0.0000 H   0  0  0  0  0  0  0  0  0  0  0  0
    0.0681   -0.5992    0.0000 H   0  0  0  0  0  0  0  0  0  0  0  0
    3.0134    2.0241    0.0000 H   0  0  0  0  0  0  0  0  0  0  0  0
    6.8877    1.7489    0.0000 H   0  0  0  0  0  0  0  0  0  0  0  0
  1  2  1  0  0  0  0
  1 29  1  0  0  0  0
  1 30  1  0  0  0  0
  2  3  2  0  0  0  0
  2 28  1  0  0  0  0
  3  4  1  0  0  0  0
  4  5  2  0  0  0  0
  4  9  1  0  0  0  0
  5  6  1  0  0  0  0
  5 26  1  0  0  0  0
  6 31  1  0  0  0  0
  7  6  1  0  0  0  0
  7  8  1  0  0  0  0
  7 19  1  0  0  0  0
  7 32  1  1  0  0  0
  8  9  1  0  0  0  0
  8 10  1  0  0  0  0
  8 33  1  1  0  0  0
  9 34  1  0  0  0  0
 10 11  1  0  0  0  0
 11 12  1  0  0  0  0
 11 18  1  0  0  0  0
 11 35  1  6  0  0  0
 12 13  1  0  0  0  0
 12 36  1  0  0  0  0
 12 37  1  0  0  0  0
 13 14  1  0  0  0  0
 14 15  1  0  0  0  0
 14 16  1  0  0  0  0
 14 17  2  0  0  0  0
 15 38  1  0  0  0  0
 16 39  1  0  0  0  0
 18 19  2  0  0  0  0
 18 25  1  0  0  0  0
 19 20  1  0  0  0  0
 20 21  1  0  0  0  0
 21 22  1  0  0  0  0
 21 23  2  0  0  0  0
 21 24  2  0  0  0  0
 21 25  1  0  0  0  0
 22 40  1  0  0  0  0
 26 27  2  0  0  0  0
 26 28  1  0  0  0  0
 28 41  1  0  0  0  0
M  END
>  <DRUGBANK_ID>
DB03983

>  <SECONDARY_ACCESSION_NUMBERS>
EXPT02249

>  <COMMON_NAME>
{[2-Amino-4-oxo-6,7-di(sulfanyl-ÎºS)-3,5,5a,8,9a,10-hexahydro-4H-pyrano[3,2-g]pteridin-8-yl]methyl dihydrogenato(2-) phosphate}(dioxo)sulfanylmolybdenum

>  <SYNONYMS>
(Molybdopterin-S,S)-dioxo-thio-molybdenum(V)

$$$$
