
 OpenBabel10282417072D

 54 48  0  0  1  0  0  0  0  0999 V2000
   -1.4289    3.3000    0.0000 Na  0  3  0  0  0  0  0  0  0  0  0  0
    2.1434    3.7125    0.0000 Na  0  3  0  0  0  0  0  0  0  0  0  0
    4.2868    0.8250    0.0000 Na  0  3  0  0  0  0  0  0  0  0  0  0
    2.8579   -2.4750    0.0000 Na  0  3  0  0  0  0  0  0  0  0  0  0
   -0.7145   -2.8875    0.0000 Na  0  3  0  0  0  0  0  0  0  0  0  0
   -2.8579    0.0000    0.0000 Na  0  3  0  0  0  0  0  0  0  0  0  0
    0.4125    3.1895    0.0000 O   0  0  0  0  0  0  0  0  0  0  0  0
    0.0000    2.4750    0.0000 P   0  0  3  0  0  0  0  0  0  0  0  0
   -0.7145    2.8875    0.0000 O   0  5  0  0  0  0  0  0  0  0  0  0
   -0.4125    1.7605    0.0000 O   0  0  0  0  0  0  0  0  0  0  0  0
    0.7145    2.0625    0.0000 O   0  0  0  0  0  0  0  0  0  0  0  0
    0.7145    1.2375    0.0000 C   0  0  1  0  0  0  0  0  0  0  0  0
    1.4289    0.8250    0.0000 C   0  0  2  0  0  0  0  0  0  0  0  0
    2.1434    1.2375    0.0000 O   0  0  0  0  0  0  0  0  0  0  0  0
    2.1434    2.0625    0.0000 P   0  0  3  0  0  0  0  0  0  0  0  0
    2.9684    2.0625    0.0000 O   0  0  0  0  0  0  0  0  0  0  0  0
    2.1434    2.8875    0.0000 O   0  5  0  0  0  0  0  0  0  0  0  0
    1.3184    2.0625    0.0000 O   0  0  0  0  0  0  0  0  0  0  0  0
    1.4289   -0.0000    0.0000 C   0  0  1  0  0  0  0  0  0  0  0  0
    2.1434   -0.4125    0.0000 O   0  0  0  0  0  0  0  0  0  0  0  0
    2.8579   -0.0000    0.0000 P   0  0  3  0  0  0  0  0  0  0  0  0
    3.2704   -0.7145    0.0000 O   0  0  0  0  0  0  0  0  0  0  0  0
    3.5724    0.4125    0.0000 O   0  5  0  0  0  0  0  0  0  0  0  0
    2.4454    0.7145    0.0000 O   0  0  0  0  0  0  0  0  0  0  0  0
    0.7145   -0.4125    0.0000 C   0  0  2  0  0  0  0  0  0  0  0  0
    0.7145   -1.2375    0.0000 O   0  0  0  0  0  0  0  0  0  0  0  0
    1.4289   -1.6500    0.0000 P   0  0  3  0  0  0  0  0  0  0  0  0
    1.0164   -2.3645    0.0000 O   0  0  0  0  0  0  0  0  0  0  0  0
    2.1434   -2.0625    0.0000 O   0  5  0  0  0  0  0  0  0  0  0  0
    1.8414   -0.9355    0.0000 O   0  0  0  0  0  0  0  0  0  0  0  0
    0.0000    0.0000    0.0000 C   0  0  1  0  0  0  0  0  0  0  0  0
   -0.7145   -0.4125    0.0000 O   0  0  0  0  0  0  0  0  0  0  0  0
   -0.7145   -1.2375    0.0000 P   0  0  3  0  0  0  0  0  0  0  0  0
   -1.5395   -1.2375    0.0000 O   0  0  0  0  0  0  0  0  0  0  0  0
   -0.7145   -2.0625    0.0000 O   0  5  0  0  0  0  0  0  0  0  0  0
    0.1105   -1.2375    0.0000 O   0  0  0  0  0  0  0  0  0  0  0  0
    0.0000    0.8250    0.0000 C   0  0  1  0  0  0  0  0  0  0  0  0
   -0.7145    1.2375    0.0000 O   0  0  0  0  0  0  0  0  0  0  0  0
   -1.4289    0.8250    0.0000 P   0  0  3  0  0  0  0  0  0  0  0  0
   -1.8414    1.5395    0.0000 O   0  0  0  0  0  0  0  0  0  0  0  0
   -2.1434    0.4125    0.0000 O   0  5  0  0  0  0  0  0  0  0  0  0
   -1.0164    0.1105    0.0000 O   0  0  0  0  0  0  0  0  0  0  0  0
    1.3825    3.1895    0.0000 H   0  0  0  0  0  0  0  0  0  0  0  0
    1.6412    1.7725    0.0000 H   0  0  0  0  0  0  0  0  0  0  0  0
    1.4289    1.8950    0.0000 H   0  0  0  0  0  0  0  0  0  0  0  0
    3.4534    1.2225    0.0000 H   0  0  0  0  0  0  0  0  0  0  0  0
    2.3555    0.5350    0.0000 H   0  0  0  0  0  0  0  0  0  0  0  0
    2.7854   -1.5545    0.0000 H   0  0  0  0  0  0  0  0  0  0  0  0
    1.6412   -0.9475    0.0000 H   0  0  0  0  0  0  0  0  0  0  0  0
    0.0464   -2.3645    0.0000 H   0  0  0  0  0  0  0  0  0  0  0  0
    0.0000   -1.0700    0.0000 H   0  0  0  0  0  0  0  0  0  0  0  0
   -2.0245   -0.3975    0.0000 H   0  0  0  0  0  0  0  0  0  0  0  0
   -0.9266    0.2900    0.0000 H   0  0  0  0  0  0  0  0  0  0  0  0
   -1.3564    2.3795    0.0000 H   0  0  0  0  0  0  0  0  0  0  0  0
  7  8  1  0  0  0  0
  7 43  1  0  0  0  0
  8  9  1  0  0  0  0
  8 10  2  0  0  0  0
  8 11  1  0  0  0  0
 12 11  1  0  0  0  0
 12 13  1  0  0  0  0
 12 37  1  0  0  0  0
 12 44  1  6  0  0  0
 13 14  1  0  0  0  0
 13 19  1  0  0  0  0
 13 45  1  1  0  0  0
 14 15  1  0  0  0  0
 15 16  1  0  0  0  0
 15 17  1  0  0  0  0
 15 18  2  0  0  0  0
 16 46  1  0  0  0  0
 19 20  1  0  0  0  0
 19 25  1  0  0  0  0
 19 47  1  6  0  0  0
 20 21  1  0  0  0  0
 21 22  1  0  0  0  0
 21 23  1  0  0  0  0
 21 24  2  0  0  0  0
 22 48  1  0  0  0  0
 25 26  1  0  0  0  0
 25 49  1  1  0  0  0
 26 27  1  0  0  0  0
 27 28  1  0  0  0  0
 27 29  1  0  0  0  0
 27 30  2  0  0  0  0
 28 50  1  0  0  0  0
 31 25  1  0  0  0  0
 31 32  1  0  0  0  0
 31 51  1  6  0  0  0
 32 33  1  0  0  0  0
 33 34  1  0  0  0  0
 33 35  1  0  0  0  0
 33 36  2  0  0  0  0
 34 52  1  0  0  0  0
 37 31  1  0  0  0  0
 37 38  1  0  0  0  0
 37 53  1  6  0  0  0
 38 39  1  0  0  0  0
 39 40  1  0  0  0  0
 39 41  1  0  0  0  0
 39 42  2  0  0  0  0
 40 54  1  0  0  0  0
M  CHG  8   1   1   2   1   3   1   4   1   5   1   6   1   9  -1  17  -1
M  CHG  4  23  -1  29  -1  35  -1  41  -1
M  END
>  <DRUGBANK_ID>
DB18232

>  <COMMON_NAME>
Hexasodium phytate

>  <CAS_NUMBER>
34367-89-0

>  <UNII>
ZBX50UG81V

>  <SYNONYMS>
(1r,2r,3s,4s,5r,6s)-cyclohexane-1,2,3,4,5,6-hexayl-hexakis(dihydrogen phosphate); Hexasodium fytate; Inositol, hexakis(dihydrogen phosphate) hexasodium salt, myo-; Myo-inositol, hexakis(dihydrogen phosphate), hexasodium salt

$$$$
