
 OpenBabel10282417072D

 27 27  0  0  0  0  0  0  0  0999 V2000
    0.3574    0.4156    0.0000 C   0  0  1  0  0  0  0  0  0  0  0  0
   -0.3532    0.0000    0.0000 C   0  0  0  0  0  0  0  0  0  0  0  0
    1.0682    0.0041    0.0000 C   0  0  2  0  0  0  0  0  0  0  0  0
    1.0641   -0.8189    0.0000 N   0  0  0  0  0  0  0  0  0  0  0  0
    0.3532    1.2386    0.0000 O   0  0  0  0  0  0  0  0  0  0  0  0
   -0.3532   -0.8270    0.0000 C   0  0  0  0  0  0  0  0  0  0  0  0
   -1.0683    0.4115    0.0000 C   0  0  0  0  0  0  0  0  0  0  0  0
    1.7747   -1.2302    0.0000 C   0  0  0  0  0  0  0  0  0  0  0  0
    1.7789    0.4238    0.0000 C   0  0  0  0  0  0  0  0  0  0  0  0
   -1.0683   -1.2386    0.0000 C   0  0  0  0  0  0  0  0  0  0  0  0
   -1.7789    0.0000    0.0000 C   0  0  0  0  0  0  0  0  0  0  0  0
   -1.7789   -0.8270    0.0000 C   0  0  0  0  0  0  0  0  0  0  0  0
   -0.5721    0.9456    0.0000 H   0  0  0  0  0  0  0  0  0  0  0  0
    0.1399   -0.5280    0.0000 H   0  0  0  0  0  0  0  0  0  0  0  0
    0.1792   -1.3262    0.0000 H   0  0  0  0  0  0  0  0  0  0  0  0
    1.1908    1.7279    0.0000 H   0  0  0  0  0  0  0  0  0  0  0  0
    0.5402   -1.3436    0.0000 H   0  0  0  0  0  0  0  0  0  0  0  0
   -1.0697    1.4435    0.0000 H   0  0  0  0  0  0  0  0  0  0  0  0
    1.7735   -2.3002    0.0000 H   0  0  0  0  0  0  0  0  0  0  0  0
    2.7019   -0.6962    0.0000 H   0  0  0  0  0  0  0  0  0  0  0  0
    2.7008   -1.7662    0.0000 H   0  0  0  0  0  0  0  0  0  0  0  0
    2.7108   -0.1021    0.0000 H   0  0  0  0  0  0  0  0  0  0  0  0
    1.7684    1.4937    0.0000 H   0  0  0  0  0  0  0  0  0  0  0  0
    2.7002    0.9679    0.0000 H   0  0  0  0  0  0  0  0  0  0  0  0
   -1.0697   -2.2706    0.0000 H   0  0  0  0  0  0  0  0  0  0  0  0
   -2.6730    0.5154    0.0000 H   0  0  0  0  0  0  0  0  0  0  0  0
   -2.6730   -1.3424    0.0000 H   0  0  0  0  0  0  0  0  0  0  0  0
  1  5  1  0  0  0  0
  1 13  1  1  0  0  0
  2  1  1  0  0  0  0
  3  1  1  0  0  0  0
  3  4  1  0  0  0  0
  3 14  1  6  0  0  0
  4 15  1  0  0  0  0
  5 16  1  0  0  0  0
  6  2  1  0  0  0  0
  6 17  1  0  0  0  0
  7  2  2  0  0  0  0
  7 18  1  0  0  0  0
  8  4  1  0  0  0  0
  8 19  1  0  0  0  0
  8 20  1  0  0  0  0
  8 21  1  0  0  0  0
  9  3  1  0  0  0  0
  9 22  1  0  0  0  0
  9 23  1  0  0  0  0
  9 24  1  0  0  0  0
 10  6  2  0  0  0  0
 10 12  1  0  0  0  0
 10 25  1  0  0  0  0
 11  7  1  0  0  0  0
 11 26  1  0  0  0  0
 12 11  2  0  0  0  0
 12 27  1  0  0  0  0
M  END
>  <DRUGBANK_ID>
DB14752

>  <COMMON_NAME>
Racephedrine

>  <CAS_NUMBER>
90-81-3

>  <UNII>
03VRY66076

>  <SYNONYMS>
(+-)-Ephedrine; Ephedrine DL-form; Racephedrine

$$$$
