GZ2
 OpenBabel10282417072D

 22 23  0  0  0  0  0  0  0  0999 V2000
   -0.5423    2.2590    0.0000 O   0  0  0  0  0  0  0  0  0  0  0  0
   -0.5423    1.4340    0.0000 C   0  0  0  0  0  0  0  0  0  0  0  0
    0.1722    1.0215    0.0000 C   0  0  0  0  0  0  0  0  0  0  0  0
    0.1722    0.1965    0.0000 C   0  0  0  0  0  0  0  0  0  0  0  0
   -0.5423   -0.2160    0.0000 C   0  0  0  0  0  0  0  0  0  0  0  0
   -1.2567    0.1965    0.0000 C   0  0  0  0  0  0  0  0  0  0  0  0
   -1.2567    1.0215    0.0000 C   0  0  0  0  0  0  0  0  0  0  0  0
    0.8867   -0.2160    0.0000 N   0  0  0  0  0  0  0  0  0  0  0  0
    0.8867   -1.0410    0.0000 C   0  0  0  0  0  0  0  0  0  0  0  0
    1.5541   -1.5259    0.0000 N   0  0  0  0  0  0  0  0  0  0  0  0
    1.2992   -2.3105    0.0000 N   0  0  0  0  0  0  0  0  0  0  0  0
    0.4742   -2.3105    0.0000 N   0  0  0  0  0  0  0  0  0  0  0  0
    0.2192   -1.5259    0.0000 N   0  0  0  0  0  0  0  0  0  0  0  0
    1.0659    1.5375    0.0000 H   0  0  0  0  0  0  0  0  0  0  0  0
   -0.5423   -1.2860    0.0000 H   0  0  0  0  0  0  0  0  0  0  0  0
   -1.4690   -0.7510    0.0000 H   0  0  0  0  0  0  0  0  0  0  0  0
   -2.1834   -0.3385    0.0000 H   0  0  0  0  0  0  0  0  0  0  0  0
   -2.1833    0.7315    0.0000 H   0  0  0  0  0  0  0  0  0  0  0  0
   -2.1834    1.5565    0.0000 H   0  0  0  0  0  0  0  0  0  0  0  0
   -2.1833    0.4865    0.0000 H   0  0  0  0  0  0  0  0  0  0  0  0
    1.7393    0.2763    0.0000 H   0  0  0  0  0  0  0  0  0  0  0  0
   -0.7171   -1.2217    0.0000 H   0  0  0  0  0  0  0  0  0  0  0  0
  1  2  2  0  0  0  0
  2  3  1  0  0  0  0
  2  7  1  0  0  0  0
  3  4  2  0  0  0  0
  3 14  1  0  0  0  0
  4  5  1  0  0  0  0
  4  8  1  0  0  0  0
  5  6  1  0  0  0  0
  5 15  1  0  0  0  0
  5 16  1  0  0  0  0
  6  7  1  0  0  0  0
  6 17  1  0  0  0  0
  6 18  1  0  0  0  0
  7 19  1  0  0  0  0
  7 20  1  0  0  0  0
  8  9  1  0  0  0  0
  8 21  1  0  0  0  0
  9 10  2  0  0  0  0
  9 13  1  0  0  0  0
 10 11  1  0  0  0  0
 11 12  2  0  0  0  0
 12 13  1  0  0  0  0
 13 22  1  0  0  0  0
M  END
>  <DRUGBANK_ID>
DB07865

>  <COMMON_NAME>
3-(1H-tetrazol-5-ylamino)cyclohex-2-en-1-one

$$$$
