
 OpenBabel10282417072D

 73 74  0  0  0  0  0  0  0  0999 V2000
    3.2628    3.2217    0.0000 F   0  0  0  0  0  0  0  0  0  0  0  0
    3.7727    4.7910    0.0000 F   0  0  0  0  0  0  0  0  0  0  0  0
    4.3025    3.7514    0.0000 F   0  0  0  0  0  0  0  0  0  0  0  0
   -0.0153    1.9445    0.0000 O   0  0  0  0  0  0  0  0  0  0  0  0
    0.8937    2.6050    0.0000 O   0  0  0  0  0  0  0  0  0  0  0  0
    2.5615    5.0683    0.0000 O   0  0  0  0  0  0  0  0  0  0  0  0
   -2.8734    1.1195    0.0000 O   0  0  0  0  0  0  0  0  0  0  0  0
   -1.4444   -3.0057    0.0000 O   0  0  0  0  0  0  0  0  0  0  0  0
   -3.5880   -5.0683    0.0000 O   0  0  0  0  0  0  0  0  0  0  0  0
   -4.3025   -3.8307    0.0000 O   0  0  0  0  0  0  0  0  0  0  0  0
   -0.7299    3.1821    0.0000 N   0  0  0  0  0  0  0  0  0  0  0  0
    1.3353    3.9641    0.0000 N   0  0  0  0  0  0  0  0  0  0  0  0
   -1.4444    1.1195    0.0000 N   0  0  0  0  0  0  0  0  0  0  0  0
   -2.8734   -3.0057    0.0000 N   0  0  0  0  0  0  0  0  0  0  0  0
   -0.0624    3.6670    0.0000 C   0  0  1  0  0  0  0  0  0  0  0  0
   -0.3174    4.4517    0.0000 C   0  0  0  0  0  0  0  0  0  0  0  0
   -1.1424    4.4517    0.0000 C   0  0  0  0  0  0  0  0  0  0  0  0
   -1.3974    3.6670    0.0000 C   0  0  0  0  0  0  0  0  0  0  0  0
   -0.7299    2.3570    0.0000 C   0  0  0  0  0  0  0  0  0  0  0  0
   -1.4444    1.9445    0.0000 C   0  0  2  0  0  0  0  0  0  0  0  0
    0.7222    3.4121    0.0000 C   0  0  0  0  0  0  0  0  0  0  0  0
   -2.1589    2.3570    0.0000 C   0  0  0  0  0  0  0  0  0  0  0  0
    2.1200    3.7092    0.0000 C   0  0  1  0  0  0  0  0  0  0  0  0
    2.2915    2.9022    0.0000 C   0  0  0  0  0  0  0  0  0  0  0  0
   -2.1589    3.1821    0.0000 C   0  0  0  0  0  0  0  0  0  0  0  0
   -2.8734    1.9445    0.0000 C   0  0  0  0  0  0  0  0  0  0  0  0
    2.7330    4.2612    0.0000 C   0  0  0  0  0  0  0  0  0  0  0  0
    3.0762    2.6472    0.0000 C   0  0  0  0  0  0  0  0  0  0  0  0
    1.6784    2.3501    0.0000 C   0  0  0  0  0  0  0  0  0  0  0  0
   -2.1589    0.7069    0.0000 C   0  0  0  0  0  0  0  0  0  0  0  0
    3.5178    4.0063    0.0000 C   0  0  0  0  0  0  0  0  0  0  0  0
   -2.1589   -0.1180    0.0000 C   0  0  0  0  0  0  0  0  0  0  0  0
   -2.8734   -0.5305    0.0000 C   0  0  0  0  0  0  0  0  0  0  0  0
   -1.4444   -0.5305    0.0000 C   0  0  0  0  0  0  0  0  0  0  0  0
   -2.8734   -1.3556    0.0000 C   0  0  0  0  0  0  0  0  0  0  0  0
   -1.4444   -1.3556    0.0000 C   0  0  0  0  0  0  0  0  0  0  0  0
   -2.1589   -1.7681    0.0000 C   0  0  0  0  0  0  0  0  0  0  0  0
   -2.1589   -2.5932    0.0000 C   0  0  0  0  0  0  0  0  0  0  0  0
   -2.8734   -3.8307    0.0000 C   0  0  0  0  0  0  0  0  0  0  0  0
   -3.5880   -4.2433    0.0000 C   0  0  0  0  0  0  0  0  0  0  0  0
    1.2289    4.4645    0.0000 H   0  0  0  0  0  0  0  0  0  0  0  0
   -1.0014    0.8637    0.0000 H   0  0  0  0  0  0  0  0  0  0  0  0
   -3.3164   -2.7499    0.0000 H   0  0  0  0  0  0  0  0  0  0  0  0
   -4.3995   -5.5368    0.0000 H   0  0  0  0  0  0  0  0  0  0  0  0
    0.1050    2.6102    0.0000 H   0  0  0  0  0  0  0  0  0  0  0  0
    0.3115    5.3174    0.0000 H   0  0  0  0  0  0  0  0  0  0  0  0
   -0.8032    5.4051    0.0000 H   0  0  0  0  0  0  0  0  0  0  0  0
   -1.7713    5.3174    0.0000 H   0  0  0  0  0  0  0  0  0  0  0  0
   -2.1992    4.2843    0.0000 H   0  0  0  0  0  0  0  0  0  0  0  0
   -2.4150    3.3363    0.0000 H   0  0  0  0  0  0  0  0  0  0  0  0
   -2.1540    4.4236    0.0000 H   0  0  0  0  0  0  0  0  0  0  0  0
   -0.5178    1.4095    0.0000 H   0  0  0  0  0  0  0  0  0  0  0  0
   -3.0855    2.8920    0.0000 H   0  0  0  0  0  0  0  0  0  0  0  0
    1.3248    2.9932    0.0000 H   0  0  0  0  0  0  0  0  0  0  0  0
    2.5140    1.8556    0.0000 H   0  0  0  0  0  0  0  0  0  0  0  0
   -1.2323    3.7171    0.0000 H   0  0  0  0  0  0  0  0  0  0  0  0
   -3.0855    3.7171    0.0000 H   0  0  0  0  0  0  0  0  0  0  0  0
   -2.1589    4.2521    0.0000 H   0  0  0  0  0  0  0  0  0  0  0  0
   -3.8000    2.4795    0.0000 H   0  0  0  0  0  0  0  0  0  0  0  0
   -2.8734    0.8745    0.0000 H   0  0  0  0  0  0  0  0  0  0  0  0
   -3.8001    1.4095    0.0000 H   0  0  0  0  0  0  0  0  0  0  0  0
    3.2986    1.6006    0.0000 H   0  0  0  0  0  0  0  0  0  0  0  0
    3.8714    3.3631    0.0000 H   0  0  0  0  0  0  0  0  0  0  0  0
    4.0938    2.3165    0.0000 H   0  0  0  0  0  0  0  0  0  0  0  0
    0.6608    2.6807    0.0000 H   0  0  0  0  0  0  0  0  0  0  0  0
    1.9009    1.3035    0.0000 H   0  0  0  0  0  0  0  0  0  0  0  0
    0.8833    1.6341    0.0000 H   0  0  0  0  0  0  0  0  0  0  0  0
   -3.7671   -0.0145    0.0000 H   0  0  0  0  0  0  0  0  0  0  0  0
   -0.5507   -0.0145    0.0000 H   0  0  0  0  0  0  0  0  0  0  0  0
   -3.7671   -1.8716    0.0000 H   0  0  0  0  0  0  0  0  0  0  0  0
   -0.5507   -1.8716    0.0000 H   0  0  0  0  0  0  0  0  0  0  0  0
   -1.9467   -4.3657    0.0000 H   0  0  0  0  0  0  0  0  0  0  0  0
   -2.8734   -4.9007    0.0000 H   0  0  0  0  0  0  0  0  0  0  0  0
  1 31  1  0  0  0  0
  2 31  1  0  0  0  0
  3 31  1  0  0  0  0
  4 19  2  0  0  0  0
  5 21  2  0  0  0  0
  6 27  2  0  0  0  0
  7 30  2  0  0  0  0
  8 38  2  0  0  0  0
  9 40  1  0  0  0  0
  9 44  1  0  0  0  0
 10 40  2  0  0  0  0
 11 15  1  0  0  0  0
 11 18  1  0  0  0  0
 11 19  1  0  0  0  0
 12 21  1  0  0  0  0
 12 41  1  0  0  0  0
 13 30  1  0  0  0  0
 13 42  1  0  0  0  0
 14 38  1  0  0  0  0
 14 39  1  0  0  0  0
 14 43  1  0  0  0  0
 15 16  1  0  0  0  0
 15 21  1  0  0  0  0
 15 45  1  6  0  0  0
 16 17  1  0  0  0  0
 16 46  1  0  0  0  0
 16 47  1  0  0  0  0
 17 18  1  0  0  0  0
 17 48  1  0  0  0  0
 17 49  1  0  0  0  0
 18 50  1  0  0  0  0
 18 51  1  0  0  0  0
 19 20  1  0  0  0  0
 20 13  1  0  0  0  0
 20 22  1  0  0  0  0
 20 52  1  6  0  0  0
 22 25  1  0  0  0  0
 22 26  1  0  0  0  0
 22 53  1  0  0  0  0
 23 12  1  0  0  0  0
 23 24  1  0  0  0  0
 23 27  1  0  0  0  0
 23 54  1  1  0  0  0
 24 28  1  0  0  0  0
 24 29  1  0  0  0  0
 24 55  1  0  0  0  0
 25 56  1  0  0  0  0
 25 57  1  0  0  0  0
 25 58  1  0  0  0  0
 26 59  1  0  0  0  0
 26 60  1  0  0  0  0
 26 61  1  0  0  0  0
 27 31  1  0  0  0  0
 28 62  1  0  0  0  0
 28 63  1  0  0  0  0
 28 64  1  0  0  0  0
 29 65  1  0  0  0  0
 29 66  1  0  0  0  0
 29 67  1  0  0  0  0
 30 32  1  0  0  0  0
 32 33  2  0  0  0  0
 32 34  1  0  0  0  0
 33 35  1  0  0  0  0
 33 68  1  0  0  0  0
 34 36  2  0  0  0  0
 34 69  1  0  0  0  0
 35 37  2  0  0  0  0
 35 70  1  0  0  0  0
 36 37  1  0  0  0  0
 36 71  1  0  0  0  0
 37 38  1  0  0  0  0
 39 40  1  0  0  0  0
 39 72  1  0  0  0  0
 39 73  1  0  0  0  0
M  END
>  <DRUGBANK_ID>
DB03702

>  <SECONDARY_ACCESSION_NUMBERS>
EXPT01482

>  <COMMON_NAME>
N-{4-[(Carboxymethyl)carbamoyl]benzoyl}-L-valyl-N-[(3S)-1,1,1-trifluoro-4-methyl-2-oxo-3-pentanyl]-L-prolinamide

$$$$
