C6L
 OpenBabel10282417072D

 34 33  0  0  0  0  0  0  0  0999 V2000
    0.5226   -0.7133    0.0000 O   0  0  0  0  0  0  0  0  0  0  0  0
    0.5226    0.1117    0.0000 C   0  0  0  0  0  0  0  0  0  0  0  0
   -0.1919    0.5242    0.0000 C   0  0  0  0  0  0  0  0  0  0  0  0
   -0.9064    0.1117    0.0000 C   0  0  0  0  0  0  0  0  0  0  0  0
   -1.6209    0.5242    0.0000 C   0  0  0  0  0  0  0  0  0  0  0  0
   -2.3353    0.1117    0.0000 C   0  0  0  0  0  0  0  0  0  0  0  0
   -3.0498    0.5242    0.0000 C   0  0  0  0  0  0  0  0  0  0  0  0
    1.2370    0.5242    0.0000 N   0  0  0  0  0  0  0  0  0  0  0  0
    1.9515    0.1117    0.0000 C   0  0  2  0  0  0  0  0  0  0  0  0
    1.9515   -0.7133    0.0000 C   0  0  0  0  0  0  0  0  0  0  0  0
    1.2370   -1.1258    0.0000 O   0  0  0  0  0  0  0  0  0  0  0  0
    2.6660   -1.1258    0.0000 O   0  0  0  0  0  0  0  0  0  0  0  0
    2.6660    0.5242    0.0000 C   0  0  0  0  0  0  0  0  0  0  0  0
    3.3804    0.1117    0.0000 C   0  0  0  0  0  0  0  0  0  0  0  0
    4.0949    0.5242    0.0000 O   0  0  0  0  0  0  0  0  0  0  0  0
    1.4458   -0.1803    0.0000 H   0  0  0  0  0  0  0  0  0  0  0  0
   -0.1919    1.5942    0.0000 H   0  0  0  0  0  0  0  0  0  0  0  0
   -1.1185    1.0592    0.0000 H   0  0  0  0  0  0  0  0  0  0  0  0
   -0.9064   -0.9583    0.0000 H   0  0  0  0  0  0  0  0  0  0  0  0
   -1.8330   -0.4233    0.0000 H   0  0  0  0  0  0  0  0  0  0  0  0
   -1.6209    1.5942    0.0000 H   0  0  0  0  0  0  0  0  0  0  0  0
   -2.5476    1.0592    0.0000 H   0  0  0  0  0  0  0  0  0  0  0  0
   -2.3353   -0.9583    0.0000 H   0  0  0  0  0  0  0  0  0  0  0  0
   -3.2619   -0.4233    0.0000 H   0  0  0  0  0  0  0  0  0  0  0  0
   -3.0498    1.5942    0.0000 H   0  0  0  0  0  0  0  0  0  0  0  0
   -3.9764   -0.0108    0.0000 H   0  0  0  0  0  0  0  0  0  0  0  0
   -3.9765    1.0592    0.0000 H   0  0  0  0  0  0  0  0  0  0  0  0
    1.2370    1.5087    0.0000 H   0  0  0  0  0  0  0  0  0  0  0  0
    2.6660   -2.0628    0.0000 H   0  0  0  0  0  0  0  0  0  0  0  0
    2.6660    1.5942    0.0000 H   0  0  0  0  0  0  0  0  0  0  0  0
    3.5927    1.0592    0.0000 H   0  0  0  0  0  0  0  0  0  0  0  0
    3.3804   -0.9583    0.0000 H   0  0  0  0  0  0  0  0  0  0  0  0
    4.3070   -0.4233    0.0000 H   0  0  0  0  0  0  0  0  0  0  0  0
    4.9349    0.0392    0.0000 H   0  0  0  0  0  0  0  0  0  0  0  0
  2  1  2  0  0  0  0
  2  3  1  0  0  0  0
  3 17  1  0  0  0  0
  3 18  1  0  0  0  0
  4  3  1  0  0  0  0
  4 19  1  0  0  0  0
  4 20  1  0  0  0  0
  5  4  1  0  0  0  0
  5  6  1  0  0  0  0
  5 21  1  0  0  0  0
  5 22  1  0  0  0  0
  6  7  1  0  0  0  0
  6 23  1  0  0  0  0
  6 24  1  0  0  0  0
  7 25  1  0  0  0  0
  7 26  1  0  0  0  0
  7 27  1  0  0  0  0
  8  2  1  0  0  0  0
  8 28  1  0  0  0  0
  9  8  1  0  0  0  0
  9 16  1  6  0  0  0
 10  9  1  0  0  0  0
 10 12  1  0  0  0  0
 11 10  2  0  0  0  0
 12 29  1  0  0  0  0
 13  9  1  0  0  0  0
 13 30  1  0  0  0  0
 13 31  1  0  0  0  0
 14 13  1  0  0  0  0
 14 32  1  0  0  0  0
 14 33  1  0  0  0  0
 15 14  1  0  0  0  0
 15 34  1  0  0  0  0
M  END
>  <DRUGBANK_ID>
DB07532

>  <COMMON_NAME>
N-hexanoyl-L-homoserine

$$$$
