
 OpenBabel10282417072D

 53 57  0  0  0  0  0  0  0  0999 V2000
    0.8874   -0.8264    0.0000 O   0  0  0  0  0  0  0  0  0  0  0  0
    0.1829    0.4132    0.0000 O   0  0  0  0  0  0  0  0  0  0  0  0
   -0.5282   -0.8264    0.0000 N   0  0  0  0  0  0  0  0  0  0  0  0
    2.6755   -0.4335    0.0000 N   0  0  3  0  0  0  0  0  0  0  0  0
   -1.2462   -0.4132    0.0000 C   0  0  2  0  0  0  0  0  0  0  0  0
   -1.9574   -0.8264    0.0000 C   0  0  0  0  0  0  0  0  0  0  0  0
   -1.9574   -1.6528    0.0000 C   0  0  0  0  0  0  0  0  0  0  0  0
   -1.2462    0.4132    0.0000 C   0  0  0  0  0  0  0  0  0  0  0  0
    0.1829   -0.4132    0.0000 C   0  0  0  0  0  0  0  0  0  0  0  0
    1.7002   -0.3861    0.0000 C   0  0  2  0  0  0  0  0  0  0  0  0
   -0.5282   -1.6528    0.0000 C   0  0  0  0  0  0  0  0  0  0  0  0
    2.4181    0.0338    0.0000 C   0  0  3  0  0  0  0  0  0  0  0  0
   -1.2462   -2.0591    0.0000 C   0  0  0  0  0  0  0  0  0  0  0  0
   -2.6755   -0.4132    0.0000 C   0  0  0  0  0  0  0  0  0  0  0  0
    1.9575   -0.8467    0.0000 C   0  0  0  0  0  0  0  0  0  0  0  0
   -2.6755   -2.0591    0.0000 C   0  0  0  0  0  0  0  0  0  0  0  0
   -0.5282    0.8195    0.0000 C   0  0  0  0  0  0  0  0  0  0  0  0
   -1.9574    0.8195    0.0000 C   0  0  0  0  0  0  0  0  0  0  0  0
    3.1294   -0.3861    0.0000 C   0  0  0  0  0  0  0  0  0  0  0  0
    2.4181    0.8534    0.0000 C   0  0  0  0  0  0  0  0  0  0  0  0
    3.3867   -0.8467    0.0000 C   0  0  0  0  0  0  0  0  0  0  0  0
    2.6755    0.3929    0.0000 C   0  0  0  0  0  0  0  0  0  0  0  0
   -3.3867   -0.8264    0.0000 C   0  0  0  0  0  0  0  0  0  0  0  0
   -3.3867   -1.6528    0.0000 C   0  0  0  0  0  0  0  0  0  0  0  0
   -0.5282    1.6392    0.0000 C   0  0  0  0  0  0  0  0  0  0  0  0
   -1.9574    1.6528    0.0000 C   0  0  0  0  0  0  0  0  0  0  0  0
   -1.2462    2.0591    0.0000 C   0  0  0  0  0  0  0  0  0  0  0  0
   -0.3199    0.1224    0.0000 H   0  0  0  0  0  0  0  0  0  0  0  0
    1.1752    0.5462    0.0000 H   0  0  0  0  0  0  0  0  0  0  0  0
    0.3961   -2.1918    0.0000 H   0  0  0  0  0  0  0  0  0  0  0  0
   -0.5351   -2.7228    0.0000 H   0  0  0  0  0  0  0  0  0  0  0  0
    2.4159   -1.0362    0.0000 H   0  0  0  0  0  0  0  0  0  0  0  0
   -1.2484   -3.1291    0.0000 H   0  0  0  0  0  0  0  0  0  0  0  0
   -0.3224   -2.5990    0.0000 H   0  0  0  0  0  0  0  0  0  0  0  0
   -2.6777    0.6188    0.0000 H   0  0  0  0  0  0  0  0  0  0  0  0
    1.6725   -1.8781    0.0000 H   0  0  0  0  0  0  0  0  0  0  0  0
    0.8952   -0.9747    0.0000 H   0  0  0  0  0  0  0  0  0  0  0  0
   -2.6776   -3.0911    0.0000 H   0  0  0  0  0  0  0  0  0  0  0  0
    0.3633    0.2996    0.0000 H   0  0  0  0  0  0  0  0  0  0  0  0
   -2.8500    0.3015    0.0000 H   0  0  0  0  0  0  0  0  0  0  0  0
    3.8950    0.3614    0.0000 H   0  0  0  0  0  0  0  0  0  0  0  0
    4.1883   -0.5396    0.0000 H   0  0  0  0  0  0  0  0  0  0  0  0
    2.1484    1.8888    0.0000 H   0  0  0  0  0  0  0  0  0  0  0  0
    3.4109    1.2525    0.0000 H   0  0  0  0  0  0  0  0  0  0  0  0
    4.1369   -1.6097    0.0000 H   0  0  0  0  0  0  0  0  0  0  0  0
    4.2429   -0.2050    0.0000 H   0  0  0  0  0  0  0  0  0  0  0  0
    3.7109    0.6626    0.0000 H   0  0  0  0  0  0  0  0  0  0  0  0
    3.0953    1.3771    0.0000 H   0  0  0  0  0  0  0  0  0  0  0  0
   -4.2811   -0.3116    0.0000 H   0  0  0  0  0  0  0  0  0  0  0  0
   -4.2793   -2.1708    0.0000 H   0  0  0  0  0  0  0  0  0  0  0  0
    0.3670    2.1527    0.0000 H   0  0  0  0  0  0  0  0  0  0  0  0
   -2.8500    2.1708    0.0000 H   0  0  0  0  0  0  0  0  0  0  0  0
   -1.2410    3.0911    0.0000 H   0  0  0  0  0  0  0  0  0  0  0  0
  1  9  1  0  0  0  0
  2  9  2  0  0  0  0
  3  5  1  0  0  0  0
  3  9  1  0  0  0  0
  3 11  1  0  0  0  0
  4 15  1  0  0  0  0
  4 21  1  0  0  0  0
  4 22  1  0  0  0  0
  5  6  1  0  0  0  0
  5  8  1  0  0  0  0
  5 28  1  1  0  0  0
  6  7  1  0  0  0  0
  6 14  2  0  0  0  0
  7 13  1  0  0  0  0
  7 16  2  0  0  0  0
  8 17  2  0  0  0  0
  8 18  1  0  0  0  0
 10  1  1  0  0  0  0
 10 12  1  0  0  0  0
 10 15  1  0  0  0  0
 10 29  1  1  0  0  0
 11 13  1  0  0  0  0
 11 30  1  0  0  0  0
 11 31  1  0  0  0  0
 12 19  1  0  0  0  0
 12 20  1  0  0  0  0
 12 32  1  0  0  0  0
 13 33  1  0  0  0  0
 13 34  1  0  0  0  0
 14 23  1  0  0  0  0
 14 35  1  0  0  0  0
 15 36  1  0  0  0  0
 15 37  1  0  0  0  0
 16 24  1  0  0  0  0
 16 38  1  0  0  0  0
 17 25  1  0  0  0  0
 17 39  1  0  0  0  0
 18 26  2  0  0  0  0
 18 40  1  0  0  0  0
 19 21  1  0  0  0  0
 19 41  1  0  0  0  0
 19 42  1  0  0  0  0
 20 22  1  0  0  0  0
 20 43  1  0  0  0  0
 20 44  1  0  0  0  0
 21 45  1  0  0  0  0
 21 46  1  0  0  0  0
 22 47  1  0  0  0  0
 22 48  1  0  0  0  0
 23 24  2  0  0  0  0
 23 49  1  0  0  0  0
 24 50  1  0  0  0  0
 25 27  2  0  0  0  0
 25 51  1  0  0  0  0
 26 27  1  0  0  0  0
 26 52  1  0  0  0  0
 27 53  1  0  0  0  0
M  END
>  <DRUGBANK_ID>
DB01591

>  <SECONDARY_ACCESSION_NUMBERS>
APRD00168

>  <COMMON_NAME>
Solifenacin

>  <CAS_NUMBER>
242478-37-1

>  <UNII>
A8910SQJ1U

>  <SYNONYMS>
Solifenacin; Solifenacina

$$$$
