
 OpenBabel10282417072D

 17 14  0  0  0  0  0  0  0  0999 V2000
    3.0592    2.1110    0.0000 Cl  0  0  0  0  0  0  0  0  0  0  0  0
   -3.0592   -0.8785    0.0000 O   0  5  0  0  0  0  0  0  0  0  0  0
   -2.3438   -1.2893    0.0000 C   0  0  0  0  0  0  0  0  0  0  0  0
   -2.3438   -2.1110    0.0000 O   0  0  0  0  0  0  0  0  0  0  0  0
   -1.6237   -0.8831    0.0000 C   0  0  0  0  0  0  0  0  0  0  0  0
   -1.6237   -0.0568    0.0000 C   0  0  1  0  0  0  0  0  0  0  0  0
   -0.9128    0.3540    0.0000 C   0  0  0  0  0  0  0  0  0  0  0  0
   -0.2019   -0.0568    0.0000 O   0  5  0  0  0  0  0  0  0  0  0  0
   -0.9128    1.1756    0.0000 O   0  0  0  0  0  0  0  0  0  0  0  0
   -2.3345    0.3540    0.0000 N   0  0  0  0  0  0  0  0  0  0  0  0
    1.5336   -0.5969    0.0000 Mg  0  2  0  0  0  0  0  0  0  0  0  0
    4.2872    2.1110    0.0000 H   0  0  0  0  0  0  0  0  0  0  0  0
   -0.6997   -1.4227    0.0000 H   0  0  0  0  0  0  0  0  0  0  0  0
   -0.6957   -0.3504    0.0000 H   0  0  0  0  0  0  0  0  0  0  0  0
   -2.5505   -0.5916    0.0000 H   0  0  0  0  0  0  0  0  0  0  0  0
   -2.3340    1.3740    0.0000 H   0  0  0  0  0  0  0  0  0  0  0  0
   -3.2181   -0.1556    0.0000 H   0  0  0  0  0  0  0  0  0  0  0  0
  1 12  1  0  0  0  0
  3  2  1  0  0  0  0
  3  4  2  0  0  0  0
  5  3  1  0  0  0  0
  5 13  1  0  0  0  0
  5 14  1  0  0  0  0
  6  5  1  0  0  0  0
  6 10  1  0  0  0  0
  6 15  1  1  0  0  0
  7  6  1  0  0  0  0
  7  9  2  0  0  0  0
  8  7  1  0  0  0  0
 10 16  1  0  0  0  0
 10 17  1  0  0  0  0
M  CHG  3   2  -1   8  -1  11   2
M  END
>  <DRUGBANK_ID>
DB16619

>  <COMMON_NAME>
Magnesium aspartate hydrochloride

>  <CAS_NUMBER>
28184-71-6

>  <UNII>
5LK942W2PC

$$$$
