
 OpenBabel10282417072D

 46 48  0  0  0  0  0  0  0  0999 V2000
   -3.5724   -1.2375    0.0000 C   0  0  0  0  0  0  0  0  0  0  0  0
   -2.8579   -0.8250    0.0000 C   0  0  0  0  0  0  0  0  0  0  0  0
   -2.8579   -0.0000    0.0000 O   0  0  0  0  0  0  0  0  0  0  0  0
   -2.1434    0.4125    0.0000 C   0  0  0  0  0  0  0  0  0  0  0  0
   -1.4289   -0.0000    0.0000 O   0  0  0  0  0  0  0  0  0  0  0  0
   -2.1434    1.2375    0.0000 N   0  0  0  0  0  0  0  0  0  0  0  0
   -1.4289    1.6500    0.0000 C   0  0  0  0  0  0  0  0  0  0  0  0
   -1.4289    2.4750    0.0000 C   0  0  0  0  0  0  0  0  0  0  0  0
   -2.1434    2.8875    0.0000 N   0  0  0  0  0  0  0  0  0  0  0  0
   -2.9684    2.8875    0.0000 C   0  0  0  0  0  0  0  0  0  0  0  0
   -2.5559    3.6020    0.0000 C   0  0  0  0  0  0  0  0  0  0  0  0
   -0.7145    2.8875    0.0000 C   0  0  0  0  0  0  0  0  0  0  0  0
   -0.7145    3.7125    0.0000 O   0  0  0  0  0  0  0  0  0  0  0  0
    0.0000    2.4750    0.0000 C   0  0  0  0  0  0  0  0  0  0  0  0
    0.7145    2.8875    0.0000 N   0  0  0  0  0  0  0  0  0  0  0  0
    1.4289    2.4750    0.0000 C   0  0  0  0  0  0  0  0  0  0  0  0
    1.4289    1.6500    0.0000 O   0  0  0  0  0  0  0  0  0  0  0  0
    2.1434    2.8875    0.0000 O   0  0  0  0  0  0  0  0  0  0  0  0
    2.8579    2.4750    0.0000 C   0  0  0  0  0  0  0  0  0  0  0  0
    3.5724    2.8875    0.0000 C   0  0  0  0  0  0  0  0  0  0  0  0
    0.0000    1.6500    0.0000 C   0  0  0  0  0  0  0  0  0  0  0  0
    0.7145    1.2375    0.0000 N   0  0  0  0  0  0  0  0  0  0  0  0
    1.5395    1.2375    0.0000 C   0  0  0  0  0  0  0  0  0  0  0  0
    1.1270    0.5230    0.0000 C   0  0  0  0  0  0  0  0  0  0  0  0
   -0.7145    1.2375    0.0000 C   0  0  0  0  0  0  0  0  0  0  0  0
   -0.7145    0.4125    0.0000 O   0  0  0  0  0  0  0  0  0  0  0  0
   -4.4990   -0.7025    0.0000 H   0  0  0  0  0  0  0  0  0  0  0  0
   -3.5724   -2.3075    0.0000 H   0  0  0  0  0  0  0  0  0  0  0  0
   -4.4991   -1.7725    0.0000 H   0  0  0  0  0  0  0  0  0  0  0  0
   -1.9313   -1.3600    0.0000 H   0  0  0  0  0  0  0  0  0  0  0  0
   -1.9313   -0.2900    0.0000 H   0  0  0  0  0  0  0  0  0  0  0  0
   -2.9960    1.7298    0.0000 H   0  0  0  0  0  0  0  0  0  0  0  0
   -3.8950    2.3525    0.0000 H   0  0  0  0  0  0  0  0  0  0  0  0
   -3.7250    3.6441    0.0000 H   0  0  0  0  0  0  0  0  0  0  0  0
   -2.5559    4.6720    0.0000 H   0  0  0  0  0  0  0  0  0  0  0  0
   -1.5224    3.8789    0.0000 H   0  0  0  0  0  0  0  0  0  0  0  0
    0.7145    3.8720    0.0000 H   0  0  0  0  0  0  0  0  0  0  0  0
    2.8579    1.4050    0.0000 H   0  0  0  0  0  0  0  0  0  0  0  0
    3.7845    1.9400    0.0000 H   0  0  0  0  0  0  0  0  0  0  0  0
    4.4990    2.3525    0.0000 H   0  0  0  0  0  0  0  0  0  0  0  0
    3.5724    3.9575    0.0000 H   0  0  0  0  0  0  0  0  0  0  0  0
    4.4991    3.4225    0.0000 H   0  0  0  0  0  0  0  0  0  0  0  0
    2.4661    1.7725    0.0000 H   0  0  0  0  0  0  0  0  0  0  0  0
    2.2961    0.4809    0.0000 H   0  0  0  0  0  0  0  0  0  0  0  0
    1.1270   -0.5470    0.0000 H   0  0  0  0  0  0  0  0  0  0  0  0
    0.0935    0.2461    0.0000 H   0  0  0  0  0  0  0  0  0  0  0  0
  1  2  1  0  0  0  0
  1 27  1  0  0  0  0
  1 28  1  0  0  0  0
  1 29  1  0  0  0  0
  2  3  1  0  0  0  0
  2 30  1  0  0  0  0
  2 31  1  0  0  0  0
  3  4  1  0  0  0  0
  4  5  2  0  0  0  0
  4  6  1  0  0  0  0
  6  7  1  0  0  0  0
  6 32  1  0  0  0  0
  7  8  2  0  0  0  0
  7 25  1  0  0  0  0
  8  9  1  0  0  0  0
  8 12  1  0  0  0  0
  9 10  1  0  0  0  0
  9 11  1  0  0  0  0
 10 11  1  0  0  0  0
 10 33  1  0  0  0  0
 10 34  1  0  0  0  0
 11 35  1  0  0  0  0
 11 36  1  0  0  0  0
 12 13  2  0  0  0  0
 12 14  1  0  0  0  0
 14 15  1  0  0  0  0
 14 21  2  0  0  0  0
 15 16  1  0  0  0  0
 15 37  1  0  0  0  0
 16 17  2  0  0  0  0
 16 18  1  0  0  0  0
 18 19  1  0  0  0  0
 19 20  1  0  0  0  0
 19 38  1  0  0  0  0
 19 39  1  0  0  0  0
 20 40  1  0  0  0  0
 20 41  1  0  0  0  0
 20 42  1  0  0  0  0
 21 22  1  0  0  0  0
 21 25  1  0  0  0  0
 22 23  1  0  0  0  0
 22 24  1  0  0  0  0
 23 24  1  0  0  0  0
 23 43  1  0  0  0  0
 23 44  1  0  0  0  0
 24 45  1  0  0  0  0
 24 46  1  0  0  0  0
 25 26  2  0  0  0  0
M  END
>  <DRUGBANK_ID>
DB17174

>  <COMMON_NAME>
Diaziquone

>  <CAS_NUMBER>
57998-68-2

>  <UNII>
FQL5EUP13W

>  <SYNONYMS>
Aziridinyl benzoquinone; AZQ; Carbamic acid, (2,5-bis(1-aziridinyl)-3,6-dioxo-1,4-cyclohexadiene-1,4-diyl)bis-, diethyl ester; Diaziquone; Diethyl 2,5-bis-(1-aziridinyl)-3,6-dioxo-1,4-cyclohexadiene-1,4-dicarbamate; NSC-182986

$$$$
