582
 OpenBabel10282417072D

 39 41  0  0  1  0  0  0  0  0999 V2000
    1.6500   -0.4125    0.0000 F   0  0  0  0  0  0  0  0  0  0  0  0
    4.5079    0.4125    0.0000 F   0  0  0  0  0  0  0  0  0  0  0  0
    3.0790   -2.8875    0.0000 F   0  0  0  0  0  0  0  0  0  0  0  0
    2.2540    0.4125    0.0000 O   0  0  0  0  0  0  0  0  0  0  0  0
    4.5359   -0.1178    0.0000 N   0  0  0  0  0  0  0  0  0  0  0  0
    3.7934    2.4750    0.0000 N   0  0  0  0  0  0  0  0  0  0  0  0
    5.3364    0.0818    0.0000 N   0  0  0  0  0  0  0  0  0  0  0  0
    5.2433   -1.2499    0.0000 N   0  0  0  0  0  0  0  0  0  0  0  0
    5.2223    2.4750    0.0000 N   0  0  0  0  0  0  0  0  0  0  0  0
    3.0790    0.4125    0.0000 C   0  0  1  0  0  0  0  0  0  0  0  0
    3.0790    1.2375    0.0000 C   0  0  1  0  0  0  0  0  0  0  0  0
    3.9040    0.4125    0.0000 C   0  0  0  0  0  0  0  0  0  0  0  0
    3.0790   -0.4125    0.0000 C   0  0  0  0  0  0  0  0  0  0  0  0
    2.3645    1.6500    0.0000 C   0  0  0  0  0  0  0  0  0  0  0  0
    3.7934    1.6500    0.0000 C   0  0  0  0  0  0  0  0  0  0  0  0
    2.3645   -0.8250    0.0000 C   0  0  0  0  0  0  0  0  0  0  0  0
    3.7934   -0.8250    0.0000 C   0  0  0  0  0  0  0  0  0  0  0  0
    4.5079    1.2375    0.0000 C   0  0  0  0  0  0  0  0  0  0  0  0
    2.3645   -1.6500    0.0000 C   0  0  0  0  0  0  0  0  0  0  0  0
    3.7934   -1.6500    0.0000 C   0  0  0  0  0  0  0  0  0  0  0  0
    4.4784   -0.9408    0.0000 C   0  0  0  0  0  0  0  0  0  0  0  0
    3.0790   -2.0625    0.0000 C   0  0  0  0  0  0  0  0  0  0  0  0
    5.2223    1.6500    0.0000 C   0  0  0  0  0  0  0  0  0  0  0  0
    4.5079    2.8875    0.0000 C   0  0  0  0  0  0  0  0  0  0  0  0
    5.7736   -0.6178    0.0000 C   0  0  0  0  0  0  0  0  0  0  0  0
    1.7690    1.2525    0.0000 H   0  0  0  0  0  0  0  0  0  0  0  0
    2.1524    0.7025    0.0000 H   0  0  0  0  0  0  0  0  0  0  0  0
    4.2700    1.4180    0.0000 H   0  0  0  0  0  0  0  0  0  0  0  0
    3.2903    1.2890    0.0000 H   0  0  0  0  0  0  0  0  0  0  0  0
    2.3645    2.7200    0.0000 H   0  0  0  0  0  0  0  0  0  0  0  0
    1.4379    1.1150    0.0000 H   0  0  0  0  0  0  0  0  0  0  0  0
    1.4378    2.1850    0.0000 H   0  0  0  0  0  0  0  0  0  0  0  0
    4.6871   -0.3090    0.0000 H   0  0  0  0  0  0  0  0  0  0  0  0
    1.4708   -2.1660    0.0000 H   0  0  0  0  0  0  0  0  0  0  0  0
    4.6871   -2.1660    0.0000 H   0  0  0  0  0  0  0  0  0  0  0  0
    3.6032   -1.4877    0.0000 H   0  0  0  0  0  0  0  0  0  0  0  0
    6.1160    1.1340    0.0000 H   0  0  0  0  0  0  0  0  0  0  0  0
    4.5079    3.9195    0.0000 H   0  0  0  0  0  0  0  0  0  0  0  0
    6.8031   -0.6897    0.0000 H   0  0  0  0  0  0  0  0  0  0  0  0
  1 16  1  0  0  0  0
  2 18  1  0  0  0  0
  3 22  1  0  0  0  0
  4 26  1  0  0  0  0
  5  7  1  0  0  0  0
  5 12  1  0  0  0  0
  5 21  1  0  0  0  0
  6 15  2  0  0  0  0
  6 24  1  0  0  0  0
  7 25  2  0  0  0  0
  8 21  2  0  0  0  0
  8 25  1  0  0  0  0
  9 23  1  0  0  0  0
  9 24  2  0  0  0  0
 10  4  1  1  0  0  0
 10 11  1  0  0  0  0
 10 12  1  0  0  0  0
 10 13  1  0  0  0  0
 11 14  1  0  0  0  0
 11 15  1  0  0  0  0
 11 27  1  6  0  0  0
 12 28  1  0  0  0  0
 12 29  1  0  0  0  0
 13 16  2  0  0  0  0
 13 17  1  0  0  0  0
 14 30  1  0  0  0  0
 14 31  1  0  0  0  0
 14 32  1  0  0  0  0
 15 18  1  0  0  0  0
 16 19  1  0  0  0  0
 17 20  2  0  0  0  0
 17 33  1  0  0  0  0
 18 23  2  0  0  0  0
 19 22  2  0  0  0  0
 19 34  1  0  0  0  0
 20 22  1  0  0  0  0
 20 35  1  0  0  0  0
 21 36  1  0  0  0  0
 23 37  1  0  0  0  0
 24 38  1  0  0  0  0
 25 39  1  0  0  0  0
M  END
>  <DRUGBANK_ID>
DB00582

>  <SECONDARY_ACCESSION_NUMBERS>
APRD00543

>  <COMMON_NAME>
Voriconazole

>  <CAS_NUMBER>
137234-62-9

>  <UNII>
JFU09I87TR

>  <SYNONYMS>
(R-(R*,S*))-alpha-(2,4-difluorophenyl)-5-fluoro-beta-methyl-alpha-(1H-1,2,4-triazol-1-ylmethyl)-4-pyrimidineethanol; (αR,βS)-α-(2,4-difluorophenyl)-5-fluoro-β-methyl-α(1H-1,2,4-triazol-1-ylmethyl)-4-pyrimidineethanol; VCZ; Voriconazol; Voriconazole; Voriconazolum

$$$$
