BD4
 OpenBabel10282417072D

 43 46  0  0  0  0  0  0  0  0999 V2000
    3.9012   -0.5561    0.0000 O   0  0  0  0  0  0  0  0  0  0  0  0
    3.1205   -0.8229    0.0000 C   0  0  0  0  0  0  0  0  0  0  0  0
    2.8776   -1.6113    0.0000 N   0  0  0  0  0  0  0  0  0  0  0  0
    2.0527   -1.6239    0.0000 C   0  0  0  0  0  0  0  0  0  0  0  0
    1.5779   -2.2986    0.0000 O   0  0  0  0  0  0  0  0  0  0  0  0
    1.7858   -0.8432    0.0000 C   0  0  0  0  0  0  0  0  0  0  0  0
    2.4458   -0.3482    0.0000 C   0  0  0  0  0  0  0  0  0  0  0  0
    2.3471    0.4709    0.0000 C   0  0  0  0  0  0  0  0  0  0  0  0
    3.0071    0.9659    0.0000 C   0  0  0  0  0  0  0  0  0  0  0  0
    1.5884    0.7949    0.0000 C   0  0  0  0  0  0  0  0  0  0  0  0
    0.9284    0.2999    0.0000 C   0  0  0  0  0  0  0  0  0  0  0  0
    1.0271   -0.5192    0.0000 C   0  0  0  0  0  0  0  0  0  0  0  0
    0.2786   -0.8661    0.0000 C   0  0  0  0  0  0  0  0  0  0  0  0
    0.0357   -1.6546    0.0000 C   0  0  0  0  0  0  0  0  0  0  0  0
   -0.7686   -1.8383    0.0000 C   0  0  0  0  0  0  0  0  0  0  0  0
   -1.0116   -2.6267    0.0000 C   0  0  0  0  0  0  0  0  0  0  0  0
   -1.3299   -1.2337    0.0000 C   0  0  0  0  0  0  0  0  0  0  0  0
   -1.0869   -0.4453    0.0000 C   0  0  0  0  0  0  0  0  0  0  0  0
   -0.2827   -0.2615    0.0000 C   0  0  0  0  0  0  0  0  0  0  0  0
    0.1189    0.4591    0.0000 N   0  0  0  0  0  0  0  0  0  0  0  0
   -0.2280    1.2076    0.0000 C   0  0  0  0  0  0  0  0  0  0  0  0
   -1.0497    1.2814    0.0000 C   0  0  0  0  0  0  0  0  0  0  0  0
   -1.3967    2.0299    0.0000 C   0  0  0  0  0  0  0  0  0  0  0  0
   -2.2184    2.1036    0.0000 N   0  0  0  0  0  0  0  0  0  0  0  0
    3.4684   -2.3988    0.0000 H   0  0  0  0  0  0  0  0  0  0  0  0
    3.9911    0.5456    0.0000 H   0  0  0  0  0  0  0  0  0  0  0  0
    2.8791    2.0282    0.0000 H   0  0  0  0  0  0  0  0  0  0  0  0
    3.8631    1.6079    0.0000 H   0  0  0  0  0  0  0  0  0  0  0  0
    1.4649    1.8195    0.0000 H   0  0  0  0  0  0  0  0  0  0  0  0
    0.7378   -2.4109    0.0000 H   0  0  0  0  0  0  0  0  0  0  0  0
   -2.0547   -2.8650    0.0000 H   0  0  0  0  0  0  0  0  0  0  0  0
   -0.2836   -3.4109    0.0000 H   0  0  0  0  0  0  0  0  0  0  0  0
   -1.3268   -3.6492    0.0000 H   0  0  0  0  0  0  0  0  0  0  0  0
   -2.3360   -1.4636    0.0000 H   0  0  0  0  0  0  0  0  0  0  0  0
   -1.7890    0.3110    0.0000 H   0  0  0  0  0  0  0  0  0  0  0  0
    0.3878    2.0827    0.0000 H   0  0  0  0  0  0  0  0  0  0  0  0
   -0.6780    2.1784    0.0000 H   0  0  0  0  0  0  0  0  0  0  0  0
   -1.6654    0.4063    0.0000 H   0  0  0  0  0  0  0  0  0  0  0  0
   -2.1154    1.3771    0.0000 H   0  0  0  0  0  0  0  0  0  0  0  0
   -0.7810    2.9050    0.0000 H   0  0  0  0  0  0  0  0  0  0  0  0
   -1.8468    3.0006    0.0000 H   0  0  0  0  0  0  0  0  0  0  0  0
   -2.6474    3.0290    0.0000 H   0  0  0  0  0  0  0  0  0  0  0  0
   -2.8053    1.2693    0.0000 H   0  0  0  0  0  0  0  0  0  0  0  0
  1  2  2  0  0  0  0
  2  3  1  0  0  0  0
  2  7  1  0  0  0  0
  3  4  1  0  0  0  0
  3 25  1  0  0  0  0
  4  5  2  0  0  0  0
  4  6  1  0  0  0  0
  6  7  2  0  0  0  0
  6 12  1  0  0  0  0
  7  8  1  0  0  0  0
  8  9  1  0  0  0  0
  8 10  2  0  0  0  0
  9 26  1  0  0  0  0
  9 27  1  0  0  0  0
  9 28  1  0  0  0  0
 10 11  1  0  0  0  0
 10 29  1  0  0  0  0
 11 12  2  0  0  0  0
 11 20  1  0  0  0  0
 12 13  1  0  0  0  0
 13 14  1  0  0  0  0
 13 19  2  0  0  0  0
 14 15  2  0  0  0  0
 14 30  1  0  0  0  0
 15 16  1  0  0  0  0
 15 17  1  0  0  0  0
 16 31  1  0  0  0  0
 16 32  1  0  0  0  0
 16 33  1  0  0  0  0
 17 18  2  0  0  0  0
 17 34  1  0  0  0  0
 18 19  1  0  0  0  0
 18 35  1  0  0  0  0
 19 20  1  0  0  0  0
 20 21  1  0  0  0  0
 21 22  1  0  0  0  0
 21 36  1  0  0  0  0
 21 37  1  0  0  0  0
 22 23  1  0  0  0  0
 22 38  1  0  0  0  0
 22 39  1  0  0  0  0
 23 24  1  0  0  0  0
 23 40  1  0  0  0  0
 23 41  1  0  0  0  0
 24 42  1  0  0  0  0
 24 43  1  0  0  0  0
M  END
>  <DRUGBANK_ID>
DB07444

>  <COMMON_NAME>
6-(3-AMINOPROPYL)-4,9-DIMETHYLPYRROLO[3,4-C]CARBAZOLE-1,3(2H,6H)-DIONE

$$$$
