
 OpenBabel10282417072D

103105  0  0  0  0  0  0  0  0999 V2000
   -3.0554    1.8795    0.0000 C   0  0  0  0  0  0  0  0  0  0  0  0
    2.5233    1.0041    0.0000 C   0  0  0  0  0  0  0  0  0  0  0  0
   -1.6822    0.1115    0.0000 C   0  0  0  0  0  0  0  0  0  0  0  0
    0.3374    0.9526    0.0000 C   0  0  0  0  0  0  0  0  0  0  0  0
   -4.0682    2.7550    0.0000 N   0  0  0  0  0  0  0  0  0  0  0  0
    1.1157    0.7123    0.0000 N   0  0  0  0  0  0  0  0  0  0  0  0
    3.1355    1.5534    0.0000 N   0  0  0  0  0  0  0  0  0  0  0  0
    1.7336    1.2616    0.0000 C   0  0  1  0  0  0  0  0  0  0  0  0
   -3.8793    1.9483    0.0000 C   0  0  0  0  0  0  0  0  0  0  0  0
   -1.0642    0.6608    0.0000 N   0  0  0  0  0  0  0  0  0  0  0  0
    1.5620    2.0684    0.0000 C   0  0  0  0  0  0  0  0  0  0  0  0
   -2.4717    0.3690    0.0000 C   0  0  2  0  0  0  0  0  0  0  0  0
   -5.6474   -2.3259    0.0000 C   0  0  0  0  0  0  0  0  0  0  0  0
    3.9250    1.2959    0.0000 C   0  0  2  0  0  0  0  0  0  0  0  0
    4.5315    1.8452    0.0000 C   0  0  0  0  0  0  0  0  0  0  0  0
   -2.7350    2.6520    0.0000 C   0  0  0  0  0  0  0  0  0  0  0  0
   -2.6434    1.1758    0.0000 C   0  0  0  0  0  0  0  0  0  0  0  0
   -3.0725   -0.1973    0.0000 N   0  0  0  0  0  0  0  0  0  0  0  0
   -3.8622    0.0600    0.0000 C   0  0  0  0  0  0  0  0  0  0  0  0
   -0.2746    0.4034    0.0000 C   0  0  1  0  0  0  0  0  0  0  0  0
    1.6822    2.8237    0.0000 C   0  0  0  0  0  0  0  0  0  0  0  0
   -3.3644    3.1841    0.0000 C   0  0  0  0  0  0  0  0  0  0  0  0
   -5.0637   -2.9037    0.0000 O   0  0  0  0  0  0  0  0  0  0  0  0
   -1.5104   -0.6951    0.0000 O   0  0  0  0  0  0  0  0  0  0  0  0
    2.6949    0.1973    0.0000 O   0  0  0  0  0  0  0  0  0  0  0  0
    0.1658    1.7594    0.0000 O   0  0  0  0  0  0  0  0  0  0  0  0
   -4.4801   -0.4892    0.0000 C   0  0  0  0  0  0  0  0  0  0  0  0
    4.0853    0.4892    0.0000 C   0  0  0  0  0  0  0  0  0  0  0  0
   -6.4541   -2.5490    0.0000 O   0  0  0  0  0  0  0  0  0  0  0  0
    4.3599    2.6520    0.0000 O   0  0  0  0  0  0  0  0  0  0  0  0
   -4.0338    0.8668    0.0000 O   0  0  0  0  0  0  0  0  0  0  0  0
    1.0928    3.5789    0.0000 O   0  0  0  0  0  0  0  0  0  0  0  0
   -5.4414   -1.5305    0.0000 N   0  0  0  0  0  0  0  0  0  0  0  0
   -5.2697   -3.6991    0.0000 C   0  0  0  0  0  0  0  0  0  0  0  0
    5.3212    1.5878    0.0000 N   0  0  0  0  0  0  0  0  0  0  0  0
   -4.6575   -1.2959    0.0000 C   0  0  0  0  0  0  0  0  0  0  0  0
   -0.1030   -0.4034    0.0000 C   0  0  0  0  0  0  0  0  0  0  0  0
    2.3688    2.9438    0.0000 O   0  0  0  0  0  0  0  0  0  0  0  0
    4.8749    0.2316    0.0000 C   0  0  0  0  0  0  0  0  0  0  0  0
    0.8525   -1.4676    0.0000 S   0  0  0  0  0  0  0  0  0  0  0  0
   -1.9568    2.9095    0.0000 C   0  0  0  0  0  0  0  0  0  0  0  0
    0.6808   -0.6608    0.0000 C   0  0  0  0  0  0  0  0  0  0  0  0
   -3.2099    3.9908    0.0000 C   0  0  0  0  0  0  0  0  0  0  0  0
   -4.5545   -3.2813    0.0000 C   0  0  0  0  0  0  0  0  0  0  0  0
   -4.6690   -4.2656    0.0000 C   0  0  0  0  0  0  0  0  0  0  0  0
   -6.0593   -3.9222    0.0000 C   0  0  0  0  0  0  0  0  0  0  0  0
    1.6420   -1.7251    0.0000 C   0  0  0  0  0  0  0  0  0  0  0  0
    5.4928    0.7810    0.0000 C   0  0  0  0  0  0  0  0  0  0  0  0
    5.0466   -0.5750    0.0000 C   0  0  0  0  0  0  0  0  0  0  0  0
   -1.8023    3.7334    0.0000 C   0  0  0  0  0  0  0  0  0  0  0  0
   -2.4260    4.2656    0.0000 C   0  0  0  0  0  0  0  0  0  0  0  0
    5.8361   -0.8324    0.0000 C   0  0  0  0  0  0  0  0  0  0  0  0
    6.2767    0.5407    0.0000 C   0  0  0  0  0  0  0  0  0  0  0  0
    6.4541   -0.2832    0.0000 C   0  0  0  0  0  0  0  0  0  0  0  0
   -4.9763    3.1353    0.0000 H   0  0  0  0  0  0  0  0  0  0  0  0
    1.3244   -0.2498    0.0000 H   0  0  0  0  0  0  0  0  0  0  0  0
    2.9322    2.5167    0.0000 H   0  0  0  0  0  0  0  0  0  0  0  0
    2.5291    1.9772    0.0000 H   0  0  0  0  0  0  0  0  0  0  0  0
   -4.5536    1.1670    0.0000 H   0  0  0  0  0  0  0  0  0  0  0  0
   -1.2653    1.6245    0.0000 H   0  0  0  0  0  0  0  0  0  0  0  0
    0.4924    2.0407    0.0000 H   0  0  0  0  0  0  0  0  0  0  0  0
    0.8569    2.8732    0.0000 H   0  0  0  0  0  0  0  0  0  0  0  0
   -1.6762    1.0846    0.0000 H   0  0  0  0  0  0  0  0  0  0  0  0
    3.1247    0.5857    0.0000 H   0  0  0  0  0  0  0  0  0  0  0  0
   -1.6457    1.5624    0.0000 H   0  0  0  0  0  0  0  0  0  0  0  0
   -2.2909    2.1861    0.0000 H   0  0  0  0  0  0  0  0  0  0  0  0
   -2.8572   -1.1580    0.0000 H   0  0  0  0  0  0  0  0  0  0  0  0
    0.7428    0.0720    0.0000 H   0  0  0  0  0  0  0  0  0  0  0  0
   -5.4031    0.0520    0.0000 H   0  0  0  0  0  0  0  0  0  0  0  0
   -5.4606   -0.9177    0.0000 H   0  0  0  0  0  0  0  0  0  0  0  0
    3.2850   -0.2210    0.0000 H   0  0  0  0  0  0  0  0  0  0  0  0
    4.3033   -0.5583    0.0000 H   0  0  0  0  0  0  0  0  0  0  0  0
   -6.1504   -0.8475    0.0000 H   0  0  0  0  0  0  0  0  0  0  0  0
    5.5250    0.6246    0.0000 H   0  0  0  0  0  0  0  0  0  0  0  0
    6.0534    2.2459    0.0000 H   0  0  0  0  0  0  0  0  0  0  0  0
   -3.8733   -2.0239    0.0000 H   0  0  0  0  0  0  0  0  0  0  0  0
   -3.6363   -0.9766    0.0000 H   0  0  0  0  0  0  0  0  0  0  0  0
   -0.8992   -1.1182    0.0000 H   0  0  0  0  0  0  0  0  0  0  0  0
    0.1170   -1.4505    0.0000 H   0  0  0  0  0  0  0  0  0  0  0  0
    2.9701    2.2252    0.0000 H   0  0  0  0  0  0  0  0  0  0  0  0
   -1.1798    2.2303    0.0000 H   0  0  0  0  0  0  0  0  0  0  0  0
    1.4770    0.0540    0.0000 H   0  0  0  0  0  0  0  0  0  0  0  0
    0.4607    0.3863    0.0000 H   0  0  0  0  0  0  0  0  0  0  0  0
   -3.9916    4.6646    0.0000 H   0  0  0  0  0  0  0  0  0  0  0  0
   -3.6251   -3.8116    0.0000 H   0  0  0  0  0  0  0  0  0  0  0  0
   -4.5600   -2.2113    0.0000 H   0  0  0  0  0  0  0  0  0  0  0  0
   -3.6306   -2.7416    0.0000 H   0  0  0  0  0  0  0  0  0  0  0  0
   -4.9155   -5.3068    0.0000 H   0  0  0  0  0  0  0  0  0  0  0  0
   -3.6440   -3.9585    0.0000 H   0  0  0  0  0  0  0  0  0  0  0  0
   -3.8906   -4.9997    0.0000 H   0  0  0  0  0  0  0  0  0  0  0  0
   -6.8261   -3.1759    0.0000 H   0  0  0  0  0  0  0  0  0  0  0  0
   -6.3222   -4.9594    0.0000 H   0  0  0  0  0  0  0  0  0  0  0  0
   -7.0890   -4.2131    0.0000 H   0  0  0  0  0  0  0  0  0  0  0  0
    1.8633   -2.7720    0.0000 H   0  0  0  0  0  0  0  0  0  0  0  0
    2.4380   -1.0100    0.0000 H   0  0  0  0  0  0  0  0  0  0  0  0
    2.6593   -2.0569    0.0000 H   0  0  0  0  0  0  0  0  0  0  0  0
    5.2730    1.7893    0.0000 H   0  0  0  0  0  0  0  0  0  0  0  0
    4.2794   -1.2653    0.0000 H   0  0  0  0  0  0  0  0  0  0  0  0
   -0.8292    4.0771    0.0000 H   0  0  0  0  0  0  0  0  0  0  0  0
   -2.2366    5.2801    0.0000 H   0  0  0  0  0  0  0  0  0  0  0  0
    6.0469   -1.8426    0.0000 H   0  0  0  0  0  0  0  0  0  0  0  0
    7.0369    1.2386    0.0000 H   0  0  0  0  0  0  0  0  0  0  0  0
    7.4350   -0.6040    0.0000 H   0  0  0  0  0  0  0  0  0  0  0  0
  2  8  1  0  0  0  0
  3 12  1  0  0  0  0
  4 20  1  0  0  0  0
  5  9  1  0  0  0  0
  5 22  1  0  0  0  0
  5 55  1  0  0  0  0
  6  4  1  0  0  0  0
  6 56  1  0  0  0  0
  7  2  1  0  0  0  0
  7 57  1  0  0  0  0
  8  6  1  0  0  0  0
  8 11  1  0  0  0  0
  8 58  1  6  0  0  0
  9  1  2  0  0  0  0
  9 59  1  0  0  0  0
 10  3  1  0  0  0  0
 10 60  1  0  0  0  0
 11 61  1  0  0  0  0
 11 62  1  0  0  0  0
 12 17  1  0  0  0  0
 12 63  1  6  0  0  0
 13 33  1  0  0  0  0
 14  7  1  0  0  0  0
 14 28  1  0  0  0  0
 14 64  1  1  0  0  0
 15 14  1  0  0  0  0
 16  1  1  0  0  0  0
 17  1  1  0  0  0  0
 17 65  1  0  0  0  0
 17 66  1  0  0  0  0
 18 12  1  0  0  0  0
 18 67  1  0  0  0  0
 19 18  1  0  0  0  0
 20 10  1  0  0  0  0
 20 37  1  0  0  0  0
 20 68  1  1  0  0  0
 21 11  1  0  0  0  0
 22 16  2  0  0  0  0
 23 13  1  0  0  0  0
 24  3  2  0  0  0  0
 25  2  2  0  0  0  0
 26  4  2  0  0  0  0
 27 19  1  0  0  0  0
 27 69  1  0  0  0  0
 27 70  1  0  0  0  0
 28 71  1  0  0  0  0
 28 72  1  0  0  0  0
 29 13  2  0  0  0  0
 30 15  2  0  0  0  0
 31 19  2  0  0  0  0
 32 21  2  0  0  0  0
 33 36  1  0  0  0  0
 33 73  1  0  0  0  0
 34 23  1  0  0  0  0
 35 15  1  0  0  0  0
 35 74  1  0  0  0  0
 35 75  1  0  0  0  0
 36 27  1  0  0  0  0
 36 76  1  0  0  0  0
 36 77  1  0  0  0  0
 37 78  1  0  0  0  0
 37 79  1  0  0  0  0
 38 21  1  0  0  0  0
 38 80  1  0  0  0  0
 39 28  1  0  0  0  0
 40 42  1  0  0  0  0
 41 16  1  0  0  0  0
 41 81  1  0  0  0  0
 42 37  1  0  0  0  0
 42 82  1  0  0  0  0
 42 83  1  0  0  0  0
 43 22  1  0  0  0  0
 43 84  1  0  0  0  0
 44 34  1  0  0  0  0
 44 85  1  0  0  0  0
 44 86  1  0  0  0  0
 44 87  1  0  0  0  0
 45 34  1  0  0  0  0
 45 88  1  0  0  0  0
 45 89  1  0  0  0  0
 45 90  1  0  0  0  0
 46 34  1  0  0  0  0
 46 91  1  0  0  0  0
 46 92  1  0  0  0  0
 46 93  1  0  0  0  0
 47 40  1  0  0  0  0
 47 94  1  0  0  0  0
 47 95  1  0  0  0  0
 47 96  1  0  0  0  0
 48 39  1  0  0  0  0
 48 97  1  0  0  0  0
 49 39  2  0  0  0  0
 49 98  1  0  0  0  0
 50 41  2  0  0  0  0
 50 99  1  0  0  0  0
 51 50  1  0  0  0  0
 51 43  2  0  0  0  0
 51100  1  0  0  0  0
 52 49  1  0  0  0  0
 52101  1  0  0  0  0
 53 48  2  0  0  0  0
 53102  1  0  0  0  0
 54 52  2  0  0  0  0
 54 53  1  0  0  0  0
 54103  1  0  0  0  0
M  END
>  <DRUGBANK_ID>
DB00183

>  <SECONDARY_ACCESSION_NUMBERS>
APRD01172

>  <COMMON_NAME>
Pentagastrin

>  <CAS_NUMBER>
5534-95-2

>  <UNII>
EF0NX91490

>  <SYNONYMS>
Pentagastrin

$$$$
