
 OpenBabel10282417072D

 39 42  0  0  0  0  0  0  0  0999 V2000
   -0.0121   -1.4491    0.0000 C   0  0  0  0  0  0  0  0  0  0  0  0
    0.6963   -1.8612    0.0000 C   0  0  0  0  0  0  0  0  0  0  0  0
    1.4144   -1.4491    0.0000 C   0  0  0  0  0  0  0  0  0  0  0  0
    1.4144   -0.6251    0.0000 N   0  0  0  0  0  0  0  0  0  0  0  0
   -0.0121   -0.6251    0.0000 C   0  0  0  0  0  0  0  0  0  0  0  0
    0.6963   -0.2132    0.0000 C   0  0  0  0  0  0  0  0  0  0  0  0
    0.6922    0.6036    0.0000 C   0  0  0  0  0  0  0  0  0  0  0  0
   -0.0187    1.0150    0.0000 C   0  0  1  0  0  0  0  0  0  0  0  0
   -0.7248   -0.2251    0.0000 C   0  0  1  0  0  0  0  0  0  0  0  0
   -0.7236    0.6000    0.0000 C   0  0  2  0  0  0  0  0  0  0  0  0
   -1.4322    1.0136    0.0000 C   0  0  0  0  0  0  0  0  0  0  0  0
   -2.1472    0.6020    0.0000 C   0  0  0  0  0  0  0  0  0  0  0  0
   -2.1484   -0.2230    0.0000 C   0  0  0  0  0  0  0  0  0  0  0  0
   -1.4347   -0.6366    0.0000 N   0  0  0  0  0  0  0  0  0  0  0  0
    0.0166    0.2132    0.0000 C   0  0  0  0  0  0  0  0  0  0  0  0
   -0.0265    1.8755    0.0000 C   0  0  0  0  0  0  0  0  0  0  0  0
   -0.7309    1.4636    0.0000 H   0  0  0  0  0  0  0  0  0  0  0  0
    2.1484   -1.8755    0.0000 O   0  0  0  0  0  0  0  0  0  0  0  0
    0.7160    1.4492    0.0000 C   0  0  0  0  0  0  0  0  0  0  0  0
    1.5448    1.6744    0.0000 C   0  0  0  0  0  0  0  0  0  0  0  0
   -0.9067   -1.9636    0.0000 H   0  0  0  0  0  0  0  0  0  0  0  0
    0.6933   -2.8932    0.0000 H   0  0  0  0  0  0  0  0  0  0  0  0
    2.2663   -0.1316    0.0000 H   0  0  0  0  0  0  0  0  0  0  0  0
    1.6178    1.1405    0.0000 H   0  0  0  0  0  0  0  0  0  0  0  0
    0.6917    1.6736    0.0000 H   0  0  0  0  0  0  0  0  0  0  0  0
    0.9058    1.5537    0.0000 H   0  0  0  0  0  0  0  0  0  0  0  0
   -1.4290    2.0836    0.0000 H   0  0  0  0  0  0  0  0  0  0  0  0
   -2.3577    1.5506    0.0000 H   0  0  0  0  0  0  0  0  0  0  0  0
   -3.0731    1.1383    0.0000 H   0  0  0  0  0  0  0  0  0  0  0  0
   -3.0746    0.0683    0.0000 H   0  0  0  0  0  0  0  0  0  0  0  0
   -3.0759   -0.7566    0.0000 H   0  0  0  0  0  0  0  0  0  0  0  0
   -2.1501   -1.2930    0.0000 H   0  0  0  0  0  0  0  0  0  0  0  0
   -1.4346   -1.6566    0.0000 H   0  0  0  0  0  0  0  0  0  0  0  0
    0.7803   -0.5362    0.0000 H   0  0  0  0  0  0  0  0  0  0  0  0
    1.0761    0.3625    0.0000 H   0  0  0  0  0  0  0  0  0  0  0  0
   -0.5476    2.7663    0.0000 H   0  0  0  0  0  0  0  0  0  0  0  0
    2.3041    0.9205    0.0000 H   0  0  0  0  0  0  0  0  0  0  0  0
    1.8181    2.7089    0.0000 H   0  0  0  0  0  0  0  0  0  0  0  0
    2.5774    1.9550    0.0000 H   0  0  0  0  0  0  0  0  0  0  0  0
  1  2  2  0  0  0  0
  1 21  1  0  0  0  0
  2  3  1  0  0  0  0
  2 22  1  0  0  0  0
  3  4  1  0  0  0  0
  3 18  2  0  0  0  0
  4  6  1  0  0  0  0
  4 23  1  0  0  0  0
  5  6  2  0  0  0  0
  5  1  1  0  0  0  0
  6  7  1  0  0  0  0
  7  8  1  0  0  0  0
  7 24  1  0  0  0  0
  7 25  1  0  0  0  0
  8 16  1  0  0  0  0
  8 10  1  0  0  0  0
  8 26  1  6  0  0  0
  9 14  1  0  0  0  0
  9 15  1  0  0  0  0
  9  5  1  6  0  0  0
  9 10  1  0  0  0  0
 10 11  1  0  0  0  0
 10 17  1  1  0  0  0
 11 12  1  0  0  0  0
 11 27  1  0  0  0  0
 11 28  1  0  0  0  0
 12 13  1  0  0  0  0
 12 29  1  0  0  0  0
 12 30  1  0  0  0  0
 13 14  1  0  0  0  0
 13 31  1  0  0  0  0
 13 32  1  0  0  0  0
 14 33  1  0  0  0  0
 15 19  1  0  0  0  0
 15 34  1  0  0  0  0
 15 35  1  0  0  0  0
 16 19  2  0  0  0  0
 16 36  1  0  0  0  0
 19 20  1  0  0  0  0
 20 37  1  0  0  0  0
 20 38  1  0  0  0  0
 20 39  1  0  0  0  0
M  END
>  <DRUGBANK_ID>
DB03348

>  <SECONDARY_ACCESSION_NUMBERS>
EXPT01794

>  <COMMON_NAME>
Huperzine B

>  <CAS_NUMBER>
103548-82-9

>  <UNII>
DC3Z5425Y5

>  <SYNONYMS>
HupB

$$$$
