
 OpenBabel10282417072D

 35 35  0  0  0  0  0  0  0  0999 V2000
   -0.3571    0.6710    0.0000 O   0  0  0  0  0  0  0  0  0  0  0  0
    0.3102    0.1860    0.0000 C   0  0  1  0  0  0  0  0  0  0  0  0
    0.0484   -0.6196    0.0000 C   0  0  1  0  0  0  0  0  0  0  0  0
   -1.0245    0.1860    0.0000 C   0  0  1  0  0  0  0  0  0  0  0  0
   -0.7765   -0.6196    0.0000 C   0  0  1  0  0  0  0  0  0  0  0  0
    0.5402   -1.2660    0.0000 O   0  0  0  0  0  0  0  0  0  0  0  0
   -1.2545   -1.2660    0.0000 O   0  0  0  0  0  0  0  0  0  0  0  0
   -1.8092    0.4410    0.0000 C   0  0  0  0  0  0  0  0  0  0  0  0
   -3.2381    1.2660    0.0000 O   0  0  0  0  0  0  0  0  0  0  0  0
   -2.5237    0.0285    0.0000 O   0  0  0  0  0  0  0  0  0  0  0  0
   -3.9527    0.0285    0.0000 O   0  0  0  0  0  0  0  0  0  0  0  0
   -3.2381    0.4410    0.0000 P   0  0  0  0  0  0  0  0  0  0  0  0
   -3.2381   -0.3839    0.0000 O   0  0  0  0  0  0  0  0  0  0  0  0
    1.0949    0.4410    0.0000 O   0  0  0  0  0  0  0  0  0  0  0  0
    1.8093    0.0285    0.0000 P   0  0  3  0  0  0  0  0  0  0  0  0
    1.8093   -0.7965    0.0000 O   0  0  0  0  0  0  0  0  0  0  0  0
    1.8093    0.8535    0.0000 O   0  0  0  0  0  0  0  0  0  0  0  0
    2.5238    0.4410    0.0000 O   0  0  0  0  0  0  0  0  0  0  0  0
    3.2383   -0.7965    0.0000 O   0  0  0  0  0  0  0  0  0  0  0  0
    3.9527    0.4410    0.0000 O   0  0  0  0  0  0  0  0  0  0  0  0
    3.2383    0.0285    0.0000 P   0  0  0  0  0  0  0  0  0  0  0  0
    3.2383    0.8535    0.0000 O   0  0  0  0  0  0  0  0  0  0  0  0
    0.4777    1.2428    0.0000 H   0  0  0  0  0  0  0  0  0  0  0  0
    1.1033   -0.4406    0.0000 H   0  0  0  0  0  0  0  0  0  0  0  0
   -1.1919    1.2428    0.0000 H   0  0  0  0  0  0  0  0  0  0  0  0
   -0.2947   -1.5750    0.0000 H   0  0  0  0  0  0  0  0  0  0  0  0
    0.1653   -2.1606    0.0000 H   0  0  0  0  0  0  0  0  0  0  0  0
   -2.2183   -1.1565    0.0000 H   0  0  0  0  0  0  0  0  0  0  0  0
   -1.9210    1.5051    0.0000 H   0  0  0  0  0  0  0  0  0  0  0  0
   -2.7626    0.9268    0.0000 H   0  0  0  0  0  0  0  0  0  0  0  0
   -4.7927    0.5136    0.0000 H   0  0  0  0  0  0  0  0  0  0  0  0
   -4.0781   -0.8689    0.0000 H   0  0  0  0  0  0  0  0  0  0  0  0
    2.6493    1.3385    0.0000 H   0  0  0  0  0  0  0  0  0  0  0  0
    4.7928   -0.0440    0.0000 H   0  0  0  0  0  0  0  0  0  0  0  0
    4.0783    1.3385    0.0000 H   0  0  0  0  0  0  0  0  0  0  0  0
  1  4  1  0  0  0  0
  2  1  1  0  0  0  0
  2  3  1  0  0  0  0
  2 14  1  0  0  0  0
  2 23  1  1  0  0  0
  3  5  1  0  0  0  0
  3  6  1  0  0  0  0
  3 24  1  1  0  0  0
  4  8  1  0  0  0  0
  4  5  1  0  0  0  0
  4 25  1  6  0  0  0
  5  7  1  0  0  0  0
  5 26  1  1  0  0  0
  6 27  1  0  0  0  0
  7 28  1  0  0  0  0
  8 10  1  0  0  0  0
  8 29  1  0  0  0  0
  8 30  1  0  0  0  0
 10 12  1  0  0  0  0
 11 31  1  0  0  0  0
 12  9  2  0  0  0  0
 12 11  1  0  0  0  0
 12 13  1  0  0  0  0
 13 32  1  0  0  0  0
 14 15  1  0  0  0  0
 15 16  2  0  0  0  0
 15 18  1  0  0  0  0
 15 17  1  0  0  0  0
 17 33  1  0  0  0  0
 18 21  1  0  0  0  0
 20 34  1  0  0  0  0
 21 19  2  0  0  0  0
 21 20  1  0  0  0  0
 21 22  1  0  0  0  0
 22 35  1  0  0  0  0
M  END
>  <DRUGBANK_ID>
DB01632

>  <SECONDARY_ACCESSION_NUMBERS>
EXPT02663

>  <COMMON_NAME>
5-O-phosphono-alpha-D-ribofuranosyl diphosphate

>  <CAS_NUMBER>
13270-65-0

>  <UNII>
W5555R4ERG

>  <SYNONYMS>
5-O-phosphono-α-D-ribofuranosyl diphosphate; 5-Phospho-alpha-D-ribose 1-diphosphate; 5-Phosphoribosyl 1-pyrophosphate; 5-Phosphoribosyl diphosphate; Phosphoribosyl pyrophosphate; Phosphoribosylpyrophosphate; PRib-PP; PRPP; α-D-ribofuranose 5-(dihydrogen phosphate) 1-(trihydrogen diphosphate)

$$$$
