
 OpenBabel10282417072D

 73 73  0  0  0  0  0  0  0  0999 V2000
    0.0000   -2.4750    0.0000 C   0  0  0  0  0  0  0  0  0  0  0  0
    0.7145   -2.8875    0.0000 C   0  0  0  0  0  0  0  0  0  0  0  0
    0.7145   -3.7125    0.0000 C   0  0  0  0  0  0  0  0  0  0  0  0
    1.4289   -4.1250    0.0000 C   0  0  0  0  0  0  0  0  0  0  0  0
    1.4289   -4.9500    0.0000 C   0  0  0  0  0  0  0  0  0  0  0  0
    2.1434   -5.3625    0.0000 C   0  0  0  0  0  0  0  0  0  0  0  0
    2.1434   -6.1875    0.0000 C   0  0  0  0  0  0  0  0  0  0  0  0
    2.8579   -6.6000    0.0000 C   0  0  0  0  0  0  0  0  0  0  0  0
    2.8579   -7.4250    0.0000 C   0  0  0  0  0  0  0  0  0  0  0  0
    3.5724   -7.8375    0.0000 C   0  0  0  0  0  0  0  0  0  0  0  0
    4.2868   -7.4250    0.0000 C   0  0  0  0  0  0  0  0  0  0  0  0
    5.0013   -7.8375    0.0000 C   0  0  0  0  0  0  0  0  0  0  0  0
    5.7158   -7.4250    0.0000 C   0  0  0  0  0  0  0  0  0  0  0  0
    6.4302   -7.8375    0.0000 C   0  0  0  0  0  0  0  0  0  0  0  0
    7.1447   -7.4250    0.0000 C   0  0  0  0  0  0  0  0  0  0  0  0
    7.8592   -7.8375    0.0000 C   0  0  0  0  0  0  0  0  0  0  0  0
    8.5737   -7.4250    0.0000 C   0  0  0  0  0  0  0  0  0  0  0  0
    9.2881   -7.8375    0.0000 C   0  0  0  0  0  0  0  0  0  0  0  0
    9.2881   -8.6625    0.0000 O   0  0  0  0  0  0  0  0  0  0  0  0
   10.0026   -7.4250    0.0000 N   0  0  0  0  0  0  0  0  0  0  0  0
   10.7171   -7.8375    0.0000 C   0  0  0  0  0  0  0  0  0  0  0  0
   11.4315   -7.4250    0.0000 C   0  0  0  0  0  0  0  0  0  0  0  0
   12.1460   -7.8375    0.0000 C   0  0  0  0  0  0  0  0  0  0  0  0
   12.8605   -7.4250    0.0000 C   0  0  0  0  0  0  0  0  0  0  0  0
   13.5749   -7.8375    0.0000 C   0  0  0  0  0  0  0  0  0  0  0  0
   13.5749   -8.6625    0.0000 C   0  0  0  0  0  0  0  0  0  0  0  0
   14.2894   -9.0750    0.0000 O   0  0  0  0  0  0  0  0  0  0  0  0
   12.8605   -9.0750    0.0000 C   0  0  0  0  0  0  0  0  0  0  0  0
   12.8605   -9.9000    0.0000 O   0  0  0  0  0  0  0  0  0  0  0  0
   12.1460   -8.6625    0.0000 C   0  0  0  0  0  0  0  0  0  0  0  0
   -0.0000   -1.4050    0.0000 H   0  0  0  0  0  0  0  0  0  0  0  0
   -0.9266   -3.0100    0.0000 H   0  0  0  0  0  0  0  0  0  0  0  0
   -0.9267   -1.9400    0.0000 H   0  0  0  0  0  0  0  0  0  0  0  0
    1.6411   -2.3525    0.0000 H   0  0  0  0  0  0  0  0  0  0  0  0
    1.6411   -3.4225    0.0000 H   0  0  0  0  0  0  0  0  0  0  0  0
   -0.2122   -4.2475    0.0000 H   0  0  0  0  0  0  0  0  0  0  0  0
    0.7145   -4.7825    0.0000 H   0  0  0  0  0  0  0  0  0  0  0  0
    2.3556   -3.5900    0.0000 H   0  0  0  0  0  0  0  0  0  0  0  0
    2.3555   -4.6600    0.0000 H   0  0  0  0  0  0  0  0  0  0  0  0
    0.5023   -5.4850    0.0000 H   0  0  0  0  0  0  0  0  0  0  0  0
    1.4289   -6.0200    0.0000 H   0  0  0  0  0  0  0  0  0  0  0  0
    3.0700   -4.8275    0.0000 H   0  0  0  0  0  0  0  0  0  0  0  0
    3.0700   -5.8975    0.0000 H   0  0  0  0  0  0  0  0  0  0  0  0
    1.2168   -6.7225    0.0000 H   0  0  0  0  0  0  0  0  0  0  0  0
    2.1434   -7.2575    0.0000 H   0  0  0  0  0  0  0  0  0  0  0  0
    3.7845   -6.0650    0.0000 H   0  0  0  0  0  0  0  0  0  0  0  0
    3.7845   -7.1350    0.0000 H   0  0  0  0  0  0  0  0  0  0  0  0
    1.9642   -7.9410    0.0000 H   0  0  0  0  0  0  0  0  0  0  0  0
    3.5724   -8.8695    0.0000 H   0  0  0  0  0  0  0  0  0  0  0  0
    4.2868   -6.3550    0.0000 H   0  0  0  0  0  0  0  0  0  0  0  0
    5.2134   -6.8900    0.0000 H   0  0  0  0  0  0  0  0  0  0  0  0
    5.0013   -8.9075    0.0000 H   0  0  0  0  0  0  0  0  0  0  0  0
    5.9279   -8.3725    0.0000 H   0  0  0  0  0  0  0  0  0  0  0  0
    5.7158   -6.3550    0.0000 H   0  0  0  0  0  0  0  0  0  0  0  0
    6.6425   -6.8900    0.0000 H   0  0  0  0  0  0  0  0  0  0  0  0
    6.4302   -8.9075    0.0000 H   0  0  0  0  0  0  0  0  0  0  0  0
    7.3568   -8.3725    0.0000 H   0  0  0  0  0  0  0  0  0  0  0  0
    7.1447   -6.3550    0.0000 H   0  0  0  0  0  0  0  0  0  0  0  0
    8.0713   -6.8900    0.0000 H   0  0  0  0  0  0  0  0  0  0  0  0
    7.8592   -8.9075    0.0000 H   0  0  0  0  0  0  0  0  0  0  0  0
    8.7858   -8.3725    0.0000 H   0  0  0  0  0  0  0  0  0  0  0  0
    8.5737   -6.3550    0.0000 H   0  0  0  0  0  0  0  0  0  0  0  0
    9.5004   -6.8900    0.0000 H   0  0  0  0  0  0  0  0  0  0  0  0
   10.0026   -6.4405    0.0000 H   0  0  0  0  0  0  0  0  0  0  0  0
   10.7171   -8.9075    0.0000 H   0  0  0  0  0  0  0  0  0  0  0  0
   11.6438   -8.3725    0.0000 H   0  0  0  0  0  0  0  0  0  0  0  0
   11.4315   -6.3550    0.0000 H   0  0  0  0  0  0  0  0  0  0  0  0
   12.3581   -6.8900    0.0000 H   0  0  0  0  0  0  0  0  0  0  0  0
   12.8605   -6.3930    0.0000 H   0  0  0  0  0  0  0  0  0  0  0  0
   14.4686   -7.3215    0.0000 H   0  0  0  0  0  0  0  0  0  0  0  0
   14.2894  -10.0120    0.0000 H   0  0  0  0  0  0  0  0  0  0  0  0
   12.0490  -10.3685    0.0000 H   0  0  0  0  0  0  0  0  0  0  0  0
   11.2523   -9.1785    0.0000 H   0  0  0  0  0  0  0  0  0  0  0  0
  1  2  1  0  0  0  0
  1 31  1  0  0  0  0
  1 32  1  0  0  0  0
  1 33  1  0  0  0  0
  2  3  1  0  0  0  0
  2 34  1  0  0  0  0
  2 35  1  0  0  0  0
  3  4  1  0  0  0  0
  3 36  1  0  0  0  0
  3 37  1  0  0  0  0
  4  5  1  0  0  0  0
  4 38  1  0  0  0  0
  4 39  1  0  0  0  0
  5  6  1  0  0  0  0
  5 40  1  0  0  0  0
  5 41  1  0  0  0  0
  6  7  1  0  0  0  0
  6 42  1  0  0  0  0
  6 43  1  0  0  0  0
  7  8  1  0  0  0  0
  7 44  1  0  0  0  0
  7 45  1  0  0  0  0
  8  9  1  0  0  0  0
  8 46  1  0  0  0  0
  8 47  1  0  0  0  0
  9 10  2  0  0  0  0
  9 48  1  0  0  0  0
 10 11  1  0  0  0  0
 10 49  1  0  0  0  0
 11 12  1  0  0  0  0
 11 50  1  0  0  0  0
 11 51  1  0  0  0  0
 12 13  1  0  0  0  0
 12 52  1  0  0  0  0
 12 53  1  0  0  0  0
 13 14  1  0  0  0  0
 13 54  1  0  0  0  0
 13 55  1  0  0  0  0
 14 15  1  0  0  0  0
 14 56  1  0  0  0  0
 14 57  1  0  0  0  0
 15 16  1  0  0  0  0
 15 58  1  0  0  0  0
 15 59  1  0  0  0  0
 16 17  1  0  0  0  0
 16 60  1  0  0  0  0
 16 61  1  0  0  0  0
 17 18  1  0  0  0  0
 17 62  1  0  0  0  0
 17 63  1  0  0  0  0
 18 19  2  0  0  0  0
 18 20  1  0  0  0  0
 20 21  1  0  0  0  0
 20 64  1  0  0  0  0
 21 22  1  0  0  0  0
 21 65  1  0  0  0  0
 21 66  1  0  0  0  0
 22 23  1  0  0  0  0
 22 67  1  0  0  0  0
 22 68  1  0  0  0  0
 23 24  2  0  0  0  0
 23 30  1  0  0  0  0
 24 25  1  0  0  0  0
 24 69  1  0  0  0  0
 25 26  2  0  0  0  0
 25 70  1  0  0  0  0
 26 27  1  0  0  0  0
 26 28  1  0  0  0  0
 27 71  1  0  0  0  0
 28 29  1  0  0  0  0
 28 30  2  0  0  0  0
 29 72  1  0  0  0  0
 30 73  1  0  0  0  0
M  END
>  <DRUGBANK_ID>
DB17036

>  <COMMON_NAME>
N-oleoyldopamine

>  <CAS_NUMBER>
105955-11-1

>  <UNII>
T87P7X9XSZ

>  <SYNONYMS>
(9z)- n-(2-(3,4-dihydroxyphenyl)ethyl)-9-octadecenamide

$$$$
