
 OpenBabel10282417072D

 51 54  0  0  0  0  0  0  0  0999 V2000
    6.4458  -10.7194    0.0000 C   0  0  0  0  0  0  0  0  0  0  0  0
   11.2876  -12.3694    0.0000 C   0  0  0  0  0  0  0  0  0  0  0  0
   11.0577  -10.9173    0.0000 C   0  0  0  0  0  0  0  0  0  0  0  0
   12.4167  -11.3589    0.0000 C   0  0  0  0  0  0  0  0  0  0  0  0
   13.2237  -11.1875    0.0000 C   0  0  0  0  0  0  0  0  0  0  0  0
   13.4785  -10.4028    0.0000 C   0  0  0  0  0  0  0  0  0  0  0  0
   12.1196   -9.9612    0.0000 C   0  0  0  0  0  0  0  0  0  0  0  0
    8.5892  -11.9569    0.0000 C   0  0  0  0  0  0  0  0  0  0  0  0
    8.5892  -12.7819    0.0000 C   0  0  0  0  0  0  0  0  0  0  0  0
    9.3037  -13.1944    0.0000 N   0  0  0  0  0  0  0  0  0  0  0  0
    9.3037  -11.5445    0.0000 C   0  0  0  0  0  0  0  0  0  0  0  0
   10.8028  -13.0368    0.0000 N   0  0  0  0  0  0  0  0  0  0  0  0
   10.8028  -11.7020    0.0000 C   0  0  0  0  0  0  0  0  0  0  0  0
   10.0181  -11.9569    0.0000 C   0  0  0  0  0  0  0  0  0  0  0  0
   10.0181  -12.7819    0.0000 C   0  0  0  0  0  0  0  0  0  0  0  0
    7.8747  -11.5445    0.0000 C   0  0  0  0  0  0  0  0  0  0  0  0
   11.8647  -10.7459    0.0000 C   0  0  0  0  0  0  0  0  0  0  0  0
   12.9266   -9.7896    0.0000 C   0  0  0  0  0  0  0  0  0  0  0  0
   11.5676   -9.3482    0.0000 F   0  0  0  0  0  0  0  0  0  0  0  0
   12.1618  -12.1436    0.0000 F   0  0  0  0  0  0  0  0  0  0  0  0
   13.7757  -11.8005    0.0000 N   0  0  0  0  0  0  0  0  0  0  0  0
   14.5826  -11.6289    0.0000 S   0  0  0  0  0  0  0  0  0  0  0  0
   14.7542  -12.4359    0.0000 O   0  0  0  0  0  0  0  0  0  0  0  0
   14.4111  -10.8220    0.0000 O   0  0  0  0  0  0  0  0  0  0  0  0
   15.3896  -11.4574    0.0000 C   0  0  0  0  0  0  0  0  0  0  0  0
   15.9416  -12.0706    0.0000 C   0  0  0  0  0  0  0  0  0  0  0  0
   16.7487  -11.8990    0.0000 C   0  0  0  0  0  0  0  0  0  0  0  0
    7.8747  -10.7194    0.0000 C   0  0  0  0  0  0  0  0  0  0  0  0
    7.1603  -10.3069    0.0000 C   0  0  0  0  0  0  0  0  0  0  0  0
    6.4458  -11.5445    0.0000 C   0  0  0  0  0  0  0  0  0  0  0  0
    7.1603  -11.9569    0.0000 C   0  0  0  0  0  0  0  0  0  0  0  0
    5.7313  -10.3069    0.0000 Cl  0  0  0  0  0  0  0  0  0  0  0  0
   10.5057  -10.3043    0.0000 O   0  0  0  0  0  0  0  0  0  0  0  0
   12.3196  -12.3694    0.0000 H   0  0  0  0  0  0  0  0  0  0  0  0
   14.4879  -10.1882    0.0000 H   0  0  0  0  0  0  0  0  0  0  0  0
    7.6955  -13.2979    0.0000 H   0  0  0  0  0  0  0  0  0  0  0  0
    9.3037  -10.5125    0.0000 H   0  0  0  0  0  0  0  0  0  0  0  0
   11.1071  -13.9731    0.0000 H   0  0  0  0  0  0  0  0  0  0  0  0
   13.2456   -8.8081    0.0000 H   0  0  0  0  0  0  0  0  0  0  0  0
   13.4715  -12.7368    0.0000 H   0  0  0  0  0  0  0  0  0  0  0  0
   15.7203  -10.4398    0.0000 H   0  0  0  0  0  0  0  0  0  0  0  0
   16.4362  -11.2350    0.0000 H   0  0  0  0  0  0  0  0  0  0  0  0
   15.6109  -13.0882    0.0000 H   0  0  0  0  0  0  0  0  0  0  0  0
   16.6576  -12.8658    0.0000 H   0  0  0  0  0  0  0  0  0  0  0  0
   17.4647  -12.6941    0.0000 H   0  0  0  0  0  0  0  0  0  0  0  0
   17.0793  -10.8814    0.0000 H   0  0  0  0  0  0  0  0  0  0  0  0
   17.7953  -11.6765    0.0000 H   0  0  0  0  0  0  0  0  0  0  0  0
    8.7684  -10.2034    0.0000 H   0  0  0  0  0  0  0  0  0  0  0  0
    7.1603   -9.2749    0.0000 H   0  0  0  0  0  0  0  0  0  0  0  0
    5.5521  -12.0606    0.0000 H   0  0  0  0  0  0  0  0  0  0  0  0
    7.1603  -12.9889    0.0000 H   0  0  0  0  0  0  0  0  0  0  0  0
  1 30  1  0  0  0  0
  1 32  1  0  0  0  0
  2 12  1  0  0  0  0
  2 13  2  0  0  0  0
  2 34  1  0  0  0  0
  3 17  1  0  0  0  0
  3 33  2  0  0  0  0
  4  5  2  0  0  0  0
  4 20  1  0  0  0  0
  5  6  1  0  0  0  0
  5 21  1  0  0  0  0
  6 18  2  0  0  0  0
  6 35  1  0  0  0  0
  7 19  1  0  0  0  0
  8  9  2  0  0  0  0
  8 11  1  0  0  0  0
  8 16  1  0  0  0  0
  9 10  1  0  0  0  0
  9 36  1  0  0  0  0
 11 14  2  0  0  0  0
 11 37  1  0  0  0  0
 12 38  1  0  0  0  0
 13  3  1  0  0  0  0
 14 13  1  0  0  0  0
 14 15  1  0  0  0  0
 15 10  2  0  0  0  0
 15 12  1  0  0  0  0
 16 28  2  0  0  0  0
 16 31  1  0  0  0  0
 17  4  1  0  0  0  0
 17  7  2  0  0  0  0
 18  7  1  0  0  0  0
 18 39  1  0  0  0  0
 21 22  1  0  0  0  0
 21 40  1  0  0  0  0
 23 22  2  0  0  0  0
 24 22  2  0  0  0  0
 25 22  1  0  0  0  0
 25 26  1  0  0  0  0
 25 41  1  0  0  0  0
 25 42  1  0  0  0  0
 26 27  1  0  0  0  0
 26 43  1  0  0  0  0
 26 44  1  0  0  0  0
 27 45  1  0  0  0  0
 27 46  1  0  0  0  0
 27 47  1  0  0  0  0
 28 29  1  0  0  0  0
 28 48  1  0  0  0  0
 29  1  2  0  0  0  0
 29 49  1  0  0  0  0
 30 31  2  0  0  0  0
 30 50  1  0  0  0  0
 31 51  1  0  0  0  0
M  END
>  <DRUGBANK_ID>
DB08881

>  <SECONDARY_ACCESSION_NUMBERS>
DB05238

>  <COMMON_NAME>
Vemurafenib

>  <CAS_NUMBER>
918504-65-1

>  <UNII>
207SMY3FQT

>  <SYNONYMS>
Vémurafénib; Vemurafenib; Vemurafenibum

$$$$
