
 OpenBabel10282417072D

105107  0  0  0  0  0  0  0  0999 V2000
    2.6740    2.0361    0.0000 C   0  0  2  0  0  0  0  0  0  0  0  0
    2.0066    2.5210    0.0000 O   0  0  0  0  0  0  0  0  0  0  0  0
    2.4191    1.2515    0.0000 C   0  0  1  0  0  0  0  0  0  0  0  0
    1.3391    2.0361    0.0000 C   0  0  1  0  0  0  0  0  0  0  0  0
    1.5941    1.2515    0.0000 C   0  0  1  0  0  0  0  0  0  0  0  0
    2.9040    0.5840    0.0000 O   0  0  0  0  0  0  0  0  0  0  0  0
   -4.0717   -2.0048    0.0000 C   0  0  0  0  0  0  0  0  0  0  0  0
   -3.3288   -2.4173    0.0000 C   0  0  0  0  0  0  0  0  0  0  0  0
   -4.7861   -2.4173    0.0000 N   0  0  0  0  0  0  0  0  0  0  0  0
   -5.5005   -2.0048    0.0000 C   0  0  0  0  0  0  0  0  0  0  0  0
   -6.2150   -2.4173    0.0000 O   0  0  0  0  0  0  0  0  0  0  0  0
   -4.7577   -0.7673    0.0000 C   0  0  0  0  0  0  0  0  0  0  0  0
   -5.5005   -1.1798    0.0000 C   0  0  0  0  0  0  0  0  0  0  0  0
   -4.7577    0.0576    0.0000 N   0  0  0  0  0  0  0  0  0  0  0  0
   -6.1866    0.0576    0.0000 O   0  0  0  0  0  0  0  0  0  0  0  0
   -5.4722    0.4703    0.0000 C   0  0  0  0  0  0  0  0  0  0  0  0
   -4.0432    1.2953    0.0000 C   0  0  0  0  0  0  0  0  0  0  0  0
   -5.1702    2.4222    0.0000 C   0  0  0  0  0  0  0  0  0  0  0  0
   -4.7577    1.7078    0.0000 C   0  0  0  0  0  0  0  0  0  0  0  0
   -4.3453    2.4222    0.0000 C   0  0  0  0  0  0  0  0  0  0  0  0
   -5.4722    1.2953    0.0000 C   0  0  1  0  0  0  0  0  0  0  0  0
   -6.1867    1.7078    0.0000 O   0  0  0  0  0  0  0  0  0  0  0  0
   -3.3288    1.7078    0.0000 O   0  0  0  0  0  0  0  0  0  0  0  0
   -1.6788    1.7078    0.0000 O   0  0  0  0  0  0  0  0  0  0  0  0
   -0.0288    1.7078    0.0000 O   0  0  0  0  0  0  0  0  0  0  0  0
   -2.5038    2.5328    0.0000 O   0  0  0  0  0  0  0  0  0  0  0  0
   -2.5038    0.8828    0.0000 O   0  0  0  0  0  0  0  0  0  0  0  0
   -0.8539    2.5328    0.0000 O   0  0  0  0  0  0  0  0  0  0  0  0
   -0.8539    0.8828    0.0000 O   0  0  0  0  0  0  0  0  0  0  0  0
   -2.5038    1.7078    0.0000 P   0  0  3  0  0  0  0  0  0  0  0  0
   -0.8539    1.7078    0.0000 P   0  0  3  0  0  0  0  0  0  0  0  0
    0.5545    2.2910    0.0000 C   0  0  0  0  0  0  0  0  0  0  0  0
    1.1091    0.5840    0.0000 O   0  0  0  0  0  0  0  0  0  0  0  0
    0.2841   -0.2409    0.0000 O   0  0  0  0  0  0  0  0  0  0  0  0
    1.9341   -0.2409    0.0000 O   0  0  0  0  0  0  0  0  0  0  0  0
    1.1091   -0.2409    0.0000 P   0  0  0  0  0  0  0  0  0  0  0  0
    1.1091   -1.0659    0.0000 O   0  0  0  0  0  0  0  0  0  0  0  0
    3.4586    2.2910    0.0000 N   0  0  0  0  0  0  0  0  0  0  0  0
    4.0718    1.7390    0.0000 C   0  0  0  0  0  0  0  0  0  0  0  0
    3.7942    3.0448    0.0000 C   0  0  0  0  0  0  0  0  0  0  0  0
    4.7861    2.1515    0.0000 C   0  0  0  0  0  0  0  0  0  0  0  0
    4.0718    0.9140    0.0000 N   0  0  0  0  0  0  0  0  0  0  0  0
    4.6147    2.9586    0.0000 N   0  0  0  0  0  0  0  0  0  0  0  0
    5.5006    1.7391    0.0000 C   0  0  0  0  0  0  0  0  0  0  0  0
    4.7863    0.5016    0.0000 C   0  0  0  0  0  0  0  0  0  0  0  0
    5.5006    0.9141    0.0000 N   0  0  0  0  0  0  0  0  0  0  0  0
    6.2151    2.1516    0.0000 N   0  0  0  0  0  0  0  0  0  0  0  0
   -2.6143   -2.0048    0.0000 S   0  0  0  0  0  0  0  0  0  0  0  0
   -1.9404   -2.4582    0.0000 C   0  0  0  0  0  0  0  0  0  0  0  0
   -1.3738   -2.0906    0.0000 C   0  0  0  0  0  0  0  0  0  0  0  0
   -1.9106   -3.0448    0.0000 O   0  0  0  0  0  0  0  0  0  0  0  0
   -0.8111   -2.4213    0.0000 S   0  0  0  0  0  0  0  0  0  0  0  0
   -0.1057   -2.0182    0.0000 C   0  0  0  0  0  0  0  0  0  0  0  0
    0.6140   -2.4213    0.0000 C   0  0  0  0  0  0  0  0  0  0  0  0
    1.3482   -2.0182    0.0000 C   0  0  0  0  0  0  0  0  0  0  0  0
    2.0681   -2.4213    0.0000 C   0  0  0  0  0  0  0  0  0  0  0  0
    2.7734   -2.0182    0.0000 C   0  0  0  0  0  0  0  0  0  0  0  0
    2.8414    3.0929    0.0000 H   0  0  0  0  0  0  0  0  0  0  0  0
    3.4759    1.4189    0.0000 H   0  0  0  0  0  0  0  0  0  0  0  0
    1.1717    3.0929    0.0000 H   0  0  0  0  0  0  0  0  0  0  0  0
    2.0799    0.2981    0.0000 H   0  0  0  0  0  0  0  0  0  0  0  0
    2.5094   -0.3021    0.0000 H   0  0  0  0  0  0  0  0  0  0  0  0
   -4.0807   -0.9348    0.0000 H   0  0  0  0  0  0  0  0  0  0  0  0
   -3.1518   -1.4582    0.0000 H   0  0  0  0  0  0  0  0  0  0  0  0
   -3.3199   -3.4873    0.0000 H   0  0  0  0  0  0  0  0  0  0  0  0
   -2.3999   -2.9484    0.0000 H   0  0  0  0  0  0  0  0  0  0  0  0
   -4.7861   -3.4018    0.0000 H   0  0  0  0  0  0  0  0  0  0  0  0
   -3.8355   -1.3100    0.0000 H   0  0  0  0  0  0  0  0  0  0  0  0
   -4.7711   -1.8372    0.0000 H   0  0  0  0  0  0  0  0  0  0  0  0
   -6.4227   -0.6371    0.0000 H   0  0  0  0  0  0  0  0  0  0  0  0
   -5.4871   -0.1099    0.0000 H   0  0  0  0  0  0  0  0  0  0  0  0
   -3.9051    0.5498    0.0000 H   0  0  0  0  0  0  0  0  0  0  0  0
   -4.0432    0.2253    0.0000 H   0  0  0  0  0  0  0  0  0  0  0  0
   -3.1165    0.7603    0.0000 H   0  0  0  0  0  0  0  0  0  0  0  0
   -4.6352    3.3489    0.0000 H   0  0  0  0  0  0  0  0  0  0  0  0
   -6.2402    2.4222    0.0000 H   0  0  0  0  0  0  0  0  0  0  0  0
   -5.7052    3.3488    0.0000 H   0  0  0  0  0  0  0  0  0  0  0  0
   -3.2753    2.4223    0.0000 H   0  0  0  0  0  0  0  0  0  0  0  0
   -4.8804    3.3488    0.0000 H   0  0  0  0  0  0  0  0  0  0  0  0
   -3.8104    3.3489    0.0000 H   0  0  0  0  0  0  0  0  0  0  0  0
   -6.3988    0.7603    0.0000 H   0  0  0  0  0  0  0  0  0  0  0  0
   -6.1867    2.6778    0.0000 H   0  0  0  0  0  0  0  0  0  0  0  0
   -3.3438    0.3978    0.0000 H   0  0  0  0  0  0  0  0  0  0  0  0
   -1.6939    0.3978    0.0000 H   0  0  0  0  0  0  0  0  0  0  0  0
    0.3047    3.3314    0.0000 H   0  0  0  0  0  0  0  0  0  0  0  0
   -0.4753    2.5815    0.0000 H   0  0  0  0  0  0  0  0  0  0  0  0
   -0.2009    0.5991    0.0000 H   0  0  0  0  0  0  0  0  0  0  0  0
    2.4191   -1.0809    0.0000 H   0  0  0  0  0  0  0  0  0  0  0  0
    3.2782    3.9385    0.0000 H   0  0  0  0  0  0  0  0  0  0  0  0
    4.7864   -0.5304    0.0000 H   0  0  0  0  0  0  0  0  0  0  0  0
    7.0677    1.6593    0.0000 H   0  0  0  0  0  0  0  0  0  0  0  0
    6.2151    3.1361    0.0000 H   0  0  0  0  0  0  0  0  0  0  0  0
   -1.3974   -1.0209    0.0000 H   0  0  0  0  0  0  0  0  0  0  0  0
   -0.4510   -1.5490    0.0000 H   0  0  0  0  0  0  0  0  0  0  0  0
   -0.1103   -0.9482    0.0000 H   0  0  0  0  0  0  0  0  0  0  0  0
    0.8163   -1.4752    0.0000 H   0  0  0  0  0  0  0  0  0  0  0  0
    0.6095   -3.4913    0.0000 H   0  0  0  0  0  0  0  0  0  0  0  0
    1.5337   -2.9682    0.0000 H   0  0  0  0  0  0  0  0  0  0  0  0
    1.3527   -0.9482    0.0000 H   0  0  0  0  0  0  0  0  0  0  0  0
    2.2724   -1.4790    0.0000 H   0  0  0  0  0  0  0  0  0  0  0  0
    2.0728   -3.4913    0.0000 H   0  0  0  0  0  0  0  0  0  0  0  0
    2.9948   -2.9563    0.0000 H   0  0  0  0  0  0  0  0  0  0  0  0
    3.6977   -2.5573    0.0000 H   0  0  0  0  0  0  0  0  0  0  0  0
    2.7781   -0.9482    0.0000 H   0  0  0  0  0  0  0  0  0  0  0  0
    3.7024   -1.4873    0.0000 H   0  0  0  0  0  0  0  0  0  0  0  0
  1 38  1  0  0  0  0
  1 58  1  6  0  0  0
  2  1  1  0  0  0  0
  3  1  1  0  0  0  0
  3  6  1  0  0  0  0
  3 59  1  1  0  0  0
  4  2  1  0  0  0  0
  4 32  1  0  0  0  0
  4 60  1  6  0  0  0
  5  3  1  0  0  0  0
  5  4  1  0  0  0  0
  5 33  1  0  0  0  0
  5 61  1  1  0  0  0
  6 62  1  0  0  0  0
  7  8  1  0  0  0  0
  7 63  1  0  0  0  0
  7 64  1  0  0  0  0
  8 48  1  0  0  0  0
  8 65  1  0  0  0  0
  8 66  1  0  0  0  0
  9  7  1  0  0  0  0
  9 67  1  0  0  0  0
 10  9  1  0  0  0  0
 10 11  2  0  0  0  0
 12 14  1  0  0  0  0
 12 68  1  0  0  0  0
 12 69  1  0  0  0  0
 13 10  1  0  0  0  0
 13 12  1  0  0  0  0
 13 70  1  0  0  0  0
 13 71  1  0  0  0  0
 14 72  1  0  0  0  0
 16 14  1  0  0  0  0
 16 15  2  0  0  0  0
 16 21  1  0  0  0  0
 17 23  1  0  0  0  0
 17 73  1  0  0  0  0
 17 74  1  0  0  0  0
 18 75  1  0  0  0  0
 18 76  1  0  0  0  0
 18 77  1  0  0  0  0
 19 17  1  0  0  0  0
 19 18  1  0  0  0  0
 19 20  1  0  0  0  0
 20 78  1  0  0  0  0
 20 79  1  0  0  0  0
 20 80  1  0  0  0  0
 21 19  1  0  0  0  0
 21 22  1  0  0  0  0
 21 81  1  1  0  0  0
 22 82  1  0  0  0  0
 23 30  1  0  0  0  0
 24 31  1  0  0  0  0
 27 83  1  0  0  0  0
 29 84  1  0  0  0  0
 30 24  1  0  0  0  0
 30 26  2  0  0  0  0
 30 27  1  0  0  0  0
 31 25  1  0  0  0  0
 31 28  2  0  0  0  0
 31 29  1  0  0  0  0
 32 25  1  0  0  0  0
 32 85  1  0  0  0  0
 32 86  1  0  0  0  0
 33 36  1  0  0  0  0
 34 87  1  0  0  0  0
 35 88  1  0  0  0  0
 36 34  1  0  0  0  0
 36 35  1  0  0  0  0
 36 37  2  0  0  0  0
 39 38  1  0  0  0  0
 40 38  1  0  0  0  0
 40 89  1  0  0  0  0
 41 39  2  0  0  0  0
 42 39  1  0  0  0  0
 43 40  2  0  0  0  0
 43 41  1  0  0  0  0
 44 41  1  0  0  0  0
 45 42  2  0  0  0  0
 45 90  1  0  0  0  0
 46 44  2  0  0  0  0
 46 45  1  0  0  0  0
 47 44  1  0  0  0  0
 47 91  1  0  0  0  0
 47 92  1  0  0  0  0
 48 49  1  0  0  0  0
 49 50  1  0  0  0  0
 49 51  2  0  0  0  0
 50 52  1  0  0  0  0
 50 93  1  0  0  0  0
 50 94  1  0  0  0  0
 53 52  1  0  0  0  0
 53 95  1  0  0  0  0
 53 96  1  0  0  0  0
 54 53  1  0  0  0  0
 54 97  1  0  0  0  0
 54 98  1  0  0  0  0
 55 54  1  0  0  0  0
 55 99  1  0  0  0  0
 55100  1  0  0  0  0
 56 55  1  0  0  0  0
 56101  1  0  0  0  0
 56102  1  0  0  0  0
 57 56  1  0  0  0  0
 57103  1  0  0  0  0
 57104  1  0  0  0  0
 57105  1  0  0  0  0
M  END
>  <DRUGBANK_ID>
DB03415

>  <SECONDARY_ACCESSION_NUMBERS>
EXPT01029

>  <COMMON_NAME>
3-thiaoctanoyl-CoA

>  <SYNONYMS>
3-thiaoctanoyl-coenzyme A

$$$$
