
 OpenBabel10282417072D

 29 30  0  0  1  0  0  0  0  0999 V2000
    3.6130    0.6363    0.0000 C   0  0  0  0  0  0  0  0  0  0  0  0
    2.7880    0.6363    0.0000 C   0  0  0  0  0  0  0  0  0  0  0  0
    2.4300    1.3796    0.0000 C   0  0  0  0  0  0  0  0  0  0  0  0
    1.6257    1.5632    0.0000 C   0  0  2  0  0  0  0  0  0  0  0  0
    1.3940    0.6363    0.0000 C   0  0  0  0  0  0  0  0  0  0  0  0
    1.6257   -0.2905    0.0000 N   0  0  0  0  0  0  0  0  0  0  0  0
    2.4300   -0.1070    0.0000 C   0  0  2  0  0  0  0  0  0  0  0  0
    2.9444   -0.7520    0.0000 C   0  0  0  0  0  0  0  0  0  0  0  0
    3.7602   -0.6290    0.0000 N   0  0  0  0  0  0  0  0  0  0  0  0
    2.6430   -1.5199    0.0000 O   0  0  0  0  0  0  0  0  0  0  0  0
    0.9807    0.2238    0.0000 C   0  0  0  0  0  0  0  0  0  0  0  0
    0.2374   -0.1341    0.0000 O   0  0  0  0  0  0  0  0  0  0  0  0
    0.9807    1.0488    0.0000 N   0  0  0  0  0  0  0  0  0  0  0  0
    0.2374    1.4068    0.0000 O   0  0  0  0  0  0  0  0  0  0  0  0
   -0.4442    0.9421    0.0000 S   0  0  0  0  0  0  0  0  0  0  0  0
   -1.1259    0.4773    0.0000 O   0  0  0  0  0  0  0  0  0  0  0  0
   -0.9090    1.6237    0.0000 O   0  0  0  0  0  0  0  0  0  0  0  0
    0.0205    0.2604    0.0000 O   0  0  0  0  0  0  0  0  0  0  0  0
    4.1480   -0.2903    0.0000 H   0  0  0  0  0  0  0  0  0  0  0  0
    4.1480    1.5629    0.0000 H   0  0  0  0  0  0  0  0  0  0  0  0
    4.6830    0.6363    0.0000 H   0  0  0  0  0  0  0  0  0  0  0  0
    3.0734    2.1865    0.0000 H   0  0  0  0  0  0  0  0  0  0  0  0
    2.1856    0.6514    0.0000 H   0  0  0  0  0  0  0  0  0  0  0  0
    0.3240    0.6363    0.0000 H   0  0  0  0  0  0  0  0  0  0  0  0
    0.7355   -0.2071    0.0000 H   0  0  0  0  0  0  0  0  0  0  0  0
    2.0766   -1.1169    0.0000 H   0  0  0  0  0  0  0  0  0  0  0  0
    4.3741   -1.3987    0.0000 H   0  0  0  0  0  0  0  0  0  0  0  0
    4.1198    0.2875    0.0000 H   0  0  0  0  0  0  0  0  0  0  0  0
   -1.9999    0.8981    0.0000 H   0  0  0  0  0  0  0  0  0  0  0  0
  1  2  1  0  0  0  0
  1 19  1  0  0  0  0
  1 20  1  0  0  0  0
  1 21  1  0  0  0  0
  2  3  2  0  0  0  0
  3 22  1  0  0  0  0
  4  3  1  0  0  0  0
  4  5  1  0  0  0  0
  4 13  1  0  0  0  0
  4 23  1  1  0  0  0
  5 24  1  0  0  0  0
  5 25  1  0  0  0  0
  6  5  1  0  0  0  0
  6  7  1  0  0  0  0
  6 11  1  0  0  0  0
  7  2  1  0  0  0  0
  7  8  1  0  0  0  0
  7 26  1  6  0  0  0
  8  9  1  0  0  0  0
  8 10  2  0  0  0  0
  9 27  1  0  0  0  0
  9 28  1  0  0  0  0
 11 12  2  0  0  0  0
 11 13  1  0  0  0  0
 13 14  1  0  0  0  0
 14 15  1  0  0  0  0
 15 16  1  0  0  0  0
 15 17  2  0  0  0  0
 15 18  2  0  0  0  0
 16 29  1  0  0  0  0
M  END
>  <DRUGBANK_ID>
DB16704

>  <COMMON_NAME>
Durlobactam

>  <CAS_NUMBER>
1467829-71-5

>  <UNII>
PSA33KO9WA

>  <SYNONYMS>
(2S,5R)-2-CARBAMOYL-3-METHYL-7-OXO-1,6-DIAZABICYCLO(3.2.1)OCT-3-EN-6-YL SULFATE; Durlobactam; SULFURIC ACID, MONO((2S,5R)-2-(AMINOCARBONYL)-3-METHYL-7-OXO-1,6-DIAZABICYCLO(3.2.1)OCT-3-EN-6-YL) ESTER

$$$$
