
 OpenBabel10282417072D

118120  0  0  1  0  0  0  0  0999 V2000
    0.7145   -6.1875    0.0000 C   0  0  0  0  0  0  0  0  0  0  0  0
   -0.0000   -5.7750    0.0000 C   0  0  0  0  0  0  0  0  0  0  0  0
   -0.0000   -4.9500    0.0000 C   0  0  2  0  0  0  0  0  0  0  0  0
   -0.7145   -5.3625    0.0000 C   0  0  1  0  0  0  0  0  0  0  0  0
   -1.4289   -4.9500    0.0000 C   0  0  1  0  0  0  0  0  0  0  0  0
   -1.4289   -4.1250    0.0000 C   0  0  2  0  0  0  0  0  0  0  0  0
   -0.7145   -3.7125    0.0000 C   0  0  0  0  0  0  0  0  0  0  0  0
   -0.0000   -4.1250    0.0000 O   0  0  0  0  0  0  0  0  0  0  0  0
   -0.7145   -2.8875    0.0000 C   0  0  1  0  0  0  0  0  0  0  0  0
   -0.0000   -2.4750    0.0000 C   0  0  0  0  0  0  0  0  0  0  0  0
    0.7145   -2.8875    0.0000 C   0  0  1  0  0  0  0  0  0  0  0  0
    1.4289   -2.4750    0.0000 C   0  0  1  0  0  0  0  0  0  0  0  0
    2.1434   -2.8875    0.0000 C   0  0  2  0  0  0  0  0  0  0  0  0
    2.1434   -3.7125    0.0000 C   0  0  1  0  0  0  0  0  0  0  0  0
    1.4289   -4.1250    0.0000 C   0  0  2  0  0  0  0  0  0  0  0  0
    1.4289   -4.9500    0.0000 C   0  0  0  0  0  0  0  0  0  0  0  0
    2.1434   -5.3625    0.0000 O   0  0  0  0  0  0  0  0  0  0  0  0
    0.7145   -5.3625    0.0000 O   0  0  0  0  0  0  0  0  0  0  0  0
    0.7145   -3.7125    0.0000 C   0  0  0  0  0  0  0  0  0  0  0  0
    2.8579   -4.1250    0.0000 O   0  0  0  0  0  0  0  0  0  0  0  0
    3.5724   -3.7125    0.0000 C   0  0  1  0  0  0  0  0  0  0  0  0
    3.5724   -2.8875    0.0000 C   0  0  0  0  0  0  0  0  0  0  0  0
    4.2868   -2.4750    0.0000 C   0  0  1  0  0  0  0  0  0  0  0  0
    5.0013   -2.8875    0.0000 C   0  0  2  0  0  0  0  0  0  0  0  0
    5.0013   -3.7125    0.0000 C   0  0  1  0  0  0  0  0  0  0  0  0
    4.2868   -4.1250    0.0000 O   0  0  0  0  0  0  0  0  0  0  0  0
    5.7158   -4.1250    0.0000 C   0  0  0  0  0  0  0  0  0  0  0  0
    5.7158   -2.4750    0.0000 O   0  0  0  0  0  0  0  0  0  0  0  0
    3.8995   -1.7466    0.0000 C   0  0  0  0  0  0  0  0  0  0  0  0
    4.6741   -1.7466    0.0000 O   0  0  0  0  0  0  0  0  0  0  0  0
    5.4986   -1.7178    0.0000 C   0  0  0  0  0  0  0  0  0  0  0  0
    2.8579   -2.4750    0.0000 C   0  0  0  0  0  0  0  0  0  0  0  0
    1.4289   -1.6500    0.0000 O   0  0  0  0  0  0  0  0  0  0  0  0
    2.1434   -1.2375    0.0000 C   0  0  1  0  0  0  0  0  0  0  0  0
    2.1434   -0.4125    0.0000 C   0  0  1  0  0  0  0  0  0  0  0  0
    2.8579   -0.0000    0.0000 C   0  0  2  0  0  0  0  0  0  0  0  0
    3.5724   -0.4125    0.0000 C   0  0  0  0  0  0  0  0  0  0  0  0
    3.5724   -1.2375    0.0000 C   0  0  2  0  0  0  0  0  0  0  0  0
    2.8579   -1.6500    0.0000 O   0  0  0  0  0  0  0  0  0  0  0  0
    4.2868   -1.6500    0.0000 C   0  0  0  0  0  0  0  0  0  0  0  0
    2.8579    0.8250    0.0000 N   0  0  0  0  0  0  0  0  0  0  0  0
    2.1434    1.2375    0.0000 C   0  0  0  0  0  0  0  0  0  0  0  0
    3.5724    1.2375    0.0000 C   0  0  0  0  0  0  0  0  0  0  0  0
    1.4289   -0.0000    0.0000 O   0  0  0  0  0  0  0  0  0  0  0  0
    0.9141   -2.0870    0.0000 C   0  0  0  0  0  0  0  0  0  0  0  0
    0.5149   -2.0870    0.0000 O   0  0  0  0  0  0  0  0  0  0  0  0
   -1.5390   -2.8587    0.0000 C   0  0  0  0  0  0  0  0  0  0  0  0
   -1.1517   -2.1879    0.0000 F   0  0  0  0  0  0  0  0  0  0  0  0
   -2.1434   -3.7125    0.0000 C   0  0  0  0  0  0  0  0  0  0  0  0
   -2.1434   -5.3625    0.0000 O   0  0  0  0  0  0  0  0  0  0  0  0
   -0.3272   -6.0909    0.0000 C   0  0  0  0  0  0  0  0  0  0  0  0
   -1.1018   -6.0909    0.0000 O   0  0  0  0  0  0  0  0  0  0  0  0
    0.7145   -7.2575    0.0000 H   0  0  0  0  0  0  0  0  0  0  0  0
    1.6411   -5.6525    0.0000 H   0  0  0  0  0  0  0  0  0  0  0  0
    1.6412   -6.7225    0.0000 H   0  0  0  0  0  0  0  0  0  0  0  0
   -0.9266   -6.3100    0.0000 H   0  0  0  0  0  0  0  0  0  0  0  0
   -0.9266   -5.2400    0.0000 H   0  0  0  0  0  0  0  0  0  0  0  0
   -0.5350   -5.8766    0.0000 H   0  0  0  0  0  0  0  0  0  0  0  0
   -1.4289   -6.0200    0.0000 H   0  0  0  0  0  0  0  0  0  0  0  0
   -2.3555   -4.6600    0.0000 H   0  0  0  0  0  0  0  0  0  0  0  0
    0.0000   -1.4050    0.0000 H   0  0  0  0  0  0  0  0  0  0  0  0
    0.9266   -1.9400    0.0000 H   0  0  0  0  0  0  0  0  0  0  0  0
    0.5022   -1.9400    0.0000 H   0  0  0  0  0  0  0  0  0  0  0  0
    2.1434   -1.8175    0.0000 H   0  0  0  0  0  0  0  0  0  0  0  0
    3.0700   -3.1775    0.0000 H   0  0  0  0  0  0  0  0  0  0  0  0
    1.4289   -3.0550    0.0000 H   0  0  0  0  0  0  0  0  0  0  0  0
    0.7145   -2.6425    0.0000 H   0  0  0  0  0  0  0  0  0  0  0  0
   -0.2122   -4.2475    0.0000 H   0  0  0  0  0  0  0  0  0  0  0  0
   -0.2121   -3.1775    0.0000 H   0  0  0  0  0  0  0  0  0  0  0  0
    2.6458   -3.1775    0.0000 H   0  0  0  0  0  0  0  0  0  0  0  0
    2.6457   -2.3525    0.0000 H   0  0  0  0  0  0  0  0  0  0  0  0
    3.5724   -1.8175    0.0000 H   0  0  0  0  0  0  0  0  0  0  0  0
    5.0013   -1.8175    0.0000 H   0  0  0  0  0  0  0  0  0  0  0  0
    5.9279   -3.1775    0.0000 H   0  0  0  0  0  0  0  0  0  0  0  0
    5.7158   -5.1950    0.0000 H   0  0  0  0  0  0  0  0  0  0  0  0
    6.6424   -3.5900    0.0000 H   0  0  0  0  0  0  0  0  0  0  0  0
    6.6425   -4.6600    0.0000 H   0  0  0  0  0  0  0  0  0  0  0  0
    6.5558   -2.9600    0.0000 H   0  0  0  0  0  0  0  0  0  0  0  0
    4.4665   -0.8392    0.0000 H   0  0  0  0  0  0  0  0  0  0  0  0
    2.8302   -1.7093    0.0000 H   0  0  0  0  0  0  0  0  0  0  0  0
    3.3972   -0.8018    0.0000 H   0  0  0  0  0  0  0  0  0  0  0  0
    6.0656   -2.6252    0.0000 H   0  0  0  0  0  0  0  0  0  0  0  0
    6.0009   -0.7730    0.0000 H   0  0  0  0  0  0  0  0  0  0  0  0
    6.5679   -1.6804    0.0000 H   0  0  0  0  0  0  0  0  0  0  0  0
    3.7845   -3.0100    0.0000 H   0  0  0  0  0  0  0  0  0  0  0  0
    2.8579   -1.4050    0.0000 H   0  0  0  0  0  0  0  0  0  0  0  0
    3.7846   -1.9400    0.0000 H   0  0  0  0  0  0  0  0  0  0  0  0
    1.2168   -0.7025    0.0000 H   0  0  0  0  0  0  0  0  0  0  0  0
    1.2168   -0.9475    0.0000 H   0  0  0  0  0  0  0  0  0  0  0  0
    1.9313    0.5350    0.0000 H   0  0  0  0  0  0  0  0  0  0  0  0
    4.4990    0.1225    0.0000 H   0  0  0  0  0  0  0  0  0  0  0  0
    4.4990   -0.9475    0.0000 H   0  0  0  0  0  0  0  0  0  0  0  0
    4.4991   -0.7025    0.0000 H   0  0  0  0  0  0  0  0  0  0  0  0
    4.2868   -2.7200    0.0000 H   0  0  0  0  0  0  0  0  0  0  0  0
    5.2135   -1.1150    0.0000 H   0  0  0  0  0  0  0  0  0  0  0  0
    5.2134   -2.1850    0.0000 H   0  0  0  0  0  0  0  0  0  0  0  0
    2.1434    2.3075    0.0000 H   0  0  0  0  0  0  0  0  0  0  0  0
    1.2168    0.7025    0.0000 H   0  0  0  0  0  0  0  0  0  0  0  0
    1.2167    1.7725    0.0000 H   0  0  0  0  0  0  0  0  0  0  0  0
    4.4990    0.7025    0.0000 H   0  0  0  0  0  0  0  0  0  0  0  0
    3.5724    2.3075    0.0000 H   0  0  0  0  0  0  0  0  0  0  0  0
    4.4991    1.7725    0.0000 H   0  0  0  0  0  0  0  0  0  0  0  0
    1.4289    0.9700    0.0000 H   0  0  0  0  0  0  0  0  0  0  0  0
    1.9427   -1.7921    0.0000 H   0  0  0  0  0  0  0  0  0  0  0  0
    0.1444   -1.3437    0.0000 H   0  0  0  0  0  0  0  0  0  0  0  0
    1.1730   -1.0488    0.0000 H   0  0  0  0  0  0  0  0  0  0  0  0
    1.2126   -1.4132    0.0000 H   0  0  0  0  0  0  0  0  0  0  0  0
   -2.0413   -1.9139    0.0000 H   0  0  0  0  0  0  0  0  0  0  0  0
   -2.1060   -3.7661    0.0000 H   0  0  0  0  0  0  0  0  0  0  0  0
   -2.6083   -2.8213    0.0000 H   0  0  0  0  0  0  0  0  0  0  0  0
   -2.1434   -2.6425    0.0000 H   0  0  0  0  0  0  0  0  0  0  0  0
   -3.0700   -4.2475    0.0000 H   0  0  0  0  0  0  0  0  0  0  0  0
   -3.0701   -3.1775    0.0000 H   0  0  0  0  0  0  0  0  0  0  0  0
   -2.9834   -4.8775    0.0000 H   0  0  0  0  0  0  0  0  0  0  0  0
   -0.8942   -6.9983    0.0000 H   0  0  0  0  0  0  0  0  0  0  0  0
    0.7421   -6.1282    0.0000 H   0  0  0  0  0  0  0  0  0  0  0  0
    0.1751   -7.0357    0.0000 H   0  0  0  0  0  0  0  0  0  0  0  0
   -2.0712   -6.1247    0.0000 H   0  0  0  0  0  0  0  0  0  0  0  0
  1  2  1  0  0  0  0
  1 53  1  0  0  0  0
  1 54  1  0  0  0  0
  1 55  1  0  0  0  0
  2 56  1  0  0  0  0
  2 57  1  0  0  0  0
  3  2  1  0  0  0  0
  3  4  1  0  0  0  0
  3 18  1  0  0  0  0
  3 58  1  1  0  0  0
  4  5  1  0  0  0  0
  4 51  1  0  0  0  0
  4 52  1  1  0  0  0
  5  6  1  0  0  0  0
  5 50  1  0  0  0  0
  5 59  1  1  0  0  0
  6  7  1  0  0  0  0
  6 49  1  0  0  0  0
  6 60  1  6  0  0  0
  7  8  2  0  0  0  0
  7  9  1  0  0  0  0
  9 10  1  0  0  0  0
  9 47  1  0  0  0  0
  9 48  1  1  0  0  0
 10 11  1  0  0  0  0
 10 61  1  0  0  0  0
 10 62  1  0  0  0  0
 11 12  1  0  0  0  0
 11 45  1  0  0  0  0
 11 46  1  1  0  0  0
 12 13  1  0  0  0  0
 12 33  1  0  0  0  0
 12 63  1  1  0  0  0
 13 14  1  0  0  0  0
 13 32  1  0  0  0  0
 13 64  1  6  0  0  0
 14 15  1  0  0  0  0
 14 20  1  0  0  0  0
 14 65  1  1  0  0  0
 15 16  1  0  0  0  0
 15 19  1  0  0  0  0
 15 66  1  1  0  0  0
 16 17  2  0  0  0  0
 16 18  1  0  0  0  0
 19 67  1  0  0  0  0
 19 68  1  0  0  0  0
 19 69  1  0  0  0  0
 21 20  1  0  0  0  0
 21 22  1  0  0  0  0
 21 26  1  0  0  0  0
 21 70  1  6  0  0  0
 22 23  1  0  0  0  0
 22 71  1  0  0  0  0
 22 72  1  0  0  0  0
 23 24  1  0  0  0  0
 23 29  1  0  0  0  0
 23 30  1  1  0  0  0
 24 25  1  0  0  0  0
 24 28  1  0  0  0  0
 24 73  1  6  0  0  0
 25 26  1  0  0  0  0
 25 27  1  0  0  0  0
 25 74  1  1  0  0  0
 27 75  1  0  0  0  0
 27 76  1  0  0  0  0
 27 77  1  0  0  0  0
 28 78  1  0  0  0  0
 29 79  1  0  0  0  0
 29 80  1  0  0  0  0
 29 81  1  0  0  0  0
 30 31  1  0  0  0  0
 31 82  1  0  0  0  0
 31 83  1  0  0  0  0
 31 84  1  0  0  0  0
 32 85  1  0  0  0  0
 32 86  1  0  0  0  0
 32 87  1  0  0  0  0
 34 33  1  0  0  0  0
 34 35  1  0  0  0  0
 34 39  1  0  0  0  0
 34 88  1  6  0  0  0
 35 36  1  0  0  0  0
 35 44  1  0  0  0  0
 35 89  1  1  0  0  0
 36 37  1  0  0  0  0
 36 41  1  0  0  0  0
 36 90  1  6  0  0  0
 37 38  1  0  0  0  0
 37 91  1  0  0  0  0
 37 92  1  0  0  0  0
 38 39  1  0  0  0  0
 38 40  1  0  0  0  0
 38 93  1  6  0  0  0
 40 94  1  0  0  0  0
 40 95  1  0  0  0  0
 40 96  1  0  0  0  0
 41 42  1  0  0  0  0
 41 43  1  0  0  0  0
 42 97  1  0  0  0  0
 42 98  1  0  0  0  0
 42 99  1  0  0  0  0
 43100  1  0  0  0  0
 43101  1  0  0  0  0
 43102  1  0  0  0  0
 44103  1  0  0  0  0
 45104  1  0  0  0  0
 45105  1  0  0  0  0
 45106  1  0  0  0  0
 46107  1  0  0  0  0
 47108  1  0  0  0  0
 47109  1  0  0  0  0
 47110  1  0  0  0  0
 49111  1  0  0  0  0
 49112  1  0  0  0  0
 49113  1  0  0  0  0
 50114  1  0  0  0  0
 51115  1  0  0  0  0
 51116  1  0  0  0  0
 51117  1  0  0  0  0
 52118  1  0  0  0  0
M  END
>  <DRUGBANK_ID>
DB13338

>  <COMMON_NAME>
Flurithromycin

>  <CAS_NUMBER>
82664-20-8

>  <UNII>
56C9DTE69V

>  <SYNONYMS>
Flurithromycin; fluritromicina

$$$$
