PPX
 OpenBabel10282417072D

 55 57  0  0  0  0  0  0  0  0999 V2000
   -1.9286   -1.0365    0.0000 N   0  0  0  0  0  0  0  0  0  0  0  0
   -1.1440   -0.7816    0.0000 C   0  0  2  0  0  0  0  0  0  0  0  0
   -0.5309   -1.3336    0.0000 C   0  0  0  0  0  0  0  0  0  0  0  0
   -0.7025   -2.1406    0.0000 C   0  0  0  0  0  0  0  0  0  0  0  0
   -0.0894   -2.6926    0.0000 C   0  0  0  0  0  0  0  0  0  0  0  0
   -1.4871   -2.3955    0.0000 C   0  0  0  0  0  0  0  0  0  0  0  0
   -0.2609   -3.4996    0.0000 C   0  0  0  0  0  0  0  0  0  0  0  0
   -1.6586   -3.2025    0.0000 C   0  0  0  0  0  0  0  0  0  0  0  0
   -1.0455   -3.7545    0.0000 C   0  0  0  0  0  0  0  0  0  0  0  0
   -0.9725    0.0254    0.0000 C   0  0  0  0  0  0  0  0  0  0  0  0
   -0.1879    0.2803    0.0000 O   0  0  0  0  0  0  0  0  0  0  0  0
   -1.5856    0.5774    0.0000 N   0  0  0  0  0  0  0  0  0  0  0  0
   -2.3926    0.4059    0.0000 C   0  0  0  0  0  0  0  0  0  0  0  0
   -1.4994    1.3979    0.0000 C   0  0  1  0  0  0  0  0  0  0  0  0
   -2.2530    1.7335    0.0000 C   0  0  0  0  0  0  0  0  0  0  0  0
   -2.8051    1.1204    0.0000 C   0  0  0  0  0  0  0  0  0  0  0  0
   -0.7849    1.8104    0.0000 C   0  0  0  0  0  0  0  0  0  0  0  0
   -0.7849    2.6354    0.0000 O   0  0  0  0  0  0  0  0  0  0  0  0
   -0.0704    1.3979    0.0000 N   0  0  0  0  0  0  0  0  0  0  0  0
    0.6441    1.8104    0.0000 C   0  0  0  0  0  0  0  0  0  0  0  0
    1.3585    1.3979    0.0000 C   0  0  0  0  0  0  0  0  0  0  0  0
    2.0730    1.8104    0.0000 N   0  0  0  0  0  0  0  0  0  0  0  0
    2.7875    1.3979    0.0000 C   0  0  0  0  0  0  0  0  0  0  0  0
    3.5019    1.8104    0.0000 C   0  0  0  0  0  0  0  0  0  0  0  0
    4.2164    1.3979    0.0000 C   0  0  0  0  0  0  0  0  0  0  0  0
    4.2164    0.5729    0.0000 N   0  0  0  0  0  0  0  0  0  0  0  0
    3.5019    0.1604    0.0000 C   0  0  0  0  0  0  0  0  0  0  0  0
    2.7875    0.5729    0.0000 C   0  0  0  0  0  0  0  0  0  0  0  0
   -1.2654   -1.3527    0.0000 H   0  0  0  0  0  0  0  0  0  0  0  0
   -1.0096    1.0799    0.0000 H   0  0  0  0  0  0  0  0  0  0  0  0
   -2.6866   -0.3540    0.0000 H   0  0  0  0  0  0  0  0  0  0  0  0
   -2.1407   -2.0342    0.0000 H   0  0  0  0  0  0  0  0  0  0  0  0
    0.4867   -1.0030    0.0000 H   0  0  0  0  0  0  0  0  0  0  0  0
    0.2642   -2.0496    0.0000 H   0  0  0  0  0  0  0  0  0  0  0  0
    0.8921   -2.3737    0.0000 H   0  0  0  0  0  0  0  0  0  0  0  0
   -2.2540   -1.7050    0.0000 H   0  0  0  0  0  0  0  0  0  0  0  0
    0.5060   -4.1901    0.0000 H   0  0  0  0  0  0  0  0  0  0  0  0
   -2.6401   -3.5214    0.0000 H   0  0  0  0  0  0  0  0  0  0  0  0
   -1.2601   -4.7639    0.0000 H   0  0  0  0  0  0  0  0  0  0  0  0
   -2.8278   -0.5716    0.0000 H   0  0  0  0  0  0  0  0  0  0  0  0
   -3.4611    0.3499    0.0000 H   0  0  0  0  0  0  0  0  0  0  0  0
   -2.4754    2.7801    0.0000 H   0  0  0  0  0  0  0  0  0  0  0  0
   -3.2865    2.0105    0.0000 H   0  0  0  0  0  0  0  0  0  0  0  0
   -3.8692    1.2323    0.0000 H   0  0  0  0  0  0  0  0  0  0  0  0
   -3.1885    2.1193    0.0000 H   0  0  0  0  0  0  0  0  0  0  0  0
   -0.0704    0.4134    0.0000 H   0  0  0  0  0  0  0  0  0  0  0  0
    0.6441    2.8804    0.0000 H   0  0  0  0  0  0  0  0  0  0  0  0
    1.5708    2.3454    0.0000 H   0  0  0  0  0  0  0  0  0  0  0  0
    1.3585    0.3279    0.0000 H   0  0  0  0  0  0  0  0  0  0  0  0
    2.2851    0.8629    0.0000 H   0  0  0  0  0  0  0  0  0  0  0  0
    2.0730    2.7949    0.0000 H   0  0  0  0  0  0  0  0  0  0  0  0
    3.5019    2.8424    0.0000 H   0  0  0  0  0  0  0  0  0  0  0  0
    5.1101    1.9139    0.0000 H   0  0  0  0  0  0  0  0  0  0  0  0
    3.5019   -0.8716    0.0000 H   0  0  0  0  0  0  0  0  0  0  0  0
    1.8938    0.0569    0.0000 H   0  0  0  0  0  0  0  0  0  0  0  0
  1 31  1  0  0  0  0
  1 32  1  0  0  0  0
  2  1  1  0  0  0  0
  2  3  1  0  0  0  0
  2 10  1  0  0  0  0
  2 29  1  6  0  0  0
  3  4  1  0  0  0  0
  3 33  1  0  0  0  0
  3 34  1  0  0  0  0
  4  5  2  0  0  0  0
  4  6  1  0  0  0  0
  5  7  1  0  0  0  0
  5 35  1  0  0  0  0
  6  8  2  0  0  0  0
  6 36  1  0  0  0  0
  7  9  2  0  0  0  0
  7 37  1  0  0  0  0
  8  9  1  0  0  0  0
  8 38  1  0  0  0  0
  9 39  1  0  0  0  0
 10 11  2  0  0  0  0
 10 12  1  0  0  0  0
 12 13  1  0  0  0  0
 12 14  1  0  0  0  0
 13 16  1  0  0  0  0
 13 40  1  0  0  0  0
 13 41  1  0  0  0  0
 14 15  1  0  0  0  0
 14 17  1  0  0  0  0
 14 30  1  6  0  0  0
 15 16  1  0  0  0  0
 15 42  1  0  0  0  0
 15 43  1  0  0  0  0
 16 44  1  0  0  0  0
 16 45  1  0  0  0  0
 17 18  2  0  0  0  0
 17 19  1  0  0  0  0
 19 20  1  0  0  0  0
 19 46  1  0  0  0  0
 20 21  1  0  0  0  0
 20 47  1  0  0  0  0
 20 48  1  0  0  0  0
 21 22  1  0  0  0  0
 21 49  1  0  0  0  0
 21 50  1  0  0  0  0
 22 23  1  0  0  0  0
 22 51  1  0  0  0  0
 23 24  2  0  0  0  0
 23 28  1  0  0  0  0
 24 25  1  0  0  0  0
 24 52  1  0  0  0  0
 25 26  2  0  0  0  0
 25 53  1  0  0  0  0
 26 27  1  0  0  0  0
 27 28  2  0  0  0  0
 27 54  1  0  0  0  0
 28 55  1  0  0  0  0
M  END
>  <DRUGBANK_ID>
DB08422

>  <COMMON_NAME>
[PHENYLALANINYL-PROLINYL]-[2-(PYRIDIN-4-YLAMINO)-ETHYL]-AMINE

$$$$
