
 OpenBabel10282417072D

 42 44  0  0  0  0  0  0  0  0999 V2000
    1.4109    0.6247    0.0000 C   0  0  0  0  0  0  0  0  0  0  0  0
    1.4097   -0.2049    0.0000 C   0  0  0  0  0  0  0  0  0  0  0  0
    2.1266   -0.6190    0.0000 C   0  0  0  0  0  0  0  0  0  0  0  0
    2.8451   -0.2044    0.0000 C   0  0  0  0  0  0  0  0  0  0  0  0
    2.8422    0.6284    0.0000 C   0  0  0  0  0  0  0  0  0  0  0  0
    2.1248    1.0386    0.0000 O   0  0  0  0  0  0  0  0  0  0  0  0
   -1.4290    0.6289    0.0000 C   0  0  2  0  0  0  0  0  0  0  0  0
   -2.1393    1.0467    0.0000 C   0  0  1  0  0  0  0  0  0  0  0  0
   -2.8497    0.6289    0.0000 C   0  0  2  0  0  0  0  0  0  0  0  0
   -1.4290   -0.2067    0.0000 O   0  0  0  0  0  0  0  0  0  0  0  0
    0.7020   -0.6246    0.0000 C   0  0  0  0  0  0  0  0  0  0  0  0
   -2.8497   -0.2067    0.0000 C   0  0  1  0  0  0  0  0  0  0  0  0
   -2.1393   -0.6246    0.0000 C   0  0  1  0  0  0  0  0  0  0  0  0
   -0.7187    1.0467    0.0000 O   0  0  0  0  0  0  0  0  0  0  0  0
   -0.0083   -0.2067    0.0000 C   0  0  0  0  0  0  0  0  0  0  0  0
   -0.0083    0.6289    0.0000 C   0  0  0  0  0  0  0  0  0  0  0  0
   -2.1393    1.8781    0.0000 O   0  0  0  0  0  0  0  0  0  0  0  0
   -3.5559    1.0467    0.0000 O   0  0  0  0  0  0  0  0  0  0  0  0
   -3.5559   -0.6246    0.0000 O   0  0  0  0  0  0  0  0  0  0  0  0
    0.7020    1.0467    0.0000 C   0  0  0  0  0  0  0  0  0  0  0  0
   -2.1393   -1.4603    0.0000 C   0  0  0  0  0  0  0  0  0  0  0  0
   -1.4290   -1.8781    0.0000 O   0  0  0  0  0  0  0  0  0  0  0  0
    3.5559    1.0467    0.0000 O   0  0  0  0  0  0  0  0  0  0  0  0
    2.1186   -1.4437    0.0000 C   0  0  0  0  0  0  0  0  0  0  0  0
    3.7397   -0.7189    0.0000 H   0  0  0  0  0  0  0  0  0  0  0  0
   -1.4290    1.6989    0.0000 H   0  0  0  0  0  0  0  0  0  0  0  0
   -1.2105    1.5779    0.0000 H   0  0  0  0  0  0  0  0  0  0  0  0
   -2.8483    1.6989    0.0000 H   0  0  0  0  0  0  0  0  0  0  0  0
    0.7038   -1.6566    0.0000 H   0  0  0  0  0  0  0  0  0  0  0  0
   -2.8483   -1.2767    0.0000 H   0  0  0  0  0  0  0  0  0  0  0  0
   -3.0681   -1.1558    0.0000 H   0  0  0  0  0  0  0  0  0  0  0  0
   -0.9041   -0.7190    0.0000 H   0  0  0  0  0  0  0  0  0  0  0  0
   -1.2993    2.3631    0.0000 H   0  0  0  0  0  0  0  0  0  0  0  0
   -3.5456    2.0166    0.0000 H   0  0  0  0  0  0  0  0  0  0  0  0
   -4.4011   -0.1486    0.0000 H   0  0  0  0  0  0  0  0  0  0  0  0
    0.7047    2.0787    0.0000 H   0  0  0  0  0  0  0  0  0  0  0  0
   -3.0681   -1.9915    0.0000 H   0  0  0  0  0  0  0  0  0  0  0  0
   -2.1458   -2.5303    0.0000 H   0  0  0  0  0  0  0  0  0  0  0  0
   -1.4369   -2.8481    0.0000 H   0  0  0  0  0  0  0  0  0  0  0  0
    1.1868   -1.9697    0.0000 H   0  0  0  0  0  0  0  0  0  0  0  0
    3.0400   -1.9877    0.0000 H   0  0  0  0  0  0  0  0  0  0  0  0
    2.1082   -2.5136    0.0000 H   0  0  0  0  0  0  0  0  0  0  0  0
  1  2  2  0  0  0  0
  1 20  1  0  0  0  0
  2  3  1  0  0  0  0
  3  4  2  0  0  0  0
  3 24  1  0  0  0  0
  4  5  1  0  0  0  0
  4 25  1  0  0  0  0
  5  6  1  0  0  0  0
  5 23  2  0  0  0  0
  6  1  1  0  0  0  0
  7 14  1  0  0  0  0
  7 26  1  6  0  0  0
  8  7  1  0  0  0  0
  8 17  1  0  0  0  0
  8 27  1  6  0  0  0
  9  8  1  0  0  0  0
  9 18  1  0  0  0  0
  9 12  1  0  0  0  0
  9 28  1  1  0  0  0
 10  7  1  0  0  0  0
 11 15  2  0  0  0  0
 11  2  1  0  0  0  0
 11 29  1  0  0  0  0
 12 13  1  0  0  0  0
 12 19  1  0  0  0  0
 12 30  1  6  0  0  0
 13 10  1  0  0  0  0
 13 21  1  0  0  0  0
 13 31  1  1  0  0  0
 15 16  1  0  0  0  0
 15 32  1  0  0  0  0
 16 14  1  0  0  0  0
 17 33  1  0  0  0  0
 18 34  1  0  0  0  0
 19 35  1  0  0  0  0
 20 16  2  0  0  0  0
 20 36  1  0  0  0  0
 21 37  1  0  0  0  0
 21 38  1  0  0  0  0
 22 21  1  0  0  0  0
 22 39  1  0  0  0  0
 24 40  1  0  0  0  0
 24 41  1  0  0  0  0
 24 42  1  0  0  0  0
M  END
>  <DRUGBANK_ID>
DB02639

>  <SECONDARY_ACCESSION_NUMBERS>
EXPT02256

>  <COMMON_NAME>
7-(alpha-D-Glucopyranosyloxy)-4-methyl-2H-1-benzopyran-2-one

>  <CAS_NUMBER>
17833-43-1

>  <SYNONYMS>
4-Methylumbelliferyl a-D-glucopyranoside; 4-Methylumbelliferyl α-D-glucoside; 7-(alpha-D-Glucopyranosyloxy)-4-methyl-2H-1-benzopyran-2-one; 7-(α-D-glucopyranosyloxy)-4-methyl-2H-1-benzopyran-2-one

$$$$
