31U
 OpenBabel10282417072D

 55 56  0  0  0  0  0  0  0  0999 V2000
    0.3300   -0.8531    0.0000 N   0  0  0  0  0  0  0  0  0  0  0  0
   -0.4236   -0.5175    0.0000 C   0  0  2  0  0  0  0  0  0  0  0  0
   -0.5952    0.2895    0.0000 C   0  0  0  0  0  0  0  0  0  0  0  0
    0.0179    0.8415    0.0000 O   0  0  0  0  0  0  0  0  0  0  0  0
   -1.3798    0.5444    0.0000 N   0  0  0  0  0  0  0  0  0  0  0  0
   -1.5513    1.3514    0.0000 C   0  0  0  0  0  0  0  0  0  0  0  0
   -2.3359    1.6063    0.0000 C   0  0  0  0  0  0  0  0  0  0  0  0
   -2.9490    1.0543    0.0000 C   0  0  0  0  0  0  0  0  0  0  0  0
   -3.7337    1.3092    0.0000 C   0  0  0  0  0  0  0  0  0  0  0  0
   -3.9052    2.1162    0.0000 C   0  0  0  0  0  0  0  0  0  0  0  0
   -4.6898    2.3711    0.0000 C   0  0  0  0  0  0  0  0  0  0  0  0
   -4.8613    3.1781    0.0000 N   0  0  0  0  0  0  0  0  0  0  0  0
   -5.3029    1.8191    0.0000 N   0  0  0  0  0  0  0  0  0  0  0  0
   -3.2921    2.6682    0.0000 C   0  0  0  0  0  0  0  0  0  0  0  0
   -2.5075    2.4133    0.0000 C   0  0  0  0  0  0  0  0  0  0  0  0
   -0.9757   -1.1306    0.0000 C   0  0  0  0  0  0  0  0  0  0  0  0
   -0.5632   -1.8451    0.0000 C   0  0  0  0  0  0  0  0  0  0  0  0
    0.2438   -1.6735    0.0000 C   0  0  0  0  0  0  0  0  0  0  0  0
    1.0445   -0.4406    0.0000 C   0  0  0  0  0  0  0  0  0  0  0  0
    1.7590   -0.8531    0.0000 C   0  0  2  0  0  0  0  0  0  0  0  0
    1.7590   -1.6781    0.0000 N   0  0  0  0  0  0  0  0  0  0  0  0
    2.4734   -0.4406    0.0000 C   0  0  0  0  0  0  0  0  0  0  0  0
    3.1879   -0.8531    0.0000 C   0  0  0  0  0  0  0  0  0  0  0  0
    3.9024   -0.4406    0.0000 C   0  0  0  0  0  0  0  0  0  0  0  0
    3.1879   -1.6781    0.0000 C   0  0  0  0  0  0  0  0  0  0  0  0
    1.0445    0.3844    0.0000 O   0  0  0  0  0  0  0  0  0  0  0  0
    0.0302   -0.1500    0.0000 H   0  0  0  0  0  0  0  0  0  0  0  0
    1.2533   -1.1450    0.0000 H   0  0  0  0  0  0  0  0  0  0  0  0
   -2.1114   -0.1144    0.0000 H   0  0  0  0  0  0  0  0  0  0  0  0
   -0.7561    2.0674    0.0000 H   0  0  0  0  0  0  0  0  0  0  0  0
   -1.7738    2.3980    0.0000 H   0  0  0  0  0  0  0  0  0  0  0  0
   -2.7344    0.0449    0.0000 H   0  0  0  0  0  0  0  0  0  0  0  0
   -4.5006    0.6186    0.0000 H   0  0  0  0  0  0  0  0  0  0  0  0
   -4.1296    3.8368    0.0000 H   0  0  0  0  0  0  0  0  0  0  0  0
   -6.2392    2.1234    0.0000 H   0  0  0  0  0  0  0  0  0  0  0  0
   -5.0982    0.8561    0.0000 H   0  0  0  0  0  0  0  0  0  0  0  0
   -3.5067    3.6776    0.0000 H   0  0  0  0  0  0  0  0  0  0  0  0
   -1.7406    3.1039    0.0000 H   0  0  0  0  0  0  0  0  0  0  0  0
   -2.0398   -1.0187    0.0000 H   0  0  0  0  0  0  0  0  0  0  0  0
   -1.5585   -2.0280    0.0000 H   0  0  0  0  0  0  0  0  0  0  0  0
   -0.9984   -2.8226    0.0000 H   0  0  0  0  0  0  0  0  0  0  0  0
    0.1102   -2.6766    0.0000 H   0  0  0  0  0  0  0  0  0  0  0  0
    1.0390   -2.3894    0.0000 H   0  0  0  0  0  0  0  0  0  0  0  0
    1.2427   -1.2900    0.0000 H   0  0  0  0  0  0  0  0  0  0  0  0
    0.8757   -2.1881    0.0000 H   0  0  0  0  0  0  0  0  0  0  0  0
    2.6423   -2.1881    0.0000 H   0  0  0  0  0  0  0  0  0  0  0  0
    2.4734    0.6294    0.0000 H   0  0  0  0  0  0  0  0  0  0  0  0
    3.4000    0.0944    0.0000 H   0  0  0  0  0  0  0  0  0  0  0  0
    4.1145   -1.3881    0.0000 H   0  0  0  0  0  0  0  0  0  0  0  0
    4.8290   -0.9756    0.0000 H   0  0  0  0  0  0  0  0  0  0  0  0
    3.9024    0.6294    0.0000 H   0  0  0  0  0  0  0  0  0  0  0  0
    4.8291    0.0944    0.0000 H   0  0  0  0  0  0  0  0  0  0  0  0
    2.2613   -2.2131    0.0000 H   0  0  0  0  0  0  0  0  0  0  0  0
    4.1145   -2.2131    0.0000 H   0  0  0  0  0  0  0  0  0  0  0  0
    3.1879   -2.7481    0.0000 H   0  0  0  0  0  0  0  0  0  0  0  0
  1 19  1  0  0  0  0
  2  1  1  0  0  0  0
  2 27  1  6  0  0  0
  2  3  1  0  0  0  0
  3  5  1  0  0  0  0
  4  3  2  0  0  0  0
  5 29  1  0  0  0  0
  6  5  1  0  0  0  0
  6  7  1  0  0  0  0
  6 30  1  0  0  0  0
  6 31  1  0  0  0  0
  7  8  2  0  0  0  0
  7 15  1  0  0  0  0
  8  9  1  0  0  0  0
  8 32  1  0  0  0  0
  9 10  2  0  0  0  0
  9 33  1  0  0  0  0
 10 11  1  0  0  0  0
 11 12  2  0  0  0  0
 11 13  1  0  0  0  0
 12 34  1  0  0  0  0
 13 35  1  0  0  0  0
 13 36  1  0  0  0  0
 14 10  1  0  0  0  0
 14 37  1  0  0  0  0
 15 14  2  0  0  0  0
 15 38  1  0  0  0  0
 16  2  1  0  0  0  0
 16 17  1  0  0  0  0
 16 39  1  0  0  0  0
 16 40  1  0  0  0  0
 17 18  1  0  0  0  0
 17 41  1  0  0  0  0
 17 42  1  0  0  0  0
 18  1  1  0  0  0  0
 18 43  1  0  0  0  0
 18 44  1  0  0  0  0
 19 26  2  0  0  0  0
 19 20  1  0  0  0  0
 20 21  1  0  0  0  0
 20 22  1  0  0  0  0
 20 28  1  6  0  0  0
 21 45  1  0  0  0  0
 21 46  1  0  0  0  0
 22 23  1  0  0  0  0
 22 47  1  0  0  0  0
 22 48  1  0  0  0  0
 23 24  1  0  0  0  0
 23 49  1  0  0  0  0
 24 50  1  0  0  0  0
 24 51  1  0  0  0  0
 24 52  1  0  0  0  0
 25 23  1  0  0  0  0
 25 53  1  0  0  0  0
 25 54  1  0  0  0  0
 25 55  1  0  0  0  0
M  END
>  <DRUGBANK_ID>
DB06996

>  <COMMON_NAME>
D-leucyl-N-(4-carbamimidoylbenzyl)-L-prolinamide

$$$$
