P19
 OpenBabel10282417072D

 37 40  0  0  0  0  0  0  0  0999 V2000
   -1.3527   -0.5443    0.0000 N   0  0  0  0  0  0  0  0  0  0  0  0
   -1.8376    0.1231    0.0000 C   0  0  0  0  0  0  0  0  0  0  0  0
   -1.3527    0.7905    0.0000 C   0  0  0  0  0  0  0  0  0  0  0  0
   -0.5681    0.5356    0.0000 C   0  0  0  0  0  0  0  0  0  0  0  0
   -0.5681   -0.2894    0.0000 N   0  0  0  0  0  0  0  0  0  0  0  0
    0.1464    0.9481    0.0000 N   0  0  0  0  0  0  0  0  0  0  0  0
    0.8609    0.5356    0.0000 C   0  0  0  0  0  0  0  0  0  0  0  0
    0.8609   -0.2894    0.0000 N   0  0  0  0  0  0  0  0  0  0  0  0
    0.1464   -0.7019    0.0000 C   0  0  0  0  0  0  0  0  0  0  0  0
    0.1464   -1.5269    0.0000 N   0  0  0  0  0  0  0  0  0  0  0  0
   -0.5681   -1.9394    0.0000 C   0  0  0  0  0  0  0  0  0  0  0  0
   -0.5681   -2.7644    0.0000 C   0  0  0  0  0  0  0  0  0  0  0  0
   -1.2825   -3.1769    0.0000 C   0  0  0  0  0  0  0  0  0  0  0  0
   -1.9970   -2.7644    0.0000 C   0  0  0  0  0  0  0  0  0  0  0  0
   -1.9970   -1.9394    0.0000 C   0  0  0  0  0  0  0  0  0  0  0  0
   -1.2825   -1.5269    0.0000 C   0  0  0  0  0  0  0  0  0  0  0  0
    1.5754    0.9481    0.0000 N   0  0  0  0  0  0  0  0  0  0  0  0
    1.5754    1.7731    0.0000 C   0  0  0  0  0  0  0  0  0  0  0  0
    2.2898    2.1856    0.0000 C   0  0  0  0  0  0  0  0  0  0  0  0
    2.2898    3.0106    0.0000 C   0  0  0  0  0  0  0  0  0  0  0  0
    1.5754    3.4231    0.0000 C   0  0  0  0  0  0  0  0  0  0  0  0
    0.8609    3.0106    0.0000 C   0  0  0  0  0  0  0  0  0  0  0  0
    0.8609    2.1856    0.0000 C   0  0  0  0  0  0  0  0  0  0  0  0
   -2.8696    0.1231    0.0000 H   0  0  0  0  0  0  0  0  0  0  0  0
   -1.6716    1.7720    0.0000 H   0  0  0  0  0  0  0  0  0  0  0  0
    0.9990   -2.0192    0.0000 H   0  0  0  0  0  0  0  0  0  0  0  0
    0.3256   -3.2804    0.0000 H   0  0  0  0  0  0  0  0  0  0  0  0
   -1.2825   -4.2089    0.0000 H   0  0  0  0  0  0  0  0  0  0  0  0
   -2.8907   -3.2804    0.0000 H   0  0  0  0  0  0  0  0  0  0  0  0
   -2.8907   -1.4234    0.0000 H   0  0  0  0  0  0  0  0  0  0  0  0
   -1.2825   -0.4949    0.0000 H   0  0  0  0  0  0  0  0  0  0  0  0
    2.4280    0.4558    0.0000 H   0  0  0  0  0  0  0  0  0  0  0  0
    3.1835    1.6696    0.0000 H   0  0  0  0  0  0  0  0  0  0  0  0
    3.1835    3.5266    0.0000 H   0  0  0  0  0  0  0  0  0  0  0  0
    1.5754    4.4551    0.0000 H   0  0  0  0  0  0  0  0  0  0  0  0
   -0.0328    3.5266    0.0000 H   0  0  0  0  0  0  0  0  0  0  0  0
   -0.0328    1.6696    0.0000 H   0  0  0  0  0  0  0  0  0  0  0  0
  1  2  2  0  0  0  0
  1  5  1  0  0  0  0
  2  3  1  0  0  0  0
  2 24  1  0  0  0  0
  3  4  2  0  0  0  0
  3 25  1  0  0  0  0
  4  6  1  0  0  0  0
  4  5  1  0  0  0  0
  5  9  1  0  0  0  0
  6  7  2  0  0  0  0
  7 17  1  0  0  0  0
  7  8  1  0  0  0  0
  8  9  2  0  0  0  0
  9 10  1  0  0  0  0
 10 11  1  0  0  0  0
 10 26  1  0  0  0  0
 11 12  2  0  0  0  0
 11 16  1  0  0  0  0
 12 13  1  0  0  0  0
 12 27  1  0  0  0  0
 13 14  2  0  0  0  0
 13 28  1  0  0  0  0
 14 15  1  0  0  0  0
 14 29  1  0  0  0  0
 15 16  2  0  0  0  0
 15 30  1  0  0  0  0
 16 31  1  0  0  0  0
 17 18  1  0  0  0  0
 17 32  1  0  0  0  0
 18 23  2  0  0  0  0
 18 19  1  0  0  0  0
 19 20  2  0  0  0  0
 19 33  1  0  0  0  0
 20 21  1  0  0  0  0
 20 34  1  0  0  0  0
 21 22  2  0  0  0  0
 21 35  1  0  0  0  0
 22 23  1  0  0  0  0
 22 36  1  0  0  0  0
 23 37  1  0  0  0  0
M  END
>  <DRUGBANK_ID>
DB08340

>  <COMMON_NAME>
N,N'-DIPHENYLPYRAZOLO[1,5-A][1,3,5]TRIAZINE-2,4-DIAMINE

$$$$
