
 OpenBabel10282417072D

 62 65  0  0  0  0  0  0  0  0999 V2000
   -0.0000    9.9000    0.0000 C   0  0  0  0  0  0  0  0  0  0  0  0
   -2.8579    3.3000    0.0000 C   0  0  0  0  0  0  0  0  0  0  0  0
   -2.1434    3.7125    0.0000 C   0  0  0  0  0  0  0  0  0  0  0  0
   -3.5724    3.7125    0.0000 C   0  0  0  0  0  0  0  0  0  0  0  0
    0.7145   11.9625    0.0000 C   0  0  0  0  0  0  0  0  0  0  0  0
   -0.0000   12.3750    0.0000 C   0  0  0  0  0  0  0  0  0  0  0  0
   -4.2868    7.4250    0.0000 C   0  0  0  0  0  0  0  0  0  0  0  0
   -5.0013    7.0125    0.0000 C   0  0  0  0  0  0  0  0  0  0  0  0
    0.7145   11.1375    0.0000 C   0  0  0  0  0  0  0  0  0  0  0  0
   -2.1434    4.5375    0.0000 C   0  0  0  0  0  0  0  0  0  0  0  0
   -3.5724    4.5375    0.0000 C   0  0  0  0  0  0  0  0  0  0  0  0
   -0.7145   11.9625    0.0000 C   0  0  0  0  0  0  0  0  0  0  0  0
   -3.5724    7.0125    0.0000 C   0  0  0  0  0  0  0  0  0  0  0  0
   -5.0013    6.1875    0.0000 C   0  0  0  0  0  0  0  0  0  0  0  0
   -0.7145    8.6625    0.0000 C   0  0  0  0  0  0  0  0  0  0  0  0
   -2.1434    8.6625    0.0000 C   0  0  0  0  0  0  0  0  0  0  0  0
   -0.7145    9.4875    0.0000 C   0  0  0  0  0  0  0  0  0  0  0  0
   -2.1434    9.4875    0.0000 C   0  0  0  0  0  0  0  0  0  0  0  0
   -1.4289    7.4250    0.0000 C   0  0  0  0  0  0  0  0  0  0  0  0
   -2.1434    7.0125    0.0000 C   0  0  0  0  0  0  0  0  0  0  0  0
   -1.4289   10.7250    0.0000 C   0  0  0  0  0  0  0  0  0  0  0  0
   -0.0000   10.7250    0.0000 C   0  0  0  0  0  0  0  0  0  0  0  0
   -2.8579    4.9500    0.0000 C   0  0  0  0  0  0  0  0  0  0  0  0
   -0.7145   11.1375    0.0000 C   0  0  0  0  0  0  0  0  0  0  0  0
   -3.5724    6.1875    0.0000 C   0  0  0  0  0  0  0  0  0  0  0  0
   -4.2868    5.7750    0.0000 C   0  0  0  0  0  0  0  0  0  0  0  0
   -2.8579    5.7750    0.0000 C   0  0  3  0  0  0  0  0  0  0  0  0
   -4.2868    4.9500    0.0000 Cl  0  0  0  0  0  0  0  0  0  0  0  0
   -1.4289    8.2500    0.0000 N   0  0  0  0  0  0  0  0  0  0  0  0
   -1.4289    9.9000    0.0000 N   0  0  0  0  0  0  0  0  0  0  0  0
   -2.1434    6.1875    0.0000 O   0  0  0  0  0  0  0  0  0  0  0  0
   -0.9266    9.3650    0.0000 H   0  0  0  0  0  0  0  0  0  0  0  0
    0.9266    9.3650    0.0000 H   0  0  0  0  0  0  0  0  0  0  0  0
   -0.0000    8.8300    0.0000 H   0  0  0  0  0  0  0  0  0  0  0  0
   -2.8579    2.2680    0.0000 H   0  0  0  0  0  0  0  0  0  0  0  0
   -1.2497    3.1965    0.0000 H   0  0  0  0  0  0  0  0  0  0  0  0
   -4.4661    3.1965    0.0000 H   0  0  0  0  0  0  0  0  0  0  0  0
    1.6082   12.4785    0.0000 H   0  0  0  0  0  0  0  0  0  0  0  0
    0.0000   13.4070    0.0000 H   0  0  0  0  0  0  0  0  0  0  0  0
   -4.2868    8.4570    0.0000 H   0  0  0  0  0  0  0  0  0  0  0  0
   -5.8950    7.5285    0.0000 H   0  0  0  0  0  0  0  0  0  0  0  0
    1.6082   10.6215    0.0000 H   0  0  0  0  0  0  0  0  0  0  0  0
   -1.2497    5.0535    0.0000 H   0  0  0  0  0  0  0  0  0  0  0  0
   -4.4661    5.0535    0.0000 H   0  0  0  0  0  0  0  0  0  0  0  0
   -1.6082   12.4785    0.0000 H   0  0  0  0  0  0  0  0  0  0  0  0
   -2.6787    7.5285    0.0000 H   0  0  0  0  0  0  0  0  0  0  0  0
   -5.8950    5.6715    0.0000 H   0  0  0  0  0  0  0  0  0  0  0  0
    0.2122    8.1275    0.0000 H   0  0  0  0  0  0  0  0  0  0  0  0
   -0.7145    7.5925    0.0000 H   0  0  0  0  0  0  0  0  0  0  0  0
   -3.0700    8.1275    0.0000 H   0  0  0  0  0  0  0  0  0  0  0  0
   -2.1434    7.5925    0.0000 H   0  0  0  0  0  0  0  0  0  0  0  0
    0.2122   10.0225    0.0000 H   0  0  0  0  0  0  0  0  0  0  0  0
   -0.7145   10.5575    0.0000 H   0  0  0  0  0  0  0  0  0  0  0  0
   -3.0700   10.0225    0.0000 H   0  0  0  0  0  0  0  0  0  0  0  0
   -2.1434   10.5575    0.0000 H   0  0  0  0  0  0  0  0  0  0  0  0
   -0.5023    6.8900    0.0000 H   0  0  0  0  0  0  0  0  0  0  0  0
   -0.5023    7.9600    0.0000 H   0  0  0  0  0  0  0  0  0  0  0  0
   -3.0700    7.5475    0.0000 H   0  0  0  0  0  0  0  0  0  0  0  0
   -3.0700    6.4775    0.0000 H   0  0  0  0  0  0  0  0  0  0  0  0
   -2.3556   11.2600    0.0000 H   0  0  0  0  0  0  0  0  0  0  0  0
   -2.3555   10.1900    0.0000 H   0  0  0  0  0  0  0  0  0  0  0  0
   -3.7845    5.2400    0.0000 H   0  0  0  0  0  0  0  0  0  0  0  0
  1 32  1  0  0  0  0
  1 33  1  0  0  0  0
  1 34  1  0  0  0  0
  2 35  1  0  0  0  0
  3  2  2  0  0  0  0
  3 36  1  0  0  0  0
  4  2  1  0  0  0  0
  4 37  1  0  0  0  0
  5 38  1  0  0  0  0
  6  5  2  0  0  0  0
  6 39  1  0  0  0  0
  7 40  1  0  0  0  0
  8  7  2  0  0  0  0
  8 41  1  0  0  0  0
  9  5  1  0  0  0  0
  9 42  1  0  0  0  0
 10  3  1  0  0  0  0
 10 43  1  0  0  0  0
 11  4  2  0  0  0  0
 11 44  1  0  0  0  0
 12  6  1  0  0  0  0
 12 45  1  0  0  0  0
 13  7  1  0  0  0  0
 13 46  1  0  0  0  0
 14  8  1  0  0  0  0
 14 47  1  0  0  0  0
 15 48  1  0  0  0  0
 15 49  1  0  0  0  0
 16 50  1  0  0  0  0
 16 51  1  0  0  0  0
 17 15  1  0  0  0  0
 17 52  1  0  0  0  0
 17 53  1  0  0  0  0
 18 16  1  0  0  0  0
 18 54  1  0  0  0  0
 18 55  1  0  0  0  0
 19 56  1  0  0  0  0
 19 57  1  0  0  0  0
 20 19  1  0  0  0  0
 20 58  1  0  0  0  0
 20 59  1  0  0  0  0
 21 60  1  0  0  0  0
 21 61  1  0  0  0  0
 22  1  1  0  0  0  0
 22  9  2  0  0  0  0
 23 10  2  0  0  0  0
 23 11  1  0  0  0  0
 24 12  2  0  0  0  0
 24 21  1  0  0  0  0
 24 22  1  0  0  0  0
 25 13  2  0  0  0  0
 26 14  2  0  0  0  0
 26 25  1  0  0  0  0
 27 23  1  0  0  0  0
 27 25  1  0  0  0  0
 27 62  1  0  0  0  0
 28 26  1  0  0  0  0
 29 15  1  0  0  0  0
 29 16  1  0  0  0  0
 29 19  1  0  0  0  0
 30 17  1  0  0  0  0
 30 18  1  0  0  0  0
 30 21  1  0  0  0  0
 31 20  1  0  0  0  0
 31 27  1  0  0  0  0
M  END
>  <DRUGBANK_ID>
DB13788

>  <COMMON_NAME>
Chlorbenzoxamine

>  <CAS_NUMBER>
522-18-9

>  <UNII>
N52918SLYN

>  <SYNONYMS>
Chlorbenzoxamine

$$$$
