WRA
 OpenBabel10282417072D

 42 43  0  0  0  0  0  0  0  0999 V2000
   -1.7538   -0.5049    0.0000 C   0  0  0  0  0  0  0  0  0  0  0  0
   -2.4683   -0.9174    0.0000 N   0  0  0  0  0  0  0  0  0  0  0  0
   -3.1828   -0.5049    0.0000 C   0  0  0  0  0  0  0  0  0  0  0  0
   -3.1828    0.3201    0.0000 N   0  0  0  0  0  0  0  0  0  0  0  0
   -2.4683    0.7326    0.0000 C   0  0  0  0  0  0  0  0  0  0  0  0
   -1.7538    0.3201    0.0000 N   0  0  0  0  0  0  0  0  0  0  0  0
   -1.0394    0.7326    0.0000 O   0  0  0  0  0  0  0  0  0  0  0  0
   -0.3249    0.3201    0.0000 C   0  0  0  0  0  0  0  0  0  0  0  0
    0.3896    0.7326    0.0000 C   0  0  0  0  0  0  0  0  0  0  0  0
    1.1041    0.3201    0.0000 C   0  0  0  0  0  0  0  0  0  0  0  0
    1.8185    0.7326    0.0000 O   0  0  0  0  0  0  0  0  0  0  0  0
    2.5330    0.3201    0.0000 C   0  0  0  0  0  0  0  0  0  0  0  0
    3.2475    0.7326    0.0000 C   0  0  0  0  0  0  0  0  0  0  0  0
    3.9619    0.3201    0.0000 C   0  0  0  0  0  0  0  0  0  0  0  0
    3.9619   -0.5049    0.0000 C   0  0  0  0  0  0  0  0  0  0  0  0
    3.2475   -0.9174    0.0000 C   0  0  0  0  0  0  0  0  0  0  0  0
    2.5330   -0.5049    0.0000 C   0  0  0  0  0  0  0  0  0  0  0  0
   -1.3166   -1.2045    0.0000 C   0  0  0  0  0  0  0  0  0  0  0  0
   -0.9293   -0.5337    0.0000 C   0  0  0  0  0  0  0  0  0  0  0  0
   -3.8972   -0.9174    0.0000 N   0  0  0  0  0  0  0  0  0  0  0  0
   -2.4683    1.5576    0.0000 N   0  0  0  0  0  0  0  0  0  0  0  0
    3.2475    1.5576    0.0000 Cl  0  0  0  0  0  0  0  0  0  0  0  0
    4.6764   -0.9174    0.0000 Cl  0  0  0  0  0  0  0  0  0  0  0  0
    3.2475   -1.7424    0.0000 Cl  0  0  0  0  0  0  0  0  0  0  0  0
   -0.3249   -0.7499    0.0000 H   0  0  0  0  0  0  0  0  0  0  0  0
    0.6017   -0.2149    0.0000 H   0  0  0  0  0  0  0  0  0  0  0  0
    0.3896    1.8026    0.0000 H   0  0  0  0  0  0  0  0  0  0  0  0
    1.3162    1.2676    0.0000 H   0  0  0  0  0  0  0  0  0  0  0  0
    1.1041   -0.7499    0.0000 H   0  0  0  0  0  0  0  0  0  0  0  0
    2.0308   -0.2149    0.0000 H   0  0  0  0  0  0  0  0  0  0  0  0
    4.8556    0.8361    0.0000 H   0  0  0  0  0  0  0  0  0  0  0  0
    1.6393   -1.0209    0.0000 H   0  0  0  0  0  0  0  0  0  0  0  0
   -1.8189   -2.1493    0.0000 H   0  0  0  0  0  0  0  0  0  0  0  0
   -0.2473   -1.1671    0.0000 H   0  0  0  0  0  0  0  0  0  0  0  0
   -0.7495   -2.1119    0.0000 H   0  0  0  0  0  0  0  0  0  0  0  0
   -0.4270   -1.4785    0.0000 H   0  0  0  0  0  0  0  0  0  0  0  0
   -0.3623    0.3737    0.0000 H   0  0  0  0  0  0  0  0  0  0  0  0
    0.1400   -0.5711    0.0000 H   0  0  0  0  0  0  0  0  0  0  0  0
   -4.7498   -0.4252    0.0000 H   0  0  0  0  0  0  0  0  0  0  0  0
   -3.8972   -1.9019    0.0000 H   0  0  0  0  0  0  0  0  0  0  0  0
   -1.6157    2.0499    0.0000 H   0  0  0  0  0  0  0  0  0  0  0  0
   -3.3209    2.0499    0.0000 H   0  0  0  0  0  0  0  0  0  0  0  0
  1  2  1  0  0  0  0
  1  6  1  0  0  0  0
  1 18  1  0  0  0  0
  1 19  1  0  0  0  0
  2  3  2  0  0  0  0
  3  4  1  0  0  0  0
  3 20  1  0  0  0  0
  4  5  2  0  0  0  0
  5  6  1  0  0  0  0
  5 21  1  0  0  0  0
  6  7  1  0  0  0  0
  7  8  1  0  0  0  0
  8  9  1  0  0  0  0
  8 25  1  0  0  0  0
  8 26  1  0  0  0  0
  9 10  1  0  0  0  0
  9 27  1  0  0  0  0
  9 28  1  0  0  0  0
 10 11  1  0  0  0  0
 10 29  1  0  0  0  0
 10 30  1  0  0  0  0
 11 12  1  0  0  0  0
 12 13  1  0  0  0  0
 12 17  2  0  0  0  0
 13 14  2  0  0  0  0
 13 22  1  0  0  0  0
 14 15  1  0  0  0  0
 14 31  1  0  0  0  0
 15 16  2  0  0  0  0
 15 23  1  0  0  0  0
 16 17  1  0  0  0  0
 16 24  1  0  0  0  0
 17 32  1  0  0  0  0
 18 33  1  0  0  0  0
 18 34  1  0  0  0  0
 18 35  1  0  0  0  0
 19 36  1  0  0  0  0
 19 37  1  0  0  0  0
 19 38  1  0  0  0  0
 20 39  1  0  0  0  0
 20 40  1  0  0  0  0
 21 41  1  0  0  0  0
 21 42  1  0  0  0  0
M  END
>  <DRUGBANK_ID>
DB08734

>  <COMMON_NAME>
6,6-DIMETHYL-1-[3-(2,4,5-TRICHLOROPHENOXY)PROPOXY]-1,6-DIHYDRO-1,3,5-TRIAZINE-2,4-DIAMINE

$$$$
