
 OpenBabel10282417072D

172172  0  0  1  0  0  0  0  0999 V2000
    4.7178  -19.2706    0.0000 C   0  0  0  0  0  0  0  0  0  0  0  0
    4.8268  -20.0884    0.0000 C   0  0  1  0  0  0  0  0  0  0  0  0
    4.1730  -20.5916    0.0000 C   0  0  0  0  0  0  0  0  0  0  0  0
    4.2820  -21.4094    0.0000 O   0  0  0  0  0  0  0  0  0  0  0  0
    3.4103  -20.2771    0.0000 N   0  0  0  0  0  0  0  0  0  0  0  0
    2.7566  -20.7803    0.0000 C   0  0  1  0  0  0  0  0  0  0  0  0
    2.8656  -21.5981    0.0000 C   0  0  0  0  0  0  0  0  0  0  0  0
    2.2118  -22.1014    0.0000 C   0  0  0  0  0  0  0  0  0  0  0  0
    2.3208  -22.9191    0.0000 C   0  0  0  0  0  0  0  0  0  0  0  0
    1.4491  -21.7868    0.0000 C   0  0  0  0  0  0  0  0  0  0  0  0
    1.9939  -20.4658    0.0000 C   0  0  0  0  0  0  0  0  0  0  0  0
    1.8850  -19.6480    0.0000 O   0  0  0  0  0  0  0  0  0  0  0  0
    1.3402  -20.9691    0.0000 N   0  0  0  0  0  0  0  0  0  0  0  0
    0.5775  -20.6545    0.0000 C   0  0  1  0  0  0  0  0  0  0  0  0
    0.4685  -19.8368    0.0000 C   0  0  0  0  0  0  0  0  0  0  0  0
   -0.2942  -19.5222    0.0000 C   0  0  0  0  0  0  0  0  0  0  0  0
   -0.9479  -20.0255    0.0000 O   0  0  0  0  0  0  0  0  0  0  0  0
   -0.4031  -18.7045    0.0000 N   0  0  0  0  0  0  0  0  0  0  0  0
   -0.0762  -21.1578    0.0000 C   0  0  0  0  0  0  0  0  0  0  0  0
    0.0327  -21.9755    0.0000 O   0  0  0  0  0  0  0  0  0  0  0  0
   -0.8389  -20.8432    0.0000 N   0  0  0  0  0  0  0  0  0  0  0  0
   -1.4927  -21.3465    0.0000 C   0  0  1  0  0  0  0  0  0  0  0  0
   -1.3837  -22.1643    0.0000 C   0  0  0  0  0  0  0  0  0  0  0  0
   -2.0374  -22.6675    0.0000 O   0  0  0  0  0  0  0  0  0  0  0  0
   -2.2554  -21.0320    0.0000 C   0  0  0  0  0  0  0  0  0  0  0  0
   -2.3643  -20.2142    0.0000 O   0  0  0  0  0  0  0  0  0  0  0  0
   -2.9091  -21.5352    0.0000 N   0  0  0  0  0  0  0  0  0  0  0  0
   -3.6718  -21.2207    0.0000 C   0  0  1  0  0  0  0  0  0  0  0  0
   -4.3255  -21.7239    0.0000 C   0  0  0  0  0  0  0  0  0  0  0  0
   -5.0882  -21.4094    0.0000 O   0  0  0  0  0  0  0  0  0  0  0  0
   -3.7807  -20.4029    0.0000 C   0  0  0  0  0  0  0  0  0  0  0  0
   -4.5434  -20.0884    0.0000 O   0  0  0  0  0  0  0  0  0  0  0  0
   -3.1270  -19.8997    0.0000 O   0  0  0  0  0  0  0  0  0  0  0  0
    5.5895  -20.4029    0.0000 N   0  0  0  0  0  0  0  0  0  0  0  0
    6.2432  -19.8997    0.0000 C   0  0  0  0  0  0  0  0  0  0  0  0
    6.1342  -19.0819    0.0000 O   0  0  0  0  0  0  0  0  0  0  0  0
    7.0059  -20.2142    0.0000 C   0  0  2  0  0  0  0  0  0  0  0  0
    7.1148  -21.0320    0.0000 C   0  0  0  0  0  0  0  0  0  0  0  0
    6.4611  -21.5352    0.0000 C   0  0  0  0  0  0  0  0  0  0  0  0
    6.5701  -22.3530    0.0000 C   0  0  0  0  0  0  0  0  0  0  0  0
    5.9163  -22.8562    0.0000 N   0  0  0  0  0  0  0  0  0  0  0  0
    6.0253  -23.6740    0.0000 C   0  0  0  0  0  0  0  0  0  0  0  0
    6.7880  -23.9885    0.0000 N   0  0  0  0  0  0  0  0  0  0  0  0
    5.3715  -24.1772    0.0000 N   0  0  0  0  0  0  0  0  0  0  0  0
    7.6596  -19.7109    0.0000 N   0  0  0  0  0  0  0  0  0  0  0  0
    8.4223  -20.0255    0.0000 C   0  0  0  0  0  0  0  0  0  0  0  0
    8.5313  -20.8432    0.0000 O   0  0  0  0  0  0  0  0  0  0  0  0
    9.0760  -19.5222    0.0000 C   0  0  2  0  0  0  0  0  0  0  0  0
    8.9671  -18.7045    0.0000 C   0  0  0  0  0  0  0  0  0  0  0  0
    8.2044  -18.3899    0.0000 C   0  0  0  0  0  0  0  0  0  0  0  0
    8.0954  -17.5722    0.0000 C   0  0  0  0  0  0  0  0  0  0  0  0
    8.7492  -17.0689    0.0000 O   0  0  0  0  0  0  0  0  0  0  0  0
    7.3328  -17.2576    0.0000 O   0  0  0  0  0  0  0  0  0  0  0  0
    9.8387  -19.8368    0.0000 N   0  0  0  0  0  0  0  0  0  0  0  0
   10.4925  -19.3335    0.0000 C   0  0  0  0  0  0  0  0  0  0  0  0
   10.3835  -18.5157    0.0000 O   0  0  0  0  0  0  0  0  0  0  0  0
   11.2552  -19.6480    0.0000 C   0  0  2  0  0  0  0  0  0  0  0  0
   11.3641  -20.4658    0.0000 C   0  0  0  0  0  0  0  0  0  0  0  0
   10.7104  -20.9691    0.0000 C   0  0  0  0  0  0  0  0  0  0  0  0
   10.8193  -21.7868    0.0000 C   0  0  0  0  0  0  0  0  0  0  0  0
    9.9477  -20.6545    0.0000 C   0  0  0  0  0  0  0  0  0  0  0  0
   11.9089  -19.1448    0.0000 N   0  0  0  0  0  0  0  0  0  0  0  0
   12.6716  -19.4593    0.0000 C   0  0  0  0  0  0  0  0  0  0  0  0
   12.7805  -20.2771    0.0000 O   0  0  0  0  0  0  0  0  0  0  0  0
   13.3253  -18.9561    0.0000 C   0  0  2  0  0  0  0  0  0  0  0  0
   13.2164  -18.1383    0.0000 C   0  0  0  0  0  0  0  0  0  0  0  0
   12.4537  -17.8238    0.0000 C   0  0  0  0  0  0  0  0  0  0  0  0
   12.3447  -17.0060    0.0000 C   0  0  0  0  0  0  0  0  0  0  0  0
   12.9985  -16.5028    0.0000 O   0  0  0  0  0  0  0  0  0  0  0  0
   11.5820  -16.6915    0.0000 N   0  0  0  0  0  0  0  0  0  0  0  0
   14.0880  -19.2706    0.0000 N   0  0  0  0  0  0  0  0  0  0  0  0
   14.7417  -18.7674    0.0000 C   0  0  0  0  0  0  0  0  0  0  0  0
   14.6328  -17.9496    0.0000 O   0  0  0  0  0  0  0  0  0  0  0  0
   15.5044  -19.0819    0.0000 C   0  0  2  0  0  0  0  0  0  0  0  0
   15.6134  -19.8997    0.0000 C   0  0  0  0  0  0  0  0  0  0  0  0
   14.9597  -20.4029    0.0000 C   0  0  0  0  0  0  0  0  0  0  0  0
   15.0686  -21.2207    0.0000 C   0  0  0  0  0  0  0  0  0  0  0  0
   15.8313  -21.5352    0.0000 O   0  0  0  0  0  0  0  0  0  0  0  0
   14.4149  -21.7239    0.0000 O   0  0  0  0  0  0  0  0  0  0  0  0
   16.1582  -18.5786    0.0000 N   0  0  0  0  0  0  0  0  0  0  0  0
   16.9209  -18.8932    0.0000 C   0  0  0  0  0  0  0  0  0  0  0  0
   17.0298  -19.7109    0.0000 O   0  0  0  0  0  0  0  0  0  0  0  0
   17.5746  -18.3899    0.0000 C   0  0  2  0  0  0  0  0  0  0  0  0
   17.5517  -17.5652    0.0000 C   0  0  0  0  0  0  0  0  0  0  0  0
   18.3290  -17.2886    0.0000 C   0  0  0  0  0  0  0  0  0  0  0  0
   18.8322  -17.9424    0.0000 C   0  0  0  0  0  0  0  0  0  0  0  0
   19.6569  -17.9195    0.0000 O   0  0  0  0  0  0  0  0  0  0  0  0
   18.3660  -18.6230    0.0000 N   0  0  0  0  0  0  0  0  0  0  0  0
    5.5656  -18.6179    0.0000 H   0  0  0  0  0  0  0  0  0  0  0  0
    3.7286  -18.8627    0.0000 H   0  0  0  0  0  0  0  0  0  0  0  0
    4.5764  -18.2100    0.0000 H   0  0  0  0  0  0  0  0  0  0  0  0
    3.8376  -19.6804    0.0000 H   0  0  0  0  0  0  0  0  0  0  0  0
    3.2803  -19.3012    0.0000 H   0  0  0  0  0  0  0  0  0  0  0  0
    3.7458  -21.1882    0.0000 H   0  0  0  0  0  0  0  0  0  0  0  0
    3.8548  -22.0060    0.0000 H   0  0  0  0  0  0  0  0  0  0  0  0
    3.0069  -22.6587    0.0000 H   0  0  0  0  0  0  0  0  0  0  0  0
    1.3639  -22.7541    0.0000 H   0  0  0  0  0  0  0  0  0  0  0  0
    1.4730  -23.5718    0.0000 H   0  0  0  0  0  0  0  0  0  0  0  0
    3.3100  -23.3270    0.0000 H   0  0  0  0  0  0  0  0  0  0  0  0
    2.4622  -23.9797    0.0000 H   0  0  0  0  0  0  0  0  0  0  0  0
    1.3079  -20.7262    0.0000 H   0  0  0  0  0  0  0  0  0  0  0  0
    0.6012  -22.4394    0.0000 H   0  0  0  0  0  0  0  0  0  0  0  0
    0.4599  -21.3788    0.0000 H   0  0  0  0  0  0  0  0  0  0  0  0
    1.4702  -21.9450    0.0000 H   0  0  0  0  0  0  0  0  0  0  0  0
    1.4254  -20.0018    0.0000 H   0  0  0  0  0  0  0  0  0  0  0  0
    1.3164  -19.1841    0.0000 H   0  0  0  0  0  0  0  0  0  0  0  0
    0.3272  -18.7762    0.0000 H   0  0  0  0  0  0  0  0  0  0  0  0
    0.3771  -18.1040    0.0000 H   0  0  0  0  0  0  0  0  0  0  0  0
   -1.3132  -18.3291    0.0000 H   0  0  0  0  0  0  0  0  0  0  0  0
   -0.9689  -19.8673    0.0000 H   0  0  0  0  0  0  0  0  0  0  0  0
   -0.5035  -21.7544    0.0000 H   0  0  0  0  0  0  0  0  0  0  0  0
   -0.3945  -22.5722    0.0000 H   0  0  0  0  0  0  0  0  0  0  0  0
   -1.2424  -23.2249    0.0000 H   0  0  0  0  0  0  0  0  0  0  0  0
   -2.9341  -22.2977    0.0000 H   0  0  0  0  0  0  0  0  0  0  0  0
   -2.7791  -22.5111    0.0000 H   0  0  0  0  0  0  0  0  0  0  0  0
   -3.5305  -22.2813    0.0000 H   0  0  0  0  0  0  0  0  0  0  0  0
   -4.1842  -22.7845    0.0000 H   0  0  0  0  0  0  0  0  0  0  0  0
   -5.1734  -22.3766    0.0000 H   0  0  0  0  0  0  0  0  0  0  0  0
   -5.2163  -20.4479    0.0000 H   0  0  0  0  0  0  0  0  0  0  0  0
   -2.2608  -20.2569    0.0000 H   0  0  0  0  0  0  0  0  0  0  0  0
    5.7195  -21.3788    0.0000 H   0  0  0  0  0  0  0  0  0  0  0  0
    6.8645  -19.1536    0.0000 H   0  0  0  0  0  0  0  0  0  0  0  0
    8.1040  -21.4400    0.0000 H   0  0  0  0  0  0  0  0  0  0  0  0
    7.2561  -22.0926    0.0000 H   0  0  0  0  0  0  0  0  0  0  0  0
    5.4719  -21.1273    0.0000 H   0  0  0  0  0  0  0  0  0  0  0  0
    5.6132  -22.1879    0.0000 H   0  0  0  0  0  0  0  0  0  0  0  0
    7.5593  -22.7610    0.0000 H   0  0  0  0  0  0  0  0  0  0  0  0
    6.7114  -23.4136    0.0000 H   0  0  0  0  0  0  0  0  0  0  0  0
    5.0062  -22.4808    0.0000 H   0  0  0  0  0  0  0  0  0  0  0  0
    6.9181  -24.9644    0.0000 H   0  0  0  0  0  0  0  0  0  0  0  0
    4.4614  -23.8018    0.0000 H   0  0  0  0  0  0  0  0  0  0  0  0
    5.5014  -25.1531    0.0000 H   0  0  0  0  0  0  0  0  0  0  0  0
    7.5296  -18.7350    0.0000 H   0  0  0  0  0  0  0  0  0  0  0  0
    9.2173  -20.5828    0.0000 H   0  0  0  0  0  0  0  0  0  0  0  0
    9.8150  -18.0519    0.0000 H   0  0  0  0  0  0  0  0  0  0  0  0
    8.8259  -17.6439    0.0000 H   0  0  0  0  0  0  0  0  0  0  0  0
    7.3565  -19.0426    0.0000 H   0  0  0  0  0  0  0  0  0  0  0  0
    7.2152  -17.9820    0.0000 H   0  0  0  0  0  0  0  0  0  0  0  0
    7.2092  -16.3288    0.0000 H   0  0  0  0  0  0  0  0  0  0  0  0
    9.9687  -20.8127    0.0000 H   0  0  0  0  0  0  0  0  0  0  0  0
   11.1139  -18.5874    0.0000 H   0  0  0  0  0  0  0  0  0  0  0  0
   12.3533  -20.8737    0.0000 H   0  0  0  0  0  0  0  0  0  0  0  0
   11.5055  -21.5264    0.0000 H   0  0  0  0  0  0  0  0  0  0  0  0
    9.8625  -21.6217    0.0000 H   0  0  0  0  0  0  0  0  0  0  0  0
    9.9714  -22.4394    0.0000 H   0  0  0  0  0  0  0  0  0  0  0  0
   11.8085  -22.1948    0.0000 H   0  0  0  0  0  0  0  0  0  0  0  0
   10.9606  -22.8474    0.0000 H   0  0  0  0  0  0  0  0  0  0  0  0
    9.8065  -19.5939    0.0000 H   0  0  0  0  0  0  0  0  0  0  0  0
    9.0998  -21.3071    0.0000 H   0  0  0  0  0  0  0  0  0  0  0  0
    8.9585  -20.2465    0.0000 H   0  0  0  0  0  0  0  0  0  0  0  0
   11.7789  -18.1689    0.0000 H   0  0  0  0  0  0  0  0  0  0  0  0
   13.4666  -20.0167    0.0000 H   0  0  0  0  0  0  0  0  0  0  0  0
   14.0643  -17.4856    0.0000 H   0  0  0  0  0  0  0  0  0  0  0  0
   13.0751  -17.0777    0.0000 H   0  0  0  0  0  0  0  0  0  0  0  0
   11.6059  -18.4765    0.0000 H   0  0  0  0  0  0  0  0  0  0  0  0
   11.4645  -17.4159    0.0000 H   0  0  0  0  0  0  0  0  0  0  0  0
   11.4519  -15.7156    0.0000 H   0  0  0  0  0  0  0  0  0  0  0  0
   10.8019  -17.2921    0.0000 H   0  0  0  0  0  0  0  0  0  0  0  0
   14.2180  -20.2465    0.0000 H   0  0  0  0  0  0  0  0  0  0  0  0
   15.3631  -18.0213    0.0000 H   0  0  0  0  0  0  0  0  0  0  0  0
   16.6026  -20.3076    0.0000 H   0  0  0  0  0  0  0  0  0  0  0  0
   15.7547  -20.9603    0.0000 H   0  0  0  0  0  0  0  0  0  0  0  0
   13.9705  -19.9949    0.0000 H   0  0  0  0  0  0  0  0  0  0  0  0
   14.1118  -21.0555    0.0000 H   0  0  0  0  0  0  0  0  0  0  0  0
   13.5487  -21.3667    0.0000 H   0  0  0  0  0  0  0  0  0  0  0  0
   16.0282  -17.6027    0.0000 H   0  0  0  0  0  0  0  0  0  0  0  0
   16.6081  -17.9308    0.0000 H   0  0  0  0  0  0  0  0  0  0  0  0
   16.6689  -16.9605    0.0000 H   0  0  0  0  0  0  0  0  0  0  0  0
   17.6897  -16.5041    0.0000 H   0  0  0  0  0  0  0  0  0  0  0  0
   18.6314  -16.2622    0.0000 H   0  0  0  0  0  0  0  0  0  0  0  0
   19.3808  -17.0920    0.0000 H   0  0  0  0  0  0  0  0  0  0  0  0
   18.6961  -19.5505    0.0000 H   0  0  0  0  0  0  0  0  0  0  0  0
  1 89  1  0  0  0  0
  1 90  1  0  0  0  0
  1 91  1  0  0  0  0
  2  1  1  0  0  0  0
  2  3  1  0  0  0  0
  2 34  1  0  0  0  0
  2 92  1  1  0  0  0
  3  4  2  0  0  0  0
  3  5  1  0  0  0  0
  5 93  1  0  0  0  0
  6  5  1  0  0  0  0
  6  7  1  0  0  0  0
  6 11  1  0  0  0  0
  6 94  1  6  0  0  0
  7  8  1  0  0  0  0
  7 95  1  0  0  0  0
  7 96  1  0  0  0  0
  8  9  1  0  0  0  0
  8 10  1  0  0  0  0
  8 97  1  0  0  0  0
  9 98  1  0  0  0  0
  9 99  1  0  0  0  0
  9100  1  0  0  0  0
 10101  1  0  0  0  0
 10102  1  0  0  0  0
 10103  1  0  0  0  0
 11 12  2  0  0  0  0
 11 13  1  0  0  0  0
 13104  1  0  0  0  0
 14 13  1  0  0  0  0
 14 15  1  0  0  0  0
 14 19  1  0  0  0  0
 14105  1  1  0  0  0
 15 16  1  0  0  0  0
 15106  1  0  0  0  0
 15107  1  0  0  0  0
 16 17  2  0  0  0  0
 16 18  1  0  0  0  0
 18108  1  0  0  0  0
 18109  1  0  0  0  0
 19 20  2  0  0  0  0
 19 21  1  0  0  0  0
 21110  1  0  0  0  0
 22 21  1  0  0  0  0
 22 23  1  0  0  0  0
 22 25  1  0  0  0  0
 22111  1  6  0  0  0
 23 24  1  0  0  0  0
 23112  1  0  0  0  0
 23113  1  0  0  0  0
 24114  1  0  0  0  0
 25 26  2  0  0  0  0
 25 27  1  0  0  0  0
 27115  1  0  0  0  0
 28 27  1  0  0  0  0
 28 29  1  0  0  0  0
 28 31  1  0  0  0  0
 28116  1  6  0  0  0
 29 30  1  0  0  0  0
 29117  1  0  0  0  0
 29118  1  0  0  0  0
 30119  1  0  0  0  0
 31 32  2  0  0  0  0
 31 33  1  0  0  0  0
 33120  1  0  0  0  0
 34 35  1  0  0  0  0
 34121  1  0  0  0  0
 35 36  2  0  0  0  0
 35 37  1  0  0  0  0
 37 38  1  0  0  0  0
 37 45  1  0  0  0  0
 37122  1  6  0  0  0
 38 39  1  0  0  0  0
 38123  1  0  0  0  0
 38124  1  0  0  0  0
 39 40  1  0  0  0  0
 39125  1  0  0  0  0
 39126  1  0  0  0  0
 40 41  1  0  0  0  0
 40127  1  0  0  0  0
 40128  1  0  0  0  0
 41 42  1  0  0  0  0
 41129  1  0  0  0  0
 42 43  2  0  0  0  0
 42 44  1  0  0  0  0
 43130  1  0  0  0  0
 44131  1  0  0  0  0
 44132  1  0  0  0  0
 45 46  1  0  0  0  0
 45133  1  0  0  0  0
 46 47  2  0  0  0  0
 46 48  1  0  0  0  0
 48 49  1  0  0  0  0
 48 54  1  0  0  0  0
 48134  1  1  0  0  0
 49 50  1  0  0  0  0
 49135  1  0  0  0  0
 49136  1  0  0  0  0
 50 51  1  0  0  0  0
 50137  1  0  0  0  0
 50138  1  0  0  0  0
 51 52  2  0  0  0  0
 51 53  1  0  0  0  0
 53139  1  0  0  0  0
 54 55  1  0  0  0  0
 54140  1  0  0  0  0
 55 56  2  0  0  0  0
 55 57  1  0  0  0  0
 57 58  1  0  0  0  0
 57 62  1  0  0  0  0
 57141  1  6  0  0  0
 58 59  1  0  0  0  0
 58142  1  0  0  0  0
 58143  1  0  0  0  0
 59 60  1  0  0  0  0
 59 61  1  0  0  0  0
 59144  1  0  0  0  0
 60145  1  0  0  0  0
 60146  1  0  0  0  0
 60147  1  0  0  0  0
 61148  1  0  0  0  0
 61149  1  0  0  0  0
 61150  1  0  0  0  0
 62 63  1  0  0  0  0
 62151  1  0  0  0  0
 63 64  2  0  0  0  0
 63 65  1  0  0  0  0
 65 66  1  0  0  0  0
 65 71  1  0  0  0  0
 65152  1  1  0  0  0
 66 67  1  0  0  0  0
 66153  1  0  0  0  0
 66154  1  0  0  0  0
 67 68  1  0  0  0  0
 67155  1  0  0  0  0
 67156  1  0  0  0  0
 68 69  2  0  0  0  0
 68 70  1  0  0  0  0
 70157  1  0  0  0  0
 70158  1  0  0  0  0
 71 72  1  0  0  0  0
 71159  1  0  0  0  0
 72 73  2  0  0  0  0
 72 74  1  0  0  0  0
 74 75  1  0  0  0  0
 74 80  1  0  0  0  0
 74160  1  6  0  0  0
 75 76  1  0  0  0  0
 75161  1  0  0  0  0
 75162  1  0  0  0  0
 76 77  1  0  0  0  0
 76163  1  0  0  0  0
 76164  1  0  0  0  0
 77 78  2  0  0  0  0
 77 79  1  0  0  0  0
 79165  1  0  0  0  0
 80 81  1  0  0  0  0
 80166  1  0  0  0  0
 81 82  2  0  0  0  0
 83 81  1  0  0  0  0
 83 84  1  0  0  0  0
 83 88  1  0  0  0  0
 83167  1  1  0  0  0
 84 85  1  0  0  0  0
 84168  1  0  0  0  0
 84169  1  0  0  0  0
 85 86  1  0  0  0  0
 85170  1  0  0  0  0
 85171  1  0  0  0  0
 86 87  2  0  0  0  0
 86 88  1  0  0  0  0
 88172  1  0  0  0  0
M  END
>  <DRUGBANK_ID>
DB13006

>  <COMMON_NAME>
Cibinetide

>  <CAS_NUMBER>
1208243-50-8

>  <UNII>
9W5677JKDA

>  <SYNONYMS>
Cibinetide; L-Pyr-L-Glu-L-Gln-L-Leu-L-Glu-L-Arg-L-Ala-L-Leu-L-Asn-L-Ser-L-Ser; PGLU-GLU-GLN-LEU-GLU-ARG-ALA-LEU-ASN-SER-SER; PH-BSP; PHBSP

$$$$
