
 OpenBabel10282417072D

 24 24  0  0  0  0  0  0  0  0999 V2000
    1.7861    1.6500    0.0000 O   0  0  0  0  0  0  0  0  0  0  0  0
    1.7861    0.8250    0.0000 C   0  0  0  0  0  0  0  0  0  0  0  0
    2.5006    0.4125    0.0000 O   0  0  0  0  0  0  0  0  0  0  0  0
    1.0716    0.4125    0.0000 C   0  0  1  0  0  0  0  0  0  0  0  0
    1.0716   -0.4125    0.0000 N   0  0  0  0  0  0  0  0  0  0  0  0
    0.3572    0.8250    0.0000 C   0  0  0  0  0  0  0  0  0  0  0  0
   -0.3572    0.4125    0.0000 C   0  0  0  0  0  0  0  0  0  0  0  0
   -0.3572   -0.4125    0.0000 C   0  0  0  0  0  0  0  0  0  0  0  0
   -1.7861    0.4125    0.0000 C   0  0  0  0  0  0  0  0  0  0  0  0
   -1.7861   -0.4125    0.0000 C   0  0  0  0  0  0  0  0  0  0  0  0
   -2.5006   -0.8250    0.0000 O   0  0  0  0  0  0  0  0  0  0  0  0
   -1.0717    0.8250    0.0000 C   0  0  0  0  0  0  0  0  0  0  0  0
   -1.0717    1.6500    0.0000 O   0  0  0  0  0  0  0  0  0  0  0  0
   -1.0717   -0.8250    0.0000 C   0  0  0  0  0  0  0  0  0  0  0  0
   -1.0717   -1.6500    0.0000 O   0  0  0  0  0  0  0  0  0  0  0  0
    2.5006   -0.5245    0.0000 H   0  0  0  0  0  0  0  0  0  0  0  0
    1.9982   -0.1225    0.0000 H   0  0  0  0  0  0  0  0  0  0  0  0
    0.1883   -0.9225    0.0000 H   0  0  0  0  0  0  0  0  0  0  0  0
    1.9549   -0.9225    0.0000 H   0  0  0  0  0  0  0  0  0  0  0  0
    0.3572    1.8950    0.0000 H   0  0  0  0  0  0  0  0  0  0  0  0
   -0.5695    1.3600    0.0000 H   0  0  0  0  0  0  0  0  0  0  0  0
    0.5365   -0.9285    0.0000 H   0  0  0  0  0  0  0  0  0  0  0  0
   -2.6798    0.9285    0.0000 H   0  0  0  0  0  0  0  0  0  0  0  0
   -3.3121   -0.3565    0.0000 H   0  0  0  0  0  0  0  0  0  0  0  0
  2  1  2  0  0  0  0
  3  2  1  0  0  0  0
  3 16  1  0  0  0  0
  4  2  1  0  0  0  0
  4  5  1  0  0  0  0
  4 17  1  6  0  0  0
  5 18  1  0  0  0  0
  5 19  1  0  0  0  0
  6  4  1  0  0  0  0
  6 20  1  0  0  0  0
  6 21  1  0  0  0  0
  7  6  1  0  0  0  0
  8  7  2  0  0  0  0
  8 22  1  0  0  0  0
  9 12  1  0  0  0  0
  9 23  1  0  0  0  0
 10  9  2  0  0  0  0
 11 10  1  0  0  0  0
 11 24  1  0  0  0  0
 12  7  1  0  0  0  0
 12 13  2  0  0  0  0
 14  8  1  0  0  0  0
 14 10  1  0  0  0  0
 14 15  2  0  0  0  0
M  END
>  <DRUGBANK_ID>
DB04334

>  <SECONDARY_ACCESSION_NUMBERS>
EXPT03094

>  <COMMON_NAME>
6-hydroxydopa quinone

>  <CAS_NUMBER>
64192-68-3

>  <UNII>
PAG3GKA51Y

>  <SYNONYMS>
(S)-Î±-amino-4-hydroxy-3,6-dioxo-1,4-cyclohexadiene-1-propanoic acid; 6-Hydroxyphenylalanine-3,4-dione; L-topaquinone; Topa quinone; Topaquinone

$$$$
