
 OpenBabel10282417072D

 23 24  0  0  0  0  0  0  0  0999 V2000
   -0.7145    1.0313    0.0000 C   0  0  0  0  0  0  0  0  0  0  0  0
    0.0000    0.6187    0.0000 C   0  0  0  0  0  0  0  0  0  0  0  0
    0.0000   -0.2062    0.0000 C   0  0  0  0  0  0  0  0  0  0  0  0
   -0.7145   -0.6187    0.0000 N   0  0  0  0  0  0  0  0  0  0  0  0
   -1.4290   -0.2062    0.0000 C   0  0  0  0  0  0  0  0  0  0  0  0
   -1.4290    0.6187    0.0000 N   0  0  0  0  0  0  0  0  0  0  0  0
   -0.7145    1.8563    0.0000 O   0  0  0  0  0  0  0  0  0  0  0  0
    0.7145    1.0313    0.0000 Br  0  0  0  0  0  0  0  0  0  0  0  0
    0.7145   -0.6187    0.0000 C   0  0  0  0  0  0  0  0  0  0  0  0
    1.4290   -0.2062    0.0000 C   0  0  0  0  0  0  0  0  0  0  0  0
    2.1435   -0.6187    0.0000 C   0  0  0  0  0  0  0  0  0  0  0  0
    2.1435   -1.4438    0.0000 C   0  0  0  0  0  0  0  0  0  0  0  0
    1.4290   -1.8563    0.0000 C   0  0  0  0  0  0  0  0  0  0  0  0
    0.7145   -1.4438    0.0000 C   0  0  0  0  0  0  0  0  0  0  0  0
   -2.1436   -0.6187    0.0000 N   0  0  0  0  0  0  0  0  0  0  0  0
   -0.7145   -1.6032    0.0000 H   0  0  0  0  0  0  0  0  0  0  0  0
    1.4290    0.8258    0.0000 H   0  0  0  0  0  0  0  0  0  0  0  0
    3.0372   -0.1027    0.0000 H   0  0  0  0  0  0  0  0  0  0  0  0
    3.0372   -1.9598    0.0000 H   0  0  0  0  0  0  0  0  0  0  0  0
    1.4290   -2.8883    0.0000 H   0  0  0  0  0  0  0  0  0  0  0  0
   -0.1792   -1.9598    0.0000 H   0  0  0  0  0  0  0  0  0  0  0  0
   -2.9962   -0.1264    0.0000 H   0  0  0  0  0  0  0  0  0  0  0  0
   -2.1437   -1.6032    0.0000 H   0  0  0  0  0  0  0  0  0  0  0  0
  1  2  1  0  0  0  0
  1  6  1  0  0  0  0
  1  7  2  0  0  0  0
  2  8  1  0  0  0  0
  2  3  2  0  0  0  0
  3  9  1  0  0  0  0
  3  4  1  0  0  0  0
  4  5  1  0  0  0  0
  4 16  1  0  0  0  0
  5  6  2  0  0  0  0
  5 15  1  0  0  0  0
  9 10  2  0  0  0  0
 10 11  1  0  0  0  0
 10 17  1  0  0  0  0
 11 12  2  0  0  0  0
 11 18  1  0  0  0  0
 12 13  1  0  0  0  0
 12 19  1  0  0  0  0
 13 14  2  0  0  0  0
 13 20  1  0  0  0  0
 14  9  1  0  0  0  0
 14 21  1  0  0  0  0
 15 22  1  0  0  0  0
 15 23  1  0  0  0  0
M  END
>  <DRUGBANK_ID>
DB04168

>  <SECONDARY_ACCESSION_NUMBERS>
EXPT00347

>  <COMMON_NAME>
Bropirimine

>  <CAS_NUMBER>
56741-95-8

>  <UNII>
J57CTF25XJ

>  <SYNONYMS>
Bropirimina; Bropirimine; Bropiriminum

$$$$
