
 OpenBabel10282417072D

115123  0  0  0  0  0  0  0  0999 V2000
    1.3184   -1.0164    0.0000 O   0  0  0  0  0  0  0  0  0  0  0  0
    1.7309   -0.3020    0.0000 C   0  0  0  0  0  0  0  0  0  0  0  0
    1.3184    0.4125    0.0000 N   0  0  0  0  0  0  0  0  0  0  0  0
    0.4934    0.4125    0.0000 C   0  0  0  0  0  0  0  0  0  0  0  0
    0.0809    1.1270    0.0000 C   0  0  0  0  0  0  0  0  0  0  0  0
   -0.7441    1.1270    0.0000 C   0  0  0  0  0  0  0  0  0  0  0  0
   -1.1566    1.8414    0.0000 N   0  0  0  0  0  0  0  0  0  0  0  0
   -1.9816    1.8414    0.0000 C   0  0  0  0  0  0  0  0  0  0  0  0
   -2.3941    2.5559    0.0000 C   0  0  0  0  0  0  0  0  0  0  0  0
   -1.9816    3.2704    0.0000 O   0  0  0  0  0  0  0  0  0  0  0  0
   -1.1566    3.2704    0.0000 C   0  0  0  0  0  0  0  0  0  0  0  0
   -0.7441    2.5559    0.0000 C   0  0  0  0  0  0  0  0  0  0  0  0
    1.7309    1.1270    0.0000 C   0  0  0  0  0  0  0  0  0  0  0  0
    1.3184    1.8414    0.0000 O   0  0  0  0  0  0  0  0  0  0  0  0
    2.5559    1.1270    0.0000 C   0  0  0  0  0  0  0  0  0  0  0  0
    2.9684    1.8414    0.0000 C   0  0  0  0  0  0  0  0  0  0  0  0
    3.7934    1.8414    0.0000 C   0  0  0  0  0  0  0  0  0  0  0  0
    4.2059    1.1270    0.0000 C   0  0  0  0  0  0  0  0  0  0  0  0
    3.7934    0.4125    0.0000 C   0  0  0  0  0  0  0  0  0  0  0  0
    4.2059   -0.3020    0.0000 C   0  0  0  0  0  0  0  0  0  0  0  0
    3.7934   -1.0164    0.0000 C   0  0  0  0  0  0  0  0  0  0  0  0
    4.2059   -1.7309    0.0000 N   0  0  0  0  0  0  0  0  0  0  0  0
    3.7934   -2.4454    0.0000 C   0  0  0  0  0  0  0  0  0  0  0  0
    4.2059   -3.1599    0.0000 C   0  0  0  0  0  0  0  0  0  0  0  0
    3.7934   -3.8743    0.0000 N   0  0  0  0  0  0  0  0  0  0  0  0
    4.1290   -4.6280    0.0000 C   0  0  0  0  0  0  0  0  0  0  0  0
    3.5159   -5.1800    0.0000 C   0  0  0  0  0  0  0  0  0  0  0  0
    2.8014   -4.7675    0.0000 C   0  0  0  0  0  0  0  0  0  0  0  0
    2.9729   -3.9606    0.0000 C   0  0  0  0  0  0  0  0  0  0  0  0
    2.9684   -1.0164    0.0000 C   0  0  0  0  0  0  0  0  0  0  0  0
    2.5559   -0.3020    0.0000 C   0  0  0  0  0  0  0  0  0  0  0  0
    2.9684    0.4125    0.0000 C   0  0  0  0  0  0  0  0  0  0  0  0
    5.0309   -0.3020    0.0000 C   0  0  0  0  0  0  0  0  0  0  0  0
    5.4434   -1.0164    0.0000 O   0  0  0  0  0  0  0  0  0  0  0  0
    5.4434    0.4125    0.0000 N   0  0  0  0  0  0  0  0  0  0  0  0
    6.2684    0.4125    0.0000 C   0  0  0  0  0  0  0  0  0  0  0  0
    6.6809   -0.3020    0.0000 C   0  0  0  0  0  0  0  0  0  0  0  0
    7.5059   -0.3020    0.0000 C   0  0  0  0  0  0  0  0  0  0  0  0
    7.9184   -1.0164    0.0000 N   0  0  0  0  0  0  0  0  0  0  0  0
    8.7434   -1.0164    0.0000 C   0  0  0  0  0  0  0  0  0  0  0  0
    9.1559   -1.7309    0.0000 C   0  0  0  0  0  0  0  0  0  0  0  0
    8.7434   -2.4454    0.0000 O   0  0  0  0  0  0  0  0  0  0  0  0
    7.9184   -2.4454    0.0000 C   0  0  0  0  0  0  0  0  0  0  0  0
    7.5059   -1.7309    0.0000 C   0  0  0  0  0  0  0  0  0  0  0  0
    5.0309    1.1270    0.0000 C   0  0  0  0  0  0  0  0  0  0  0  0
    5.4434    1.8414    0.0000 O   0  0  0  0  0  0  0  0  0  0  0  0
    2.5559    2.5559    0.0000 C   0  0  0  0  0  0  0  0  0  0  0  0
    1.7309    2.5559    0.0000 C   0  0  0  0  0  0  0  0  0  0  0  0
    1.3184    3.2704    0.0000 C   0  0  0  0  0  0  0  0  0  0  0  0
    1.7309    3.9849    0.0000 C   0  0  0  0  0  0  0  0  0  0  0  0
    1.3184    4.6993    0.0000 C   0  0  0  0  0  0  0  0  0  0  0  0
    1.7309    5.4138    0.0000 N   0  0  0  0  0  0  0  0  0  0  0  0
    1.3954    6.1675    0.0000 C   0  0  0  0  0  0  0  0  0  0  0  0
    2.0084    6.7195    0.0000 C   0  0  0  0  0  0  0  0  0  0  0  0
    2.7229    6.3070    0.0000 C   0  0  0  0  0  0  0  0  0  0  0  0
    2.5514    5.5000    0.0000 C   0  0  0  0  0  0  0  0  0  0  0  0
    2.5559    3.9849    0.0000 C   0  0  0  0  0  0  0  0  0  0  0  0
    2.9684    3.2704    0.0000 C   0  0  0  0  0  0  0  0  0  0  0  0
   -0.0416   -0.5141    0.0000 H   0  0  0  0  0  0  0  0  0  0  0  0
   -0.5766    0.4125    0.0000 H   0  0  0  0  0  0  0  0  0  0  0  0
    0.6159    2.0536    0.0000 H   0  0  0  0  0  0  0  0  0  0  0  0
   -0.4541    2.0536    0.0000 H   0  0  0  0  0  0  0  0  0  0  0  0
   -1.2791    0.2003    0.0000 H   0  0  0  0  0  0  0  0  0  0  0  0
   -1.8141    1.1270    0.0000 H   0  0  0  0  0  0  0  0  0  0  0  0
   -2.5166    0.9148    0.0000 H   0  0  0  0  0  0  0  0  0  0  0  0
   -3.0516    1.8414    0.0000 H   0  0  0  0  0  0  0  0  0  0  0  0
   -3.4641    2.5559    0.0000 H   0  0  0  0  0  0  0  0  0  0  0  0
   -2.9291    3.4825    0.0000 H   0  0  0  0  0  0  0  0  0  0  0  0
   -0.6216    4.1970    0.0000 H   0  0  0  0  0  0  0  0  0  0  0  0
   -0.0866    3.2704    0.0000 H   0  0  0  0  0  0  0  0  0  0  0  0
    0.3259    2.5559    0.0000 H   0  0  0  0  0  0  0  0  0  0  0  0
   -0.2091    1.6293    0.0000 H   0  0  0  0  0  0  0  0  0  0  0  0
    4.3094    2.7351    0.0000 H   0  0  0  0  0  0  0  0  0  0  0  0
    5.1904   -1.7309    0.0000 H   0  0  0  0  0  0  0  0  0  0  0  0
    2.7234   -2.4454    0.0000 H   0  0  0  0  0  0  0  0  0  0  0  0
    3.2584   -3.3720    0.0000 H   0  0  0  0  0  0  0  0  0  0  0  0
    5.2759   -3.1599    0.0000 H   0  0  0  0  0  0  0  0  0  0  0  0
    4.7409   -4.0866    0.0000 H   0  0  0  0  0  0  0  0  0  0  0  0
    5.1756   -4.8505    0.0000 H   0  0  0  0  0  0  0  0  0  0  0  0
    4.4059   -5.6615    0.0000 H   0  0  0  0  0  0  0  0  0  0  0  0
    3.6277   -6.2441    0.0000 H   0  0  0  0  0  0  0  0  0  0  0  0
    2.6185   -5.7628    0.0000 H   0  0  0  0  0  0  0  0  0  0  0  0
    1.8239   -5.2027    0.0000 H   0  0  0  0  0  0  0  0  0  0  0  0
    1.9698   -4.0941    0.0000 H   0  0  0  0  0  0  0  0  0  0  0  0
    2.2569   -3.1655    0.0000 H   0  0  0  0  0  0  0  0  0  0  0  0
    3.3563   -2.9616    0.0000 H   0  0  0  0  0  0  0  0  0  0  0  0
    2.4524   -1.9101    0.0000 H   0  0  0  0  0  0  0  0  0  0  0  0
    6.8034    1.3391    0.0000 H   0  0  0  0  0  0  0  0  0  0  0  0
    7.3384    0.4125    0.0000 H   0  0  0  0  0  0  0  0  0  0  0  0
    6.1459   -1.2286    0.0000 H   0  0  0  0  0  0  0  0  0  0  0  0
    7.2159   -1.2286    0.0000 H   0  0  0  0  0  0  0  0  0  0  0  0
    8.0409    0.6247    0.0000 H   0  0  0  0  0  0  0  0  0  0  0  0
    8.5759   -0.3020    0.0000 H   0  0  0  0  0  0  0  0  0  0  0  0
    9.2784   -0.0898    0.0000 H   0  0  0  0  0  0  0  0  0  0  0  0
    9.8134   -1.0164    0.0000 H   0  0  0  0  0  0  0  0  0  0  0  0
   10.2259   -1.7309    0.0000 H   0  0  0  0  0  0  0  0  0  0  0  0
    9.6909   -2.6575    0.0000 H   0  0  0  0  0  0  0  0  0  0  0  0
    7.3834   -3.3720    0.0000 H   0  0  0  0  0  0  0  0  0  0  0  0
    6.8484   -2.4454    0.0000 H   0  0  0  0  0  0  0  0  0  0  0  0
    6.4359   -1.7309    0.0000 H   0  0  0  0  0  0  0  0  0  0  0  0
    6.9709   -0.8043    0.0000 H   0  0  0  0  0  0  0  0  0  0  0  0
    1.2149    1.6622    0.0000 H   0  0  0  0  0  0  0  0  0  0  0  0
    0.2864    3.2704    0.0000 H   0  0  0  0  0  0  0  0  0  0  0  0
    0.2484    4.6993    0.0000 H   0  0  0  0  0  0  0  0  0  0  0  0
    0.7834    5.6259    0.0000 H   0  0  0  0  0  0  0  0  0  0  0  0
    0.3488    6.3900    0.0000 H   0  0  0  0  0  0  0  0  0  0  0  0
    1.1184    7.2010    0.0000 H   0  0  0  0  0  0  0  0  0  0  0  0
    1.8965    7.7836    0.0000 H   0  0  0  0  0  0  0  0  0  0  0  0
    2.9058    7.3023    0.0000 H   0  0  0  0  0  0  0  0  0  0  0  0
    3.7004    6.7422    0.0000 H   0  0  0  0  0  0  0  0  0  0  0  0
    3.5545    5.6337    0.0000 H   0  0  0  0  0  0  0  0  0  0  0  0
    3.2674    4.7048    0.0000 H   0  0  0  0  0  0  0  0  0  0  0  0
    2.1679    4.5011    0.0000 H   0  0  0  0  0  0  0  0  0  0  0  0
    3.0719    4.8786    0.0000 H   0  0  0  0  0  0  0  0  0  0  0  0
    4.0004    3.2704    0.0000 H   0  0  0  0  0  0  0  0  0  0  0  0
  1  2  2  0  0  0  0
  2  3  1  0  0  0  0
  2 31  1  0  0  0  0
  3  4  1  0  0  0  0
  3 13  1  0  0  0  0
  4  5  1  0  0  0  0
  4 59  1  0  0  0  0
  4 60  1  0  0  0  0
  5  6  1  0  0  0  0
  5 61  1  0  0  0  0
  5 62  1  0  0  0  0
  6  7  1  0  0  0  0
  6 63  1  0  0  0  0
  6 64  1  0  0  0  0
  7  8  1  0  0  0  0
  7 12  1  0  0  0  0
  8  9  1  0  0  0  0
  8 65  1  0  0  0  0
  8 66  1  0  0  0  0
  9 10  1  0  0  0  0
  9 67  1  0  0  0  0
  9 68  1  0  0  0  0
 10 11  1  0  0  0  0
 11 12  1  0  0  0  0
 11 69  1  0  0  0  0
 11 70  1  0  0  0  0
 12 71  1  0  0  0  0
 12 72  1  0  0  0  0
 13 14  2  0  0  0  0
 13 15  1  0  0  0  0
 15 16  1  0  0  0  0
 15 32  2  0  0  0  0
 16 17  2  0  0  0  0
 16 47  1  0  0  0  0
 17 18  1  0  0  0  0
 17 73  1  0  0  0  0
 18 19  2  0  0  0  0
 18 45  1  0  0  0  0
 19 20  1  0  0  0  0
 19 32  1  0  0  0  0
 20 21  2  0  0  0  0
 20 33  1  0  0  0  0
 21 22  1  0  0  0  0
 21 30  1  0  0  0  0
 22 23  1  0  0  0  0
 22 74  1  0  0  0  0
 23 24  1  0  0  0  0
 23 75  1  0  0  0  0
 23 76  1  0  0  0  0
 24 25  1  0  0  0  0
 24 77  1  0  0  0  0
 24 78  1  0  0  0  0
 25 26  1  0  0  0  0
 25 29  1  0  0  0  0
 26 27  1  0  0  0  0
 26 79  1  0  0  0  0
 26 80  1  0  0  0  0
 27 28  1  0  0  0  0
 27 81  1  0  0  0  0
 27 82  1  0  0  0  0
 28 29  1  0  0  0  0
 28 83  1  0  0  0  0
 28 84  1  0  0  0  0
 29 85  1  0  0  0  0
 29 86  1  0  0  0  0
 30 31  2  0  0  0  0
 30 87  1  0  0  0  0
 31 32  1  0  0  0  0
 33 34  2  0  0  0  0
 33 35  1  0  0  0  0
 35 36  1  0  0  0  0
 35 45  1  0  0  0  0
 36 37  1  0  0  0  0
 36 88  1  0  0  0  0
 36 89  1  0  0  0  0
 37 38  1  0  0  0  0
 37 90  1  0  0  0  0
 37 91  1  0  0  0  0
 38 39  1  0  0  0  0
 38 92  1  0  0  0  0
 38 93  1  0  0  0  0
 39 40  1  0  0  0  0
 39 44  1  0  0  0  0
 40 41  1  0  0  0  0
 40 94  1  0  0  0  0
 40 95  1  0  0  0  0
 41 42  1  0  0  0  0
 41 96  1  0  0  0  0
 41 97  1  0  0  0  0
 42 43  1  0  0  0  0
 43 44  1  0  0  0  0
 43 98  1  0  0  0  0
 43 99  1  0  0  0  0
 44100  1  0  0  0  0
 44101  1  0  0  0  0
 45 46  2  0  0  0  0
 47 48  2  0  0  0  0
 47 58  1  0  0  0  0
 48 49  1  0  0  0  0
 48102  1  0  0  0  0
 49 50  2  0  0  0  0
 49103  1  0  0  0  0
 50 51  1  0  0  0  0
 50 57  1  0  0  0  0
 51 52  1  0  0  0  0
 51104  1  0  0  0  0
 51105  1  0  0  0  0
 52 53  1  0  0  0  0
 52 56  1  0  0  0  0
 53 54  1  0  0  0  0
 53106  1  0  0  0  0
 53107  1  0  0  0  0
 54 55  1  0  0  0  0
 54108  1  0  0  0  0
 54109  1  0  0  0  0
 55 56  1  0  0  0  0
 55110  1  0  0  0  0
 55111  1  0  0  0  0
 56112  1  0  0  0  0
 56113  1  0  0  0  0
 57 58  2  0  0  0  0
 57114  1  0  0  0  0
 58115  1  0  0  0  0
M  END
>  <DRUGBANK_ID>
DB18156

>  <COMMON_NAME>
QN-302

>  <CAS_NUMBER>
2546091-70-5

>  <UNII>
86Y5JME9KT

>  <SYNONYMS>
2,7-bis(3-morpholinopropyl)-4-((2-(pyrrolidin-1-yl)ethyl)amino)-9-(4-(pyrrolidin-1-ylmethyl)phenyl)benzo[lmn][3,8]phenanthroline-1,3,6,8(2H,7H)-tetraone

$$$$
