
 OpenBabel10282417072D

 21 21  0  0  0  0  0  0  0  0999 V2000
   -0.7145   -0.6187    0.0000 C   0  0  0  0  0  0  0  0  0  0  0  0
   -0.7145    0.2062    0.0000 C   0  0  0  0  0  0  0  0  0  0  0  0
    0.0000   -1.0313    0.0000 C   0  0  0  0  0  0  0  0  0  0  0  0
    0.7145   -0.6187    0.0000 C   0  0  0  0  0  0  0  0  0  0  0  0
    0.7145    0.2062    0.0000 C   0  0  0  0  0  0  0  0  0  0  0  0
    0.0000    0.6187    0.0000 C   0  0  0  0  0  0  0  0  0  0  0  0
    1.4290   -1.0313    0.0000 C   0  0  0  0  0  0  0  0  0  0  0  0
    2.1436   -0.6187    0.0000 O   0  0  0  0  0  0  0  0  0  0  0  0
    1.4290   -1.8563    0.0000 O   0  0  0  0  0  0  0  0  0  0  0  0
    0.0000    1.4438    0.0000 C   0  0  0  0  0  0  0  0  0  0  0  0
    0.7145    1.8563    0.0000 O   0  0  0  0  0  0  0  0  0  0  0  0
   -0.7145    1.8563    0.0000 O   0  0  0  0  0  0  0  0  0  0  0  0
   -1.4290   -1.0313    0.0000 C   0  0  0  0  0  0  0  0  0  0  0  0
   -2.1436   -0.6187    0.0000 O   0  0  0  0  0  0  0  0  0  0  0  0
   -1.4290   -1.8563    0.0000 O   0  0  0  0  0  0  0  0  0  0  0  0
   -1.6082    0.7222    0.0000 H   0  0  0  0  0  0  0  0  0  0  0  0
    0.0000   -2.0633    0.0000 H   0  0  0  0  0  0  0  0  0  0  0  0
    1.6082    0.7222    0.0000 H   0  0  0  0  0  0  0  0  0  0  0  0
    0.6175   -2.3248    0.0000 H   0  0  0  0  0  0  0  0  0  0  0  0
    1.5260    1.3878    0.0000 H   0  0  0  0  0  0  0  0  0  0  0  0
   -2.1436    0.3183    0.0000 H   0  0  0  0  0  0  0  0  0  0  0  0
  2  1  1  0  0  0  0
  2 16  1  0  0  0  0
  3  1  2  0  0  0  0
  3 17  1  0  0  0  0
  4  3  1  0  0  0  0
  5  4  2  0  0  0  0
  5 18  1  0  0  0  0
  6  2  2  0  0  0  0
  6  5  1  0  0  0  0
  7  4  1  0  0  0  0
  8  7  2  0  0  0  0
  9  7  1  0  0  0  0
  9 19  1  0  0  0  0
 10  6  1  0  0  0  0
 11 10  1  0  0  0  0
 11 20  1  0  0  0  0
 12 10  2  0  0  0  0
 13  1  1  0  0  0  0
 14 13  1  0  0  0  0
 14 21  1  0  0  0  0
 15 13  2  0  0  0  0
M  END
>  <DRUGBANK_ID>
DB08632

>  <COMMON_NAME>
Trimesic acid

>  <CAS_NUMBER>
554-95-0

>  <UNII>
OU36OO5MTN

>  <SYNONYMS>
1,3,5-Tricarboxybenzene; 5-carboxyisophthalic acid; Benzene-1,3,5-tricarboxylic acid; Trimesinic acid; Trimesitinic acid

$$$$
