2CC
 OpenBabel10282417072D

 44 48  0  0  0  0  0  0  0  0999 V2000
   -2.9963    1.8308    0.0000 Cl  0  0  0  0  0  0  0  0  0  0  0  0
   -2.2117    1.5759    0.0000 C   0  0  0  0  0  0  0  0  0  0  0  0
   -1.5986    2.1279    0.0000 C   0  0  0  0  0  0  0  0  0  0  0  0
   -0.8140    1.8730    0.0000 C   0  0  0  0  0  0  0  0  0  0  0  0
   -0.6424    1.0660    0.0000 C   0  0  0  0  0  0  0  0  0  0  0  0
   -1.2555    0.5139    0.0000 C   0  0  0  0  0  0  0  0  0  0  0  0
   -2.0402    0.7689    0.0000 C   0  0  0  0  0  0  0  0  0  0  0  0
   -2.5251    0.1014    0.0000 N   0  0  0  0  0  0  0  0  0  0  0  0
   -2.0402   -0.5660    0.0000 C   0  0  0  0  0  0  0  0  0  0  0  0
   -1.2555   -0.3111    0.0000 C   0  0  0  0  0  0  0  0  0  0  0  0
   -0.5881   -0.7960    0.0000 C   0  0  0  0  0  0  0  0  0  0  0  0
   -0.5881   -1.6210    0.0000 C   0  0  0  0  0  0  0  0  0  0  0  0
   -1.2555   -2.1059    0.0000 C   0  0  0  0  0  0  0  0  0  0  0  0
   -2.0092   -1.7703    0.0000 O   0  0  0  0  0  0  0  0  0  0  0  0
   -1.1693   -2.9264    0.0000 O   0  0  0  0  0  0  0  0  0  0  0  0
    0.1965   -1.8759    0.0000 N   0  0  0  0  0  0  0  0  0  0  0  0
    0.6814   -1.2085    0.0000 C   0  0  0  0  0  0  0  0  0  0  0  0
    1.5064   -1.2085    0.0000 C   0  0  0  0  0  0  0  0  0  0  0  0
    1.9189   -0.4940    0.0000 O   0  0  0  0  0  0  0  0  0  0  0  0
    1.9189   -1.9229    0.0000 O   0  0  0  0  0  0  0  0  0  0  0  0
    0.1965   -0.5410    0.0000 C   0  0  0  0  0  0  0  0  0  0  0  0
    0.4515    0.2436    0.0000 C   0  0  0  0  0  0  0  0  0  0  0  0
   -0.0335    0.9110    0.0000 C   0  0  0  0  0  0  0  0  0  0  0  0
    0.4515    1.5785    0.0000 N   0  0  0  0  0  0  0  0  0  0  0  0
    1.2361    1.3235    0.0000 C   0  0  0  0  0  0  0  0  0  0  0  0
    1.2361    0.4985    0.0000 C   0  0  0  0  0  0  0  0  0  0  0  0
    1.9506    0.0860    0.0000 C   0  0  0  0  0  0  0  0  0  0  0  0
    2.6650    0.4985    0.0000 C   0  0  0  0  0  0  0  0  0  0  0  0
    2.6650    1.3235    0.0000 C   0  0  0  0  0  0  0  0  0  0  0  0
    1.9506    1.7360    0.0000 C   0  0  0  0  0  0  0  0  0  0  0  0
    1.9506    2.5610    0.0000 Cl  0  0  0  0  0  0  0  0  0  0  0  0
   -1.8132    3.1373    0.0000 H   0  0  0  0  0  0  0  0  0  0  0  0
   -0.0471    2.5636    0.0000 H   0  0  0  0  0  0  0  0  0  0  0  0
    0.3391    0.7472    0.0000 H   0  0  0  0  0  0  0  0  0  0  0  0
   -3.5096    0.1014    0.0000 H   0  0  0  0  0  0  0  0  0  0  0  0
   -2.3591   -1.5475    0.0000 H   0  0  0  0  0  0  0  0  0  0  0  0
   -1.9274   -3.4771    0.0000 H   0  0  0  0  0  0  0  0  0  0  0  0
    0.5007   -2.8122    0.0000 H   0  0  0  0  0  0  0  0  0  0  0  0
    2.8559   -0.4940    0.0000 H   0  0  0  0  0  0  0  0  0  0  0  0
   -1.0655    0.9110    0.0000 H   0  0  0  0  0  0  0  0  0  0  0  0
    0.1473    2.5148    0.0000 H   0  0  0  0  0  0  0  0  0  0  0  0
    1.9506   -0.9460    0.0000 H   0  0  0  0  0  0  0  0  0  0  0  0
    3.5587   -0.0175    0.0000 H   0  0  0  0  0  0  0  0  0  0  0  0
    3.5587    1.8395    0.0000 H   0  0  0  0  0  0  0  0  0  0  0  0
  2  1  1  0  0  0  0
  2  3  1  0  0  0  0
  3 32  1  0  0  0  0
  4  3  2  0  0  0  0
  4 33  1  0  0  0  0
  5  4  1  0  0  0  0
  5 34  1  0  0  0  0
  6  5  2  0  0  0  0
  6  7  1  0  0  0  0
  7  2  2  0  0  0  0
  8  7  1  0  0  0  0
  8 35  1  0  0  0  0
  9  8  1  0  0  0  0
  9 10  2  0  0  0  0
  9 36  1  0  0  0  0
 10  6  1  0  0  0  0
 11 10  1  0  0  0  0
 12 11  2  0  0  0  0
 12 13  1  0  0  0  0
 13 15  1  0  0  0  0
 14 13  2  0  0  0  0
 15 37  1  0  0  0  0
 16 12  1  0  0  0  0
 16 38  1  0  0  0  0
 17 16  1  0  0  0  0
 17 21  2  0  0  0  0
 18 17  1  0  0  0  0
 19 18  1  0  0  0  0
 19 39  1  0  0  0  0
 20 18  2  0  0  0  0
 21 11  1  0  0  0  0
 22 21  1  0  0  0  0
 22 23  2  0  0  0  0
 23 40  1  0  0  0  0
 24 23  1  0  0  0  0
 24 41  1  0  0  0  0
 25 24  1  0  0  0  0
 26 22  1  0  0  0  0
 26 25  1  0  0  0  0
 27 26  2  0  0  0  0
 27 42  1  0  0  0  0
 28 27  1  0  0  0  0
 28 29  2  0  0  0  0
 28 43  1  0  0  0  0
 29 30  1  0  0  0  0
 29 44  1  0  0  0  0
 30 25  2  0  0  0  0
 30 31  1  0  0  0  0
M  END
>  <DRUGBANK_ID>
DB06955

>  <COMMON_NAME>
3,4-bis(7-chloro-1H-indol-3-yl)-1H-pyrrole-2,5-dicarboxylic acid

$$$$
