
 OpenBabel10282417072D

 99104  0  0  0  0  0  0  0  0999 V2000
   -1.4289    0.5904    0.0000 C   0  0  0  0  0  0  0  0  0  0  0  0
   -2.1434    0.1779    0.0000 C   0  0  0  0  0  0  0  0  0  0  0  0
   -2.1434   -0.6470    0.0000 C   0  0  0  0  0  0  0  0  0  0  0  0
   -1.4289   -1.0595    0.0000 C   0  0  0  0  0  0  0  0  0  0  0  0
   -0.7144   -0.6470    0.0000 C   0  0  0  0  0  0  0  0  0  0  0  0
   -0.7144    0.1779    0.0000 C   0  0  0  0  0  0  0  0  0  0  0  0
    0.0000    0.5904    0.0000 C   0  0  0  0  0  0  0  0  0  0  0  0
    0.7145    0.1779    0.0000 C   0  0  0  0  0  0  0  0  0  0  0  0
    0.7145   -0.6470    0.0000 C   0  0  0  0  0  0  0  0  0  0  0  0
    1.4289   -1.0595    0.0000 C   0  0  0  0  0  0  0  0  0  0  0  0
    2.1434   -0.6470    0.0000 C   0  0  0  0  0  0  0  0  0  0  0  0
    2.1434    0.1780    0.0000 C   0  0  0  0  0  0  0  0  0  0  0  0
    1.4290    0.5905    0.0000 C   0  0  0  0  0  0  0  0  0  0  0  0
   -2.8578    0.5904    0.0000 N   0  0  0  0  0  0  0  0  0  0  0  0
    2.8579    0.5904    0.0000 N   0  0  0  0  0  0  0  0  0  0  0  0
   -2.9441    1.4109    0.0000 N   0  0  0  0  0  0  0  0  0  0  0  0
   -3.7510    1.5824    0.0000 C   0  0  0  0  0  0  0  0  0  0  0  0
   -4.1635    0.8680    0.0000 C   0  0  0  0  0  0  0  0  0  0  0  0
   -3.6116    0.2549    0.0000 N   0  0  0  0  0  0  0  0  0  0  0  0
    3.6116    0.2549    0.0000 N   0  0  0  0  0  0  0  0  0  0  0  0
    4.1636    0.8680    0.0000 C   0  0  0  0  0  0  0  0  0  0  0  0
    3.7511    1.5824    0.0000 C   0  0  0  0  0  0  0  0  0  0  0  0
    2.9442    1.4109    0.0000 N   0  0  0  0  0  0  0  0  0  0  0  0
    4.1636    2.2969    0.0000 C   0  0  0  0  0  0  0  0  0  0  0  0
    4.9886    2.2969    0.0000 C   0  0  0  0  0  0  0  0  0  0  0  0
    5.4011    1.5825    0.0000 C   0  0  0  0  0  0  0  0  0  0  0  0
    4.9886    0.8680    0.0000 C   0  0  0  0  0  0  0  0  0  0  0  0
   -4.1635    2.2969    0.0000 C   0  0  0  0  0  0  0  0  0  0  0  0
   -4.9885    2.2970    0.0000 C   0  0  0  0  0  0  0  0  0  0  0  0
   -5.4011    1.5825    0.0000 C   0  0  0  0  0  0  0  0  0  0  0  0
   -4.9885    0.8680    0.0000 C   0  0  0  0  0  0  0  0  0  0  0  0
    1.4290    1.4155    0.0000 O   0  0  0  0  0  0  0  0  0  0  0  0
   -1.4289    1.4154    0.0000 O   0  0  0  0  0  0  0  0  0  0  0  0
    1.4289   -1.8845    0.0000 C   0  0  0  0  0  0  0  0  0  0  0  0
   -1.4289   -1.8845    0.0000 C   0  0  0  0  0  0  0  0  0  0  0  0
   -0.7144   -2.2970    0.0000 C   0  0  0  0  0  0  0  0  0  0  0  0
   -0.7144   -1.4720    0.0000 C   0  0  0  0  0  0  0  0  0  0  0  0
    2.1434   -2.2970    0.0000 C   0  0  0  0  0  0  0  0  0  0  0  0
    0.7145   -2.2970    0.0000 C   0  0  0  0  0  0  0  0  0  0  0  0
    0.7145   -1.4720    0.0000 C   0  0  0  0  0  0  0  0  0  0  0  0
    2.8579   -1.8845    0.0000 C   0  0  0  0  0  0  0  0  0  0  0  0
    3.5724   -2.2970    0.0000 C   0  0  0  0  0  0  0  0  0  0  0  0
    2.8579   -1.0595    0.0000 C   0  0  0  0  0  0  0  0  0  0  0  0
    3.5724   -1.4720    0.0000 C   0  0  0  0  0  0  0  0  0  0  0  0
   -2.1433   -2.2970    0.0000 C   0  0  0  0  0  0  0  0  0  0  0  0
   -2.8578   -1.8845    0.0000 C   0  0  0  0  0  0  0  0  0  0  0  0
   -3.5723   -2.2970    0.0000 C   0  0  0  0  0  0  0  0  0  0  0  0
   -2.8578   -1.0595    0.0000 C   0  0  0  0  0  0  0  0  0  0  0  0
   -3.5723   -1.4720    0.0000 C   0  0  0  0  0  0  0  0  0  0  0  0
   -3.0371   -1.1630    0.0000 H   0  0  0  0  0  0  0  0  0  0  0  0
    0.1793   -1.1630    0.0000 H   0  0  0  0  0  0  0  0  0  0  0  0
   -0.0000    1.6604    0.0000 H   0  0  0  0  0  0  0  0  0  0  0  0
    0.9266    1.1254    0.0000 H   0  0  0  0  0  0  0  0  0  0  0  0
   -0.1792   -1.1630    0.0000 H   0  0  0  0  0  0  0  0  0  0  0  0
    3.0371   -1.1630    0.0000 H   0  0  0  0  0  0  0  0  0  0  0  0
    3.6476    3.1906    0.0000 H   0  0  0  0  0  0  0  0  0  0  0  0
    5.5046    3.1906    0.0000 H   0  0  0  0  0  0  0  0  0  0  0  0
    6.4331    1.5825    0.0000 H   0  0  0  0  0  0  0  0  0  0  0  0
    5.5046   -0.0257    0.0000 H   0  0  0  0  0  0  0  0  0  0  0  0
   -3.6474    3.1906    0.0000 H   0  0  0  0  0  0  0  0  0  0  0  0
   -5.5044    3.1908    0.0000 H   0  0  0  0  0  0  0  0  0  0  0  0
   -6.4331    1.5825    0.0000 H   0  0  0  0  0  0  0  0  0  0  0  0
   -5.5045   -0.0258    0.0000 H   0  0  0  0  0  0  0  0  0  0  0  0
    2.2405    1.8840    0.0000 H   0  0  0  0  0  0  0  0  0  0  0  0
   -0.6174    1.8839    0.0000 H   0  0  0  0  0  0  0  0  0  0  0  0
   -0.7144   -3.3670    0.0000 H   0  0  0  0  0  0  0  0  0  0  0  0
    0.2122   -1.7620    0.0000 H   0  0  0  0  0  0  0  0  0  0  0  0
    0.2123   -2.8320    0.0000 H   0  0  0  0  0  0  0  0  0  0  0  0
    0.2122   -2.0070    0.0000 H   0  0  0  0  0  0  0  0  0  0  0  0
   -0.7144   -0.4020    0.0000 H   0  0  0  0  0  0  0  0  0  0  0  0
    0.2123   -0.9370    0.0000 H   0  0  0  0  0  0  0  0  0  0  0  0
    2.1434   -3.3670    0.0000 H   0  0  0  0  0  0  0  0  0  0  0  0
    3.0700   -2.8320    0.0000 H   0  0  0  0  0  0  0  0  0  0  0  0
   -0.2122   -1.7620    0.0000 H   0  0  0  0  0  0  0  0  0  0  0  0
    0.7145   -3.3670    0.0000 H   0  0  0  0  0  0  0  0  0  0  0  0
   -0.2121   -2.8320    0.0000 H   0  0  0  0  0  0  0  0  0  0  0  0
    0.7145   -0.4020    0.0000 H   0  0  0  0  0  0  0  0  0  0  0  0
   -0.2122   -2.0070    0.0000 H   0  0  0  0  0  0  0  0  0  0  0  0
   -0.2121   -0.9370    0.0000 H   0  0  0  0  0  0  0  0  0  0  0  0
    3.5724   -3.3670    0.0000 H   0  0  0  0  0  0  0  0  0  0  0  0
    4.4990   -1.7620    0.0000 H   0  0  0  0  0  0  0  0  0  0  0  0
    4.4991   -2.8320    0.0000 H   0  0  0  0  0  0  0  0  0  0  0  0
    3.7845   -0.5245    0.0000 H   0  0  0  0  0  0  0  0  0  0  0  0
    1.9313   -0.5245    0.0000 H   0  0  0  0  0  0  0  0  0  0  0  0
    2.8579    0.0105    0.0000 H   0  0  0  0  0  0  0  0  0  0  0  0
    4.4990   -2.0070    0.0000 H   0  0  0  0  0  0  0  0  0  0  0  0
    3.5724   -0.4020    0.0000 H   0  0  0  0  0  0  0  0  0  0  0  0
    4.4991   -0.9370    0.0000 H   0  0  0  0  0  0  0  0  0  0  0  0
   -2.1433   -3.3670    0.0000 H   0  0  0  0  0  0  0  0  0  0  0  0
   -3.0699   -2.8320    0.0000 H   0  0  0  0  0  0  0  0  0  0  0  0
   -4.4989   -1.7620    0.0000 H   0  0  0  0  0  0  0  0  0  0  0  0
   -3.5723   -3.3670    0.0000 H   0  0  0  0  0  0  0  0  0  0  0  0
   -4.4990   -2.8320    0.0000 H   0  0  0  0  0  0  0  0  0  0  0  0
   -1.9312   -0.5245    0.0000 H   0  0  0  0  0  0  0  0  0  0  0  0
   -3.7844   -0.5245    0.0000 H   0  0  0  0  0  0  0  0  0  0  0  0
   -2.8578    0.0105    0.0000 H   0  0  0  0  0  0  0  0  0  0  0  0
   -3.5723   -0.4020    0.0000 H   0  0  0  0  0  0  0  0  0  0  0  0
   -4.4989   -2.0070    0.0000 H   0  0  0  0  0  0  0  0  0  0  0  0
   -4.4990   -0.9370    0.0000 H   0  0  0  0  0  0  0  0  0  0  0  0
  1  2  1  0  0  0  0
  1  6  2  0  0  0  0
  1 33  1  0  0  0  0
  2  3  2  0  0  0  0
  2 14  1  0  0  0  0
  3  4  1  0  0  0  0
  3 50  1  0  0  0  0
  4  5  2  0  0  0  0
  4 35  1  0  0  0  0
  5  6  1  0  0  0  0
  5 51  1  0  0  0  0
  6  7  1  0  0  0  0
  7  8  1  0  0  0  0
  7 52  1  0  0  0  0
  7 53  1  0  0  0  0
  8  9  1  0  0  0  0
  8 13  2  0  0  0  0
  9 10  2  0  0  0  0
  9 54  1  0  0  0  0
 10 11  1  0  0  0  0
 10 34  1  0  0  0  0
 11 12  2  0  0  0  0
 11 55  1  0  0  0  0
 12 13  1  0  0  0  0
 12 15  1  0  0  0  0
 13 32  1  0  0  0  0
 14 16  1  0  0  0  0
 14 19  1  0  0  0  0
 15 20  1  0  0  0  0
 15 23  1  0  0  0  0
 16 17  2  0  0  0  0
 17 28  1  0  0  0  0
 18 19  2  0  0  0  0
 18 17  1  0  0  0  0
 20 21  2  0  0  0  0
 21 22  1  0  0  0  0
 22 23  2  0  0  0  0
 22 24  1  0  0  0  0
 24 25  2  0  0  0  0
 24 56  1  0  0  0  0
 25 26  1  0  0  0  0
 25 57  1  0  0  0  0
 26 27  2  0  0  0  0
 26 58  1  0  0  0  0
 27 21  1  0  0  0  0
 27 59  1  0  0  0  0
 28 29  2  0  0  0  0
 28 60  1  0  0  0  0
 29 30  1  0  0  0  0
 29 61  1  0  0  0  0
 30 31  2  0  0  0  0
 30 62  1  0  0  0  0
 31 18  1  0  0  0  0
 31 63  1  0  0  0  0
 32 64  1  0  0  0  0
 33 65  1  0  0  0  0
 34 38  1  0  0  0  0
 34 39  1  0  0  0  0
 34 40  1  0  0  0  0
 35 36  1  0  0  0  0
 35 37  1  0  0  0  0
 35 45  1  0  0  0  0
 36 66  1  0  0  0  0
 36 67  1  0  0  0  0
 36 68  1  0  0  0  0
 37 69  1  0  0  0  0
 37 70  1  0  0  0  0
 37 71  1  0  0  0  0
 38 41  1  0  0  0  0
 38 72  1  0  0  0  0
 38 73  1  0  0  0  0
 39 74  1  0  0  0  0
 39 75  1  0  0  0  0
 39 76  1  0  0  0  0
 40 77  1  0  0  0  0
 40 78  1  0  0  0  0
 40 79  1  0  0  0  0
 41 42  1  0  0  0  0
 41 43  1  0  0  0  0
 41 44  1  0  0  0  0
 42 80  1  0  0  0  0
 42 81  1  0  0  0  0
 42 82  1  0  0  0  0
 43 83  1  0  0  0  0
 43 84  1  0  0  0  0
 43 85  1  0  0  0  0
 44 86  1  0  0  0  0
 44 87  1  0  0  0  0
 44 88  1  0  0  0  0
 45 46  1  0  0  0  0
 45 89  1  0  0  0  0
 45 90  1  0  0  0  0
 46 47  1  0  0  0  0
 46 48  1  0  0  0  0
 46 49  1  0  0  0  0
 47 91  1  0  0  0  0
 47 92  1  0  0  0  0
 47 93  1  0  0  0  0
 48 94  1  0  0  0  0
 48 95  1  0  0  0  0
 48 96  1  0  0  0  0
 49 97  1  0  0  0  0
 49 98  1  0  0  0  0
 49 99  1  0  0  0  0
M  END
>  <DRUGBANK_ID>
DB11262

>  <COMMON_NAME>
Bisoctrizole

>  <CAS_NUMBER>
103597-45-1

>  <UNII>
8NT850T0YS

>  <SYNONYMS>
Bisoctrizole; MBBT

$$$$
