
 OpenBabel10282417072D

 14 13  0  0  0  0  0  0  0  0999 V2000
    1.4291   -0.4031    0.0000 O   0  0  0  0  0  0  0  0  0  0  0  0
    0.0000   -0.4123    0.0000 O   0  0  0  0  0  0  0  0  0  0  0  0
    0.7145    0.8250    0.0000 O   0  0  0  0  0  0  0  0  0  0  0  0
   -0.7145    0.0001    0.0000 C   0  0  0  0  0  0  0  0  0  0  0  0
   -1.4291   -0.4123    0.0000 C   0  0  0  0  0  0  0  0  0  0  0  0
    0.7145    0.0001    0.0000 P   0  0  0  0  0  0  0  0  0  0  0  0
    0.7145   -0.8250    0.0000 O   0  0  0  0  0  0  0  0  0  0  0  0
    1.4387   -1.3731    0.0000 H   0  0  0  0  0  0  0  0  0  0  0  0
   -0.7145    1.0701    0.0000 H   0  0  0  0  0  0  0  0  0  0  0  0
   -1.6411    0.5352    0.0000 H   0  0  0  0  0  0  0  0  0  0  0  0
   -2.3556    0.1229    0.0000 H   0  0  0  0  0  0  0  0  0  0  0  0
   -1.4293   -1.4823    0.0000 H   0  0  0  0  0  0  0  0  0  0  0  0
   -2.3558   -0.9471    0.0000 H   0  0  0  0  0  0  0  0  0  0  0  0
   -0.1255   -1.3100    0.0000 H   0  0  0  0  0  0  0  0  0  0  0  0
  1  8  1  0  0  0  0
  2  4  1  0  0  0  0
  4  5  1  0  0  0  0
  4  9  1  0  0  0  0
  4 10  1  0  0  0  0
  5 11  1  0  0  0  0
  5 12  1  0  0  0  0
  5 13  1  0  0  0  0
  6  3  2  0  0  0  0
  6  7  1  0  0  0  0
  6  2  1  0  0  0  0
  6  1  1  0  0  0  0
  7 14  1  0  0  0  0
M  END
>  <DRUGBANK_ID>
DB03822

>  <SECONDARY_ACCESSION_NUMBERS>
EXPT01327

>  <COMMON_NAME>
Ethyl dihydrogen phosphate

>  <CAS_NUMBER>
1623-14-9

>  <UNII>
BMH1WT204A

>  <SYNONYMS>
Monoethyl acid phosphate; Monoethyl phosphate; O-Ethyl dihydrogen phosphate; Phosphoric acid monoethyl ester

$$$$
