1289
 OpenBabel10282417072D

 58 60  0  0  0  0  0  0  0  0999 V2000
    8.0632    0.4174    0.0000 S   0  0  0  0  0  0  0  0  0  0  0  0
    8.0632    2.0674    0.0000 O   0  0  0  0  0  0  0  0  0  0  0  0
    7.6507    1.1318    0.0000 O   0  0  0  0  0  0  0  0  0  0  0  0
    8.4757   -0.2971    0.0000 O   0  0  0  0  0  0  0  0  0  0  0  0
    5.2052   -3.7077    0.0000 O   0  0  0  0  0  0  0  0  0  0  0  0
    2.8830   -4.6997    0.0000 O   0  0  0  0  0  0  0  0  0  0  0  0
    9.4922    2.8924    0.0000 N   0  0  0  0  0  0  0  0  0  0  0  0
    9.4922    2.0674    0.0000 N   0  0  0  0  0  0  0  0  0  0  0  0
    8.7777    0.8299    0.0000 N   0  0  0  0  0  0  0  0  0  0  0  0
    4.4907   -2.4702    0.0000 N   0  0  0  0  0  0  0  0  0  0  0  0
    3.6901   -4.5282    0.0000 N   0  0  0  0  0  0  0  0  0  0  0  0
    9.9047    4.6997    0.0000 C   0  0  0  0  0  0  0  0  0  0  0  0
    9.0797    4.6997    0.0000 C   0  0  0  0  0  0  0  0  0  0  0  0
   10.4191    4.0547    0.0000 C   0  0  0  0  0  0  0  0  0  0  0  0
    8.5653    4.0547    0.0000 C   0  0  0  0  0  0  0  0  0  0  0  0
   10.2355    3.2504    0.0000 C   0  0  0  0  0  0  0  0  0  0  0  0
    8.7488    3.2504    0.0000 C   0  0  0  0  0  0  0  0  0  0  0  0
    8.7777    1.6549    0.0000 C   0  0  0  0  0  0  0  0  0  0  0  0
    7.3487    0.0049    0.0000 C   0  0  0  0  0  0  0  0  0  0  0  0
    5.9198   -0.8202    0.0000 C   0  0  0  0  0  0  0  0  0  0  0  0
    5.2052   -1.2327    0.0000 C   0  0  0  0  0  0  0  0  0  0  0  0
    6.6342    0.4174    0.0000 C   0  0  0  0  0  0  0  0  0  0  0  0
    7.3487   -0.8202    0.0000 C   0  0  0  0  0  0  0  0  0  0  0  0
    5.2052   -2.0577    0.0000 C   0  0  0  0  0  0  0  0  0  0  0  0
    5.9198    0.0049    0.0000 C   0  0  0  0  0  0  0  0  0  0  0  0
    6.6342   -1.2327    0.0000 C   0  0  0  0  0  0  0  0  0  0  0  0
    4.4907   -3.2952    0.0000 C   0  0  0  0  0  0  0  0  0  0  0  0
    3.7763   -3.7077    0.0000 C   0  0  0  0  0  0  0  0  0  0  0  0
    3.0226   -3.3722    0.0000 C   0  0  0  0  0  0  0  0  0  0  0  0
    2.4705   -3.9853    0.0000 C   0  0  0  0  0  0  0  0  0  0  0  0
    1.6500   -3.8990    0.0000 C   0  0  0  0  0  0  0  0  0  0  0  0
   10.3448    1.5751    0.0000 H   0  0  0  0  0  0  0  0  0  0  0  0
    9.6303    0.3376    0.0000 H   0  0  0  0  0  0  0  0  0  0  0  0
    3.6381   -1.9779    0.0000 H   0  0  0  0  0  0  0  0  0  0  0  0
   10.3689    5.6637    0.0000 H   0  0  0  0  0  0  0  0  0  0  0  0
   10.9680    4.8195    0.0000 H   0  0  0  0  0  0  0  0  0  0  0  0
    8.6155    5.6637    0.0000 H   0  0  0  0  0  0  0  0  0  0  0  0
    8.0164    4.8195    0.0000 H   0  0  0  0  0  0  0  0  0  0  0  0
   11.4623    4.2928    0.0000 H   0  0  0  0  0  0  0  0  0  0  0  0
   11.1757    3.2981    0.0000 H   0  0  0  0  0  0  0  0  0  0  0  0
    7.5221    4.2929    0.0000 H   0  0  0  0  0  0  0  0  0  0  0  0
    7.8086    3.2982    0.0000 H   0  0  0  0  0  0  0  0  0  0  0  0
   11.0721    2.5833    0.0000 H   0  0  0  0  0  0  0  0  0  0  0  0
   11.2455    3.6038    0.0000 H   0  0  0  0  0  0  0  0  0  0  0  0
    7.9122    2.5833    0.0000 H   0  0  0  0  0  0  0  0  0  0  0  0
    7.7389    3.6039    0.0000 H   0  0  0  0  0  0  0  0  0  0  0  0
    4.2786   -0.6977    0.0000 H   0  0  0  0  0  0  0  0  0  0  0  0
    4.2785   -1.7677    0.0000 H   0  0  0  0  0  0  0  0  0  0  0  0
    6.6342    1.4494    0.0000 H   0  0  0  0  0  0  0  0  0  0  0  0
    8.2424   -1.3362    0.0000 H   0  0  0  0  0  0  0  0  0  0  0  0
    6.1318   -2.5927    0.0000 H   0  0  0  0  0  0  0  0  0  0  0  0
    6.1318   -1.5227    0.0000 H   0  0  0  0  0  0  0  0  0  0  0  0
    5.0261    0.5209    0.0000 H   0  0  0  0  0  0  0  0  0  0  0  0
    6.6342   -2.2647    0.0000 H   0  0  0  0  0  0  0  0  0  0  0  0
    2.8080   -2.3628    0.0000 H   0  0  0  0  0  0  0  0  0  0  0  0
    1.2149   -2.9215    0.0000 H   0  0  0  0  0  0  0  0  0  0  0  0
    1.0210   -4.7646    0.0000 H   0  0  0  0  0  0  0  0  0  0  0  0
    0.5859   -3.7871    0.0000 H   0  0  0  0  0  0  0  0  0  0  0  0
  1  3  2  0  0  0  0
  1  4  2  0  0  0  0
  1  9  1  0  0  0  0
  1 19  1  0  0  0  0
  2 18  2  0  0  0  0
  5 27  2  0  0  0  0
  6 11  1  0  0  0  0
  6 30  1  0  0  0  0
  7  8  1  0  0  0  0
  7 16  1  0  0  0  0
  7 17  1  0  0  0  0
  8 18  1  0  0  0  0
  8 32  1  0  0  0  0
  9 18  1  0  0  0  0
  9 33  1  0  0  0  0
 10 24  1  0  0  0  0
 10 27  1  0  0  0  0
 10 34  1  0  0  0  0
 11 28  2  0  0  0  0
 12 13  1  0  0  0  0
 12 14  1  0  0  0  0
 12 35  1  0  0  0  0
 12 36  1  0  0  0  0
 13 15  1  0  0  0  0
 13 37  1  0  0  0  0
 13 38  1  0  0  0  0
 14 16  1  0  0  0  0
 14 39  1  0  0  0  0
 14 40  1  0  0  0  0
 15 17  1  0  0  0  0
 15 41  1  0  0  0  0
 15 42  1  0  0  0  0
 16 43  1  0  0  0  0
 16 44  1  0  0  0  0
 17 45  1  0  0  0  0
 17 46  1  0  0  0  0
 19 22  2  0  0  0  0
 19 23  1  0  0  0  0
 20 21  1  0  0  0  0
 20 25  2  0  0  0  0
 20 26  1  0  0  0  0
 21 24  1  0  0  0  0
 21 47  1  0  0  0  0
 21 48  1  0  0  0  0
 22 25  1  0  0  0  0
 22 49  1  0  0  0  0
 23 26  2  0  0  0  0
 23 50  1  0  0  0  0
 24 51  1  0  0  0  0
 24 52  1  0  0  0  0
 25 53  1  0  0  0  0
 26 54  1  0  0  0  0
 27 28  1  0  0  0  0
 28 29  1  0  0  0  0
 29 30  2  0  0  0  0
 29 55  1  0  0  0  0
 30 31  1  0  0  0  0
 31 56  1  0  0  0  0
 31 57  1  0  0  0  0
 31 58  1  0  0  0  0
M  END
>  <DRUGBANK_ID>
DB01289

>  <COMMON_NAME>
Glisoxepide

>  <CAS_NUMBER>
25046-79-1

>  <UNII>
H7SC0I332I

>  <SYNONYMS>
Glisoxepide

$$$$
