608
 OpenBabel10282417072D

 50 53  0  0  0  0  0  0  0  0999 V2000
    3.1429    1.5931    0.0000 C   0  0  0  0  0  0  0  0  0  0  0  0
    2.4284    1.1806    0.0000 C   0  0  0  0  0  0  0  0  0  0  0  0
    2.4284    0.3556    0.0000 C   0  0  0  0  0  0  0  0  0  0  0  0
    3.1429   -0.0569    0.0000 C   0  0  0  0  0  0  0  0  0  0  0  0
    3.8574    0.3556    0.0000 C   0  0  0  0  0  0  0  0  0  0  0  0
    3.8574    1.1806    0.0000 C   0  0  0  0  0  0  0  0  0  0  0  0
   -0.4295   -3.7694    0.0000 C   0  0  0  0  0  0  0  0  0  0  0  0
   -0.4295   -4.5944    0.0000 N   0  0  0  0  0  0  0  0  0  0  0  0
    0.2850   -3.3569    0.0000 C   0  0  0  0  0  0  0  0  0  0  0  0
    0.9995   -3.7694    0.0000 C   0  0  0  0  0  0  0  0  0  0  0  0
    0.9995   -4.5944    0.0000 C   0  0  0  0  0  0  0  0  0  0  0  0
    0.2850   -5.0069    0.0000 C   0  0  0  0  0  0  0  0  0  0  0  0
    0.9995   -1.2944    0.0000 C   0  0  0  0  0  0  0  0  0  0  0  0
    0.2850   -0.8819    0.0000 C   0  0  0  0  0  0  0  0  0  0  0  0
   -0.4295   -1.2944    0.0000 C   0  0  0  0  0  0  0  0  0  0  0  0
   -0.4295   -2.1194    0.0000 C   0  0  0  0  0  0  0  0  0  0  0  0
    0.2850   -2.5319    0.0000 N   0  0  0  0  0  0  0  0  0  0  0  0
    0.9995   -2.1194    0.0000 C   0  0  0  0  0  0  0  0  0  0  0  0
    1.7139   -2.5319    0.0000 N   0  0  0  0  0  0  0  0  0  0  0  0
    1.7139   -3.3569    0.0000 C   0  0  0  0  0  0  0  0  0  0  0  0
    1.7139   -0.8819    0.0000 C   0  0  0  0  0  0  0  0  0  0  0  0
    1.7139   -0.0569    0.0000 N   0  0  0  0  0  0  0  0  0  0  0  0
    2.4284   -1.2944    0.0000 O   0  0  0  0  0  0  0  0  0  0  0  0
    4.5718    1.5931    0.0000 O   0  0  0  0  0  0  0  0  0  0  0  0
    3.8574    3.6556    0.0000 C   0  0  0  0  0  0  0  0  0  0  0  0
    4.5718    4.0681    0.0000 C   0  0  0  0  0  0  0  0  0  0  0  0
    5.2863    3.6556    0.0000 C   0  0  0  0  0  0  0  0  0  0  0  0
    5.2863    2.8306    0.0000 C   0  0  0  0  0  0  0  0  0  0  0  0
    4.5718    2.4181    0.0000 C   0  0  0  0  0  0  0  0  0  0  0  0
    3.8574    2.8306    0.0000 C   0  0  0  0  0  0  0  0  0  0  0  0
    3.1429    2.6251    0.0000 H   0  0  0  0  0  0  0  0  0  0  0  0
    1.5347    1.6966    0.0000 H   0  0  0  0  0  0  0  0  0  0  0  0
    3.1429   -1.0889    0.0000 H   0  0  0  0  0  0  0  0  0  0  0  0
    4.7511   -0.1604    0.0000 H   0  0  0  0  0  0  0  0  0  0  0  0
   -1.3232   -3.2534    0.0000 H   0  0  0  0  0  0  0  0  0  0  0  0
    0.2850   -2.3249    0.0000 H   0  0  0  0  0  0  0  0  0  0  0  0
    1.8932   -5.1104    0.0000 H   0  0  0  0  0  0  0  0  0  0  0  0
    0.2850   -6.0389    0.0000 H   0  0  0  0  0  0  0  0  0  0  0  0
    0.2850    0.1501    0.0000 H   0  0  0  0  0  0  0  0  0  0  0  0
   -1.3232   -0.7784    0.0000 H   0  0  0  0  0  0  0  0  0  0  0  0
   -1.3232   -2.6354    0.0000 H   0  0  0  0  0  0  0  0  0  0  0  0
    2.5665   -2.0397    0.0000 H   0  0  0  0  0  0  0  0  0  0  0  0
    2.6406   -3.8919    0.0000 H   0  0  0  0  0  0  0  0  0  0  0  0
    2.6405   -2.8219    0.0000 H   0  0  0  0  0  0  0  0  0  0  0  0
    0.8613    0.4354    0.0000 H   0  0  0  0  0  0  0  0  0  0  0  0
    2.9637    4.1716    0.0000 H   0  0  0  0  0  0  0  0  0  0  0  0
    4.5718    5.1001    0.0000 H   0  0  0  0  0  0  0  0  0  0  0  0
    6.1800    4.1716    0.0000 H   0  0  0  0  0  0  0  0  0  0  0  0
    6.1800    2.3146    0.0000 H   0  0  0  0  0  0  0  0  0  0  0  0
    2.9637    2.3146    0.0000 H   0  0  0  0  0  0  0  0  0  0  0  0
  1  6  2  0  0  0  0
  1 31  1  0  0  0  0
  2  1  1  0  0  0  0
  2 32  1  0  0  0  0
  3  2  2  0  0  0  0
  3  4  1  0  0  0  0
  4  5  2  0  0  0  0
  4 33  1  0  0  0  0
  5  6  1  0  0  0  0
  5 34  1  0  0  0  0
  6 24  1  0  0  0  0
  7  9  2  0  0  0  0
  7 35  1  0  0  0  0
  8  7  1  0  0  0  0
  9 36  1  0  0  0  0
 10  9  1  0  0  0  0
 10 20  1  0  0  0  0
 11 10  2  0  0  0  0
 11 37  1  0  0  0  0
 12  8  2  0  0  0  0
 12 11  1  0  0  0  0
 12 38  1  0  0  0  0
 13 21  1  0  0  0  0
 14 13  1  0  0  0  0
 14 39  1  0  0  0  0
 15 14  2  0  0  0  0
 15 40  1  0  0  0  0
 16 17  2  0  0  0  0
 16 15  1  0  0  0  0
 16 41  1  0  0  0  0
 17 18  1  0  0  0  0
 18 19  1  0  0  0  0
 18 13  2  0  0  0  0
 19 42  1  0  0  0  0
 20 19  1  0  0  0  0
 20 43  1  0  0  0  0
 20 44  1  0  0  0  0
 21 23  2  0  0  0  0
 21 22  1  0  0  0  0
 22  3  1  0  0  0  0
 22 45  1  0  0  0  0
 24 29  1  0  0  0  0
 25 26  1  0  0  0  0
 25 46  1  0  0  0  0
 26 47  1  0  0  0  0
 27 26  2  0  0  0  0
 27 48  1  0  0  0  0
 28 27  1  0  0  0  0
 28 49  1  0  0  0  0
 29 28  2  0  0  0  0
 29 30  1  0  0  0  0
 30 25  2  0  0  0  0
 30 50  1  0  0  0  0
M  END
>  <DRUGBANK_ID>
DB07183

>  <COMMON_NAME>
N-(4-phenoxyphenyl)-2-[(pyridin-4-ylmethyl)amino]nicotinamide

$$$$
