
 OpenBabel10282417072D

  8  7  0  0  0  0  0  0  0  0999 V2000
   16.2523   -9.8275    0.0000 O   0  0  0  0  0  0  0  0  0  0  0  0
   16.6648  -10.5419    0.0000 P   0  0  0  0  0  0  0  0  0  0  0  0
   15.9504  -10.9544    0.0000 O   0  0  0  0  0  0  0  0  0  0  0  0
   17.0773  -11.2564    0.0000 O   0  0  0  0  0  0  0  0  0  0  0  0
   17.3793  -10.1294    0.0000 O   0  0  0  0  0  0  0  0  0  0  0  0
   15.1103  -10.4694    0.0000 H   0  0  0  0  0  0  0  0  0  0  0  0
   16.5923  -12.0964    0.0000 H   0  0  0  0  0  0  0  0  0  0  0  0
   18.2193  -10.6144    0.0000 H   0  0  0  0  0  0  0  0  0  0  0  0
  2  1  2  0  0  0  0
  3  2  1  0  0  0  0
  3  6  1  0  0  0  0
  4  2  1  0  0  0  0
  4  7  1  0  0  0  0
  5  2  1  0  0  0  0
  5  8  1  0  0  0  0
M  END
>  <DRUGBANK_ID>
DB09394

>  <COMMON_NAME>
Phosphoric acid

>  <CAS_NUMBER>
7664-38-2

>  <UNII>
E4GA8884NN

$$$$
