
 OpenBabel10282417072D

  5  2  0  0  0  0  0  0  0  0999 V2000
    0.4125    0.0000    0.0000 N   0  5  0  0  0  0  0  0  0  0  0  0
    2.7696    0.0000    0.0000 Cl  0  5  0  0  0  0  0  0  0  0  0  0
   -0.4125    0.0000    0.0000 Hg  0  2  0  0  0  0  0  0  0  0  0  0
    1.4325    0.0000    0.0000 H   0  0  0  0  0  0  0  0  0  0  0  0
   -0.0975    0.8833    0.0000 H   0  0  0  0  0  0  0  0  0  0  0  0
  1  4  1  0  0  0  0
  1  5  1  0  0  0  0
M  CHG  3   1  -1   2  -1   3   2
M  END
>  <DRUGBANK_ID>
DB13344

>  <COMMON_NAME>
Mercuric amidochloride

>  <CAS_NUMBER>
10124-48-8

>  <UNII>
JD546Z56F0

>  <SYNONYMS>
Mercuric chloride, ammoniated

$$$$
