
 OpenBabel10282417072D

 18 18  0  0  0  0  0  0  0  0999 V2000
    0.5678    1.9393    0.0000 C   0  0  0  0  0  0  0  0  0  0  0  0
    0.5678    1.1143    0.0000 C   0  0  0  0  0  0  0  0  0  0  0  0
    1.2352    0.6294    0.0000 C   0  0  0  0  0  0  0  0  0  0  0  0
    0.9803   -0.1553    0.0000 C   0  0  0  0  0  0  0  0  0  0  0  0
    0.1553   -0.1553    0.0000 C   0  0  0  0  0  0  0  0  0  0  0  0
   -0.0997    0.6294    0.0000 O   0  0  0  0  0  0  0  0  0  0  0  0
   -0.3297   -0.8227    0.0000 S   0  0  0  0  0  0  0  0  0  0  0  0
   -0.9971   -0.3378    0.0000 O   0  0  0  0  0  0  0  0  0  0  0  0
    0.3378   -1.3076    0.0000 O   0  0  0  0  0  0  0  0  0  0  0  0
   -0.8146   -1.4901    0.0000 N   0  0  0  0  0  0  0  0  0  0  0  0
   -0.4790   -2.2438    0.0000 O   0  0  0  0  0  0  0  0  0  0  0  0
    1.4944    2.4743    0.0000 H   0  0  0  0  0  0  0  0  0  0  0  0
   -0.3588    2.4743    0.0000 H   0  0  0  0  0  0  0  0  0  0  0  0
    0.5678    3.0093    0.0000 H   0  0  0  0  0  0  0  0  0  0  0  0
    2.2167    0.9483    0.0000 H   0  0  0  0  0  0  0  0  0  0  0  0
    1.5869   -0.9902    0.0000 H   0  0  0  0  0  0  0  0  0  0  0  0
   -1.8290   -1.3835    0.0000 H   0  0  0  0  0  0  0  0  0  0  0  0
   -1.0491   -3.0286    0.0000 H   0  0  0  0  0  0  0  0  0  0  0  0
  1  2  1  0  0  0  0
  1 12  1  0  0  0  0
  1 13  1  0  0  0  0
  1 14  1  0  0  0  0
  2  3  2  0  0  0  0
  2  6  1  0  0  0  0
  3  4  1  0  0  0  0
  3 15  1  0  0  0  0
  4  5  2  0  0  0  0
  4 16  1  0  0  0  0
  5  6  1  0  0  0  0
  5  7  1  0  0  0  0
  7  8  2  0  0  0  0
  7  9  2  0  0  0  0
  7 10  1  0  0  0  0
 10 11  1  0  0  0  0
 10 17  1  0  0  0  0
 11 18  1  0  0  0  0
M  END
>  <DRUGBANK_ID>
DB14983

>  <COMMON_NAME>
Cimlanod

>  <CAS_NUMBER>
1620330-72-4

>  <UNII>
2US4FK1EPV

>  <SYNONYMS>
BMS-986231; Cimlanod

$$$$
