
 OpenBabel10282417072D

 57 59  0  0  1  0  0  0  0  0999 V2000
   -8.0591    2.3987    0.0000 N   0  0  0  0  0  0  0  0  0  0  0  0
   -7.3054    2.0632    0.0000 C   0  0  0  0  0  0  0  0  0  0  0  0
   -6.6380    2.5481    0.0000 C   0  0  0  0  0  0  0  0  0  0  0  0
   -6.5518    3.3686    0.0000 N   0  0  0  0  0  0  0  0  0  0  0  0
   -5.7448    3.5401    0.0000 C   0  0  0  0  0  0  0  0  0  0  0  0
   -5.3323    2.8256    0.0000 N   0  0  0  0  0  0  0  0  0  0  0  0
   -4.5118    2.7394    0.0000 C   0  0  2  0  0  0  0  0  0  0  0  0
   -3.9598    3.3525    0.0000 O   0  0  0  0  0  0  0  0  0  0  0  0
   -3.2061    3.0169    0.0000 C   0  0  2  0  0  0  0  0  0  0  0  0
   -2.4916    3.4294    0.0000 C   0  0  0  0  0  0  0  0  0  0  0  0
   -1.7772    3.0169    0.0000 O   0  0  0  0  0  0  0  0  0  0  0  0
   -1.0627    3.4294    0.0000 P   0  0  1  0  0  0  0  0  0  0  0  0
   -0.6502    2.7150    0.0000 O   0  0  0  0  0  0  0  0  0  0  0  0
   -1.4752    4.1439    0.0000 O   0  0  0  0  0  0  0  0  0  0  0  0
   -0.3482    3.8419    0.0000 O   0  0  0  0  0  0  0  0  0  0  0  0
    0.3663    3.4294    0.0000 P   0  0  2  0  0  0  0  0  0  0  0  0
   -0.0462    2.7150    0.0000 O   0  0  0  0  0  0  0  0  0  0  0  0
    0.7788    4.1439    0.0000 O   0  0  0  0  0  0  0  0  0  0  0  0
    1.0807    3.0169    0.0000 O   0  0  0  0  0  0  0  0  0  0  0  0
    1.7952    3.4294    0.0000 P   0  0  1  0  0  0  0  0  0  0  0  0
    2.2077    2.7150    0.0000 O   0  0  0  0  0  0  0  0  0  0  0  0
    1.3827    4.1439    0.0000 O   0  0  0  0  0  0  0  0  0  0  0  0
    2.5097    3.8419    0.0000 O   0  0  0  0  0  0  0  0  0  0  0  0
    3.2241    3.4294    0.0000 P   0  0  1  0  0  0  0  0  0  0  0  0
    2.8116    2.7150    0.0000 O   0  0  0  0  0  0  0  0  0  0  0  0
    3.6366    4.1439    0.0000 O   0  0  0  0  0  0  0  0  0  0  0  0
    3.9386    3.0169    0.0000 O   0  0  0  0  0  0  0  0  0  0  0  0
    4.6531    3.4294    0.0000 P   0  0  0  0  0  0  0  0  0  0  0  0
    5.3676    3.8419    0.0000 O   0  0  0  0  0  0  0  0  0  0  0  0
    5.0656    2.7150    0.0000 O   0  0  0  0  0  0  0  0  0  0  0  0
    4.2406    4.1439    0.0000 O   0  0  0  0  0  0  0  0  0  0  0  0
   -3.2923    2.1964    0.0000 C   0  0  1  0  0  0  0  0  0  0  0  0
   -2.6792    1.6444    0.0000 O   0  0  0  0  0  0  0  0  0  0  0  0
   -4.0993    2.0249    0.0000 C   0  0  1  0  0  0  0  0  0  0  0  0
   -4.4349    1.2712    0.0000 O   0  0  0  0  0  0  0  0  0  0  0  0
   -5.8843    2.2125    0.0000 C   0  0  0  0  0  0  0  0  0  0  0  0
   -5.7981    1.3920    0.0000 N   0  0  0  0  0  0  0  0  0  0  0  0
   -6.4655    0.9071    0.0000 C   0  0  0  0  0  0  0  0  0  0  0  0
   -7.2192    1.2427    0.0000 N   0  0  0  0  0  0  0  0  0  0  0  0
   -8.1621    3.3778    0.0000 H   0  0  0  0  0  0  0  0  0  0  0  0
   -8.8555    1.8200    0.0000 H   0  0  0  0  0  0  0  0  0  0  0  0
   -5.3250    4.4829    0.0000 H   0  0  0  0  0  0  0  0  0  0  0  0
   -4.8953    3.7383    0.0000 H   0  0  0  0  0  0  0  0  0  0  0  0
   -3.2621    4.0854    0.0000 H   0  0  0  0  0  0  0  0  0  0  0  0
   -2.4916    4.4994    0.0000 H   0  0  0  0  0  0  0  0  0  0  0  0
   -1.5649    3.9644    0.0000 H   0  0  0  0  0  0  0  0  0  0  0  0
   -1.1352    1.8749    0.0000 H   0  0  0  0  0  0  0  0  0  0  0  0
   -1.0162    2.7150    0.0000 H   0  0  0  0  0  0  0  0  0  0  0  0
    1.7227    1.8749    0.0000 H   0  0  0  0  0  0  0  0  0  0  0  0
    1.8416    2.7150    0.0000 H   0  0  0  0  0  0  0  0  0  0  0  0
    6.2076    3.3569    0.0000 H   0  0  0  0  0  0  0  0  0  0  0  0
    4.5806    1.8749    0.0000 H   0  0  0  0  0  0  0  0  0  0  0  0
   -2.2934    2.5799    0.0000 H   0  0  0  0  0  0  0  0  0  0  0  0
   -2.8808    0.6956    0.0000 H   0  0  0  0  0  0  0  0  0  0  0  0
   -3.4260    1.1933    0.0000 H   0  0  0  0  0  0  0  0  0  0  0  0
   -5.3996    1.1698    0.0000 H   0  0  0  0  0  0  0  0  0  0  0  0
   -6.3576   -0.1192    0.0000 H   0  0  0  0  0  0  0  0  0  0  0  0
  1  2  1  0  0  0  0
  1 40  1  0  0  0  0
  1 41  1  0  0  0  0
  2  3  2  0  0  0  0
  2 39  1  0  0  0  0
  3  4  1  0  0  0  0
  3 36  1  0  0  0  0
  4  5  2  0  0  0  0
  5  6  1  0  0  0  0
  5 42  1  0  0  0  0
  6 36  1  0  0  0  0
  7  6  1  0  0  0  0
  7  8  1  0  0  0  0
  7 34  1  0  0  0  0
  7 43  1  1  0  0  0
  8  9  1  0  0  0  0
  9 10  1  0  0  0  0
  9 32  1  0  0  0  0
  9 44  1  1  0  0  0
 10 11  1  0  0  0  0
 10 45  1  0  0  0  0
 10 46  1  0  0  0  0
 12 11  1  0  0  0  0
 12 13  1  0  0  0  0
 12 14  2  6  0  0  0
 12 15  1  0  0  0  0
 13 47  1  0  0  0  0
 16 15  1  0  0  0  0
 16 17  1  0  0  0  0
 16 18  2  1  0  0  0
 16 19  1  0  0  0  0
 17 48  1  0  0  0  0
 20 19  1  0  0  0  0
 20 21  1  0  0  0  0
 20 22  2  6  0  0  0
 20 23  1  0  0  0  0
 21 49  1  0  0  0  0
 24 23  1  0  0  0  0
 24 25  1  0  0  0  0
 24 26  2  6  0  0  0
 24 27  1  0  0  0  0
 25 50  1  0  0  0  0
 27 28  1  0  0  0  0
 28 29  1  0  0  0  0
 28 30  1  0  0  0  0
 28 31  2  0  0  0  0
 29 51  1  0  0  0  0
 30 52  1  0  0  0  0
 32 33  1  0  0  0  0
 32 34  1  0  0  0  0
 32 53  1  6  0  0  0
 33 54  1  0  0  0  0
 34 35  1  0  0  0  0
 34 55  1  6  0  0  0
 35 56  1  0  0  0  0
 36 37  2  0  0  0  0
 37 38  1  0  0  0  0
 38 39  2  0  0  0  0
 38 57  1  0  0  0  0
M  END
>  <DRUGBANK_ID>
DB02738

>  <SECONDARY_ACCESSION_NUMBERS>
EXPT00244

>  <COMMON_NAME>
Adenosine-5'-Pentaphosphate

$$$$
