CB3
 OpenBabel10282417072D

 58 60  0  0  0  0  0  0  0  0999 V2000
   -4.5072   -1.5584    0.0000 N   0  0  0  0  0  0  0  0  0  0  0  0
   -5.2217   -1.1459    0.0000 C   0  0  0  0  0  0  0  0  0  0  0  0
   -5.9361   -1.5584    0.0000 N   0  0  0  0  0  0  0  0  0  0  0  0
   -5.2217   -0.3209    0.0000 N   0  0  0  0  0  0  0  0  0  0  0  0
   -4.5072    0.0916    0.0000 C   0  0  0  0  0  0  0  0  0  0  0  0
   -4.5072    0.9166    0.0000 O   0  0  0  0  0  0  0  0  0  0  0  0
   -3.7927   -0.3209    0.0000 C   0  0  0  0  0  0  0  0  0  0  0  0
   -3.0782    0.0916    0.0000 C   0  0  0  0  0  0  0  0  0  0  0  0
   -2.3638   -0.3209    0.0000 C   0  0  0  0  0  0  0  0  0  0  0  0
   -2.3638   -1.1459    0.0000 C   0  0  0  0  0  0  0  0  0  0  0  0
   -3.0782   -1.5584    0.0000 C   0  0  0  0  0  0  0  0  0  0  0  0
   -3.7927   -1.1459    0.0000 C   0  0  0  0  0  0  0  0  0  0  0  0
   -1.6493    0.0916    0.0000 C   0  0  0  0  0  0  0  0  0  0  0  0
   -0.9348   -0.3209    0.0000 N   0  0  0  0  0  0  0  0  0  0  0  0
    1.2086    0.9166    0.0000 C   0  0  0  0  0  0  0  0  0  0  0  0
    1.2086    0.0916    0.0000 C   0  0  0  0  0  0  0  0  0  0  0  0
    0.4941   -0.3209    0.0000 C   0  0  0  0  0  0  0  0  0  0  0  0
   -0.2204    0.0916    0.0000 C   0  0  0  0  0  0  0  0  0  0  0  0
   -0.2204    0.9166    0.0000 C   0  0  0  0  0  0  0  0  0  0  0  0
    0.4941    1.3291    0.0000 C   0  0  0  0  0  0  0  0  0  0  0  0
    1.9231    1.3291    0.0000 C   0  0  0  0  0  0  0  0  0  0  0  0
    1.9231    2.1541    0.0000 O   0  0  0  0  0  0  0  0  0  0  0  0
    2.6375    0.9166    0.0000 N   0  0  0  0  0  0  0  0  0  0  0  0
    3.3520    1.3291    0.0000 C   0  0  1  0  0  0  0  0  0  0  0  0
    4.0665    0.9166    0.0000 C   0  0  0  0  0  0  0  0  0  0  0  0
    4.7809    1.3291    0.0000 C   0  0  0  0  0  0  0  0  0  0  0  0
    5.4954    0.9166    0.0000 C   0  0  0  0  0  0  0  0  0  0  0  0
    6.2099    1.3291    0.0000 O   0  0  0  0  0  0  0  0  0  0  0  0
    5.4954    0.0916    0.0000 O   0  0  0  0  0  0  0  0  0  0  0  0
    3.3520    2.1541    0.0000 C   0  0  0  0  0  0  0  0  0  0  0  0
    4.0665    2.5666    0.0000 O   0  0  0  0  0  0  0  0  0  0  0  0
    2.6375    2.5666    0.0000 O   0  0  0  0  0  0  0  0  0  0  0  0
   -0.9348   -1.1459    0.0000 C   0  0  0  0  0  0  0  0  0  0  0  0
   -1.6493   -1.5584    0.0000 C   0  0  0  0  0  0  0  0  0  0  0  0
   -2.3638   -1.9709    0.0000 C   0  0  0  0  0  0  0  0  0  0  0  0
    3.3520    0.7451    0.0000 H   0  0  0  0  0  0  0  0  0  0  0  0
   -4.5072   -2.5429    0.0000 H   0  0  0  0  0  0  0  0  0  0  0  0
   -6.7887   -1.0662    0.0000 H   0  0  0  0  0  0  0  0  0  0  0  0
   -5.9361   -2.5429    0.0000 H   0  0  0  0  0  0  0  0  0  0  0  0
   -3.0782    1.1236    0.0000 H   0  0  0  0  0  0  0  0  0  0  0  0
   -1.4701   -1.6619    0.0000 H   0  0  0  0  0  0  0  0  0  0  0  0
   -3.0782   -2.5904    0.0000 H   0  0  0  0  0  0  0  0  0  0  0  0
   -1.6493    1.1616    0.0000 H   0  0  0  0  0  0  0  0  0  0  0  0
   -0.7227    0.6266    0.0000 H   0  0  0  0  0  0  0  0  0  0  0  0
    2.1023   -0.4244    0.0000 H   0  0  0  0  0  0  0  0  0  0  0  0
    0.4941   -1.3529    0.0000 H   0  0  0  0  0  0  0  0  0  0  0  0
   -1.1141    1.4326    0.0000 H   0  0  0  0  0  0  0  0  0  0  0  0
    0.4941    2.3611    0.0000 H   0  0  0  0  0  0  0  0  0  0  0  0
    2.6375   -0.0679    0.0000 H   0  0  0  0  0  0  0  0  0  0  0  0
    4.0665   -0.1534    0.0000 H   0  0  0  0  0  0  0  0  0  0  0  0
    4.9932    0.3816    0.0000 H   0  0  0  0  0  0  0  0  0  0  0  0
    4.7809    2.3991    0.0000 H   0  0  0  0  0  0  0  0  0  0  0  0
    5.7075    1.8641    0.0000 H   0  0  0  0  0  0  0  0  0  0  0  0
    4.6839   -0.3769    0.0000 H   0  0  0  0  0  0  0  0  0  0  0  0
    2.6375    3.5036    0.0000 H   0  0  0  0  0  0  0  0  0  0  0  0
   -0.0082   -1.6809    0.0000 H   0  0  0  0  0  0  0  0  0  0  0  0
   -0.9348   -2.2159    0.0000 H   0  0  0  0  0  0  0  0  0  0  0  0
   -3.2246   -2.4679    0.0000 H   0  0  0  0  0  0  0  0  0  0  0  0
  1  2  1  0  0  0  0
  1 12  1  0  0  0  0
  1 37  1  0  0  0  0
  2  3  1  0  0  0  0
  2  4  2  0  0  0  0
  3 38  1  0  0  0  0
  3 39  1  0  0  0  0
  4  5  1  0  0  0  0
  5  6  2  0  0  0  0
  5  7  1  0  0  0  0
  7  8  2  0  0  0  0
  7 12  1  0  0  0  0
  8  9  1  0  0  0  0
  8 40  1  0  0  0  0
  9 10  2  0  0  0  0
  9 13  1  0  0  0  0
 10 11  1  0  0  0  0
 10 41  1  0  0  0  0
 11 12  2  0  0  0  0
 11 42  1  0  0  0  0
 13 14  1  0  0  0  0
 13 43  1  0  0  0  0
 13 44  1  0  0  0  0
 14 18  1  0  0  0  0
 14 33  1  0  0  0  0
 15 16  2  0  0  0  0
 15 20  1  0  0  0  0
 15 21  1  0  0  0  0
 16 17  1  0  0  0  0
 16 45  1  0  0  0  0
 17 18  2  0  0  0  0
 17 46  1  0  0  0  0
 18 19  1  0  0  0  0
 19 20  2  0  0  0  0
 19 47  1  0  0  0  0
 20 48  1  0  0  0  0
 21 22  2  0  0  0  0
 21 23  1  0  0  0  0
 23 49  1  0  0  0  0
 24 23  1  0  0  0  0
 24 25  1  0  0  0  0
 24 30  1  0  0  0  0
 24 36  1  1  0  0  0
 25 26  1  0  0  0  0
 25 50  1  0  0  0  0
 25 51  1  0  0  0  0
 26 27  1  0  0  0  0
 26 52  1  0  0  0  0
 26 53  1  0  0  0  0
 27 28  2  0  0  0  0
 27 29  1  0  0  0  0
 29 54  1  0  0  0  0
 30 31  2  0  0  0  0
 30 32  1  0  0  0  0
 32 55  1  0  0  0  0
 33 34  1  0  0  0  0
 33 56  1  0  0  0  0
 33 57  1  0  0  0  0
 34 35  3  0  0  0  0
 35 58  1  0  0  0  0
M  END
>  <DRUGBANK_ID>
DB03541

>  <SECONDARY_ACCESSION_NUMBERS>
EXPT00839

>  <COMMON_NAME>
10-Propargyl-5,8-Dideazafolic Acid

$$$$
