BVL
 OpenBabel10282417072D

 47 48  0  0  0  0  0  0  0  0999 V2000
   -3.2984   -0.8559    0.0000 C   0  0  0  0  0  0  0  0  0  0  0  0
   -4.0129   -2.0934    0.0000 C   0  0  0  0  0  0  0  0  0  0  0  0
   -3.2984   -2.5059    0.0000 C   0  0  0  0  0  0  0  0  0  0  0  0
   -2.5840   -2.0934    0.0000 C   0  0  0  0  0  0  0  0  0  0  0  0
   -1.1550    1.2066    0.0000 O   0  0  0  0  0  0  0  0  0  0  0  0
   -1.1550    0.3816    0.0000 C   0  0  0  0  0  0  0  0  0  0  0  0
   -1.8695   -0.0309    0.0000 C   0  0  0  0  0  0  0  0  0  0  0  0
   -1.8695   -0.8559    0.0000 C   0  0  0  0  0  0  0  0  0  0  0  0
   -2.5840   -1.2684    0.0000 C   0  0  0  0  0  0  0  0  0  0  0  0
   -4.0129   -1.2684    0.0000 C   0  0  0  0  0  0  0  0  0  0  0  0
   -4.7274   -2.5059    0.0000 O   0  0  0  0  0  0  0  0  0  0  0  0
   -0.4406   -0.0309    0.0000 C   0  0  0  0  0  0  0  0  0  0  0  0
   -0.4406   -0.8559    0.0000 C   0  0  0  0  0  0  0  0  0  0  0  0
   -1.1550   -1.2684    0.0000 O   0  0  0  0  0  0  0  0  0  0  0  0
    0.2739   -1.2684    0.0000 C   0  0  0  0  0  0  0  0  0  0  0  0
    0.9884   -0.8559    0.0000 C   0  0  0  0  0  0  0  0  0  0  0  0
    1.7029   -1.2684    0.0000 O   0  0  0  0  0  0  0  0  0  0  0  0
    2.4173   -0.8559    0.0000 C   0  0  0  0  0  0  0  0  0  0  0  0
    0.9884   -0.0309    0.0000 C   0  0  0  0  0  0  0  0  0  0  0  0
    0.2739    0.3816    0.0000 C   0  0  0  0  0  0  0  0  0  0  0  0
    1.7029    0.3816    0.0000 C   0  0  0  0  0  0  0  0  0  0  0  0
    1.7029    1.2066    0.0000 C   0  0  0  0  0  0  0  0  0  0  0  0
    2.4173    1.6191    0.0000 C   0  0  0  0  0  0  0  0  0  0  0  0
    2.4173    2.4441    0.0000 C   0  0  0  0  0  0  0  0  0  0  0  0
    3.1318    1.2066    0.0000 C   0  0  0  0  0  0  0  0  0  0  0  0
   -3.2984    0.1761    0.0000 H   0  0  0  0  0  0  0  0  0  0  0  0
   -3.2984   -3.5379    0.0000 H   0  0  0  0  0  0  0  0  0  0  0  0
   -1.6903   -2.6094    0.0000 H   0  0  0  0  0  0  0  0  0  0  0  0
   -2.7632    0.4851    0.0000 H   0  0  0  0  0  0  0  0  0  0  0  0
   -0.9758   -1.3719    0.0000 H   0  0  0  0  0  0  0  0  0  0  0  0
   -4.9066   -0.7524    0.0000 H   0  0  0  0  0  0  0  0  0  0  0  0
   -5.5389   -2.0374    0.0000 H   0  0  0  0  0  0  0  0  0  0  0  0
   -1.9665   -0.7999    0.0000 H   0  0  0  0  0  0  0  0  0  0  0  0
    0.2739   -2.3004    0.0000 H   0  0  0  0  0  0  0  0  0  0  0  0
    3.3440   -1.3909    0.0000 H   0  0  0  0  0  0  0  0  0  0  0  0
    2.4173    0.2141    0.0000 H   0  0  0  0  0  0  0  0  0  0  0  0
    3.3439   -0.3209    0.0000 H   0  0  0  0  0  0  0  0  0  0  0  0
    0.2739    1.4136    0.0000 H   0  0  0  0  0  0  0  0  0  0  0  0
    2.6295   -0.1534    0.0000 H   0  0  0  0  0  0  0  0  0  0  0  0
    2.6295    0.9166    0.0000 H   0  0  0  0  0  0  0  0  0  0  0  0
    0.8092    1.7226    0.0000 H   0  0  0  0  0  0  0  0  0  0  0  0
    3.3439    2.9791    0.0000 H   0  0  0  0  0  0  0  0  0  0  0  0
    1.4907    2.9791    0.0000 H   0  0  0  0  0  0  0  0  0  0  0  0
    2.4173    3.5141    0.0000 H   0  0  0  0  0  0  0  0  0  0  0  0
    3.1318    0.1366    0.0000 H   0  0  0  0  0  0  0  0  0  0  0  0
    4.0584    1.7416    0.0000 H   0  0  0  0  0  0  0  0  0  0  0  0
    4.0585    0.6716    0.0000 H   0  0  0  0  0  0  0  0  0  0  0  0
  1  9  1  0  0  0  0
  1 26  1  0  0  0  0
  2  3  2  0  0  0  0
  3  4  1  0  0  0  0
  3 27  1  0  0  0  0
  4 28  1  0  0  0  0
  6  7  1  0  0  0  0
  6  5  2  0  0  0  0
  7 29  1  0  0  0  0
  8  7  2  0  0  0  0
  8 30  1  0  0  0  0
  9  8  1  0  0  0  0
  9  4  2  0  0  0  0
 10  1  2  0  0  0  0
 10  2  1  0  0  0  0
 10 31  1  0  0  0  0
 11  2  1  0  0  0  0
 11 32  1  0  0  0  0
 12 20  1  0  0  0  0
 12  6  1  0  0  0  0
 13 12  2  0  0  0  0
 14 13  1  0  0  0  0
 14 33  1  0  0  0  0
 15 16  2  0  0  0  0
 15 13  1  0  0  0  0
 15 34  1  0  0  0  0
 16 19  1  0  0  0  0
 17 16  1  0  0  0  0
 18 17  1  0  0  0  0
 18 35  1  0  0  0  0
 18 36  1  0  0  0  0
 18 37  1  0  0  0  0
 19 21  1  0  0  0  0
 19 20  2  0  0  0  0
 20 38  1  0  0  0  0
 21 22  1  0  0  0  0
 21 39  1  0  0  0  0
 21 40  1  0  0  0  0
 22 23  2  0  0  0  0
 22 41  1  0  0  0  0
 23 25  1  0  0  0  0
 24 23  1  0  0  0  0
 24 42  1  0  0  0  0
 24 43  1  0  0  0  0
 24 44  1  0  0  0  0
 25 45  1  0  0  0  0
 25 46  1  0  0  0  0
 25 47  1  0  0  0  0
M  END
>  <DRUGBANK_ID>
DB07500

>  <COMMON_NAME>
(2E)-1-[2-hydroxy-4-methoxy-5-(3-methylbut-2-en-1-yl)phenyl]-3-(4-hydroxyphenyl)prop-2-en-1-one

$$$$
