MOY
 OpenBabel10282417072D

 42 44  0  0  0  0  0  0  0  0999 V2000
    1.9518   -1.5293    0.0000 S   0  0  0  0  0  0  0  0  0  0  0  0
   -0.9060    0.9457    0.0000 O   0  0  0  0  0  0  0  0  0  0  0  0
   -0.9060    2.5957    0.0000 O   0  0  0  0  0  0  0  0  0  0  0  0
    1.2374   -0.2918    0.0000 N   0  0  0  0  0  0  0  0  0  0  0  0
    0.5229   -1.5293    0.0000 N   0  0  0  0  0  0  0  0  0  0  0  0
    1.2374   -1.1168    0.0000 C   0  0  0  0  0  0  0  0  0  0  0  0
   -0.1916   -1.1168    0.0000 C   0  0  0  0  0  0  0  0  0  0  0  0
   -0.1916   -0.2918    0.0000 C   0  0  0  0  0  0  0  0  0  0  0  0
    0.5229    0.1207    0.0000 C   0  0  1  0  0  0  0  0  0  0  0  0
    0.5229   -2.3543    0.0000 C   0  0  0  0  0  0  0  0  0  0  0  0
   -0.9060   -1.5293    0.0000 C   0  0  0  0  0  0  0  0  0  0  0  0
   -0.9060    0.1207    0.0000 C   0  0  0  0  0  0  0  0  0  0  0  0
   -1.6205   -0.2918    0.0000 C   0  0  0  0  0  0  0  0  0  0  0  0
   -2.3350    0.1207    0.0000 C   0  0  0  0  0  0  0  0  0  0  0  0
   -3.0494   -0.2918    0.0000 C   0  0  0  0  0  0  0  0  0  0  0  0
   -3.0494   -1.1168    0.0000 C   0  0  0  0  0  0  0  0  0  0  0  0
   -2.3350   -1.5293    0.0000 C   0  0  0  0  0  0  0  0  0  0  0  0
   -1.6205   -1.1168    0.0000 C   0  0  0  0  0  0  0  0  0  0  0  0
    0.5229    0.9457    0.0000 C   0  0  0  0  0  0  0  0  0  0  0  0
   -0.1916    1.3582    0.0000 C   0  0  0  0  0  0  0  0  0  0  0  0
   -0.1916    2.1832    0.0000 C   0  0  0  0  0  0  0  0  0  0  0  0
    0.5229    2.5957    0.0000 C   0  0  0  0  0  0  0  0  0  0  0  0
    1.2374    2.1832    0.0000 C   0  0  0  0  0  0  0  0  0  0  0  0
    1.2374    1.3582    0.0000 C   0  0  0  0  0  0  0  0  0  0  0  0
    1.0286    0.4127    0.0000 H   0  0  0  0  0  0  0  0  0  0  0  0
   -0.9060    3.5327    0.0000 H   0  0  0  0  0  0  0  0  0  0  0  0
    2.0900    0.2005    0.0000 H   0  0  0  0  0  0  0  0  0  0  0  0
   -0.4037   -2.8893    0.0000 H   0  0  0  0  0  0  0  0  0  0  0  0
    1.4495   -2.8893    0.0000 H   0  0  0  0  0  0  0  0  0  0  0  0
    0.5229   -3.4243    0.0000 H   0  0  0  0  0  0  0  0  0  0  0  0
   -1.8327   -0.9943    0.0000 H   0  0  0  0  0  0  0  0  0  0  0  0
   -0.9060   -2.5993    0.0000 H   0  0  0  0  0  0  0  0  0  0  0  0
   -1.8326   -2.0643    0.0000 H   0  0  0  0  0  0  0  0  0  0  0  0
   -2.3350    1.1527    0.0000 H   0  0  0  0  0  0  0  0  0  0  0  0
   -3.9431    0.2242    0.0000 H   0  0  0  0  0  0  0  0  0  0  0  0
   -3.9431   -1.6328    0.0000 H   0  0  0  0  0  0  0  0  0  0  0  0
   -2.3350   -2.5613    0.0000 H   0  0  0  0  0  0  0  0  0  0  0  0
   -0.7268   -1.6328    0.0000 H   0  0  0  0  0  0  0  0  0  0  0  0
   -1.0853    0.8422    0.0000 H   0  0  0  0  0  0  0  0  0  0  0  0
    0.5229    3.6277    0.0000 H   0  0  0  0  0  0  0  0  0  0  0  0
    2.1311    2.6992    0.0000 H   0  0  0  0  0  0  0  0  0  0  0  0
    2.1311    0.8422    0.0000 H   0  0  0  0  0  0  0  0  0  0  0  0
  1  6  2  0  0  0  0
  2 12  2  0  0  0  0
  3 21  1  0  0  0  0
  3 26  1  0  0  0  0
  4  6  1  0  0  0  0
  4  9  1  0  0  0  0
  4 27  1  0  0  0  0
  5  7  1  0  0  0  0
  5  6  1  0  0  0  0
  5 10  1  0  0  0  0
  7 11  1  0  0  0  0
  7  8  2  0  0  0  0
  8 12  1  0  0  0  0
  8  9  1  0  0  0  0
  9 19  1  0  0  0  0
  9 25  1  6  0  0  0
 10 28  1  0  0  0  0
 10 29  1  0  0  0  0
 10 30  1  0  0  0  0
 11 31  1  0  0  0  0
 11 32  1  0  0  0  0
 11 33  1  0  0  0  0
 12 13  1  0  0  0  0
 13 18  2  0  0  0  0
 13 14  1  0  0  0  0
 14 15  2  0  0  0  0
 14 34  1  0  0  0  0
 15 16  1  0  0  0  0
 15 35  1  0  0  0  0
 16 17  2  0  0  0  0
 16 36  1  0  0  0  0
 17 18  1  0  0  0  0
 17 37  1  0  0  0  0
 18 38  1  0  0  0  0
 19 20  2  0  0  0  0
 19 24  1  0  0  0  0
 20 21  1  0  0  0  0
 20 39  1  0  0  0  0
 21 22  2  0  0  0  0
 22 23  1  0  0  0  0
 22 40  1  0  0  0  0
 23 24  2  0  0  0  0
 23 41  1  0  0  0  0
 24 42  1  0  0  0  0
M  END
>  <DRUGBANK_ID>
DB08198

>  <COMMON_NAME>
[(4R)-4-(3-HYDROXYPHENYL)-1,6-DIMETHYL-2-THIOXO-1,2,3,4-TETRAHYDROPYRIMIDIN-5-YL](PHENYL)METHANONE

$$$$
