
 OpenBabel10282417072D

139144  0  0  1  0  0  0  0  0999 V2000
   -2.1717    2.2350    0.0000 C   0  0  0  0  0  0  0  0  0  0  0  0
   -2.7020    2.8670    0.0000 N   0  3  1  0  0  0  0  0  0  0  0  0
   -3.4165    3.2795    0.0000 C   0  0  0  0  0  0  0  0  0  0  0  0
   -3.4165    4.1045    0.0000 C   0  0  0  0  0  0  0  0  0  0  0  0
   -2.7020    4.5170    0.0000 C   0  0  0  0  0  0  0  0  0  0  0  0
   -2.7020    5.3420    0.0000 C   0  0  0  0  0  0  0  0  0  0  0  0
   -1.9876    5.7545    0.0000 C   0  0  0  0  0  0  0  0  0  0  0  0
   -1.2730    5.3420    0.0000 C   0  0  0  0  0  0  0  0  0  0  0  0
   -1.2730    4.5170    0.0000 C   0  0  0  0  0  0  0  0  0  0  0  0
   -1.9876    4.1045    0.0000 C   0  0  0  0  0  0  0  0  0  0  0  0
   -1.9876    3.2795    0.0000 C   0  0  1  0  0  0  0  0  0  0  0  0
   -1.2730    2.8670    0.0000 C   0  0  0  0  0  0  0  0  0  0  0  0
   -0.5586    3.2795    0.0000 C   0  0  0  0  0  0  0  0  0  0  0  0
   -0.5586    4.1045    0.0000 C   0  0  0  0  0  0  0  0  0  0  0  0
    0.1559    4.5170    0.0000 C   0  0  0  0  0  0  0  0  0  0  0  0
    0.8703    4.1045    0.0000 C   0  0  0  0  0  0  0  0  0  0  0  0
    0.8703    3.2795    0.0000 C   0  0  0  0  0  0  0  0  0  0  0  0
    0.1559    2.8670    0.0000 C   0  0  0  0  0  0  0  0  0  0  0  0
    1.5848    2.8670    0.0000 O   0  0  0  0  0  0  0  0  0  0  0  0
    1.5848    2.0419    0.0000 C   0  0  0  0  0  0  0  0  0  0  0  0
    1.5848    4.5170    0.0000 O   0  0  0  0  0  0  0  0  0  0  0  0
    2.2993    4.1045    0.0000 C   0  0  0  0  0  0  0  0  0  0  0  0
    0.1559    5.3420    0.0000 O   0  0  0  0  0  0  0  0  0  0  0  0
    0.8703    5.7545    0.0000 C   0  0  0  0  0  0  0  0  0  0  0  0
   -0.5586    5.7545    0.0000 O   0  0  0  0  0  0  0  0  0  0  0  0
   -0.5586    6.5795    0.0000 C   0  0  0  0  0  0  0  0  0  0  0  0
   -1.9876    6.5795    0.0000 O   0  0  0  0  0  0  0  0  0  0  0  0
   -2.7020    6.9920    0.0000 C   0  0  0  0  0  0  0  0  0  0  0  0
   -3.2323    2.2350    0.0000 C   0  0  0  0  0  0  0  0  0  0  0  0
   -2.9502    1.4597    0.0000 C   0  0  0  0  0  0  0  0  0  0  0  0
   -3.4805    0.8276    0.0000 C   0  0  0  0  0  0  0  0  0  0  0  0
   -3.1983    0.0525    0.0000 O   0  0  0  0  0  0  0  0  0  0  0  0
   -3.7286   -0.5795    0.0000 C   0  0  0  0  0  0  0  0  0  0  0  0
   -4.5411   -0.4362    0.0000 O   0  0  0  0  0  0  0  0  0  0  0  0
   -3.4464   -1.3547    0.0000 C   0  0  0  0  0  0  0  0  0  0  0  0
   -2.6340   -1.4980    0.0000 C   0  0  0  0  0  0  0  0  0  0  0  0
   -2.3518   -2.2733    0.0000 C   0  0  0  0  0  0  0  0  0  0  0  0
   -2.8821   -2.9051    0.0000 O   0  0  0  0  0  0  0  0  0  0  0  0
   -1.5392   -2.4165    0.0000 O   0  0  0  0  0  0  0  0  0  0  0  0
   -1.2572   -3.1918    0.0000 C   0  0  0  0  0  0  0  0  0  0  0  0
   -0.4447   -3.3350    0.0000 C   0  0  0  0  0  0  0  0  0  0  0  0
    0.0856   -2.7030    0.0000 C   0  0  0  0  0  0  0  0  0  0  0  0
    0.8981   -2.8463    0.0000 N   0  3  1  0  0  0  0  0  0  0  0  0
    0.8981   -2.0213    0.0000 C   0  0  0  0  0  0  0  0  0  0  0  0
    1.6125   -1.6088    0.0000 C   0  0  0  0  0  0  0  0  0  0  0  0
    2.3270   -2.0213    0.0000 C   0  0  0  0  0  0  0  0  0  0  0  0
    3.0415   -1.6088    0.0000 C   0  0  0  0  0  0  0  0  0  0  0  0
    3.7559   -2.0213    0.0000 C   0  0  0  0  0  0  0  0  0  0  0  0
    3.7559   -2.8463    0.0000 C   0  0  0  0  0  0  0  0  0  0  0  0
    3.0415   -3.2588    0.0000 C   0  0  0  0  0  0  0  0  0  0  0  0
    2.3270   -2.8463    0.0000 C   0  0  0  0  0  0  0  0  0  0  0  0
    1.6125   -3.2588    0.0000 C   0  0  2  0  0  0  0  0  0  0  0  0
    1.6125   -4.0838    0.0000 C   0  0  0  0  0  0  0  0  0  0  0  0
    2.3270   -4.4963    0.0000 C   0  0  0  0  0  0  0  0  0  0  0  0
    2.3270   -5.3213    0.0000 C   0  0  0  0  0  0  0  0  0  0  0  0
    1.6125   -5.7337    0.0000 C   0  0  0  0  0  0  0  0  0  0  0  0
    0.8981   -5.3213    0.0000 C   0  0  0  0  0  0  0  0  0  0  0  0
    0.8981   -4.4963    0.0000 C   0  0  0  0  0  0  0  0  0  0  0  0
    0.1836   -5.7337    0.0000 O   0  0  0  0  0  0  0  0  0  0  0  0
    0.1836   -6.5588    0.0000 C   0  0  0  0  0  0  0  0  0  0  0  0
    1.6125   -6.5588    0.0000 O   0  0  0  0  0  0  0  0  0  0  0  0
    2.3270   -6.9713    0.0000 C   0  0  0  0  0  0  0  0  0  0  0  0
    3.0415   -5.7337    0.0000 O   0  0  0  0  0  0  0  0  0  0  0  0
    3.7559   -5.3213    0.0000 C   0  0  0  0  0  0  0  0  0  0  0  0
    4.4704   -3.2588    0.0000 O   0  0  0  0  0  0  0  0  0  0  0  0
    5.1849   -2.8463    0.0000 C   0  0  0  0  0  0  0  0  0  0  0  0
    4.4704   -1.6088    0.0000 O   0  0  0  0  0  0  0  0  0  0  0  0
    4.4704   -0.7838    0.0000 C   0  0  0  0  0  0  0  0  0  0  0  0
    0.6158   -3.6215    0.0000 C   0  0  0  0  0  0  0  0  0  0  0  0
   -3.9767   -1.9867    0.0000 Cl  0  0  0  0  0  0  0  0  0  0  0  0
   -2.5377    1.2295    0.0000 H   0  0  0  0  0  0  0  0  0  0  0  0
   -1.1180    2.4208    0.0000 H   0  0  0  0  0  0  0  0  0  0  0  0
   -1.4839    1.4153    0.0000 H   0  0  0  0  0  0  0  0  0  0  0  0
   -4.3431    2.7445    0.0000 H   0  0  0  0  0  0  0  0  0  0  0  0
   -4.3431    3.8145    0.0000 H   0  0  0  0  0  0  0  0  0  0  0  0
   -4.3431    4.6395    0.0000 H   0  0  0  0  0  0  0  0  0  0  0  0
   -3.4165    5.1745    0.0000 H   0  0  0  0  0  0  0  0  0  0  0  0
   -3.5957    5.8580    0.0000 H   0  0  0  0  0  0  0  0  0  0  0  0
   -0.3793    4.0010    0.0000 H   0  0  0  0  0  0  0  0  0  0  0  0
   -1.0610    3.8145    0.0000 H   0  0  0  0  0  0  0  0  0  0  0  0
   -1.2729    1.7970    0.0000 H   0  0  0  0  0  0  0  0  0  0  0  0
   -0.3463    2.3320    0.0000 H   0  0  0  0  0  0  0  0  0  0  0  0
   -1.4523    4.6205    0.0000 H   0  0  0  0  0  0  0  0  0  0  0  0
    0.1559    1.8350    0.0000 H   0  0  0  0  0  0  0  0  0  0  0  0
    0.6582    1.5069    0.0000 H   0  0  0  0  0  0  0  0  0  0  0  0
    2.5114    1.5069    0.0000 H   0  0  0  0  0  0  0  0  0  0  0  0
    1.5848    0.9719    0.0000 H   0  0  0  0  0  0  0  0  0  0  0  0
    2.2993    3.0345    0.0000 H   0  0  0  0  0  0  0  0  0  0  0  0
    3.2259    4.6395    0.0000 H   0  0  0  0  0  0  0  0  0  0  0  0
    3.2260    3.5695    0.0000 H   0  0  0  0  0  0  0  0  0  0  0  0
    1.7970    5.2195    0.0000 H   0  0  0  0  0  0  0  0  0  0  0  0
    0.8703    6.8245    0.0000 H   0  0  0  0  0  0  0  0  0  0  0  0
    1.7969    6.2895    0.0000 H   0  0  0  0  0  0  0  0  0  0  0  0
    0.3680    7.1145    0.0000 H   0  0  0  0  0  0  0  0  0  0  0  0
   -1.4852    7.1145    0.0000 H   0  0  0  0  0  0  0  0  0  0  0  0
   -0.5586    7.6495    0.0000 H   0  0  0  0  0  0  0  0  0  0  0  0
   -2.7020    8.0620    0.0000 H   0  0  0  0  0  0  0  0  0  0  0  0
   -3.6287    6.4570    0.0000 H   0  0  0  0  0  0  0  0  0  0  0  0
   -3.6286    7.5270    0.0000 H   0  0  0  0  0  0  0  0  0  0  0  0
   -4.2860    2.4208    0.0000 H   0  0  0  0  0  0  0  0  0  0  0  0
   -3.9201    1.4154    0.0000 H   0  0  0  0  0  0  0  0  0  0  0  0
   -1.8965    1.2739    0.0000 H   0  0  0  0  0  0  0  0  0  0  0  0
   -2.5842    0.4542    0.0000 H   0  0  0  0  0  0  0  0  0  0  0  0
   -4.5343    1.0133    0.0000 H   0  0  0  0  0  0  0  0  0  0  0  0
   -4.1682    0.0079    0.0000 H   0  0  0  0  0  0  0  0  0  0  0  0
   -1.9706   -0.7075    0.0000 H   0  0  0  0  0  0  0  0  0  0  0  0
   -1.9450   -4.0114    0.0000 H   0  0  0  0  0  0  0  0  0  0  0  0
   -0.8912   -4.1973    0.0000 H   0  0  0  0  0  0  0  0  0  0  0  0
   -0.0787   -4.3405    0.0000 H   0  0  0  0  0  0  0  0  0  0  0  0
    0.6090   -3.5208    0.0000 H   0  0  0  0  0  0  0  0  0  0  0  0
   -0.2803   -1.6975    0.0000 H   0  0  0  0  0  0  0  0  0  0  0  0
    0.7734   -1.8834    0.0000 H   0  0  0  0  0  0  0  0  0  0  0  0
   -0.0286   -1.4863    0.0000 H   0  0  0  0  0  0  0  0  0  0  0  0
    0.8981   -0.9513    0.0000 H   0  0  0  0  0  0  0  0  0  0  0  0
    1.6125   -0.5388    0.0000 H   0  0  0  0  0  0  0  0  0  0  0  0
    2.5391   -1.0738    0.0000 H   0  0  0  0  0  0  0  0  0  0  0  0
    3.0415   -0.5768    0.0000 H   0  0  0  0  0  0  0  0  0  0  0  0
    3.0415   -4.2908    0.0000 H   0  0  0  0  0  0  0  0  0  0  0  0
    2.5391   -3.7938    0.0000 H   0  0  0  0  0  0  0  0  0  0  0  0
    3.2207   -3.9803    0.0000 H   0  0  0  0  0  0  0  0  0  0  0  0
    0.0044   -3.9803    0.0000 H   0  0  0  0  0  0  0  0  0  0  0  0
   -0.7430   -7.0938    0.0000 H   0  0  0  0  0  0  0  0  0  0  0  0
    1.1102   -7.0938    0.0000 H   0  0  0  0  0  0  0  0  0  0  0  0
    0.1836   -7.6288    0.0000 H   0  0  0  0  0  0  0  0  0  0  0  0
    2.3270   -8.0413    0.0000 H   0  0  0  0  0  0  0  0  0  0  0  0
    3.2536   -6.4363    0.0000 H   0  0  0  0  0  0  0  0  0  0  0  0
    3.2537   -7.5063    0.0000 H   0  0  0  0  0  0  0  0  0  0  0  0
    4.6825   -5.8564    0.0000 H   0  0  0  0  0  0  0  0  0  0  0  0
    3.7560   -4.2513    0.0000 H   0  0  0  0  0  0  0  0  0  0  0  0
    4.6826   -4.7864    0.0000 H   0  0  0  0  0  0  0  0  0  0  0  0
    6.1115   -3.3813    0.0000 H   0  0  0  0  0  0  0  0  0  0  0  0
    5.1849   -1.7763    0.0000 H   0  0  0  0  0  0  0  0  0  0  0  0
    6.1116   -2.3113    0.0000 H   0  0  0  0  0  0  0  0  0  0  0  0
    5.3970   -0.2488    0.0000 H   0  0  0  0  0  0  0  0  0  0  0  0
    3.5438   -0.2488    0.0000 H   0  0  0  0  0  0  0  0  0  0  0  0
    4.4704    0.2862    0.0000 H   0  0  0  0  0  0  0  0  0  0  0  0
   -0.4380   -3.8071    0.0000 H   0  0  0  0  0  0  0  0  0  0  0  0
    1.3034   -4.4413    0.0000 H   0  0  0  0  0  0  0  0  0  0  0  0
    0.2497   -4.6269    0.0000 H   0  0  0  0  0  0  0  0  0  0  0  0
  1 71  1  0  0  0  0
  1 72  1  0  0  0  0
  1 73  1  0  0  0  0
  2  1  1  1  0  0  0
  2  3  1  0  0  0  0
  2 11  1  0  0  0  0
  2 29  1  0  0  0  0
  3  4  1  0  0  0  0
  3 74  1  0  0  0  0
  3 75  1  0  0  0  0
  4  5  1  0  0  0  0
  4 76  1  0  0  0  0
  4 77  1  0  0  0  0
  5  6  2  0  0  0  0
  5 10  1  0  0  0  0
  6  7  1  0  0  0  0
  6 78  1  0  0  0  0
  7  8  2  0  0  0  0
  7 27  1  0  0  0  0
  8  9  1  0  0  0  0
  8 25  1  0  0  0  0
  9 10  2  0  0  0  0
  9 79  1  0  0  0  0
 10 11  1  0  0  0  0
 11 12  1  0  0  0  0
 11 80  1  6  0  0  0
 12 13  1  0  0  0  0
 12 81  1  0  0  0  0
 12 82  1  0  0  0  0
 13 14  2  0  0  0  0
 13 18  1  0  0  0  0
 14 15  1  0  0  0  0
 14 83  1  0  0  0  0
 15 16  2  0  0  0  0
 15 23  1  0  0  0  0
 16 17  1  0  0  0  0
 16 21  1  0  0  0  0
 17 18  2  0  0  0  0
 17 19  1  0  0  0  0
 18 84  1  0  0  0  0
 19 20  1  0  0  0  0
 20 85  1  0  0  0  0
 20 86  1  0  0  0  0
 20 87  1  0  0  0  0
 21 22  1  0  0  0  0
 22 88  1  0  0  0  0
 22 89  1  0  0  0  0
 22 90  1  0  0  0  0
 23 24  1  0  0  0  0
 24 91  1  0  0  0  0
 24 92  1  0  0  0  0
 24 93  1  0  0  0  0
 25 26  1  0  0  0  0
 26 94  1  0  0  0  0
 26 95  1  0  0  0  0
 26 96  1  0  0  0  0
 27 28  1  0  0  0  0
 28 97  1  0  0  0  0
 28 98  1  0  0  0  0
 28 99  1  0  0  0  0
 29 30  1  0  0  0  0
 29100  1  0  0  0  0
 29101  1  0  0  0  0
 30 31  1  0  0  0  0
 30102  1  0  0  0  0
 30103  1  0  0  0  0
 31 32  1  0  0  0  0
 31104  1  0  0  0  0
 31105  1  0  0  0  0
 32 33  1  0  0  0  0
 33 34  2  0  0  0  0
 33 35  1  0  0  0  0
 35 36  2  0  0  0  0
 35 70  1  0  0  0  0
 36 37  1  0  0  0  0
 36106  1  0  0  0  0
 37 38  2  0  0  0  0
 37 39  1  0  0  0  0
 39 40  1  0  0  0  0
 40 41  1  0  0  0  0
 40107  1  0  0  0  0
 40108  1  0  0  0  0
 41 42  1  0  0  0  0
 41109  1  0  0  0  0
 41110  1  0  0  0  0
 42111  1  0  0  0  0
 42112  1  0  0  0  0
 43 42  1  1  0  0  0
 43 44  1  0  0  0  0
 43 52  1  0  0  0  0
 43 69  1  0  0  0  0
 44 45  1  0  0  0  0
 44113  1  0  0  0  0
 44114  1  0  0  0  0
 45 46  1  0  0  0  0
 45115  1  0  0  0  0
 45116  1  0  0  0  0
 46 47  2  0  0  0  0
 46 51  1  0  0  0  0
 47 48  1  0  0  0  0
 47117  1  0  0  0  0
 48 49  2  0  0  0  0
 48 67  1  0  0  0  0
 49 50  1  0  0  0  0
 49 65  1  0  0  0  0
 50 51  2  0  0  0  0
 50118  1  0  0  0  0
 51 52  1  0  0  0  0
 52 53  1  0  0  0  0
 52119  1  1  0  0  0
 53 54  2  0  0  0  0
 53 58  1  0  0  0  0
 54 55  1  0  0  0  0
 54120  1  0  0  0  0
 55 56  2  0  0  0  0
 55 63  1  0  0  0  0
 56 57  1  0  0  0  0
 56 61  1  0  0  0  0
 57 58  2  0  0  0  0
 57 59  1  0  0  0  0
 58121  1  0  0  0  0
 59 60  1  0  0  0  0
 60122  1  0  0  0  0
 60123  1  0  0  0  0
 60124  1  0  0  0  0
 61 62  1  0  0  0  0
 62125  1  0  0  0  0
 62126  1  0  0  0  0
 62127  1  0  0  0  0
 63 64  1  0  0  0  0
 64128  1  0  0  0  0
 64129  1  0  0  0  0
 64130  1  0  0  0  0
 65 66  1  0  0  0  0
 66131  1  0  0  0  0
 66132  1  0  0  0  0
 66133  1  0  0  0  0
 67 68  1  0  0  0  0
 68134  1  0  0  0  0
 68135  1  0  0  0  0
 68136  1  0  0  0  0
 69137  1  0  0  0  0
 69138  1  0  0  0  0
 69139  1  0  0  0  0
M  CHG  2   2   1  43   1
M  END
>  <DRUGBANK_ID>
DB05710

>  <COMMON_NAME>
Gantacurium

>  <CAS_NUMBER>
758669-50-0

>  <UNII>
N9VK9ZO25E

$$$$
