
 OpenBabel10282417072D

 53 55  0  0  1  0  0  0  0  0999 V2000
    3.0639   -1.4415    0.0000 N   0  0  0  0  0  0  0  0  0  0  0  0
    3.2780   -0.6491    0.0000 C   0  0  0  0  0  0  0  0  0  0  0  0
    4.0752   -0.8584    0.0000 C   0  0  0  0  0  0  0  0  0  0  0  0
    3.8611   -1.6555    0.0000 C   0  0  0  0  0  0  0  0  0  0  0  0
    2.3538   -1.8580    0.0000 S   0  0  0  0  0  0  0  0  0  0  0  0
    2.7657   -2.5682    0.0000 O   0  0  0  0  0  0  0  0  0  0  0  0
    1.9419   -1.1432    0.0000 O   0  0  0  0  0  0  0  0  0  0  0  0
    1.6389   -2.2698    0.0000 N   0  0  0  0  0  0  0  0  0  0  0  0
    0.9240   -1.8580    0.0000 C   0  0  0  0  0  0  0  0  0  0  0  0
    0.9240   -1.0297    0.0000 N   0  0  0  0  0  0  0  0  0  0  0  0
    0.2093   -0.6179    0.0000 C   0  0  0  0  0  0  0  0  0  0  0  0
   -0.5055   -1.0297    0.0000 N   0  0  0  0  0  0  0  0  0  0  0  0
   -0.5055   -1.8580    0.0000 C   0  0  0  0  0  0  0  0  0  0  0  0
    0.2093   -2.2698    0.0000 C   0  0  0  0  0  0  0  0  0  0  0  0
   -1.2204   -2.2698    0.0000 O   0  0  0  0  0  0  0  0  0  0  0  0
   -1.9352   -1.8580    0.0000 C   0  0  2  0  0  0  0  0  0  0  0  0
   -1.9352   -1.0297    0.0000 C   0  0  0  0  0  0  0  0  0  0  0  0
   -2.6454   -2.2698    0.0000 C   0  0  2  0  0  0  0  0  0  0  0  0
   -3.3603   -1.8580    0.0000 C   0  0  0  0  0  0  0  0  0  0  0  0
   -4.0752   -2.2698    0.0000 O   0  0  0  0  0  0  0  0  0  0  0  0
   -2.6454   -3.0936    0.0000 O   0  0  0  0  0  0  0  0  0  0  0  0
    0.2093    0.2059    0.0000 S   0  0  0  0  0  0  0  0  0  0  0  0
    0.9240    0.6178    0.0000 C   0  0  0  0  0  0  0  0  0  0  0  0
    0.9240    1.4415    0.0000 C   0  0  0  0  0  0  0  0  0  0  0  0
    0.2093    1.8533    0.0000 C   0  0  0  0  0  0  0  0  0  0  0  0
    0.2093    2.6817    0.0000 C   0  0  0  0  0  0  0  0  0  0  0  0
    0.9240    3.0936    0.0000 C   0  0  0  0  0  0  0  0  0  0  0  0
    1.6389    2.6817    0.0000 C   0  0  0  0  0  0  0  0  0  0  0  0
    1.6389    1.8533    0.0000 C   0  0  0  0  0  0  0  0  0  0  0  0
   -0.5055    3.0936    0.0000 F   0  0  0  0  0  0  0  0  0  0  0  0
   -0.5055    1.4415    0.0000 F   0  0  0  0  0  0  0  0  0  0  0  0
    2.7416    0.2768    0.0000 H   0  0  0  0  0  0  0  0  0  0  0  0
    3.9266    0.2019    0.0000 H   0  0  0  0  0  0  0  0  0  0  0  0
    5.0007   -0.3213    0.0000 H   0  0  0  0  0  0  0  0  0  0  0  0
    4.9246   -1.5091    0.0000 H   0  0  0  0  0  0  0  0  0  0  0  0
    4.3956   -2.5824    0.0000 H   0  0  0  0  0  0  0  0  0  0  0  0
    3.2093   -2.5041    0.0000 H   0  0  0  0  0  0  0  0  0  0  0  0
    1.6389   -3.2543    0.0000 H   0  0  0  0  0  0  0  0  0  0  0  0
    0.2093   -3.3018    0.0000 H   0  0  0  0  0  0  0  0  0  0  0  0
   -1.0088   -1.3226    0.0000 H   0  0  0  0  0  0  0  0  0  0  0  0
   -1.0086   -0.4947    0.0000 H   0  0  0  0  0  0  0  0  0  0  0  0
   -2.8618   -0.4947    0.0000 H   0  0  0  0  0  0  0  0  0  0  0  0
   -1.9352    0.0403    0.0000 H   0  0  0  0  0  0  0  0  0  0  0  0
   -1.7183   -2.8039    0.0000 H   0  0  0  0  0  0  0  0  0  0  0  0
   -3.3603   -0.7880    0.0000 H   0  0  0  0  0  0  0  0  0  0  0  0
   -4.2867   -1.3225    0.0000 H   0  0  0  0  0  0  0  0  0  0  0  0
   -4.9148   -1.7840    0.0000 H   0  0  0  0  0  0  0  0  0  0  0  0
   -3.4854   -3.5786    0.0000 H   0  0  0  0  0  0  0  0  0  0  0  0
    1.8504    0.0824    0.0000 H   0  0  0  0  0  0  0  0  0  0  0  0
    1.8507    1.1526    0.0000 H   0  0  0  0  0  0  0  0  0  0  0  0
    0.9239    4.1256    0.0000 H   0  0  0  0  0  0  0  0  0  0  0  0
    2.5324    3.1981    0.0000 H   0  0  0  0  0  0  0  0  0  0  0  0
    2.5324    1.3369    0.0000 H   0  0  0  0  0  0  0  0  0  0  0  0
  1  2  1  0  0  0  0
  1  4  1  0  0  0  0
  1  5  1  0  0  0  0
  2  3  1  0  0  0  0
  2 32  1  0  0  0  0
  2 33  1  0  0  0  0
  3  4  1  0  0  0  0
  3 34  1  0  0  0  0
  3 35  1  0  0  0  0
  4 36  1  0  0  0  0
  4 37  1  0  0  0  0
  5  6  2  0  0  0  0
  5  7  2  0  0  0  0
  5  8  1  0  0  0  0
  8  9  1  0  0  0  0
  8 38  1  0  0  0  0
  9 14  1  0  0  0  0
 10  9  2  0  0  0  0
 11 10  1  0  0  0  0
 11 12  2  0  0  0  0
 11 22  1  0  0  0  0
 13 12  1  0  0  0  0
 13 15  1  0  0  0  0
 14 13  2  0  0  0  0
 14 39  1  0  0  0  0
 15 16  1  0  0  0  0
 16 17  1  0  0  0  0
 16 18  1  0  0  0  0
 16 40  1  6  0  0  0
 17 41  1  0  0  0  0
 17 42  1  0  0  0  0
 17 43  1  0  0  0  0
 18 19  1  0  0  0  0
 18 21  1  0  0  0  0
 18 44  1  6  0  0  0
 19 20  1  0  0  0  0
 19 45  1  0  0  0  0
 19 46  1  0  0  0  0
 20 47  1  0  0  0  0
 21 48  1  0  0  0  0
 22 23  1  0  0  0  0
 23 24  1  0  0  0  0
 23 49  1  0  0  0  0
 23 50  1  0  0  0  0
 24 25  1  0  0  0  0
 24 29  2  0  0  0  0
 25 26  2  0  0  0  0
 25 31  1  0  0  0  0
 26 27  1  0  0  0  0
 26 30  1  0  0  0  0
 27 28  2  0  0  0  0
 27 51  1  0  0  0  0
 28 29  1  0  0  0  0
 28 52  1  0  0  0  0
 29 53  1  0  0  0  0
M  END
>  <DRUGBANK_ID>
DB16822

>  <COMMON_NAME>
AZD-5069

>  <CAS_NUMBER>
878385-84-3

>  <UNII>
4ADT8JXB9S

$$$$
