
 OpenBabel10282417072D

 67 71  0  0  0  0  0  0  0  0999 V2000
    1.4907    0.0617    0.0000 C   0  0  1  0  0  0  0  0  0  0  0  0
    0.7061   -0.1931    0.0000 C   0  0  2  0  0  0  0  0  0  0  0  0
    1.9756   -0.6055    0.0000 C   0  0  1  0  0  0  0  0  0  0  0  0
    1.9756    0.7292    0.0000 O   0  0  0  0  0  0  0  0  0  0  0  0
    1.4044    0.8822    0.0000 C   0  0  0  0  0  0  0  0  0  0  0  0
    0.7061   -1.0181    0.0000 C   0  0  1  0  0  0  0  0  0  0  0  0
   -0.0083    0.2194    0.0000 C   0  0  0  0  0  0  0  0  0  0  0  0
    0.6918    0.6363    0.0000 C   0  0  0  0  0  0  0  0  0  0  0  0
    1.4907   -1.2730    0.0000 C   0  0  0  0  0  0  0  0  0  0  0  0
    2.7602   -0.3506    0.0000 O   0  0  0  0  0  0  0  0  0  0  0  0
    2.7602    0.4743    0.0000 C   0  0  0  0  0  0  0  0  0  0  0  0
   -0.0083   -1.4305    0.0000 C   0  0  1  0  0  0  0  0  0  0  0  0
   -0.7228   -0.1931    0.0000 C   0  0  1  0  0  0  0  0  0  0  0  0
    2.9318    1.2813    0.0000 C   0  0  0  0  0  0  0  0  0  0  0  0
    3.5807    0.3880    0.0000 C   0  0  0  0  0  0  0  0  0  0  0  0
   -0.7228   -1.0181    0.0000 C   0  0  2  0  0  0  0  0  0  0  0  0
   -0.0083   -2.2556    0.0000 C   0  0  0  0  0  0  0  0  0  0  0  0
   -1.4373    0.2194    0.0000 O   0  0  0  0  0  0  0  0  0  0  0  0
   -1.4373   -1.4305    0.0000 C   0  0  2  0  0  0  0  0  0  0  0  0
   -0.7185   -1.9082    0.0000 F   0  0  0  0  0  0  0  0  0  0  0  0
   -0.7228   -2.6681    0.0000 C   0  0  1  0  0  0  0  0  0  0  0  0
   -1.4373   -2.2556    0.0000 C   0  0  0  0  0  0  0  0  0  0  0  0
   -2.1517   -1.0181    0.0000 C   0  0  0  0  0  0  0  0  0  0  0  0
   -1.4730   -0.6283    0.0000 C   0  0  0  0  0  0  0  0  0  0  0  0
   -0.7228   -3.4931    0.0000 F   0  0  0  0  0  0  0  0  0  0  0  0
   -2.1517   -2.6681    0.0000 C   0  0  0  0  0  0  0  0  0  0  0  0
   -2.8662   -1.4305    0.0000 C   0  0  0  0  0  0  0  0  0  0  0  0
   -2.8662   -2.2556    0.0000 C   0  0  0  0  0  0  0  0  0  0  0  0
   -3.5807   -2.6681    0.0000 O   0  0  0  0  0  0  0  0  0  0  0  0
    0.7923   -1.8385    0.0000 H   0  0  0  0  0  0  0  0  0  0  0  0
    0.7914    1.4342    0.0000 O   0  0  0  0  0  0  0  0  0  0  0  0
    2.0719    1.3672    0.0000 C   0  0  0  0  0  0  0  0  0  0  0  0
    1.9856    2.1876    0.0000 O   0  0  0  0  0  0  0  0  0  0  0  0
    2.6531    2.6726    0.0000 C   0  0  0  0  0  0  0  0  0  0  0  0
    2.5669    3.4931    0.0000 O   0  0  0  0  0  0  0  0  0  0  0  0
    3.4068    2.3371    0.0000 C   0  0  0  0  0  0  0  0  0  0  0  0
   -0.0490   -0.6302    0.0000 H   0  0  0  0  0  0  0  0  0  0  0  0
    2.3881   -1.3201    0.0000 H   0  0  0  0  0  0  0  0  0  0  0  0
   -0.0083    1.2894    0.0000 H   0  0  0  0  0  0  0  0  0  0  0  0
    0.9184    0.7544    0.0000 H   0  0  0  0  0  0  0  0  0  0  0  0
    1.6091    1.1872    0.0000 H   0  0  0  0  0  0  0  0  0  0  0  0
   -0.2439    1.1552    0.0000 H   0  0  0  0  0  0  0  0  0  0  0  0
    0.6734    1.7061    0.0000 H   0  0  0  0  0  0  0  0  0  0  0  0
    1.8214   -2.2906    0.0000 H   0  0  0  0  0  0  0  0  0  0  0  0
    0.7341   -2.0296    0.0000 H   0  0  0  0  0  0  0  0  0  0  0  0
   -0.7228    0.8769    0.0000 H   0  0  0  0  0  0  0  0  0  0  0  0
    3.9495    1.6119    0.0000 H   0  0  0  0  0  0  0  0  0  0  0  0
    2.1367    1.9973    0.0000 H   0  0  0  0  0  0  0  0  0  0  0  0
    3.1543    2.3279    0.0000 H   0  0  0  0  0  0  0  0  0  0  0  0
    4.0158   -0.5895    0.0000 H   0  0  0  0  0  0  0  0  0  0  0  0
    4.2097    1.2536    0.0000 H   0  0  0  0  0  0  0  0  0  0  0  0
    4.6448    0.2761    0.0000 H   0  0  0  0  0  0  0  0  0  0  0  0
    0.9183   -2.7906    0.0000 H   0  0  0  0  0  0  0  0  0  0  0  0
   -0.0083   -3.3256    0.0000 H   0  0  0  0  0  0  0  0  0  0  0  0
   -1.4373    1.1894    0.0000 H   0  0  0  0  0  0  0  0  0  0  0  0
    0.2038   -3.2031    0.0000 H   0  0  0  0  0  0  0  0  0  0  0  0
   -2.1517    0.0139    0.0000 H   0  0  0  0  0  0  0  0  0  0  0  0
   -0.5711   -0.0526    0.0000 H   0  0  0  0  0  0  0  0  0  0  0  0
   -2.4225   -0.1350    0.0000 H   0  0  0  0  0  0  0  0  0  0  0  0
   -1.5206    0.4406    0.0000 H   0  0  0  0  0  0  0  0  0  0  0  0
   -2.1517   -3.7001    0.0000 H   0  0  0  0  0  0  0  0  0  0  0  0
   -3.7599   -0.9144    0.0000 H   0  0  0  0  0  0  0  0  0  0  0  0
    3.0494    0.9321    0.0000 H   0  0  0  0  0  0  0  0  0  0  0  0
    2.9375    1.9962    0.0000 H   0  0  0  0  0  0  0  0  0  0  0  0
    3.5187    1.2730    0.0000 H   0  0  0  0  0  0  0  0  0  0  0  0
    4.2724    2.9661    0.0000 H   0  0  0  0  0  0  0  0  0  0  0  0
    4.3843    1.9020    0.0000 H   0  0  0  0  0  0  0  0  0  0  0  0
  1  2  1  0  0  0  0
  1  3  1  0  0  0  0
  1  4  1  0  0  0  0
  1  5  1  1  0  0  0
  2  8  1  1  0  0  0
  2  6  1  0  0  0  0
  2  7  1  0  0  0  0
  3  9  1  0  0  0  0
  3 10  1  0  0  0  0
  3 38  1  1  0  0  0
  4 11  1  0  0  0  0
  5 31  2  0  0  0  0
  5 32  1  0  0  0  0
  6 12  1  0  0  0  0
  6  9  1  0  0  0  0
  6 30  1  6  0  0  0
  7 13  1  0  0  0  0
  7 39  1  0  0  0  0
  7 40  1  0  0  0  0
  8 41  1  0  0  0  0
  8 42  1  0  0  0  0
  8 43  1  0  0  0  0
  9 44  1  0  0  0  0
  9 45  1  0  0  0  0
 10 11  1  0  0  0  0
 11 14  1  0  0  0  0
 11 15  1  0  0  0  0
 12 16  1  0  0  0  0
 12 17  1  0  0  0  0
 12 37  1  1  0  0  0
 13 18  1  0  0  0  0
 13 16  1  0  0  0  0
 13 46  1  6  0  0  0
 14 47  1  0  0  0  0
 14 48  1  0  0  0  0
 14 49  1  0  0  0  0
 15 50  1  0  0  0  0
 15 51  1  0  0  0  0
 15 52  1  0  0  0  0
 16 19  1  0  0  0  0
 16 20  1  6  0  0  0
 17 21  1  0  0  0  0
 17 53  1  0  0  0  0
 17 54  1  0  0  0  0
 18 55  1  0  0  0  0
 19 22  1  0  0  0  0
 19 23  1  0  0  0  0
 19 24  1  1  0  0  0
 21 25  1  0  0  0  0
 21 22  1  0  0  0  0
 21 56  1  1  0  0  0
 22 26  2  0  0  0  0
 23 27  2  0  0  0  0
 23 57  1  0  0  0  0
 24 58  1  0  0  0  0
 24 59  1  0  0  0  0
 24 60  1  0  0  0  0
 26 28  1  0  0  0  0
 26 61  1  0  0  0  0
 27 28  1  0  0  0  0
 27 62  1  0  0  0  0
 28 29  2  0  0  0  0
 32 33  1  0  0  0  0
 32 63  1  0  0  0  0
 32 64  1  0  0  0  0
 33 34  1  0  0  0  0
 34 35  2  0  0  0  0
 34 36  1  0  0  0  0
 36 65  1  0  0  0  0
 36 66  1  0  0  0  0
 36 67  1  0  0  0  0
M  END
>  <DRUGBANK_ID>
DB01047

>  <SECONDARY_ACCESSION_NUMBERS>
APRD00978

>  <COMMON_NAME>
Fluocinonide

>  <CAS_NUMBER>
356-12-7

>  <UNII>
2W4A77YPAN

>  <SYNONYMS>
Fluocinonida; Fluocinonide; Fluocinonido; Fluocinonidum

$$$$
