
 OpenBabel10282417072D

 38 37  0  0  0  0  0  0  0  0999 V2000
    0.2040   -1.0720    0.0000 O   0  0  0  0  0  0  0  0  0  0  0  0
    1.0290   -1.0720    0.0000 C   0  0  0  0  0  0  0  0  0  0  0  0
    1.4415   -0.3558    0.0000 C   0  0  3  0  0  0  0  0  0  0  0  0
    2.2665   -0.3558    0.0000 O   0  0  0  0  0  0  0  0  0  0  0  0
    1.0290    0.3558    0.0000 C   0  0  0  0  0  0  0  0  0  0  0  0
    0.2040    0.3558    0.0000 O   0  0  0  0  0  0  0  0  0  0  0  0
   -0.2040    1.0720    0.0000 C   0  0  0  0  0  0  0  0  0  0  0  0
   -1.0290    1.0720    0.0000 C   0  0  3  0  0  0  0  0  0  0  0  0
   -1.4415    1.7837    0.0000 C   0  0  0  0  0  0  0  0  0  0  0  0
   -2.2665    1.7837    0.0000 C   0  0  0  0  0  0  0  0  0  0  0  0
   -1.4415    0.3558    0.0000 C   0  0  0  0  0  0  0  0  0  0  0  0
   -1.0290   -0.3558    0.0000 C   0  0  0  0  0  0  0  0  0  0  0  0
   -1.4415   -1.0720    0.0000 C   0  0  0  0  0  0  0  0  0  0  0  0
   -1.0290   -1.7837    0.0000 C   0  0  0  0  0  0  0  0  0  0  0  0
   -0.2810   -0.2320    0.0000 H   0  0  0  0  0  0  0  0  0  0  0  0
    1.5645   -1.9984    0.0000 H   0  0  0  0  0  0  0  0  0  0  0  0
    2.0990   -1.0712    0.0000 H   0  0  0  0  0  0  0  0  0  0  0  0
    1.9770   -1.2822    0.0000 H   0  0  0  0  0  0  0  0  0  0  0  0
    2.7515   -1.1958    0.0000 H   0  0  0  0  0  0  0  0  0  0  0  0
    1.5632    1.2829    0.0000 H   0  0  0  0  0  0  0  0  0  0  0  0
    0.4936    1.2822    0.0000 H   0  0  0  0  0  0  0  0  0  0  0  0
    0.3337    1.9971    0.0000 H   0  0  0  0  0  0  0  0  0  0  0  0
   -0.7377    1.9994    0.0000 H   0  0  0  0  0  0  0  0  0  0  0  0
   -0.4948    1.9991    0.0000 H   0  0  0  0  0  0  0  0  0  0  0  0
   -0.9073    2.7108    0.0000 H   0  0  0  0  0  0  0  0  0  0  0  0
   -1.9769    2.7101    0.0000 H   0  0  0  0  0  0  0  0  0  0  0  0
   -2.8015    2.7103    0.0000 H   0  0  0  0  0  0  0  0  0  0  0  0
   -2.8015    0.8571    0.0000 H   0  0  0  0  0  0  0  0  0  0  0  0
   -3.3365    1.7837    0.0000 H   0  0  0  0  0  0  0  0  0  0  0  0
   -2.5115    0.3543    0.0000 H   0  0  0  0  0  0  0  0  0  0  0  0
   -1.9750   -0.5717    0.0000 H   0  0  0  0  0  0  0  0  0  0  0  0
    0.0410   -0.3543    0.0000 H   0  0  0  0  0  0  0  0  0  0  0  0
   -0.4929   -1.2818    0.0000 H   0  0  0  0  0  0  0  0  0  0  0  0
   -2.5115   -1.0735    0.0000 H   0  0  0  0  0  0  0  0  0  0  0  0
   -1.9751   -1.9995    0.0000 H   0  0  0  0  0  0  0  0  0  0  0  0
   -1.5624   -2.7112    0.0000 H   0  0  0  0  0  0  0  0  0  0  0  0
    0.0410   -1.7819    0.0000 H   0  0  0  0  0  0  0  0  0  0  0  0
   -0.4924   -2.7094    0.0000 H   0  0  0  0  0  0  0  0  0  0  0  0
  1  2  1  0  0  0  0
  1 15  1  0  0  0  0
  2  3  1  0  0  0  0
  2 16  1  0  0  0  0
  2 17  1  0  0  0  0
  3  4  1  0  0  0  0
  3  5  1  0  0  0  0
  3 18  1  0  0  0  0
  4 19  1  0  0  0  0
  5  6  1  0  0  0  0
  5 20  1  0  0  0  0
  5 21  1  0  0  0  0
  6  7  1  0  0  0  0
  7  8  1  0  0  0  0
  7 22  1  0  0  0  0
  7 23  1  0  0  0  0
  8  9  1  0  0  0  0
  8 11  1  0  0  0  0
  8 24  1  0  0  0  0
  9 10  1  0  0  0  0
  9 25  1  0  0  0  0
  9 26  1  0  0  0  0
 10 27  1  0  0  0  0
 10 28  1  0  0  0  0
 10 29  1  0  0  0  0
 11 12  1  0  0  0  0
 11 30  1  0  0  0  0
 11 31  1  0  0  0  0
 12 13  1  0  0  0  0
 12 32  1  0  0  0  0
 12 33  1  0  0  0  0
 13 14  1  0  0  0  0
 13 34  1  0  0  0  0
 13 35  1  0  0  0  0
 14 36  1  0  0  0  0
 14 37  1  0  0  0  0
 14 38  1  0  0  0  0
M  END
>  <DRUGBANK_ID>
DB14557

>  <COMMON_NAME>
Ethylhexylglycerin

>  <CAS_NUMBER>
70445-33-9

>  <UNII>
147D247K3P

>  <SYNONYMS>
3-(2-Ethylhexyloxy)propane-1,2-diol; Octoxyglycerin

$$$$
