
 OpenBabel10282417072D

 47 49  0  0  1  0  0  0  0  0999 V2000
    6.0770    1.1270    0.0000 C   0  0  0  0  0  0  0  0  0  0  0  0
    5.2520    1.1270    0.0000 C   0  0  0  0  0  0  0  0  0  0  0  0
    4.8395    0.4125    0.0000 C   0  0  0  0  0  0  0  0  0  0  0  0
    4.0145    0.4125    0.0000 C   0  0  0  0  0  0  0  0  0  0  0  0
    3.6020   -0.3020    0.0000 C   0  0  0  0  0  0  0  0  0  0  0  0
    2.7770   -0.3020    0.0000 C   0  0  0  0  0  0  0  0  0  0  0  0
    2.3645    0.4125    0.0000 C   0  0  0  0  0  0  0  0  0  0  0  0
    2.7770    1.1270    0.0000 C   0  0  0  0  0  0  0  0  0  0  0  0
    3.6020    1.1270    0.0000 C   0  0  0  0  0  0  0  0  0  0  0  0
    2.3645    1.8414    0.0000 O   0  0  0  0  0  0  0  0  0  0  0  0
    1.5395    1.8414    0.0000 C   0  0  0  0  0  0  0  0  0  0  0  0
    1.1270    1.1270    0.0000 C   0  0  1  0  0  0  0  0  0  0  0  0
    1.5395    0.4125    0.0000 C   0  0  1  0  0  0  0  0  0  0  0  0
    1.1270   -0.3020    0.0000 C   0  0  0  0  0  0  0  0  0  0  0  0
    0.3020   -0.3020    0.0000 C   0  0  0  0  0  0  0  0  0  0  0  0
   -0.1105    0.4125    0.0000 C   0  0  0  0  0  0  0  0  0  0  0  0
    0.3020    1.1270    0.0000 C   0  0  0  0  0  0  0  0  0  0  0  0
   -0.1105   -1.0164    0.0000 C   0  0  0  0  0  0  0  0  0  0  0  0
    1.5107    2.6659    0.0000 C   0  0  0  0  0  0  0  0  0  0  0  0
    0.8398    2.2786    0.0000 C   0  0  0  0  0  0  0  0  0  0  0  0
    2.3645   -1.0164    0.0000 O   0  0  0  0  0  0  0  0  0  0  0  0
    6.6120    0.2004    0.0000 H   0  0  0  0  0  0  0  0  0  0  0  0
    6.6120    2.0536    0.0000 H   0  0  0  0  0  0  0  0  0  0  0  0
    7.1470    1.1270    0.0000 H   0  0  0  0  0  0  0  0  0  0  0  0
    4.7170    2.0536    0.0000 H   0  0  0  0  0  0  0  0  0  0  0  0
    4.1820    1.1270    0.0000 H   0  0  0  0  0  0  0  0  0  0  0  0
    5.3745   -0.5141    0.0000 H   0  0  0  0  0  0  0  0  0  0  0  0
    4.3045   -0.5141    0.0000 H   0  0  0  0  0  0  0  0  0  0  0  0
    4.1180   -1.1957    0.0000 H   0  0  0  0  0  0  0  0  0  0  0  0
    4.1180    2.0207    0.0000 H   0  0  0  0  0  0  0  0  0  0  0  0
    0.5920    2.0537    0.0000 H   0  0  0  0  0  0  0  0  0  0  0  0
    2.0745    1.3391    0.0000 H   0  0  0  0  0  0  0  0  0  0  0  0
    1.6430   -1.1957    0.0000 H   0  0  0  0  0  0  0  0  0  0  0  0
   -1.1805    0.4125    0.0000 H   0  0  0  0  0  0  0  0  0  0  0  0
   -0.6455    1.3391    0.0000 H   0  0  0  0  0  0  0  0  0  0  0  0
   -0.2330    2.0536    0.0000 H   0  0  0  0  0  0  0  0  0  0  0  0
    0.8370    2.0536    0.0000 H   0  0  0  0  0  0  0  0  0  0  0  0
   -1.1805   -1.0164    0.0000 H   0  0  0  0  0  0  0  0  0  0  0  0
    0.4245   -1.9431    0.0000 H   0  0  0  0  0  0  0  0  0  0  0  0
   -0.6455   -1.9430    0.0000 H   0  0  0  0  0  0  0  0  0  0  0  0
    2.4181    3.2329    0.0000 H   0  0  0  0  0  0  0  0  0  0  0  0
    0.5659    3.1682    0.0000 H   0  0  0  0  0  0  0  0  0  0  0  0
    1.4733    3.7352    0.0000 H   0  0  0  0  0  0  0  0  0  0  0  0
    0.8771    3.3479    0.0000 H   0  0  0  0  0  0  0  0  0  0  0  0
   -0.1049    1.7762    0.0000 H   0  0  0  0  0  0  0  0  0  0  0  0
   -0.0676    2.8456    0.0000 H   0  0  0  0  0  0  0  0  0  0  0  0
    1.4275   -1.0164    0.0000 H   0  0  0  0  0  0  0  0  0  0  0  0
  1  2  1  0  0  0  0
  1 22  1  0  0  0  0
  1 23  1  0  0  0  0
  1 24  1  0  0  0  0
  2  3  1  0  0  0  0
  2 25  1  0  0  0  0
  2 26  1  0  0  0  0
  3  4  1  0  0  0  0
  3 27  1  0  0  0  0
  3 28  1  0  0  0  0
  4  5  2  0  0  0  0
  4  9  1  0  0  0  0
  5  6  1  0  0  0  0
  5 29  1  0  0  0  0
  6  7  2  0  0  0  0
  6 21  1  0  0  0  0
  7  8  1  0  0  0  0
  8  9  2  0  0  0  0
  8 10  1  0  0  0  0
  9 30  1  0  0  0  0
 10 11  1  0  0  0  0
 11 12  1  0  0  0  0
 11 19  1  0  0  0  0
 11 20  1  0  0  0  0
 12 13  1  0  0  0  0
 12 17  1  0  0  0  0
 12 31  1  6  0  0  0
 13  7  1  0  0  0  0
 13 14  1  0  0  0  0
 13 32  1  1  0  0  0
 14 15  2  0  0  0  0
 14 33  1  0  0  0  0
 15 16  1  0  0  0  0
 15 18  1  0  0  0  0
 16 17  1  0  0  0  0
 16 34  1  0  0  0  0
 16 35  1  0  0  0  0
 17 36  1  0  0  0  0
 17 37  1  0  0  0  0
 18 38  1  0  0  0  0
 18 39  1  0  0  0  0
 18 40  1  0  0  0  0
 19 41  1  0  0  0  0
 19 42  1  0  0  0  0
 19 43  1  0  0  0  0
 20 44  1  0  0  0  0
 20 45  1  0  0  0  0
 20 46  1  0  0  0  0
 21 47  1  0  0  0  0
M  END
>  <DRUGBANK_ID>
DB11755

>  <COMMON_NAME>
Tetrahydrocannabivarin

>  <CAS_NUMBER>
31262-37-0

>  <UNII>
I5YE3I47D8

>  <SYNONYMS>
THCV

$$$$
