
 OpenBabel10282417072D

 56 59  0  0  0  0  0  0  0  0999 V2000
    2.5066   -0.7353    0.0000 C   0  0  0  0  0  0  0  0  0  0  0  0
    3.1972   -0.3453    0.0000 C   0  0  0  0  0  0  0  0  0  0  0  0
    3.1972    0.4411    0.0000 C   0  0  0  0  0  0  0  0  0  0  0  0
    2.5130    0.8440    0.0000 C   0  0  0  0  0  0  0  0  0  0  0  0
    1.8289    0.4476    0.0000 C   0  0  0  0  0  0  0  0  0  0  0  0
    1.8224   -0.3388    0.0000 C   0  0  0  0  0  0  0  0  0  0  0  0
    1.1446    0.8440    0.0000 C   0  0  1  0  0  0  0  0  0  0  0  0
    1.1446    1.6305    0.0000 C   0  0  0  0  0  0  0  0  0  0  0  0
    0.4604    0.4540    0.0000 C   0  0  0  0  0  0  0  0  0  0  0  0
    1.8289    2.0270    0.0000 O   0  0  0  0  0  0  0  0  0  0  0  0
    0.4604   -0.3324    0.0000 O   0  0  0  0  0  0  0  0  0  0  0  0
   -0.2174    0.8440    0.0000 O   0  0  0  0  0  0  0  0  0  0  0  0
   -2.3915    0.7353    0.0000 C   0  0  1  0  0  0  0  0  0  0  0  0
   -1.5539   -0.9399    0.0000 C   0  0  2  0  0  0  0  0  0  0  0  0
   -1.5858    0.9335    0.0000 C   0  0  0  0  0  0  0  0  0  0  0  0
   -0.9143   -0.4092    0.0000 C   0  0  0  0  0  0  0  0  0  0  0  0
   -0.9335    0.4284    0.0000 C   0  0  1  0  0  0  0  0  0  0  0  0
   -2.3723   -0.7673    0.0000 C   0  0  2  0  0  0  0  0  0  0  0  0
   -2.7432   -0.0256    0.0000 C   0  0  1  0  0  0  0  0  0  0  0  0
   -3.1972   -0.7161    0.0000 O   0  0  0  0  0  0  0  0  0  0  0  0
   -1.5347    0.1214    0.0000 N   0  3  3  0  0  0  0  0  0  0  0  0
   -2.1165   -0.2045    0.0000 C   0  0  0  0  0  0  0  0  0  0  0  0
   -0.7098    0.1279    0.0000 C   0  0  0  0  0  0  0  0  0  0  0  0
   -0.2941   -0.5882    0.0000 C   0  0  0  0  0  0  0  0  0  0  0  0
   -0.7098   -1.3108    0.0000 C   0  0  0  0  0  0  0  0  0  0  0  0
   -0.2877   -2.0270    0.0000 C   0  0  0  0  0  0  0  0  0  0  0  0
    2.5009   -1.7673    0.0000 H   0  0  0  0  0  0  0  0  0  0  0  0
    4.0885   -0.8655    0.0000 H   0  0  0  0  0  0  0  0  0  0  0  0
    4.0931    0.9533    0.0000 H   0  0  0  0  0  0  0  0  0  0  0  0
    2.5166    1.8760    0.0000 H   0  0  0  0  0  0  0  0  0  0  0  0
    0.9261   -0.8504    0.0000 H   0  0  0  0  0  0  0  0  0  0  0  0
    2.0716    1.3783    0.0000 H   0  0  0  0  0  0  0  0  0  0  0  0
    0.2175    2.1648    0.0000 H   0  0  0  0  0  0  0  0  0  0  0  0
    1.1434    2.7005    0.0000 H   0  0  0  0  0  0  0  0  0  0  0  0
    2.6697    1.5433    0.0000 H   0  0  0  0  0  0  0  0  0  0  0  0
   -2.1184   -0.2993    0.0000 H   0  0  0  0  0  0  0  0  0  0  0  0
   -2.2204   -0.1028    0.0000 H   0  0  0  0  0  0  0  0  0  0  0  0
   -1.3640    1.9803    0.0000 H   0  0  0  0  0  0  0  0  0  0  0  0
   -0.5812    1.3019    0.0000 H   0  0  0  0  0  0  0  0  0  0  0  0
    0.0593   -0.8529    0.0000 H   0  0  0  0  0  0  0  0  0  0  0  0
   -0.0211    0.1799    0.0000 H   0  0  0  0  0  0  0  0  0  0  0  0
   -0.8624    1.4960    0.0000 H   0  0  0  0  0  0  0  0  0  0  0  0
   -2.5162   -1.8276    0.0000 H   0  0  0  0  0  0  0  0  0  0  0  0
   -3.6784    0.4942    0.0000 H   0  0  0  0  0  0  0  0  0  0  0  0
   -3.0361    0.3425    0.0000 H   0  0  0  0  0  0  0  0  0  0  0  0
   -2.1304   -1.2744    0.0000 H   0  0  0  0  0  0  0  0  0  0  0  0
   -3.0500   -0.7274    0.0000 H   0  0  0  0  0  0  0  0  0  0  0  0
   -0.1796    1.0573    0.0000 H   0  0  0  0  0  0  0  0  0  0  0  0
    0.3602    0.1319    0.0000 H   0  0  0  0  0  0  0  0  0  0  0  0
    0.7759   -0.5861    0.0000 H   0  0  0  0  0  0  0  0  0  0  0  0
    0.2425   -1.5139    0.0000 H   0  0  0  0  0  0  0  0  0  0  0  0
   -1.7798   -1.3164    0.0000 H   0  0  0  0  0  0  0  0  0  0  0  0
   -1.2382   -2.2412    0.0000 H   0  0  0  0  0  0  0  0  0  0  0  0
   -0.8144   -2.9584    0.0000 H   0  0  0  0  0  0  0  0  0  0  0  0
    0.7823   -2.0174    0.0000 H   0  0  0  0  0  0  0  0  0  0  0  0
    0.2556   -2.9488    0.0000 H   0  0  0  0  0  0  0  0  0  0  0  0
  1  6  1  0  0  0  0
  1  2  2  0  0  0  0
  1 27  1  0  0  0  0
  2  3  1  0  0  0  0
  2 28  1  0  0  0  0
  3  4  2  0  0  0  0
  3 29  1  0  0  0  0
  4  5  1  0  0  0  0
  4 30  1  0  0  0  0
  5  7  1  0  0  0  0
  5  6  2  0  0  0  0
  6 31  1  0  0  0  0
  7  9  1  0  0  0  0
  7  8  1  0  0  0  0
  7 32  1  1  0  0  0
  8 10  1  0  0  0  0
  8 33  1  0  0  0  0
  8 34  1  0  0  0  0
  9 12  1  0  0  0  0
  9 11  2  0  0  0  0
 10 35  1  0  0  0  0
 13 19  1  0  0  0  0
 13 15  1  0  0  0  0
 13 21  1  0  0  0  0
 13 36  1  1  0  0  0
 14 18  1  0  0  0  0
 14 16  1  0  0  0  0
 14 21  1  0  0  0  0
 14 37  1  1  0  0  0
 15 17  1  0  0  0  0
 15 38  1  0  0  0  0
 15 39  1  0  0  0  0
 16 17  1  0  0  0  0
 16 40  1  0  0  0  0
 16 41  1  0  0  0  0
 17 12  1  0  0  0  0
 17 42  1  1  0  0  0
 18 19  1  0  0  0  0
 18 20  1  0  0  0  0
 18 43  1  6  0  0  0
 19 20  1  0  0  0  0
 19 44  1  6  0  0  0
 21 22  1  0  0  0  0
 21 23  1  0  0  0  0
 22 45  1  0  0  0  0
 22 46  1  0  0  0  0
 22 47  1  0  0  0  0
 23 24  1  0  0  0  0
 23 48  1  0  0  0  0
 23 49  1  0  0  0  0
 24 25  1  0  0  0  0
 24 50  1  0  0  0  0
 24 51  1  0  0  0  0
 25 26  1  0  0  0  0
 25 52  1  0  0  0  0
 25 53  1  0  0  0  0
 26 54  1  0  0  0  0
 26 55  1  0  0  0  0
 26 56  1  0  0  0  0
M  CHG  1  21   1
M  END
>  <DRUGBANK_ID>
DB09300

>  <SECONDARY_ACCESSION_NUMBERS>
DB11535

>  <COMMON_NAME>
Butylscopolamine

>  <CAS_NUMBER>
7182-53-8

>  <UNII>
2Z3E1OF81V

>  <SYNONYMS>
butilescopolamina; N-butylscopolammonium; N-butylscopolammonium cation; N-butylscopolammonium ion

$$$$
