CT8
 OpenBabel10282417072D

 38 41  0  0  0  0  0  0  0  0999 V2000
    2.2964    1.5506    0.0000 Br  0  0  0  0  0  0  0  0  0  0  0  0
    1.5819    1.9631    0.0000 C   0  0  0  0  0  0  0  0  0  0  0  0
    0.8674    1.5506    0.0000 C   0  0  0  0  0  0  0  0  0  0  0  0
    0.1529    1.9631    0.0000 C   0  0  0  0  0  0  0  0  0  0  0  0
    0.1529    2.7881    0.0000 C   0  0  0  0  0  0  0  0  0  0  0  0
    0.8674    3.2006    0.0000 C   0  0  0  0  0  0  0  0  0  0  0  0
    1.5819    2.7881    0.0000 C   0  0  0  0  0  0  0  0  0  0  0  0
   -0.5615    1.5506    0.0000 C   0  0  0  0  0  0  0  0  0  0  0  0
   -0.5615    0.7256    0.0000 C   0  0  0  0  0  0  0  0  0  0  0  0
   -1.2760    0.3131    0.0000 C   0  0  0  0  0  0  0  0  0  0  0  0
   -1.9905    0.7256    0.0000 N   0  3  0  0  0  0  0  0  0  0  0  0
   -2.7751    0.4707    0.0000 N   0  0  0  0  0  0  0  0  0  0  0  0
   -3.2600    1.1381    0.0000 C   0  0  0  0  0  0  0  0  0  0  0  0
   -1.9905    1.5506    0.0000 C   0  0  0  0  0  0  0  0  0  0  0  0
   -1.2760    1.9631    0.0000 N   0  0  0  0  0  0  0  0  0  0  0  0
   -1.2760   -0.5119    0.0000 N   0  0  0  0  0  0  0  0  0  0  0  0
   -0.5615   -0.9244    0.0000 C   0  0  0  0  0  0  0  0  0  0  0  0
   -0.5615   -1.7494    0.0000 C   0  0  0  0  0  0  0  0  0  0  0  0
    0.1529   -2.1619    0.0000 C   0  0  0  0  0  0  0  0  0  0  0  0
    0.1529   -2.9869    0.0000 C   0  0  0  0  0  0  0  0  0  0  0  0
   -0.5615   -3.3994    0.0000 N   0  0  0  0  0  0  0  0  0  0  0  0
   -1.2760   -2.9869    0.0000 C   0  0  0  0  0  0  0  0  0  0  0  0
   -1.2760   -2.1619    0.0000 C   0  0  0  0  0  0  0  0  0  0  0  0
   -2.7751    1.8055    0.0000 N   0  0  0  0  0  0  0  0  0  0  0  0
    0.8674    0.5186    0.0000 H   0  0  0  0  0  0  0  0  0  0  0  0
   -0.7408    3.3041    0.0000 H   0  0  0  0  0  0  0  0  0  0  0  0
    0.8674    4.2326    0.0000 H   0  0  0  0  0  0  0  0  0  0  0  0
    2.4756    3.3041    0.0000 H   0  0  0  0  0  0  0  0  0  0  0  0
    0.3322    0.2096    0.0000 H   0  0  0  0  0  0  0  0  0  0  0  0
   -3.0793   -0.4656    0.0000 H   0  0  0  0  0  0  0  0  0  0  0  0
   -4.2920    1.1381    0.0000 H   0  0  0  0  0  0  0  0  0  0  0  0
   -2.1286   -1.0042    0.0000 H   0  0  0  0  0  0  0  0  0  0  0  0
    0.3651   -0.3894    0.0000 H   0  0  0  0  0  0  0  0  0  0  0  0
    0.3651   -1.4594    0.0000 H   0  0  0  0  0  0  0  0  0  0  0  0
    1.0466   -1.6459    0.0000 H   0  0  0  0  0  0  0  0  0  0  0  0
    1.0466   -3.5029    0.0000 H   0  0  0  0  0  0  0  0  0  0  0  0
   -2.1697   -3.5029    0.0000 H   0  0  0  0  0  0  0  0  0  0  0  0
   -2.1697   -1.6459    0.0000 H   0  0  0  0  0  0  0  0  0  0  0  0
  1  2  1  0  0  0  0
  2  3  1  0  0  0  0
  2  7  2  0  0  0  0
  3  4  2  0  0  0  0
  3 25  1  0  0  0  0
  4  5  1  0  0  0  0
  4  8  1  0  0  0  0
  5  6  2  0  0  0  0
  5 26  1  0  0  0  0
  6  7  1  0  0  0  0
  6 27  1  0  0  0  0
  7 28  1  0  0  0  0
  8  9  1  0  0  0  0
  8 15  2  0  0  0  0
  9 10  2  0  0  0  0
  9 29  1  0  0  0  0
 10 11  1  0  0  0  0
 10 16  1  0  0  0  0
 11 12  1  0  0  0  0
 11 14  2  0  0  0  0
 12 13  1  0  0  0  0
 12 30  1  0  0  0  0
 13 24  2  0  0  0  0
 13 31  1  0  0  0  0
 14 15  1  0  0  0  0
 14 24  1  0  0  0  0
 16 17  1  0  0  0  0
 16 32  1  0  0  0  0
 17 18  1  0  0  0  0
 17 33  1  0  0  0  0
 17 34  1  0  0  0  0
 18 19  2  0  0  0  0
 18 23  1  0  0  0  0
 19 20  1  0  0  0  0
 19 35  1  0  0  0  0
 20 21  2  0  0  0  0
 20 36  1  0  0  0  0
 21 22  1  0  0  0  0
 22 23  2  0  0  0  0
 22 37  1  0  0  0  0
 23 38  1  0  0  0  0
M  CHG  1  11   1
M  END
>  <DRUGBANK_ID>
DB04669

>  <COMMON_NAME>
TRIAZOLOPYRIMIDINE

$$$$
