
 OpenBabel10282417072D

 31 29  0  0  0  0  0  0  0  0999 V2000
   -4.4075    0.0000    0.0000 Sr  0  2  0  0  0  0  0  0  0  0  0  0
   -2.7590    0.0000    0.0000 Sr  0  2  0  0  0  0  0  0  0  0  0  0
   -0.6699    0.9873    0.0000 O   0  0  0  0  0  0  0  0  0  0  0  0
   -0.5024    0.1851    0.0000 C   0  0  0  0  0  0  0  0  0  0  0  0
   -1.1107   -0.3702    0.0000 O   0  5  0  0  0  0  0  0  0  0  0  0
    0.2820   -0.0704    0.0000 C   0  0  0  0  0  0  0  0  0  0  0  0
    0.8902    0.4760    0.0000 N   0  0  0  0  0  0  0  0  0  0  0  0
    0.7228    1.2870    0.0000 C   0  0  0  0  0  0  0  0  0  0  0  0
    1.3310    1.8334    0.0000 C   0  0  0  0  0  0  0  0  0  0  0  0
    2.1156    1.5867    0.0000 O   0  0  0  0  0  0  0  0  0  0  0  0
    1.1635    2.6445    0.0000 O   0  5  0  0  0  0  0  0  0  0  0  0
    1.6749    0.2292    0.0000 C   0  0  0  0  0  0  0  0  0  0  0  0
    1.9305   -0.5553    0.0000 C   0  0  0  0  0  0  0  0  0  0  0  0
    1.4456   -1.2252    0.0000 C   0  0  0  0  0  0  0  0  0  0  0  0
    0.9609   -1.8864    0.0000 N   0  0  0  0  0  0  0  0  0  0  0  0
    2.7590   -0.5553    0.0000 C   0  0  0  0  0  0  0  0  0  0  0  0
    3.2350   -1.2252    0.0000 C   0  0  0  0  0  0  0  0  0  0  0  0
    2.9001   -1.9745    0.0000 C   0  0  0  0  0  0  0  0  0  0  0  0
    2.0803   -2.0627    0.0000 O   0  0  0  0  0  0  0  0  0  0  0  0
    3.3849   -2.6445    0.0000 O   0  5  0  0  0  0  0  0  0  0  0  0
    3.0147    0.2292    0.0000 C   0  0  0  0  0  0  0  0  0  0  0  0
    3.7992    0.4760    0.0000 C   0  0  0  0  0  0  0  0  0  0  0  0
    4.4075   -0.0704    0.0000 O   0  0  0  0  0  0  0  0  0  0  0  0
    3.9667    1.2870    0.0000 O   0  5  0  0  0  0  0  0  0  0  0  0
    2.3448    0.7140    0.0000 S   0  0  0  0  0  0  0  0  0  0  0  0
    0.5035   -1.1172    0.0000 H   0  0  0  0  0  0  0  0  0  0  0  0
    1.2993   -0.4021    0.0000 H   0  0  0  0  0  0  0  0  0  0  0  0
   -0.2937    1.6212    0.0000 H   0  0  0  0  0  0  0  0  0  0  0  0
    0.5027    2.3341    0.0000 H   0  0  0  0  0  0  0  0  0  0  0  0
    4.2998   -1.1197    0.0000 H   0  0  0  0  0  0  0  0  0  0  0  0
    3.8607   -2.0932    0.0000 H   0  0  0  0  0  0  0  0  0  0  0  0
  3  4  2  0  0  0  0
  4  5  1  0  0  0  0
  4  6  1  0  0  0  0
  6  7  1  0  0  0  0
  6 26  1  0  0  0  0
  6 27  1  0  0  0  0
  7  8  1  0  0  0  0
  7 12  1  0  0  0  0
  8  9  1  0  0  0  0
  8 28  1  0  0  0  0
  8 29  1  0  0  0  0
  9 10  2  0  0  0  0
  9 11  1  0  0  0  0
 12 13  2  0  0  0  0
 12 25  1  0  0  0  0
 13 14  1  0  0  0  0
 13 16  1  0  0  0  0
 14 15  3  0  0  0  0
 16 17  1  0  0  0  0
 16 21  2  0  0  0  0
 17 18  1  0  0  0  0
 17 30  1  0  0  0  0
 17 31  1  0  0  0  0
 18 19  2  0  0  0  0
 18 20  1  0  0  0  0
 21 22  1  0  0  0  0
 21 25  1  0  0  0  0
 22 23  2  0  0  0  0
 22 24  1  0  0  0  0
M  CHG  6   1   2   2   2   5  -1  11  -1  20  -1  24  -1
M  END
>  <DRUGBANK_ID>
DB09267

>  <COMMON_NAME>
Strontium ranelate

>  <CAS_NUMBER>
135459-87-9

>  <UNII>
04NQ160FRU

$$$$
