3TP
 OpenBabel10282417072D

 48 50  0  0  0  0  0  0  0  0999 V2000
    2.5410   -2.8681    0.0000 C   0  0  2  0  0  0  0  0  0  0  0  0
    2.7125   -3.6751    0.0000 C   0  0  0  0  0  0  0  0  0  0  0  0
    2.0994   -4.2271    0.0000 O   0  0  0  0  0  0  0  0  0  0  0  0
    4.1646   -3.4451    0.0000 C   0  0  0  0  0  0  0  0  0  0  0  0
    4.8320   -3.9300    0.0000 C   0  0  0  0  0  0  0  0  0  0  0  0
    4.5771   -4.7146    0.0000 C   0  0  0  0  0  0  0  0  0  0  0  0
    3.7521   -4.7146    0.0000 C   0  0  0  0  0  0  0  0  0  0  0  0
    1.5849   -1.8062    0.0000 C   0  0  0  0  0  0  0  0  0  0  0  0
    0.9174   -0.6502    0.0000 C   0  0  0  0  0  0  0  0  0  0  0  0
    0.3043   -0.0981    0.0000 C   0  0  0  0  0  0  0  0  0  0  0  0
   -0.4803   -0.3531    0.0000 C   0  0  0  0  0  0  0  0  0  0  0  0
   -1.0934    0.1990    0.0000 C   0  0  0  0  0  0  0  0  0  0  0  0
   -0.1372    1.2609    0.0000 C   0  0  0  0  0  0  0  0  0  0  0  0
    0.4758    0.7088    0.0000 C   0  0  0  0  0  0  0  0  0  0  0  0
    1.7564   -2.6132    0.0000 C   0  0  1  0  0  0  0  0  0  0  0  0
    3.4972   -3.9300    0.0000 N   0  0  0  0  0  0  0  0  0  0  0  0
    3.1541   -2.3161    0.0000 N   0  0  0  0  0  0  0  0  0  0  0  0
    0.8312   -1.4706    0.0000 N   0  0  0  0  0  0  0  0  0  0  0  0
    1.7244   -0.4786    0.0000 N   0  0  0  0  0  0  0  0  0  0  0  0
    2.1369   -1.1931    0.0000 O   0  0  0  0  0  0  0  0  0  0  0  0
   -0.9219    1.0059    0.0000 C   0  0  0  0  0  0  0  0  0  0  0  0
   -1.5350    1.5580    0.0000 S   0  0  0  0  0  0  0  0  0  0  0  0
   -2.1481    2.1100    0.0000 O   0  0  0  0  0  0  0  0  0  0  0  0
   -0.9829    2.1711    0.0000 O   0  0  0  0  0  0  0  0  0  0  0  0
   -2.0870    0.9449    0.0000 C   0  0  0  0  0  0  0  0  0  0  0  0
    1.1433   -3.1652    0.0000 C   0  0  0  0  0  0  0  0  0  0  0  0
    2.1071   -3.2588    0.0000 H   0  0  0  0  0  0  0  0  0  0  0  0
    2.1903   -2.2225    0.0000 H   0  0  0  0  0  0  0  0  0  0  0  0
    4.1646   -2.3751    0.0000 H   0  0  0  0  0  0  0  0  0  0  0  0
    3.2112   -2.9593    0.0000 H   0  0  0  0  0  0  0  0  0  0  0  0
    5.8496   -3.5993    0.0000 H   0  0  0  0  0  0  0  0  0  0  0  0
    5.5886   -4.6866    0.0000 H   0  0  0  0  0  0  0  0  0  0  0  0
    5.2060   -5.5802    0.0000 H   0  0  0  0  0  0  0  0  0  0  0  0
    4.0913   -5.6680    0.0000 H   0  0  0  0  0  0  0  0  0  0  0  0
    3.1232   -5.5802    0.0000 H   0  0  0  0  0  0  0  0  0  0  0  0
    2.6953   -4.5472    0.0000 H   0  0  0  0  0  0  0  0  0  0  0  0
   -0.6949   -1.3626    0.0000 H   0  0  0  0  0  0  0  0  0  0  0  0
   -2.0749   -0.1199    0.0000 H   0  0  0  0  0  0  0  0  0  0  0  0
    0.0774    2.2703    0.0000 H   0  0  0  0  0  0  0  0  0  0  0  0
    1.4573    1.0276    0.0000 H   0  0  0  0  0  0  0  0  0  0  0  0
    4.1242   -2.6313    0.0000 H   0  0  0  0  0  0  0  0  0  0  0  0
    2.9421   -1.3184    0.0000 H   0  0  0  0  0  0  0  0  0  0  0  0
   -3.1336    1.1673    0.0000 H   0  0  0  0  0  0  0  0  0  0  0  0
   -1.7563   -0.0727    0.0000 H   0  0  0  0  0  0  0  0  0  0  0  0
   -2.8029    0.1497    0.0000 H   0  0  0  0  0  0  0  0  0  0  0  0
    0.1257   -2.8345    0.0000 H   0  0  0  0  0  0  0  0  0  0  0  0
    1.3657   -4.2118    0.0000 H   0  0  0  0  0  0  0  0  0  0  0  0
    0.3481   -3.8811    0.0000 H   0  0  0  0  0  0  0  0  0  0  0  0
  1  2  1  0  0  0  0
  1 15  1  0  0  0  0
  1 17  1  0  0  0  0
  1 27  1  1  0  0  0
  2  3  2  0  0  0  0
  2 16  1  0  0  0  0
  4  5  1  0  0  0  0
  4 16  1  0  0  0  0
  4 29  1  0  0  0  0
  4 30  1  0  0  0  0
  5  6  1  0  0  0  0
  5 31  1  0  0  0  0
  5 32  1  0  0  0  0
  6  7  1  0  0  0  0
  6 33  1  0  0  0  0
  6 34  1  0  0  0  0
  7 16  1  0  0  0  0
  7 35  1  0  0  0  0
  7 36  1  0  0  0  0
  8 15  1  0  0  0  0
  8 18  2  0  0  0  0
  8 20  1  0  0  0  0
  9 10  1  0  0  0  0
  9 18  1  0  0  0  0
  9 19  2  0  0  0  0
 10 11  1  0  0  0  0
 10 14  2  0  0  0  0
 11 12  2  0  0  0  0
 11 37  1  0  0  0  0
 12 21  1  0  0  0  0
 12 38  1  0  0  0  0
 13 14  1  0  0  0  0
 13 21  2  0  0  0  0
 13 39  1  0  0  0  0
 14 40  1  0  0  0  0
 15 26  1  0  0  0  0
 15 28  1  1  0  0  0
 17 41  1  0  0  0  0
 17 42  1  0  0  0  0
 19 20  1  0  0  0  0
 21 22  1  0  0  0  0
 22 23  2  0  0  0  0
 22 24  2  0  0  0  0
 22 25  1  0  0  0  0
 25 43  1  0  0  0  0
 25 44  1  0  0  0  0
 25 45  1  0  0  0  0
 26 46  1  0  0  0  0
 26 47  1  0  0  0  0
 26 48  1  0  0  0  0
M  END
>  <DRUGBANK_ID>
DB07067

>  <COMMON_NAME>
(2S,3S)-3-{3-[4-(METHYLSULFONYL)PHENYL]-1,2,4-OXADIAZOL-5-YL}-1-OXO-1-PYRROLIDIN-1-YLBUTAN-2-AMINE

$$$$
