
 OpenBabel10282417072D

 31 32  0  0  0  0  0  0  0  0999 V2000
   -0.9189   -0.3345    0.0000 O   0  0  0  0  0  0  0  0  0  0  0  0
   -1.3940    1.7467    0.0000 O   0  0  0  0  0  0  0  0  0  0  0  0
   -2.6271   -0.5613    0.0000 O   0  0  0  0  0  0  0  0  0  0  0  0
   -0.1652   -1.6491    0.0000 O   0  0  0  0  0  0  0  0  0  0  0  0
    2.6927   -1.6491    0.0000 O   0  0  0  0  0  0  0  0  0  0  0  0
    1.9782   -0.4115    0.0000 N   0  0  0  0  0  0  0  0  0  0  0  0
    1.2638   -1.6491    0.0000 N   0  0  0  0  0  0  0  0  0  0  0  0
   -1.0584    0.9931    0.0000 C   0  0  1  0  0  0  0  0  0  0  0  0
   -0.1652    0.0009    0.0000 C   0  0  2  0  0  0  0  0  0  0  0  0
   -0.2514    0.8214    0.0000 C   0  0  0  0  0  0  0  0  0  0  0  0
   -1.4709    0.2785    0.0000 C   0  0  1  0  0  0  0  0  0  0  0  0
    0.5493   -0.4115    0.0000 C   0  0  0  0  0  0  0  0  0  0  0  0
   -2.2915    0.1923    0.0000 C   0  0  0  0  0  0  0  0  0  0  0  0
    1.2638    0.0009    0.0000 C   0  0  0  0  0  0  0  0  0  0  0  0
    0.5493   -1.2365    0.0000 C   0  0  0  0  0  0  0  0  0  0  0  0
    1.9782   -1.2365    0.0000 C   0  0  0  0  0  0  0  0  0  0  0  0
    2.6927    0.0009    0.0000 C   0  0  0  0  0  0  0  0  0  0  0  0
   -0.8239    2.5315    0.0000 H   0  0  0  0  0  0  0  0  0  0  0  0
   -3.5918   -0.6626    0.0000 H   0  0  0  0  0  0  0  0  0  0  0  0
    1.2638   -2.6336    0.0000 H   0  0  0  0  0  0  0  0  0  0  0  0
   -0.3850    1.8246    0.0000 H   0  0  0  0  0  0  0  0  0  0  0  0
   -0.2212   -1.0676    0.0000 H   0  0  0  0  0  0  0  0  0  0  0  0
    0.5439    1.5373    0.0000 H   0  0  0  0  0  0  0  0  0  0  0  0
    0.7475    0.4379    0.0000 H   0  0  0  0  0  0  0  0  0  0  0  0
   -1.8544   -0.7204    0.0000 H   0  0  0  0  0  0  0  0  0  0  0  0
   -2.9204    1.0580    0.0000 H   0  0  0  0  0  0  0  0  0  0  0  0
   -1.8562    1.1698    0.0000 H   0  0  0  0  0  0  0  0  0  0  0  0
    1.2638    1.0329    0.0000 H   0  0  0  0  0  0  0  0  0  0  0  0
    3.6193   -0.5342    0.0000 H   0  0  0  0  0  0  0  0  0  0  0  0
    2.6928    1.0709    0.0000 H   0  0  0  0  0  0  0  0  0  0  0  0
    3.6194    0.5358    0.0000 H   0  0  0  0  0  0  0  0  0  0  0  0
  1  9  1  0  0  0  0
  1 11  1  0  0  0  0
  2 18  1  0  0  0  0
  3 13  1  0  0  0  0
  3 19  1  0  0  0  0
  4 15  2  0  0  0  0
  5 16  2  0  0  0  0
  6 14  1  0  0  0  0
  6 16  1  0  0  0  0
  6 17  1  0  0  0  0
  7 15  1  0  0  0  0
  7 16  1  0  0  0  0
  7 20  1  0  0  0  0
  8  2  1  0  0  0  0
  8 10  1  0  0  0  0
  8 11  1  0  0  0  0
  8 21  1  6  0  0  0
  9 10  1  0  0  0  0
  9 12  1  0  0  0  0
  9 22  1  1  0  0  0
 10 23  1  0  0  0  0
 10 24  1  0  0  0  0
 11 13  1  0  0  0  0
 11 25  1  1  0  0  0
 12 14  2  0  0  0  0
 12 15  1  0  0  0  0
 13 26  1  0  0  0  0
 13 27  1  0  0  0  0
 14 28  1  0  0  0  0
 17 29  1  0  0  0  0
 17 30  1  0  0  0  0
 17 31  1  0  0  0  0
M  END
>  <DRUGBANK_ID>
DB03763

>  <SECONDARY_ACCESSION_NUMBERS>
EXPT00252

>  <COMMON_NAME>
5-methyl-2'-deoxypseudouridine

>  <CAS_NUMBER>
65358-15-8

$$$$
