
 OpenBabel10282417072D

 30 32  0  0  0  0  0  0  0  0999 V2000
   -0.0976   -0.6026    0.0000 N   0  0  0  0  0  0  0  0  0  0  0  0
   -0.7347   -0.1614    0.0000 C   0  0  0  0  0  0  0  0  0  0  0  0
    0.5871   -0.1155    0.0000 C   0  0  0  0  0  0  0  0  0  0  0  0
   -0.4912    0.6503    0.0000 C   0  0  0  0  0  0  0  0  0  0  0  0
    0.2782    0.6503    0.0000 C   0  0  0  0  0  0  0  0  0  0  0  0
   -1.0930    1.2733    0.0000 C   0  0  0  0  0  0  0  0  0  0  0  0
    0.8659    1.2627    0.0000 C   0  0  0  0  0  0  0  0  0  0  0  0
    1.3725   -0.2550    0.0000 C   0  0  3  0  0  0  0  0  0  0  0  0
   -1.5802   -0.3502    0.0000 C   0  0  0  0  0  0  0  0  0  0  0  0
   -1.8854    1.0687    0.0000 C   0  0  0  0  0  0  0  0  0  0  0  0
    1.6514    1.1233    0.0000 C   0  0  0  0  0  0  0  0  0  0  0  0
   -2.1290    0.2568    0.0000 C   0  0  0  0  0  0  0  0  0  0  0  0
    1.9072    0.3733    0.0000 C   0  0  0  0  0  0  0  0  0  0  0  0
    1.6584   -1.0333    0.0000 C   0  0  0  0  0  0  0  0  0  0  0  0
    1.1400   -1.6634    0.0000 O   0  0  0  0  0  0  0  0  0  0  0  0
    2.4573   -1.1560    0.0000 N   0  0  0  0  0  0  0  0  0  0  0  0
   -2.4573    1.6634    0.0000 Cl  0  0  0  0  0  0  0  0  0  0  0  0
   -0.0914   -1.5871    0.0000 H   0  0  0  0  0  0  0  0  0  0  0  0
   -0.8128    2.2665    0.0000 H   0  0  0  0  0  0  0  0  0  0  0  0
    0.5342    2.2800    0.0000 H   0  0  0  0  0  0  0  0  0  0  0  0
    1.5679    2.0702    0.0000 H   0  0  0  0  0  0  0  0  0  0  0  0
    1.0107    0.7520    0.0000 H   0  0  0  0  0  0  0  0  0  0  0  0
   -1.8931   -1.3336    0.0000 H   0  0  0  0  0  0  0  0  0  0  0  0
    2.3479    1.9355    0.0000 H   0  0  0  0  0  0  0  0  0  0  0  0
    2.7021    0.9211    0.0000 H   0  0  0  0  0  0  0  0  0  0  0  0
   -3.1357    0.0298    0.0000 H   0  0  0  0  0  0  0  0  0  0  0  0
    2.9583    0.1731    0.0000 H   0  0  0  0  0  0  0  0  0  0  0  0
    2.6088    1.1811    0.0000 H   0  0  0  0  0  0  0  0  0  0  0  0
    2.8144   -2.0734    0.0000 H   0  0  0  0  0  0  0  0  0  0  0  0
    3.0733   -0.3880    0.0000 H   0  0  0  0  0  0  0  0  0  0  0  0
  1 18  1  0  0  0  0
  2  1  1  0  0  0  0
  3  1  1  0  0  0  0
  4  2  2  0  0  0  0
  5  3  2  0  0  0  0
  5  4  1  0  0  0  0
  6  4  1  0  0  0  0
  6 19  1  0  0  0  0
  7  5  1  0  0  0  0
  7 20  1  0  0  0  0
  7 21  1  0  0  0  0
  8  3  1  0  0  0  0
  8 22  1  0  0  0  0
  9  2  1  0  0  0  0
  9 23  1  0  0  0  0
 10  6  2  0  0  0  0
 11  7  1  0  0  0  0
 11 24  1  0  0  0  0
 11 25  1  0  0  0  0
 12  9  2  0  0  0  0
 12 10  1  0  0  0  0
 12 26  1  0  0  0  0
 13  8  1  0  0  0  0
 13 11  1  0  0  0  0
 13 27  1  0  0  0  0
 13 28  1  0  0  0  0
 14  8  1  0  0  0  0
 15 14  2  0  0  0  0
 16 14  1  0  0  0  0
 16 29  1  0  0  0  0
 16 30  1  0  0  0  0
 17 10  1  0  0  0  0
M  END
>  <DRUGBANK_ID>
DB13978

>  <COMMON_NAME>
Selisistat

>  <CAS_NUMBER>
49843-98-3

>  <UNII>
L19ECD5014

>  <SYNONYMS>
rac-6-Chloro-2,3,4,9-tetrahydro-1H-carbazole-1-carboxamide; Selisistat

$$$$
