
 OpenBabel10282417072D

 82 80  0  0  0  0  0  0  0  0999 V2000
   -4.3936   -1.6500    0.0000 C   0  0  0  0  0  3  0  0  0  0  0  0
   -1.5358   -1.6500    0.0000 C   0  0  0  0  0  0  0  0  0  0  0  0
   -3.6792    2.8875    0.0000 C   0  0  0  0  0  0  0  0  0  0  0  0
   -4.3936    3.3000    0.0000 C   0  0  0  0  0  0  0  0  0  0  0  0
   -3.6792    2.0625    0.0000 C   0  0  0  0  0  0  0  0  0  0  0  0
   -5.1081    2.8875    0.0000 C   0  0  0  0  0  0  0  0  0  0  0  0
   -2.2502   -0.4125    0.0000 C   0  0  0  0  0  0  0  0  0  0  0  0
   -2.9647   -0.8250    0.0000 C   0  0  0  0  0  0  0  0  0  0  0  0
   -5.1081   -0.4125    0.0000 C   0  0  0  0  0  0  0  0  0  0  0  0
   -5.8226    0.8250    0.0000 C   0  0  0  0  0  0  0  0  0  0  0  0
   -4.3936   -0.8250    0.0000 C   0  0  3  0  0  0  0  0  0  0  0  0
   -4.3936    1.6500    0.0000 C   0  0  0  0  0  0  0  0  0  0  0  0
   -5.1081    2.0625    0.0000 C   0  0  0  0  0  0  0  0  0  0  0  0
   -6.5371    0.4125    0.0000 C   0  0  0  0  0  0  0  0  0  0  0  0
   -4.3936    0.8250    0.0000 C   0  0  0  0  0  0  0  0  0  0  0  0
   -5.1081    0.4125    0.0000 N   0  0  0  0  0  0  0  0  0  0  0  0
   -6.5371   -0.4125    0.0000 O   0  0  0  0  0  0  0  0  0  0  0  0
   -7.2515    0.8250    0.0000 O   0  5  0  0  0  0  0  0  0  0  0  0
   -3.6792    0.4125    0.0000 O   0  0  0  0  0  0  0  0  0  0  0  0
   -1.5358   -0.8250    0.0000 O   0  0  0  0  0  0  0  0  0  0  0  0
   -3.6792   -0.4125    0.0000 O   0  0  0  0  0  0  0  0  0  0  0  0
   -5.8226    1.6500    0.0000 O   0  0  0  0  0  0  0  0  0  0  0  0
    0.8213    0.3186    0.0000 C   0  0  0  0  0  0  0  0  0  0  0  0
    1.5358   -0.9188    0.0000 C   0  0  0  0  0  0  0  0  0  0  0  0
    1.5358    0.7311    0.0000 C   0  0  0  0  0  0  0  0  0  0  0  0
    2.2502   -0.5063    0.0000 C   0  0  0  0  0  0  0  0  0  0  0  0
    6.5371    0.3186    0.0000 C   0  0  0  0  0  0  0  0  0  0  0  0
    5.8226    1.5561    0.0000 C   0  0  0  0  0  0  0  0  0  0  0  0
    7.2515    0.7311    0.0000 C   0  0  0  0  0  0  0  0  0  0  0  0
    6.5371    1.9686    0.0000 C   0  0  0  0  0  0  0  0  0  0  0  0
    2.9647    0.7311    0.0000 C   0  0  0  0  0  0  0  0  0  0  0  0
    3.6792    0.3186    0.0000 C   0  0  0  0  0  0  0  0  0  0  0  0
    5.8226    0.7311    0.0000 C   0  0  0  0  0  0  0  0  0  0  0  0
    7.2515    1.5561    0.0000 C   0  0  0  0  0  0  0  0  0  0  0  0
    5.1081    0.3186    0.0000 C   0  0  0  0  0  0  0  0  0  0  0  0
    7.9660    1.9686    0.0000 N   0  0  0  0  0  0  0  0  0  0  0  0
    2.2502    0.3186    0.0000 N   0  0  0  0  0  0  0  0  0  0  0  0
    5.1081   -0.5063    0.0000 O   0  0  0  0  0  0  0  0  0  0  0  0
    4.3936    0.7311    0.0000 O   0  0  0  0  0  0  0  0  0  0  0  0
   -7.9660    1.2375    0.0000 Hg  0  3  0  0  0  0  0  0  0  0  0  0
   -4.5800   -3.3000    0.0000 O   0  0  0  0  0  0  0  0  0  0  0  0
   -5.3202   -2.1850    0.0000 H   0  0  0  0  0  0  0  0  0  0  0  0
   -3.4670   -2.1850    0.0000 H   0  0  0  0  0  0  0  0  0  0  0  0
   -2.4624   -2.1850    0.0000 H   0  0  0  0  0  0  0  0  0  0  0  0
   -0.6092   -2.1850    0.0000 H   0  0  0  0  0  0  0  0  0  0  0  0
   -1.5358   -2.7200    0.0000 H   0  0  0  0  0  0  0  0  0  0  0  0
   -2.7855    3.4035    0.0000 H   0  0  0  0  0  0  0  0  0  0  0  0
   -4.3936    4.3320    0.0000 H   0  0  0  0  0  0  0  0  0  0  0  0
   -2.7855    1.5465    0.0000 H   0  0  0  0  0  0  0  0  0  0  0  0
   -6.0018    3.4035    0.0000 H   0  0  0  0  0  0  0  0  0  0  0  0
   -2.2502    0.6575    0.0000 H   0  0  0  0  0  0  0  0  0  0  0  0
   -1.3235    0.1225    0.0000 H   0  0  0  0  0  0  0  0  0  0  0  0
   -2.9647   -1.8950    0.0000 H   0  0  0  0  0  0  0  0  0  0  0  0
   -3.8913   -1.3600    0.0000 H   0  0  0  0  0  0  0  0  0  0  0  0
   -6.0347   -0.9475    0.0000 H   0  0  0  0  0  0  0  0  0  0  0  0
   -6.0347    0.1225    0.0000 H   0  0  0  0  0  0  0  0  0  0  0  0
   -4.8960    0.2900    0.0000 H   0  0  0  0  0  0  0  0  0  0  0  0
   -4.8960    1.3600    0.0000 H   0  0  0  0  0  0  0  0  0  0  0  0
   -5.3202   -1.3600    0.0000 H   0  0  0  0  0  0  0  0  0  0  0  0
   -3.6792   -0.5245    0.0000 H   0  0  0  0  0  0  0  0  0  0  0  0
   -0.1053    0.8536    0.0000 H   0  0  0  0  0  0  0  0  0  0  0  0
    0.8213   -0.7514    0.0000 H   0  0  0  0  0  0  0  0  0  0  0  0
   -0.1054   -0.2164    0.0000 H   0  0  0  0  0  0  0  0  0  0  0  0
    0.6091   -0.3838    0.0000 H   0  0  0  0  0  0  0  0  0  0  0  0
    1.5358   -1.9888    0.0000 H   0  0  0  0  0  0  0  0  0  0  0  0
    0.6092   -1.4538    0.0000 H   0  0  0  0  0  0  0  0  0  0  0  0
    1.5358    1.8011    0.0000 H   0  0  0  0  0  0  0  0  0  0  0  0
    2.4625    1.2661    0.0000 H   0  0  0  0  0  0  0  0  0  0  0  0
    3.1769   -1.0413    0.0000 H   0  0  0  0  0  0  0  0  0  0  0  0
    3.1768    0.0287    0.0000 H   0  0  0  0  0  0  0  0  0  0  0  0
    6.5371   -0.7134    0.0000 H   0  0  0  0  0  0  0  0  0  0  0  0
    4.9289    2.0721    0.0000 H   0  0  0  0  0  0  0  0  0  0  0  0
    8.1452    0.2151    0.0000 H   0  0  0  0  0  0  0  0  0  0  0  0
    6.5371    3.0006    0.0000 H   0  0  0  0  0  0  0  0  0  0  0  0
    2.9647    1.8011    0.0000 H   0  0  0  0  0  0  0  0  0  0  0  0
    2.0381    1.2661    0.0000 H   0  0  0  0  0  0  0  0  0  0  0  0
    3.6792   -0.7514    0.0000 H   0  0  0  0  0  0  0  0  0  0  0  0
    4.6059   -0.2164    0.0000 H   0  0  0  0  0  0  0  0  0  0  0  0
    8.8186    1.4763    0.0000 H   0  0  0  0  0  0  0  0  0  0  0  0
    7.9660    2.9531    0.0000 H   0  0  0  0  0  0  0  0  0  0  0  0
   -3.6100   -3.3000    0.0000 H   0  0  0  0  0  0  0  0  0  0  0  0
   -5.0650   -2.4600    0.0000 H   0  0  0  0  0  0  0  0  0  0  0  0
  1 42  1  0  0  0  0
  1 43  1  0  0  0  0
  2 44  1  0  0  0  0
  2 45  1  0  0  0  0
  2 46  1  0  0  0  0
  3 47  1  0  0  0  0
  4  3  2  0  0  0  0
  4 48  1  0  0  0  0
  5  3  1  0  0  0  0
  5 49  1  0  0  0  0
  6  4  1  0  0  0  0
  6 50  1  0  0  0  0
  7 51  1  0  0  0  0
  7 52  1  0  0  0  0
  8  7  1  0  0  0  0
  8 53  1  0  0  0  0
  8 54  1  0  0  0  0
  9 55  1  0  0  0  0
  9 56  1  0  0  0  0
 10 57  1  0  0  0  0
 10 58  1  0  0  0  0
 11  1  1  0  0  0  0
 11  9  1  0  0  0  0
 11 59  1  0  0  0  0
 12  5  2  0  0  0  0
 13  6  2  0  0  0  0
 13 12  1  0  0  0  0
 14 10  1  0  0  0  0
 15 12  1  0  0  0  0
 16  9  1  0  0  0  0
 16 15  2  3  0  0  0
 17 14  2  0  0  0  0
 18 14  1  0  0  0  0
 19 15  1  0  0  0  0
 19 60  1  0  0  0  0
 20  2  1  0  0  0  0
 20  7  1  0  0  0  0
 21  8  1  0  0  0  0
 21 11  1  0  0  0  0
 22 10  1  0  0  0  0
 22 13  1  0  0  0  0
 23 61  1  0  0  0  0
 23 62  1  0  0  0  0
 23 63  1  0  0  0  0
 24 64  1  0  0  0  0
 24 65  1  0  0  0  0
 24 66  1  0  0  0  0
 25 23  1  0  0  0  0
 25 67  1  0  0  0  0
 25 68  1  0  0  0  0
 26 24  1  0  0  0  0
 26 69  1  0  0  0  0
 26 70  1  0  0  0  0
 27 71  1  0  0  0  0
 28 72  1  0  0  0  0
 29 27  1  0  0  0  0
 29 73  1  0  0  0  0
 30 28  2  0  0  0  0
 30 74  1  0  0  0  0
 31 75  1  0  0  0  0
 31 76  1  0  0  0  0
 32 31  1  0  0  0  0
 32 77  1  0  0  0  0
 32 78  1  0  0  0  0
 33 27  2  0  0  0  0
 33 28  1  0  0  0  0
 34 29  2  0  0  0  0
 34 30  1  0  0  0  0
 35 33  1  0  0  0  0
 36 34  1  0  0  0  0
 36 79  1  0  0  0  0
 36 80  1  0  0  0  0
 37 25  1  0  0  0  0
 37 26  1  0  0  0  0
 37 31  1  0  0  0  0
 38 35  2  0  0  0  0
 39 32  1  0  0  0  0
 39 35  1  0  0  0  0
 41 81  1  0  0  0  0
 41 82  1  0  0  0  0
M  RAD  1   1   2
M  CHG  2  18  -1  40   1
M  END
>  <DRUGBANK_ID>
DB09364

>  <COMMON_NAME>
Procaine merethoxylline

>  <CAS_NUMBER>
60064-28-0

>  <UNII>
O77D636VYN

>  <SYNONYMS>
Merethoxylline procaine

$$$$
