
 OpenBabel10282417072D

 49 50  0  0  0  0  0  0  0  0999 V2000
    0.5984   -1.0216    0.0000 C   0  0  0  0  0  0  0  0  0  0  0  0
   -4.4029    1.0409    0.0000 C   0  0  0  0  0  0  0  0  0  0  0  0
   -4.4029    0.2159    0.0000 C   0  0  0  0  0  0  0  0  0  0  0  0
   -3.6884    1.4534    0.0000 C   0  0  0  0  0  0  0  0  0  0  0  0
    2.9206   -1.1886    0.0000 C   0  0  0  0  0  0  0  0  0  0  0  0
   -3.6884   -0.1966    0.0000 C   0  0  0  0  0  0  0  0  0  0  0  0
   -2.9739    1.0409    0.0000 C   0  0  0  0  0  0  0  0  0  0  0  0
    3.3331   -0.4741    0.0000 C   0  0  0  0  0  0  0  0  0  0  0  0
   -2.2595   -0.1966    0.0000 C   0  0  0  0  0  0  0  0  0  0  0  0
   -1.5450    0.2159    0.0000 C   0  0  0  0  0  0  0  0  0  0  0  0
    2.1136   -1.0171    0.0000 C   0  0  0  0  0  0  0  0  0  0  0  0
    0.5984   -0.1966    0.0000 C   0  0  1  0  0  0  0  0  0  0  0  0
   -2.9739    0.2159    0.0000 C   0  0  0  0  0  0  0  0  0  0  0  0
   -0.8305   -0.1966    0.0000 C   0  0  1  0  0  0  0  0  0  0  0  0
    2.7810    0.1390    0.0000 C   0  0  1  0  0  0  0  0  0  0  0  0
    1.3129    0.2159    0.0000 C   0  0  0  0  0  0  0  0  0  0  0  0
   -0.8305   -1.0216    0.0000 C   0  0  0  0  0  0  0  0  0  0  0  0
    2.9526    0.9460    0.0000 C   0  0  0  0  0  0  0  0  0  0  0  0
   -0.1161    0.2159    0.0000 N   0  0  0  0  0  0  0  0  0  0  0  0
    2.0274   -0.1966    0.0000 N   0  0  0  0  0  0  0  0  0  0  0  0
    1.3129    1.0409    0.0000 O   0  0  0  0  0  0  0  0  0  0  0  0
   -0.1161   -1.4341    0.0000 O   0  0  0  0  0  0  0  0  0  0  0  0
   -1.5450   -1.4341    0.0000 O   0  0  0  0  0  0  0  0  0  0  0  0
    2.3395    1.4980    0.0000 O   0  0  0  0  0  0  0  0  0  0  0  0
    3.7372    1.2009    0.0000 O   0  0  0  0  0  0  0  0  0  0  0  0
    1.3129   -0.6091    0.0000 H   0  0  0  0  0  0  0  0  0  0  0  0
   -1.5450   -0.6091    0.0000 H   0  0  0  0  0  0  0  0  0  0  0  0
    3.5779    0.3525    0.0000 H   0  0  0  0  0  0  0  0  0  0  0  0
   -0.3282   -1.5566    0.0000 H   0  0  0  0  0  0  0  0  0  0  0  0
    1.5250   -1.5566    0.0000 H   0  0  0  0  0  0  0  0  0  0  0  0
    0.5984   -2.0916    0.0000 H   0  0  0  0  0  0  0  0  0  0  0  0
   -5.2966    1.5569    0.0000 H   0  0  0  0  0  0  0  0  0  0  0  0
   -5.2966   -0.3001    0.0000 H   0  0  0  0  0  0  0  0  0  0  0  0
   -3.6884    2.4854    0.0000 H   0  0  0  0  0  0  0  0  0  0  0  0
    3.3558   -2.1661    0.0000 H   0  0  0  0  0  0  0  0  0  0  0  0
    2.2473   -2.0202    0.0000 H   0  0  0  0  0  0  0  0  0  0  0  0
   -3.6884   -1.2286    0.0000 H   0  0  0  0  0  0  0  0  0  0  0  0
   -2.0802    1.5569    0.0000 H   0  0  0  0  0  0  0  0  0  0  0  0
    4.3972   -0.3622    0.0000 H   0  0  0  0  0  0  0  0  0  0  0  0
    3.7165    0.5248    0.0000 H   0  0  0  0  0  0  0  0  0  0  0  0
   -2.2595   -1.2666    0.0000 H   0  0  0  0  0  0  0  0  0  0  0  0
   -3.1862   -0.7316    0.0000 H   0  0  0  0  0  0  0  0  0  0  0  0
   -1.5450    1.2859    0.0000 H   0  0  0  0  0  0  0  0  0  0  0  0
   -0.6184    0.7509    0.0000 H   0  0  0  0  0  0  0  0  0  0  0  0
    1.3184   -1.7331    0.0000 H   0  0  0  0  0  0  0  0  0  0  0  0
    1.1147   -0.6336    0.0000 H   0  0  0  0  0  0  0  0  0  0  0  0
   -0.1161    1.2359    0.0000 H   0  0  0  0  0  0  0  0  0  0  0  0
   -2.3565   -0.9656    0.0000 H   0  0  0  0  0  0  0  0  0  0  0  0
    4.4335    0.5739    0.0000 H   0  0  0  0  0  0  0  0  0  0  0  0
  1 29  1  0  0  0  0
  1 30  1  0  0  0  0
  1 31  1  0  0  0  0
  2 32  1  0  0  0  0
  3  2  2  0  0  0  0
  3 33  1  0  0  0  0
  4  2  1  0  0  0  0
  4 34  1  0  0  0  0
  5 35  1  0  0  0  0
  5 36  1  0  0  0  0
  6  3  1  0  0  0  0
  6 37  1  0  0  0  0
  7  4  2  0  0  0  0
  7 38  1  0  0  0  0
  8  5  1  0  0  0  0
  8 39  1  0  0  0  0
  8 40  1  0  0  0  0
  9 41  1  0  0  0  0
  9 42  1  0  0  0  0
 10  9  1  0  0  0  0
 10 43  1  0  0  0  0
 10 44  1  0  0  0  0
 11  5  1  0  0  0  0
 11 45  1  0  0  0  0
 11 46  1  0  0  0  0
 12  1  1  0  0  0  0
 12 26  1  1  0  0  0
 13  6  2  0  0  0  0
 13  7  1  0  0  0  0
 13  9  1  0  0  0  0
 14 10  1  0  0  0  0
 14 19  1  0  0  0  0
 14 27  1  1  0  0  0
 15  8  1  0  0  0  0
 15 18  1  0  0  0  0
 15 28  1  1  0  0  0
 16 12  1  0  0  0  0
 17 14  1  0  0  0  0
 19 12  1  0  0  0  0
 19 47  1  0  0  0  0
 20 11  1  0  0  0  0
 20 15  1  0  0  0  0
 20 16  1  0  0  0  0
 21 16  2  0  0  0  0
 22 17  2  0  0  0  0
 23 17  1  0  0  0  0
 23 48  1  0  0  0  0
 24 18  2  0  0  0  0
 25 18  1  0  0  0  0
 25 49  1  0  0  0  0
M  END
>  <DRUGBANK_ID>
DB09477

>  <COMMON_NAME>
Enalaprilat

>  <CAS_NUMBER>
76420-72-9

>  <UNII>
Q508Q118JM

>  <SYNONYMS>
Enalaprilat; Enalaprilat anhydrous

$$$$
