
 OpenBabel10282417072D

 51 54  0  0  0  0  0  0  0  0999 V2000
   -4.4684    0.6623    0.0000 C   0  0  0  0  0  0  0  0  0  0  0  0
   -0.9856    2.1330    0.0000 C   0  0  0  0  0  0  0  0  0  0  0  0
   -3.6614    0.8338    0.0000 C   0  0  0  0  0  0  0  0  0  0  0  0
    3.9164   -2.1330    0.0000 C   0  0  0  0  0  0  0  0  0  0  0  0
    4.4684   -1.5199    0.0000 C   0  0  0  0  0  0  0  0  0  0  0  0
    3.1094   -1.9615    0.0000 C   0  0  0  0  0  0  0  0  0  0  0  0
    4.2134   -0.7353    0.0000 C   0  0  0  0  0  0  0  0  0  0  0  0
    2.8544   -1.1769    0.0000 C   0  0  0  0  0  0  0  0  0  0  0  0
    2.0475   -1.0054    0.0000 C   0  0  0  0  0  0  0  0  0  0  0  0
    1.4954   -1.6184    0.0000 C   0  0  0  0  0  0  0  0  0  0  0  0
    0.9856   -0.0492    0.0000 C   0  0  0  0  0  0  0  0  0  0  0  0
   -1.4533   -1.6184    0.0000 C   0  0  0  0  0  0  0  0  0  0  0  0
    3.1515    0.2207    0.0000 C   0  0  0  0  0  0  0  0  0  0  0  0
   -0.6885    0.7353    0.0000 C   0  0  0  0  0  0  0  0  0  0  0  0
    3.4065   -0.5638    0.0000 C   0  0  0  0  0  0  0  0  0  0  0  0
    1.7925   -0.2207    0.0000 C   0  0  0  0  0  0  0  0  0  0  0  0
    0.4335   -0.6623    0.0000 C   0  0  0  0  0  0  0  0  0  0  0  0
   -0.9434   -0.0492    0.0000 C   0  0  0  0  0  0  0  0  0  0  0  0
    0.6885   -1.4469    0.0000 C   0  0  0  0  0  0  0  0  0  0  0  0
   -0.6463   -1.4469    0.0000 C   0  0  0  0  0  0  0  0  0  0  0  0
   -0.3914   -0.6623    0.0000 C   0  0  0  0  0  0  0  0  0  0  0  0
   -1.7504   -0.2207    0.0000 C   0  0  0  0  0  0  0  0  0  0  0  0
   -2.3024    0.3923    0.0000 C   0  0  0  0  0  0  0  0  0  0  0  0
   -2.0053   -1.0054    0.0000 N   0  0  0  0  0  0  0  0  0  0  0  0
    0.0210   -1.9318    0.0000 N   0  0  0  0  0  0  0  0  0  0  0  0
   -2.0475    1.1769    0.0000 O   0  0  0  0  0  0  0  0  0  0  0  0
   -1.2405    1.3484    0.0000 O   0  0  0  0  0  0  0  0  0  0  0  0
   -3.1094    0.2207    0.0000 O   0  0  0  0  0  0  0  0  0  0  0  0
    2.3446    0.3923    0.0000 O   0  0  0  0  0  0  0  0  0  0  0  0
   -5.1843    1.4575    0.0000 H   0  0  0  0  0  0  0  0  0  0  0  0
   -4.7991   -0.3553    0.0000 H   0  0  0  0  0  0  0  0  0  0  0  0
   -5.5150    0.4399    0.0000 H   0  0  0  0  0  0  0  0  0  0  0  0
    0.0610    2.3555    0.0000 H   0  0  0  0  0  0  0  0  0  0  0  0
   -1.7016    2.9281    0.0000 H   0  0  0  0  0  0  0  0  0  0  0  0
   -0.6550    3.1506    0.0000 H   0  0  0  0  0  0  0  0  0  0  0  0
   -3.3307    1.8514    0.0000 H   0  0  0  0  0  0  0  0  0  0  0  0
   -2.6148    1.0562    0.0000 H   0  0  0  0  0  0  0  0  0  0  0  0
    4.2353   -3.1145    0.0000 H   0  0  0  0  0  0  0  0  0  0  0  0
    5.4779   -1.7344    0.0000 H   0  0  0  0  0  0  0  0  0  0  0  0
    2.4189   -2.7285    0.0000 H   0  0  0  0  0  0  0  0  0  0  0  0
    4.9039    0.0317    0.0000 H   0  0  0  0  0  0  0  0  0  0  0  0
    1.8449   -0.9623    0.0000 H   0  0  0  0  0  0  0  0  0  0  0  0
    3.0569   -1.2200    0.0000 H   0  0  0  0  0  0  0  0  0  0  0  0
    1.8142   -2.5999    0.0000 H   0  0  0  0  0  0  0  0  0  0  0  0
    0.6667    0.9323    0.0000 H   0  0  0  0  0  0  0  0  0  0  0  0
   -1.7722   -2.5999    0.0000 H   0  0  0  0  0  0  0  0  0  0  0  0
    3.8675    1.0159    0.0000 H   0  0  0  0  0  0  0  0  0  0  0  0
    2.8209    1.2383    0.0000 H   0  0  0  0  0  0  0  0  0  0  0  0
    0.3581    0.9577    0.0000 H   0  0  0  0  0  0  0  0  0  0  0  0
   -0.3578    1.7529    0.0000 H   0  0  0  0  0  0  0  0  0  0  0  0
    0.0209   -2.9163    0.0000 H   0  0  0  0  0  0  0  0  0  0  0  0
  1 30  1  0  0  0  0
  1 31  1  0  0  0  0
  1 32  1  0  0  0  0
  2 33  1  0  0  0  0
  2 34  1  0  0  0  0
  2 35  1  0  0  0  0
  3  1  1  0  0  0  0
  3 36  1  0  0  0  0
  3 37  1  0  0  0  0
  4 38  1  0  0  0  0
  5  4  2  0  0  0  0
  5 39  1  0  0  0  0
  6  4  1  0  0  0  0
  6 40  1  0  0  0  0
  7  5  1  0  0  0  0
  7 41  1  0  0  0  0
  8  6  2  0  0  0  0
  8 42  1  0  0  0  0
  9 43  1  0  0  0  0
 10  9  2  0  0  0  0
 10 44  1  0  0  0  0
 11 45  1  0  0  0  0
 12 46  1  0  0  0  0
 13 47  1  0  0  0  0
 13 48  1  0  0  0  0
 14 49  1  0  0  0  0
 14 50  1  0  0  0  0
 15  7  2  0  0  0  0
 15  8  1  0  0  0  0
 15 13  1  0  0  0  0
 16  9  1  0  0  0  0
 16 11  2  0  0  0  0
 17 11  1  0  0  0  0
 18 14  1  0  0  0  0
 19 10  1  0  0  0  0
 19 17  2  0  0  0  0
 20 12  2  0  0  0  0
 21 17  1  0  0  0  0
 21 18  2  0  0  0  0
 21 20  1  0  0  0  0
 22 18  1  0  0  0  0
 23 22  1  0  0  0  0
 24 12  1  0  0  0  0
 24 22  2  0  0  0  0
 25 19  1  0  0  0  0
 25 20  1  0  0  0  0
 25 51  1  0  0  0  0
 26 23  2  0  0  0  0
 27  2  1  0  0  0  0
 27 14  1  0  0  0  0
 28  3  1  0  0  0  0
 28 23  1  0  0  0  0
 29 13  1  0  0  0  0
 29 16  1  0  0  0  0
M  END
>  <DRUGBANK_ID>
DB17063

>  <COMMON_NAME>
ZK-93423

>  <CAS_NUMBER>
83910-44-5

>  <UNII>
B6PWX5B47Q

>  <SYNONYMS>
9H-Pyrido[3,4-b]indole-3-carboxylicacid, 4-(methoxymethyl)-6-(phenylmethoxy)-, ethyl ester

$$$$
