
 OpenBabel10282417072D

 60 63  0  0  1  0  0  0  0  0999 V2000
    1.5767   -0.3873    0.0000 C   0  0  0  0  0  0  0  0  0  0  0  0
   -3.0569    1.7186    0.0000 C   0  0  0  0  0  0  0  0  0  0  0  0
   -3.0786    3.1300    0.0000 C   0  0  0  0  0  0  0  0  0  0  0  0
    1.2677    2.5711    0.0000 C   0  0  0  0  0  0  0  0  0  0  0  0
   -1.2483    2.9732    0.0000 C   0  0  0  0  0  0  0  0  0  0  0  0
    2.8919    2.2807    0.0000 C   0  0  0  0  0  0  0  0  0  0  0  0
    0.4555    2.7164    0.0000 C   0  0  0  0  0  0  0  0  0  0  0  0
   -1.2594    0.9486    0.0000 C   0  0  0  0  0  0  0  0  0  0  0  0
    2.0798    2.4259    0.0000 C   0  0  0  0  0  0  0  0  0  0  0  0
   -0.3566    2.8616    0.0000 C   0  0  0  0  0  0  0  0  0  0  0  0
   -1.9423    1.4116    0.0000 C   0  0  0  0  0  0  0  0  0  0  0  0
    0.4843    0.5338    0.0000 C   0  0  0  0  0  0  0  0  0  0  0  0
    2.6404    0.8741    0.0000 C   0  0  0  0  0  0  0  0  0  0  0  0
    1.2964    0.3886    0.0000 C   0  0  0  0  0  0  0  0  0  0  0  0
   -2.5251    2.3493    0.0000 C   0  0  0  0  0  0  0  0  0  0  0  0
   -2.3363    3.4899    0.0000 C   0  0  0  0  0  0  0  0  0  0  0  0
    3.1722    1.5048    0.0000 C   0  0  0  0  0  0  0  0  0  0  0  0
    0.2040    1.3097    0.0000 C   0  0  2  0  0  0  0  0  0  0  0  0
    0.7358    1.9404    0.0000 C   0  0  1  0  0  0  0  0  0  0  0  0
   -0.6081    1.4549    0.0000 C   0  0  1  0  0  0  0  0  0  0  0  0
    1.8283    1.0193    0.0000 C   0  0  0  0  0  0  0  0  0  0  0  0
    1.5480    1.7952    0.0000 C   0  0  1  0  0  0  0  0  0  0  0  0
   -0.8884    2.2309    0.0000 C   0  0  2  0  0  0  0  0  0  0  0  0
   -1.7130    2.2041    0.0000 C   0  0  2  0  0  0  0  0  0  0  0  0
   -3.2079    2.8122    0.0000 O   0  0  0  0  0  0  0  0  0  0  0  0
   -2.2767    4.3127    0.0000 O   0  0  0  0  0  0  0  0  0  0  0  0
    3.9843    1.3596    0.0000 O   0  0  0  0  0  0  0  0  0  0  0  0
   -1.6534    3.0269    0.0000 O   0  0  0  0  0  0  0  0  0  0  0  0
   -0.3278    0.6790    0.0000 H   0  0  0  0  0  0  0  0  0  0  0  0
    1.0161    1.1645    0.0000 H   0  0  0  0  0  0  0  0  0  0  0  0
   -0.0763    2.0856    0.0000 H   0  0  0  0  0  0  0  0  0  0  0  0
    0.8870   -1.2053    0.0000 H   0  0  0  0  0  0  0  0  0  0  0  0
    2.6300   -0.5756    0.0000 H   0  0  0  0  0  0  0  0  0  0  0  0
    1.9403   -1.3936    0.0000 H   0  0  0  0  0  0  0  0  0  0  0  0
   -4.1102    1.9069    0.0000 H   0  0  0  0  0  0  0  0  0  0  0  0
   -2.6933    0.7123    0.0000 H   0  0  0  0  0  0  0  0  0  0  0  0
   -3.7466    0.9006    0.0000 H   0  0  0  0  0  0  0  0  0  0  0  0
   -3.9643    3.7304    0.0000 H   0  0  0  0  0  0  0  0  0  0  0  0
   -3.1557    2.0628    0.0000 H   0  0  0  0  0  0  0  0  0  0  0  0
   -4.0414    2.6632    0.0000 H   0  0  0  0  0  0  0  0  0  0  0  0
    1.9574    3.3891    0.0000 H   0  0  0  0  0  0  0  0  0  0  0  0
    0.2144    2.7594    0.0000 H   0  0  0  0  0  0  0  0  0  0  0  0
    0.9041    3.5774    0.0000 H   0  0  0  0  0  0  0  0  0  0  0  0
   -0.6479    3.8589    0.0000 H   0  0  0  0  0  0  0  0  0  0  0  0
   -2.3155    3.0503    0.0000 H   0  0  0  0  0  0  0  0  0  0  0  0
   -1.7151    3.9360    0.0000 H   0  0  0  0  0  0  0  0  0  0  0  0
    3.5816    3.0987    0.0000 H   0  0  0  0  0  0  0  0  0  0  0  0
    3.9452    2.0924    0.0000 H   0  0  0  0  0  0  0  0  0  0  0  0
    1.1453    3.5344    0.0000 H   0  0  0  0  0  0  0  0  0  0  0  0
    1.5088    2.5280    0.0000 H   0  0  0  0  0  0  0  0  0  0  0  0
   -1.2246   -0.1208    0.0000 H   0  0  0  0  0  0  0  0  0  0  0  0
   -0.2908    0.4940    0.0000 H   0  0  0  0  0  0  0  0  0  0  0  0
    1.7162    3.4322    0.0000 H   0  0  0  0  0  0  0  0  0  0  0  0
    1.0265    2.6142    0.0000 H   0  0  0  0  0  0  0  0  0  0  0  0
   -0.7202    3.8679    0.0000 H   0  0  0  0  0  0  0  0  0  0  0  0
   -1.4099    3.0499    0.0000 H   0  0  0  0  0  0  0  0  0  0  0  0
   -2.9486    1.0480    0.0000 H   0  0  0  0  0  0  0  0  0  0  0  0
   -2.7231    2.1432    0.0000 H   0  0  0  0  0  0  0  0  0  0  0  0
   -0.1809   -0.2552    0.0000 H   0  0  0  0  0  0  0  0  0  0  0  0
    2.9910   -0.0965    0.0000 H   0  0  0  0  0  0  0  0  0  0  0  0
  1 32  1  0  0  0  0
  1 33  1  0  0  0  0
  1 34  1  0  0  0  0
  2 35  1  0  0  0  0
  2 36  1  0  0  0  0
  2 37  1  0  0  0  0
  3 38  1  0  0  0  0
  3 39  1  0  0  0  0
  3 40  1  0  0  0  0
  4 41  1  0  0  0  0
  4 42  1  0  0  0  0
  4 43  1  0  0  0  0
  5 44  1  0  0  0  0
  5 45  1  0  0  0  0
  5 46  1  0  0  0  0
  6 47  1  0  0  0  0
  6 48  1  0  0  0  0
  7 49  1  0  0  0  0
  7 50  1  0  0  0  0
  8 51  1  0  0  0  0
  8 52  1  0  0  0  0
  9  6  1  0  0  0  0
  9 53  1  0  0  0  0
  9 54  1  0  0  0  0
 10  7  1  0  0  0  0
 10 55  1  0  0  0  0
 10 56  1  0  0  0  0
 11  8  1  0  0  0  0
 11 57  1  0  0  0  0
 11 58  1  0  0  0  0
 12 59  1  0  0  0  0
 13 60  1  0  0  0  0
 14  1  1  0  0  0  0
 14 12  2  0  0  0  0
 15  2  1  0  0  0  0
 16  3  1  0  0  0  0
 17  6  1  0  0  0  0
 17 13  1  0  0  0  0
 18 12  1  0  0  0  0
 18 29  1  6  0  0  0
 19  7  1  0  0  0  0
 19 18  1  0  0  0  0
 19 30  1  1  0  0  0
 20  8  1  0  0  0  0
 20 18  1  0  0  0  0
 20 31  1  1  0  0  0
 21 13  2  0  0  0  0
 21 14  1  0  0  0  0
 22  4  1  6  0  0  0
 22  9  1  0  0  0  0
 22 19  1  0  0  0  0
 22 21  1  0  0  0  0
 23  5  1  6  0  0  0
 23 10  1  0  0  0  0
 23 20  1  0  0  0  0
 24 11  1  0  0  0  0
 24 15  1  6  0  0  0
 24 23  1  0  0  0  0
 24 28  1  0  0  0  0
 25 15  2  0  0  0  0
 26 16  2  0  0  0  0
 27 17  2  0  0  0  0
 28 16  1  0  0  0  0
M  END
>  <DRUGBANK_ID>
DB00351

>  <SECONDARY_ACCESSION_NUMBERS>
APRD01092

>  <COMMON_NAME>
Megestrol acetate

>  <CAS_NUMBER>
595-33-5

>  <UNII>
TJ2M0FR8ES

>  <SYNONYMS>
17-Acetoxy-6-methylpregna-4,6-diene-3,20-dione; 17-Hydroxy-6-methylpregna-4,6-diene-3,20-dione 17-acetate; 17alpha-Acetoxy-6-dehydro-6-methylprogesterone; 17alpha-Hydroxy-6-methylpregna-4,6-diene-3,20-dione acetate; 17α-Acetoxy-6-dehydro-6-methylprogesterone; 17α-Hydroxy-6-methylpregna-4,6-diene-3,20-dione acetate; 6-Dehydro-6-methyl-17alpha-acetoxyprogesterone; 6-Dehydro-6-methyl-17α-acetoxyprogesterone; 6-Methyl-17alpha-acetoxypregna-4,6-diene-3,20-dione; 6-Methyl-17alpha-hydroxy-delta(sup 6)-progesterone acetate; 6-Methyl-17α-acetoxypregna-4,6-diene-3,20-dione; 6-Methyl-17α-hydroxy-delta(sup 6)-progesterone acetate; 6-Methyl-6-dehydro-17alpha-acetoxyprogesterone; 6-Methyl-6-dehydro-17α-acetoxyprogesterone; 6-Methyl-delta(sup 4,6)-pregnadien-17alpha-ol-3,20-dione acetate; 6-Methyl-delta(sup 4,6)-pregnadien-17α-ol-3,20-dione acetate; 6-Methyl-delta(sup 6)-dehydro-17alpha-acetoxyprogesterone; 6-Methyl-delta(sup 6)-dehydro-17α-acetoxyprogesterone; Megestrol acetate; MGA

$$$$
