
 OpenBabel10282417072D

 71 75  0  0  1  0  0  0  0  0999 V2000
   -9.0788   -1.1969    0.0000 C   0  0  0  0  0  0  0  0  0  0  0  0
   -9.3338   -1.9816    0.0000 C   0  0  0  0  0  0  0  0  0  0  0  0
   -8.2719   -1.0254    0.0000 C   0  0  0  0  0  0  0  0  0  0  0  0
   -7.9748   -2.4231    0.0000 C   0  0  0  0  0  0  0  0  0  0  0  0
   -4.8316   -1.9421    0.0000 C   0  0  0  0  0  0  0  0  0  0  0  0
   -0.5683   -1.4940    0.0000 C   0  0  0  0  0  0  0  0  0  0  0  0
    3.3523    1.1104    0.0000 C   0  0  0  0  0  0  0  0  0  0  0  0
    0.6538    1.5229    0.0000 C   0  0  0  0  0  0  0  0  0  0  0  0
   -8.7817   -2.5947    0.0000 C   0  0  0  0  0  0  0  0  0  0  0  0
   -5.5853   -1.6065    0.0000 C   0  0  2  0  0  0  0  0  0  0  0  0
    0.0992   -1.0091    0.0000 C   0  0  2  0  0  0  0  0  0  0  0  0
    1.9233    1.9354    0.0000 C   0  0  0  0  0  0  0  0  0  0  0  0
   -5.7568   -0.7995    0.0000 C   0  0  2  0  0  0  0  0  0  0  0  0
    0.8838   -1.2640    0.0000 C   0  0  2  0  0  0  0  0  0  0  0  0
   -6.5773   -0.7133    0.0000 C   0  0  2  0  0  0  0  0  0  0  0  0
    1.3687   -0.5966    0.0000 C   0  0  2  0  0  0  0  0  0  0  0  0
    2.6378    2.3479    0.0000 C   0  0  0  0  0  0  0  0  0  0  0  0
   -9.0367   -3.3793    0.0000 C   0  0  0  0  0  0  0  0  0  0  0  0
    1.9233    1.1104    0.0000 C   0  0  0  0  0  0  0  0  0  0  0  0
   -6.9129   -1.4670    0.0000 C   0  0  2  0  0  0  0  0  0  0  0  0
    0.8838    0.0709    0.0000 C   0  0  2  0  0  0  0  0  0  0  0  0
    2.6378    3.1729    0.0000 N   0  0  0  0  0  0  0  0  0  0  0  0
   -9.8437   -3.5508    0.0000 N   0  0  0  0  0  0  0  0  0  0  0  0
    3.3523    1.9354    0.0000 N   0  0  0  0  0  0  0  0  0  0  0  0
    2.6378    0.6979    0.0000 N   0  0  0  0  0  0  0  0  0  0  0  0
    1.1387    2.1904    0.0000 N   0  0  0  0  0  0  0  0  0  0  0  0
   -7.7198   -1.6385    0.0000 N   0  3  0  0  0  0  0  0  0  0  0  0
    1.1387    0.8555    0.0000 N   0  0  0  0  0  0  0  0  0  0  0  0
   -5.2048   -0.1865    0.0000 O   0  0  0  0  0  0  0  0  0  0  0  0
    1.1387   -2.0486    0.0000 O   0  0  0  0  0  0  0  0  0  0  0  0
   -6.9898    0.0012    0.0000 O   0  0  0  0  0  0  0  0  0  0  0  0
    2.1937   -0.5966    0.0000 O   0  0  0  0  0  0  0  0  0  0  0  0
   -3.0749   -1.0390    0.0000 O   0  0  0  0  0  0  0  0  0  0  0  0
   -3.7461   -2.5464    0.0000 O   0  0  0  0  0  0  0  0  0  0  0  0
   -2.4743   -0.9759    0.0000 O   0  0  0  0  0  0  0  0  0  0  0  0
   -1.5045   -2.3108    0.0000 O   0  0  0  0  0  0  0  0  0  0  0  0
   -4.1642   -1.4572    0.0000 O   0  0  0  0  0  0  0  0  0  0  0  0
   -1.3220   -1.1584    0.0000 O   0  0  0  0  0  0  0  0  0  0  0  0
   -6.2998   -2.0190    0.0000 O   0  0  0  0  0  0  0  0  0  0  0  0
    0.0992   -0.1841    0.0000 O   0  0  0  0  0  0  0  0  0  0  0  0
   -2.6568   -2.1283    0.0000 O   0  0  0  0  0  0  0  0  0  0  0  0
   -3.4105   -1.7927    0.0000 P   0  0  3  0  0  0  0  0  0  0  0  0
   -1.9894   -1.6433    0.0000 P   0  0  3  0  0  0  0  0  0  0  0  0
   -8.4846   -3.9924    0.0000 S   0  5  0  0  0  0  0  0  0  0  0  0
   -5.1604   -0.8994    0.0000 H   0  0  0  0  0  0  0  0  0  0  0  0
    0.4991   -1.7306    0.0000 H   0  0  0  0  0  0  0  0  0  0  0  0
   -4.9350   -0.7276    0.0000 H   0  0  0  0  0  0  0  0  0  0  0  0
    0.5351   -2.0117    0.0000 H   0  0  0  0  0  0  0  0  0  0  0  0
   -6.1280   -0.0214    0.0000 H   0  0  0  0  0  0  0  0  0  0  0  0
    1.7432   -1.3316    0.0000 H   0  0  0  0  0  0  0  0  0  0  0  0
   -7.4321   -0.8258    0.0000 H   0  0  0  0  0  0  0  0  0  0  0  0
    1.6986    0.1999    0.0000 H   0  0  0  0  0  0  0  0  0  0  0  0
   -9.7693   -0.4300    0.0000 H   0  0  0  0  0  0  0  0  0  0  0  0
  -10.3432   -2.1962    0.0000 H   0  0  0  0  0  0  0  0  0  0  0  0
   -7.9530   -0.0439    0.0000 H   0  0  0  0  0  0  0  0  0  0  0  0
   -7.2842   -3.1900    0.0000 H   0  0  0  0  0  0  0  0  0  0  0  0
   -4.7198   -3.0062    0.0000 H   0  0  0  0  0  0  0  0  0  0  0  0
   -3.8541   -2.3773    0.0000 H   0  0  0  0  0  0  0  0  0  0  0  0
   -0.4565   -2.5581    0.0000 H   0  0  0  0  0  0  0  0  0  0  0  0
   -1.4340   -2.1229    0.0000 H   0  0  0  0  0  0  0  0  0  0  0  0
    4.2460    0.5944    0.0000 H   0  0  0  0  0  0  0  0  0  0  0  0
   -0.3782    1.5229    0.0000 H   0  0  0  0  0  0  0  0  0  0  0  0
    3.4904    3.6651    0.0000 H   0  0  0  0  0  0  0  0  0  0  0  0
    1.7852    3.6651    0.0000 H   0  0  0  0  0  0  0  0  0  0  0  0
  -10.5024   -2.8191    0.0000 H   0  0  0  0  0  0  0  0  0  0  0  0
   -4.2560   -0.3882    0.0000 H   0  0  0  0  0  0  0  0  0  0  0  0
    0.4896   -2.7694    0.0000 H   0  0  0  0  0  0  0  0  0  0  0  0
   -6.5048    0.8412    0.0000 H   0  0  0  0  0  0  0  0  0  0  0  0
    2.6787   -1.4366    0.0000 H   0  0  0  0  0  0  0  0  0  0  0  0
   -4.7108   -2.6478    0.0000 H   0  0  0  0  0  0  0  0  0  0  0  0
   -2.0798   -0.0898    0.0000 H   0  0  0  0  0  0  0  0  0  0  0  0
  1 53  1  0  0  0  0
  2  1  2  0  0  0  0
  2 54  1  0  0  0  0
  3  1  1  0  0  0  0
  3 55  1  0  0  0  0
  4 56  1  0  0  0  0
  5 57  1  0  0  0  0
  5 58  1  0  0  0  0
  6 59  1  0  0  0  0
  6 60  1  0  0  0  0
  7 61  1  0  0  0  0
  8 62  1  0  0  0  0
  9  2  1  0  0  0  0
  9  4  2  0  0  0  0
 10  5  1  0  0  0  0
 10 45  1  6  0  0  0
 11  6  1  0  0  0  0
 11 46  1  6  0  0  0
 13 10  1  0  0  0  0
 13 29  1  0  0  0  0
 13 47  1  1  0  0  0
 14 11  1  0  0  0  0
 14 30  1  0  0  0  0
 14 48  1  1  0  0  0
 15 13  1  0  0  0  0
 15 31  1  0  0  0  0
 15 49  1  1  0  0  0
 16 14  1  0  0  0  0
 16 32  1  0  0  0  0
 16 50  1  1  0  0  0
 17 12  2  0  0  0  0
 18  9  1  0  0  0  0
 19 12  1  0  0  0  0
 20 15  1  0  0  0  0
 20 27  1  0  0  0  0
 20 51  1  6  0  0  0
 21 16  1  0  0  0  0
 21 28  1  0  0  0  0
 21 52  1  6  0  0  0
 22 17  1  0  0  0  0
 22 63  1  0  0  0  0
 22 64  1  0  0  0  0
 23 18  2  0  0  0  0
 23 65  1  0  0  0  0
 24  7  2  0  0  0  0
 24 17  1  0  0  0  0
 25  7  1  0  0  0  0
 25 19  2  0  0  0  0
 26  8  2  0  0  0  0
 26 12  1  0  0  0  0
 27  3  2  0  0  0  0
 27  4  1  0  0  0  0
 28  8  1  0  0  0  0
 28 19  1  0  0  0  0
 29 66  1  0  0  0  0
 30 67  1  0  0  0  0
 31 68  1  0  0  0  0
 32 69  1  0  0  0  0
 34 70  1  0  0  0  0
 35 71  1  0  0  0  0
 37  5  1  0  0  0  0
 38  6  1  0  0  0  0
 39 10  1  0  0  0  0
 39 20  1  0  0  0  0
 40 11  1  0  0  0  0
 40 21  1  0  0  0  0
 42 33  2  0  0  0  0
 42 34  1  0  0  0  0
 42 37  1  0  0  0  0
 42 41  1  0  0  0  0
 43 35  1  0  0  0  0
 43 36  2  0  0  0  0
 43 38  1  0  0  0  0
 43 41  1  0  0  0  0
 44 18  1  0  0  0  0
M  CHG  2  27   1  44  -1
M  END
>  <DRUGBANK_ID>
DB03893

>  <SECONDARY_ACCESSION_NUMBERS>
EXPT02928

>  <COMMON_NAME>
Thionicotinamide-Adenine-Dinucleotide

$$$$
