
 OpenBabel10282417072D

 28 28  0  0  1  0  0  0  0  0999 V2000
    1.4652   -0.8227    0.0000 O   0  0  0  0  0  0  0  0  0  0  0  0
    0.9803   -0.1553    0.0000 C   0  0  2  0  0  0  0  0  0  0  0  0
    0.1553   -0.1553    0.0000 C   0  0  1  0  0  0  0  0  0  0  0  0
   -0.3297   -0.8227    0.0000 C   0  0  0  0  0  0  0  0  0  0  0  0
    0.0059   -1.5764    0.0000 O   0  0  0  0  0  0  0  0  0  0  0  0
   -0.4790   -2.2438    0.0000 P   0  0  0  0  0  0  0  0  0  0  0  0
   -0.9640   -2.9112    0.0000 O   0  0  0  0  0  0  0  0  0  0  0  0
    0.1884   -2.7287    0.0000 O   0  0  0  0  0  0  0  0  0  0  0  0
   -1.1465   -1.7589    0.0000 O   0  0  0  0  0  0  0  0  0  0  0  0
   -0.0997    0.6294    0.0000 O   0  0  0  0  0  0  0  0  0  0  0  0
    0.5678    1.1143    0.0000 C   0  0  2  0  0  0  0  0  0  0  0  0
    0.0157    1.7274    0.0000 O   0  0  0  0  0  0  0  0  0  0  0  0
    1.2352    0.6294    0.0000 C   0  0  2  0  0  0  0  0  0  0  0  0
    2.0198    0.8843    0.0000 O   0  0  0  0  0  0  0  0  0  0  0  0
    1.1198    1.7274    0.0000 C   0  0  0  0  0  0  0  0  0  0  0  0
    0.8649    2.5120    0.0000 O   0  0  0  0  0  0  0  0  0  0  0  0
    1.9268    1.5559    0.0000 O   0  0  0  0  0  0  0  0  0  0  0  0
    1.0707   -1.7088    0.0000 H   0  0  0  0  0  0  0  0  0  0  0  0
    0.4945   -1.1087    0.0000 H   0  0  0  0  0  0  0  0  0  0  0  0
    0.6410   -1.1087    0.0000 H   0  0  0  0  0  0  0  0  0  0  0  0
   -1.3938   -0.7108    0.0000 H   0  0  0  0  0  0  0  0  0  0  0  0
   -0.9586   -1.6883    0.0000 H   0  0  0  0  0  0  0  0  0  0  0  0
   -1.9287   -2.8097    0.0000 H   0  0  0  0  0  0  0  0  0  0  0  0
    0.0870   -3.6934    0.0000 H   0  0  0  0  0  0  0  0  0  0  0  0
    0.3154    2.6499    0.0000 H   0  0  0  0  0  0  0  0  0  0  0  0
    1.4026    1.6862    0.0000 H   0  0  0  0  0  0  0  0  0  0  0  0
    2.7406    0.2352    0.0000 H   0  0  0  0  0  0  0  0  0  0  0  0
    1.4919    3.2083    0.0000 H   0  0  0  0  0  0  0  0  0  0  0  0
  1 18  1  0  0  0  0
  2  1  1  0  0  0  0
  2  3  1  0  0  0  0
  2 13  1  0  0  0  0
  2 19  1  1  0  0  0
  3  4  1  0  0  0  0
  3 10  1  0  0  0  0
  3 20  1  6  0  0  0
  4  5  1  0  0  0  0
  4 21  1  0  0  0  0
  4 22  1  0  0  0  0
  5  6  1  0  0  0  0
  6  7  1  0  0  0  0
  6  8  1  0  0  0  0
  6  9  2  0  0  0  0
  7 23  1  0  0  0  0
  8 24  1  0  0  0  0
 10 11  1  0  0  0  0
 11 12  1  6  0  0  0
 11 13  1  0  0  0  0
 11 15  1  0  0  0  0
 12 25  1  0  0  0  0
 13 14  1  0  0  0  0
 13 26  1  1  0  0  0
 14 27  1  0  0  0  0
 15 16  1  0  0  0  0
 15 17  2  0  0  0  0
 16 28  1  0  0  0  0
M  END
>  <DRUGBANK_ID>
DB04663

>  <COMMON_NAME>
2-KETO-6-PHOSPHATE-D-GLUCONIC ACID, ALPHA-FURANOSE FORM

$$$$
