2IG
 OpenBabel10282417072D

 53 56  0  0  0  0  0  0  0  0999 V2000
    1.6167    0.1569    0.0000 C   0  0  0  0  0  0  0  0  0  0  0  0
    2.4237    0.3284    0.0000 N   0  0  0  0  0  0  0  0  0  0  0  0
    2.9757   -0.2846    0.0000 C   0  0  0  0  0  0  0  0  0  0  0  0
    2.7208   -1.0693    0.0000 N   0  0  0  0  0  0  0  0  0  0  0  0
    1.9138   -1.2408    0.0000 C   0  0  0  0  0  0  0  0  0  0  0  0
    1.3618   -0.6277    0.0000 C   0  0  0  0  0  0  0  0  0  0  0  0
    1.0647    0.7700    0.0000 N   0  0  0  0  0  0  0  0  0  0  0  0
    3.7827   -0.1131    0.0000 N   0  0  0  0  0  0  0  0  0  0  0  0
    1.6589   -2.0254    0.0000 C   0  0  0  0  0  0  0  0  0  0  0  0
    0.8519   -2.1969    0.0000 C   0  0  0  0  0  0  0  0  0  0  0  0
    0.2999   -1.5838    0.0000 C   0  0  0  0  0  0  0  0  0  0  0  0
   -0.5071   -1.7554    0.0000 C   0  0  0  0  0  0  0  0  0  0  0  0
   -1.0591   -1.1423    0.0000 C   0  0  0  0  0  0  0  0  0  0  0  0
   -0.8042   -0.3577    0.0000 C   0  0  0  0  0  0  0  0  0  0  0  0
    0.0028   -0.1861    0.0000 C   0  0  0  0  0  0  0  0  0  0  0  0
    0.5548   -0.7992    0.0000 C   0  0  0  0  0  0  0  0  0  0  0  0
   -1.4716    0.1273    0.0000 N   0  0  0  0  0  0  0  0  0  0  0  0
   -1.4716    0.9523    0.0000 C   0  0  0  0  0  0  0  0  0  0  0  0
   -0.7572    1.3648    0.0000 C   0  0  0  0  0  0  0  0  0  0  0  0
   -0.7572    2.1898    0.0000 C   0  0  0  0  0  0  0  0  0  0  0  0
   -0.0427    2.6023    0.0000 O   0  0  0  0  0  0  0  0  0  0  0  0
   -0.0427    3.4273    0.0000 C   0  0  0  0  0  0  0  0  0  0  0  0
   -2.9460   -0.1861    0.0000 C   0  0  0  0  0  0  0  0  0  0  0  0
   -2.1391   -0.3577    0.0000 C   0  0  0  0  0  0  0  0  0  0  0  0
   -1.8841   -1.1423    0.0000 C   0  0  0  0  0  0  0  0  0  0  0  0
   -2.4362   -1.7554    0.0000 C   0  0  0  0  0  0  0  0  0  0  0  0
   -3.2431   -1.5838    0.0000 C   0  0  0  0  0  0  0  0  0  0  0  0
   -3.4981   -0.7992    0.0000 C   0  0  0  0  0  0  0  0  0  0  0  0
    1.3690    1.7063    0.0000 H   0  0  0  0  0  0  0  0  0  0  0  0
    0.1017    0.5653    0.0000 H   0  0  0  0  0  0  0  0  0  0  0  0
    4.4414   -0.8448    0.0000 H   0  0  0  0  0  0  0  0  0  0  0  0
    4.0870    0.8232    0.0000 H   0  0  0  0  0  0  0  0  0  0  0  0
    2.3749   -2.8206    0.0000 H   0  0  0  0  0  0  0  0  0  0  0  0
    1.3282   -3.0430    0.0000 H   0  0  0  0  0  0  0  0  0  0  0  0
    0.1360   -1.4017    0.0000 H   0  0  0  0  0  0  0  0  0  0  0  0
    0.5212   -3.2145    0.0000 H   0  0  0  0  0  0  0  0  0  0  0  0
   -0.1947   -2.4193    0.0000 H   0  0  0  0  0  0  0  0  0  0  0  0
    0.9905   -2.3507    0.0000 H   0  0  0  0  0  0  0  0  0  0  0  0
   -0.8260   -2.7369    0.0000 H   0  0  0  0  0  0  0  0  0  0  0  0
    0.3217    0.7954    0.0000 H   0  0  0  0  0  0  0  0  0  0  0  0
   -2.3983    1.4873    0.0000 H   0  0  0  0  0  0  0  0  0  0  0  0
   -1.4716    2.0223    0.0000 H   0  0  0  0  0  0  0  0  0  0  0  0
    0.1695    0.8298    0.0000 H   0  0  0  0  0  0  0  0  0  0  0  0
    0.1694    1.8998    0.0000 H   0  0  0  0  0  0  0  0  0  0  0  0
   -1.6838    2.7248    0.0000 H   0  0  0  0  0  0  0  0  0  0  0  0
   -0.7572    3.2598    0.0000 H   0  0  0  0  0  0  0  0  0  0  0  0
    0.8839    3.9623    0.0000 H   0  0  0  0  0  0  0  0  0  0  0  0
   -0.9693    3.9623    0.0000 H   0  0  0  0  0  0  0  0  0  0  0  0
   -0.0427    4.4973    0.0000 H   0  0  0  0  0  0  0  0  0  0  0  0
   -3.2648    0.7954    0.0000 H   0  0  0  0  0  0  0  0  0  0  0  0
   -2.1174   -2.7369    0.0000 H   0  0  0  0  0  0  0  0  0  0  0  0
   -3.9337   -2.3507    0.0000 H   0  0  0  0  0  0  0  0  0  0  0  0
   -4.5076   -0.5846    0.0000 H   0  0  0  0  0  0  0  0  0  0  0  0
  1  2  1  0  0  0  0
  1  6  2  0  0  0  0
  1  7  1  0  0  0  0
  2  3  2  0  0  0  0
  3  4  1  0  0  0  0
  3  8  1  0  0  0  0
  4  5  2  0  0  0  0
  5  6  1  0  0  0  0
  5  9  1  0  0  0  0
  6 16  1  0  0  0  0
  7 29  1  0  0  0  0
  7 30  1  0  0  0  0
  8 31  1  0  0  0  0
  8 32  1  0  0  0  0
  9 10  1  0  0  0  0
  9 33  1  0  0  0  0
  9 34  1  0  0  0  0
 10 35  1  0  0  0  0
 10 36  1  0  0  0  0
 10 37  1  0  0  0  0
 11 12  2  0  0  0  0
 11 16  1  0  0  0  0
 11 38  1  0  0  0  0
 12 13  1  0  0  0  0
 12 39  1  0  0  0  0
 13 14  2  0  0  0  0
 13 25  1  0  0  0  0
 14 15  1  0  0  0  0
 14 17  1  0  0  0  0
 15 16  2  0  0  0  0
 15 40  1  0  0  0  0
 17 18  1  0  0  0  0
 17 24  1  0  0  0  0
 18 19  1  0  0  0  0
 18 41  1  0  0  0  0
 18 42  1  0  0  0  0
 19 20  1  0  0  0  0
 19 43  1  0  0  0  0
 19 44  1  0  0  0  0
 20 21  1  0  0  0  0
 20 45  1  0  0  0  0
 20 46  1  0  0  0  0
 21 22  1  0  0  0  0
 22 47  1  0  0  0  0
 22 48  1  0  0  0  0
 22 49  1  0  0  0  0
 23 24  2  0  0  0  0
 23 28  1  0  0  0  0
 23 50  1  0  0  0  0
 24 25  1  0  0  0  0
 25 26  2  0  0  0  0
 26 27  1  0  0  0  0
 26 51  1  0  0  0  0
 27 28  2  0  0  0  0
 27 52  1  0  0  0  0
 28 53  1  0  0  0  0
M  END
>  <DRUGBANK_ID>
DB06967

>  <COMMON_NAME>
6-ETHYL-5-[9-(3-METHOXYPROPYL)-9H-CARBAZOL-2-YL]PYRIMIDINE-2,4-DIAMINE

$$$$
