
 OpenBabel10282417072D

 57 58  0  0  0  0  0  0  0  0999 V2000
   -0.3572    2.4750    0.0000 C   0  0  0  0  0  0  0  0  0  0  0  0
   -0.3572    1.6500    0.0000 C   0  0  0  0  0  0  0  0  0  0  0  0
   -1.0717    1.2374    0.0000 C   0  0  0  0  0  0  0  0  0  0  0  0
   -1.0717    0.4124    0.0000 C   0  0  0  0  0  0  0  0  0  0  0  0
   -1.7861    0.0000    0.0000 C   0  0  0  0  0  0  0  0  0  0  0  0
   -1.7861   -0.8250    0.0000 C   0  0  0  0  0  0  0  0  0  0  0  0
   -1.0717    2.8875    0.0000 O   0  0  0  0  0  0  0  0  0  0  0  0
    0.3572    2.8875    0.0000 O   0  0  0  0  0  0  0  0  0  0  0  0
   -3.2151   -0.8250    0.0000 C   0  0  0  0  0  0  0  0  0  0  0  0
   -2.5006   -1.2375    0.0000 C   0  0  0  0  0  0  0  0  0  0  0  0
   -2.5006   -2.0625    0.0000 C   0  0  0  0  0  0  0  0  0  0  0  0
   -3.2151   -2.4750    0.0000 C   0  0  0  0  0  0  0  0  0  0  0  0
   -3.9295   -2.0625    0.0000 C   0  0  0  0  0  0  0  0  0  0  0  0
   -3.9295   -1.2375    0.0000 N   0  0  0  0  0  0  0  0  0  0  0  0
   -1.0717   -1.2375    0.0000 C   0  0  0  0  0  0  0  0  0  0  0  0
   -0.3572   -0.8250    0.0000 C   0  0  0  0  0  0  0  0  0  0  0  0
    0.3572   -1.2375    0.0000 C   0  0  0  0  0  0  0  0  0  0  0  0
    0.3572   -2.0625    0.0000 C   0  0  0  0  0  0  0  0  0  0  0  0
   -0.3572   -2.4750    0.0000 C   0  0  0  0  0  0  0  0  0  0  0  0
   -1.0717   -2.0625    0.0000 C   0  0  0  0  0  0  0  0  0  0  0  0
    1.0717   -0.8250    0.0000 N   0  0  0  0  0  0  0  0  0  0  0  0
    1.7861   -1.2375    0.0000 C   0  0  0  0  0  0  0  0  0  0  0  0
    2.5006   -0.8250    0.0000 N   0  0  0  0  0  0  0  0  0  0  0  0
    3.2151   -1.2374    0.0000 C   0  0  0  0  0  0  0  0  0  0  0  0
    2.8026   -1.9519    0.0000 C   0  0  0  0  0  0  0  0  0  0  0  0
    3.6276   -0.5230    0.0000 C   0  0  0  0  0  0  0  0  0  0  0  0
    3.9295   -1.6499    0.0000 C   0  0  0  0  0  0  0  0  0  0  0  0
    1.7861   -2.0625    0.0000 N   0  0  0  0  0  0  0  0  0  0  0  0
    2.5006   -2.4750    0.0000 C   0  0  0  0  0  0  0  0  0  0  0  0
    3.2151   -2.8875    0.0000 N   0  0  0  0  0  0  0  0  0  0  0  0
    0.5695    1.1150    0.0000 H   0  0  0  0  0  0  0  0  0  0  0  0
   -0.3571    0.5800    0.0000 H   0  0  0  0  0  0  0  0  0  0  0  0
   -1.9984    1.7724    0.0000 H   0  0  0  0  0  0  0  0  0  0  0  0
   -1.9983    0.7024    0.0000 H   0  0  0  0  0  0  0  0  0  0  0  0
   -0.1451   -0.1226    0.0000 H   0  0  0  0  0  0  0  0  0  0  0  0
   -1.0717   -0.6576    0.0000 H   0  0  0  0  0  0  0  0  0  0  0  0
   -2.6798    0.5160    0.0000 H   0  0  0  0  0  0  0  0  0  0  0  0
    1.1687    2.4190    0.0000 H   0  0  0  0  0  0  0  0  0  0  0  0
   -3.2151    0.2070    0.0000 H   0  0  0  0  0  0  0  0  0  0  0  0
   -1.6069   -2.5785    0.0000 H   0  0  0  0  0  0  0  0  0  0  0  0
   -3.2151   -3.5070    0.0000 H   0  0  0  0  0  0  0  0  0  0  0  0
   -4.8232   -2.5785    0.0000 H   0  0  0  0  0  0  0  0  0  0  0  0
   -0.3572    0.2070    0.0000 H   0  0  0  0  0  0  0  0  0  0  0  0
    1.2509   -2.5785    0.0000 H   0  0  0  0  0  0  0  0  0  0  0  0
   -0.3572   -3.5070    0.0000 H   0  0  0  0  0  0  0  0  0  0  0  0
   -1.9654   -2.5785    0.0000 H   0  0  0  0  0  0  0  0  0  0  0  0
    2.5005    0.1595    0.0000 H   0  0  0  0  0  0  0  0  0  0  0  0
    1.7326   -1.9519    0.0000 H   0  0  0  0  0  0  0  0  0  0  0  0
    3.3376   -2.8785    0.0000 H   0  0  0  0  0  0  0  0  0  0  0  0
    2.2676   -2.8786    0.0000 H   0  0  0  0  0  0  0  0  0  0  0  0
    4.6976   -0.5230    0.0000 H   0  0  0  0  0  0  0  0  0  0  0  0
    3.0926    0.4037    0.0000 H   0  0  0  0  0  0  0  0  0  0  0  0
    4.1626    0.4036    0.0000 H   0  0  0  0  0  0  0  0  0  0  0  0
    3.9295   -2.7199    0.0000 H   0  0  0  0  0  0  0  0  0  0  0  0
    4.8562   -1.1149    0.0000 H   0  0  0  0  0  0  0  0  0  0  0  0
    4.8561   -2.1849    0.0000 H   0  0  0  0  0  0  0  0  0  0  0  0
    0.9335   -2.5548    0.0000 H   0  0  0  0  0  0  0  0  0  0  0  0
  1  2  1  0  0  0  0
  1  7  2  0  0  0  0
  1  8  1  0  0  0  0
  2  3  1  0  0  0  0
  2 31  1  0  0  0  0
  2 32  1  0  0  0  0
  3  4  1  0  0  0  0
  3 33  1  0  0  0  0
  3 34  1  0  0  0  0
  4  5  1  0  0  0  0
  4 35  1  0  0  0  0
  4 36  1  0  0  0  0
  5  6  2  0  0  0  0
  5 37  1  0  0  0  0
  6 10  1  0  0  0  0
  6 15  1  0  0  0  0
  8 38  1  0  0  0  0
  9 10  1  0  0  0  0
  9 14  2  0  0  0  0
  9 39  1  0  0  0  0
 10 11  2  0  0  0  0
 11 12  1  0  0  0  0
 11 40  1  0  0  0  0
 12 13  2  0  0  0  0
 12 41  1  0  0  0  0
 13 14  1  0  0  0  0
 13 42  1  0  0  0  0
 15 16  1  0  0  0  0
 15 20  2  0  0  0  0
 16 17  2  0  0  0  0
 16 43  1  0  0  0  0
 17 18  1  0  0  0  0
 17 21  1  0  0  0  0
 18 19  2  0  0  0  0
 18 44  1  0  0  0  0
 19 20  1  0  0  0  0
 19 45  1  0  0  0  0
 20 46  1  0  0  0  0
 21 22  2  0  0  0  0
 22 23  1  0  0  0  0
 22 28  1  0  0  0  0
 23 24  1  0  0  0  0
 23 47  1  0  0  0  0
 24 25  1  0  0  0  0
 24 26  1  0  0  0  0
 24 27  1  0  0  0  0
 25 48  1  0  0  0  0
 25 49  1  0  0  0  0
 25 50  1  0  0  0  0
 26 51  1  0  0  0  0
 26 52  1  0  0  0  0
 26 53  1  0  0  0  0
 27 54  1  0  0  0  0
 27 55  1  0  0  0  0
 27 56  1  0  0  0  0
 28 29  1  0  0  0  0
 28 57  1  0  0  0  0
 29 30  3  0  0  0  0
M  END
>  <DRUGBANK_ID>
DB12204

>  <COMMON_NAME>
Terbogrel

>  <CAS_NUMBER>
149979-74-8

>  <UNII>
5Z4KWQ5OGN

>  <SYNONYMS>
Terbogrel; Terbogrelum

$$$$
