
 OpenBabel10282417072D

 94103  0  0  1  0  0  0  0  0999 V2000
   17.8854    1.0775    0.0000 C   0  0  0  0  0  0  0  0  0  0  0  0
   17.2723    1.6296    0.0000 C   0  0  0  0  0  0  0  0  0  0  0  0
   17.3585    2.4501    0.0000 C   0  0  0  0  0  0  0  0  0  0  0  0
   16.6049    2.7856    0.0000 N   0  0  0  0  0  0  0  0  0  0  0  0
   16.0528    2.1725    0.0000 C   0  0  0  0  0  0  0  0  0  0  0  0
   16.4653    1.4580    0.0000 C   0  0  0  0  0  0  0  0  0  0  0  0
   16.0528    0.7436    0.0000 C   0  0  0  0  0  0  0  0  0  0  0  0
   15.2278    0.7436    0.0000 C   0  0  0  0  0  0  0  0  0  0  0  0
   14.8153    1.4580    0.0000 C   0  0  0  0  0  0  0  0  0  0  0  0
   15.2278    2.1725    0.0000 C   0  0  0  0  0  0  0  0  0  0  0  0
   14.8153    2.8870    0.0000 O   0  0  0  0  0  0  0  0  0  0  0  0
   14.9729   -0.0410    0.0000 N   0  0  0  0  0  0  0  0  0  0  0  0
   15.6403   -0.5260    0.0000 C   0  0  0  0  0  0  0  0  0  0  0  0
   16.3078   -0.0410    0.0000 C   0  0  1  0  0  0  0  0  0  0  0  0
   17.0924   -0.2960    0.0000 C   0  0  0  0  0  0  0  0  0  0  0  0
   17.7055    0.2561    0.0000 Cl  0  0  0  0  0  0  0  0  0  0  0  0
   14.1883   -0.2960    0.0000 C   0  0  0  0  0  0  0  0  0  0  0  0
   14.0167   -1.1030    0.0000 O   0  0  0  0  0  0  0  0  0  0  0  0
   13.5752    0.2561    0.0000 C   0  0  0  0  0  0  0  0  0  0  0  0
   12.7682    0.0845    0.0000 C   0  0  0  0  0  0  0  0  0  0  0  0
   12.3557    0.7990    0.0000 C   0  0  0  0  0  0  0  0  0  0  0  0
   11.5487    0.9705    0.0000 C   0  0  0  0  0  0  0  0  0  0  0  0
   11.2938    1.7551    0.0000 C   0  0  0  0  0  0  0  0  0  0  0  0
   11.8458    2.3682    0.0000 C   0  0  0  0  0  0  0  0  0  0  0  0
   12.6528    2.1967    0.0000 C   0  0  0  0  0  0  0  0  0  0  0  0
   12.9077    1.4121    0.0000 C   0  0  0  0  0  0  0  0  0  0  0  0
   13.6614    1.0765    0.0000 N   0  0  0  0  0  0  0  0  0  0  0  0
   10.4868    1.9267    0.0000 N   0  0  0  0  0  0  0  0  0  0  0  0
    9.9348    1.3136    0.0000 C   0  0  0  0  0  0  0  0  0  0  0  0
   10.1897    0.5290    0.0000 O   0  0  0  0  0  0  0  0  0  0  0  0
    9.1278    1.4851    0.0000 N   0  0  0  0  0  0  0  0  0  0  0  0
    8.5758    0.8720    0.0000 C   0  0  0  0  0  0  0  0  0  0  0  0
    8.8307    0.0874    0.0000 C   0  0  0  0  0  0  0  0  0  0  0  0
    8.2787   -0.5257    0.0000 C   0  0  0  0  0  0  0  0  0  0  0  0
    7.4717   -0.3542    0.0000 C   0  0  0  0  0  0  0  0  0  0  0  0
    7.2168    0.4304    0.0000 C   0  0  0  0  0  0  0  0  0  0  0  0
    7.7688    1.0435    0.0000 C   0  0  0  0  0  0  0  0  0  0  0  0
    6.3918    0.4304    0.0000 C   0  0  0  0  0  0  0  0  0  0  0  0
    6.1368   -0.3542    0.0000 C   0  0  0  0  0  0  0  0  0  0  0  0
    6.8043   -0.8391    0.0000 N   0  0  0  0  0  0  0  0  0  0  0  0
    5.3522   -0.6091    0.0000 C   0  0  0  0  0  0  0  0  0  0  0  0
    5.1807   -1.4161    0.0000 O   0  0  0  0  0  0  0  0  0  0  0  0
    4.7391   -0.0571    0.0000 N   0  0  0  0  0  0  0  0  0  0  0  0
    4.8253    0.7634    0.0000 C   0  0  0  0  0  0  0  0  0  0  0  0
    4.0717    1.0990    0.0000 C   0  0  2  0  0  0  0  0  0  0  0  0
    3.5196    0.4859    0.0000 C   0  0  0  0  0  0  0  0  0  0  0  0
    3.9321   -0.2286    0.0000 C   0  0  0  0  0  0  0  0  0  0  0  0
    3.5196   -0.9431    0.0000 C   0  0  0  0  0  0  0  0  0  0  0  0
    2.6946   -0.9431    0.0000 C   0  0  0  0  0  0  0  0  0  0  0  0
    2.2821   -0.2286    0.0000 C   0  0  0  0  0  0  0  0  0  0  0  0
    2.6946    0.4859    0.0000 C   0  0  0  0  0  0  0  0  0  0  0  0
    2.1426    1.0990    0.0000 C   0  0  0  0  0  0  0  0  0  0  0  0
    1.3889    0.7634    0.0000 C   0  0  0  0  0  0  0  0  0  0  0  0
    1.4752   -0.0571    0.0000 N   0  0  0  0  0  0  0  0  0  0  0  0
    2.3141    1.9059    0.0000 C   0  0  0  0  0  0  0  0  0  0  0  0
    2.2821   -1.6576    0.0000 O   0  0  0  0  0  0  0  0  0  0  0  0
    3.9001    1.9059    0.0000 C   0  0  0  0  0  0  0  0  0  0  0  0
    3.1155    2.1609    0.0000 Cl  0  0  0  0  0  0  0  0  0  0  0  0
   17.6629    0.0309    0.0000 H   0  0  0  0  0  0  0  0  0  0  0  0
   18.9030    1.4081    0.0000 H   0  0  0  0  0  0  0  0  0  0  0  0
   18.6805    0.3615    0.0000 H   0  0  0  0  0  0  0  0  0  0  0  0
   18.2522    2.9661    0.0000 H   0  0  0  0  0  0  0  0  0  0  0  0
   16.4002    3.7486    0.0000 H   0  0  0  0  0  0  0  0  0  0  0  0
   13.7833    1.4580    0.0000 H   0  0  0  0  0  0  0  0  0  0  0  0
   15.2838    3.6985    0.0000 H   0  0  0  0  0  0  0  0  0  0  0  0
   15.6403   -1.5960    0.0000 H   0  0  0  0  0  0  0  0  0  0  0  0
   16.5937   -1.0118    0.0000 H   0  0  0  0  0  0  0  0  0  0  0  0
   16.4752   -1.0978    0.0000 H   0  0  0  0  0  0  0  0  0  0  0  0
   17.3149   -1.3426    0.0000 H   0  0  0  0  0  0  0  0  0  0  0  0
   18.1100   -0.6266    0.0000 H   0  0  0  0  0  0  0  0  0  0  0  0
   12.3485   -0.8583    0.0000 H   0  0  0  0  0  0  0  0  0  0  0  0
   10.8582    0.2036    0.0000 H   0  0  0  0  0  0  0  0  0  0  0  0
   11.5269    3.3497    0.0000 H   0  0  0  0  0  0  0  0  0  0  0  0
   13.3433    2.9636    0.0000 H   0  0  0  0  0  0  0  0  0  0  0  0
   14.5140    1.5687    0.0000 H   0  0  0  0  0  0  0  0  0  0  0  0
   10.1826    2.8630    0.0000 H   0  0  0  0  0  0  0  0  0  0  0  0
    8.8235    2.4214    0.0000 H   0  0  0  0  0  0  0  0  0  0  0  0
    9.8401   -0.1272    0.0000 H   0  0  0  0  0  0  0  0  0  0  0  0
    8.5976   -1.5072    0.0000 H   0  0  0  0  0  0  0  0  0  0  0  0
    7.4499    2.0250    0.0000 H   0  0  0  0  0  0  0  0  0  0  0  0
    5.7852    1.2653    0.0000 H   0  0  0  0  0  0  0  0  0  0  0  0
    6.8043   -1.8236    0.0000 H   0  0  0  0  0  0  0  0  0  0  0  0
    5.7520    1.2984    0.0000 H   0  0  0  0  0  0  0  0  0  0  0  0
    4.7694    1.8319    0.0000 H   0  0  0  0  0  0  0  0  0  0  0  0
    4.9032    1.7724    0.0000 H   0  0  0  0  0  0  0  0  0  0  0  0
    4.0356   -1.8368    0.0000 H   0  0  0  0  0  0  0  0  0  0  0  0
    0.4951    1.2794    0.0000 H   0  0  0  0  0  0  0  0  0  0  0  0
    0.7436   -0.7159    0.0000 H   0  0  0  0  0  0  0  0  0  0  0  0
    3.3317    2.2366    0.0000 H   0  0  0  0  0  0  0  0  0  0  0  0
    1.5189    2.6219    0.0000 H   0  0  0  0  0  0  0  0  0  0  0  0
    2.5366    2.9525    0.0000 H   0  0  0  0  0  0  0  0  0  0  0  0
    1.3451   -1.6576    0.0000 H   0  0  0  0  0  0  0  0  0  0  0  0
    4.6953    2.6219    0.0000 H   0  0  0  0  0  0  0  0  0  0  0  0
    3.6777    2.9525    0.0000 H   0  0  0  0  0  0  0  0  0  0  0  0
  1  2  1  0  0  0  0
  1 59  1  0  0  0  0
  1 60  1  0  0  0  0
  1 61  1  0  0  0  0
  2  3  2  0  0  0  0
  2  6  1  0  0  0  0
  3  4  1  0  0  0  0
  3 62  1  0  0  0  0
  4  5  1  0  0  0  0
  4 63  1  0  0  0  0
  5  6  1  0  0  0  0
  5 10  2  0  0  0  0
  6  7  2  0  0  0  0
  7  8  1  0  0  0  0
  7 14  1  0  0  0  0
  8  9  2  0  0  0  0
  8 12  1  0  0  0  0
  9 10  1  0  0  0  0
  9 64  1  0  0  0  0
 10 11  1  0  0  0  0
 11 65  1  0  0  0  0
 12 13  1  0  0  0  0
 12 17  1  0  0  0  0
 13 14  1  0  0  0  0
 13 66  1  0  0  0  0
 13 67  1  0  0  0  0
 14 15  1  0  0  0  0
 14 68  1  1  0  0  0
 15 16  1  0  0  0  0
 15 69  1  0  0  0  0
 15 70  1  0  0  0  0
 17 18  2  0  0  0  0
 17 19  1  0  0  0  0
 19 20  2  0  0  0  0
 19 27  1  0  0  0  0
 20 21  1  0  0  0  0
 20 71  1  0  0  0  0
 21 22  2  0  0  0  0
 21 26  1  0  0  0  0
 22 23  1  0  0  0  0
 22 72  1  0  0  0  0
 23 24  2  0  0  0  0
 23 28  1  0  0  0  0
 24 25  1  0  0  0  0
 24 73  1  0  0  0  0
 25 26  2  0  0  0  0
 25 74  1  0  0  0  0
 26 27  1  0  0  0  0
 27 75  1  0  0  0  0
 28 29  1  0  0  0  0
 28 76  1  0  0  0  0
 29 30  2  0  0  0  0
 29 31  1  0  0  0  0
 31 32  1  0  0  0  0
 31 77  1  0  0  0  0
 32 33  2  0  0  0  0
 32 37  1  0  0  0  0
 33 34  1  0  0  0  0
 33 78  1  0  0  0  0
 34 35  2  0  0  0  0
 34 79  1  0  0  0  0
 35 36  1  0  0  0  0
 35 40  1  0  0  0  0
 36 37  2  0  0  0  0
 36 38  1  0  0  0  0
 37 80  1  0  0  0  0
 38 39  2  0  0  0  0
 38 81  1  0  0  0  0
 39 40  1  0  0  0  0
 39 41  1  0  0  0  0
 40 82  1  0  0  0  0
 41 42  2  0  0  0  0
 41 43  1  0  0  0  0
 43 44  1  0  0  0  0
 43 47  1  0  0  0  0
 44 45  1  0  0  0  0
 44 83  1  0  0  0  0
 44 84  1  0  0  0  0
 45 46  1  0  0  0  0
 45 57  1  0  0  0  0
 45 85  1  1  0  0  0
 46 47  1  0  0  0  0
 46 51  2  0  0  0  0
 47 48  2  0  0  0  0
 48 49  1  0  0  0  0
 48 86  1  0  0  0  0
 49 50  2  0  0  0  0
 49 56  1  0  0  0  0
 50 51  1  0  0  0  0
 50 54  1  0  0  0  0
 51 52  1  0  0  0  0
 52 53  2  0  0  0  0
 52 55  1  0  0  0  0
 53 54  1  0  0  0  0
 53 87  1  0  0  0  0
 54 88  1  0  0  0  0
 55 89  1  0  0  0  0
 55 90  1  0  0  0  0
 55 91  1  0  0  0  0
 56 92  1  0  0  0  0
 57 58  1  0  0  0  0
 57 93  1  0  0  0  0
 57 94  1  0  0  0  0
M  END
>  <DRUGBANK_ID>
DB12352

>  <COMMON_NAME>
Bizelesin

>  <CAS_NUMBER>
129655-21-6

>  <UNII>
L0O9OBI87E

>  <SYNONYMS>
Bizelesin

$$$$
