7CS
 OpenBabel10282417072D

 40 43  0  0  0  0  0  0  0  0999 V2000
   -0.3839   -1.5086    0.0000 C   0  0  0  0  0  0  0  0  0  0  0  0
    0.9751   -1.0670    0.0000 O   0  0  0  0  0  0  0  0  0  0  0  0
    1.6840    3.0560    0.0000 C   0  0  0  0  0  0  0  0  0  0  0  0
    0.1681   -0.8955    0.0000 C   0  0  0  0  0  0  0  0  0  0  0  0
   -1.2044   -1.4224    0.0000 C   0  0  0  0  0  0  0  0  0  0  0  0
   -0.0868   -0.1109    0.0000 O   0  0  0  0  0  0  0  0  0  0  0  0
   -0.4268    2.3232    0.0000 C   0  0  0  0  0  0  0  0  0  0  0  0
    0.1238    1.8503    0.0000 C   0  0  0  0  0  0  0  0  0  0  0  0
    1.1414    2.4346    0.0000 N   0  0  0  0  0  0  0  0  0  0  0  0
    0.8969    1.7652    0.0000 C   0  0  1  0  0  0  0  0  0  0  0  0
    1.1995    0.8870    0.0000 C   0  0  0  0  0  0  0  0  0  0  0  0
    0.4116    2.0497    0.0000 C   0  0  2  0  0  0  0  0  0  0  0  0
    0.7128    1.1259    0.0000 C   0  0  0  0  0  0  0  0  0  0  0  0
    0.4652    0.5022    0.0000 C   0  0  1  0  0  0  0  0  0  0  0  0
   -0.2124   -3.9656    0.0000 C   0  0  0  0  0  0  0  0  0  0  0  0
   -0.9269   -3.5531    0.0000 N   0  0  0  0  0  0  0  0  0  0  0  0
   -0.9269   -2.7281    0.0000 C   0  0  0  0  0  0  0  0  0  0  0  0
   -0.2124   -2.3156    0.0000 C   0  0  0  0  0  0  0  0  0  0  0  0
    0.5021   -2.7281    0.0000 C   0  0  0  0  0  0  0  0  0  0  0  0
    0.5021   -3.5531    0.0000 C   0  0  0  0  0  0  0  0  0  0  0  0
   -1.5400   -2.1760    0.0000 N   0  0  0  0  0  0  0  0  0  0  0  0
    1.3955    2.0691    0.0000 H   0  0  0  0  0  0  0  0  0  0  0  0
    0.8246    2.4626    0.0000 H   0  0  0  0  0  0  0  0  0  0  0  0
    0.8233    0.0410    0.0000 H   0  0  0  0  0  0  0  0  0  0  0  0
    2.7339    2.8495    0.0000 H   0  0  0  0  0  0  0  0  0  0  0  0
    1.3379    4.0685    0.0000 H   0  0  0  0  0  0  0  0  0  0  0  0
    2.3878    3.8620    0.0000 H   0  0  0  0  0  0  0  0  0  0  0  0
   -1.7204   -0.5287    0.0000 H   0  0  0  0  0  0  0  0  0  0  0  0
   -1.3593    2.8479    0.0000 H   0  0  0  0  0  0  0  0  0  0  0  0
    0.0035    3.3028    0.0000 H   0  0  0  0  0  0  0  0  0  0  0  0
   -0.3024    0.8688    0.0000 H   0  0  0  0  0  0  0  0  0  0  0  0
    0.6608    0.9248    0.0000 H   0  0  0  0  0  0  0  0  0  0  0  0
    2.1939    0.4920    0.0000 H   0  0  0  0  0  0  0  0  0  0  0  0
    1.2554   -0.1815    0.0000 H   0  0  0  0  0  0  0  0  0  0  0  0
    1.7823    1.0923    0.0000 H   0  0  0  0  0  0  0  0  0  0  0  0
    1.2999    0.2313    0.0000 H   0  0  0  0  0  0  0  0  0  0  0  0
   -0.2124   -4.9976    0.0000 H   0  0  0  0  0  0  0  0  0  0  0  0
    1.3958   -2.2121    0.0000 H   0  0  0  0  0  0  0  0  0  0  0  0
    1.3958   -4.0691    0.0000 H   0  0  0  0  0  0  0  0  0  0  0  0
   -2.5030   -2.3806    0.0000 H   0  0  0  0  0  0  0  0  0  0  0  0
  1 18  1  0  0  0  0
  1  5  2  0  0  0  0
  1  4  1  0  0  0  0
  2  4  2  0  0  0  0
  3  9  1  0  0  0  0
  3 25  1  0  0  0  0
  3 26  1  0  0  0  0
  3 27  1  0  0  0  0
  4  6  1  0  0  0  0
  5 21  1  0  0  0  0
  5 28  1  0  0  0  0
  7  8  1  0  0  0  0
  7 12  1  0  0  0  0
  7 29  1  0  0  0  0
  7 30  1  0  0  0  0
  8 10  1  0  0  0  0
  8 31  1  0  0  0  0
  8 32  1  0  0  0  0
  9 10  1  0  0  0  0
  9 12  1  0  0  0  0
 10 11  1  0  0  0  0
 10 22  1  6  0  0  0
 11 14  1  0  0  0  0
 11 33  1  0  0  0  0
 11 34  1  0  0  0  0
 12 13  1  0  0  0  0
 12 23  1  1  0  0  0
 13 14  1  0  0  0  0
 13 35  1  0  0  0  0
 13 36  1  0  0  0  0
 14  6  1  0  0  0  0
 14 24  1  1  0  0  0
 15 16  2  0  0  0  0
 15 20  1  0  0  0  0
 15 37  1  0  0  0  0
 16 17  1  0  0  0  0
 17 21  1  0  0  0  0
 17 18  2  0  0  0  0
 18 19  1  0  0  0  0
 19 20  2  0  0  0  0
 19 38  1  0  0  0  0
 20 39  1  0  0  0  0
 21 40  1  0  0  0  0
M  END
>  <DRUGBANK_ID>
DB07243

>  <COMMON_NAME>
(3-ENDO)-8-METHYL-8-AZABICYCLO[3.2.1]OCT-3-YL 1H-PYRROLO[2,3-B]PYRIDINE-3-CARBOXYLATE

$$$$
