
 OpenBabel10282417072D

 64 64  0  0  0  0  0  0  0  0999 V2000
   -6.4302    0.2615    0.0000 C   0  0  0  0  0  0  0  0  0  0  0  0
   -6.4302   -0.5634    0.0000 C   0  0  0  0  0  0  0  0  0  0  0  0
   -5.7158   -0.9759    0.0000 C   0  0  0  0  0  0  0  0  0  0  0  0
   -5.0013   -0.5634    0.0000 C   0  0  0  0  0  0  0  0  0  0  0  0
   -5.0013    0.2615    0.0000 C   0  0  0  0  0  0  0  0  0  0  0  0
   -5.7158    0.6740    0.0000 C   0  0  0  0  0  0  0  0  0  0  0  0
   -4.2867    0.6740    0.0000 O   0  0  0  0  0  0  0  0  0  0  0  0
   -3.5724    0.2615    0.0000 C   0  0  0  0  0  0  0  0  0  0  0  0
   -2.8579    0.6740    0.0000 C   0  0  0  0  0  0  0  0  0  0  0  0
   -2.1434    0.2615    0.0000 N   0  3  0  0  0  0  0  0  0  0  0  0
   -1.4290   -0.1509    0.0000 C   0  0  0  0  0  0  0  0  0  0  0  0
   -2.5559   -0.4529    0.0000 C   0  0  0  0  0  0  0  0  0  0  0  0
   -1.7309    0.9759    0.0000 C   0  0  0  0  0  0  0  0  0  0  0  0
   -0.7145    0.2615    0.0000 C   0  0  0  0  0  0  0  0  0  0  0  0
    0.0000   -0.1509    0.0000 C   0  0  0  0  0  0  0  0  0  0  0  0
    0.7144    0.2615    0.0000 C   0  0  0  0  0  0  0  0  0  0  0  0
    1.4288   -0.1509    0.0000 C   0  0  0  0  0  0  0  0  0  0  0  0
    2.1433    0.2615    0.0000 C   0  0  0  0  0  0  0  0  0  0  0  0
    2.8579   -0.1509    0.0000 C   0  0  0  0  0  0  0  0  0  0  0  0
    3.5722    0.2615    0.0000 C   0  0  0  0  0  0  0  0  0  0  0  0
    4.2867   -0.1509    0.0000 C   0  0  0  0  0  0  0  0  0  0  0  0
    5.0012    0.2615    0.0000 C   0  0  0  0  0  0  0  0  0  0  0  0
    5.7158   -0.1509    0.0000 C   0  0  0  0  0  0  0  0  0  0  0  0
    6.4302    0.2615    0.0000 C   0  0  0  0  0  0  0  0  0  0  0  0
   -7.3239    0.7775    0.0000 H   0  0  0  0  0  0  0  0  0  0  0  0
   -7.3239   -1.0794    0.0000 H   0  0  0  0  0  0  0  0  0  0  0  0
   -5.7158   -2.0079    0.0000 H   0  0  0  0  0  0  0  0  0  0  0  0
   -4.1076   -1.0794    0.0000 H   0  0  0  0  0  0  0  0  0  0  0  0
   -5.7158    1.7060    0.0000 H   0  0  0  0  0  0  0  0  0  0  0  0
   -3.5725   -0.8085    0.0000 H   0  0  0  0  0  0  0  0  0  0  0  0
   -2.6458   -0.2735    0.0000 H   0  0  0  0  0  0  0  0  0  0  0  0
   -2.8579    1.7440    0.0000 H   0  0  0  0  0  0  0  0  0  0  0  0
   -1.9313    1.2090    0.0000 H   0  0  0  0  0  0  0  0  0  0  0  0
   -1.4290   -1.2209    0.0000 H   0  0  0  0  0  0  0  0  0  0  0  0
   -2.3556   -0.6859    0.0000 H   0  0  0  0  0  0  0  0  0  0  0  0
   -3.6259   -0.4529    0.0000 H   0  0  0  0  0  0  0  0  0  0  0  0
   -2.0209   -1.3796    0.0000 H   0  0  0  0  0  0  0  0  0  0  0  0
   -3.0909   -1.3795    0.0000 H   0  0  0  0  0  0  0  0  0  0  0  0
   -0.6609    0.9759    0.0000 H   0  0  0  0  0  0  0  0  0  0  0  0
   -2.2659    1.9026    0.0000 H   0  0  0  0  0  0  0  0  0  0  0  0
   -1.1959    1.9025    0.0000 H   0  0  0  0  0  0  0  0  0  0  0  0
   -0.7145    1.3315    0.0000 H   0  0  0  0  0  0  0  0  0  0  0  0
    0.2121    0.7966    0.0000 H   0  0  0  0  0  0  0  0  0  0  0  0
    0.0000   -1.2209    0.0000 H   0  0  0  0  0  0  0  0  0  0  0  0
    0.9266   -0.6859    0.0000 H   0  0  0  0  0  0  0  0  0  0  0  0
    0.7144    1.3315    0.0000 H   0  0  0  0  0  0  0  0  0  0  0  0
    1.6410    0.7965    0.0000 H   0  0  0  0  0  0  0  0  0  0  0  0
    1.4288   -1.2209    0.0000 H   0  0  0  0  0  0  0  0  0  0  0  0
    2.3554   -0.6860    0.0000 H   0  0  0  0  0  0  0  0  0  0  0  0
    2.1433    1.3315    0.0000 H   0  0  0  0  0  0  0  0  0  0  0  0
    3.0699    0.7966    0.0000 H   0  0  0  0  0  0  0  0  0  0  0  0
    2.8580   -1.2209    0.0000 H   0  0  0  0  0  0  0  0  0  0  0  0
    3.7846   -0.6859    0.0000 H   0  0  0  0  0  0  0  0  0  0  0  0
    3.5721    1.3315    0.0000 H   0  0  0  0  0  0  0  0  0  0  0  0
    4.4988    0.7966    0.0000 H   0  0  0  0  0  0  0  0  0  0  0  0
    4.2867   -1.2209    0.0000 H   0  0  0  0  0  0  0  0  0  0  0  0
    5.2133   -0.6860    0.0000 H   0  0  0  0  0  0  0  0  0  0  0  0
    5.0012    1.3315    0.0000 H   0  0  0  0  0  0  0  0  0  0  0  0
    5.9278    0.7966    0.0000 H   0  0  0  0  0  0  0  0  0  0  0  0
    5.7159   -1.2209    0.0000 H   0  0  0  0  0  0  0  0  0  0  0  0
    6.6424   -0.6859    0.0000 H   0  0  0  0  0  0  0  0  0  0  0  0
    7.3568   -0.2736    0.0000 H   0  0  0  0  0  0  0  0  0  0  0  0
    6.4303    1.3315    0.0000 H   0  0  0  0  0  0  0  0  0  0  0  0
    7.3569    0.7964    0.0000 H   0  0  0  0  0  0  0  0  0  0  0  0
  1  2  2  0  0  0  0
  1 25  1  0  0  0  0
  2  3  1  0  0  0  0
  2 26  1  0  0  0  0
  3  4  2  0  0  0  0
  3 27  1  0  0  0  0
  4  5  1  0  0  0  0
  4 28  1  0  0  0  0
  5  6  2  0  0  0  0
  5  7  1  0  0  0  0
  6  1  1  0  0  0  0
  6 29  1  0  0  0  0
  7  8  1  0  0  0  0
  8  9  1  0  0  0  0
  8 30  1  0  0  0  0
  8 31  1  0  0  0  0
  9 10  1  0  0  0  0
  9 32  1  0  0  0  0
  9 33  1  0  0  0  0
 10 12  1  0  0  0  0
 10 13  1  0  0  0  0
 10 11  1  0  0  0  0
 11 14  1  0  0  0  0
 11 34  1  0  0  0  0
 11 35  1  0  0  0  0
 12 36  1  0  0  0  0
 12 37  1  0  0  0  0
 12 38  1  0  0  0  0
 13 39  1  0  0  0  0
 13 40  1  0  0  0  0
 13 41  1  0  0  0  0
 14 15  1  0  0  0  0
 14 42  1  0  0  0  0
 14 43  1  0  0  0  0
 15 16  1  0  0  0  0
 15 44  1  0  0  0  0
 15 45  1  0  0  0  0
 16 17  1  0  0  0  0
 16 46  1  0  0  0  0
 16 47  1  0  0  0  0
 17 18  1  0  0  0  0
 17 48  1  0  0  0  0
 17 49  1  0  0  0  0
 18 19  1  0  0  0  0
 18 50  1  0  0  0  0
 18 51  1  0  0  0  0
 19 20  1  0  0  0  0
 19 52  1  0  0  0  0
 19 53  1  0  0  0  0
 20 21  1  0  0  0  0
 20 54  1  0  0  0  0
 20 55  1  0  0  0  0
 21 22  1  0  0  0  0
 21 56  1  0  0  0  0
 21 57  1  0  0  0  0
 22 23  1  0  0  0  0
 22 58  1  0  0  0  0
 22 59  1  0  0  0  0
 23 24  1  0  0  0  0
 23 60  1  0  0  0  0
 23 61  1  0  0  0  0
 24 62  1  0  0  0  0
 24 63  1  0  0  0  0
 24 64  1  0  0  0  0
M  CHG  1  10   1
M  END
>  <DRUGBANK_ID>
DB11594

>  <COMMON_NAME>
Domiphen

>  <CAS_NUMBER>
13900-14-6

>  <UNII>
4AZL56CU0F

>  <SYNONYMS>
(beta-phenoxyethyl)dimethyldodecylammonium; 1-dodecanaminium, n,n-dimethyl-n-(2-phenoxyethyl); Dodecyldimethyl(2-phenoxyethyl)ammonium; Domiphen cation; Domiphen ion; Phenododecinium

$$$$
