
 OpenBabel10282417072D

 38 39  0  0  0  0  0  0  0  0999 V2000
    0.0000   -0.0000    0.0000 C   0  0  0  0  0  0  0  0  0  0  0  0
    0.7145   -0.4125    0.0000 N   0  0  0  0  0  0  0  0  0  0  0  0
    0.7145   -1.2375    0.0000 C   0  0  0  0  0  0  0  0  0  0  0  0
    1.2978   -1.8209    0.0000 C   0  0  0  0  0  0  0  0  0  0  0  0
    0.7145   -2.4042    0.0000 N   0  0  0  0  0  0  0  0  0  0  0  0
    0.1311   -1.8209    0.0000 C   0  0  0  0  0  0  0  0  0  0  0  0
    0.7145   -3.2292    0.0000 C   0  0  0  0  0  0  0  0  0  0  0  0
    1.4289   -3.6417    0.0000 C   0  0  0  0  0  0  0  0  0  0  0  0
    1.4289   -4.4667    0.0000 C   0  0  0  0  0  0  0  0  0  0  0  0
    2.1434   -4.8792    0.0000 N   0  0  0  0  0  0  0  0  0  0  0  0
    0.7145   -4.8792    0.0000 N   0  0  0  0  0  0  0  0  0  0  0  0
    0.0000   -4.4667    0.0000 C   0  0  0  0  0  0  0  0  0  0  0  0
   -0.7145   -4.8792    0.0000 C   0  0  0  0  0  0  0  0  0  0  0  0
   -1.4289   -4.4667    0.0000 C   0  0  0  0  0  0  0  0  0  0  0  0
   -2.1434   -4.8792    0.0000 C   0  0  0  0  0  0  0  0  0  0  0  0
   -1.4289   -3.6417    0.0000 C   0  0  0  0  0  0  0  0  0  0  0  0
    0.0000   -3.6417    0.0000 N   0  0  0  0  0  0  0  0  0  0  0  0
   -0.0000    1.0700    0.0000 H   0  0  0  0  0  0  0  0  0  0  0  0
   -0.9266   -0.5350    0.0000 H   0  0  0  0  0  0  0  0  0  0  0  0
   -0.9267    0.5350    0.0000 H   0  0  0  0  0  0  0  0  0  0  0  0
    1.5978    0.0975    0.0000 H   0  0  0  0  0  0  0  0  0  0  0  0
    0.7145   -2.3075    0.0000 H   0  0  0  0  0  0  0  0  0  0  0  0
    2.3678   -1.8209    0.0000 H   0  0  0  0  0  0  0  0  0  0  0  0
    1.7073   -2.8095    0.0000 H   0  0  0  0  0  0  0  0  0  0  0  0
   -0.9389   -1.8209    0.0000 H   0  0  0  0  0  0  0  0  0  0  0  0
   -0.2784   -0.8324    0.0000 H   0  0  0  0  0  0  0  0  0  0  0  0
    2.3226   -3.1257    0.0000 H   0  0  0  0  0  0  0  0  0  0  0  0
    2.1434   -5.8637    0.0000 H   0  0  0  0  0  0  0  0  0  0  0  0
    2.9960   -4.3869    0.0000 H   0  0  0  0  0  0  0  0  0  0  0  0
   -0.7145   -5.9492    0.0000 H   0  0  0  0  0  0  0  0  0  0  0  0
   -1.6412   -5.4142    0.0000 H   0  0  0  0  0  0  0  0  0  0  0  0
   -2.3555   -3.9317    0.0000 H   0  0  0  0  0  0  0  0  0  0  0  0
   -3.0700   -4.3442    0.0000 H   0  0  0  0  0  0  0  0  0  0  0  0
   -2.1434   -5.9492    0.0000 H   0  0  0  0  0  0  0  0  0  0  0  0
   -3.0701   -5.4142    0.0000 H   0  0  0  0  0  0  0  0  0  0  0  0
   -0.5023   -3.1067    0.0000 H   0  0  0  0  0  0  0  0  0  0  0  0
   -2.3555   -3.1067    0.0000 H   0  0  0  0  0  0  0  0  0  0  0  0
   -1.4289   -2.5717    0.0000 H   0  0  0  0  0  0  0  0  0  0  0  0
  1  2  1  0  0  0  0
  1 18  1  0  0  0  0
  1 19  1  0  0  0  0
  1 20  1  0  0  0  0
  2  3  1  0  0  0  0
  2 21  1  0  0  0  0
  3  4  1  0  0  0  0
  3  6  1  0  0  0  0
  3 22  1  0  0  0  0
  4  5  1  0  0  0  0
  4 23  1  0  0  0  0
  4 24  1  0  0  0  0
  5  6  1  0  0  0  0
  5  7  1  0  0  0  0
  6 25  1  0  0  0  0
  6 26  1  0  0  0  0
  7  8  2  0  0  0  0
  7 17  1  0  0  0  0
  8  9  1  0  0  0  0
  8 27  1  0  0  0  0
  9 10  1  0  0  0  0
  9 11  2  0  0  0  0
 10 28  1  0  0  0  0
 10 29  1  0  0  0  0
 11 12  1  0  0  0  0
 12 13  1  0  0  0  0
 12 17  2  0  0  0  0
 13 14  1  0  0  0  0
 13 30  1  0  0  0  0
 13 31  1  0  0  0  0
 14 15  1  0  0  0  0
 14 16  1  0  0  0  0
 14 32  1  0  0  0  0
 15 33  1  0  0  0  0
 15 34  1  0  0  0  0
 15 35  1  0  0  0  0
 16 36  1  0  0  0  0
 16 37  1  0  0  0  0
 16 38  1  0  0  0  0
M  END
>  <DRUGBANK_ID>
DB15220

>  <COMMON_NAME>
Seliforant

>  <CAS_NUMBER>
1164115-89-2

>  <UNII>
B61N8R7TDH

>  <SYNONYMS>
Seliforant

$$$$
