
 OpenBabel10282417072D

 24 24  0  0  0  0  0  0  0  0999 V2000
    0.0000   -2.4750    0.0000 C   0  0  0  0  0  0  0  0  0  0  0  0
    1.4289    0.0000    0.0000 C   0  0  0  0  0  0  0  0  0  0  0  0
    0.0000    0.0000    0.0000 C   0  0  0  0  0  0  0  0  0  0  0  0
    1.4289    0.8250    0.0000 C   0  0  0  0  0  0  0  0  0  0  0  0
    0.0000    0.8250    0.0000 C   0  0  0  0  0  0  0  0  0  0  0  0
    0.7145   -1.2375    0.0000 C   0  0  0  0  0  0  0  0  0  0  0  0
    0.0000   -1.6500    0.0000 C   0  0  3  0  0  0  0  0  0  0  0  0
    0.7145   -0.4125    0.0000 C   0  0  0  0  0  0  0  0  0  0  0  0
    0.7145    1.2375    0.0000 C   0  0  0  0  0  0  0  0  0  0  0  0
   -0.7145   -1.2375    0.0000 N   0  0  0  0  0  0  0  0  0  0  0  0
    0.7145    2.0625    0.0000 O   0  0  0  0  0  0  0  0  0  0  0  0
   -0.9266   -3.0100    0.0000 H   0  0  0  0  0  0  0  0  0  0  0  0
    0.9266   -3.0100    0.0000 H   0  0  0  0  0  0  0  0  0  0  0  0
    0.0000   -3.5450    0.0000 H   0  0  0  0  0  0  0  0  0  0  0  0
    2.3226   -0.5160    0.0000 H   0  0  0  0  0  0  0  0  0  0  0  0
   -0.8937   -0.5160    0.0000 H   0  0  0  0  0  0  0  0  0  0  0  0
    2.3226    1.3410    0.0000 H   0  0  0  0  0  0  0  0  0  0  0  0
   -0.8937    1.3410    0.0000 H   0  0  0  0  0  0  0  0  0  0  0  0
    1.6411   -1.7725    0.0000 H   0  0  0  0  0  0  0  0  0  0  0  0
    1.6411   -0.7025    0.0000 H   0  0  0  0  0  0  0  0  0  0  0  0
    0.9266   -2.1850    0.0000 H   0  0  0  0  0  0  0  0  0  0  0  0
   -0.7145   -0.2175    0.0000 H   0  0  0  0  0  0  0  0  0  0  0  0
   -1.5978   -1.7475    0.0000 H   0  0  0  0  0  0  0  0  0  0  0  0
    1.5260    2.5310    0.0000 H   0  0  0  0  0  0  0  0  0  0  0  0
  1 12  1  0  0  0  0
  1 13  1  0  0  0  0
  1 14  1  0  0  0  0
  2 15  1  0  0  0  0
  3 16  1  0  0  0  0
  4  2  1  0  0  0  0
  4 17  1  0  0  0  0
  5  3  2  0  0  0  0
  5 18  1  0  0  0  0
  6 19  1  0  0  0  0
  6 20  1  0  0  0  0
  7  1  1  0  0  0  0
  7  6  1  0  0  0  0
  7 21  1  0  0  0  0
  8  2  2  0  0  0  0
  8  3  1  0  0  0  0
  8  6  1  0  0  0  0
  9  4  2  0  0  0  0
  9  5  1  0  0  0  0
 10  7  1  0  0  0  0
 10 22  1  0  0  0  0
 10 23  1  0  0  0  0
 11  9  1  0  0  0  0
 11 24  1  0  0  0  0
M  END
>  <DRUGBANK_ID>
DB09352

>  <COMMON_NAME>
Hydroxyamphetamine

>  <CAS_NUMBER>
103-86-6

>  <UNII>
FQR280JW2N

>  <SYNONYMS>
4-(2-aminopropyl)phenol; 4-hydroxyamphetamine; dl-4-hydroxyamphetamine; dl-p-hydroxyamphetamine; Hydroxyamphetamine; p-hydroxyamphetamine

$$$$
