
 OpenBabel10282417072D

 44 47  0  0  1  0  0  0  0  0999 V2000
    8.2260    1.4493    0.0000 C   0  0  0  0  0  0  0  0  0  0  0  0
    7.5115    1.0368    0.0000 C   0  0  0  0  0  0  0  0  0  0  0  0
    7.5115    0.2118    0.0000 C   0  0  0  0  0  0  0  0  0  0  0  0
    6.7970   -0.2007    0.0000 C   0  0  0  0  0  0  0  0  0  0  0  0
    6.0826    0.2118    0.0000 C   0  0  0  0  0  0  0  0  0  0  0  0
    6.0826    1.0368    0.0000 C   0  0  0  0  0  0  0  0  0  0  0  0
    6.7970    1.4493    0.0000 C   0  0  0  0  0  0  0  0  0  0  0  0
    5.3681    1.4493    0.0000 N   0  0  0  0  0  0  0  0  0  0  0  0
    5.3681    2.2743    0.0000 C   0  0  0  0  0  0  0  0  0  0  0  0
    4.6536    1.0368    0.0000 C   0  0  0  0  0  0  0  0  0  0  0  0
    4.6536    0.2118    0.0000 S   0  0  0  0  0  0  0  0  0  0  0  0
    3.9392    1.4493    0.0000 O   0  0  0  0  0  0  0  0  0  0  0  0
    3.2247    1.0368    0.0000 C   0  0  0  0  0  0  0  0  0  0  0  0
    3.2247    0.2118    0.0000 C   0  0  0  0  0  0  0  0  0  0  0  0
    2.5102   -0.2007    0.0000 C   0  0  0  0  0  0  0  0  0  0  0  0
    1.7957    0.2118    0.0000 C   0  0  0  0  0  0  0  0  0  0  0  0
    1.7957    1.0368    0.0000 C   0  0  0  0  0  0  0  0  0  0  0  0
    2.5102    1.4493    0.0000 C   0  0  0  0  0  0  0  0  0  0  0  0
    1.0813    1.4493    0.0000 C   0  0  2  0  0  0  0  0  0  0  0  0
    0.3668    1.0368    0.0000 C   0  0  0  0  0  0  0  0  0  0  0  0
    0.3668    0.2118    0.0000 C   0  0  0  0  0  0  0  0  0  0  0  0
    1.0813   -0.2007    0.0000 C   0  0  1  0  0  0  0  0  0  0  0  0
    1.2875    0.6243    0.0000 C   0  0  0  0  0  0  0  0  0  0  0  0
    9.1526    0.9143    0.0000 H   0  0  0  0  0  0  0  0  0  0  0  0
    8.2260    2.5193    0.0000 H   0  0  0  0  0  0  0  0  0  0  0  0
    9.1527    1.9843    0.0000 H   0  0  0  0  0  0  0  0  0  0  0  0
    8.4052   -0.3042    0.0000 H   0  0  0  0  0  0  0  0  0  0  0  0
    6.7970   -1.2327    0.0000 H   0  0  0  0  0  0  0  0  0  0  0  0
    5.1889   -0.3042    0.0000 H   0  0  0  0  0  0  0  0  0  0  0  0
    6.7970    2.4813    0.0000 H   0  0  0  0  0  0  0  0  0  0  0  0
    6.2947    2.8093    0.0000 H   0  0  0  0  0  0  0  0  0  0  0  0
    4.4415    2.8093    0.0000 H   0  0  0  0  0  0  0  0  0  0  0  0
    5.3681    3.3443    0.0000 H   0  0  0  0  0  0  0  0  0  0  0  0
    4.1184   -0.3042    0.0000 H   0  0  0  0  0  0  0  0  0  0  0  0
    2.5102   -1.2327    0.0000 H   0  0  0  0  0  0  0  0  0  0  0  0
    2.5102    2.4813    0.0000 H   0  0  0  0  0  0  0  0  0  0  0  0
    1.7255    0.5949    0.0000 H   0  0  0  0  0  0  0  0  0  0  0  0
   -0.5598    1.5718    0.0000 H   0  0  0  0  0  0  0  0  0  0  0  0
   -0.5598    0.5018    0.0000 H   0  0  0  0  0  0  0  0  0  0  0  0
   -0.5598   -0.3232    0.0000 H   0  0  0  0  0  0  0  0  0  0  0  0
    0.3668   -0.8582    0.0000 H   0  0  0  0  0  0  0  0  0  0  0  0
    0.6635    0.7844    0.0000 H   0  0  0  0  0  0  0  0  0  0  0  0
    2.3575    0.6243    0.0000 H   0  0  0  0  0  0  0  0  0  0  0  0
    1.9460    1.4677    0.0000 H   0  0  0  0  0  0  0  0  0  0  0  0
  1  2  1  0  0  0  0
  1 24  1  0  0  0  0
  1 25  1  0  0  0  0
  1 26  1  0  0  0  0
  2  3  2  0  0  0  0
  2  7  1  0  0  0  0
  3  4  1  0  0  0  0
  3 27  1  0  0  0  0
  4  5  2  0  0  0  0
  4 28  1  0  0  0  0
  5  6  1  0  0  0  0
  5 29  1  0  0  0  0
  6  7  2  0  0  0  0
  6  8  1  0  0  0  0
  7 30  1  0  0  0  0
  8  9  1  0  0  0  0
  8 10  1  0  0  0  0
  9 31  1  0  0  0  0
  9 32  1  0  0  0  0
  9 33  1  0  0  0  0
 10 11  2  0  0  0  0
 10 12  1  0  0  0  0
 12 13  1  0  0  0  0
 13 14  2  0  0  0  0
 13 18  1  0  0  0  0
 14 15  1  0  0  0  0
 14 34  1  0  0  0  0
 15 16  2  0  0  0  0
 15 35  1  0  0  0  0
 16 17  1  0  0  0  0
 16 22  1  0  0  0  0
 17 18  2  0  0  0  0
 17 19  1  0  0  0  0
 18 36  1  0  0  0  0
 19 20  1  0  0  0  0
 19 23  1  0  0  0  0
 19 37  1  6  0  0  0
 20 21  1  0  0  0  0
 20 38  1  0  0  0  0
 20 39  1  0  0  0  0
 21 22  1  0  0  0  0
 21 40  1  0  0  0  0
 21 41  1  0  0  0  0
 22 23  1  0  0  0  0
 22 42  1  6  0  0  0
 23 43  1  0  0  0  0
 23 44  1  0  0  0  0
M  END
>  <DRUGBANK_ID>
DB13360

>  <COMMON_NAME>
Tolciclate

>  <CAS_NUMBER>
50838-36-3

>  <UNII>
T3TZ02X2AZ

>  <SYNONYMS>
Tolciclate

$$$$
