L05
 OpenBabel10282417072D

 49 52  0  0  0  0  0  0  0  0999 V2000
   -2.7748    2.1191    0.0000 C   0  0  0  0  0  0  0  0  0  0  0  0
   -2.0603    2.5316    0.0000 O   0  0  0  0  0  0  0  0  0  0  0  0
   -1.3459    2.1191    0.0000 C   0  0  0  0  0  0  0  0  0  0  0  0
   -0.6314    2.5316    0.0000 C   0  0  0  0  0  0  0  0  0  0  0  0
    0.0831    2.1191    0.0000 C   0  0  0  0  0  0  0  0  0  0  0  0
    0.0831    1.2941    0.0000 C   0  0  0  0  0  0  0  0  0  0  0  0
    0.7976    0.8816    0.0000 N   0  0  0  0  0  0  0  0  0  0  0  0
    0.7976    0.0566    0.0000 C   0  0  0  0  0  0  0  0  0  0  0  0
    1.4650   -0.4283    0.0000 C   0  0  0  0  0  0  0  0  0  0  0  0
    1.2101   -1.2129    0.0000 C   0  0  0  0  0  0  0  0  0  0  0  0
    1.6950   -1.8804    0.0000 O   0  0  0  0  0  0  0  0  0  0  0  0
    0.3851   -1.2129    0.0000 N   0  0  0  0  0  0  0  0  0  0  0  0
   -0.0999   -1.8804    0.0000 C   0  0  0  0  0  0  0  0  0  0  0  0
   -0.9204   -1.7941    0.0000 C   0  0  0  0  0  0  0  0  0  0  0  0
   -1.4053   -2.4616    0.0000 C   0  0  0  0  0  0  0  0  0  0  0  0
   -2.2258   -2.3753    0.0000 C   0  0  0  0  0  0  0  0  0  0  0  0
   -2.5613   -1.6217    0.0000 C   0  0  0  0  0  0  0  0  0  0  0  0
   -2.0764   -0.9542    0.0000 C   0  0  0  0  0  0  0  0  0  0  0  0
   -1.2559   -1.0405    0.0000 C   0  0  0  0  0  0  0  0  0  0  0  0
    0.1301   -0.4283    0.0000 C   0  0  0  0  0  0  0  0  0  0  0  0
   -0.6545   -0.1734    0.0000 O   0  0  0  0  0  0  0  0  0  0  0  0
    2.2496   -0.1734    0.0000 C   0  0  0  0  0  0  0  0  0  0  0  0
    2.4211    0.6336    0.0000 C   0  0  0  0  0  0  0  0  0  0  0  0
    3.2058    0.8885    0.0000 C   0  0  0  0  0  0  0  0  0  0  0  0
    3.8189    0.3365    0.0000 C   0  0  0  0  0  0  0  0  0  0  0  0
    3.6473   -0.4705    0.0000 C   0  0  0  0  0  0  0  0  0  0  0  0
    2.8627   -0.7254    0.0000 C   0  0  0  0  0  0  0  0  0  0  0  0
   -0.6314    0.8816    0.0000 C   0  0  0  0  0  0  0  0  0  0  0  0
   -1.3459    1.2941    0.0000 C   0  0  0  0  0  0  0  0  0  0  0  0
   -3.7014    2.6541    0.0000 H   0  0  0  0  0  0  0  0  0  0  0  0
   -2.7748    1.0491    0.0000 H   0  0  0  0  0  0  0  0  0  0  0  0
   -3.7015    1.5841    0.0000 H   0  0  0  0  0  0  0  0  0  0  0  0
   -0.6314    3.5636    0.0000 H   0  0  0  0  0  0  0  0  0  0  0  0
    0.9768    2.6351    0.0000 H   0  0  0  0  0  0  0  0  0  0  0  0
    1.6502    1.3739    0.0000 H   0  0  0  0  0  0  0  0  0  0  0  0
    0.3353   -2.8579    0.0000 H   0  0  0  0  0  0  0  0  0  0  0  0
   -0.7289   -2.7460    0.0000 H   0  0  0  0  0  0  0  0  0  0  0  0
   -0.9856   -3.4044    0.0000 H   0  0  0  0  0  0  0  0  0  0  0  0
   -2.8324   -3.2102    0.0000 H   0  0  0  0  0  0  0  0  0  0  0  0
   -3.5876   -1.5138    0.0000 H   0  0  0  0  0  0  0  0  0  0  0  0
   -2.4961   -0.0114    0.0000 H   0  0  0  0  0  0  0  0  0  0  0  0
   -0.6493   -0.2056    0.0000 H   0  0  0  0  0  0  0  0  0  0  0  0
    1.6542    1.3242    0.0000 H   0  0  0  0  0  0  0  0  0  0  0  0
    3.4204    1.8979    0.0000 H   0  0  0  0  0  0  0  0  0  0  0  0
    4.8004    0.6554    0.0000 H   0  0  0  0  0  0  0  0  0  0  0  0
    4.4142   -1.1611    0.0000 H   0  0  0  0  0  0  0  0  0  0  0  0
    2.6481   -1.7348    0.0000 H   0  0  0  0  0  0  0  0  0  0  0  0
   -0.6314   -0.1504    0.0000 H   0  0  0  0  0  0  0  0  0  0  0  0
   -2.2396    0.7781    0.0000 H   0  0  0  0  0  0  0  0  0  0  0  0
  1  2  1  0  0  0  0
  1 30  1  0  0  0  0
  1 31  1  0  0  0  0
  1 32  1  0  0  0  0
  2  3  1  0  0  0  0
  3  4  2  0  0  0  0
  3 29  1  0  0  0  0
  4  5  1  0  0  0  0
  4 33  1  0  0  0  0
  5  6  2  0  0  0  0
  5 34  1  0  0  0  0
  6  7  1  0  0  0  0
  6 28  1  0  0  0  0
  7  8  1  0  0  0  0
  7 35  1  0  0  0  0
  8  9  2  0  0  0  0
  8 20  1  0  0  0  0
  9 10  1  0  0  0  0
  9 22  1  0  0  0  0
 10 11  2  0  0  0  0
 10 12  1  0  0  0  0
 12 13  1  0  0  0  0
 12 20  1  0  0  0  0
 13 14  1  0  0  0  0
 13 36  1  0  0  0  0
 13 37  1  0  0  0  0
 14 15  2  0  0  0  0
 14 19  1  0  0  0  0
 15 16  1  0  0  0  0
 15 38  1  0  0  0  0
 16 17  2  0  0  0  0
 16 39  1  0  0  0  0
 17 18  1  0  0  0  0
 17 40  1  0  0  0  0
 18 19  2  0  0  0  0
 18 41  1  0  0  0  0
 19 42  1  0  0  0  0
 20 21  2  0  0  0  0
 22 23  2  0  0  0  0
 22 27  1  0  0  0  0
 23 24  1  0  0  0  0
 23 43  1  0  0  0  0
 24 25  2  0  0  0  0
 24 44  1  0  0  0  0
 25 26  1  0  0  0  0
 25 45  1  0  0  0  0
 26 27  2  0  0  0  0
 26 46  1  0  0  0  0
 27 47  1  0  0  0  0
 28 29  2  0  0  0  0
 28 48  1  0  0  0  0
 29 49  1  0  0  0  0
M  END
>  <DRUGBANK_ID>
DB08063

>  <COMMON_NAME>
1-BENZYL-3-(4-METHOXYPHENYLAMINO)-4-PHENYLPYRROLE-2,5-DIONE

$$$$
