885
 OpenBabel10282417072D

 35 36  0  0  0  0  0  0  0  0999 V2000
    2.8793   -0.7742    0.0000 C   0  0  0  0  0  0  0  0  0  0  0  0
    2.2662   -0.2222    0.0000 C   0  0  0  0  0  0  0  0  0  0  0  0
    1.4815   -0.4771    0.0000 C   0  0  0  0  0  0  0  0  0  0  0  0
    0.8685    0.0749    0.0000 C   0  0  0  0  0  0  0  0  0  0  0  0
    1.0400    0.8819    0.0000 C   0  0  0  0  0  0  0  0  0  0  0  0
    1.8246    1.1368    0.0000 C   0  0  0  0  0  0  0  0  0  0  0  0
    2.4377    0.5848    0.0000 C   0  0  0  0  0  0  0  0  0  0  0  0
    3.2223    0.8397    0.0000 Cl  0  0  0  0  0  0  0  0  0  0  0  0
    0.4269    1.4339    0.0000 N   0  0  0  0  0  0  0  0  0  0  0  0
    0.0838   -0.1800    0.0000 S   0  0  0  0  0  0  0  0  0  0  0  0
   -0.1711    0.6046    0.0000 O   0  0  0  0  0  0  0  0  0  0  0  0
    0.3388   -0.9647    0.0000 O   0  0  0  0  0  0  0  0  0  0  0  0
   -0.7008   -0.4350    0.0000 N   0  0  0  0  0  0  0  0  0  0  0  0
   -0.9557   -1.2196    0.0000 C   0  0  0  0  0  0  0  0  0  0  0  0
   -1.7807   -1.2196    0.0000 C   0  0  0  0  0  0  0  0  0  0  0  0
   -2.0357   -0.4350    0.0000 C   0  0  0  0  0  0  0  0  0  0  0  0
   -1.3682    0.0499    0.0000 C   0  0  1  0  0  0  0  0  0  0  0  0
   -1.3682    0.8749    0.0000 C   0  0  0  0  0  0  0  0  0  0  0  0
   -2.0827    1.2874    0.0000 O   0  0  0  0  0  0  0  0  0  0  0  0
   -0.6538    1.2874    0.0000 O   0  0  0  0  0  0  0  0  0  0  0  0
   -0.8479    0.3150    0.0000 H   0  0  0  0  0  0  0  0  0  0  0  0
    2.6569   -1.8208    0.0000 H   0  0  0  0  0  0  0  0  0  0  0  0
    3.8969   -0.4435    0.0000 H   0  0  0  0  0  0  0  0  0  0  0  0
    3.6745   -1.4901    0.0000 H   0  0  0  0  0  0  0  0  0  0  0  0
    1.2669   -1.4865    0.0000 H   0  0  0  0  0  0  0  0  0  0  0  0
    2.0392    2.1462    0.0000 H   0  0  0  0  0  0  0  0  0  0  0  0
    0.6316    2.3969    0.0000 H   0  0  0  0  0  0  0  0  0  0  0  0
   -0.5094    1.1296    0.0000 H   0  0  0  0  0  0  0  0  0  0  0  0
   -0.3268   -2.0852    0.0000 H   0  0  0  0  0  0  0  0  0  0  0  0
   -1.4415   -2.1730    0.0000 H   0  0  0  0  0  0  0  0  0  0  0  0
   -2.4096   -2.0853    0.0000 H   0  0  0  0  0  0  0  0  0  0  0  0
   -2.8375   -1.0523    0.0000 H   0  0  0  0  0  0  0  0  0  0  0  0
   -3.0533   -0.1044    0.0000 H   0  0  0  0  0  0  0  0  0  0  0  0
   -2.2031    0.6218    0.0000 H   0  0  0  0  0  0  0  0  0  0  0  0
   -2.0827    2.2244    0.0000 H   0  0  0  0  0  0  0  0  0  0  0  0
  1  2  1  0  0  0  0
  1 22  1  0  0  0  0
  1 23  1  0  0  0  0
  1 24  1  0  0  0  0
  2  3  2  0  0  0  0
  2  7  1  0  0  0  0
  3  4  1  0  0  0  0
  3 25  1  0  0  0  0
  4  5  2  0  0  0  0
  4 10  1  0  0  0  0
  5  6  1  0  0  0  0
  5  9  1  0  0  0  0
  6  7  2  0  0  0  0
  6 26  1  0  0  0  0
  7  8  1  0  0  0  0
  9 27  1  0  0  0  0
  9 28  1  0  0  0  0
 10 11  2  0  0  0  0
 10 12  2  0  0  0  0
 10 13  1  0  0  0  0
 13 14  1  0  0  0  0
 13 17  1  0  0  0  0
 14 15  1  0  0  0  0
 14 29  1  0  0  0  0
 14 30  1  0  0  0  0
 15 16  1  0  0  0  0
 15 31  1  0  0  0  0
 15 32  1  0  0  0  0
 16 17  1  0  0  0  0
 16 33  1  0  0  0  0
 16 34  1  0  0  0  0
 17 18  1  0  0  0  0
 17 21  1  6  0  0  0
 18 19  1  0  0  0  0
 18 20  2  0  0  0  0
 19 35  1  0  0  0  0
M  END
>  <DRUGBANK_ID>
DB07273

>  <COMMON_NAME>
1-[(2-AMINO-4-CHLORO-5-METHYLPHENYL)SULFONYL]-L-PROLINE

$$$$
