
 OpenBabel10282417072D

 49 52  0  0  0  0  0  0  0  0999 V2000
    0.2566    1.3869    0.0000 N   0  0  0  0  0  0  0  0  0  0  0  0
   -0.4591    1.8108    0.0000 C   0  0  0  0  0  0  0  0  0  0  0  0
   -0.1531    0.6663    0.0000 C   0  0  1  0  0  0  0  0  0  0  0  0
   -0.8736    1.0996    0.0000 C   0  0  2  0  0  0  0  0  0  0  0  0
    1.0807    1.3869    0.0000 C   0  0  0  0  0  0  0  0  0  0  0  0
    1.5046    0.6663    0.0000 C   0  0  0  0  0  0  0  0  0  0  0  0
    0.2566   -0.0540    0.0000 S   0  0  0  0  0  0  0  0  0  0  0  0
    2.7432   -0.0023    0.0000 N   0  3  0  0  0  0  0  0  0  0  0  0
   -1.4198    1.6977    0.0000 N   0  0  0  0  0  0  0  0  0  0  0  0
    1.5187    2.1168    0.0000 C   0  0  0  0  0  0  0  0  0  0  0  0
   -2.2299    1.5234    0.0000 C   0  0  0  0  0  0  0  0  0  0  0  0
    2.3335    0.6758    0.0000 C   0  0  0  0  0  0  0  0  0  0  0  0
    1.0807   -0.0540    0.0000 C   0  0  0  0  0  0  0  0  0  0  0  0
   -2.7761    2.1451    0.0000 C   0  0  0  0  0  0  0  0  0  0  0  0
    4.0477   -2.1027    0.0000 C   0  0  0  0  0  0  0  0  0  0  0  0
   -3.5815    1.9661    0.0000 C   0  0  0  0  0  0  0  0  0  0  0  0
   -0.4450    2.6678    0.0000 O   0  0  0  0  0  0  0  0  0  0  0  0
   -4.2313    2.4324    0.0000 S   0  0  0  0  0  0  0  0  0  0  0  0
    3.6050   -1.4104    0.0000 C   0  0  0  0  0  0  0  0  0  0  0  0
    1.1043    2.8373    0.0000 O   0  5  0  0  0  0  0  0  0  0  0  0
   -4.8812    1.9332    0.0000 C   0  0  0  0  0  0  0  0  0  0  0  0
    2.3523    2.0933    0.0000 O   0  0  0  0  0  0  0  0  0  0  0  0
   -3.8264    1.1985    0.0000 C   0  0  0  0  0  0  0  0  0  0  0  0
   -2.4795    0.7511    0.0000 O   0  0  0  0  0  0  0  0  0  0  0  0
    3.6804   -2.8373    0.0000 O   0  0  0  0  0  0  0  0  0  0  0  0
   -4.6317    1.1985    0.0000 C   0  0  0  0  0  0  0  0  0  0  0  0
    2.3523   -0.7322    0.0000 C   0  0  0  0  0  0  0  0  0  0  0  0
    3.5674    0.0117    0.0000 C   0  0  0  0  0  0  0  0  0  0  0  0
    3.9912   -0.6899    0.0000 C   0  0  0  0  0  0  0  0  0  0  0  0
    2.7620   -1.4293    0.0000 C   0  0  0  0  0  0  0  0  0  0  0  0
    4.8812   -2.0651    0.0000 N   0  0  0  0  0  0  0  0  0  0  0  0
   -0.9618   -0.1230    0.0000 H   0  0  0  0  0  0  0  0  0  0  0  0
   -0.1957    1.9275    0.0000 H   0  0  0  0  0  0  0  0  0  0  0  0
   -1.1200    2.6355    0.0000 H   0  0  0  0  0  0  0  0  0  0  0  0
    2.8539    1.6107    0.0000 H   0  0  0  0  0  0  0  0  0  0  0  0
    1.7860    1.5951    0.0000 H   0  0  0  0  0  0  0  0  0  0  0  0
    1.6118   -0.9829    0.0000 H   0  0  0  0  0  0  0  0  0  0  0  0
    0.5438   -0.9795    0.0000 H   0  0  0  0  0  0  0  0  0  0  0  0
   -2.4440    3.1622    0.0000 H   0  0  0  0  0  0  0  0  0  0  0  0
   -3.4952    2.9375    0.0000 H   0  0  0  0  0  0  0  0  0  0  0  0
   -5.8689    2.2325    0.0000 H   0  0  0  0  0  0  0  0  0  0  0  0
   -3.2176    0.3652    0.0000 H   0  0  0  0  0  0  0  0  0  0  0  0
   -5.2328    0.3596    0.0000 H   0  0  0  0  0  0  0  0  0  0  0  0
    1.3205   -0.7527    0.0000 H   0  0  0  0  0  0  0  0  0  0  0  0
    4.0669    0.9148    0.0000 H   0  0  0  0  0  0  0  0  0  0  0  0
    5.0229   -0.6634    0.0000 H   0  0  0  0  0  0  0  0  0  0  0  0
    2.2595   -2.3307    0.0000 H   0  0  0  0  0  0  0  0  0  0  0  0
    5.4114   -2.8947    0.0000 H   0  0  0  0  0  0  0  0  0  0  0  0
    5.3345   -1.1912    0.0000 H   0  0  0  0  0  0  0  0  0  0  0  0
  2  1  1  0  0  0  0
  2  4  1  0  0  0  0
  3  1  1  0  0  0  0
  3 32  1  1  0  0  0
  4  3  1  0  0  0  0
  4  9  1  0  0  0  0
  4 33  1  1  0  0  0
  5  1  1  0  0  0  0
  6  5  2  0  0  0  0
  7  3  1  0  0  0  0
  7 13  1  0  0  0  0
  8 12  1  0  0  0  0
  9 34  1  0  0  0  0
 10  5  1  0  0  0  0
 11  9  1  0  0  0  0
 12  6  1  0  0  0  0
 12 35  1  0  0  0  0
 12 36  1  0  0  0  0
 13  6  1  0  0  0  0
 13 37  1  0  0  0  0
 13 38  1  0  0  0  0
 14 11  1  0  0  0  0
 14 39  1  0  0  0  0
 14 40  1  0  0  0  0
 15 19  1  0  0  0  0
 16 14  1  0  0  0  0
 17  2  2  0  0  0  0
 18 16  1  0  0  0  0
 19 29  1  0  0  0  0
 20 10  1  0  0  0  0
 21 18  1  0  0  0  0
 21 41  1  0  0  0  0
 22 10  2  0  0  0  0
 23 16  2  0  0  0  0
 23 42  1  0  0  0  0
 24 11  2  0  0  0  0
 25 15  2  0  0  0  0
 26 23  1  0  0  0  0
 26 21  2  0  0  0  0
 26 43  1  0  0  0  0
 27  8  2  0  0  0  0
 27 44  1  0  0  0  0
 28  8  1  0  0  0  0
 28 45  1  0  0  0  0
 29 28  2  0  0  0  0
 29 46  1  0  0  0  0
 30 27  1  0  0  0  0
 30 19  2  0  0  0  0
 30 47  1  0  0  0  0
 31 15  1  0  0  0  0
 31 48  1  0  0  0  0
 31 49  1  0  0  0  0
M  CHG  2   8   1  20  -1
M  END
>  <DRUGBANK_ID>
DB11385

>  <COMMON_NAME>
Cefalonium

>  <CAS_NUMBER>
5575-21-3

>  <UNII>
K2P920217W

>  <SYNONYMS>
Cefalonio; Cefalonium; Cephalonium

$$$$
