
 OpenBabel10282417072D

 40 41  0  0  1  0  0  0  0  0999 V2000
   12.2919  -11.1782    0.0000 C   0  0  0  0  0  0  0  0  0  0  0  0
   12.2919  -12.0032    0.0000 C   0  0  0  0  0  0  0  0  0  0  0  0
   12.9931  -12.4156    0.0000 C   0  0  0  0  0  0  0  0  0  0  0  0
   13.7356  -12.0032    0.0000 C   0  0  0  0  0  0  0  0  0  0  0  0
   13.7356  -11.1782    0.0000 C   0  0  0  0  0  0  0  0  0  0  0  0
   12.9931  -10.7657    0.0000 C   0  0  0  0  0  0  0  0  0  0  0  0
   14.5605  -12.0032    0.0000 C   0  0  0  0  0  0  0  0  0  0  0  0
   13.7356  -13.4468    0.0000 C   0  0  0  0  0  0  0  0  0  0  0  0
   14.5605  -13.4468    0.0000 C   0  0  2  0  0  0  0  0  0  0  0  0
   14.1481  -12.7044    0.0000 C   0  0  2  0  0  0  0  0  0  0  0  0
   14.9730  -14.1481    0.0000 C   0  0  0  0  0  0  0  0  0  0  0  0
   14.5605  -11.1782    0.0000 O   0  0  0  0  0  0  0  0  0  0  0  0
   15.3855  -12.0032    0.0000 N   0  0  0  0  0  0  0  0  0  0  0  0
   15.7979  -11.3019    0.0000 C   0  0  0  0  0  0  0  0  0  0  0  0
   15.7979  -12.7044    0.0000 C   0  0  0  0  0  0  0  0  0  0  0  0
   16.6229  -12.7044    0.0000 C   0  0  0  0  0  0  0  0  0  0  0  0
   16.6229  -11.3019    0.0000 C   0  0  0  0  0  0  0  0  0  0  0  0
   15.7979  -14.1481    0.0000 N   0  0  0  0  0  0  0  0  0  0  0  0
   11.3961  -10.6658    0.0000 H   0  0  0  0  0  0  0  0  0  0  0  0
   11.3961  -12.5156    0.0000 H   0  0  0  0  0  0  0  0  0  0  0  0
   12.9804  -13.4475    0.0000 H   0  0  0  0  0  0  0  0  0  0  0  0
   14.6251  -10.6548    0.0000 H   0  0  0  0  0  0  0  0  0  0  0  0
   12.9804   -9.7338    0.0000 H   0  0  0  0  0  0  0  0  0  0  0  0
   12.8134  -13.9894    0.0000 H   0  0  0  0  0  0  0  0  0  0  0  0
   14.0168  -14.4792    0.0000 H   0  0  0  0  0  0  0  0  0  0  0  0
   15.4894  -12.9157    0.0000 H   0  0  0  0  0  0  0  0  0  0  0  0
   14.4418  -15.0769    0.0000 H   0  0  0  0  0  0  0  0  0  0  0  0
   15.5099  -15.0737    0.0000 H   0  0  0  0  0  0  0  0  0  0  0  0
   15.2666  -10.3731    0.0000 H   0  0  0  0  0  0  0  0  0  0  0  0
   16.3347  -10.3763    0.0000 H   0  0  0  0  0  0  0  0  0  0  0  0
   15.2666  -13.6332    0.0000 H   0  0  0  0  0  0  0  0  0  0  0  0
   16.3348  -13.6300    0.0000 H   0  0  0  0  0  0  0  0  0  0  0  0
   17.1579  -13.6310    0.0000 H   0  0  0  0  0  0  0  0  0  0  0  0
   17.1579  -11.7778    0.0000 H   0  0  0  0  0  0  0  0  0  0  0  0
   17.6929  -12.7044    0.0000 H   0  0  0  0  0  0  0  0  0  0  0  0
   17.1579  -12.2285    0.0000 H   0  0  0  0  0  0  0  0  0  0  0  0
   17.1579  -10.3753    0.0000 H   0  0  0  0  0  0  0  0  0  0  0  0
   17.6929  -11.3019    0.0000 H   0  0  0  0  0  0  0  0  0  0  0  0
   16.3079  -15.0314    0.0000 H   0  0  0  0  0  0  0  0  0  0  0  0
   16.3079  -13.2648    0.0000 H   0  0  0  0  0  0  0  0  0  0  0  0
  1  2  2  0  0  0  0
  1 19  1  0  0  0  0
  2  3  1  0  0  0  0
  2 20  1  0  0  0  0
  3  4  2  0  0  0  0
  3 21  1  0  0  0  0
  4  5  1  0  0  0  0
  5  6  2  0  0  0  0
  5 22  1  0  0  0  0
  6  1  1  0  0  0  0
  6 23  1  0  0  0  0
  7 12  2  0  0  0  0
  7 13  1  0  0  0  0
  8 10  1  0  0  0  0
  8  9  1  0  0  0  0
  8 24  1  0  0  0  0
  8 25  1  0  0  0  0
  9 11  1  0  0  0  0
  9 26  1  1  0  0  0
 10  9  1  0  0  0  0
 10  4  1  0  0  0  0
 10  7  1  6  0  0  0
 11 18  1  0  0  0  0
 11 27  1  0  0  0  0
 11 28  1  0  0  0  0
 13 14  1  0  0  0  0
 13 15  1  0  0  0  0
 14 17  1  0  0  0  0
 14 29  1  0  0  0  0
 14 30  1  0  0  0  0
 15 16  1  0  0  0  0
 15 31  1  0  0  0  0
 15 32  1  0  0  0  0
 16 33  1  0  0  0  0
 16 34  1  0  0  0  0
 16 35  1  0  0  0  0
 17 36  1  0  0  0  0
 17 37  1  0  0  0  0
 17 38  1  0  0  0  0
 18 39  1  0  0  0  0
 18 40  1  0  0  0  0
M  END
>  <DRUGBANK_ID>
DB08918

>  <COMMON_NAME>
Levomilnacipran

>  <CAS_NUMBER>
96847-54-0

>  <UNII>
UGM0326TXX

>  <SYNONYMS>
(1S,2R)-milnacipran; CYCLOPROPANECARBOXAMIDE, 2-(AMINOMETHYL)-N,N-DIETHYL-1-PHENYL-, (1S,2R)-; Levomilnacipran; MILNACIPRAN, (1S,2R)-

$$$$
