
 OpenBabel10282417072D

 18 18  0  0  0  0  0  0  0  0999 V2000
   -1.4288    0.8250    0.0000 C   0  0  0  0  0  0  0  0  0  0  0  0
   -2.1433    0.4125    0.0000 C   0  0  0  0  0  0  0  0  0  0  0  0
   -2.1433   -0.4124    0.0000 C   0  0  0  0  0  0  0  0  0  0  0  0
   -1.4288   -0.8250    0.0000 C   0  0  0  0  0  0  0  0  0  0  0  0
   -0.7144   -0.4124    0.0000 C   0  0  0  0  0  0  0  0  0  0  0  0
   -0.7144    0.4125    0.0000 C   0  0  0  0  0  0  0  0  0  0  0  0
    0.0000    0.8250    0.0000 C   0  0  0  0  0  0  0  0  0  0  0  0
    0.7145    0.4125    0.0000 C   0  0  0  0  0  0  0  0  0  0  0  0
    1.4290    0.8250    0.0000 C   0  0  0  0  0  0  0  0  0  0  0  0
    2.1433    0.4125    0.0000 O   0  0  0  0  0  0  0  0  0  0  0  0
   -1.4288    1.8570    0.0000 H   0  0  0  0  0  0  0  0  0  0  0  0
   -3.0370    0.9285    0.0000 H   0  0  0  0  0  0  0  0  0  0  0  0
   -3.0371   -0.9284    0.0000 H   0  0  0  0  0  0  0  0  0  0  0  0
   -1.4288   -1.8570    0.0000 H   0  0  0  0  0  0  0  0  0  0  0  0
    0.1794   -0.9283    0.0000 H   0  0  0  0  0  0  0  0  0  0  0  0
   -0.0000    1.8570    0.0000 H   0  0  0  0  0  0  0  0  0  0  0  0
    0.7145   -0.6195    0.0000 H   0  0  0  0  0  0  0  0  0  0  0  0
    1.4291    1.8570    0.0000 H   0  0  0  0  0  0  0  0  0  0  0  0
  1  2  1  0  0  0  0
  1  6  2  0  0  0  0
  1 11  1  0  0  0  0
  2  3  2  0  0  0  0
  2 12  1  0  0  0  0
  3  4  1  0  0  0  0
  3 13  1  0  0  0  0
  4  5  2  0  0  0  0
  4 14  1  0  0  0  0
  5  6  1  0  0  0  0
  5 15  1  0  0  0  0
  6  7  1  0  0  0  0
  7  8  2  0  0  0  0
  7 16  1  0  0  0  0
  8  9  1  0  0  0  0
  8 17  1  0  0  0  0
  9 10  2  0  0  0  0
  9 18  1  0  0  0  0
M  END
>  <DRUGBANK_ID>
DB14184

>  <COMMON_NAME>
Cinnamaldehyde

>  <CAS_NUMBER>
14371-10-9

>  <UNII>
SR60A3XG0F

>  <SYNONYMS>
(3E)-3-phenylprop-2-enal; (E)-3-Phenyl-2-propenal; (E)-3-Phenyl-propenal; (E)-3-Phenylpropenal; 3-phenylacrylaldehyde; Cinnamal; Cinnamaldehyde; trans-Cinnamaldehyde; trans-Cinnamic aldehyde; Zimtaldehyde

$$$$
