
 OpenBabel10282417072D

 31 33  0  0  0  0  0  0  0  0999 V2000
   -0.1712    1.5229    0.0000 C   0  0  0  0  0  0  0  0  0  0  0  0
    3.3523    1.1104    0.0000 C   0  0  0  0  0  0  0  0  0  0  0  0
    3.3523    1.9354    0.0000 C   0  0  0  0  0  0  0  0  0  0  0  0
    2.6378    0.6979    0.0000 C   0  0  0  0  0  0  0  0  0  0  0  0
    2.6378    2.3479    0.0000 C   0  0  0  0  0  0  0  0  0  0  0  0
   -0.1781    3.9312    0.0000 C   0  0  0  0  0  0  0  0  0  0  0  0
   -0.4752    2.5334    0.0000 C   0  0  0  0  0  0  0  0  0  0  0  0
   -0.9851    4.1027    0.0000 C   0  0  0  0  0  0  0  0  0  0  0  0
   -1.2822    2.7050    0.0000 C   0  0  0  0  0  0  0  0  0  0  0  0
    0.8838    2.9750    0.0000 C   0  0  0  0  0  0  0  0  0  0  0  0
    0.6538    1.5229    0.0000 C   0  0  0  0  0  0  0  0  0  0  0  0
    0.0768    3.1465    0.0000 C   0  0  0  0  0  0  0  0  0  0  0  0
   -1.5371    3.4896    0.0000 C   0  0  0  0  0  0  0  0  0  0  0  0
    1.9233    1.1104    0.0000 C   0  0  0  0  0  0  0  0  0  0  0  0
    1.9233    1.9354    0.0000 C   0  0  0  0  0  0  0  0  0  0  0  0
   -2.3441    3.6611    0.0000 Cl  0  0  0  0  0  0  0  0  0  0  0  0
    1.1387    0.8555    0.0000 N   0  0  0  0  0  0  0  0  0  0  0  0
    1.1387    2.1904    0.0000 N   0  0  0  0  0  0  0  0  0  0  0  0
   -0.7062    2.4495    0.0000 H   0  0  0  0  0  0  0  0  0  0  0  0
   -0.7062    0.5963    0.0000 H   0  0  0  0  0  0  0  0  0  0  0  0
   -1.2412    1.5229    0.0000 H   0  0  0  0  0  0  0  0  0  0  0  0
    4.2460    0.5944    0.0000 H   0  0  0  0  0  0  0  0  0  0  0  0
    4.2460    2.4514    0.0000 H   0  0  0  0  0  0  0  0  0  0  0  0
    2.6378   -0.3341    0.0000 H   0  0  0  0  0  0  0  0  0  0  0  0
    2.6378    3.3799    0.0000 H   0  0  0  0  0  0  0  0  0  0  0  0
    0.5125    4.6981    0.0000 H   0  0  0  0  0  0  0  0  0  0  0  0
   -0.1563    1.5519    0.0000 H   0  0  0  0  0  0  0  0  0  0  0  0
   -1.3040    5.0842    0.0000 H   0  0  0  0  0  0  0  0  0  0  0  0
   -1.9728    1.9381    0.0000 H   0  0  0  0  0  0  0  0  0  0  0  0
    1.5998    3.7702    0.0000 H   0  0  0  0  0  0  0  0  0  0  0  0
    1.9304    2.7525    0.0000 H   0  0  0  0  0  0  0  0  0  0  0  0
  1 19  1  0  0  0  0
  1 20  1  0  0  0  0
  1 21  1  0  0  0  0
  2 22  1  0  0  0  0
  3  2  2  0  0  0  0
  3 23  1  0  0  0  0
  4  2  1  0  0  0  0
  4 24  1  0  0  0  0
  5  3  1  0  0  0  0
  5 25  1  0  0  0  0
  6 26  1  0  0  0  0
  7 27  1  0  0  0  0
  8  6  1  0  0  0  0
  8 28  1  0  0  0  0
  9  7  2  0  0  0  0
  9 29  1  0  0  0  0
 10 30  1  0  0  0  0
 10 31  1  0  0  0  0
 11  1  1  0  0  0  0
 12  6  2  0  0  0  0
 12  7  1  0  0  0  0
 12 10  1  0  0  0  0
 13  8  2  0  0  0  0
 13  9  1  0  0  0  0
 14  4  2  0  0  0  0
 15  5  2  0  0  0  0
 15 14  1  0  0  0  0
 16 13  1  0  0  0  0
 17 11  2  0  0  0  0
 17 14  1  0  0  0  0
 18 10  1  0  0  0  0
 18 11  1  0  0  0  0
 18 15  1  0  0  0  0
M  END
>  <DRUGBANK_ID>
DB13611

>  <COMMON_NAME>
Chlormidazole

>  <CAS_NUMBER>
3689-76-7

>  <UNII>
8IKK64FJVX

>  <SYNONYMS>
Chlormidazole

$$$$
