
 OpenBabel10282417072D

132137  0  0  0  0  0  0  0  0999 V2000
   -0.7218    1.3199    0.0000 C   0  0  0  0  0  0  0  0  0  0  0  0
   -0.7218    0.4949    0.0000 C   0  0  0  0  0  0  0  0  0  0  0  0
   -0.0206    0.0824    0.0000 C   0  0  0  0  0  0  0  0  0  0  0  0
    0.7219    0.4949    0.0000 C   0  0  0  0  0  0  0  0  0  0  0  0
    0.7219    1.3199    0.0000 C   0  0  0  0  0  0  0  0  0  0  0  0
   -0.0206    1.7324    0.0000 C   0  0  0  0  0  0  0  0  0  0  0  0
   -0.0206   -0.7425    0.0000 N   0  0  0  0  0  0  0  0  0  0  0  0
   -0.0206    2.5575    0.0000 C   0  0  0  0  0  0  0  0  0  0  0  0
   -0.0206    3.3826    0.0000 C   0  0  0  0  0  0  0  0  0  0  0  0
   -0.6806   -1.2376    0.0000 C   0  0  1  0  0  0  0  0  0  0  0  0
   -0.4331   -2.0214    0.0000 C   0  0  0  0  0  0  0  0  0  0  0  0
    0.3918   -2.0214    0.0000 C   0  0  0  0  0  0  0  0  0  0  0  0
    0.6806   -1.2376    0.0000 C   0  0  1  0  0  0  0  0  0  0  0  0
    1.3819    0.0000    0.0000 C   0  0  0  0  0  0  0  0  0  0  0  0
    1.3819   -0.8250    0.0000 C   0  0  0  0  0  0  0  0  0  0  0  0
    2.0831   -1.2376    0.0000 C   0  0  0  0  0  0  0  0  0  0  0  0
    2.8257   -0.8250    0.0000 C   0  0  0  0  0  0  0  0  0  0  0  0
    2.8257    0.0000    0.0000 C   0  0  0  0  0  0  0  0  0  0  0  0
    2.0831    0.4124    0.0000 C   0  0  0  0  0  0  0  0  0  0  0  0
   -2.8257    0.0000    0.0000 C   0  0  0  0  0  0  0  0  0  0  0  0
   -2.8257   -0.8250    0.0000 C   0  0  0  0  0  0  0  0  0  0  0  0
   -2.1244   -1.2376    0.0000 C   0  0  0  0  0  0  0  0  0  0  0  0
   -1.3819   -0.8250    0.0000 C   0  0  0  0  0  0  0  0  0  0  0  0
   -1.3819    0.0000    0.0000 C   0  0  0  0  0  0  0  0  0  0  0  0
   -2.1244    0.4124    0.0000 C   0  0  0  0  0  0  0  0  0  0  0  0
   -3.5269    0.4124    0.0000 N   0  0  0  0  0  0  0  0  0  0  0  0
   -4.2282    0.0000    0.0000 C   0  0  0  0  0  0  0  0  0  0  0  0
   -4.9295    0.4124    0.0000 C   0  0  1  0  0  0  0  0  0  0  0  0
   -4.2282   -0.8250    0.0000 O   0  0  0  0  0  0  0  0  0  0  0  0
   -5.6307   -0.0826    0.0000 N   0  0  0  0  0  0  0  0  0  0  0  0
   -6.2908    0.4124    0.0000 C   0  0  0  0  0  0  0  0  0  0  0  0
   -6.0433    1.1962    0.0000 C   0  0  0  0  0  0  0  0  0  0  0  0
   -5.2183    1.1962    0.0000 C   0  0  0  0  0  0  0  0  0  0  0  0
   -5.6307   -0.9076    0.0000 C   0  0  0  0  0  0  0  0  0  0  0  0
   -6.3733   -1.3201    0.0000 C   0  0  2  0  0  0  0  0  0  0  0  0
   -4.9295   -1.3201    0.0000 O   0  0  0  0  0  0  0  0  0  0  0  0
   -7.0745   -0.8663    0.0000 C   0  0  0  0  0  0  0  0  0  0  0  0
   -7.7758   -1.2788    0.0000 C   0  0  0  0  0  0  0  0  0  0  0  0
   -7.0745   -0.0413    0.0000 C   0  0  0  0  0  0  0  0  0  0  0  0
   -6.3733   -2.1451    0.0000 N   0  0  0  0  0  0  0  0  0  0  0  0
   -7.0745   -2.5576    0.0000 C   0  0  0  0  0  0  0  0  0  0  0  0
   -7.7758   -2.1451    0.0000 O   0  0  0  0  0  0  0  0  0  0  0  0
   -8.5183   -2.5576    0.0000 C   0  0  0  0  0  0  0  0  0  0  0  0
   -7.0745   -3.3826    0.0000 O   0  0  0  0  0  0  0  0  0  0  0  0
    3.5269    0.4124    0.0000 N   0  0  0  0  0  0  0  0  0  0  0  0
    4.2282    0.0000    0.0000 C   0  0  0  0  0  0  0  0  0  0  0  0
    4.9295    0.4124    0.0000 C   0  0  1  0  0  0  0  0  0  0  0  0
    4.2282   -0.8250    0.0000 O   0  0  0  0  0  0  0  0  0  0  0  0
    5.6307   -0.0826    0.0000 N   0  0  0  0  0  0  0  0  0  0  0  0
    6.2908    0.4124    0.0000 C   0  0  0  0  0  0  0  0  0  0  0  0
    6.0433    1.1962    0.0000 C   0  0  0  0  0  0  0  0  0  0  0  0
    5.2183    1.1962    0.0000 C   0  0  0  0  0  0  0  0  0  0  0  0
    5.6307   -0.9076    0.0000 C   0  0  0  0  0  0  0  0  0  0  0  0
    6.3733   -1.3201    0.0000 C   0  0  2  0  0  0  0  0  0  0  0  0
    4.9295   -1.3201    0.0000 O   0  0  0  0  0  0  0  0  0  0  0  0
    7.0745   -0.8663    0.0000 C   0  0  0  0  0  0  0  0  0  0  0  0
    7.7758   -1.2788    0.0000 C   0  0  0  0  0  0  0  0  0  0  0  0
    7.0745   -0.0413    0.0000 C   0  0  0  0  0  0  0  0  0  0  0  0
    6.3733   -2.1451    0.0000 N   0  0  0  0  0  0  0  0  0  0  0  0
    7.0745   -2.5576    0.0000 C   0  0  0  0  0  0  0  0  0  0  0  0
    7.7758   -2.1451    0.0000 O   0  0  0  0  0  0  0  0  0  0  0  0
    8.5183   -2.5576    0.0000 C   0  0  0  0  0  0  0  0  0  0  0  0
    7.0745   -3.3826    0.0000 O   0  0  0  0  0  0  0  0  0  0  0  0
    0.6938    2.9700    0.0000 C   0  0  0  0  0  0  0  0  0  0  0  0
   -0.7351    2.9700    0.0000 C   0  0  0  0  0  0  0  0  0  0  0  0
   -1.6176    1.8323    0.0000 H   0  0  0  0  0  0  0  0  0  0  0  0
   -1.6176   -0.0175    0.0000 H   0  0  0  0  0  0  0  0  0  0  0  0
    1.6114   -0.0285    0.0000 H   0  0  0  0  0  0  0  0  0  0  0  0
    1.6114    1.8433    0.0000 H   0  0  0  0  0  0  0  0  0  0  0  0
    0.9060    3.9176    0.0000 H   0  0  0  0  0  0  0  0  0  0  0  0
   -0.9472    3.9176    0.0000 H   0  0  0  0  0  0  0  0  0  0  0  0
   -0.0206    4.4526    0.0000 H   0  0  0  0  0  0  0  0  0  0  0  0
   -0.7404   -0.1693    0.0000 H   0  0  0  0  0  0  0  0  0  0  0  0
   -1.0656   -2.8844    0.0000 H   0  0  0  0  0  0  0  0  0  0  0  0
    0.0507   -2.9758    0.0000 H   0  0  0  0  0  0  0  0  0  0  0  0
    1.0038   -2.8991    0.0000 H   0  0  0  0  0  0  0  0  0  0  0  0
    1.4531   -1.8849    0.0000 H   0  0  0  0  0  0  0  0  0  0  0  0
    1.5017   -1.9236    0.0000 H   0  0  0  0  0  0  0  0  0  0  0  0
    0.4861    0.5124    0.0000 H   0  0  0  0  0  0  0  0  0  0  0  0
    2.0703   -2.2695    0.0000 H   0  0  0  0  0  0  0  0  0  0  0  0
    3.7152   -1.3483    0.0000 H   0  0  0  0  0  0  0  0  0  0  0  0
    2.0703    1.4443    0.0000 H   0  0  0  0  0  0  0  0  0  0  0  0
   -3.7215   -1.3373    0.0000 H   0  0  0  0  0  0  0  0  0  0  0  0
   -2.1371   -2.2695    0.0000 H   0  0  0  0  0  0  0  0  0  0  0  0
   -0.4925    0.5234    0.0000 H   0  0  0  0  0  0  0  0  0  0  0  0
   -2.1371    1.4443    0.0000 H   0  0  0  0  0  0  0  0  0  0  0  0
   -3.5269    1.3969    0.0000 H   0  0  0  0  0  0  0  0  0  0  0  0
   -4.1084    1.0985    0.0000 H   0  0  0  0  0  0  0  0  0  0  0  0
   -7.3096    0.0852    0.0000 H   0  0  0  0  0  0  0  0  0  0  0  0
   -7.0493    1.1672    0.0000 H   0  0  0  0  0  0  0  0  0  0  0  0
   -6.6758    2.0592    0.0000 H   0  0  0  0  0  0  0  0  0  0  0  0
   -5.5595    2.1506    0.0000 H   0  0  0  0  0  0  0  0  0  0  0  0
   -4.6063    2.0739    0.0000 H   0  0  0  0  0  0  0  0  0  0  0  0
   -4.1570    1.0597    0.0000 H   0  0  0  0  0  0  0  0  0  0  0  0
   -5.4511   -1.8628    0.0000 H   0  0  0  0  0  0  0  0  0  0  0  0
   -8.0033   -0.3351    0.0000 H   0  0  0  0  0  0  0  0  0  0  0  0
   -8.7067   -0.7513    0.0000 H   0  0  0  0  0  0  0  0  0  0  0  0
   -7.7671   -2.3488    0.0000 H   0  0  0  0  0  0  0  0  0  0  0  0
   -8.6981   -1.8213    0.0000 H   0  0  0  0  0  0  0  0  0  0  0  0
   -6.1479    0.4937    0.0000 H   0  0  0  0  0  0  0  0  0  0  0  0
   -8.0011    0.4937    0.0000 H   0  0  0  0  0  0  0  0  0  0  0  0
   -7.0745    1.0287    0.0000 H   0  0  0  0  0  0  0  0  0  0  0  0
   -5.5187   -2.6339    0.0000 H   0  0  0  0  0  0  0  0  0  0  0  0
   -9.4360   -2.0074    0.0000 H   0  0  0  0  0  0  0  0  0  0  0  0
   -8.5360   -3.6275    0.0000 H   0  0  0  0  0  0  0  0  0  0  0  0
   -9.4536   -3.0772    0.0000 H   0  0  0  0  0  0  0  0  0  0  0  0
    3.5269    1.3969    0.0000 H   0  0  0  0  0  0  0  0  0  0  0  0
    4.1084    1.0985    0.0000 H   0  0  0  0  0  0  0  0  0  0  0  0
    7.3096    0.0852    0.0000 H   0  0  0  0  0  0  0  0  0  0  0  0
    7.0493    1.1672    0.0000 H   0  0  0  0  0  0  0  0  0  0  0  0
    6.6758    2.0592    0.0000 H   0  0  0  0  0  0  0  0  0  0  0  0
    5.5595    2.1506    0.0000 H   0  0  0  0  0  0  0  0  0  0  0  0
    4.6063    2.0739    0.0000 H   0  0  0  0  0  0  0  0  0  0  0  0
    4.1570    1.0597    0.0000 H   0  0  0  0  0  0  0  0  0  0  0  0
    5.4511   -1.8628    0.0000 H   0  0  0  0  0  0  0  0  0  0  0  0
    8.0033   -0.3351    0.0000 H   0  0  0  0  0  0  0  0  0  0  0  0
    7.7671   -2.3488    0.0000 H   0  0  0  0  0  0  0  0  0  0  0  0
    8.7067   -0.7513    0.0000 H   0  0  0  0  0  0  0  0  0  0  0  0
    8.6981   -1.8213    0.0000 H   0  0  0  0  0  0  0  0  0  0  0  0
    8.0011    0.4937    0.0000 H   0  0  0  0  0  0  0  0  0  0  0  0
    6.1479    0.4937    0.0000 H   0  0  0  0  0  0  0  0  0  0  0  0
    7.0745    1.0287    0.0000 H   0  0  0  0  0  0  0  0  0  0  0  0
    5.5187   -2.6339    0.0000 H   0  0  0  0  0  0  0  0  0  0  0  0
    8.5360   -3.6275    0.0000 H   0  0  0  0  0  0  0  0  0  0  0  0
    9.4360   -2.0074    0.0000 H   0  0  0  0  0  0  0  0  0  0  0  0
    9.4536   -3.0772    0.0000 H   0  0  0  0  0  0  0  0  0  0  0  0
    1.6205    2.4350    0.0000 H   0  0  0  0  0  0  0  0  0  0  0  0
    0.6938    4.0400    0.0000 H   0  0  0  0  0  0  0  0  0  0  0  0
    1.6204    3.5050    0.0000 H   0  0  0  0  0  0  0  0  0  0  0  0
   -0.7351    4.0400    0.0000 H   0  0  0  0  0  0  0  0  0  0  0  0
   -1.6617    2.4350    0.0000 H   0  0  0  0  0  0  0  0  0  0  0  0
   -1.6618    3.5050    0.0000 H   0  0  0  0  0  0  0  0  0  0  0  0
  1  2  2  0  0  0  0
  1  6  1  0  0  0  0
  1 66  1  0  0  0  0
  2  3  1  0  0  0  0
  2 67  1  0  0  0  0
  3  4  2  0  0  0  0
  3  7  1  0  0  0  0
  4  5  1  0  0  0  0
  4 68  1  0  0  0  0
  5  6  2  0  0  0  0
  5 69  1  0  0  0  0
  6  8  1  0  0  0  0
  7 10  1  0  0  0  0
  7 13  1  0  0  0  0
  8  9  1  0  0  0  0
  8 64  1  0  0  0  0
  8 65  1  0  0  0  0
  9 70  1  0  0  0  0
  9 71  1  0  0  0  0
  9 72  1  0  0  0  0
 10 11  1  0  0  0  0
 10 23  1  0  0  0  0
 10 73  1  6  0  0  0
 11 12  1  0  0  0  0
 11 74  1  0  0  0  0
 11 75  1  0  0  0  0
 12 13  1  0  0  0  0
 12 76  1  0  0  0  0
 12 77  1  0  0  0  0
 13 15  1  0  0  0  0
 13 78  1  1  0  0  0
 14 15  2  0  0  0  0
 14 19  1  0  0  0  0
 14 79  1  0  0  0  0
 15 16  1  0  0  0  0
 16 17  2  0  0  0  0
 16 80  1  0  0  0  0
 17 18  1  0  0  0  0
 17 81  1  0  0  0  0
 18 19  2  0  0  0  0
 19 82  1  0  0  0  0
 20 21  2  0  0  0  0
 20 25  1  0  0  0  0
 20 26  1  0  0  0  0
 21 22  1  0  0  0  0
 21 83  1  0  0  0  0
 22 23  2  0  0  0  0
 22 84  1  0  0  0  0
 23 24  1  0  0  0  0
 24 25  2  0  0  0  0
 24 85  1  0  0  0  0
 25 86  1  0  0  0  0
 26 27  1  0  0  0  0
 26 87  1  0  0  0  0
 27 29  2  0  0  0  0
 28 27  1  0  0  0  0
 28 88  1  6  0  0  0
 30 31  1  0  0  0  0
 30 28  1  0  0  0  0
 30 34  1  0  0  0  0
 31 32  1  0  0  0  0
 31 89  1  0  0  0  0
 31 90  1  0  0  0  0
 32 33  1  0  0  0  0
 32 91  1  0  0  0  0
 32 92  1  0  0  0  0
 33 28  1  0  0  0  0
 33 93  1  0  0  0  0
 33 94  1  0  0  0  0
 34 35  1  0  0  0  0
 34 36  2  0  0  0  0
 35 37  1  0  0  0  0
 35 40  1  0  0  0  0
 35 95  1  6  0  0  0
 37 38  1  0  0  0  0
 37 39  1  0  0  0  0
 37 96  1  0  0  0  0
 38 97  1  0  0  0  0
 38 98  1  0  0  0  0
 38 99  1  0  0  0  0
 39100  1  0  0  0  0
 39101  1  0  0  0  0
 39102  1  0  0  0  0
 40 41  1  0  0  0  0
 40103  1  0  0  0  0
 41 42  1  0  0  0  0
 41 44  2  0  0  0  0
 42 43  1  0  0  0  0
 43104  1  0  0  0  0
 43105  1  0  0  0  0
 43106  1  0  0  0  0
 45 46  1  0  0  0  0
 45 18  1  0  0  0  0
 45107  1  0  0  0  0
 46 48  2  0  0  0  0
 47 46  1  0  0  0  0
 47108  1  1  0  0  0
 49 50  1  0  0  0  0
 49 47  1  0  0  0  0
 49 53  1  0  0  0  0
 50 51  1  0  0  0  0
 50109  1  0  0  0  0
 50110  1  0  0  0  0
 51 52  1  0  0  0  0
 51111  1  0  0  0  0
 51112  1  0  0  0  0
 52 47  1  0  0  0  0
 52113  1  0  0  0  0
 52114  1  0  0  0  0
 53 54  1  0  0  0  0
 53 55  2  0  0  0  0
 54 56  1  0  0  0  0
 54 59  1  0  0  0  0
 54115  1  1  0  0  0
 56 57  1  0  0  0  0
 56 58  1  0  0  0  0
 56116  1  0  0  0  0
 57117  1  0  0  0  0
 57118  1  0  0  0  0
 57119  1  0  0  0  0
 58120  1  0  0  0  0
 58121  1  0  0  0  0
 58122  1  0  0  0  0
 59 60  1  0  0  0  0
 59123  1  0  0  0  0
 60 61  1  0  0  0  0
 60 63  2  0  0  0  0
 61 62  1  0  0  0  0
 62124  1  0  0  0  0
 62125  1  0  0  0  0
 62126  1  0  0  0  0
 64127  1  0  0  0  0
 64128  1  0  0  0  0
 64129  1  0  0  0  0
 65130  1  0  0  0  0
 65131  1  0  0  0  0
 65132  1  0  0  0  0
M  END
>  <DRUGBANK_ID>
DB09296

>  <COMMON_NAME>
Ombitasvir

>  <CAS_NUMBER>
1258226-87-7

>  <UNII>
2302768XJ8

>  <SYNONYMS>
dimethyl ([(2S,5S)-1-(4-tert-butylphenyl)pyrrolidine-2,5-diyl]bis{(4,1-phenylene)carbamoyl(2S)pyrrolidine-2,1-diyl[(2S)-3-methyl-1-oxobutane-1,2-diyl]})biscarbamate; Ombitasvir

$$$$
