
 OpenBabel10282417072D

 50 52  0  0  0  0  0  0  0  0999 V2000
    6.3235    6.0027    0.0000 C   0  0  0  0  0  0  0  0  0  0  0  0
    3.7676    1.0206    0.0000 C   0  0  0  0  0  0  0  0  0  0  0  0
    4.5926    1.0206    0.0000 C   0  0  0  0  0  0  0  0  0  0  0  0
    2.0367    6.0027    0.0000 C   0  0  0  0  0  0  0  0  0  0  0  0
    1.3222    5.5902    0.0000 C   0  0  0  0  0  0  0  0  0  0  0  0
    2.7512    5.5902    0.0000 C   0  0  0  0  0  0  0  0  0  0  0  0
    4.8946    6.0027    0.0000 C   0  0  0  0  0  0  0  0  0  0  0  0
    5.6091    4.7652    0.0000 C   0  0  0  0  0  0  0  0  0  0  0  0
    4.1801    5.5902    0.0000 C   0  0  0  0  0  0  0  0  0  0  0  0
    4.8946    4.3526    0.0000 C   0  0  0  0  0  0  0  0  0  0  0  0
    0.6078    4.3526    0.0000 C   0  0  0  0  0  0  0  0  0  0  0  0
   -0.1067    4.7652    0.0000 C   0  0  0  0  0  0  0  0  0  0  0  0
    3.4656    3.5277    0.0000 C   0  0  0  0  0  0  0  0  0  0  0  0
    3.5127    1.8053    0.0000 C   0  0  0  0  0  0  0  0  0  0  0  0
    4.8476    1.8053    0.0000 C   0  0  0  0  0  0  0  0  0  0  0  0
    4.1801    3.1152    0.0000 C   0  0  0  0  0  0  0  0  0  0  0  0
    5.6091    5.5902    0.0000 C   0  0  0  0  0  0  0  0  0  0  0  0
    4.1801    4.7652    0.0000 C   0  0  0  0  0  0  0  0  0  0  0  0
    1.3222    4.7652    0.0000 C   0  0  0  0  0  0  0  0  0  0  0  0
    3.4656    4.3526    0.0000 C   0  0  0  0  0  0  0  0  0  0  0  0
    2.7512    4.7652    0.0000 C   0  0  0  0  0  0  0  0  0  0  0  0
   -0.8212    4.3526    0.0000 C   0  0  0  0  0  0  0  0  0  0  0  0
    2.0367    4.3526    0.0000 N   0  0  0  0  0  0  0  0  0  0  0  0
    4.1801    2.2902    0.0000 N   0  0  0  0  0  0  0  0  0  0  0  0
   -0.8212    3.5277    0.0000 O   0  0  0  0  0  0  0  0  0  0  0  0
   -1.5356    4.7652    0.0000 O   0  0  0  0  0  0  0  0  0  0  0  0
    0.6078    3.5277    0.0000 H   0  0  0  0  0  0  0  0  0  0  0  0
   -0.1067    5.5902    0.0000 H   0  0  0  0  0  0  0  0  0  0  0  0
    2.7512    3.1152    0.0000 H   0  0  0  0  0  0  0  0  0  0  0  0
    7.2502    5.4677    0.0000 H   0  0  0  0  0  0  0  0  0  0  0  0
    6.3235    7.0727    0.0000 H   0  0  0  0  0  0  0  0  0  0  0  0
    7.2501    6.5377    0.0000 H   0  0  0  0  0  0  0  0  0  0  0  0
    3.1386    0.1550    0.0000 H   0  0  0  0  0  0  0  0  0  0  0  0
    2.7108    1.1880    0.0000 H   0  0  0  0  0  0  0  0  0  0  0  0
    5.2215    0.1549    0.0000 H   0  0  0  0  0  0  0  0  0  0  0  0
    5.6494    1.1880    0.0000 H   0  0  0  0  0  0  0  0  0  0  0  0
    2.0367    7.0347    0.0000 H   0  0  0  0  0  0  0  0  0  0  0  0
    0.4285    6.1062    0.0000 H   0  0  0  0  0  0  0  0  0  0  0  0
    3.6449    6.1062    0.0000 H   0  0  0  0  0  0  0  0  0  0  0  0
    4.8946    7.0347    0.0000 H   0  0  0  0  0  0  0  0  0  0  0  0
    6.5029    4.2492    0.0000 H   0  0  0  0  0  0  0  0  0  0  0  0
    3.2864    6.1062    0.0000 H   0  0  0  0  0  0  0  0  0  0  0  0
    4.8946    3.3206    0.0000 H   0  0  0  0  0  0  0  0  0  0  0  0
    2.4951    2.1360    0.0000 H   0  0  0  0  0  0  0  0  0  0  0  0
    3.3453    2.8621    0.0000 H   0  0  0  0  0  0  0  0  0  0  0  0
    5.8652    2.1360    0.0000 H   0  0  0  0  0  0  0  0  0  0  0  0
    5.0149    2.8621    0.0000 H   0  0  0  0  0  0  0  0  0  0  0  0
    5.1067    3.6502    0.0000 H   0  0  0  0  0  0  0  0  0  0  0  0
    5.1067    2.5802    0.0000 H   0  0  0  0  0  0  0  0  0  0  0  0
   -1.5355    5.7022    0.0000 H   0  0  0  0  0  0  0  0  0  0  0  0
  1 30  1  0  0  0  0
  1 31  1  0  0  0  0
  1 32  1  0  0  0  0
  2 33  1  0  0  0  0
  2 34  1  0  0  0  0
  3  2  1  0  0  0  0
  3 35  1  0  0  0  0
  3 36  1  0  0  0  0
  4 37  1  0  0  0  0
  5  4  2  0  0  0  0
  5 38  1  0  0  0  0
  6  4  1  0  0  0  0
  6 39  1  0  0  0  0
  7 40  1  0  0  0  0
  8 41  1  0  0  0  0
  9  7  1  0  0  0  0
  9 42  1  0  0  0  0
 10  8  2  0  0  0  0
 10 43  1  0  0  0  0
 12 11  2  0  0  0  0
 14  2  1  0  0  0  0
 14 44  1  0  0  0  0
 14 45  1  0  0  0  0
 15  3  1  0  0  0  0
 15 46  1  0  0  0  0
 15 47  1  0  0  0  0
 16 13  1  0  0  0  0
 16 48  1  0  0  0  0
 16 49  1  0  0  0  0
 17  1  1  0  0  0  0
 17  7  2  0  0  0  0
 17  8  1  0  0  0  0
 18  9  2  0  0  0  0
 18 10  1  0  0  0  0
 19  5  1  0  0  0  0
 19 11  1  0  0  0  0
 20 13  2  0  0  0  0
 20 18  1  0  0  0  0
 21  6  2  0  0  0  0
 21 20  1  0  0  0  0
 22 12  1  0  0  0  0
 23 19  2  0  0  0  0
 23 21  1  0  0  0  0
 24 14  1  0  0  0  0
 24 15  1  0  0  0  0
 24 16  1  0  0  0  0
 25 22  2  0  0  0  0
 26 22  1  0  0  0  0
 26 50  1  0  0  0  0
 27 11  1  0  0  0  0
 28 12  1  0  0  0  0
 29 13  1  0  0  0  0
M  END
>  <DRUGBANK_ID>
DB09488

>  <COMMON_NAME>
Acrivastine

>  <CAS_NUMBER>
87848-99-5

>  <UNII>
A20F9XAI7W

>  <SYNONYMS>
(2E)-3-{6-[(1E)-1-(4-methylphenyl)-3-(pyrrolidin-1-yl)prop-1-en-1-yl]pyridin-2-yl}acrylic acid; acrivastina; Acrivastine

$$$$
