
 OpenBabel10282417072D

 52 56  0  0  0  0  0  0  0  0999 V2000
    0.7292    3.9579    0.0000 C   0  0  0  0  0  0  0  0  0  0  0  0
    0.5577    3.1509    0.0000 O   0  0  0  0  0  0  0  0  0  0  0  0
   -0.2269    2.8960    0.0000 C   0  0  0  0  0  0  0  0  0  0  0  0
   -0.3984    2.0890    0.0000 C   0  0  0  0  0  0  0  0  0  0  0  0
    0.0865    1.4216    0.0000 N   0  0  0  0  0  0  0  0  0  0  0  0
   -0.3984    0.7541    0.0000 C   0  0  0  0  0  0  0  0  0  0  0  0
   -1.1831    1.0091    0.0000 C   0  0  0  0  0  0  0  0  0  0  0  0
   -1.1831    1.8341    0.0000 C   0  0  0  0  0  0  0  0  0  0  0  0
   -1.7962    2.3861    0.0000 C   0  0  0  0  0  0  0  0  0  0  0  0
   -1.6246    3.1931    0.0000 C   0  0  0  0  0  0  0  0  0  0  0  0
   -0.8400    3.4480    0.0000 C   0  0  0  0  0  0  0  0  0  0  0  0
   -0.1435   -0.0305    0.0000 C   0  0  0  0  0  0  0  0  0  0  0  0
   -0.6284   -0.6979    0.0000 N   0  0  0  0  0  0  0  0  0  0  0  0
   -0.1435   -1.3654    0.0000 C   0  0  0  0  0  0  0  0  0  0  0  0
    0.6411   -1.1104    0.0000 N   0  0  0  0  0  0  0  0  0  0  0  0
    0.6411   -0.2854    0.0000 C   0  0  0  0  0  0  0  0  0  0  0  0
    1.3556    0.1271    0.0000 C   0  0  0  0  0  0  0  0  0  0  0  0
    2.0701   -0.2854    0.0000 N   0  0  0  0  0  0  0  0  0  0  0  0
    2.0701   -1.1104    0.0000 C   0  0  0  0  0  0  0  0  0  0  0  0
    1.3556   -1.5229    0.0000 N   0  0  0  0  0  0  0  0  0  0  0  0
    1.3556    0.9521    0.0000 N   0  0  0  0  0  0  0  0  0  0  0  0
   -0.3984   -2.1500    0.0000 C   0  0  1  0  0  0  0  0  0  0  0  0
    0.1536   -2.7631    0.0000 C   0  0  0  0  0  0  0  0  0  0  0  0
   -0.1014   -3.5477    0.0000 C   0  0  0  0  0  0  0  0  0  0  0  0
   -0.9083   -3.7192    0.0000 C   0  0  1  0  0  0  0  0  0  0  0  0
   -1.4604   -3.1062    0.0000 C   0  0  0  0  0  0  0  0  0  0  0  0
   -1.2054   -2.3215    0.0000 C   0  0  0  0  0  0  0  0  0  0  0  0
   -1.1633   -4.5039    0.0000 C   0  0  0  0  0  0  0  0  0  0  0  0
   -0.6112   -5.1170    0.0000 O   0  0  0  0  0  0  0  0  0  0  0  0
   -1.9702   -4.6754    0.0000 O   0  0  0  0  0  0  0  0  0  0  0  0
    1.7468    4.2886    0.0000 H   0  0  0  0  0  0  0  0  0  0  0  0
   -0.0660    4.6738    0.0000 H   0  0  0  0  0  0  0  0  0  0  0  0
    0.9516    5.0045    0.0000 H   0  0  0  0  0  0  0  0  0  0  0  0
    1.0710    1.4216    0.0000 H   0  0  0  0  0  0  0  0  0  0  0  0
   -2.0180    0.4025    0.0000 H   0  0  0  0  0  0  0  0  0  0  0  0
   -2.7777    2.0672    0.0000 H   0  0  0  0  0  0  0  0  0  0  0  0
   -2.3915    3.8837    0.0000 H   0  0  0  0  0  0  0  0  0  0  0  0
   -0.6254    4.4574    0.0000 H   0  0  0  0  0  0  0  0  0  0  0  0
    2.9638   -1.6264    0.0000 H   0  0  0  0  0  0  0  0  0  0  0  0
    2.2082    1.4444    0.0000 H   0  0  0  0  0  0  0  0  0  0  0  0
    0.5030    1.4444    0.0000 H   0  0  0  0  0  0  0  0  0  0  0  0
    0.6482   -1.9275    0.0000 H   0  0  0  0  0  0  0  0  0  0  0  0
    1.2002   -2.5407    0.0000 H   0  0  0  0  0  0  0  0  0  0  0  0
    0.8695   -3.5583    0.0000 H   0  0  0  0  0  0  0  0  0  0  0  0
    0.6145   -4.3429    0.0000 H   0  0  0  0  0  0  0  0  0  0  0  0
   -0.4321   -4.5653    0.0000 H   0  0  0  0  0  0  0  0  0  0  0  0
   -0.1924   -4.5144    0.0000 H   0  0  0  0  0  0  0  0  0  0  0  0
   -2.5070   -3.3287    0.0000 H   0  0  0  0  0  0  0  0  0  0  0  0
   -2.1764   -2.3110    0.0000 H   0  0  0  0  0  0  0  0  0  0  0  0
   -1.9213   -1.5263    0.0000 H   0  0  0  0  0  0  0  0  0  0  0  0
   -0.8747   -1.3039    0.0000 H   0  0  0  0  0  0  0  0  0  0  0  0
   -2.5972   -3.9791    0.0000 H   0  0  0  0  0  0  0  0  0  0  0  0
  1  2  1  0  0  0  0
  1 31  1  0  0  0  0
  1 32  1  0  0  0  0
  1 33  1  0  0  0  0
  2  3  1  0  0  0  0
  3  4  2  0  0  0  0
  3 11  1  0  0  0  0
  4  5  1  0  0  0  0
  4  8  1  0  0  0  0
  5  6  1  0  0  0  0
  5 34  1  0  0  0  0
  6  7  2  0  0  0  0
  6 12  1  0  0  0  0
  7  8  1  0  0  0  0
  7 35  1  0  0  0  0
  8  9  2  0  0  0  0
  9 10  1  0  0  0  0
  9 36  1  0  0  0  0
 10 11  2  0  0  0  0
 10 37  1  0  0  0  0
 11 38  1  0  0  0  0
 12 13  1  0  0  0  0
 12 16  2  0  0  0  0
 13 14  2  0  0  0  0
 14 15  1  0  0  0  0
 15 16  1  0  0  0  0
 15 20  1  0  0  0  0
 16 17  1  0  0  0  0
 17 18  2  0  0  0  0
 17 21  1  0  0  0  0
 18 19  1  0  0  0  0
 19 20  2  0  0  0  0
 19 39  1  0  0  0  0
 21 40  1  0  0  0  0
 21 41  1  0  0  0  0
 22 14  1  0  0  0  0
 22 23  1  0  0  0  0
 22 27  1  0  0  0  0
 22 42  1  6  0  0  0
 23 24  1  0  0  0  0
 23 43  1  0  0  0  0
 23 44  1  0  0  0  0
 24 25  1  0  0  0  0
 24 45  1  0  0  0  0
 24 46  1  0  0  0  0
 25 26  1  0  0  0  0
 25 28  1  0  0  0  0
 25 47  1  1  0  0  0
 26 27  1  0  0  0  0
 26 48  1  0  0  0  0
 26 49  1  0  0  0  0
 27 50  1  0  0  0  0
 27 51  1  0  0  0  0
 28 29  2  0  0  0  0
 28 30  1  0  0  0  0
 30 52  1  0  0  0  0
M  END
>  <DRUGBANK_ID>
DB12387

>  <COMMON_NAME>
OSI-027

>  <CAS_NUMBER>
936890-98-1

>  <UNII>
25MKH1SZ0M

>  <SYNONYMS>
CYCLOHEXANECARBOXYLIC ACID, 4-(4-AMINO-5-(7-METHOXY-1H-INDOL-2-YL)IMIDAZO(5,1-F)(1,2,4)TRIAZIN-7-YL)-, TRANS-

$$$$
