
 OpenBabel10282417072D

 26 26  0  0  0  0  0  0  0  0999 V2000
   -0.7144    0.8250    0.0000 C   0  0  0  0  0  0  0  0  0  0  0  0
   -1.4289    0.4125    0.0000 C   0  0  0  0  0  0  0  0  0  0  0  0
   -1.4289   -0.4124    0.0000 C   0  0  0  0  0  0  0  0  0  0  0  0
   -0.7144   -0.8250    0.0000 C   0  0  0  0  0  0  0  0  0  0  0  0
    0.0000   -0.4124    0.0000 C   0  0  0  0  0  0  0  0  0  0  0  0
    0.0000    0.4125    0.0000 C   0  0  0  0  0  0  0  0  0  0  0  0
   -0.7144    1.6500    0.0000 O   0  0  0  0  0  0  0  0  0  0  0  0
   -0.7144   -1.6500    0.0000 O   0  0  0  0  0  0  0  0  0  0  0  0
    0.7144    0.8250    0.0000 C   0  0  0  0  0  0  0  0  0  0  0  0
    0.7144    1.6500    0.0000 C   0  0  0  0  0  0  0  0  0  0  0  0
    1.4289    0.4125    0.0000 C   0  0  0  0  0  0  0  0  0  0  0  0
    1.4289    1.2375    0.0000 C   0  0  0  0  0  0  0  0  0  0  0  0
   -2.3226    0.9285    0.0000 H   0  0  0  0  0  0  0  0  0  0  0  0
   -2.3227   -0.9284    0.0000 H   0  0  0  0  0  0  0  0  0  0  0  0
    0.8938   -0.9283    0.0000 H   0  0  0  0  0  0  0  0  0  0  0  0
    0.0971    2.1185    0.0000 H   0  0  0  0  0  0  0  0  0  0  0  0
   -1.5259   -2.1185    0.0000 H   0  0  0  0  0  0  0  0  0  0  0  0
    1.6410    2.1850    0.0000 H   0  0  0  0  0  0  0  0  0  0  0  0
   -0.2122    2.1850    0.0000 H   0  0  0  0  0  0  0  0  0  0  0  0
    0.7144    2.7200    0.0000 H   0  0  0  0  0  0  0  0  0  0  0  0
    1.4289   -0.6575    0.0000 H   0  0  0  0  0  0  0  0  0  0  0  0
    2.3555    0.9475    0.0000 H   0  0  0  0  0  0  0  0  0  0  0  0
    2.3556   -0.1225    0.0000 H   0  0  0  0  0  0  0  0  0  0  0  0
    2.3555    0.7025    0.0000 H   0  0  0  0  0  0  0  0  0  0  0  0
    1.4289    2.3075    0.0000 H   0  0  0  0  0  0  0  0  0  0  0  0
    2.3556    1.7725    0.0000 H   0  0  0  0  0  0  0  0  0  0  0  0
  1  2  1  0  0  0  0
  1  6  2  0  0  0  0
  1  7  1  0  0  0  0
  2  3  2  0  0  0  0
  2 13  1  0  0  0  0
  3  4  1  0  0  0  0
  3 14  1  0  0  0  0
  4  5  2  0  0  0  0
  4  8  1  0  0  0  0
  5  6  1  0  0  0  0
  5 15  1  0  0  0  0
  6  9  1  0  0  0  0
  7 16  1  0  0  0  0
  8 17  1  0  0  0  0
  9 10  1  0  0  0  0
  9 11  1  0  0  0  0
  9 12  1  0  0  0  0
 10 18  1  0  0  0  0
 10 19  1  0  0  0  0
 10 20  1  0  0  0  0
 11 21  1  0  0  0  0
 11 22  1  0  0  0  0
 11 23  1  0  0  0  0
 12 24  1  0  0  0  0
 12 25  1  0  0  0  0
 12 26  1  0  0  0  0
M  END
>  <DRUGBANK_ID>
DB07726

>  <COMMON_NAME>
t-Butylhydroquinone

>  <CAS_NUMBER>
1948-33-0

>  <UNII>
C12674942B

>  <SYNONYMS>
2-(1,1-Dimethylethyl)-1,4-benzenediol; 2-t-Butyl-1,4-benzenediol; 2-t-Butylhydroquinone; 2-tert-Butyl-1,4-benzenediol; 2-tert-Butyl(1,4)hydroquinone; 2-tert-butylhydroquinone; 2-Tertiary-butylhydroquinone; Mono-tert-butylhydroquinone; Mono-tertiarybutylhydroquinone; MTBHQ; t-Butyl hydroquinone; t-Butylhydroquinone; TBHQ; tert-Butyl-1,4-benzenediol; tert-Butylhydroquinone; tertiary-Butylhydroquinone

$$$$
