
 OpenBabel10282417072D

235240  0  0  1  0  0  0  0  0999 V2000
    4.1250    2.5006    0.0000 C   0  0  0  0  0  0  0  0  0  0  0  0
    4.5375    3.2151    0.0000 C   0  0  0  0  0  0  0  0  0  0  0  0
    5.3625    3.2151    0.0000 C   0  0  0  0  0  0  0  0  0  0  0  0
    5.7750    3.9296    0.0000 C   0  0  0  0  0  0  0  0  0  0  0  0
    6.6000    3.9296    0.0000 C   0  0  0  0  0  0  0  0  0  0  0  0
    7.0125    4.6441    0.0000 C   0  0  0  0  0  0  0  0  0  0  0  0
    7.8375    4.6441    0.0000 C   0  0  0  0  0  0  0  0  0  0  0  0
    8.2500    5.3586    0.0000 C   0  0  0  0  0  0  0  0  0  0  0  0
    9.0750    5.3586    0.0000 C   0  0  0  0  0  0  0  0  0  0  0  0
    9.4875    6.0731    0.0000 C   0  0  0  0  0  0  0  0  0  0  0  0
   10.3125    6.0731    0.0000 C   0  0  0  0  0  0  0  0  0  0  0  0
   10.7250    6.7875    0.0000 C   0  0  0  0  0  0  0  0  0  0  0  0
    3.3000    2.5006    0.0000 C   0  0  0  0  0  0  0  0  0  0  0  0
    2.8875    1.7862    0.0000 C   0  0  0  0  0  0  0  0  0  0  0  0
    2.0625    1.7862    0.0000 C   0  0  0  0  0  0  0  0  0  0  0  0
    1.6500    1.0717    0.0000 C   0  0  1  0  0  0  0  0  0  0  0  0
    2.0625    0.3572    0.0000 O   0  0  0  0  0  0  0  0  0  0  0  0
    0.8250    1.0717    0.0000 C   0  0  1  0  0  0  0  0  0  0  0  0
    0.4125    1.7862    0.0000 N   0  0  0  0  0  0  0  0  0  0  0  0
   -0.4124    1.7862    0.0000 C   0  0  0  0  0  0  0  0  0  0  0  0
   -0.8249    1.0717    0.0000 O   0  0  0  0  0  0  0  0  0  0  0  0
   -0.8249    2.5006    0.0000 C   0  0  0  0  0  0  0  0  0  0  0  0
   -1.6499    2.5006    0.0000 C   0  0  0  0  0  0  0  0  0  0  0  0
   -2.0624    3.2151    0.0000 C   0  0  0  0  0  0  0  0  0  0  0  0
   -2.8874    3.2151    0.0000 C   0  0  0  0  0  0  0  0  0  0  0  0
   -3.2999    3.9296    0.0000 C   0  0  0  0  0  0  0  0  0  0  0  0
   -4.1249    3.9296    0.0000 C   0  0  0  0  0  0  0  0  0  0  0  0
   -4.5374    4.6441    0.0000 C   0  0  0  0  0  0  0  0  0  0  0  0
   -5.3625    4.6441    0.0000 C   0  0  0  0  0  0  0  0  0  0  0  0
   -5.7749    5.3585    0.0000 C   0  0  0  0  0  0  0  0  0  0  0  0
   -6.5999    5.3585    0.0000 C   0  0  0  0  0  0  0  0  0  0  0  0
   -7.0125    6.0730    0.0000 C   0  0  0  0  0  0  0  0  0  0  0  0
   -7.8375    6.0730    0.0000 C   0  0  0  0  0  0  0  0  0  0  0  0
   -8.2499    6.7874    0.0000 C   0  0  0  0  0  0  0  0  0  0  0  0
   -9.0750    6.7874    0.0000 C   0  0  0  0  0  0  0  0  0  0  0  0
   -9.4875    7.5019    0.0000 C   0  0  0  0  0  0  0  0  0  0  0  0
  -10.3125    7.5019    0.0000 C   0  0  0  0  0  0  0  0  0  0  0  0
  -10.7249    8.2164    0.0000 C   0  0  0  0  0  0  0  0  0  0  0  0
    0.4125    0.3572    0.0000 C   0  0  0  0  0  0  0  0  0  0  0  0
   -0.4124    0.3572    0.0000 O   0  0  0  0  0  0  0  0  0  0  0  0
   -0.8249   -0.3571    0.0000 C   0  0  2  0  0  0  0  0  0  0  0  0
   -0.4124   -1.0716    0.0000 O   0  0  0  0  0  0  0  0  0  0  0  0
   -0.8249   -1.7861    0.0000 C   0  0  2  0  0  0  0  0  0  0  0  0
   -0.4124   -2.5005    0.0000 C   0  0  0  0  0  0  0  0  0  0  0  0
    0.4125   -2.5005    0.0000 O   0  0  0  0  0  0  0  0  0  0  0  0
   -1.6499   -1.7861    0.0000 C   0  0  1  0  0  0  0  0  0  0  0  0
   -2.0624   -2.5006    0.0000 O   0  0  0  0  0  0  0  0  0  0  0  0
   -2.8874   -2.5006    0.0000 C   0  0  2  0  0  0  0  0  0  0  0  0
   -3.2999   -1.7861    0.0000 O   0  0  0  0  0  0  0  0  0  0  0  0
   -4.1249   -1.7861    0.0000 C   0  0  2  0  0  0  0  0  0  0  0  0
   -4.5374   -1.0716    0.0000 C   0  0  0  0  0  0  0  0  0  0  0  0
   -4.1249   -0.3572    0.0000 O   0  0  0  0  0  0  0  0  0  0  0  0
   -4.5374   -2.5006    0.0000 C   0  0  2  0  0  0  0  0  0  0  0  0
   -5.3624   -2.5006    0.0000 O   0  0  0  0  0  0  0  0  0  0  0  0
   -5.6446   -1.7253    0.0000 C   0  0  2  0  0  0  0  0  0  0  0  0
   -5.1143   -1.0933    0.0000 O   0  0  0  0  0  0  0  0  0  0  0  0
   -5.3964   -0.3181    0.0000 C   0  0  2  0  0  0  0  0  0  0  0  0
   -4.8661    0.3138    0.0000 C   0  0  0  0  0  0  0  0  0  0  0  0
   -4.0537    0.1705    0.0000 O   0  0  0  0  0  0  0  0  0  0  0  0
   -6.2089   -0.1748    0.0000 C   0  0  2  0  0  0  0  0  0  0  0  0
   -6.4911    0.6003    0.0000 O   0  0  0  0  0  0  0  0  0  0  0  0
   -6.7392   -0.8068    0.0000 C   0  0  2  0  0  0  0  0  0  0  0  0
   -7.5517   -0.6635    0.0000 O   0  0  0  0  0  0  0  0  0  0  0  0
   -7.8339    0.1116    0.0000 C   0  0  2  0  0  0  0  0  0  0  0  0
   -7.3036    0.7436    0.0000 O   0  0  0  0  0  0  0  0  0  0  0  0
   -7.5857    1.5188    0.0000 C   0  0  2  0  0  0  0  0  0  0  0  0
   -7.0554    2.1508    0.0000 C   0  0  0  0  0  0  0  0  0  0  0  0
   -7.3376    2.9261    0.0000 O   0  0  0  0  0  0  0  0  0  0  0  0
   -8.3982    1.6621    0.0000 C   0  0  2  0  0  0  0  0  0  0  0  0
   -8.6804    2.4374    0.0000 O   0  0  0  0  0  0  0  0  0  0  0  0
   -8.9286    1.0301    0.0000 C   0  0  2  0  0  0  0  0  0  0  0  0
   -9.7411    1.1734    0.0000 O   0  0  0  0  0  0  0  0  0  0  0  0
   -8.6463    0.2548    0.0000 C   0  0  1  0  0  0  0  0  0  0  0  0
   -9.1768   -0.3770    0.0000 O   0  0  0  0  0  0  0  0  0  0  0  0
   -6.4570   -1.5821    0.0000 C   0  0  1  0  0  0  0  0  0  0  0  0
   -6.9873   -2.2141    0.0000 N   0  0  0  0  0  0  0  0  0  0  0  0
   -7.7998   -2.0708    0.0000 C   0  0  0  0  0  0  0  0  0  0  0  0
   -8.3301   -2.7028    0.0000 O   0  0  0  0  0  0  0  0  0  0  0  0
   -8.0820   -1.2955    0.0000 C   0  0  0  0  0  0  0  0  0  0  0  0
   -4.1249   -3.2150    0.0000 C   0  0  2  0  0  0  0  0  0  0  0  0
   -4.5374   -3.9295    0.0000 O   0  0  0  0  0  0  0  0  0  0  0  0
   -4.1249   -4.6440    0.0000 C   0  0  2  0  0  0  0  0  0  0  0  0
   -3.7124   -5.3584    0.0000 C   0  0  0  0  0  0  0  0  0  0  0  0
   -4.1249   -6.0729    0.0000 C   0  0  2  0  0  0  0  0  0  0  0  0
   -3.7124   -6.7874    0.0000 O   0  0  0  0  0  0  0  0  0  0  0  0
   -4.9499   -6.0729    0.0000 C   0  0  1  0  0  0  0  0  0  0  0  0
   -5.3624   -6.7874    0.0000 N   0  0  0  0  0  0  0  0  0  0  0  0
   -4.9499   -7.5019    0.0000 C   0  0  0  0  0  0  0  0  0  0  0  0
   -5.3624   -8.2164    0.0000 O   0  0  0  0  0  0  0  0  0  0  0  0
   -4.1249   -7.5019    0.0000 C   0  0  0  0  0  0  0  0  0  0  0  0
   -5.3624   -5.3584    0.0000 C   0  0  2  0  0  0  0  0  0  0  0  0
   -5.9944   -5.8887    0.0000 C   0  0  2  0  0  0  0  0  0  0  0  0
   -6.0694   -6.7449    0.0000 O   0  0  0  0  0  0  0  0  0  0  0  0
   -6.7697   -5.6066    0.0000 C   0  0  1  0  0  0  0  0  0  0  0  0
   -7.4016   -6.1369    0.0000 C   0  0  0  0  0  0  0  0  0  0  0  0
   -8.1769   -5.8547    0.0000 O   0  0  0  0  0  0  0  0  0  0  0  0
   -6.9129   -4.7941    0.0000 O   0  0  0  0  0  0  0  0  0  0  0  0
   -5.9944   -4.8281    0.0000 H   0  0  0  0  0  0  0  0  0  0  0  0
   -4.9499   -4.6440    0.0000 O   0  0  0  0  0  0  0  0  0  0  0  0
   -3.2999   -4.6440    0.0000 C   0  0  0  0  0  0  0  0  0  0  0  0
   -2.8874   -3.9295    0.0000 O   0  0  0  0  0  0  0  0  0  0  0  0
   -3.2999   -3.2150    0.0000 C   0  0  1  0  0  0  0  0  0  0  0  0
   -2.8874   -5.3584    0.0000 O   0  0  0  0  0  0  0  0  0  0  0  0
   -2.0624   -1.0716    0.0000 C   0  0  2  0  0  0  0  0  0  0  0  0
   -2.8874   -1.0716    0.0000 O   0  0  0  0  0  0  0  0  0  0  0  0
   -1.6499   -0.3572    0.0000 C   0  0  1  0  0  0  0  0  0  0  0  0
   -2.0624    0.3572    0.0000 O   0  0  0  0  0  0  0  0  0  0  0  0
    4.6600    1.5740    0.0000 H   0  0  0  0  0  0  0  0  0  0  0  0
    3.5900    1.5740    0.0000 H   0  0  0  0  0  0  0  0  0  0  0  0
    4.0025    4.1417    0.0000 H   0  0  0  0  0  0  0  0  0  0  0  0
    5.0725    4.1417    0.0000 H   0  0  0  0  0  0  0  0  0  0  0  0
    5.8975    2.2885    0.0000 H   0  0  0  0  0  0  0  0  0  0  0  0
    6.4325    3.2151    0.0000 H   0  0  0  0  0  0  0  0  0  0  0  0
    5.2400    4.8562    0.0000 H   0  0  0  0  0  0  0  0  0  0  0  0
    6.3100    4.8562    0.0000 H   0  0  0  0  0  0  0  0  0  0  0  0
    7.1350    3.0030    0.0000 H   0  0  0  0  0  0  0  0  0  0  0  0
    7.6700    3.9296    0.0000 H   0  0  0  0  0  0  0  0  0  0  0  0
    6.4775    5.5707    0.0000 H   0  0  0  0  0  0  0  0  0  0  0  0
    7.5475    5.5707    0.0000 H   0  0  0  0  0  0  0  0  0  0  0  0
    8.3725    3.7175    0.0000 H   0  0  0  0  0  0  0  0  0  0  0  0
    8.9075    4.6441    0.0000 H   0  0  0  0  0  0  0  0  0  0  0  0
    7.7150    6.2852    0.0000 H   0  0  0  0  0  0  0  0  0  0  0  0
    8.7850    6.2852    0.0000 H   0  0  0  0  0  0  0  0  0  0  0  0
    9.6100    4.4320    0.0000 H   0  0  0  0  0  0  0  0  0  0  0  0
   10.1450    5.3586    0.0000 H   0  0  0  0  0  0  0  0  0  0  0  0
    8.9525    6.9997    0.0000 H   0  0  0  0  0  0  0  0  0  0  0  0
   10.0225    6.9997    0.0000 H   0  0  0  0  0  0  0  0  0  0  0  0
   10.8475    5.1464    0.0000 H   0  0  0  0  0  0  0  0  0  0  0  0
   11.3825    6.0731    0.0000 H   0  0  0  0  0  0  0  0  0  0  0  0
   11.7950    6.7875    0.0000 H   0  0  0  0  0  0  0  0  0  0  0  0
   10.1900    7.7142    0.0000 H   0  0  0  0  0  0  0  0  0  0  0  0
   11.2600    7.7141    0.0000 H   0  0  0  0  0  0  0  0  0  0  0  0
    2.7650    3.4273    0.0000 H   0  0  0  0  0  0  0  0  0  0  0  0
    2.2300    2.5006    0.0000 H   0  0  0  0  0  0  0  0  0  0  0  0
    3.4035    0.8925    0.0000 H   0  0  0  0  0  0  0  0  0  0  0  0
    1.5465    2.6799    0.0000 H   0  0  0  0  0  0  0  0  0  0  0  0
    2.7200    1.0717    0.0000 H   0  0  0  0  0  0  0  0  0  0  0  0
    1.5775   -0.4828    0.0000 H   0  0  0  0  0  0  0  0  0  0  0  0
    1.3600    1.9983    0.0000 H   0  0  0  0  0  0  0  0  0  0  0  0
    0.9048    2.6388    0.0000 H   0  0  0  0  0  0  0  0  0  0  0  0
   -0.2899    3.4273    0.0000 H   0  0  0  0  0  0  0  0  0  0  0  0
   -1.3599    3.4272    0.0000 H   0  0  0  0  0  0  0  0  0  0  0  0
   -2.1849    1.5740    0.0000 H   0  0  0  0  0  0  0  0  0  0  0  0
   -2.7199    2.5006    0.0000 H   0  0  0  0  0  0  0  0  0  0  0  0
   -1.5274    4.1417    0.0000 H   0  0  0  0  0  0  0  0  0  0  0  0
   -2.5974    4.1417    0.0000 H   0  0  0  0  0  0  0  0  0  0  0  0
   -3.4224    2.2885    0.0000 H   0  0  0  0  0  0  0  0  0  0  0  0
   -3.9574    3.2151    0.0000 H   0  0  0  0  0  0  0  0  0  0  0  0
   -2.7649    4.8562    0.0000 H   0  0  0  0  0  0  0  0  0  0  0  0
   -3.8349    4.8562    0.0000 H   0  0  0  0  0  0  0  0  0  0  0  0
   -4.6599    3.0030    0.0000 H   0  0  0  0  0  0  0  0  0  0  0  0
   -5.1949    3.9296    0.0000 H   0  0  0  0  0  0  0  0  0  0  0  0
   -4.0024    5.5707    0.0000 H   0  0  0  0  0  0  0  0  0  0  0  0
   -5.0724    5.5707    0.0000 H   0  0  0  0  0  0  0  0  0  0  0  0
   -5.8975    3.7175    0.0000 H   0  0  0  0  0  0  0  0  0  0  0  0
   -6.4325    4.6441    0.0000 H   0  0  0  0  0  0  0  0  0  0  0  0
   -5.2399    6.2851    0.0000 H   0  0  0  0  0  0  0  0  0  0  0  0
   -6.3099    6.2852    0.0000 H   0  0  0  0  0  0  0  0  0  0  0  0
   -7.1349    4.4318    0.0000 H   0  0  0  0  0  0  0  0  0  0  0  0
   -7.6699    5.3584    0.0000 H   0  0  0  0  0  0  0  0  0  0  0  0
   -6.4775    6.9997    0.0000 H   0  0  0  0  0  0  0  0  0  0  0  0
   -7.5475    6.9996    0.0000 H   0  0  0  0  0  0  0  0  0  0  0  0
   -8.3725    5.1464    0.0000 H   0  0  0  0  0  0  0  0  0  0  0  0
   -8.9075    6.0730    0.0000 H   0  0  0  0  0  0  0  0  0  0  0  0
   -7.7149    7.7140    0.0000 H   0  0  0  0  0  0  0  0  0  0  0  0
   -8.7849    7.7141    0.0000 H   0  0  0  0  0  0  0  0  0  0  0  0
   -9.6100    5.8608    0.0000 H   0  0  0  0  0  0  0  0  0  0  0  0
  -10.1450    6.7874    0.0000 H   0  0  0  0  0  0  0  0  0  0  0  0
   -8.9525    8.4285    0.0000 H   0  0  0  0  0  0  0  0  0  0  0  0
  -10.0225    8.4285    0.0000 H   0  0  0  0  0  0  0  0  0  0  0  0
  -10.8476    6.5753    0.0000 H   0  0  0  0  0  0  0  0  0  0  0  0
  -11.3825    7.5020    0.0000 H   0  0  0  0  0  0  0  0  0  0  0  0
  -10.1898    9.1430    0.0000 H   0  0  0  0  0  0  0  0  0  0  0  0
  -11.7949    8.2165    0.0000 H   0  0  0  0  0  0  0  0  0  0  0  0
  -11.2598    9.1431    0.0000 H   0  0  0  0  0  0  0  0  0  0  0  0
    0.9475   -0.5694    0.0000 H   0  0  0  0  0  0  0  0  0  0  0  0
   -0.1225   -0.5694    0.0000 H   0  0  0  0  0  0  0  0  0  0  0  0
    0.2451   -0.3572    0.0000 H   0  0  0  0  0  0  0  0  0  0  0  0
    0.2451   -1.7861    0.0000 H   0  0  0  0  0  0  0  0  0  0  0  0
   -0.9474   -3.4272    0.0000 H   0  0  0  0  0  0  0  0  0  0  0  0
    0.1226   -3.4271    0.0000 H   0  0  0  0  0  0  0  0  0  0  0  0
    0.8975   -3.3405    0.0000 H   0  0  0  0  0  0  0  0  0  0  0  0
   -1.1149   -2.7127    0.0000 H   0  0  0  0  0  0  0  0  0  0  0  0
   -2.3524   -1.5740    0.0000 H   0  0  0  0  0  0  0  0  0  0  0  0
   -3.5899   -0.8595    0.0000 H   0  0  0  0  0  0  0  0  0  0  0  0
   -5.6074   -1.0716    0.0000 H   0  0  0  0  0  0  0  0  0  0  0  0
   -5.0724   -0.1449    0.0000 H   0  0  0  0  0  0  0  0  0  0  0  0
   -3.1549   -0.3572    0.0000 H   0  0  0  0  0  0  0  0  0  0  0  0
   -5.0724   -1.5740    0.0000 H   0  0  0  0  0  0  0  0  0  0  0  0
   -4.5909   -1.9111    0.0000 H   0  0  0  0  0  0  0  0  0  0  0  0
   -4.3427   -0.5040    0.0000 H   0  0  0  0  0  0  0  0  0  0  0  0
   -5.2320    1.3193    0.0000 H   0  0  0  0  0  0  0  0  0  0  0  0
   -4.1783    1.1334    0.0000 H   0  0  0  0  0  0  0  0  0  0  0  0
   -3.7220   -0.7410    0.0000 H   0  0  0  0  0  0  0  0  0  0  0  0
   -5.5211    0.6449    0.0000 H   0  0  0  0  0  0  0  0  0  0  0  0
   -5.8677    1.3434    0.0000 H   0  0  0  0  0  0  0  0  0  0  0  0
   -7.1051    0.1987    0.0000 H   0  0  0  0  0  0  0  0  0  0  0  0
   -6.7801   -0.0741    0.0000 H   0  0  0  0  0  0  0  0  0  0  0  0
   -6.5320    1.3330    0.0000 H   0  0  0  0  0  0  0  0  0  0  0  0
   -6.0017    1.9650    0.0000 H   0  0  0  0  0  0  0  0  0  0  0  0
   -6.3676    2.9705    0.0000 H   0  0  0  0  0  0  0  0  0  0  0  0
   -6.7141    3.6692    0.0000 H   0  0  0  0  0  0  0  0  0  0  0  0
   -7.7104    2.4818    0.0000 H   0  0  0  0  0  0  0  0  0  0  0  0
   -8.0569    3.1805    0.0000 H   0  0  0  0  0  0  0  0  0  0  0  0
   -9.2945    2.0356    0.0000 H   0  0  0  0  0  0  0  0  0  0  0  0
  -10.0728    2.0849    0.0000 H   0  0  0  0  0  0  0  0  0  0  0  0
   -9.7000    0.4407    0.0000 H   0  0  0  0  0  0  0  0  0  0  0  0
  -10.1320   -0.2082    0.0000 H   0  0  0  0  0  0  0  0  0  0  0  0
   -7.5107   -1.3963    0.0000 H   0  0  0  0  0  0  0  0  0  0  0  0
   -6.6506   -3.1392    0.0000 H   0  0  0  0  0  0  0  0  0  0  0  0
   -7.3942   -0.4758    0.0000 H   0  0  0  0  0  0  0  0  0  0  0  0
   -9.1357   -1.1097    0.0000 H   0  0  0  0  0  0  0  0  0  0  0  0
   -8.4480   -0.2900    0.0000 H   0  0  0  0  0  0  0  0  0  0  0  0
   -5.1949   -3.2150    0.0000 H   0  0  0  0  0  0  0  0  0  0  0  0
   -2.6424   -5.3584    0.0000 H   0  0  0  0  0  0  0  0  0  0  0  0
   -3.1774   -6.2850    0.0000 H   0  0  0  0  0  0  0  0  0  0  0  0
   -3.0549   -6.0729    0.0000 H   0  0  0  0  0  0  0  0  0  0  0  0
   -4.1974   -7.6274    0.0000 H   0  0  0  0  0  0  0  0  0  0  0  0
   -4.4149   -6.9995    0.0000 H   0  0  0  0  0  0  0  0  0  0  0  0
   -6.3469   -6.7874    0.0000 H   0  0  0  0  0  0  0  0  0  0  0  0
   -3.5899   -8.4285    0.0000 H   0  0  0  0  0  0  0  0  0  0  0  0
   -3.5899   -6.5753    0.0000 H   0  0  0  0  0  0  0  0  0  0  0  0
   -3.0549   -7.5019    0.0000 H   0  0  0  0  0  0  0  0  0  0  0  0
   -5.0453   -6.3828    0.0000 H   0  0  0  0  0  0  0  0  0  0  0  0
   -6.9486   -7.1547    0.0000 H   0  0  0  0  0  0  0  0  0  0  0  0
   -5.9500   -4.9188    0.0000 H   0  0  0  0  0  0  0  0  0  0  0  0
   -7.2158   -7.1906    0.0000 H   0  0  0  0  0  0  0  0  0  0  0  0
   -8.2213   -6.8247    0.0000 H   0  0  0  0  0  0  0  0  0  0  0  0
   -8.3453   -4.8994    0.0000 H   0  0  0  0  0  0  0  0  0  0  0  0
   -6.1698   -4.1707    0.0000 H   0  0  0  0  0  0  0  0  0  0  0  0
   -3.8349   -4.1416    0.0000 H   0  0  0  0  0  0  0  0  0  0  0  0
   -2.5974   -1.9982    0.0000 H   0  0  0  0  0  0  0  0  0  0  0  0
   -3.3724   -0.2316    0.0000 H   0  0  0  0  0  0  0  0  0  0  0  0
   -2.7199   -0.3572    0.0000 H   0  0  0  0  0  0  0  0  0  0  0  0
   -1.5774    1.1973    0.0000 H   0  0  0  0  0  0  0  0  0  0  0  0
  1  2  1  0  0  0  0
  1108  1  0  0  0  0
  1109  1  0  0  0  0
  2  3  1  0  0  0  0
  2110  1  0  0  0  0
  2111  1  0  0  0  0
  3  4  1  0  0  0  0
  3112  1  0  0  0  0
  3113  1  0  0  0  0
  4  5  1  0  0  0  0
  4114  1  0  0  0  0
  4115  1  0  0  0  0
  5  6  1  0  0  0  0
  5116  1  0  0  0  0
  5117  1  0  0  0  0
  6  7  1  0  0  0  0
  6118  1  0  0  0  0
  6119  1  0  0  0  0
  7  8  1  0  0  0  0
  7120  1  0  0  0  0
  7121  1  0  0  0  0
  8  9  1  0  0  0  0
  8122  1  0  0  0  0
  8123  1  0  0  0  0
  9 10  1  0  0  0  0
  9124  1  0  0  0  0
  9125  1  0  0  0  0
 10 11  1  0  0  0  0
 10126  1  0  0  0  0
 10127  1  0  0  0  0
 11 12  1  0  0  0  0
 11128  1  0  0  0  0
 11129  1  0  0  0  0
 12130  1  0  0  0  0
 12131  1  0  0  0  0
 12132  1  0  0  0  0
 13  1  1  0  0  0  0
 13133  1  0  0  0  0
 13134  1  0  0  0  0
 14 13  1  0  0  0  0
 14135  1  0  0  0  0
 15 14  2  0  0  0  0
 15136  1  0  0  0  0
 16 15  1  0  0  0  0
 16 17  1  0  0  0  0
 16137  1  6  0  0  0
 17138  1  0  0  0  0
 18 16  1  0  0  0  0
 18 19  1  0  0  0  0
 18139  1  1  0  0  0
 19 20  1  0  0  0  0
 19140  1  0  0  0  0
 20 21  2  0  0  0  0
 20 22  1  0  0  0  0
 22 23  1  0  0  0  0
 22141  1  0  0  0  0
 22142  1  0  0  0  0
 23 24  1  0  0  0  0
 23143  1  0  0  0  0
 23144  1  0  0  0  0
 24 25  1  0  0  0  0
 24145  1  0  0  0  0
 24146  1  0  0  0  0
 25 26  1  0  0  0  0
 25147  1  0  0  0  0
 25148  1  0  0  0  0
 26 27  1  0  0  0  0
 26149  1  0  0  0  0
 26150  1  0  0  0  0
 27 28  1  0  0  0  0
 27151  1  0  0  0  0
 27152  1  0  0  0  0
 28 29  1  0  0  0  0
 28153  1  0  0  0  0
 28154  1  0  0  0  0
 29 30  1  0  0  0  0
 29155  1  0  0  0  0
 29156  1  0  0  0  0
 30 31  1  0  0  0  0
 30157  1  0  0  0  0
 30158  1  0  0  0  0
 31 32  1  0  0  0  0
 31159  1  0  0  0  0
 31160  1  0  0  0  0
 32 33  1  0  0  0  0
 32161  1  0  0  0  0
 32162  1  0  0  0  0
 33 34  1  0  0  0  0
 33163  1  0  0  0  0
 33164  1  0  0  0  0
 34 35  1  0  0  0  0
 34165  1  0  0  0  0
 34166  1  0  0  0  0
 35 36  1  0  0  0  0
 35167  1  0  0  0  0
 35168  1  0  0  0  0
 36 37  1  0  0  0  0
 36169  1  0  0  0  0
 36170  1  0  0  0  0
 37 38  1  0  0  0  0
 37171  1  0  0  0  0
 37172  1  0  0  0  0
 38173  1  0  0  0  0
 38174  1  0  0  0  0
 38175  1  0  0  0  0
 39 18  1  0  0  0  0
 39176  1  0  0  0  0
 39177  1  0  0  0  0
 40 39  1  0  0  0  0
 41 40  1  0  0  0  0
 41 42  1  0  0  0  0
 41178  1  1  0  0  0
 42 43  1  0  0  0  0
 43 44  1  0  0  0  0
 43 46  1  0  0  0  0
 43179  1  1  0  0  0
 44 45  1  0  0  0  0
 44180  1  0  0  0  0
 44181  1  0  0  0  0
 45182  1  0  0  0  0
 46 47  1  0  0  0  0
 46183  1  6  0  0  0
 48 47  1  0  0  0  0
 48 49  1  0  0  0  0
 48184  1  6  0  0  0
 49 50  1  0  0  0  0
 50 51  1  0  0  0  0
 50 53  1  0  0  0  0
 50185  1  6  0  0  0
 51 52  1  0  0  0  0
 51186  1  0  0  0  0
 51187  1  0  0  0  0
 52188  1  0  0  0  0
 53 54  1  0  0  0  0
 53189  1  6  0  0  0
 55 54  1  0  0  0  0
 55 56  1  0  0  0  0
 55190  1  6  0  0  0
 56 57  1  0  0  0  0
 57 58  1  0  0  0  0
 57 60  1  0  0  0  0
 57191  1  6  0  0  0
 58 59  1  0  0  0  0
 58192  1  0  0  0  0
 58193  1  0  0  0  0
 59194  1  0  0  0  0
 60 61  1  0  0  0  0
 60195  1  6  0  0  0
 61196  1  0  0  0  0
 62 60  1  0  0  0  0
 62 63  1  0  0  0  0
 62 75  1  0  0  0  0
 62197  1  6  0  0  0
 64 63  1  0  0  0  0
 64 65  1  0  0  0  0
 64198  1  6  0  0  0
 65 66  1  0  0  0  0
 66 67  1  0  0  0  0
 66 69  1  0  0  0  0
 66199  1  6  0  0  0
 67 68  1  0  0  0  0
 67200  1  0  0  0  0
 67201  1  0  0  0  0
 68202  1  0  0  0  0
 69 70  1  0  0  0  0
 69203  1  6  0  0  0
 70204  1  0  0  0  0
 71 69  1  0  0  0  0
 71 72  1  0  0  0  0
 71 73  1  0  0  0  0
 71205  1  6  0  0  0
 72206  1  0  0  0  0
 73 64  1  0  0  0  0
 73 74  1  0  0  0  0
 73207  1  1  0  0  0
 74208  1  0  0  0  0
 75 55  1  0  0  0  0
 75 76  1  0  0  0  0
 75209  1  1  0  0  0
 76 77  1  0  0  0  0
 76210  1  0  0  0  0
 77 78  2  0  0  0  0
 77 79  1  0  0  0  0
 79211  1  0  0  0  0
 79212  1  0  0  0  0
 79213  1  0  0  0  0
 80 53  1  0  0  0  0
 80 81  1  0  0  0  0
 80102  1  0  0  0  0
 80214  1  6  0  0  0
 82 81  1  6  0  0  0
 82100  1  0  0  0  0
 83 82  1  0  0  0  0
 83215  1  0  0  0  0
 83216  1  0  0  0  0
 84 83  1  0  0  0  0
 84 85  1  0  0  0  0
 84217  1  1  0  0  0
 85218  1  0  0  0  0
 86 84  1  0  0  0  0
 86 87  1  0  0  0  0
 86219  1  6  0  0  0
 87 88  1  0  0  0  0
 87220  1  0  0  0  0
 88 89  2  0  0  0  0
 88 90  1  0  0  0  0
 90221  1  0  0  0  0
 90222  1  0  0  0  0
 90223  1  0  0  0  0
 91 86  1  0  0  0  0
 91 92  1  0  0  0  0
 91 98  1  1  0  0  0
 92 93  1  0  0  0  0
 92 94  1  0  0  0  0
 92224  1  1  0  0  0
 93225  1  0  0  0  0
 94 95  1  0  0  0  0
 94 97  1  0  0  0  0
 94226  1  6  0  0  0
 95 96  1  0  0  0  0
 95227  1  0  0  0  0
 95228  1  0  0  0  0
 96229  1  0  0  0  0
 97230  1  0  0  0  0
 99 91  1  0  0  0  0
 99 82  1  0  0  0  0
100101  1  0  0  0  0
100103  2  0  0  0  0
102101  1  0  0  0  0
102 48  1  0  0  0  0
102231  1  1  0  0  0
104 46  1  0  0  0  0
104105  1  0  0  0  0
104106  1  0  0  0  0
104232  1  1  0  0  0
105233  1  0  0  0  0
106 41  1  0  0  0  0
106107  1  0  0  0  0
106234  1  6  0  0  0
107235  1  0  0  0  0
M  END
>  <DRUGBANK_ID>
DB12351

>  <COMMON_NAME>
Siagoside

>  <CAS_NUMBER>
100345-64-0

>  <UNII>
6QFJ0908R2

>  <SYNONYMS>
Ganglioside GM1 lactone; Siagoside; Siagosido; Siagosidum

$$$$
