
 OpenBabel10282417072D

 39 41  0  0  0  0  0  0  0  0999 V2000
    1.4534   -0.4314    0.0000 C   0  0  0  0  0  0  0  0  0  0  0  0
    1.4534    0.3933    0.0000 C   0  0  1  0  0  0  0  0  0  0  0  0
    0.7388   -0.8437    0.0000 C   0  0  0  0  0  0  0  0  0  0  0  0
    2.1716   -0.8437    0.0000 C   0  0  0  0  0  0  0  0  0  0  0  0
    2.1682    0.8091    0.0000 C   0  0  0  0  0  0  0  0  0  0  0  0
    0.7421    0.8091    0.0000 O   0  0  0  0  0  0  0  0  0  0  0  0
    0.7388   -1.6684    0.0000 C   0  0  0  0  0  0  0  0  0  0  0  0
    0.0170   -0.4314    0.0000 Cl  0  0  0  0  0  0  0  0  0  0  0  0
    2.1716   -1.6684    0.0000 C   0  0  0  0  0  0  0  0  0  0  0  0
    2.1656    1.6343    0.0000 N   0  0  0  0  0  0  0  0  0  0  0  0
    0.0275    0.3933    0.0000 C   0  0  0  0  0  0  0  0  0  0  0  0
    1.4534   -2.0842    0.0000 C   0  0  0  0  0  0  0  0  0  0  0  0
    2.8316    2.1215    0.0000 C   0  0  0  0  0  0  0  0  0  0  0  0
    1.4963    2.1172    0.0000 C   0  0  0  0  0  0  0  0  0  0  0  0
   -0.6838    0.8091    0.0000 C   0  0  0  0  0  0  0  0  0  0  0  0
    1.4465   -2.9056    0.0000 Cl  0  0  0  0  0  0  0  0  0  0  0  0
    2.5741    2.9056    0.0000 C   0  0  0  0  0  0  0  0  0  0  0  0
    1.7487    2.9030    0.0000 N   0  0  0  0  0  0  0  0  0  0  0  0
   -1.3951    0.3933    0.0000 C   0  0  0  0  0  0  0  0  0  0  0  0
   -0.6838    1.6338    0.0000 C   0  0  0  0  0  0  0  0  0  0  0  0
   -2.1134    0.8091    0.0000 C   0  0  0  0  0  0  0  0  0  0  0  0
   -1.3951    2.0462    0.0000 C   0  0  0  0  0  0  0  0  0  0  0  0
   -2.1134    1.6338    0.0000 C   0  0  0  0  0  0  0  0  0  0  0  0
   -2.8316    2.0462    0.0000 Cl  0  0  0  0  0  0  0  0  0  0  0  0
    0.5253   -0.1392    0.0000 H   0  0  0  0  0  0  0  0  0  0  0  0
    3.0647   -0.3266    0.0000 H   0  0  0  0  0  0  0  0  0  0  0  0
    3.0966    0.2771    0.0000 H   0  0  0  0  0  0  0  0  0  0  0  0
    3.0931    1.3470    0.0000 H   0  0  0  0  0  0  0  0  0  0  0  0
   -0.1558   -2.1829    0.0000 H   0  0  0  0  0  0  0  0  0  0  0  0
    3.0656   -2.1839    0.0000 H   0  0  0  0  0  0  0  0  0  0  0  0
    0.0264   -0.6767    0.0000 H   0  0  0  0  0  0  0  0  0  0  0  0
   -0.9009   -0.1387    0.0000 H   0  0  0  0  0  0  0  0  0  0  0  0
    3.8141    1.8057    0.0000 H   0  0  0  0  0  0  0  0  0  0  0  0
    0.5159    1.7950    0.0000 H   0  0  0  0  0  0  0  0  0  0  0  0
    3.1781    3.7424    0.0000 H   0  0  0  0  0  0  0  0  0  0  0  0
   -1.3929   -0.6387    0.0000 H   0  0  0  0  0  0  0  0  0  0  0  0
    0.2104    2.1490    0.0000 H   0  0  0  0  0  0  0  0  0  0  0  0
   -3.0074    0.2936    0.0000 H   0  0  0  0  0  0  0  0  0  0  0  0
   -1.3929    3.0782    0.0000 H   0  0  0  0  0  0  0  0  0  0  0  0
  1  2  1  0  0  0  0
  1  3  2  0  0  0  0
  1  4  1  0  0  0  0
  2  5  1  0  0  0  0
  2  6  1  0  0  0  0
  2 25  1  1  0  0  0
  3  7  1  0  0  0  0
  3  8  1  0  0  0  0
  4  9  2  0  0  0  0
  4 26  1  0  0  0  0
  5 10  1  0  0  0  0
  5 27  1  0  0  0  0
  5 28  1  0  0  0  0
  6 11  1  0  0  0  0
  7 12  2  0  0  0  0
  7 29  1  0  0  0  0
  9 12  1  0  0  0  0
  9 30  1  0  0  0  0
 10 13  1  0  0  0  0
 10 14  1  0  0  0  0
 11 15  1  0  0  0  0
 11 31  1  0  0  0  0
 11 32  1  0  0  0  0
 12 16  1  0  0  0  0
 13 17  2  0  0  0  0
 13 33  1  0  0  0  0
 14 18  2  0  0  0  0
 14 34  1  0  0  0  0
 15 19  1  0  0  0  0
 15 20  2  0  0  0  0
 17 18  1  0  0  0  0
 17 35  1  0  0  0  0
 19 21  2  0  0  0  0
 19 36  1  0  0  0  0
 20 22  1  0  0  0  0
 20 37  1  0  0  0  0
 21 23  1  0  0  0  0
 21 38  1  0  0  0  0
 22 23  2  0  0  0  0
 22 39  1  0  0  0  0
 23 24  1  0  0  0  0
M  END
>  <DRUGBANK_ID>
DB07705

>  <COMMON_NAME>
(S)-econazole

>  <CAS_NUMBER>
73094-37-8

>  <UNII>
E3VE9L071S

>  <SYNONYMS>
(+)-Econazole

$$$$
