
 OpenBabel10282417072D

 57 61  0  0  0  0  0  0  0  0999 V2000
    1.7910    0.6135    0.0000 C   0  0  2  0  0  0  0  0  0  0  0  0
    2.5061    0.1942    0.0000 C   0  0  0  0  0  0  0  0  0  0  0  0
    1.7946    1.4421    0.0000 C   0  0  2  0  0  0  0  0  0  0  0  0
    1.0726    0.2011    0.0000 O   0  0  0  0  0  0  0  0  0  0  0  0
    3.2178    0.6100    0.0000 C   0  0  0  0  0  0  0  0  0  0  0  0
    2.4958   -0.6307    0.0000 C   0  0  0  0  0  0  0  0  0  0  0  0
    1.0794    1.8546    0.0000 O   0  0  0  0  0  0  0  0  0  0  0  0
    2.5061    1.8580    0.0000 C   0  0  0  0  0  0  0  0  0  0  0  0
    0.3576    0.6206    0.0000 C   0  0  0  0  0  0  0  0  0  0  0  0
    3.9327    0.1907    0.0000 C   0  0  0  0  0  0  0  0  0  0  0  0
    3.2108   -1.0432    0.0000 C   0  0  0  0  0  0  0  0  0  0  0  0
    0.3609    1.4456    0.0000 C   0  0  0  0  0  0  0  0  0  0  0  0
    3.2213    1.4456    0.0000 O   0  0  0  0  0  0  0  0  0  0  0  0
   -0.3540    0.2045    0.0000 C   0  0  0  0  0  0  0  0  0  0  0  0
    3.9293   -0.6377    0.0000 C   0  0  0  0  0  0  0  0  0  0  0  0
    4.6513    0.6033    0.0000 O   0  0  0  0  0  0  0  0  0  0  0  0
   -0.3540    1.8580    0.0000 C   0  0  0  0  0  0  0  0  0  0  0  0
   -1.0656    0.6206    0.0000 C   0  0  0  0  0  0  0  0  0  0  0  0
    4.6444   -1.0502    0.0000 O   0  0  0  0  0  0  0  0  0  0  0  0
    5.3594    0.1873    0.0000 C   0  0  0  0  0  0  0  0  0  0  0  0
   -1.0656    1.4456    0.0000 C   0  0  0  0  0  0  0  0  0  0  0  0
   -1.7842    0.2045    0.0000 C   0  0  1  0  0  0  0  0  0  0  0  0
   -2.4992    0.6206    0.0000 O   0  0  0  0  0  0  0  0  0  0  0  0
   -1.7806   -0.6205    0.0000 C   0  0  2  0  0  0  0  0  0  0  0  0
   -3.2142    0.2011    0.0000 C   0  0  0  0  0  0  0  0  0  0  0  0
   -2.4958   -1.0329    0.0000 C   0  0  0  0  0  0  0  0  0  0  0  0
   -1.0656   -1.0295    0.0000 O   0  0  0  0  0  0  0  0  0  0  0  0
   -3.2142   -0.6205    0.0000 C   0  0  0  0  0  0  0  0  0  0  0  0
   -3.9293    0.6170    0.0000 C   0  0  0  0  0  0  0  0  0  0  0  0
   -2.4958   -1.8580    0.0000 O   0  0  0  0  0  0  0  0  0  0  0  0
   -3.9258   -1.0295    0.0000 C   0  0  0  0  0  0  0  0  0  0  0  0
   -4.6409    0.2011    0.0000 C   0  0  0  0  0  0  0  0  0  0  0  0
   -4.6409   -0.6205    0.0000 C   0  0  0  0  0  0  0  0  0  0  0  0
   -3.9258   -1.8580    0.0000 O   0  0  0  0  0  0  0  0  0  0  0  0
   -5.3594    0.6170    0.0000 O   0  0  0  0  0  0  0  0  0  0  0  0
   -1.7842    1.0296    0.0000 H   0  0  0  0  0  0  0  0  0  0  0  0
    1.7910   -0.2114    0.0000 H   0  0  0  0  0  0  0  0  0  0  0  0
    2.7215    0.9076    0.0000 H   0  0  0  0  0  0  0  0  0  0  0  0
    3.2187    1.6420    0.0000 H   0  0  0  0  0  0  0  0  0  0  0  0
    1.5989   -1.1413    0.0000 H   0  0  0  0  0  0  0  0  0  0  0  0
    2.5029    2.9280    0.0000 H   0  0  0  0  0  0  0  0  0  0  0  0
    3.4318    2.3946    0.0000 H   0  0  0  0  0  0  0  0  0  0  0  0
    3.2059   -2.0752    0.0000 H   0  0  0  0  0  0  0  0  0  0  0  0
    3.2218    0.4756    0.0000 H   0  0  0  0  0  0  0  0  0  0  0  0
   -0.3540   -0.8275    0.0000 H   0  0  0  0  0  0  0  0  0  0  0  0
   -0.3550    2.8900    0.0000 H   0  0  0  0  0  0  0  0  0  0  0  0
    4.6448   -1.9872    0.0000 H   0  0  0  0  0  0  0  0  0  0  0  0
    5.3513   -0.8827    0.0000 H   0  0  0  0  0  0  0  0  0  0  0  0
    6.2901    0.7153    0.0000 H   0  0  0  0  0  0  0  0  0  0  0  0
    6.2820   -0.3547    0.0000 H   0  0  0  0  0  0  0  0  0  0  0  0
   -1.9598    1.9609    0.0000 H   0  0  0  0  0  0  0  0  0  0  0  0
   -0.8562   -0.0816    0.0000 H   0  0  0  0  0  0  0  0  0  0  0  0
   -1.0617   -1.9995    0.0000 H   0  0  0  0  0  0  0  0  0  0  0  0
   -3.9304    1.6490    0.0000 H   0  0  0  0  0  0  0  0  0  0  0  0
   -5.5336   -1.1383    0.0000 H   0  0  0  0  0  0  0  0  0  0  0  0
   -4.7373   -2.3265    0.0000 H   0  0  0  0  0  0  0  0  0  0  0  0
   -5.3584    1.5540    0.0000 H   0  0  0  0  0  0  0  0  0  0  0  0
  1  2  1  0  0  0  0
  1  3  1  0  0  0  0
  1  4  1  0  0  0  0
  1 37  1  6  0  0  0
  2  5  2  0  0  0  0
  2  6  1  0  0  0  0
  3  7  1  0  0  0  0
  3  8  1  0  0  0  0
  3 38  1  1  0  0  0
  4  9  1  0  0  0  0
  5 10  1  0  0  0  0
  5 39  1  0  0  0  0
  6 11  2  0  0  0  0
  6 40  1  0  0  0  0
  7 12  1  0  0  0  0
  8 13  1  0  0  0  0
  8 41  1  0  0  0  0
  8 42  1  0  0  0  0
  9 14  1  0  0  0  0
  9 12  2  0  0  0  0
 10 15  2  0  0  0  0
 10 16  1  0  0  0  0
 11 15  1  0  0  0  0
 11 43  1  0  0  0  0
 12 17  1  0  0  0  0
 13 44  1  0  0  0  0
 14 18  2  0  0  0  0
 14 45  1  0  0  0  0
 15 19  1  0  0  0  0
 16 20  1  0  0  0  0
 17 21  2  0  0  0  0
 17 46  1  0  0  0  0
 18 22  1  0  0  0  0
 18 21  1  0  0  0  0
 19 47  1  0  0  0  0
 20 48  1  0  0  0  0
 20 49  1  0  0  0  0
 20 50  1  0  0  0  0
 21 51  1  0  0  0  0
 22 23  1  0  0  0  0
 22 24  1  0  0  0  0
 22 36  1  1  0  0  0
 23 25  1  0  0  0  0
 24 26  1  0  0  0  0
 24 27  1  0  0  0  0
 24 52  1  6  0  0  0
 25 28  2  0  0  0  0
 25 29  1  0  0  0  0
 26 30  2  0  0  0  0
 26 28  1  0  0  0  0
 27 53  1  0  0  0  0
 28 31  1  0  0  0  0
 29 32  2  0  0  0  0
 29 54  1  0  0  0  0
 31 33  2  0  0  0  0
 31 34  1  0  0  0  0
 32 35  1  0  0  0  0
 32 33  1  0  0  0  0
 33 55  1  0  0  0  0
 34 56  1  0  0  0  0
 35 57  1  0  0  0  0
M  END
>  <DRUGBANK_ID>
DB09298

>  <COMMON_NAME>
Silibinin

>  <CAS_NUMBER>
22888-70-6

>  <UNII>
33X338MNE4

>  <SYNONYMS>
Silibinin; Silibinin A; Silibinina; Silibinine; Silibininum; Silybin A; Silybin A (constituent of milk thistle); Silymarin I

$$$$
