
 OpenBabel10282417072D

 85 68  0  0  0  0  0  0  0  0999 V2000
   -5.7057    0.0576    0.0000 Fe  0  1  0  0  0  0  0  0  0  0  0  0
   -1.7493   -0.2071    0.0000 O   0  5  0  0  0  0  0  0  0  0  0  0
   -1.0310    0.2071    0.0000 C   0  0  0  0  0  0  0  0  0  0  0  0
   -0.3177   -0.2071    0.0000 C   0  0  0  0  0  0  0  0  0  0  0  0
    0.3957    0.2071    0.0000 C   0  0  0  0  0  0  0  0  0  0  0  0
    1.1138   -0.2071    0.0000 C   0  0  0  0  0  0  0  0  0  0  0  0
    1.8320    0.2071    0.0000 C   0  0  0  0  0  0  0  0  0  0  0  0
    2.5453   -0.2071    0.0000 O   0  5  0  0  0  0  0  0  0  0  0  0
    1.8320    1.0311    0.0000 O   0  0  0  0  0  0  0  0  0  0  0  0
    0.3957    1.0311    0.0000 O   0  5  0  0  0  0  0  0  0  0  0  0
    0.3957   -0.6122    0.0000 C   0  0  0  0  0  0  0  0  0  0  0  0
   -0.3269   -1.0264    0.0000 O   0  0  0  0  0  0  0  0  0  0  0  0
    1.1092   -1.0311    0.0000 O   0  5  0  0  0  0  0  0  0  0  0  0
   -1.0310    1.0311    0.0000 O   0  0  0  0  0  0  0  0  0  0  0  0
    5.7057    0.4142    0.0000 O   0  0  0  0  0  0  0  0  0  0  0  0
    5.7057    0.4142    0.0000 O   0  0  0  0  0  0  0  0  0  0  0  0
    5.7057    0.4142    0.0000 O   0  0  0  0  0  0  0  0  0  0  0  0
    5.7057    0.4142    0.0000 O   0  0  0  0  0  0  0  0  0  0  0  0
    5.7057    0.4142    0.0000 O   0  0  0  0  0  0  0  0  0  0  0  0
    5.7057    0.4142    0.0000 O   0  0  0  0  0  0  0  0  0  0  0  0
    5.7057    0.4142    0.0000 O   0  0  0  0  0  0  0  0  0  0  0  0
    5.7057    0.4142    0.0000 O   0  0  0  0  0  0  0  0  0  0  0  0
    5.7057    0.4142    0.0000 O   0  0  0  0  0  0  0  0  0  0  0  0
    5.7057    0.4142    0.0000 O   0  0  0  0  0  0  0  0  0  0  0  0
   -5.7057    0.0576    0.0000 Fe  0  1  0  0  0  0  0  0  0  0  0  0
   -5.7057    0.0576    0.0000 Fe  0  1  0  0  0  0  0  0  0  0  0  0
   -5.7057    0.0576    0.0000 Fe  0  1  0  0  0  0  0  0  0  0  0  0
   -1.7493   -0.2071    0.0000 O   0  5  0  0  0  0  0  0  0  0  0  0
   -1.0310    0.2071    0.0000 C   0  0  0  0  0  0  0  0  0  0  0  0
   -0.3177   -0.2071    0.0000 C   0  0  0  0  0  0  0  0  0  0  0  0
    0.3957    0.2071    0.0000 C   0  0  0  0  0  0  0  0  0  0  0  0
    1.1138   -0.2071    0.0000 C   0  0  0  0  0  0  0  0  0  0  0  0
    1.8320    0.2071    0.0000 C   0  0  0  0  0  0  0  0  0  0  0  0
    2.5453   -0.2071    0.0000 O   0  5  0  0  0  0  0  0  0  0  0  0
    1.8320    1.0311    0.0000 O   0  0  0  0  0  0  0  0  0  0  0  0
    0.3957    1.0311    0.0000 O   0  5  0  0  0  0  0  0  0  0  0  0
    0.3957   -0.6122    0.0000 C   0  0  0  0  0  0  0  0  0  0  0  0
   -0.3269   -1.0264    0.0000 O   0  0  0  0  0  0  0  0  0  0  0  0
    1.1092   -1.0311    0.0000 O   0  5  0  0  0  0  0  0  0  0  0  0
   -1.0310    1.0311    0.0000 O   0  0  0  0  0  0  0  0  0  0  0  0
   -1.7493   -0.2071    0.0000 O   0  5  0  0  0  0  0  0  0  0  0  0
   -1.0310    0.2071    0.0000 C   0  0  0  0  0  0  0  0  0  0  0  0
   -0.3177   -0.2071    0.0000 C   0  0  0  0  0  0  0  0  0  0  0  0
    0.3957    0.2071    0.0000 C   0  0  0  0  0  0  0  0  0  0  0  0
    1.1138   -0.2071    0.0000 C   0  0  0  0  0  0  0  0  0  0  0  0
    1.8320    0.2071    0.0000 C   0  0  0  0  0  0  0  0  0  0  0  0
    2.5453   -0.2071    0.0000 O   0  5  0  0  0  0  0  0  0  0  0  0
    1.8320    1.0311    0.0000 O   0  0  0  0  0  0  0  0  0  0  0  0
    0.3957    1.0311    0.0000 O   0  5  0  0  0  0  0  0  0  0  0  0
    0.3957   -0.6122    0.0000 C   0  0  0  0  0  0  0  0  0  0  0  0
   -0.3269   -1.0264    0.0000 O   0  0  0  0  0  0  0  0  0  0  0  0
    1.1092   -1.0311    0.0000 O   0  5  0  0  0  0  0  0  0  0  0  0
   -1.0310    1.0311    0.0000 O   0  0  0  0  0  0  0  0  0  0  0  0
   -0.3177   -1.2771    0.0000 H   0  0  0  0  0  0  0  0  0  0  0  0
    0.6096   -0.7410    0.0000 H   0  0  0  0  0  0  0  0  0  0  0  0
    1.1138   -1.2771    0.0000 H   0  0  0  0  0  0  0  0  0  0  0  0
    2.0403   -0.7423    0.0000 H   0  0  0  0  0  0  0  0  0  0  0  0
    6.6757    0.4142    0.0000 H   0  0  0  0  0  0  0  0  0  0  0  0
    5.2207    1.2542    0.0000 H   0  0  0  0  0  0  0  0  0  0  0  0
    6.6757    0.4142    0.0000 H   0  0  0  0  0  0  0  0  0  0  0  0
    5.2207    1.2542    0.0000 H   0  0  0  0  0  0  0  0  0  0  0  0
    6.6757    0.4142    0.0000 H   0  0  0  0  0  0  0  0  0  0  0  0
    5.2207    1.2542    0.0000 H   0  0  0  0  0  0  0  0  0  0  0  0
    6.6757    0.4142    0.0000 H   0  0  0  0  0  0  0  0  0  0  0  0
    5.2207    1.2542    0.0000 H   0  0  0  0  0  0  0  0  0  0  0  0
    6.6757    0.4142    0.0000 H   0  0  0  0  0  0  0  0  0  0  0  0
    5.2207    1.2542    0.0000 H   0  0  0  0  0  0  0  0  0  0  0  0
    6.6757    0.4142    0.0000 H   0  0  0  0  0  0  0  0  0  0  0  0
    5.2207    1.2542    0.0000 H   0  0  0  0  0  0  0  0  0  0  0  0
    6.6757    0.4142    0.0000 H   0  0  0  0  0  0  0  0  0  0  0  0
    5.2207    1.2542    0.0000 H   0  0  0  0  0  0  0  0  0  0  0  0
    6.6757    0.4142    0.0000 H   0  0  0  0  0  0  0  0  0  0  0  0
    5.2207    1.2542    0.0000 H   0  0  0  0  0  0  0  0  0  0  0  0
    6.6757    0.4142    0.0000 H   0  0  0  0  0  0  0  0  0  0  0  0
    5.2207    1.2542    0.0000 H   0  0  0  0  0  0  0  0  0  0  0  0
    6.6757    0.4142    0.0000 H   0  0  0  0  0  0  0  0  0  0  0  0
    5.2207    1.2542    0.0000 H   0  0  0  0  0  0  0  0  0  0  0  0
   -0.3177   -1.2771    0.0000 H   0  0  0  0  0  0  0  0  0  0  0  0
    0.6096   -0.7410    0.0000 H   0  0  0  0  0  0  0  0  0  0  0  0
    1.1138   -1.2771    0.0000 H   0  0  0  0  0  0  0  0  0  0  0  0
    2.0403   -0.7423    0.0000 H   0  0  0  0  0  0  0  0  0  0  0  0
   -0.3177   -1.2771    0.0000 H   0  0  0  0  0  0  0  0  0  0  0  0
    0.6096   -0.7410    0.0000 H   0  0  0  0  0  0  0  0  0  0  0  0
    1.1138   -1.2771    0.0000 H   0  0  0  0  0  0  0  0  0  0  0  0
    2.0403   -0.7423    0.0000 H   0  0  0  0  0  0  0  0  0  0  0  0
  2  3  1  0  0  0  0
  3 14  2  0  0  0  0
  3  4  1  0  0  0  0
  4  5  1  0  0  0  0
  4 54  1  0  0  0  0
  4 55  1  0  0  0  0
  5  6  1  0  0  0  0
  5 10  1  0  0  0  0
  5 11  1  0  0  0  0
  6  7  1  0  0  0  0
  6 56  1  0  0  0  0
  6 57  1  0  0  0  0
  7  8  1  0  0  0  0
  7  9  2  0  0  0  0
 11 12  2  0  0  0  0
 11 13  1  0  0  0  0
 15 58  1  0  0  0  0
 15 59  1  0  0  0  0
 16 60  1  0  0  0  0
 16 61  1  0  0  0  0
 17 62  1  0  0  0  0
 17 63  1  0  0  0  0
 18 64  1  0  0  0  0
 18 65  1  0  0  0  0
 19 66  1  0  0  0  0
 19 67  1  0  0  0  0
 20 68  1  0  0  0  0
 20 69  1  0  0  0  0
 21 70  1  0  0  0  0
 21 71  1  0  0  0  0
 22 72  1  0  0  0  0
 22 73  1  0  0  0  0
 23 74  1  0  0  0  0
 23 75  1  0  0  0  0
 24 76  1  0  0  0  0
 24 77  1  0  0  0  0
 28 29  1  0  0  0  0
 29 40  2  0  0  0  0
 29 30  1  0  0  0  0
 30 31  1  0  0  0  0
 30 78  1  0  0  0  0
 30 79  1  0  0  0  0
 31 32  1  0  0  0  0
 31 36  1  0  0  0  0
 31 37  1  0  0  0  0
 32 33  1  0  0  0  0
 32 80  1  0  0  0  0
 32 81  1  0  0  0  0
 33 34  1  0  0  0  0
 33 35  2  0  0  0  0
 37 38  2  0  0  0  0
 37 39  1  0  0  0  0
 41 42  1  0  0  0  0
 42 53  2  0  0  0  0
 42 43  1  0  0  0  0
 43 44  1  0  0  0  0
 43 82  1  0  0  0  0
 43 83  1  0  0  0  0
 44 45  1  0  0  0  0
 44 49  1  0  0  0  0
 44 50  1  0  0  0  0
 45 46  1  0  0  0  0
 45 84  1  0  0  0  0
 45 85  1  0  0  0  0
 46 47  1  0  0  0  0
 46 48  2  0  0  0  0
 50 51  2  0  0  0  0
 50 52  1  0  0  0  0
M  CHG  8   1   3   2  -1   8  -1  10  -1  13  -1  25   3  26   3  27   3
M  CHG  8  28  -1  34  -1  36  -1  39  -1  41  -1  47  -1  49  -1  52  -1
M  END
>  <DRUGBANK_ID>
DB14520

>  <SECONDARY_ACCESSION_NUMBERS>
DBSALT002619

>  <COMMON_NAME>
Tetraferric tricitrate decahydrate

>  <UNII>
Q91187K011

>  <SYNONYMS>
Ferric citrate; Ferric citrate hydrate

$$$$
