
 OpenBabel10282417072D

 58 61  0  0  0  0  0  0  0  0999 V2000
    4.5700   -2.3952    0.0000 C   0  0  0  0  0  0  0  0  0  0  0  0
    4.5720   -1.7351    0.0000 O   0  0  0  0  0  0  0  0  0  0  0  0
    3.8586   -1.3198    0.0000 C   0  0  0  0  0  0  0  0  0  0  0  0
    3.8599   -0.4948    0.0000 C   0  0  0  0  0  0  0  0  0  0  0  0
    3.1461   -0.0811    0.0000 C   0  0  0  0  0  0  0  0  0  0  0  0
    2.4309   -0.4925    0.0000 C   0  0  0  0  0  0  0  0  0  0  0  0
    2.4297   -1.3176    0.0000 C   0  0  0  0  0  0  0  0  0  0  0  0
    3.1435   -1.7312    0.0000 N   0  0  0  0  0  0  0  0  0  0  0  0
    1.7161   -0.0797    0.0000 C   0  0  0  0  0  0  0  0  0  0  0  0
    1.7161    0.7451    0.0000 C   0  0  0  0  0  0  0  0  0  0  0  0
    1.0016    1.1577    0.0000 C   0  0  0  0  0  0  0  0  0  0  0  0
    1.0016    1.9826    0.0000 C   0  0  0  0  0  0  0  0  0  0  0  0
    1.5732    2.3126    0.0000 C   0  0  0  0  0  0  0  0  0  0  0  0
    0.2871    2.3952    0.0000 N   0  0  0  0  0  0  0  0  0  0  0  0
   -0.4272    1.9826    0.0000 C   0  0  0  0  0  0  0  0  0  0  0  0
   -0.9988    2.3126    0.0000 N   0  0  0  0  0  0  0  0  0  0  0  0
   -0.4272    1.1577    0.0000 N   0  0  0  0  0  0  0  0  0  0  0  0
    0.2872    0.7451    0.0000 C   0  0  0  0  0  0  0  0  0  0  0  0
    0.2872   -0.0797    0.0000 N   0  0  0  0  0  0  0  0  0  0  0  0
   -0.4275   -0.4925    0.0000 C   0  0  2  0  0  0  0  0  0  0  0  0
   -1.1429   -0.0811    0.0000 C   0  0  0  0  0  0  0  0  0  0  0  0
   -1.8566   -0.4948    0.0000 C   0  0  0  0  0  0  0  0  0  0  0  0
   -1.8553   -1.3199    0.0000 C   0  0  2  0  0  0  0  0  0  0  0  0
   -1.1402   -1.7312    0.0000 C   0  0  0  0  0  0  0  0  0  0  0  0
   -0.4263   -1.3176    0.0000 C   0  0  0  0  0  0  0  0  0  0  0  0
   -2.5704   -1.7322    0.0000 O   0  0  0  0  0  0  0  0  0  0  0  0
   -3.2853   -1.3196    0.0000 C   0  0  0  0  0  0  0  0  0  0  0  0
   -4.0004   -1.7320    0.0000 C   0  0  0  0  0  0  0  0  0  0  0  0
   -4.5720   -1.4021    0.0000 O   0  0  0  0  0  0  0  0  0  0  0  0
    1.0016   -0.4923    0.0000 C   0  0  0  0  0  0  0  0  0  0  0  0
    1.0016   -1.1523    0.0000 O   0  0  0  0  0  0  0  0  0  0  0  0
    3.6417   -2.9274    0.0000 H   0  0  0  0  0  0  0  0  0  0  0  0
    5.4950   -2.9330    0.0000 H   0  0  0  0  0  0  0  0  0  0  0  0
    4.5668   -3.4652    0.0000 H   0  0  0  0  0  0  0  0  0  0  0  0
    4.7545    0.0198    0.0000 H   0  0  0  0  0  0  0  0  0  0  0  0
    3.1478    0.9509    0.0000 H   0  0  0  0  0  0  0  0  0  0  0  0
    1.5352   -1.8323    0.0000 H   0  0  0  0  0  0  0  0  0  0  0  0
    2.6099    1.2611    0.0000 H   0  0  0  0  0  0  0  0  0  0  0  0
    2.4998    1.7776    0.0000 H   0  0  0  0  0  0  0  0  0  0  0  0
    1.5732    3.3826    0.0000 H   0  0  0  0  0  0  0  0  0  0  0  0
    2.4999    2.8476    0.0000 H   0  0  0  0  0  0  0  0  0  0  0  0
   -0.9988    3.2971    0.0000 H   0  0  0  0  0  0  0  0  0  0  0  0
   -1.8514    1.8203    0.0000 H   0  0  0  0  0  0  0  0  0  0  0  0
   -0.4285    0.5775    0.0000 H   0  0  0  0  0  0  0  0  0  0  0  0
   -1.1447    0.9889    0.0000 H   0  0  0  0  0  0  0  0  0  0  0  0
   -2.0705    0.4523    0.0000 H   0  0  0  0  0  0  0  0  0  0  0  0
   -2.7841    0.0387    0.0000 H   0  0  0  0  0  0  0  0  0  0  0  0
   -2.7824   -1.0313    0.0000 H   0  0  0  0  0  0  0  0  0  0  0  0
   -2.7822   -0.7854    0.0000 H   0  0  0  0  0  0  0  0  0  0  0  0
   -1.1385   -2.8012    0.0000 H   0  0  0  0  0  0  0  0  0  0  0  0
   -0.2127   -2.2648    0.0000 H   0  0  0  0  0  0  0  0  0  0  0  0
    0.5011   -1.8512    0.0000 H   0  0  0  0  0  0  0  0  0  0  0  0
    0.4996   -0.7812    0.0000 H   0  0  0  0  0  0  0  0  0  0  0  0
   -3.2851   -0.2496    0.0000 H   0  0  0  0  0  0  0  0  0  0  0  0
   -4.2118   -0.7843    0.0000 H   0  0  0  0  0  0  0  0  0  0  0  0
   -4.0006   -2.8020    0.0000 H   0  0  0  0  0  0  0  0  0  0  0  0
   -4.9271   -2.2670    0.0000 H   0  0  0  0  0  0  0  0  0  0  0  0
   -4.5721   -0.4321    0.0000 H   0  0  0  0  0  0  0  0  0  0  0  0
  1  2  1  0  0  0  0
  1 32  1  0  0  0  0
  1 33  1  0  0  0  0
  1 34  1  0  0  0  0
  2  3  1  0  0  0  0
  3  4  2  0  0  0  0
  4  5  1  0  0  0  0
  4 35  1  0  0  0  0
  5  6  2  0  0  0  0
  5 36  1  0  0  0  0
  6  7  1  0  0  0  0
  6  9  1  0  0  0  0
  7  8  2  0  0  0  0
  7 37  1  0  0  0  0
  8  3  1  0  0  0  0
  9 10  2  0  0  0  0
 10 11  1  0  0  0  0
 10 38  1  0  0  0  0
 11 12  2  0  0  0  0
 12 13  1  0  0  0  0
 12 14  1  0  0  0  0
 13 39  1  0  0  0  0
 13 40  1  0  0  0  0
 13 41  1  0  0  0  0
 14 15  2  0  0  0  0
 15 16  1  0  0  0  0
 15 17  1  0  0  0  0
 16 42  1  0  0  0  0
 16 43  1  0  0  0  0
 17 18  2  0  0  0  0
 18 11  1  0  0  0  0
 18 19  1  0  0  0  0
 19 30  1  0  0  0  0
 20 19  1  0  0  0  0
 20 21  1  0  0  0  0
 20 44  1  6  0  0  0
 21 22  1  0  0  0  0
 21 45  1  0  0  0  0
 21 46  1  0  0  0  0
 22 23  1  0  0  0  0
 22 47  1  0  0  0  0
 22 48  1  0  0  0  0
 23 24  1  0  0  0  0
 23 26  1  0  0  0  0
 23 49  1  1  0  0  0
 24 25  1  0  0  0  0
 24 50  1  0  0  0  0
 24 51  1  0  0  0  0
 25 20  1  0  0  0  0
 25 52  1  0  0  0  0
 25 53  1  0  0  0  0
 26 27  1  0  0  0  0
 27 28  1  0  0  0  0
 27 54  1  0  0  0  0
 27 55  1  0  0  0  0
 28 29  1  0  0  0  0
 28 56  1  0  0  0  0
 28 57  1  0  0  0  0
 29 58  1  0  0  0  0
 30  9  1  0  0  0  0
 30 31  2  0  0  0  0
M  END
>  <DRUGBANK_ID>
DB11974

>  <COMMON_NAME>
PF-04691502

>  <CAS_NUMBER>
1013101-36-4

>  <UNII>
4W39NS61KI

$$$$
