INQ
 OpenBabel10282417072D

 48 51  0  0  0  0  0  0  0  0999 V2000
   -3.6807    0.5107    0.0000 S   0  0  0  0  0  0  0  0  0  0  0  0
   -4.5057    0.5107    0.0000 O   0  0  0  0  0  0  0  0  0  0  0  0
   -3.6807   -0.3143    0.0000 N   0  0  0  0  0  0  0  0  0  0  0  0
   -2.8557    0.5107    0.0000 C   0  0  0  0  0  0  0  0  0  0  0  0
   -2.3708   -0.1568    0.0000 C   0  0  0  0  0  0  0  0  0  0  0  0
   -1.5862    0.0982    0.0000 C   0  0  0  0  0  0  0  0  0  0  0  0
   -1.5862    0.9232    0.0000 C   0  0  0  0  0  0  0  0  0  0  0  0
   -2.3708    1.1781    0.0000 S   0  0  0  0  0  0  0  0  0  0  0  0
   -0.8717   -0.3143    0.0000 C   0  0  0  0  0  0  0  0  0  0  0  0
   -0.1572    0.0982    0.0000 C   0  0  0  0  0  0  0  0  0  0  0  0
   -0.1572    0.9232    0.0000 N   0  0  0  0  0  0  0  0  0  0  0  0
   -0.8717    1.3357    0.0000 S   0  0  0  0  0  0  0  0  0  0  0  0
   -1.2590    2.0641    0.0000 O   0  0  0  0  0  0  0  0  0  0  0  0
   -0.4844    2.0641    0.0000 O   0  0  0  0  0  0  0  0  0  0  0  0
    0.5572   -0.3143    0.0000 C   0  0  0  0  0  0  0  0  0  0  0  0
    1.2717   -1.5518    0.0000 C   0  0  0  0  0  0  0  0  0  0  0  0
    1.2717   -2.3768    0.0000 C   0  0  0  0  0  0  0  0  0  0  0  0
    0.5572   -2.7893    0.0000 O   0  0  0  0  0  0  0  0  0  0  0  0
   -0.1572   -2.3768    0.0000 C   0  0  0  0  0  0  0  0  0  0  0  0
   -0.1572   -1.5518    0.0000 C   0  0  0  0  0  0  0  0  0  0  0  0
    0.5572   -1.1393    0.0000 N   0  0  0  0  0  0  0  0  0  0  0  0
    1.2717    0.9232    0.0000 C   0  0  0  0  0  0  0  0  0  0  0  0
    0.5572    1.3357    0.0000 C   0  0  0  0  0  0  0  0  0  0  0  0
    0.5572    2.1607    0.0000 C   0  0  0  0  0  0  0  0  0  0  0  0
    1.2717    2.5732    0.0000 C   0  0  0  0  0  0  0  0  0  0  0  0
    1.9862    2.1607    0.0000 C   0  0  0  0  0  0  0  0  0  0  0  0
    1.9862    1.3357    0.0000 C   0  0  0  0  0  0  0  0  0  0  0  0
    2.7006    0.9232    0.0000 O   0  0  0  0  0  0  0  0  0  0  0  0
   -3.6807    1.3357    0.0000 O   0  0  0  0  0  0  0  0  0  0  0  0
   -4.5640   -0.8243    0.0000 H   0  0  0  0  0  0  0  0  0  0  0  0
   -2.7974   -0.8243    0.0000 H   0  0  0  0  0  0  0  0  0  0  0  0
   -2.6897   -1.1383    0.0000 H   0  0  0  0  0  0  0  0  0  0  0  0
   -0.8717   -1.3463    0.0000 H   0  0  0  0  0  0  0  0  0  0  0  0
    1.4839    0.2207    0.0000 H   0  0  0  0  0  0  0  0  0  0  0  0
    1.4838   -0.8493    0.0000 H   0  0  0  0  0  0  0  0  0  0  0  0
    2.1983   -1.0168    0.0000 H   0  0  0  0  0  0  0  0  0  0  0  0
    1.2717   -0.4818    0.0000 H   0  0  0  0  0  0  0  0  0  0  0  0
    2.1983   -2.9118    0.0000 H   0  0  0  0  0  0  0  0  0  0  0  0
    1.2717   -3.4468    0.0000 H   0  0  0  0  0  0  0  0  0  0  0  0
   -1.0839   -2.9118    0.0000 H   0  0  0  0  0  0  0  0  0  0  0  0
   -1.0838   -1.8418    0.0000 H   0  0  0  0  0  0  0  0  0  0  0  0
   -1.0839   -1.0168    0.0000 H   0  0  0  0  0  0  0  0  0  0  0  0
   -0.1572   -0.4818    0.0000 H   0  0  0  0  0  0  0  0  0  0  0  0
    1.2717   -0.1088    0.0000 H   0  0  0  0  0  0  0  0  0  0  0  0
   -0.3365    2.6767    0.0000 H   0  0  0  0  0  0  0  0  0  0  0  0
    1.2717    3.6052    0.0000 H   0  0  0  0  0  0  0  0  0  0  0  0
    2.8799    2.6767    0.0000 H   0  0  0  0  0  0  0  0  0  0  0  0
    2.7006   -0.0138    0.0000 H   0  0  0  0  0  0  0  0  0  0  0  0
  1  2  2  0  0  0  0
  1  3  1  0  0  0  0
  1  4  1  0  0  0  0
  1 29  2  0  0  0  0
  3 30  1  0  0  0  0
  3 31  1  0  0  0  0
  4  5  2  0  0  0  0
  4  8  1  0  0  0  0
  5  6  1  0  0  0  0
  5 32  1  0  0  0  0
  6  7  2  0  0  0  0
  6  9  1  0  0  0  0
  7  8  1  0  0  0  0
  7 12  1  0  0  0  0
  9 10  2  0  0  0  0
  9 33  1  0  0  0  0
 10 11  1  0  0  0  0
 10 15  1  0  0  0  0
 11 12  1  0  0  0  0
 11 23  1  0  0  0  0
 12 13  2  0  0  0  0
 12 14  2  0  0  0  0
 15 21  1  0  0  0  0
 15 34  1  0  0  0  0
 15 35  1  0  0  0  0
 16 17  1  0  0  0  0
 16 21  1  0  0  0  0
 16 36  1  0  0  0  0
 16 37  1  0  0  0  0
 17 18  1  0  0  0  0
 17 38  1  0  0  0  0
 17 39  1  0  0  0  0
 18 19  1  0  0  0  0
 19 20  1  0  0  0  0
 19 40  1  0  0  0  0
 19 41  1  0  0  0  0
 20 21  1  0  0  0  0
 20 42  1  0  0  0  0
 20 43  1  0  0  0  0
 22 23  2  0  0  0  0
 22 27  1  0  0  0  0
 22 44  1  0  0  0  0
 23 24  1  0  0  0  0
 24 25  2  0  0  0  0
 24 45  1  0  0  0  0
 25 26  1  0  0  0  0
 25 46  1  0  0  0  0
 26 27  2  0  0  0  0
 26 47  1  0  0  0  0
 27 28  1  0  0  0  0
 28 48  1  0  0  0  0
M  END
>  <DRUGBANK_ID>
DB03262

>  <SECONDARY_ACCESSION_NUMBERS>
EXPT01890

>  <COMMON_NAME>
Al-6619, [2h-Thieno[3,2-E]-1,2-Thiazine-6-Sulfonamide,2-(3-Hydroxyphenyl)-3-(4-Morpholinyl)-, 1,1-Dioxide]

$$$$
