
 OpenBabel10282417072D

 61 63  0  0  0  0  0  0  0  0999 V2000
   -0.0000   -3.3000    0.0000 C   0  0  0  0  0  0  0  0  0  0  0  0
    0.7145   -2.8875    0.0000 C   0  0  0  0  0  0  0  0  0  0  0  0
    1.4289   -3.3000    0.0000 C   0  0  0  0  0  0  0  0  0  0  0  0
    2.1434   -2.8875    0.0000 C   0  0  0  0  0  0  0  0  0  0  0  0
    2.1434   -2.0625    0.0000 N   0  0  0  0  0  0  0  0  0  0  0  0
    1.4289   -1.6500    0.0000 C   0  0  0  0  0  0  0  0  0  0  0  0
    0.7145   -2.0625    0.0000 C   0  0  0  0  0  0  0  0  0  0  0  0
    0.0000   -1.6500    0.0000 C   0  0  0  0  0  0  0  0  0  0  0  0
    0.0000   -0.8250    0.0000 C   0  0  0  0  0  0  0  0  0  0  0  0
    0.7145   -0.4125    0.0000 C   0  0  0  0  0  0  0  0  0  0  0  0
    1.4289   -0.8250    0.0000 C   0  0  0  0  0  0  0  0  0  0  0  0
    2.1434   -0.4125    0.0000 N   0  0  0  0  0  0  0  0  0  0  0  0
    2.8579   -0.8250    0.0000 C   0  0  3  0  0  0  0  0  0  0  0  0
    2.8579   -1.6500    0.0000 C   0  0  0  0  0  0  0  0  0  0  0  0
    3.5724   -0.4125    0.0000 C   0  0  0  0  0  0  0  0  0  0  0  0
    4.2868   -0.8250    0.0000 C   0  0  0  0  0  0  0  0  0  0  0  0
    5.0013   -0.4125    0.0000 C   0  0  0  0  0  0  0  0  0  0  0  0
    5.7158   -0.8250    0.0000 N   0  0  0  0  0  0  0  0  0  0  0  0
   -0.7145   -0.4125    0.0000 O   0  0  0  0  0  0  0  0  0  0  0  0
   -0.7145    0.4125    0.0000 C   0  0  0  0  0  0  0  0  0  0  0  0
   -0.7145   -2.0625    0.0000 O   0  0  0  0  0  0  0  0  0  0  0  0
   -1.4289   -1.6500    0.0000 C   0  0  0  0  0  0  0  0  0  0  0  0
   -2.1434   -2.0625    0.0000 C   0  0  0  0  0  0  0  0  0  0  0  0
   -2.8579   -1.6500    0.0000 C   0  0  0  0  0  0  0  0  0  0  0  0
   -2.8579   -0.8250    0.0000 C   0  0  0  0  0  0  0  0  0  0  0  0
   -2.1434   -0.4125    0.0000 C   0  0  0  0  0  0  0  0  0  0  0  0
   -1.4289   -0.8250    0.0000 C   0  0  0  0  0  0  0  0  0  0  0  0
   -2.1434    0.4125    0.0000 C   0  0  0  0  0  0  0  0  0  0  0  0
   -2.1434    1.2375    0.0000 F   0  0  0  0  0  0  0  0  0  0  0  0
   -1.3184    0.4125    0.0000 F   0  0  0  0  0  0  0  0  0  0  0  0
   -2.9684    0.4125    0.0000 F   0  0  0  0  0  0  0  0  0  0  0  0
    2.8579   -3.3000    0.0000 O   0  0  0  0  0  0  0  0  0  0  0  0
    2.8579   -4.1250    0.0000 C   0  0  0  0  0  0  0  0  0  0  0  0
   -0.9266   -2.7650    0.0000 H   0  0  0  0  0  0  0  0  0  0  0  0
   -0.0000   -4.3700    0.0000 H   0  0  0  0  0  0  0  0  0  0  0  0
   -0.9267   -3.8350    0.0000 H   0  0  0  0  0  0  0  0  0  0  0  0
    1.4289   -4.3320    0.0000 H   0  0  0  0  0  0  0  0  0  0  0  0
    0.7145    0.6195    0.0000 H   0  0  0  0  0  0  0  0  0  0  0  0
    2.1434    0.5720    0.0000 H   0  0  0  0  0  0  0  0  0  0  0  0
    1.9313   -1.3600    0.0000 H   0  0  0  0  0  0  0  0  0  0  0  0
    1.9313   -2.1850    0.0000 H   0  0  0  0  0  0  0  0  0  0  0  0
    3.7845   -2.1850    0.0000 H   0  0  0  0  0  0  0  0  0  0  0  0
    2.8579   -2.7200    0.0000 H   0  0  0  0  0  0  0  0  0  0  0  0
    3.5724    0.6575    0.0000 H   0  0  0  0  0  0  0  0  0  0  0  0
    4.4991    0.1225    0.0000 H   0  0  0  0  0  0  0  0  0  0  0  0
    4.2868   -1.8950    0.0000 H   0  0  0  0  0  0  0  0  0  0  0  0
    5.2134   -1.3600    0.0000 H   0  0  0  0  0  0  0  0  0  0  0  0
    5.0013    0.6575    0.0000 H   0  0  0  0  0  0  0  0  0  0  0  0
    5.9279    0.1225    0.0000 H   0  0  0  0  0  0  0  0  0  0  0  0
    5.7158   -1.8450    0.0000 H   0  0  0  0  0  0  0  0  0  0  0  0
    6.5991   -0.3150    0.0000 H   0  0  0  0  0  0  0  0  0  0  0  0
    0.2121    0.9475    0.0000 H   0  0  0  0  0  0  0  0  0  0  0  0
   -1.6411    0.9475    0.0000 H   0  0  0  0  0  0  0  0  0  0  0  0
   -0.7145    1.4825    0.0000 H   0  0  0  0  0  0  0  0  0  0  0  0
   -2.1434   -3.0945    0.0000 H   0  0  0  0  0  0  0  0  0  0  0  0
   -3.7516   -2.1660    0.0000 H   0  0  0  0  0  0  0  0  0  0  0  0
   -3.7516   -0.3090    0.0000 H   0  0  0  0  0  0  0  0  0  0  0  0
   -0.5352   -0.3090    0.0000 H   0  0  0  0  0  0  0  0  0  0  0  0
    1.9313   -4.6600    0.0000 H   0  0  0  0  0  0  0  0  0  0  0  0
    3.7845   -4.6600    0.0000 H   0  0  0  0  0  0  0  0  0  0  0  0
    2.8579   -5.1950    0.0000 H   0  0  0  0  0  0  0  0  0  0  0  0
  1  2  1  0  0  0  0
  1 34  1  0  0  0  0
  1 35  1  0  0  0  0
  1 36  1  0  0  0  0
  2  3  1  0  0  0  0
  2  7  2  0  0  0  0
  3  4  2  0  0  0  0
  3 37  1  0  0  0  0
  4  5  1  0  0  0  0
  4 32  1  0  0  0  0
  5  6  2  0  0  0  0
  6  7  1  0  0  0  0
  6 11  1  0  0  0  0
  7  8  1  0  0  0  0
  8  9  2  0  0  0  0
  8 21  1  0  0  0  0
  9 10  1  0  0  0  0
  9 19  1  0  0  0  0
 10 11  2  0  0  0  0
 10 38  1  0  0  0  0
 11 12  1  0  0  0  0
 12 13  1  0  0  0  0
 12 39  1  0  0  0  0
 13 14  1  0  0  0  0
 13 15  1  0  0  0  0
 13 40  1  0  0  0  0
 14 41  1  0  0  0  0
 14 42  1  0  0  0  0
 14 43  1  0  0  0  0
 15 16  1  0  0  0  0
 15 44  1  0  0  0  0
 15 45  1  0  0  0  0
 16 17  1  0  0  0  0
 16 46  1  0  0  0  0
 16 47  1  0  0  0  0
 17 18  1  0  0  0  0
 17 48  1  0  0  0  0
 17 49  1  0  0  0  0
 18 50  1  0  0  0  0
 18 51  1  0  0  0  0
 19 20  1  0  0  0  0
 20 52  1  0  0  0  0
 20 53  1  0  0  0  0
 20 54  1  0  0  0  0
 21 22  1  0  0  0  0
 22 23  2  0  0  0  0
 22 27  1  0  0  0  0
 23 24  1  0  0  0  0
 23 55  1  0  0  0  0
 24 25  2  0  0  0  0
 24 56  1  0  0  0  0
 25 26  1  0  0  0  0
 25 57  1  0  0  0  0
 26 27  2  0  0  0  0
 26 28  1  0  0  0  0
 27 58  1  0  0  0  0
 28 29  1  0  0  0  0
 28 30  1  0  0  0  0
 28 31  1  0  0  0  0
 32 33  1  0  0  0  0
 33 59  1  0  0  0  0
 33 60  1  0  0  0  0
 33 61  1  0  0  0  0
M  END
>  <DRUGBANK_ID>
DB06608

>  <COMMON_NAME>
Tafenoquine

>  <CAS_NUMBER>
106635-80-7

>  <UNII>
262P8GS9L9

>  <SYNONYMS>
Tafenoquine

$$$$
