ROK
 OpenBabel10282417072D

 30 30  0  0  0  0  0  0  0  0999 V2000
   20.2323    6.4723    0.0000 O   0  0  0  0  0  0  0  0  0  0  0  0
   19.8198    5.7579    0.0000 S   0  0  0  0  0  0  0  0  0  0  0  0
   19.4073    5.0434    0.0000 O   0  0  0  0  0  0  0  0  0  0  0  0
   20.5343    5.3454    0.0000 N   0  0  0  0  0  0  0  0  0  0  0  0
   21.2487    5.7579    0.0000 C   0  0  0  0  0  0  0  0  0  0  0  0
   21.2487    6.5829    0.0000 O   0  0  0  0  0  0  0  0  0  0  0  0
   21.9632    5.3454    0.0000 N   0  0  0  0  0  0  0  0  0  0  0  0
   22.6777    5.7579    0.0000 C   0  0  0  0  0  0  0  0  0  0  0  0
   23.3922    5.3454    0.0000 C   0  0  0  0  0  0  0  0  0  0  0  0
   24.1066    5.7579    0.0000 S   0  0  0  0  0  0  0  0  0  0  0  0
   19.1053    6.1704    0.0000 C   0  0  0  0  0  0  0  0  0  0  0  0
   18.3909    5.7579    0.0000 C   0  0  0  0  0  0  0  0  0  0  0  0
   17.6764    6.1704    0.0000 C   0  0  0  0  0  0  0  0  0  0  0  0
   17.6764    6.9954    0.0000 C   0  0  0  0  0  0  0  0  0  0  0  0
   16.9619    7.4079    0.0000 N   0  0  0  0  0  0  0  0  0  0  0  0
   18.3909    7.4079    0.0000 C   0  0  0  0  0  0  0  0  0  0  0  0
   19.1053    6.9954    0.0000 C   0  0  0  0  0  0  0  0  0  0  0  0
   20.5343    4.3609    0.0000 H   0  0  0  0  0  0  0  0  0  0  0  0
   21.9632    4.3609    0.0000 H   0  0  0  0  0  0  0  0  0  0  0  0
   22.6777    6.8279    0.0000 H   0  0  0  0  0  0  0  0  0  0  0  0
   23.6043    6.2929    0.0000 H   0  0  0  0  0  0  0  0  0  0  0  0
   23.3922    4.2754    0.0000 H   0  0  0  0  0  0  0  0  0  0  0  0
   24.3189    4.8104    0.0000 H   0  0  0  0  0  0  0  0  0  0  0  0
   25.2844    5.0780    0.0000 H   0  0  0  0  0  0  0  0  0  0  0  0
   18.3909    4.7259    0.0000 H   0  0  0  0  0  0  0  0  0  0  0  0
   16.7827    5.6544    0.0000 H   0  0  0  0  0  0  0  0  0  0  0  0
   16.9619    8.3924    0.0000 H   0  0  0  0  0  0  0  0  0  0  0  0
   16.1093    6.9156    0.0000 H   0  0  0  0  0  0  0  0  0  0  0  0
   18.3909    8.4399    0.0000 H   0  0  0  0  0  0  0  0  0  0  0  0
   19.9990    7.5114    0.0000 H   0  0  0  0  0  0  0  0  0  0  0  0
  1  2  2  0  0  0  0
  2  3  2  0  0  0  0
  2  4  1  0  0  0  0
  2 11  1  0  0  0  0
  4  5  1  0  0  0  0
  4 18  1  0  0  0  0
  5  6  2  0  0  0  0
  5  7  1  0  0  0  0
  7  8  1  0  0  0  0
  7 19  1  0  0  0  0
  8  9  1  0  0  0  0
  8 20  1  0  0  0  0
  8 21  1  0  0  0  0
  9 10  1  0  0  0  0
  9 22  1  0  0  0  0
  9 23  1  0  0  0  0
 10 24  1  0  0  0  0
 11 12  1  0  0  0  0
 11 17  2  0  0  0  0
 12 13  2  0  0  0  0
 12 25  1  0  0  0  0
 13 14  1  0  0  0  0
 13 26  1  0  0  0  0
 14 15  1  0  0  0  0
 14 16  2  0  0  0  0
 15 27  1  0  0  0  0
 15 28  1  0  0  0  0
 16 17  1  0  0  0  0
 16 29  1  0  0  0  0
 17 30  1  0  0  0  0
M  END
>  <DRUGBANK_ID>
DB08484

>  <COMMON_NAME>
4-AMINO-N-[(2-SULFANYLETHYL)CARBAMOYL]BENZENESULFONAMIDE

$$$$
