
 OpenBabel10282417072D

 48 49  0  0  1  0  0  0  0  0999 V2000
    6.3466    0.2256    0.0000 C   0  0  0  0  0  0  0  0  0  0  0  0
    1.3926   -1.9481    0.0000 C   0  0  0  0  0  0  0  0  0  0  0  0
    7.5355   -0.9184    0.0000 C   0  0  0  0  0  0  0  0  0  0  0  0
    5.5539   -2.9778    0.0000 C   0  0  0  0  0  0  0  0  0  0  0  0
    6.7429   -1.1472    0.0000 C   0  0  0  0  0  0  0  0  0  0  0  0
    4.7613   -3.2066    0.0000 C   0  0  0  0  0  0  0  0  0  0  0  0
    8.1300   -1.4905    0.0000 C   0  0  0  0  0  0  0  0  0  0  0  0
    6.1484   -3.5498    0.0000 C   0  0  0  0  0  0  0  0  0  0  0  0
    3.3742   -2.8633    0.0000 C   0  0  0  0  0  0  0  0  0  0  0  0
    2.9779   -1.4905    0.0000 C   0  0  0  0  0  0  0  0  0  0  0  0
    6.1484   -0.5752    0.0000 C   0  0  2  0  0  0  0  0  0  0  0  0
    4.1668   -2.6345    0.0000 C   0  0  0  0  0  0  0  0  0  0  0  0
    2.7797   -2.2913    0.0000 C   0  0  0  0  0  0  0  0  0  0  0  0
    7.9318   -2.2913    0.0000 C   0  0  0  0  0  0  0  0  0  0  0  0
    6.9411   -3.3210    0.0000 C   0  0  1  0  0  0  0  0  0  0  0  0
    3.7705   -1.2617    0.0000 C   0  0  0  0  0  0  0  0  0  0  0  0
    4.3650   -1.8337    0.0000 C   0  0  0  0  0  0  0  0  0  0  0  0
    7.1392   -2.5201    0.0000 C   0  0  2  0  0  0  0  0  0  0  0  0
    5.1576   -1.6049    0.0000 C   0  0  0  0  0  0  0  0  0  0  0  0
    8.5263   -2.8633    0.0000 O   0  0  0  0  0  0  0  0  0  0  0  0
    7.5355   -3.8930    0.0000 O   0  0  0  0  0  0  0  0  0  0  0  0
    3.9687   -0.4608    0.0000 O   0  0  0  0  0  0  0  0  0  0  0  0
    6.5447   -1.9481    0.0000 O   0  0  0  0  0  0  0  0  0  0  0  0
    5.7521   -2.1769    0.0000 O   0  0  0  0  0  0  0  0  0  0  0  0
    1.9871   -2.5201    0.0000 O   0  0  0  0  0  0  0  0  0  0  0  0
    5.3558   -0.8040    0.0000 O   0  0  0  0  0  0  0  0  0  0  0  0
    7.7337   -0.1176    0.0000 H   0  0  0  0  0  0  0  0  0  0  0  0
    6.0141   -2.2930    0.0000 H   0  0  0  0  0  0  0  0  0  0  0  0
    4.5631   -4.0074    0.0000 H   0  0  0  0  0  0  0  0  0  0  0  0
    8.9226   -1.2617    0.0000 H   0  0  0  0  0  0  0  0  0  0  0  0
    6.9411   -0.3464    0.0000 H   0  0  0  0  0  0  0  0  0  0  0  0
    6.7429   -4.1218    0.0000 H   0  0  0  0  0  0  0  0  0  0  0  0
    7.3374   -1.7193    0.0000 H   0  0  0  0  0  0  0  0  0  0  0  0
    7.3746    0.5223    0.0000 H   0  0  0  0  0  0  0  0  0  0  0  0
    5.5756    0.9676    0.0000 H   0  0  0  0  0  0  0  0  0  0  0  0
    6.6037    1.2643    0.0000 H   0  0  0  0  0  0  0  0  0  0  0  0
    1.6496   -0.9094    0.0000 H   0  0  0  0  0  0  0  0  0  0  0  0
    0.3646   -2.2449    0.0000 H   0  0  0  0  0  0  0  0  0  0  0  0
    0.6215   -1.2062    0.0000 H   0  0  0  0  0  0  0  0  0  0  0  0
    6.4859   -2.1859    0.0000 H   0  0  0  0  0  0  0  0  0  0  0  0
    5.7149   -1.4440    0.0000 H   0  0  0  0  0  0  0  0  0  0  0  0
    5.8914   -4.5885    0.0000 H   0  0  0  0  0  0  0  0  0  0  0  0
    6.9194   -4.2917    0.0000 H   0  0  0  0  0  0  0  0  0  0  0  0
    3.1263   -3.8651    0.0000 H   0  0  0  0  0  0  0  0  0  0  0  0
    2.2343   -0.7749    0.0000 H   0  0  0  0  0  0  0  0  0  0  0  0
    7.3025   -4.8346    0.0000 H   0  0  0  0  0  0  0  0  0  0  0  0
    4.8689   -0.2010    0.0000 H   0  0  0  0  0  0  0  0  0  0  0  0
    6.7776   -1.0065    0.0000 H   0  0  0  0  0  0  0  0  0  0  0  0
  1 34  1  0  0  0  0
  1 35  1  0  0  0  0
  1 36  1  0  0  0  0
  2 37  1  0  0  0  0
  2 38  1  0  0  0  0
  2 39  1  0  0  0  0
  5  3  1  0  0  0  0
  5 40  1  0  0  0  0
  5 41  1  0  0  0  0
  6  4  2  0  0  0  0
  7  3  2  0  0  0  0
  8  4  1  0  0  0  0
  8 42  1  0  0  0  0
  8 43  1  0  0  0  0
  9 44  1  0  0  0  0
 10 45  1  0  0  0  0
 11  1  1  0  0  0  0
 11  5  1  0  0  0  0
 11 31  1  1  0  0  0
 12  6  1  0  0  0  0
 12  9  2  0  0  0  0
 13  9  1  0  0  0  0
 13 10  2  0  0  0  0
 14  7  1  0  0  0  0
 15  8  1  0  0  0  0
 15 21  1  0  0  0  0
 15 32  1  6  0  0  0
 16 10  1  0  0  0  0
 17 12  1  0  0  0  0
 17 16  2  0  0  0  0
 18 14  1  0  0  0  0
 18 15  1  0  0  0  0
 18 23  1  0  0  0  0
 18 33  1  1  0  0  0
 19 17  1  0  0  0  0
 20 14  2  0  0  0  0
 21 46  1  0  0  0  0
 22 16  1  0  0  0  0
 22 47  1  0  0  0  0
 23 48  1  0  0  0  0
 24 19  2  0  0  0  0
 25  2  1  0  0  0  0
 25 13  1  0  0  0  0
 26 11  1  0  0  0  0
 26 19  1  0  0  0  0
 27  3  1  0  0  0  0
 28  4  1  0  0  0  0
 29  6  1  0  0  0  0
 30  7  1  0  0  0  0
M  END
>  <DRUGBANK_ID>
DB07788

>  <COMMON_NAME>
(3R,5Z,8S,9S,11E)-8,9,16-TRIHYDROXY-14-METHOXY-3-METHYL-3,4,9,10-TETRAHYDRO-1H-2-BENZOXACYCLOTETRADECINE-1,7(8H)-DIONE

$$$$
