
 OpenBabel10282417072D

 71 73  0  0  0  0  0  0  0  0999 V2000
   -2.0534   -1.8607    0.0000 C   0  0  0  0  0  0  0  0  0  0  0  0
   -1.9304   -1.0449    0.0000 C   0  0  0  0  0  0  0  0  0  0  0  0
   -1.1625   -0.7435    0.0000 C   0  0  0  0  0  0  0  0  0  0  0  0
   -1.0395    0.0723    0.0000 C   0  0  0  0  0  0  0  0  0  0  0  0
   -0.2715    0.3737    0.0000 C   0  0  0  0  0  0  0  0  0  0  0  0
   -0.1486   -0.4421    0.0000 C   0  0  0  0  0  0  0  0  0  0  0  0
    0.6194   -0.7435    0.0000 C   0  0  0  0  0  0  0  0  0  0  0  0
    0.7424   -1.5593    0.0000 C   0  0  0  0  0  0  0  0  0  0  0  0
    1.5103   -1.8607    0.0000 C   0  0  0  0  0  0  0  0  0  0  0  0
   -0.7363    1.0553    0.0000 C   0  0  0  0  0  0  0  0  0  0  0  0
   -0.4931    1.8437    0.0000 N   0  0  0  0  0  0  0  0  0  0  0  0
   -1.0979    2.4048    0.0000 C   0  0  0  0  0  0  0  0  0  0  0  0
   -1.8862    2.1617    0.0000 C   0  0  0  0  0  0  0  0  0  0  0  0
   -2.4910    2.7228    0.0000 C   0  0  0  0  0  0  0  0  0  0  0  0
   -2.3074    3.5271    0.0000 C   0  0  0  0  0  0  0  0  0  0  0  0
   -1.5191    3.7703    0.0000 C   0  0  0  0  0  0  0  0  0  0  0  0
   -0.9143    3.2092    0.0000 C   0  0  0  0  0  0  0  0  0  0  0  0
    0.2749    2.1451    0.0000 C   0  0  0  0  0  0  0  0  0  0  0  0
    0.2749    2.9701    0.0000 C   0  0  0  0  0  0  0  0  0  0  0  0
    0.9893    3.3826    0.0000 C   0  0  0  0  0  0  0  0  0  0  0  0
    0.9893    4.2076    0.0000 S   0  0  0  0  0  0  0  0  0  0  0  0
    1.7038    4.6201    0.0000 C   0  0  0  0  0  0  0  0  0  0  0  0
    1.7038    2.9701    0.0000 C   0  0  0  0  0  0  0  0  0  0  0  0
    2.4183    3.3826    0.0000 O   0  0  0  0  0  0  0  0  0  0  0  0
    3.1328    2.9701    0.0000 C   0  0  0  0  0  0  0  0  0  0  0  0
    3.8472    3.3826    0.0000 C   0  0  0  0  0  0  0  0  0  0  0  0
    4.5617    2.9701    0.0000 C   0  0  0  0  0  0  0  0  0  0  0  0
    5.2762    3.3826    0.0000 O   0  0  0  0  0  0  0  0  0  0  0  0
    4.5617    2.1451    0.0000 O   0  0  0  0  0  0  0  0  0  0  0  0
    1.7038    2.1451    0.0000 C   0  0  0  0  0  0  0  0  0  0  0  0
    0.9893    1.7326    0.0000 C   0  0  0  0  0  0  0  0  0  0  0  0
    1.1123    0.9168    0.0000 S   0  0  0  0  0  0  0  0  0  0  0  0
    1.8803    1.2182    0.0000 O   0  0  0  0  0  0  0  0  0  0  0  0
    1.5770    0.2352    0.0000 O   0  0  0  0  0  0  0  0  0  0  0  0
    0.5512    0.3120    0.0000 N   0  0  0  0  0  0  0  0  0  0  0  0
   -3.0495   -2.2516    0.0000 H   0  0  0  0  0  0  0  0  0  0  0  0
   -1.2169   -2.5279    0.0000 H   0  0  0  0  0  0  0  0  0  0  0  0
   -2.2129   -2.9187    0.0000 H   0  0  0  0  0  0  0  0  0  0  0  0
   -2.7670   -0.3778    0.0000 H   0  0  0  0  0  0  0  0  0  0  0  0
   -1.7709    0.0132    0.0000 H   0  0  0  0  0  0  0  0  0  0  0  0
   -0.3259   -1.4106    0.0000 H   0  0  0  0  0  0  0  0  0  0  0  0
   -0.1665   -0.3526    0.0000 H   0  0  0  0  0  0  0  0  0  0  0  0
   -1.8760    0.7395    0.0000 H   0  0  0  0  0  0  0  0  0  0  0  0
   -0.8800    1.1303    0.0000 H   0  0  0  0  0  0  0  0  0  0  0  0
   -0.9852   -1.1092    0.0000 H   0  0  0  0  0  0  0  0  0  0  0  0
    0.0109   -1.5001    0.0000 H   0  0  0  0  0  0  0  0  0  0  0  0
    1.4559   -0.0763    0.0000 H   0  0  0  0  0  0  0  0  0  0  0  0
    1.6155   -1.1344    0.0000 H   0  0  0  0  0  0  0  0  0  0  0  0
   -0.0942   -2.2264    0.0000 H   0  0  0  0  0  0  0  0  0  0  0  0
    0.9019   -2.6174    0.0000 H   0  0  0  0  0  0  0  0  0  0  0  0
    1.6697   -2.9188    0.0000 H   0  0  0  0  0  0  0  0  0  0  0  0
    2.3469   -1.1936    0.0000 H   0  0  0  0  0  0  0  0  0  0  0  0
    2.5063   -2.2516    0.0000 H   0  0  0  0  0  0  0  0  0  0  0  0
   -1.7943    0.8958    0.0000 H   0  0  0  0  0  0  0  0  0  0  0  0
   -1.4343    1.8663    0.0000 H   0  0  0  0  0  0  0  0  0  0  0  0
   -2.1158    1.1556    0.0000 H   0  0  0  0  0  0  0  0  0  0  0  0
   -3.4771    2.4186    0.0000 H   0  0  0  0  0  0  0  0  0  0  0  0
   -3.0639    4.2290    0.0000 H   0  0  0  0  0  0  0  0  0  0  0  0
   -1.2895    4.7764    0.0000 H   0  0  0  0  0  0  0  0  0  0  0  0
    0.0718    3.5134    0.0000 H   0  0  0  0  0  0  0  0  0  0  0  0
   -0.6188    3.4861    0.0000 H   0  0  0  0  0  0  0  0  0  0  0  0
    2.6304    4.0851    0.0000 H   0  0  0  0  0  0  0  0  0  0  0  0
    1.7038    5.6901    0.0000 H   0  0  0  0  0  0  0  0  0  0  0  0
    2.6305    5.1551    0.0000 H   0  0  0  0  0  0  0  0  0  0  0  0
    3.1328    1.9001    0.0000 H   0  0  0  0  0  0  0  0  0  0  0  0
    4.0595    2.4351    0.0000 H   0  0  0  0  0  0  0  0  0  0  0  0
    3.8472    4.4526    0.0000 H   0  0  0  0  0  0  0  0  0  0  0  0
    4.7738    3.9176    0.0000 H   0  0  0  0  0  0  0  0  0  0  0  0
    6.0877    2.9141    0.0000 H   0  0  0  0  0  0  0  0  0  0  0  0
    2.5975    1.6291    0.0000 H   0  0  0  0  0  0  0  0  0  0  0  0
    0.9239   -0.6375    0.0000 H   0  0  0  0  0  0  0  0  0  0  0  0
  1  2  1  0  0  0  0
  1 36  1  0  0  0  0
  1 37  1  0  0  0  0
  1 38  1  0  0  0  0
  2  3  1  0  0  0  0
  2 39  1  0  0  0  0
  2 40  1  0  0  0  0
  3  4  1  0  0  0  0
  3 41  1  0  0  0  0
  3 42  1  0  0  0  0
  4  5  1  0  0  0  0
  4 43  1  0  0  0  0
  4 44  1  0  0  0  0
  5  6  1  0  0  0  0
  5 10  1  0  0  0  0
  5 35  1  0  0  0  0
  6  7  1  0  0  0  0
  6 45  1  0  0  0  0
  6 46  1  0  0  0  0
  7  8  1  0  0  0  0
  7 47  1  0  0  0  0
  7 48  1  0  0  0  0
  8  9  1  0  0  0  0
  8 49  1  0  0  0  0
  8 50  1  0  0  0  0
  9 51  1  0  0  0  0
  9 52  1  0  0  0  0
  9 53  1  0  0  0  0
 10 11  1  0  0  0  0
 10 54  1  0  0  0  0
 10 55  1  0  0  0  0
 11 12  1  0  0  0  0
 11 18  1  0  0  0  0
 12 13  2  0  0  0  0
 12 17  1  0  0  0  0
 13 14  1  0  0  0  0
 13 56  1  0  0  0  0
 14 15  2  0  0  0  0
 14 57  1  0  0  0  0
 15 16  1  0  0  0  0
 15 58  1  0  0  0  0
 16 17  2  0  0  0  0
 16 59  1  0  0  0  0
 17 60  1  0  0  0  0
 18 19  2  0  0  0  0
 18 31  1  0  0  0  0
 19 20  1  0  0  0  0
 19 61  1  0  0  0  0
 20 21  1  0  0  0  0
 20 23  2  0  0  0  0
 21 22  1  0  0  0  0
 22 62  1  0  0  0  0
 22 63  1  0  0  0  0
 22 64  1  0  0  0  0
 23 24  1  0  0  0  0
 23 30  1  0  0  0  0
 24 25  1  0  0  0  0
 25 26  1  0  0  0  0
 25 65  1  0  0  0  0
 25 66  1  0  0  0  0
 26 27  1  0  0  0  0
 26 67  1  0  0  0  0
 26 68  1  0  0  0  0
 27 28  1  0  0  0  0
 27 29  2  0  0  0  0
 28 69  1  0  0  0  0
 30 31  2  0  0  0  0
 30 70  1  0  0  0  0
 31 32  1  0  0  0  0
 32 33  2  0  0  0  0
 32 34  2  0  0  0  0
 32 35  1  0  0  0  0
 35 71  1  0  0  0  0
M  END
>  <DRUGBANK_ID>
DB18030

>  <COMMON_NAME>
Ritivixibat

>  <CAS_NUMBER>
2460667-52-9

>  <UNII>
3U7H6NE2KE

>  <SYNONYMS>
3-([3,3-dibutyl-7-(methylsulfanyl)-1,1-dioxo-5-phenyl-2,3,4,5-tetrahydro-1H-1Lambda6,2,5-benzothiadiazepin-8-yl]oxy)propanoic acid

$$$$
