
 OpenBabel10282417072D

 89 93  0  0  1  0  0  0  0  0999 V2000
    6.7974    2.8189    0.0000 Cl  0  0  0  0  0  0  0  0  0  0  0  0
    8.3912    3.2460    0.0000 Cl  0  0  0  0  0  0  0  0  0  0  0  0
    0.0000    5.2444    0.0000 Cl  0  5  0  0  0  0  0  0  0  0  0  0
    7.8078    7.3296    0.0000 O   0  0  0  0  0  0  0  0  0  0  0  0
    9.5579    9.0798    0.0000 O   0  0  0  0  0  0  0  0  0  0  0  0
    4.8337    3.7721    0.0000 N   0  3  3  0  0  0  0  0  0  0  0  0
    6.4275    6.9598    0.0000 N   0  0  0  0  0  0  0  0  0  0  0  0
    4.6201    2.9752    0.0000 C   0  0  3  0  0  0  0  0  0  0  0  0
    4.5279    4.8848    0.0000 C   0  0  0  0  0  0  0  0  0  0  0  0
    2.7787    2.8647    0.0000 C   0  0  0  0  0  0  0  0  0  0  0  0
    6.3451    3.1461    0.0000 C   0  0  0  0  0  0  0  0  0  0  0  0
    3.8134    4.4723    0.0000 C   0  0  0  0  0  0  0  0  0  0  0  0
    3.1912    2.1502    0.0000 C   0  0  0  0  0  0  0  0  0  0  0  0
    6.1316    2.3492    0.0000 C   0  0  0  0  0  0  0  0  0  0  0  0
    5.0473    4.5691    0.0000 C   0  0  0  0  0  0  0  0  0  0  0  0
    5.8441    4.7826    0.0000 C   0  0  0  0  0  0  0  0  0  0  0  0
    4.6921    2.1533    0.0000 C   0  0  0  0  0  0  0  0  0  0  0  0
    6.0577    5.5795    0.0000 C   0  0  1  0  0  0  0  0  0  0  0  0
    5.2608    5.7930    0.0000 C   0  0  0  0  0  0  0  0  0  0  0  0
    6.6410    6.1629    0.0000 C   0  0  0  0  0  0  0  0  0  0  0  0
    5.4398    1.8047    0.0000 C   0  0  0  0  0  0  0  0  0  0  0  0
    4.0162    1.6802    0.0000 C   0  0  0  0  0  0  0  0  0  0  0  0
    6.6410    4.9961    0.0000 C   0  0  0  0  0  0  0  0  0  0  0  0
    5.0473    6.5900    0.0000 C   0  0  0  0  0  0  0  0  0  0  0  0
    5.6306    7.1733    0.0000 C   0  0  0  0  0  0  0  0  0  0  0  0
    5.5117    0.9828    0.0000 C   0  0  0  0  0  0  0  0  0  0  0  0
    4.0882    0.8582    0.0000 C   0  0  0  0  0  0  0  0  0  0  0  0
    6.4275    4.1992    0.0000 C   0  0  0  0  0  0  0  0  0  0  0  0
    7.4379    5.2096    0.0000 C   0  0  0  0  0  0  0  0  0  0  0  0
    4.8360    0.5095    0.0000 C   0  0  0  0  0  0  0  0  0  0  0  0
    7.0109    7.5432    0.0000 C   0  0  0  0  0  0  0  0  0  0  0  0
    7.0109    3.6158    0.0000 C   0  0  0  0  0  0  0  0  0  0  0  0
    8.0213    4.6262    0.0000 C   0  0  0  0  0  0  0  0  0  0  0  0
    6.7974    8.3401    0.0000 C   0  0  0  0  0  0  0  0  0  0  0  0
    7.8078    3.8294    0.0000 C   0  0  0  0  0  0  0  0  0  0  0  0
    7.3808    8.9235    0.0000 C   0  0  0  0  0  0  0  0  0  0  0  0
    8.1776    8.7100    0.0000 C   0  0  0  0  0  0  0  0  0  0  0  0
    7.1672    9.7204    0.0000 C   0  0  0  0  0  0  0  0  0  0  0  0
    8.7610    9.2933    0.0000 C   0  0  0  0  0  0  0  0  0  0  0  0
    7.7506   10.3037    0.0000 C   0  0  0  0  0  0  0  0  0  0  0  0
    8.5475   10.0902    0.0000 C   0  0  0  0  0  0  0  0  0  0  0  0
   10.1413    9.6632    0.0000 C   0  0  0  0  0  0  0  0  0  0  0  0
   10.9383    9.4496    0.0000 C   0  0  0  0  0  0  0  0  0  0  0  0
    9.9278   10.4601    0.0000 C   0  0  0  0  0  0  0  0  0  0  0  0
    4.9342    5.8747    0.0000 H   0  0  0  0  0  0  0  0  0  0  0  0
    3.7223    5.5890    0.0000 H   0  0  0  0  0  0  0  0  0  0  0  0
    1.7616    3.1969    0.0000 H   0  0  0  0  0  0  0  0  0  0  0  0
    2.1047    2.0337    0.0000 H   0  0  0  0  0  0  0  0  0  0  0  0
    7.3047    3.6194    0.0000 H   0  0  0  0  0  0  0  0  0  0  0  0
    7.1722    2.4673    0.0000 H   0  0  0  0  0  0  0  0  0  0  0  0
    2.7840    4.7644    0.0000 H   0  0  0  0  0  0  0  0  0  0  0  0
    3.6815    5.5341    0.0000 H   0  0  0  0  0  0  0  0  0  0  0  0
    2.9143    1.1167    0.0000 H   0  0  0  0  0  0  0  0  0  0  0  0
    2.1304    2.0105    0.0000 H   0  0  0  0  0  0  0  0  0  0  0  0
    6.6049    1.3896    0.0000 H   0  0  0  0  0  0  0  0  0  0  0  0
    7.1964    2.4541    0.0000 H   0  0  0  0  0  0  0  0  0  0  0  0
    4.2907    5.3257    0.0000 H   0  0  0  0  0  0  0  0  0  0  0  0
    5.3243    5.6026    0.0000 H   0  0  0  0  0  0  0  0  0  0  0  0
    6.6007    4.0260    0.0000 H   0  0  0  0  0  0  0  0  0  0  0  0
    6.8777    5.0595    0.0000 H   0  0  0  0  0  0  0  0  0  0  0  0
    4.5042    5.0364    0.0000 H   0  0  0  0  0  0  0  0  0  0  0  0
    4.2273    6.0700    0.0000 H   0  0  0  0  0  0  0  0  0  0  0  0
    7.6745    5.8860    0.0000 H   0  0  0  0  0  0  0  0  0  0  0  0
    6.9180    5.1294    0.0000 H   0  0  0  0  0  0  0  0  0  0  0  0
    6.2851    2.3967    0.0000 H   0  0  0  0  0  0  0  0  0  0  0  0
    3.0809    2.1164    0.0000 H   0  0  0  0  0  0  0  0  0  0  0  0
    4.0138    6.8670    0.0000 H   0  0  0  0  0  0  0  0  0  0  0  0
    4.7704    7.6235    0.0000 H   0  0  0  0  0  0  0  0  0  0  0  0
    5.3536    8.2068    0.0000 H   0  0  0  0  0  0  0  0  0  0  0  0
    4.5971    7.4502    0.0000 H   0  0  0  0  0  0  0  0  0  0  0  0
    6.4470    0.5467    0.0000 H   0  0  0  0  0  0  0  0  0  0  0  0
    3.2429    0.2662    0.0000 H   0  0  0  0  0  0  0  0  0  0  0  0
    5.4307    3.9321    0.0000 H   0  0  0  0  0  0  0  0  0  0  0  0
    7.7050    6.2064    0.0000 H   0  0  0  0  0  0  0  0  0  0  0  0
    4.9260   -0.5186    0.0000 H   0  0  0  0  0  0  0  0  0  0  0  0
    9.0181    4.8933    0.0000 H   0  0  0  0  0  0  0  0  0  0  0  0
    5.7639    8.6171    0.0000 H   0  0  0  0  0  0  0  0  0  0  0  0
    6.5205    9.3736    0.0000 H   0  0  0  0  0  0  0  0  0  0  0  0
    8.4447    7.7132    0.0000 H   0  0  0  0  0  0  0  0  0  0  0  0
    6.1704    9.9875    0.0000 H   0  0  0  0  0  0  0  0  0  0  0  0
    7.4835   11.3005    0.0000 H   0  0  0  0  0  0  0  0  0  0  0  0
    9.2772   10.8199    0.0000 H   0  0  0  0  0  0  0  0  0  0  0  0
   10.8979   10.4198    0.0000 H   0  0  0  0  0  0  0  0  0  0  0  0
   11.2152    8.4160    0.0000 H   0  0  0  0  0  0  0  0  0  0  0  0
   11.6949   10.2062    0.0000 H   0  0  0  0  0  0  0  0  0  0  0  0
   11.9718    9.1726    0.0000 H   0  0  0  0  0  0  0  0  0  0  0  0
   10.6844   11.2167    0.0000 H   0  0  0  0  0  0  0  0  0  0  0  0
    8.8943   10.7371    0.0000 H   0  0  0  0  0  0  0  0  0  0  0  0
    9.6509   11.4936    0.0000 H   0  0  0  0  0  0  0  0  0  0  0  0
  1 32  1  0  0  0  0
  2 35  1  0  0  0  0
  4 31  2  0  0  0  0
  5 39  1  0  0  0  0
  5 42  1  0  0  0  0
  6  9  1  0  0  0  0
  6 10  1  0  0  0  0
  6 11  1  0  0  0  0
  6 15  1  0  0  0  0
  7 20  1  0  0  0  0
  7 25  1  0  0  0  0
  7 31  1  0  0  0  0
  8 12  1  0  0  0  0
  8 13  1  0  0  0  0
  8 14  1  0  0  0  0
  8 17  1  0  0  0  0
  9 12  1  0  0  0  0
  9 45  1  0  0  0  0
  9 46  1  0  0  0  0
 10 13  1  0  0  0  0
 10 47  1  0  0  0  0
 10 48  1  0  0  0  0
 11 14  1  0  0  0  0
 11 49  1  0  0  0  0
 11 50  1  0  0  0  0
 12 51  1  0  0  0  0
 12 52  1  0  0  0  0
 13 53  1  0  0  0  0
 13 54  1  0  0  0  0
 14 55  1  0  0  0  0
 14 56  1  0  0  0  0
 15 16  1  0  0  0  0
 15 57  1  0  0  0  0
 15 58  1  0  0  0  0
 16 59  1  0  0  0  0
 16 60  1  0  0  0  0
 17 21  2  0  0  0  0
 17 22  1  0  0  0  0
 18 16  1  1  0  0  0
 18 19  1  0  0  0  0
 18 20  1  0  0  0  0
 18 23  1  0  0  0  0
 19 24  1  0  0  0  0
 19 61  1  0  0  0  0
 19 62  1  0  0  0  0
 20 63  1  0  0  0  0
 20 64  1  0  0  0  0
 21 26  1  0  0  0  0
 21 65  1  0  0  0  0
 22 27  2  0  0  0  0
 22 66  1  0  0  0  0
 23 28  2  0  0  0  0
 23 29  1  0  0  0  0
 24 25  1  0  0  0  0
 24 67  1  0  0  0  0
 24 68  1  0  0  0  0
 25 69  1  0  0  0  0
 25 70  1  0  0  0  0
 26 30  2  0  0  0  0
 26 71  1  0  0  0  0
 27 30  1  0  0  0  0
 27 72  1  0  0  0  0
 28 32  1  0  0  0  0
 28 73  1  0  0  0  0
 29 33  2  0  0  0  0
 29 74  1  0  0  0  0
 30 75  1  0  0  0  0
 31 34  1  0  0  0  0
 32 35  2  0  0  0  0
 33 35  1  0  0  0  0
 33 76  1  0  0  0  0
 34 36  1  0  0  0  0
 34 77  1  0  0  0  0
 34 78  1  0  0  0  0
 36 37  2  0  0  0  0
 36 38  1  0  0  0  0
 37 39  1  0  0  0  0
 37 79  1  0  0  0  0
 38 40  2  0  0  0  0
 38 80  1  0  0  0  0
 39 41  2  0  0  0  0
 40 41  1  0  0  0  0
 40 81  1  0  0  0  0
 41 82  1  0  0  0  0
 42 43  1  0  0  0  0
 42 44  1  0  0  0  0
 42 83  1  0  0  0  0
 43 84  1  0  0  0  0
 43 85  1  0  0  0  0
 43 86  1  0  0  0  0
 44 87  1  0  0  0  0
 44 88  1  0  0  0  0
 44 89  1  0  0  0  0
M  CHG  2   3  -1   6   1
M  END
>  <DRUGBANK_ID>
DB05790

>  <COMMON_NAME>
SR 140333

$$$$
