
 OpenBabel10282417072D

 21 22  0  0  0  0  0  0  0  0999 V2000
   -0.7142    0.8250    0.0000 C   0  0  0  0  0  0  0  0  0  0  0  0
   -1.4290   -0.4124    0.0000 C   0  0  0  0  0  0  0  0  0  0  0  0
    1.4289   -0.4124    0.0000 C   0  0  0  0  0  0  0  0  0  0  0  0
   -1.4290    0.4126    0.0000 C   0  0  0  0  0  0  0  0  0  0  0  0
    0.0003    0.4126    0.0000 C   0  0  0  0  0  0  0  0  0  0  0  0
   -0.7142   -0.8250    0.0000 C   0  0  0  0  0  0  0  0  0  0  0  0
    0.7148   -0.8250    0.0000 C   0  0  0  0  0  0  0  0  0  0  0  0
    1.4289    0.4126    0.0000 C   0  0  0  0  0  0  0  0  0  0  0  0
    0.0003   -0.4124    0.0000 C   0  0  0  0  0  0  0  0  0  0  0  0
    0.7148    0.8250    0.0000 C   0  0  0  0  0  0  0  0  0  0  0  0
   -2.1435    0.8250    0.0000 O   0  0  0  0  0  0  0  0  0  0  0  0
   -0.7142   -1.6500    0.0000 O   0  0  0  0  0  0  0  0  0  0  0  0
    0.7148   -1.6500    0.0000 O   0  0  0  0  0  0  0  0  0  0  0  0
    2.1436    0.8250    0.0000 O   0  0  0  0  0  0  0  0  0  0  0  0
    0.7148    1.6500    0.0000 O   0  0  0  0  0  0  0  0  0  0  0  0
   -0.7141    1.8570    0.0000 H   0  0  0  0  0  0  0  0  0  0  0  0
   -2.3227   -0.9284    0.0000 H   0  0  0  0  0  0  0  0  0  0  0  0
    2.3227   -0.9283    0.0000 H   0  0  0  0  0  0  0  0  0  0  0  0
   -2.1436    1.7620    0.0000 H   0  0  0  0  0  0  0  0  0  0  0  0
   -1.5257   -2.1185    0.0000 H   0  0  0  0  0  0  0  0  0  0  0  0
    2.9550    0.3563    0.0000 H   0  0  0  0  0  0  0  0  0  0  0  0
  1  4  2  0  0  0  0
  1  5  1  0  0  0  0
  1 16  1  0  0  0  0
  2  4  1  0  0  0  0
  2  6  2  0  0  0  0
  2 17  1  0  0  0  0
  3  7  1  0  0  0  0
  3  8  2  0  0  0  0
  3 18  1  0  0  0  0
  4 11  1  0  0  0  0
  5  9  2  0  0  0  0
  5 10  1  0  0  0  0
  6  9  1  0  0  0  0
  6 12  1  0  0  0  0
  7  9  1  0  0  0  0
  7 13  2  0  0  0  0
  8 10  1  0  0  0  0
  8 14  1  0  0  0  0
 10 15  2  0  0  0  0
 11 19  1  0  0  0  0
 12 20  1  0  0  0  0
 14 21  1  0  0  0  0
M  END
>  <DRUGBANK_ID>
DB02521

>  <SECONDARY_ACCESSION_NUMBERS>
EXPT01448

>  <COMMON_NAME>
Flaviolin

>  <CAS_NUMBER>
479-05-0

>  <UNII>
TH7ZC8J7OE

>  <SYNONYMS>
2,5,7-Trihydroxy-1,4-naphthalenedione; 2,5,7-trihydroxynaphthoquinone

$$$$
