664
 OpenBabel10282417072D

 31 32  0  0  0  0  0  0  0  0999 V2000
    2.4751    0.1279    0.0000 S   0  0  0  0  0  0  0  0  0  0  0  0
    1.6500    0.1279    0.0000 O   0  0  0  0  0  0  0  0  0  0  0  0
    3.3001    0.1279    0.0000 O   0  0  0  0  0  0  0  0  0  0  0  0
    2.4751    2.6029    0.0000 O   0  0  0  0  0  0  0  0  0  0  0  0
    2.4751    0.9529    0.0000 N   0  0  0  0  0  0  0  0  0  0  0  0
    3.9041    0.9529    0.0000 N   0  0  0  0  0  0  0  0  0  0  0  0
    2.4751   -3.1722    0.0000 N   0  0  0  0  0  0  0  0  0  0  0  0
    3.9041    2.6029    0.0000 N   0  0  0  0  0  0  0  0  0  0  0  0
    2.4751   -0.6971    0.0000 C   0  0  0  0  0  0  0  0  0  0  0  0
    1.7606   -1.1096    0.0000 C   0  0  0  0  0  0  0  0  0  0  0  0
    3.1895   -1.1096    0.0000 C   0  0  0  0  0  0  0  0  0  0  0  0
    3.1895    1.3654    0.0000 C   0  0  0  0  0  0  0  0  0  0  0  0
    2.4751   -2.3472    0.0000 C   0  0  0  0  0  0  0  0  0  0  0  0
    1.7606   -1.9347    0.0000 C   0  0  0  0  0  0  0  0  0  0  0  0
    3.1895   -1.9347    0.0000 C   0  0  0  0  0  0  0  0  0  0  0  0
    3.1895    2.1904    0.0000 C   0  0  0  0  0  0  0  0  0  0  0  0
    4.6185    1.3654    0.0000 C   0  0  0  0  0  0  0  0  0  0  0  0
    4.6185    2.1904    0.0000 C   0  0  0  0  0  0  0  0  0  0  0  0
    2.4751    3.4280    0.0000 C   0  0  0  0  0  0  0  0  0  0  0  0
    1.6225    1.4451    0.0000 H   0  0  0  0  0  0  0  0  0  0  0  0
    1.6225   -3.6645    0.0000 H   0  0  0  0  0  0  0  0  0  0  0  0
    3.3277   -3.6644    0.0000 H   0  0  0  0  0  0  0  0  0  0  0  0
    0.8669   -0.5936    0.0000 H   0  0  0  0  0  0  0  0  0  0  0  0
    4.0832   -0.5936    0.0000 H   0  0  0  0  0  0  0  0  0  0  0  0
    0.8669   -2.4507    0.0000 H   0  0  0  0  0  0  0  0  0  0  0  0
    4.0832   -2.4507    0.0000 H   0  0  0  0  0  0  0  0  0  0  0  0
    5.5122    0.8494    0.0000 H   0  0  0  0  0  0  0  0  0  0  0  0
    5.5122    2.7064    0.0000 H   0  0  0  0  0  0  0  0  0  0  0  0
    3.4017    3.9630    0.0000 H   0  0  0  0  0  0  0  0  0  0  0  0
    1.5485    3.9630    0.0000 H   0  0  0  0  0  0  0  0  0  0  0  0
    2.4751    4.4980    0.0000 H   0  0  0  0  0  0  0  0  0  0  0  0
  1  2  2  0  0  0  0
  1  3  2  0  0  0  0
  1  5  1  0  0  0  0
  1  9  1  0  0  0  0
  4 16  1  0  0  0  0
  4 19  1  0  0  0  0
  5 12  1  0  0  0  0
  5 20  1  0  0  0  0
  6 12  2  0  0  0  0
  6 17  1  0  0  0  0
  7 13  1  0  0  0  0
  7 21  1  0  0  0  0
  7 22  1  0  0  0  0
  8 16  2  0  0  0  0
  8 18  1  0  0  0  0
  9 10  2  0  0  0  0
  9 11  1  0  0  0  0
 10 14  1  0  0  0  0
 10 23  1  0  0  0  0
 11 15  2  0  0  0  0
 11 24  1  0  0  0  0
 12 16  1  0  0  0  0
 13 14  2  0  0  0  0
 13 15  1  0  0  0  0
 14 25  1  0  0  0  0
 15 26  1  0  0  0  0
 17 18  2  0  0  0  0
 17 27  1  0  0  0  0
 18 28  1  0  0  0  0
 19 29  1  0  0  0  0
 19 30  1  0  0  0  0
 19 31  1  0  0  0  0
M  END
>  <DRUGBANK_ID>
DB00664

>  <SECONDARY_ACCESSION_NUMBERS>
APRD00517

>  <COMMON_NAME>
Sulfametopyrazine

>  <CAS_NUMBER>
152-47-6

>  <UNII>
T6BL4ZC15G

>  <SYNONYMS>
Solfametopirazina; Sulfalene; Sulfaleno; Sulfalenum; Sulfamethopyrazine

$$$$
