
 OpenBabel10282417072D

 59 60  0  0  0  0  0  0  0  0999 V2000
   -3.2250    3.7122    0.0000 C   0  0  0  0  0  0  0  0  0  0  0  0
   -2.5087    3.3007    0.0000 C   0  0  0  0  0  0  0  0  0  0  0  0
   -2.5087    2.4758    0.0000 O   0  0  0  0  0  0  0  0  0  0  0  0
   -1.7938    2.0644    0.0000 C   0  0  0  0  0  0  0  0  0  0  0  0
   -1.0800    2.4778    0.0000 O   0  0  0  0  0  0  0  0  0  0  0  0
   -1.7938    1.2394    0.0000 C   0  0  2  0  0  0  0  0  0  0  0  0
   -2.5064    0.8259    0.0000 C   0  0  0  0  0  0  0  0  0  0  0  0
   -1.0763    0.8279    0.0000 C   0  0  0  0  0  0  0  0  0  0  0  0
   -1.0763    0.0030    0.0000 C   0  0  2  0  0  0  0  0  0  0  0  0
   -1.7891   -0.4104    0.0000 N   0  0  0  0  0  0  0  0  0  0  0  0
   -1.7891   -1.2353    0.0000 C   0  0  0  0  0  0  0  0  0  0  0  0
   -1.0740   -1.6468    0.0000 O   0  0  0  0  0  0  0  0  0  0  0  0
   -2.5028   -1.6488    0.0000 C   0  0  0  0  0  0  0  0  0  0  0  0
   -2.5028   -2.4738    0.0000 C   0  0  0  0  0  0  0  0  0  0  0  0
   -3.2154   -2.8872    0.0000 C   0  0  0  0  0  0  0  0  0  0  0  0
   -3.2154   -3.7122    0.0000 O   0  0  0  0  0  0  0  0  0  0  0  0
   -3.9305   -2.4758    0.0000 O   0  0  0  0  0  0  0  0  0  0  0  0
   -0.3613   -0.4083    0.0000 C   0  0  0  0  0  0  0  0  0  0  0  0
    0.3523    0.0050    0.0000 C   0  0  0  0  0  0  0  0  0  0  0  0
    0.3523    0.8343    0.0000 C   0  0  0  0  0  0  0  0  0  0  0  0
    1.0680    1.2531    0.0000 C   0  0  0  0  0  0  0  0  0  0  0  0
    1.7835    0.8343    0.0000 C   0  0  0  0  0  0  0  0  0  0  0  0
    2.4992    1.2447    0.0000 C   0  0  0  0  0  0  0  0  0  0  0  0
    3.2149    0.8259    0.0000 C   0  0  0  0  0  0  0  0  0  0  0  0
    3.9305    1.2447    0.0000 C   0  0  0  0  0  0  0  0  0  0  0  0
    3.9305    2.0739    0.0000 C   0  0  0  0  0  0  0  0  0  0  0  0
    3.2149    2.4844    0.0000 C   0  0  0  0  0  0  0  0  0  0  0  0
    2.4992    2.0739    0.0000 C   0  0  0  0  0  0  0  0  0  0  0  0
    1.7835    0.0050    0.0000 C   0  0  0  0  0  0  0  0  0  0  0  0
    1.0680   -0.4053    0.0000 C   0  0  0  0  0  0  0  0  0  0  0  0
   -3.2273    4.7822    0.0000 H   0  0  0  0  0  0  0  0  0  0  0  0
   -4.1505    3.1752    0.0000 H   0  0  0  0  0  0  0  0  0  0  0  0
   -4.1528    4.2452    0.0000 H   0  0  0  0  0  0  0  0  0  0  0  0
   -1.5826    3.8367    0.0000 H   0  0  0  0  0  0  0  0  0  0  0  0
   -1.5818    2.7662    0.0000 H   0  0  0  0  0  0  0  0  0  0  0  0
   -2.7210    1.7734    0.0000 H   0  0  0  0  0  0  0  0  0  0  0  0
   -3.4342    1.3589    0.0000 H   0  0  0  0  0  0  0  0  0  0  0  0
   -2.5041   -0.2441    0.0000 H   0  0  0  0  0  0  0  0  0  0  0  0
   -3.4319    0.2889    0.0000 H   0  0  0  0  0  0  0  0  0  0  0  0
   -0.1504    1.3642    0.0000 H   0  0  0  0  0  0  0  0  0  0  0  0
   -0.1493    0.2936    0.0000 H   0  0  0  0  0  0  0  0  0  0  0  0
   -2.0035    0.5371    0.0000 H   0  0  0  0  0  0  0  0  0  0  0  0
   -2.6422    0.0810    0.0000 H   0  0  0  0  0  0  0  0  0  0  0  0
   -3.4299   -1.1145    0.0000 H   0  0  0  0  0  0  0  0  0  0  0  0
   -3.4292   -2.1842    0.0000 H   0  0  0  0  0  0  0  0  0  0  0  0
   -1.5756   -3.0078    0.0000 H   0  0  0  0  0  0  0  0  0  0  0  0
   -2.5011   -3.5438    0.0000 H   0  0  0  0  0  0  0  0  0  0  0  0
   -4.0269   -4.1807    0.0000 H   0  0  0  0  0  0  0  0  0  0  0  0
   -0.3597   -1.4783    0.0000 H   0  0  0  0  0  0  0  0  0  0  0  0
    0.5661   -0.9420    0.0000 H   0  0  0  0  0  0  0  0  0  0  0  0
   -0.5429    1.3477    0.0000 H   0  0  0  0  0  0  0  0  0  0  0  0
    1.0681    2.2851    0.0000 H   0  0  0  0  0  0  0  0  0  0  0  0
    3.2149   -0.2061    0.0000 H   0  0  0  0  0  0  0  0  0  0  0  0
    4.8258    0.7313    0.0000 H   0  0  0  0  0  0  0  0  0  0  0  0
    4.8235    2.5911    0.0000 H   0  0  0  0  0  0  0  0  0  0  0  0
    3.2149    3.5164    0.0000 H   0  0  0  0  0  0  0  0  0  0  0  0
    1.6062    2.5912    0.0000 H   0  0  0  0  0  0  0  0  0  0  0  0
    2.6765   -0.5123    0.0000 H   0  0  0  0  0  0  0  0  0  0  0  0
    1.0681   -1.4373    0.0000 H   0  0  0  0  0  0  0  0  0  0  0  0
  1 31  1  0  0  0  0
  1 32  1  0  0  0  0
  1 33  1  0  0  0  0
  2  1  1  0  0  0  0
  2 34  1  0  0  0  0
  2 35  1  0  0  0  0
  3  2  1  0  0  0  0
  4  3  1  0  0  0  0
  4  5  2  0  0  0  0
  4  6  1  0  0  0  0
  6  7  1  0  0  0  0
  6  8  1  0  0  0  0
  6 36  1  6  0  0  0
  7 37  1  0  0  0  0
  7 38  1  0  0  0  0
  7 39  1  0  0  0  0
  8 40  1  0  0  0  0
  8 41  1  0  0  0  0
  9  8  1  0  0  0  0
  9 18  1  0  0  0  0
  9 42  1  6  0  0  0
 10  9  1  0  0  0  0
 10 43  1  0  0  0  0
 11 10  1  0  0  0  0
 11 12  2  0  0  0  0
 11 13  1  0  0  0  0
 13 14  1  0  0  0  0
 13 44  1  0  0  0  0
 13 45  1  0  0  0  0
 14 46  1  0  0  0  0
 14 47  1  0  0  0  0
 15 14  1  0  0  0  0
 15 16  1  0  0  0  0
 15 17  2  0  0  0  0
 16 48  1  0  0  0  0
 18 49  1  0  0  0  0
 18 50  1  0  0  0  0
 19 18  1  0  0  0  0
 19 20  1  0  0  0  0
 20 21  2  0  0  0  0
 20 51  1  0  0  0  0
 21 52  1  0  0  0  0
 22 21  1  0  0  0  0
 22 23  1  0  0  0  0
 22 29  2  0  0  0  0
 23 24  1  0  0  0  0
 23 28  2  0  0  0  0
 24 53  1  0  0  0  0
 25 24  2  0  0  0  0
 25 54  1  0  0  0  0
 26 25  1  0  0  0  0
 26 55  1  0  0  0  0
 27 26  2  0  0  0  0
 27 56  1  0  0  0  0
 28 27  1  0  0  0  0
 28 57  1  0  0  0  0
 29 30  1  0  0  0  0
 29 58  1  0  0  0  0
 30 19  2  0  0  0  0
 30 59  1  0  0  0  0
M  END
>  <DRUGBANK_ID>
DB09292

>  <COMMON_NAME>
Sacubitril

>  <CAS_NUMBER>
149709-62-6

>  <UNII>
17ERJ0MKGI

>  <SYNONYMS>
Sacubitril; Sacubitrilo

$$$$
