
 OpenBabel10282417072D

 71 75  0  0  0  0  0  0  0  0999 V2000
    1.2562   -1.2336    0.0000 P   0  0  3  0  0  0  0  0  0  0  0  0
    0.7713   -0.5662    0.0000 O   0  0  0  0  0  0  0  0  0  0  0  0
    1.7412   -1.9011    0.0000 O   0  0  0  0  0  0  0  0  0  0  0  0
    1.9237   -0.7487    0.0000 O   0  0  0  0  0  0  0  0  0  0  0  0
    2.6773   -1.0843    0.0000 C   0  0  0  0  0  0  0  0  0  0  0  0
    3.3448   -0.5993    0.0000 C   0  0  1  0  0  0  0  0  0  0  0  0
    3.3448    0.2256    0.0000 O   0  0  0  0  0  0  0  0  0  0  0  0
    4.1294   -0.8543    0.0000 C   0  0  1  0  0  0  0  0  0  0  0  0
    4.3843   -1.6389    0.0000 O   0  0  0  0  0  0  0  0  0  0  0  0
    4.6143   -0.1868    0.0000 C   0  0  1  0  0  0  0  0  0  0  0  0
    5.4393   -0.1868    0.0000 O   0  0  0  0  0  0  0  0  0  0  0  0
    4.1294    0.4806    0.0000 C   0  0  2  0  0  0  0  0  0  0  0  0
    4.3843    1.2652    0.0000 N   0  0  0  0  0  0  0  0  0  0  0  0
    3.8994    1.9327    0.0000 C   0  0  0  0  0  0  0  0  0  0  0  0
    4.3843    2.6001    0.0000 N   0  0  0  0  0  0  0  0  0  0  0  0
    5.1690    2.3452    0.0000 C   0  0  0  0  0  0  0  0  0  0  0  0
    5.8834    2.7577    0.0000 C   0  0  0  0  0  0  0  0  0  0  0  0
    5.8834    3.5827    0.0000 N   0  0  0  0  0  0  0  0  0  0  0  0
    6.5979    2.3452    0.0000 N   0  0  0  0  0  0  0  0  0  0  0  0
    6.5979    1.5202    0.0000 C   0  0  0  0  0  0  0  0  0  0  0  0
    5.8834    1.1076    0.0000 N   0  0  0  0  0  0  0  0  0  0  0  0
    5.1690    1.5202    0.0000 C   0  0  0  0  0  0  0  0  0  0  0  0
    0.5888   -1.7185    0.0000 O   0  0  0  0  0  0  0  0  0  0  0  0
   -0.1648   -1.3830    0.0000 P   0  0  3  0  0  0  0  0  0  0  0  0
    0.1707   -0.6293    0.0000 O   0  0  0  0  0  0  0  0  0  0  0  0
   -0.5003   -2.1367    0.0000 O   0  5  0  0  0  0  0  0  0  0  0  0
   -0.9185   -1.0474    0.0000 O   0  0  0  0  0  0  0  0  0  0  0  0
   -1.5859   -1.5324    0.0000 C   0  0  0  0  0  0  0  0  0  0  0  0
   -2.3396   -1.1968    0.0000 C   0  0  1  0  0  0  0  0  0  0  0  0
   -3.0540   -1.6093    0.0000 O   0  0  0  0  0  0  0  0  0  0  0  0
   -2.5111   -0.3898    0.0000 C   0  0  1  0  0  0  0  0  0  0  0  0
   -1.9591    0.2233    0.0000 O   0  0  0  0  0  0  0  0  0  0  0  0
   -3.3316   -0.3036    0.0000 C   0  0  1  0  0  0  0  0  0  0  0  0
   -3.7441    0.4109    0.0000 O   0  0  0  0  0  0  0  0  0  0  0  0
   -3.6671   -1.0573    0.0000 C   0  0  2  0  0  0  0  0  0  0  0  0
   -4.4741   -1.2288    0.0000 C   0  0  0  0  0  0  0  0  0  0  0  0
   -4.7290   -2.0134    0.0000 C   0  0  0  0  0  0  0  0  0  0  0  0
   -5.5360   -2.1849    0.0000 C   0  0  0  0  0  0  0  0  0  0  0  0
   -5.7910   -2.9695    0.0000 C   0  0  0  0  0  0  0  0  0  0  0  0
   -6.5979   -3.1410    0.0000 O   0  0  0  0  0  0  0  0  0  0  0  0
   -5.2389   -3.5827    0.0000 N   0  0  0  0  0  0  0  0  0  0  0  0
   -6.0881   -1.5718    0.0000 C   0  0  0  0  0  0  0  0  0  0  0  0
   -5.8331   -0.7872    0.0000 N   0  3  0  0  0  0  0  0  0  0  0  0
   -5.0261   -0.6157    0.0000 C   0  0  0  0  0  0  0  0  0  0  0  0
    1.3467   -2.7873    0.0000 H   0  0  0  0  0  0  0  0  0  0  0  0
    2.7891   -2.1484    0.0000 H   0  0  0  0  0  0  0  0  0  0  0  0
    3.6548   -1.5195    0.0000 H   0  0  0  0  0  0  0  0  0  0  0  0
    2.3914   -0.1135    0.0000 H   0  0  0  0  0  0  0  0  0  0  0  0
    3.3728   -1.6109    0.0000 H   0  0  0  0  0  0  0  0  0  0  0  0
    3.7352   -2.3597    0.0000 H   0  0  0  0  0  0  0  0  0  0  0  0
    5.1001   -1.1402    0.0000 H   0  0  0  0  0  0  0  0  0  0  0  0
    5.9243   -1.0268    0.0000 H   0  0  0  0  0  0  0  0  0  0  0  0
    3.3728    1.2372    0.0000 H   0  0  0  0  0  0  0  0  0  0  0  0
    2.8674    1.9327    0.0000 H   0  0  0  0  0  0  0  0  0  0  0  0
    6.7360    4.0750    0.0000 H   0  0  0  0  0  0  0  0  0  0  0  0
    5.0308    4.0750    0.0000 H   0  0  0  0  0  0  0  0  0  0  0  0
    7.4917    1.0042    0.0000 H   0  0  0  0  0  0  0  0  0  0  0  0
   -1.4740   -2.5965    0.0000 H   0  0  0  0  0  0  0  0  0  0  0  0
   -2.4515   -2.1613    0.0000 H   0  0  0  0  0  0  0  0  0  0  0  0
   -2.2836   -2.2653    0.0000 H   0  0  0  0  0  0  0  0  0  0  0  0
   -1.4776   -0.6667    0.0000 H   0  0  0  0  0  0  0  0  0  0  0  0
   -1.0103    0.0217    0.0000 H   0  0  0  0  0  0  0  0  0  0  0  0
   -2.7488    0.5938    0.0000 H   0  0  0  0  0  0  0  0  0  0  0  0
   -3.2591    1.2509    0.0000 H   0  0  0  0  0  0  0  0  0  0  0  0
   -3.9440   -2.0908    0.0000 H   0  0  0  0  0  0  0  0  0  0  0  0
   -4.0385   -2.7803    0.0000 H   0  0  0  0  0  0  0  0  0  0  0  0
   -5.5432   -4.5190    0.0000 H   0  0  0  0  0  0  0  0  0  0  0  0
   -4.2759   -3.3780    0.0000 H   0  0  0  0  0  0  0  0  0  0  0  0
   -7.0976   -1.7864    0.0000 H   0  0  0  0  0  0  0  0  0  0  0  0
   -6.4918   -0.0555    0.0000 H   0  0  0  0  0  0  0  0  0  0  0  0
   -4.7072    0.3658    0.0000 H   0  0  0  0  0  0  0  0  0  0  0  0
  1  3  1  0  0  0  0
  1  4  1  0  0  0  0
  2  1  2  0  0  0  0
  3 45  1  0  0  0  0
  5  4  1  0  0  0  0
  5 46  1  0  0  0  0
  5 47  1  0  0  0  0
  6  5  1  0  0  0  0
  6  7  1  0  0  0  0
  6 48  1  6  0  0  0
  8  6  1  0  0  0  0
  8  9  1  0  0  0  0
  8 49  1  1  0  0  0
  9 50  1  0  0  0  0
 10  8  1  0  0  0  0
 10 11  1  0  0  0  0
 10 51  1  1  0  0  0
 11 52  1  0  0  0  0
 12  7  1  0  0  0  0
 12 10  1  0  0  0  0
 12 13  1  0  0  0  0
 12 53  1  6  0  0  0
 14 13  1  0  0  0  0
 14 15  2  0  0  0  0
 14 54  1  0  0  0  0
 16 15  1  0  0  0  0
 16 17  1  0  0  0  0
 17 18  1  0  0  0  0
 17 19  2  0  0  0  0
 18 55  1  0  0  0  0
 18 56  1  0  0  0  0
 20 19  1  0  0  0  0
 20 21  2  0  0  0  0
 20 57  1  0  0  0  0
 22 13  1  0  0  0  0
 22 16  2  0  0  0  0
 22 21  1  0  0  0  0
 23  1  1  0  0  0  0
 24 23  1  0  0  0  0
 24 26  1  0  0  0  0
 25 24  2  0  0  0  0
 27 24  1  0  0  0  0
 28 27  1  0  0  0  0
 28 58  1  0  0  0  0
 28 59  1  0  0  0  0
 29 28  1  0  0  0  0
 29 30  1  0  0  0  0
 29 60  1  6  0  0  0
 31 29  1  0  0  0  0
 31 32  1  0  0  0  0
 31 61  1  1  0  0  0
 32 62  1  0  0  0  0
 33 31  1  0  0  0  0
 33 34  1  0  0  0  0
 33 63  1  1  0  0  0
 34 64  1  0  0  0  0
 35 30  1  0  0  0  0
 35 33  1  0  0  0  0
 35 36  1  0  0  0  0
 35 65  1  6  0  0  0
 36 37  2  0  0  0  0
 36 44  1  0  0  0  0
 37 38  1  0  0  0  0
 37 66  1  0  0  0  0
 38 39  1  0  0  0  0
 38 42  2  0  0  0  0
 39 40  2  0  0  0  0
 39 41  1  0  0  0  0
 41 67  1  0  0  0  0
 41 68  1  0  0  0  0
 42 43  1  0  0  0  0
 42 69  1  0  0  0  0
 43 70  1  0  0  0  0
 44 43  2  0  0  0  0
 44 71  1  0  0  0  0
M  CHG  2  26  -1  43   1
M  END
>  <DRUGBANK_ID>
DB03020

>  <SECONDARY_ACCESSION_NUMBERS>
EXPT00966

>  <COMMON_NAME>
5-beta-D-ribofuranosylnicotinamide adenine dinucleotide

$$$$
