
 OpenBabel10282417072D

 52 54  0  0  0  0  0  0  0  0999 V2000
    0.7145   -2.6664    0.0000 C   0  0  0  0  0  0  0  0  0  0  0  0
    0.3020   -1.9520    0.0000 C   0  0  0  0  0  0  0  0  0  0  0  0
   -0.5230   -1.9520    0.0000 C   0  0  0  0  0  0  0  0  0  0  0  0
    0.7145   -1.2375    0.0000 C   0  0  3  0  0  0  0  0  0  0  0  0
    1.5395   -1.2375    0.0000 C   0  0  0  0  0  0  0  0  0  0  0  0
    1.9520   -0.5230    0.0000 O   0  0  0  0  0  0  0  0  0  0  0  0
    1.9520   -1.9520    0.0000 O   0  0  0  0  0  0  0  0  0  0  0  0
    2.7770   -1.9520    0.0000 C   0  0  3  0  0  0  0  0  0  0  0  0
    3.1895   -1.2375    0.0000 C   0  0  0  0  0  0  0  0  0  0  0  0
    3.6020   -0.5230    0.0000 N   0  0  0  0  0  0  0  0  0  0  0  0
    3.1895   -2.6664    0.0000 C   0  0  0  0  0  0  0  0  0  0  0  0
    4.0145   -2.6664    0.0000 C   0  0  0  0  0  0  0  0  0  0  0  0
    4.4270   -3.3809    0.0000 C   0  0  0  0  0  0  0  0  0  0  0  0
    4.0145   -4.0954    0.0000 C   0  0  0  0  0  0  0  0  0  0  0  0
    3.1895   -4.0954    0.0000 C   0  0  0  0  0  0  0  0  0  0  0  0
    2.7770   -4.8099    0.0000 O   0  0  0  0  0  0  0  0  0  0  0  0
    3.1895   -5.5243    0.0000 C   0  0  0  0  0  0  0  0  0  0  0  0
    4.0145   -5.5243    0.0000 C   0  0  0  0  0  0  0  0  0  0  0  0
    4.4270   -6.2388    0.0000 C   0  0  0  0  0  0  0  0  0  0  0  0
    4.0145   -6.9533    0.0000 C   0  0  0  0  0  0  0  0  0  0  0  0
    3.1895   -6.9533    0.0000 C   0  0  0  0  0  0  0  0  0  0  0  0
    2.7770   -6.2388    0.0000 C   0  0  0  0  0  0  0  0  0  0  0  0
    2.7770   -3.3809    0.0000 C   0  0  0  0  0  0  0  0  0  0  0  0
    0.3020   -0.5230    0.0000 C   0  0  0  0  0  0  0  0  0  0  0  0
   -0.5230   -0.5230    0.0000 C   0  0  0  0  0  0  0  0  0  0  0  0
   -0.9355    0.1914    0.0000 C   0  0  0  0  0  0  0  0  0  0  0  0
   -0.5230    0.9059    0.0000 C   0  0  0  0  0  0  0  0  0  0  0  0
   -0.9355    1.6204    0.0000 Cl  0  0  0  0  0  0  0  0  0  0  0  0
    0.3020    0.9059    0.0000 C   0  0  0  0  0  0  0  0  0  0  0  0
    0.7145    0.1914    0.0000 C   0  0  0  0  0  0  0  0  0  0  0  0
    0.1795   -3.5931    0.0000 H   0  0  0  0  0  0  0  0  0  0  0  0
    1.7845   -2.6664    0.0000 H   0  0  0  0  0  0  0  0  0  0  0  0
    1.2495   -3.5930    0.0000 H   0  0  0  0  0  0  0  0  0  0  0  0
   -0.2330   -1.0254    0.0000 H   0  0  0  0  0  0  0  0  0  0  0  0
   -1.0580   -1.0254    0.0000 H   0  0  0  0  0  0  0  0  0  0  0  0
   -1.0580   -2.8786    0.0000 H   0  0  0  0  0  0  0  0  0  0  0  0
   -1.5930   -1.9520    0.0000 H   0  0  0  0  0  0  0  0  0  0  0  0
    1.2495   -2.1641    0.0000 H   0  0  0  0  0  0  0  0  0  0  0  0
    2.2420   -1.0254    0.0000 H   0  0  0  0  0  0  0  0  0  0  0  0
    4.5305   -1.7727    0.0000 H   0  0  0  0  0  0  0  0  0  0  0  0
    5.4590   -3.3809    0.0000 H   0  0  0  0  0  0  0  0  0  0  0  0
    4.5305   -4.9891    0.0000 H   0  0  0  0  0  0  0  0  0  0  0  0
    4.5305   -4.6306    0.0000 H   0  0  0  0  0  0  0  0  0  0  0  0
    5.4590   -6.2388    0.0000 H   0  0  0  0  0  0  0  0  0  0  0  0
    4.5305   -7.8470    0.0000 H   0  0  0  0  0  0  0  0  0  0  0  0
    2.6735   -7.8470    0.0000 H   0  0  0  0  0  0  0  0  0  0  0  0
    1.7450   -6.2388    0.0000 H   0  0  0  0  0  0  0  0  0  0  0  0
    1.7450   -3.3809    0.0000 H   0  0  0  0  0  0  0  0  0  0  0  0
   -1.0390   -1.4167    0.0000 H   0  0  0  0  0  0  0  0  0  0  0  0
   -1.9675    0.1914    0.0000 H   0  0  0  0  0  0  0  0  0  0  0  0
    0.8180    1.7996    0.0000 H   0  0  0  0  0  0  0  0  0  0  0  0
    1.7465    0.1914    0.0000 H   0  0  0  0  0  0  0  0  0  0  0  0
  1  2  1  0  0  0  0
  1 31  1  0  0  0  0
  1 32  1  0  0  0  0
  1 33  1  0  0  0  0
  2  3  1  0  0  0  0
  2  4  1  0  0  0  0
  2 34  1  0  0  0  0
  3 35  1  0  0  0  0
  3 36  1  0  0  0  0
  3 37  1  0  0  0  0
  4  5  1  0  0  0  0
  4 24  1  0  0  0  0
  4 38  1  0  0  0  0
  5  6  2  0  0  0  0
  5  7  1  0  0  0  0
  7  8  1  0  0  0  0
  8  9  1  0  0  0  0
  8 11  1  0  0  0  0
  8 39  1  0  0  0  0
  9 10  3  0  0  0  0
 11 12  2  0  0  0  0
 11 23  1  0  0  0  0
 12 13  1  0  0  0  0
 12 40  1  0  0  0  0
 13 14  2  0  0  0  0
 13 41  1  0  0  0  0
 14 15  1  0  0  0  0
 14 42  1  0  0  0  0
 15 16  1  0  0  0  0
 15 23  2  0  0  0  0
 16 17  1  0  0  0  0
 17 18  2  0  0  0  0
 17 22  1  0  0  0  0
 18 19  1  0  0  0  0
 18 43  1  0  0  0  0
 19 20  2  0  0  0  0
 19 44  1  0  0  0  0
 20 21  1  0  0  0  0
 20 45  1  0  0  0  0
 21 22  2  0  0  0  0
 21 46  1  0  0  0  0
 22 47  1  0  0  0  0
 23 48  1  0  0  0  0
 24 25  2  0  0  0  0
 24 30  1  0  0  0  0
 25 26  1  0  0  0  0
 25 49  1  0  0  0  0
 26 27  2  0  0  0  0
 26 50  1  0  0  0  0
 27 28  1  0  0  0  0
 27 29  1  0  0  0  0
 29 30  2  0  0  0  0
 29 51  1  0  0  0  0
 30 52  1  0  0  0  0
M  END
>  <DRUGBANK_ID>
DB18391

>  <COMMON_NAME>
Fenvalerate

>  <CAS_NUMBER>
51630-58-1

>  <UNII>
Z6MXZ39302

>  <SYNONYMS>
(.alpha.rs)-.alpha.-cyano-3-phenoxybenzyl (2rs)-2-(4-chlorophenyl)-3-methylbutyrate; (rs)-.alpha.-cyano-3-phenoxybenzyl (rs)-2-(4-chloro-phenyl)-3-methylbutyrate; Belmark; Benzeneacetic acid, 4-chloro-.alpha.-(1-methylethyl)-, cyano(3-phenoxyphenyl)methyl ester; Cyano(3-phenoxyphenyl)methyl 4-chloro-.alpha.-(1-methylethyl)benzeneacetate; methyl (R)-4-((3S,5R,7R,8R,9S,10S,13R,14S,17R)-7-hydroxy-10,13-dimethyl-3-((4-((pyridin-3- ylmethyl)amino)butyl)amino)hexadecahydro-1H-cyclopenta[a]phenanthren-17-yl)pentanoate; Phenvalerate; Pydrin; Pyridin; Sumicidin; Tirade

$$$$
