
 OpenBabel10282417072D

 43 44  0  0  0  0  0  0  0  0999 V2000
   -1.7837    0.8211    0.0000 C   0  0  0  0  0  0  0  0  0  0  0  0
   -2.4988    0.4125    0.0000 C   0  0  0  0  0  0  0  0  0  0  0  0
   -2.4988   -0.4125    0.0000 C   0  0  0  0  0  0  0  0  0  0  0  0
   -1.7837   -0.8290    0.0000 C   0  0  0  0  0  0  0  0  0  0  0  0
   -1.0686   -0.4125    0.0000 C   0  0  0  0  0  0  0  0  0  0  0  0
   -1.0686    0.4125    0.0000 C   0  0  0  0  0  0  0  0  0  0  0  0
   -1.7837    1.6462    0.0000 O   0  0  0  0  0  0  0  0  0  0  0  0
   -2.4988    2.0626    0.0000 C   0  0  0  0  0  0  0  0  0  0  0  0
   -1.7837   -1.6541    0.0000 O   0  0  0  0  0  0  0  0  0  0  0  0
   -2.4988   -2.0626    0.0000 C   0  0  0  0  0  0  0  0  0  0  0  0
   -3.2137   -0.8290    0.0000 C   0  0  0  0  0  0  0  0  0  0  0  0
   -3.9288   -1.2375    0.0000 N   0  0  0  0  0  0  0  0  0  0  0  0
   -0.3535    0.8211    0.0000 C   0  0  0  0  0  0  0  0  0  0  0  0
    0.3536    0.4125    0.0000 C   0  0  0  0  0  0  0  0  0  0  0  0
    1.0687    0.8211    0.0000 N   0  0  0  0  0  0  0  0  0  0  0  0
    1.7837    0.4125    0.0000 C   0  0  0  0  0  0  0  0  0  0  0  0
    2.4988    0.8211    0.0000 C   0  0  0  0  0  0  0  0  0  0  0  0
    3.2138    0.4125    0.0000 C   0  0  0  0  0  0  0  0  0  0  0  0
    3.9288    0.8211    0.0000 C   0  0  0  0  0  0  0  0  0  0  0  0
    3.9288    1.6462    0.0000 C   0  0  0  0  0  0  0  0  0  0  0  0
    3.2138    2.0626    0.0000 C   0  0  0  0  0  0  0  0  0  0  0  0
    2.4988    1.6462    0.0000 C   0  0  0  0  0  0  0  0  0  0  0  0
    3.2138   -0.4125    0.0000 O   0  0  0  0  0  0  0  0  0  0  0  0
   -3.3914    0.9305    0.0000 H   0  0  0  0  0  0  0  0  0  0  0  0
   -0.1739   -0.9268    0.0000 H   0  0  0  0  0  0  0  0  0  0  0  0
   -2.4948    3.1326    0.0000 H   0  0  0  0  0  0  0  0  0  0  0  0
   -3.4274    1.5310    0.0000 H   0  0  0  0  0  0  0  0  0  0  0  0
   -3.4235    2.6010    0.0000 H   0  0  0  0  0  0  0  0  0  0  0  0
   -3.4230   -1.5234    0.0000 H   0  0  0  0  0  0  0  0  0  0  0  0
   -2.5037   -3.1326    0.0000 H   0  0  0  0  0  0  0  0  0  0  0  0
   -3.4279   -2.5933    0.0000 H   0  0  0  0  0  0  0  0  0  0  0  0
   -0.3509    1.8911    0.0000 H   0  0  0  0  0  0  0  0  0  0  0  0
    0.5739    1.3548    0.0000 H   0  0  0  0  0  0  0  0  0  0  0  0
    0.3510   -0.6575    0.0000 H   0  0  0  0  0  0  0  0  0  0  0  0
    1.2784   -0.1257    0.0000 H   0  0  0  0  0  0  0  0  0  0  0  0
    1.0687    1.8411    0.0000 H   0  0  0  0  0  0  0  0  0  0  0  0
    1.7837   -0.6575    0.0000 H   0  0  0  0  0  0  0  0  0  0  0  0
    2.7091   -0.1246    0.0000 H   0  0  0  0  0  0  0  0  0  0  0  0
    4.8214    0.3031    0.0000 H   0  0  0  0  0  0  0  0  0  0  0  0
    4.8235    2.1605    0.0000 H   0  0  0  0  0  0  0  0  0  0  0  0
    3.2138    3.0946    0.0000 H   0  0  0  0  0  0  0  0  0  0  0  0
    1.6041    2.1605    0.0000 H   0  0  0  0  0  0  0  0  0  0  0  0
    2.4023   -0.8810    0.0000 H   0  0  0  0  0  0  0  0  0  0  0  0
  1  2  2  0  0  0  0
  1  6  1  0  0  0  0
  1  7  1  0  0  0  0
  2  3  1  0  0  0  0
  2 24  1  0  0  0  0
  3  4  2  0  0  0  0
  3 11  1  0  0  0  0
  4  5  1  0  0  0  0
  4  9  1  0  0  0  0
  5  6  2  0  0  0  0
  5 25  1  0  0  0  0
  6 13  1  0  0  0  0
  7  8  1  0  0  0  0
  8 26  1  0  0  0  0
  8 27  1  0  0  0  0
  8 28  1  0  0  0  0
  9 10  1  0  0  0  0
 10 29  1  0  0  0  0
 10 30  1  0  0  0  0
 10 31  1  0  0  0  0
 11 12  3  0  0  0  0
 13 14  1  0  0  0  0
 13 32  1  0  0  0  0
 13 33  1  0  0  0  0
 14 15  1  0  0  0  0
 14 34  1  0  0  0  0
 14 35  1  0  0  0  0
 15 16  1  0  0  0  0
 15 36  1  0  0  0  0
 16 17  1  0  0  0  0
 16 37  1  0  0  0  0
 16 38  1  0  0  0  0
 17 18  2  0  0  0  0
 17 22  1  0  0  0  0
 18 19  1  0  0  0  0
 18 23  1  0  0  0  0
 19 20  2  0  0  0  0
 19 39  1  0  0  0  0
 20 21  1  0  0  0  0
 20 40  1  0  0  0  0
 21 22  2  0  0  0  0
 21 41  1  0  0  0  0
 22 42  1  0  0  0  0
 23 43  1  0  0  0  0
M  END
>  <DRUGBANK_ID>
DB13948

>  <COMMON_NAME>
N-(2-hydroxybenzyl)-2,5-dimethoxy-4-cyanophenylethylamine

>  <CAS_NUMBER>
1391489-32-9

>  <UNII>
32CN2DQE3Q

>  <SYNONYMS>
25CN-NBOH; NBOH-2C-CN

$$$$
