
 OpenBabel10282417072D

 35 38  0  0  0  0  0  0  0  0999 V2000
   -1.6089    0.3918    0.0000 C   0  0  0  0  0  0  0  0  0  0  0  0
   -1.6089   -0.4332    0.0000 C   0  0  0  0  0  0  0  0  0  0  0  0
   -0.9076   -0.8457    0.0000 C   0  0  0  0  0  0  0  0  0  0  0  0
   -0.2062   -0.4332    0.0000 C   0  0  0  0  0  0  0  0  0  0  0  0
   -0.2062    0.3918    0.0000 C   0  0  0  0  0  0  0  0  0  0  0  0
   -0.9076    0.8044    0.0000 C   0  0  0  0  0  0  0  0  0  0  0  0
    0.5776   -0.6807    0.0000 N   0  0  0  0  0  0  0  0  0  0  0  0
    1.0726   -0.0206    0.0000 C   0  0  0  0  0  0  0  0  0  0  0  0
    0.5776    0.6394    0.0000 C   0  0  0  0  0  0  0  0  0  0  0  0
    1.8977   -0.0206    0.0000 C   0  0  3  0  0  0  0  0  0  0  0  0
   -2.3103    0.8044    0.0000 C   0  0  0  0  0  0  0  0  0  0  0  0
    1.0313    1.4233    0.0000 C   0  0  0  0  0  0  0  0  0  0  0  0
    2.3103    0.7219    0.0000 C   0  0  0  0  0  0  0  0  0  0  0  0
    1.8564    1.4233    0.0000 C   0  0  0  0  0  0  0  0  0  0  0  0
    1.0313   -1.4233    0.0000 C   0  0  0  0  0  0  0  0  0  0  0  0
    1.8564   -1.4233    0.0000 C   0  0  0  0  0  0  0  0  0  0  0  0
    2.2690   -0.7219    0.0000 N   0  0  0  0  0  0  0  0  0  0  0  0
   -2.5047   -0.9456    0.0000 H   0  0  0  0  0  0  0  0  0  0  0  0
   -0.9076   -1.8777    0.0000 H   0  0  0  0  0  0  0  0  0  0  0  0
   -0.9076    1.8364    0.0000 H   0  0  0  0  0  0  0  0  0  0  0  0
    1.3551    0.9016    0.0000 H   0  0  0  0  0  0  0  0  0  0  0  0
   -2.3016    1.8744    0.0000 H   0  0  0  0  0  0  0  0  0  0  0  0
   -3.2413    0.2770    0.0000 H   0  0  0  0  0  0  0  0  0  0  0  0
   -3.2326    1.3469    0.0000 H   0  0  0  0  0  0  0  0  0  0  0  0
    0.4968    2.3502    0.0000 H   0  0  0  0  0  0  0  0  0  0  0  0
    1.5665    2.3498    0.0000 H   0  0  0  0  0  0  0  0  0  0  0  0
    3.3797    0.7578    0.0000 H   0  0  0  0  0  0  0  0  0  0  0  0
    2.8058    1.6703    0.0000 H   0  0  0  0  0  0  0  0  0  0  0  0
    2.3677    2.3632    0.0000 H   0  0  0  0  0  0  0  0  0  0  0  0
    1.3097    2.3431    0.0000 H   0  0  0  0  0  0  0  0  0  0  0  0
    0.5079   -2.3565    0.0000 H   0  0  0  0  0  0  0  0  0  0  0  0
    1.5720   -2.3466    0.0000 H   0  0  0  0  0  0  0  0  0  0  0  0
    2.3876   -2.3521    0.0000 H   0  0  0  0  0  0  0  0  0  0  0  0
    2.9264   -1.4298    0.0000 H   0  0  0  0  0  0  0  0  0  0  0  0
    3.2887   -0.7448    0.0000 H   0  0  0  0  0  0  0  0  0  0  0  0
  1  2  2  0  0  0  0
  1  6  1  0  0  0  0
  1 11  1  0  0  0  0
  2  3  1  0  0  0  0
  2 18  1  0  0  0  0
  3  4  2  0  0  0  0
  3 19  1  0  0  0  0
  4  5  1  0  0  0  0
  4  7  1  0  0  0  0
  5  6  2  0  0  0  0
  5  9  1  0  0  0  0
  6 20  1  0  0  0  0
  7  8  1  0  0  0  0
  7 15  1  0  0  0  0
  8  9  2  0  0  0  0
  8 10  1  0  0  0  0
 10 13  1  0  0  0  0
 10 21  1  0  0  0  0
 11 22  1  0  0  0  0
 11 23  1  0  0  0  0
 11 24  1  0  0  0  0
 12  9  1  0  0  0  0
 12 14  1  0  0  0  0
 12 25  1  0  0  0  0
 12 26  1  0  0  0  0
 13 14  1  0  0  0  0
 13 27  1  0  0  0  0
 13 28  1  0  0  0  0
 14 29  1  0  0  0  0
 14 30  1  0  0  0  0
 15 16  1  0  0  0  0
 15 31  1  0  0  0  0
 15 32  1  0  0  0  0
 16 17  1  0  0  0  0
 16 33  1  0  0  0  0
 16 34  1  0  0  0  0
 17 10  1  0  0  0  0
 17 35  1  0  0  0  0
M  END
>  <DRUGBANK_ID>
DB09244

>  <COMMON_NAME>
Pirlindole

>  <CAS_NUMBER>
60762-57-4

>  <UNII>
V39YPH45FZ

>  <SYNONYMS>
2,3,3a,4,5,6-Hexahydro-8-methyl-1H-pyrazino(3,2,1-jk)carbazole; Pirlindol; Pirlindole; Pirlindolum

$$$$
