CXA
 OpenBabel10282417072D

 28 28  0  0  0  0  0  0  0  0999 V2000
   -1.0250   -0.3071    0.0000 C   0  0  0  0  0  0  0  0  0  0  0  0
   -1.7394   -0.7196    0.0000 C   0  0  0  0  0  0  0  0  0  0  0  0
   -2.4539   -0.3071    0.0000 C   0  0  0  0  0  0  0  0  0  0  0  0
   -2.4539    0.5179    0.0000 C   0  0  0  0  0  0  0  0  0  0  0  0
   -1.7394    0.9304    0.0000 C   0  0  0  0  0  0  0  0  0  0  0  0
   -1.0250    0.5179    0.0000 C   0  0  0  0  0  0  0  0  0  0  0  0
   -0.3105   -0.7196    0.0000 C   0  0  0  0  0  0  0  0  0  0  0  0
    0.4040   -0.3071    0.0000 C   0  0  1  0  0  0  0  0  0  0  0  0
    0.4040    0.5179    0.0000 C   0  0  0  0  0  0  0  0  0  0  0  0
   -0.3105    0.9304    0.0000 O   0  0  0  0  0  0  0  0  0  0  0  0
    1.1184    0.9304    0.0000 O   0  0  0  0  0  0  0  0  0  0  0  0
    1.1184   -0.7196    0.0000 N   0  0  0  0  0  0  0  0  0  0  0  0
    1.8329   -0.3071    0.0000 S   0  0  0  0  0  0  0  0  0  0  0  0
    2.5474    0.1054    0.0000 N   0  0  0  0  0  0  0  0  0  0  0  0
    2.2454   -1.0216    0.0000 O   0  0  0  0  0  0  0  0  0  0  0  0
    1.4204    0.4074    0.0000 O   0  0  0  0  0  0  0  0  0  0  0  0
   -0.1017   -0.0151    0.0000 H   0  0  0  0  0  0  0  0  0  0  0  0
   -1.7394   -1.7516    0.0000 H   0  0  0  0  0  0  0  0  0  0  0  0
   -3.3476   -0.8231    0.0000 H   0  0  0  0  0  0  0  0  0  0  0  0
   -3.3476    1.0339    0.0000 H   0  0  0  0  0  0  0  0  0  0  0  0
   -1.7394    1.9624    0.0000 H   0  0  0  0  0  0  0  0  0  0  0  0
   -0.1313    1.0339    0.0000 H   0  0  0  0  0  0  0  0  0  0  0  0
   -0.3105   -1.7896    0.0000 H   0  0  0  0  0  0  0  0  0  0  0  0
    0.6161   -1.2546    0.0000 H   0  0  0  0  0  0  0  0  0  0  0  0
   -0.3105    1.8674    0.0000 H   0  0  0  0  0  0  0  0  0  0  0  0
    1.1184   -1.7396    0.0000 H   0  0  0  0  0  0  0  0  0  0  0  0
    3.4307   -0.4046    0.0000 H   0  0  0  0  0  0  0  0  0  0  0  0
    2.5474    1.1254    0.0000 H   0  0  0  0  0  0  0  0  0  0  0  0
  1  2  2  0  0  0  0
  1  6  1  0  0  0  0
  1  7  1  0  0  0  0
  2  3  1  0  0  0  0
  2 18  1  0  0  0  0
  3  4  2  0  0  0  0
  3 19  1  0  0  0  0
  4  5  1  0  0  0  0
  4 20  1  0  0  0  0
  5  6  2  0  0  0  0
  5 21  1  0  0  0  0
  6 22  1  0  0  0  0
  7  8  1  0  0  0  0
  7 23  1  0  0  0  0
  7 24  1  0  0  0  0
  8  9  1  0  0  0  0
  8 12  1  0  0  0  0
  8 17  1  6  0  0  0
  9 10  1  0  0  0  0
  9 11  2  0  0  0  0
 10 25  1  0  0  0  0
 12 13  1  0  0  0  0
 12 26  1  0  0  0  0
 13 14  1  0  0  0  0
 13 15  2  0  0  0  0
 13 16  2  0  0  0  0
 14 27  1  0  0  0  0
 14 28  1  0  0  0  0
M  END
>  <DRUGBANK_ID>
DB03012

>  <SECONDARY_ACCESSION_NUMBERS>
EXPT01063

>  <COMMON_NAME>
Phenylalanine-N-Sulfonamide

$$$$
