I4A
 OpenBabel10282417072D

 49 52  0  0  0  0  0  0  0  0999 V2000
    3.4126    0.6582    0.0000 O   0  0  0  0  0  0  0  0  0  0  0  0
    2.6028    0.5004    0.0000 C   0  0  0  0  0  0  0  0  0  0  0  0
    2.0613    1.1229    0.0000 O   0  0  0  0  0  0  0  0  0  0  0  0
    2.3346   -0.2797    0.0000 C   0  0  0  0  0  0  0  0  0  0  0  0
    1.5248   -0.4375    0.0000 C   0  0  0  0  0  0  0  0  0  0  0  0
    1.2565   -1.2176    0.0000 C   0  0  0  0  0  0  0  0  0  0  0  0
    0.4316   -1.2036    0.0000 C   0  0  0  0  0  0  0  0  0  0  0  0
   -0.0346   -1.8842    0.0000 C   0  0  0  0  0  0  0  0  0  0  0  0
   -0.8574   -1.9442    0.0000 C   0  0  0  0  0  0  0  0  0  0  0  0
   -1.4172   -1.3382    0.0000 C   0  0  0  0  0  0  0  0  0  0  0  0
   -1.2926   -0.5227    0.0000 C   0  0  0  0  0  0  0  0  0  0  0  0
   -0.5772   -0.1117    0.0000 C   0  0  0  0  0  0  0  0  0  0  0  0
    0.1901   -0.4147    0.0000 C   0  0  0  0  0  0  0  0  0  0  0  0
    1.7980   -1.8400    0.0000 C   0  0  0  0  0  0  0  0  0  0  0  0
    2.6078   -1.6823    0.0000 C   0  0  0  0  0  0  0  0  0  0  0  0
    2.8761   -0.9021    0.0000 C   0  0  0  0  0  0  0  0  0  0  0  0
    0.8657    0.0588    0.0000 N   0  0  0  0  0  0  0  0  0  0  0  0
    0.8798    0.8837    0.0000 C   0  0  0  0  0  0  0  0  0  0  0  0
    0.1724    1.3083    0.0000 C   0  0  0  0  0  0  0  0  0  0  0  0
    0.1865    2.1332    0.0000 C   0  0  0  0  0  0  0  0  0  0  0  0
   -0.5208    2.5578    0.0000 C   0  0  0  0  0  0  0  0  0  0  0  0
   -0.5067    3.3827    0.0000 C   0  0  0  0  0  0  0  0  0  0  0  0
   -1.2141    3.8073    0.0000 N   0  0  0  0  0  0  0  0  0  0  0  0
    0.2147    3.7829    0.0000 O   0  0  0  0  0  0  0  0  0  0  0  0
   -1.2422    2.1575    0.0000 C   0  0  0  0  0  0  0  0  0  0  0  0
   -1.2563    1.3326    0.0000 C   0  0  0  0  0  0  0  0  0  0  0  0
   -0.5490    0.9080    0.0000 C   0  0  0  0  0  0  0  0  0  0  0  0
    4.0277   -0.0487    0.0000 H   0  0  0  0  0  0  0  0  0  0  0  0
    0.4985   -2.8120    0.0000 H   0  0  0  0  0  0  0  0  0  0  0  0
   -0.5365   -2.8292    0.0000 H   0  0  0  0  0  0  0  0  0  0  0  0
   -1.2504   -2.9394    0.0000 H   0  0  0  0  0  0  0  0  0  0  0  0
   -1.9092   -2.1409    0.0000 H   0  0  0  0  0  0  0  0  0  0  0  0
   -2.4403   -1.6514    0.0000 H   0  0  0  0  0  0  0  0  0  0  0  0
   -2.2268   -0.6386    0.0000 H   0  0  0  0  0  0  0  0  0  0  0  0
   -2.1754    0.0819    0.0000 H   0  0  0  0  0  0  0  0  0  0  0  0
   -1.2503    0.5465    0.0000 H   0  0  0  0  0  0  0  0  0  0  0  0
   -0.6549    0.9555    0.0000 H   0  0  0  0  0  0  0  0  0  0  0  0
    0.2851    0.5219    0.0000 H   0  0  0  0  0  0  0  0  0  0  0  0
    1.4624   -2.8159    0.0000 H   0  0  0  0  0  0  0  0  0  0  0  0
    3.2851   -2.4609    0.0000 H   0  0  0  0  0  0  0  0  0  0  0  0
    3.8891   -0.7048    0.0000 H   0  0  0  0  0  0  0  0  0  0  0  0
    1.8154    1.4028    0.0000 H   0  0  0  0  0  0  0  0  0  0  0  0
    0.8980    1.9535    0.0000 H   0  0  0  0  0  0  0  0  0  0  0  0
    1.0889    2.6339    0.0000 H   0  0  0  0  0  0  0  0  0  0  0  0
   -1.1974    4.7917    0.0000 H   0  0  0  0  0  0  0  0  0  0  0  0
   -2.0749    3.3296    0.0000 H   0  0  0  0  0  0  0  0  0  0  0  0
   -2.1270    2.6887    0.0000 H   0  0  0  0  0  0  0  0  0  0  0  0
   -2.1587    0.8319    0.0000 H   0  0  0  0  0  0  0  0  0  0  0  0
   -0.5666   -0.1239    0.0000 H   0  0  0  0  0  0  0  0  0  0  0  0
  1 28  1  0  0  0  0
  2  1  1  0  0  0  0
  2  4  1  0  0  0  0
  3  2  2  0  0  0  0
  4 16  1  0  0  0  0
  5  4  2  0  0  0  0
  5  6  1  0  0  0  0
  6 14  2  0  0  0  0
  7  6  1  0  0  0  0
  7  8  1  0  0  0  0
  8 29  1  0  0  0  0
  8 30  1  0  0  0  0
  9  8  1  0  0  0  0
  9 31  1  0  0  0  0
  9 32  1  0  0  0  0
 10  9  1  0  0  0  0
 10 33  1  0  0  0  0
 10 34  1  0  0  0  0
 11 10  1  0  0  0  0
 11 12  1  0  0  0  0
 11 35  1  0  0  0  0
 11 36  1  0  0  0  0
 12 13  1  0  0  0  0
 12 37  1  0  0  0  0
 12 38  1  0  0  0  0
 13  7  2  0  0  0  0
 14 15  1  0  0  0  0
 14 39  1  0  0  0  0
 15 40  1  0  0  0  0
 16 15  2  0  0  0  0
 16 41  1  0  0  0  0
 17  5  1  0  0  0  0
 17 13  1  0  0  0  0
 18 17  1  0  0  0  0
 18 42  1  0  0  0  0
 18 43  1  0  0  0  0
 19 18  1  0  0  0  0
 20 19  2  0  0  0  0
 20 44  1  0  0  0  0
 21 20  1  0  0  0  0
 22 21  1  0  0  0  0
 22 24  2  0  0  0  0
 23 22  1  0  0  0  0
 23 45  1  0  0  0  0
 23 46  1  0  0  0  0
 25 21  2  0  0  0  0
 25 26  1  0  0  0  0
 25 47  1  0  0  0  0
 26 27  2  0  0  0  0
 26 48  1  0  0  0  0
 27 19  1  0  0  0  0
 27 49  1  0  0  0  0
M  END
>  <DRUGBANK_ID>
DB07945

>  <COMMON_NAME>
5-(3-carbamoylbenzyl)-5,6,7,8,9,10-hexahydrocyclohepta[b]indole-4-carboxylic acid

$$$$
