
 OpenBabel10282417072D

 28 29  0  0  0  0  0  0  0  0999 V2000
   -0.2505    0.9320    0.0000 C   0  0  0  0  0  0  0  0  0  0  0  0
    0.4639    0.5194    0.0000 C   0  0  0  0  0  0  0  0  0  0  0  0
    0.4639   -0.3055    0.0000 C   0  0  2  0  0  0  0  0  0  0  0  0
   -0.2505   -0.7181    0.0000 C   0  0  0  0  0  0  0  0  0  0  0  0
   -0.9651   -0.3055    0.0000 N   0  0  0  0  0  0  0  0  0  0  0  0
   -0.9651    0.5194    0.0000 C   0  0  2  0  0  0  0  0  0  0  0  0
   -0.7515   -1.1026    0.0000 C   0  0  0  0  0  0  0  0  0  0  0  0
    0.2504   -1.1026    0.0000 N   0  0  0  0  0  0  0  0  0  0  0  0
   -1.6795    0.9320    0.0000 C   0  0  0  0  0  0  0  0  0  0  0  0
   -1.6795    1.7571    0.0000 O   0  0  0  0  0  0  0  0  0  0  0  0
   -2.3942    0.5194    0.0000 N   0  0  0  0  0  0  0  0  0  0  0  0
   -1.2538   -1.7571    0.0000 O   0  0  0  0  0  0  0  0  0  0  0  0
    0.9650   -1.5151    0.0000 O   0  0  0  0  0  0  0  0  0  0  0  0
    1.6794   -1.1026    0.0000 S   0  0  0  0  0  0  0  0  0  0  0  0
    2.3942   -1.5151    0.0000 O   0  0  0  0  0  0  0  0  0  0  0  0
    2.0920   -0.3880    0.0000 O   0  0  0  0  0  0  0  0  0  0  0  0
    1.2669   -0.3880    0.0000 O   0  0  0  0  0  0  0  0  0  0  0  0
   -0.2504    2.0020    0.0000 H   0  0  0  0  0  0  0  0  0  0  0  0
   -1.1771    1.4670    0.0000 H   0  0  0  0  0  0  0  0  0  0  0  0
    1.3906    1.0543    0.0000 H   0  0  0  0  0  0  0  0  0  0  0  0
    1.3905   -0.0156    0.0000 H   0  0  0  0  0  0  0  0  0  0  0  0
   -0.5970   -0.1659    0.0000 H   0  0  0  0  0  0  0  0  0  0  0  0
   -0.2504   -1.7881    0.0000 H   0  0  0  0  0  0  0  0  0  0  0  0
   -1.1771   -1.2531    0.0000 H   0  0  0  0  0  0  0  0  0  0  0  0
   -1.8918   -0.0155    0.0000 H   0  0  0  0  0  0  0  0  0  0  0  0
   -3.2468    1.0117    0.0000 H   0  0  0  0  0  0  0  0  0  0  0  0
   -2.3942   -0.4651    0.0000 H   0  0  0  0  0  0  0  0  0  0  0  0
    2.3944   -2.4851    0.0000 H   0  0  0  0  0  0  0  0  0  0  0  0
  1  2  1  0  0  0  0
  1 18  1  0  0  0  0
  1 19  1  0  0  0  0
  2  3  1  0  0  0  0
  2 20  1  0  0  0  0
  2 21  1  0  0  0  0
  3  4  1  0  0  0  0
  3  8  1  0  0  0  0
  3 22  1  6  0  0  0
  4  5  1  0  0  0  0
  4 23  1  0  0  0  0
  4 24  1  0  0  0  0
  5  6  1  0  0  0  0
  5  7  1  0  0  0  0
  6  1  1  0  0  0  0
  6  9  1  0  0  0  0
  6 25  1  1  0  0  0
  7  8  1  0  0  0  0
  7 12  2  0  0  0  0
  8 13  1  0  0  0  0
  9 10  2  0  0  0  0
  9 11  1  0  0  0  0
 11 26  1  0  0  0  0
 11 27  1  0  0  0  0
 13 14  1  0  0  0  0
 14 15  1  0  0  0  0
 14 16  2  0  0  0  0
 14 17  2  0  0  0  0
 15 28  1  0  0  0  0
M  END
>  <DRUGBANK_ID>
DB09060

>  <COMMON_NAME>
Avibactam

>  <CAS_NUMBER>
1192500-31-4

>  <UNII>
7352665165

>  <SYNONYMS>
Avibactam

$$$$
