
 OpenBabel10282417072D

 44 47  0  0  0  0  0  0  0  0999 V2000
    3.5539   -3.0422    0.0000 C   0  0  0  0  0  0  0  0  0  0  0  0
    3.5539   -2.2172    0.0000 N   0  0  0  0  0  0  0  0  0  0  0  0
    4.2684   -1.8047    0.0000 C   0  0  0  0  0  0  0  0  0  0  0  0
    4.2684   -0.9797    0.0000 C   0  0  0  0  0  0  0  0  0  0  0  0
    3.5539   -0.5672    0.0000 C   0  0  0  0  0  0  0  0  0  0  0  0
    3.5539    0.2578    0.0000 C   0  0  0  0  0  0  0  0  0  0  0  0
    4.2972    0.6157    0.0000 C   0  0  0  0  0  0  0  0  0  0  0  0
    4.9020    0.0546    0.0000 C   0  0  0  0  0  0  0  0  0  0  0  0
    5.6903    0.2978    0.0000 C   0  0  0  0  0  0  0  0  0  0  0  0
    5.8739    1.1021    0.0000 C   0  0  0  0  0  0  0  0  0  0  0  0
    5.2691    1.6632    0.0000 C   0  0  0  0  0  0  0  0  0  0  0  0
    4.4808    1.4200    0.0000 C   0  0  0  0  0  0  0  0  0  0  0  0
    3.9664    2.0651    0.0000 C   0  0  0  0  0  0  0  0  0  0  0  0
    3.1414    2.0651    0.0000 C   0  0  0  0  0  0  0  0  0  0  0  0
    2.6270    1.4200    0.0000 N   0  0  0  0  0  0  0  0  0  0  0  0
    2.8106    0.6157    0.0000 C   0  0  0  0  0  0  0  0  0  0  0  0
    2.1024    0.1926    0.0000 N   0  0  0  0  0  0  0  0  0  0  0  0
    1.4811    0.7354    0.0000 C   0  0  0  0  0  0  0  0  0  0  0  0
    1.8054    1.4940    0.0000 C   0  0  0  0  0  0  0  0  0  0  0  0
    1.3822    2.2022    0.0000 C   0  0  0  0  0  0  0  0  0  0  0  0
    1.7840    2.9228    0.0000 O   0  0  0  0  0  0  0  0  0  0  0  0
    2.8394   -0.9797    0.0000 C   0  0  0  0  0  0  0  0  0  0  0  0
    2.8394   -1.8047    0.0000 C   0  0  0  0  0  0  0  0  0  0  0  0
    2.6273   -3.5772    0.0000 H   0  0  0  0  0  0  0  0  0  0  0  0
    4.4805   -3.5772    0.0000 H   0  0  0  0  0  0  0  0  0  0  0  0
    3.5539   -4.1122    0.0000 H   0  0  0  0  0  0  0  0  0  0  0  0
    5.1950   -2.3397    0.0000 H   0  0  0  0  0  0  0  0  0  0  0  0
    5.1950   -1.2697    0.0000 H   0  0  0  0  0  0  0  0  0  0  0  0
    5.1950   -0.4447    0.0000 H   0  0  0  0  0  0  0  0  0  0  0  0
    4.2684    0.0903    0.0000 H   0  0  0  0  0  0  0  0  0  0  0  0
    4.6724   -0.9515    0.0000 H   0  0  0  0  0  0  0  0  0  0  0  0
    6.4468   -0.4041    0.0000 H   0  0  0  0  0  0  0  0  0  0  0  0
    6.8600    1.4063    0.0000 H   0  0  0  0  0  0  0  0  0  0  0  0
    5.4987    2.6693    0.0000 H   0  0  0  0  0  0  0  0  0  0  0  0
    4.4307    3.0291    0.0000 H   0  0  0  0  0  0  0  0  0  0  0  0
    3.3971    2.9711    0.0000 H   0  0  0  0  0  0  0  0  0  0  0  0
    2.6771    3.0291    0.0000 H   0  0  0  0  0  0  0  0  0  0  0  0
    2.0781    2.1849    0.0000 H   0  0  0  0  0  0  0  0  0  0  0  0
    0.4750    0.5058    0.0000 H   0  0  0  0  0  0  0  0  0  0  0  0
    0.3503    2.1867    0.0000 H   0  0  0  0  0  0  0  0  0  0  0  0
    1.9128   -0.4447    0.0000 H   0  0  0  0  0  0  0  0  0  0  0  0
    1.9128   -1.5147    0.0000 H   0  0  0  0  0  0  0  0  0  0  0  0
    1.9128   -2.3397    0.0000 H   0  0  0  0  0  0  0  0  0  0  0  0
    2.8394   -2.8747    0.0000 H   0  0  0  0  0  0  0  0  0  0  0  0
  1  2  1  0  0  0  0
  1 24  1  0  0  0  0
  1 25  1  0  0  0  0
  1 26  1  0  0  0  0
  2  3  1  0  0  0  0
  2 23  1  0  0  0  0
  3  4  1  0  0  0  0
  3 27  1  0  0  0  0
  3 28  1  0  0  0  0
  4  5  1  0  0  0  0
  4 29  1  0  0  0  0
  4 30  1  0  0  0  0
  5  6  2  0  0  0  0
  5 22  1  0  0  0  0
  6  7  1  0  0  0  0
  6 16  1  0  0  0  0
  7  8  2  0  0  0  0
  7 12  1  0  0  0  0
  8  9  1  0  0  0  0
  8 31  1  0  0  0  0
  9 10  2  0  0  0  0
  9 32  1  0  0  0  0
 10 11  1  0  0  0  0
 10 33  1  0  0  0  0
 11 12  2  0  0  0  0
 11 34  1  0  0  0  0
 12 13  1  0  0  0  0
 13 14  1  0  0  0  0
 13 35  1  0  0  0  0
 13 36  1  0  0  0  0
 14 15  1  0  0  0  0
 14 37  1  0  0  0  0
 14 38  1  0  0  0  0
 15 16  1  0  0  0  0
 15 19  1  0  0  0  0
 16 17  2  0  0  0  0
 17 18  1  0  0  0  0
 18 19  2  0  0  0  0
 18 39  1  0  0  0  0
 19 20  1  0  0  0  0
 20 21  2  0  0  0  0
 20 40  1  0  0  0  0
 22 23  1  0  0  0  0
 22 41  1  0  0  0  0
 22 42  1  0  0  0  0
 23 43  1  0  0  0  0
 23 44  1  0  0  0  0
M  END
>  <DRUGBANK_ID>
DB06766

>  <COMMON_NAME>
Alcaftadine

>  <CAS_NUMBER>
147084-10-4

>  <UNII>
7Z8O94ECSX

>  <SYNONYMS>
Alcaftadina; Alcaftadine; Alcaftadinum

$$$$
