
 OpenBabel10282417072D

 54 57  0  0  0  0  0  0  0  0999 V2000
    5.7209   -2.8930    0.0000 C   0  0  0  0  0  0  0  0  0  0  0  0
    6.4372   -2.4744    0.0000 C   0  0  0  0  0  0  0  0  0  0  0  0
    5.7209   -3.7116    0.0000 C   0  0  0  0  0  0  0  0  0  0  0  0
    6.4372   -1.6465    0.0000 N   0  0  0  0  0  0  0  0  0  0  0  0
    5.0139   -2.4744    0.0000 C   0  0  0  0  0  0  0  0  0  0  0  0
    7.1535   -2.8930    0.0000 N   0  0  0  0  0  0  0  0  0  0  0  0
    5.0139   -4.1209    0.0000 C   0  0  0  0  0  0  0  0  0  0  0  0
    4.2976   -3.7116    0.0000 C   0  0  0  0  0  0  0  0  0  0  0  0
    7.1442   -1.2465    0.0000 C   0  0  0  0  0  0  0  0  0  0  0  0
    4.2976   -2.8930    0.0000 C   0  0  0  0  0  0  0  0  0  0  0  0
    7.8604   -1.6465    0.0000 C   0  0  0  0  0  0  0  0  0  0  0  0
    6.4372   -4.1209    0.0000 N   0  0  0  0  0  0  0  0  0  0  0  0
    0.7256   -4.9674    0.0000 N   0  0  0  0  0  0  0  0  0  0  0  0
    8.5767   -1.2465    0.0000 C   0  0  0  0  0  0  0  0  0  0  0  0
    7.1535   -3.7116    0.0000 C   0  0  0  0  0  0  0  0  0  0  0  0
    3.5814   -4.1302    0.0000 O   0  0  0  0  0  0  0  0  0  0  0  0
    7.1442   -0.4093    0.0000 C   0  0  0  0  0  0  0  0  0  0  0  0
    8.5767   -0.4093    0.0000 C   0  0  0  0  0  0  0  0  0  0  0  0
    0.7163   -4.1488    0.0000 C   0  0  0  0  0  0  0  0  0  0  0  0
    1.4418   -5.3767    0.0000 C   0  0  0  0  0  0  0  0  0  0  0  0
    7.8604   -2.4744    0.0000 F   0  0  0  0  0  0  0  0  0  0  0  0
    2.8651   -3.7116    0.0000 C   0  0  0  0  0  0  0  0  0  0  0  0
    7.8604    0.0000    0.0000 C   0  0  0  0  0  0  0  0  0  0  0  0
    3.5814   -2.4744    0.0000 O   0  0  0  0  0  0  0  0  0  0  0  0
    9.3023    0.0000    0.0000 Br  0  0  0  0  0  0  0  0  0  0  0  0
    2.1489   -4.1395    0.0000 C   0  0  0  0  0  0  0  0  0  0  0  0
    2.1581   -4.9674    0.0000 C   0  0  0  0  0  0  0  0  0  0  0  0
    1.4326   -3.7302    0.0000 C   0  0  0  0  0  0  0  0  0  0  0  0
    0.0000   -5.3953    0.0000 C   0  0  0  0  0  0  0  0  0  0  0  0
    2.8651   -2.8930    0.0000 C   0  0  0  0  0  0  0  0  0  0  0  0
    5.5868   -1.1505    0.0000 H   0  0  0  0  0  0  0  0  0  0  0  0
    5.0168   -1.4424    0.0000 H   0  0  0  0  0  0  0  0  0  0  0  0
    5.0168   -5.1529    0.0000 H   0  0  0  0  0  0  0  0  0  0  0  0
    9.4667   -1.7689    0.0000 H   0  0  0  0  0  0  0  0  0  0  0  0
    8.0461   -4.2296    0.0000 H   0  0  0  0  0  0  0  0  0  0  0  0
    6.2516    0.1087    0.0000 H   0  0  0  0  0  0  0  0  0  0  0  0
   -0.2148   -3.6215    0.0000 H   0  0  0  0  0  0  0  0  0  0  0  0
    0.7090   -3.0788    0.0000 H   0  0  0  0  0  0  0  0  0  0  0  0
    1.4418   -6.4467    0.0000 H   0  0  0  0  0  0  0  0  0  0  0  0
    2.3672   -5.9138    0.0000 H   0  0  0  0  0  0  0  0  0  0  0  0
    2.8599   -2.6416    0.0000 H   0  0  0  0  0  0  0  0  0  0  0  0
    1.9332   -3.1858    0.0000 H   0  0  0  0  0  0  0  0  0  0  0  0
    7.8604    1.0320    0.0000 H   0  0  0  0  0  0  0  0  0  0  0  0
    1.2264   -4.6817    0.0000 H   0  0  0  0  0  0  0  0  0  0  0  0
    3.0865   -5.4993    0.0000 H   0  0  0  0  0  0  0  0  0  0  0  0
    3.0809   -4.4257    0.0000 H   0  0  0  0  0  0  0  0  0  0  0  0
    1.4274   -2.6602    0.0000 H   0  0  0  0  0  0  0  0  0  0  0  0
    2.3567   -3.1909    0.0000 H   0  0  0  0  0  0  0  0  0  0  0  0
   -0.9315   -4.8689    0.0000 H   0  0  0  0  0  0  0  0  0  0  0  0
    0.0099   -6.4653    0.0000 H   0  0  0  0  0  0  0  0  0  0  0  0
   -0.9217   -5.9388    0.0000 H   0  0  0  0  0  0  0  0  0  0  0  0
    1.9356   -2.3629    0.0000 H   0  0  0  0  0  0  0  0  0  0  0  0
    2.8707   -3.9630    0.0000 H   0  0  0  0  0  0  0  0  0  0  0  0
    1.9413   -3.4329    0.0000 H   0  0  0  0  0  0  0  0  0  0  0  0
  1  2  1  0  0  0  0
  1  3  1  0  0  0  0
  1  5  2  0  0  0  0
  2  4  1  0  0  0  0
  2  6  2  0  0  0  0
  3  7  2  0  0  0  0
  3 12  1  0  0  0  0
  4  9  1  0  0  0  0
  4 31  1  0  0  0  0
  5 10  1  0  0  0  0
  5 32  1  0  0  0  0
  6 15  1  0  0  0  0
  7  8  1  0  0  0  0
  7 33  1  0  0  0  0
  8 10  2  0  0  0  0
  8 16  1  0  0  0  0
  9 11  2  0  0  0  0
  9 17  1  0  0  0  0
 10 24  1  0  0  0  0
 11 14  1  0  0  0  0
 11 21  1  0  0  0  0
 12 15  2  0  0  0  0
 13 19  1  0  0  0  0
 13 29  1  0  0  0  0
 13 20  1  0  0  0  0
 14 18  2  0  0  0  0
 14 34  1  0  0  0  0
 15 35  1  0  0  0  0
 16 22  1  0  0  0  0
 17 23  2  0  0  0  0
 17 36  1  0  0  0  0
 18 23  1  0  0  0  0
 18 25  1  0  0  0  0
 19 28  1  0  0  0  0
 19 37  1  0  0  0  0
 19 38  1  0  0  0  0
 20 27  1  0  0  0  0
 20 39  1  0  0  0  0
 20 40  1  0  0  0  0
 22 26  1  0  0  0  0
 22 41  1  0  0  0  0
 22 42  1  0  0  0  0
 23 43  1  0  0  0  0
 24 30  1  0  0  0  0
 26 27  1  0  0  0  0
 26 28  1  0  0  0  0
 26 44  1  0  0  0  0
 27 45  1  0  0  0  0
 27 46  1  0  0  0  0
 28 47  1  0  0  0  0
 28 48  1  0  0  0  0
 29 49  1  0  0  0  0
 29 50  1  0  0  0  0
 29 51  1  0  0  0  0
 30 52  1  0  0  0  0
 30 53  1  0  0  0  0
 30 54  1  0  0  0  0
M  END
>  <DRUGBANK_ID>
DB05294

>  <SECONDARY_ACCESSION_NUMBERS>
DB08764

>  <COMMON_NAME>
Vandetanib

>  <CAS_NUMBER>
443913-73-3

>  <UNII>
YO460OQ37K

>  <SYNONYMS>
N-(4-Bromo-2-fluorophenyl)-6-methoxy-7-((1-methyl-4-piperidinyl)methoxy)-4-quinazolinamine; N-(4-Bromo-2-fluorophenyl)-6-methoxy-7-((1-methylpiperidin-4-yl)methoxy)quinazolin-4-amine; Vandetanib

$$$$
