
 OpenBabel10282417072D

126132  0  0  1  0  0  0  0  0999 V2000
   11.8104    5.1216    0.0000 C   0  0  0  0  0  0  0  0  0  0  0  0
   12.0595    1.3535    0.0000 C   0  0  0  0  0  0  0  0  0  0  0  0
    8.9230    1.8232    0.0000 C   0  0  0  0  0  0  0  0  0  0  0  0
   11.7883   -0.4573    0.0000 C   0  0  0  0  0  0  0  0  0  0  0  0
    5.7843   -0.2764    0.0000 C   0  0  0  0  0  0  0  0  0  0  0  0
    8.9008   -3.7556    0.0000 C   0  0  0  0  0  0  0  0  0  0  0  0
   11.8886    4.3003    0.0000 C   0  0  2  0  0  0  0  0  0  0  0  0
   12.8161    1.0247    0.0000 C   0  0  2  0  0  0  0  0  0  0  0  0
    8.8294    2.6429    0.0000 C   0  0  2  0  0  0  0  0  0  0  0  0
   11.8819   -1.2770    0.0000 C   0  0  2  0  0  0  0  0  0  0  0  0
    6.4565    0.2019    0.0000 C   0  0  2  0  0  0  0  0  0  0  0  0
    8.8227   -2.9344    0.0000 C   0  0  2  0  0  0  0  0  0  0  0  0
   11.2899    2.9847    0.0000 C   0  0  2  0  0  0  0  0  0  0  0  0
    7.9894    3.8192    0.0000 C   0  0  2  0  0  0  0  0  0  0  0  0
   14.2548    1.1641    0.0000 C   0  0  2  0  0  0  0  0  0  0  0  0
    7.8952    0.3412    0.0000 C   0  0  2  0  0  0  0  0  0  0  0  0
   12.7219   -2.4532    0.0000 C   0  0  2  0  0  0  0  0  0  0  0  0
    9.4214   -1.6187    0.0000 C   0  0  2  0  0  0  0  0  0  0  0  0
   12.0496    2.6418    0.0000 C   0  0  2  0  0  0  0  0  0  0  0  0
    8.6515    4.3147    0.0000 C   0  0  2  0  0  0  0  0  0  0  0  0
   14.3529    0.3429    0.0000 C   0  0  2  0  0  0  0  0  0  0  0  0
    7.8123    1.1706    0.0000 C   0  0  2  0  0  0  0  0  0  0  0  0
   12.0598   -2.9488    0.0000 C   0  0  2  0  0  0  0  0  0  0  0  0
    8.6617   -1.2759    0.0000 C   0  0  2  0  0  0  0  0  0  0  0  0
   11.1823    3.8229    0.0000 C   0  0  2  0  0  0  0  0  0  0  0  0
   13.4882    1.5370    0.0000 C   0  0  2  0  0  0  0  0  0  0  0  0
    8.0497    2.9688    0.0000 C   0  0  2  0  0  0  0  0  0  0  0  0
   12.6616   -1.6029    0.0000 C   0  0  2  0  0  0  0  0  0  0  0  0
    7.2231   -0.1711    0.0000 C   0  0  2  0  0  0  0  0  0  0  0  0
    9.5290   -2.4570    0.0000 C   0  0  2  0  0  0  0  0  0  0  0  0
   12.7383    3.1112    0.0000 C   0  0  2  0  0  0  0  0  0  0  0  0
    9.4440    3.9605    0.0000 C   0  0  2  0  0  0  0  0  0  0  0  0
   13.6499   -0.1663    0.0000 C   0  0  2  0  0  0  0  0  0  0  0  0
    7.0614    1.5322    0.0000 C   0  0  2  0  0  0  0  0  0  0  0  0
   11.2673   -2.5946    0.0000 C   0  0  2  0  0  0  0  0  0  0  0  0
    7.9730   -1.7453    0.0000 C   0  0  2  0  0  0  0  0  0  0  0  0
   12.4826    5.5999    0.0000 O   0  0  0  0  0  0  0  0  0  0  0  0
   11.3964    0.8627    0.0000 O   0  0  0  0  0  0  0  0  0  0  0  0
    9.6797    1.4944    0.0000 O   0  0  0  0  0  0  0  0  0  0  0  0
   11.0316   -0.1285    0.0000 O   0  0  0  0  0  0  0  0  0  0  0  0
    5.0340    0.0665    0.0000 O   0  0  0  0  0  0  0  0  0  0  0  0
    9.6512   -4.0986    0.0000 O   0  0  0  0  0  0  0  0  0  0  0  0
   10.6268    2.4938    0.0000 O   0  0  0  0  0  0  0  0  0  0  0  0
    7.2391    4.1622    0.0000 O   0  0  0  0  0  0  0  0  0  0  0  0
   14.9270    1.6424    0.0000 O   0  0  0  0  0  0  0  0  0  0  0  0
    8.6518    0.0124    0.0000 O   0  0  0  0  0  0  0  0  0  0  0  0
   13.4722   -2.7962    0.0000 O   0  0  0  0  0  0  0  0  0  0  0  0
   10.0845   -1.1279    0.0000 O   0  0  0  0  0  0  0  0  0  0  0  0
   12.1214    1.8199    0.0000 O   0  0  0  0  0  0  0  0  0  0  0  0
    8.5601    5.1346    0.0000 O   0  0  0  0  0  0  0  0  0  0  0  0
   15.1087    0.0121    0.0000 O   0  0  0  0  0  0  0  0  0  0  0  0
    8.4881    1.6437    0.0000 O   0  0  0  0  0  0  0  0  0  0  0  0
   12.1512   -3.7687    0.0000 O   0  0  0  0  0  0  0  0  0  0  0  0
    8.5899   -0.4540    0.0000 O   0  0  0  0  0  0  0  0  0  0  0  0
   12.6488    3.9746    0.0000 O   0  0  0  0  0  0  0  0  0  0  0  0
    9.5062    3.1294    0.0000 O   0  0  0  0  0  0  0  0  0  0  0  0
   12.8990    0.1954    0.0000 O   0  0  0  0  0  0  0  0  0  0  0  0
    6.3584    1.0230    0.0000 O   0  0  0  0  0  0  0  0  0  0  0  0
   11.2051   -1.7635    0.0000 O   0  0  0  0  0  0  0  0  0  0  0  0
    8.0625   -2.6087    0.0000 O   0  0  0  0  0  0  0  0  0  0  0  0
   10.3131    3.9702    0.0000 O   0  0  0  0  0  0  0  0  0  0  0  0
   13.1812    2.3634    0.0000 O   0  0  0  0  0  0  0  0  0  0  0  0
    7.4875    2.2897    0.0000 O   0  0  0  0  0  0  0  0  0  0  0  0
   13.2238   -0.9238    0.0000 O   0  0  0  0  0  0  0  0  0  0  0  0
    7.5301   -0.9975    0.0000 O   0  0  0  0  0  0  0  0  0  0  0  0
   10.3982   -2.6043    0.0000 O   0  0  0  0  0  0  0  0  0  0  0  0
   11.1424    4.6523    0.0000 H   0  0  0  0  0  0  0  0  0  0  0  0
   12.7168    1.8437    0.0000 H   0  0  0  0  0  0  0  0  0  0  0  0
    8.1698    2.1474    0.0000 H   0  0  0  0  0  0  0  0  0  0  0  0
   12.5415   -0.7815    0.0000 H   0  0  0  0  0  0  0  0  0  0  0  0
    6.8018   -0.5474    0.0000 H   0  0  0  0  0  0  0  0  0  0  0  0
    9.6443   -3.0099    0.0000 H   0  0  0  0  0  0  0  0  0  0  0  0
   11.6530    2.2439    0.0000 H   0  0  0  0  0  0  0  0  0  0  0  0
    7.3115    3.3490    0.0000 H   0  0  0  0  0  0  0  0  0  0  0  0
   15.0779    1.1083    0.0000 H   0  0  0  0  0  0  0  0  0  0  0  0
    7.9945   -0.4778    0.0000 H   0  0  0  0  0  0  0  0  0  0  0  0
   13.0851   -3.1940    0.0000 H   0  0  0  0  0  0  0  0  0  0  0  0
   10.1803   -1.9422    0.0000 H   0  0  0  0  0  0  0  0  0  0  0  0
   11.5806    1.9631    0.0000 H   0  0  0  0  0  0  0  0  0  0  0  0
    9.3178    4.8013    0.0000 H   0  0  0  0  0  0  0  0  0  0  0  0
   15.1436    0.5784    0.0000 H   0  0  0  0  0  0  0  0  0  0  0  0
    7.7456    1.9928    0.0000 H   0  0  0  0  0  0  0  0  0  0  0  0
   12.6591   -3.5158    0.0000 H   0  0  0  0  0  0  0  0  0  0  0  0
    7.9162   -0.9225    0.0000 H   0  0  0  0  0  0  0  0  0  0  0  0
   11.5459    4.5634    0.0000 H   0  0  0  0  0  0  0  0  0  0  0  0
   14.0992    2.0914    0.0000 H   0  0  0  0  0  0  0  0  0  0  0  0
    7.5902    3.6540    0.0000 H   0  0  0  0  0  0  0  0  0  0  0  0
   13.4472   -1.8548    0.0000 H   0  0  0  0  0  0  0  0  0  0  0  0
    6.8385   -0.9010    0.0000 H   0  0  0  0  0  0  0  0  0  0  0  0
    9.9689   -3.1549    0.0000 H   0  0  0  0  0  0  0  0  0  0  0  0
   13.1820    3.8067    0.0000 H   0  0  0  0  0  0  0  0  0  0  0  0
    9.0636    4.6926    0.0000 H   0  0  0  0  0  0  0  0  0  0  0  0
   14.2657   -0.7154    0.0000 H   0  0  0  0  0  0  0  0  0  0  0  0
    6.4456    2.0813    0.0000 H   0  0  0  0  0  0  0  0  0  0  0  0
   11.0997   -3.4024    0.0000 H   0  0  0  0  0  0  0  0  0  0  0  0
    7.1896   -2.0041    0.0000 H   0  0  0  0  0  0  0  0  0  0  0  0
   10.8372    5.5664    0.0000 H   0  0  0  0  0  0  0  0  0  0  0  0
   11.7091    6.1868    0.0000 H   0  0  0  0  0  0  0  0  0  0  0  0
   11.9382    2.4166    0.0000 H   0  0  0  0  0  0  0  0  0  0  0  0
   11.0782    1.7800    0.0000 H   0  0  0  0  0  0  0  0  0  0  0  0
    8.0630    1.1865    0.0000 H   0  0  0  0  0  0  0  0  0  0  0  0
    9.0444    0.7601    0.0000 H   0  0  0  0  0  0  0  0  0  0  0  0
   12.6483    0.1794    0.0000 H   0  0  0  0  0  0  0  0  0  0  0  0
   11.6669    0.6058    0.0000 H   0  0  0  0  0  0  0  0  0  0  0  0
    5.8857   -1.3416    0.0000 H   0  0  0  0  0  0  0  0  0  0  0  0
    4.9125   -0.8968    0.0000 H   0  0  0  0  0  0  0  0  0  0  0  0
    8.0290   -4.3759    0.0000 H   0  0  0  0  0  0  0  0  0  0  0  0
    9.0021   -4.8208    0.0000 H   0  0  0  0  0  0  0  0  0  0  0  0
   13.3648    5.1966    0.0000 H   0  0  0  0  0  0  0  0  0  0  0  0
   10.5068    1.2494    0.0000 H   0  0  0  0  0  0  0  0  0  0  0  0
    9.7897    0.5307    0.0000 H   0  0  0  0  0  0  0  0  0  0  0  0
   10.9216    0.8352    0.0000 H   0  0  0  0  0  0  0  0  0  0  0  0
    4.9421    1.0321    0.0000 H   0  0  0  0  0  0  0  0  0  0  0  0
    9.7431   -5.0642    0.0000 H   0  0  0  0  0  0  0  0  0  0  0  0
    9.7372    2.8804    0.0000 H   0  0  0  0  0  0  0  0  0  0  0  0
    7.1473    5.1278    0.0000 H   0  0  0  0  0  0  0  0  0  0  0  0
   15.8092    1.2391    0.0000 H   0  0  0  0  0  0  0  0  0  0  0  0
    8.7618   -0.9513    0.0000 H   0  0  0  0  0  0  0  0  0  0  0  0
   13.5640   -3.7618    0.0000 H   0  0  0  0  0  0  0  0  0  0  0  0
   10.9741   -1.5146    0.0000 H   0  0  0  0  0  0  0  0  0  0  0  0
   11.3268    1.2636    0.0000 H   0  0  0  0  0  0  0  0  0  0  0  0
    9.3412    5.7097    0.0000 H   0  0  0  0  0  0  0  0  0  0  0  0
   15.2162   -0.9519    0.0000 H   0  0  0  0  0  0  0  0  0  0  0  0
    9.3672    1.2337    0.0000 H   0  0  0  0  0  0  0  0  0  0  0  0
   11.3701   -4.3438    0.0000 H   0  0  0  0  0  0  0  0  0  0  0  0
    9.3845    0.1023    0.0000 H   0  0  0  0  0  0  0  0  0  0  0  0
  1 97  1  0  0  0  0
  1 98  1  0  0  0  0
  2 99  1  0  0  0  0
  2100  1  0  0  0  0
  3101  1  0  0  0  0
  3102  1  0  0  0  0
  4103  1  0  0  0  0
  4104  1  0  0  0  0
  5105  1  0  0  0  0
  5106  1  0  0  0  0
  6107  1  0  0  0  0
  6108  1  0  0  0  0
  7  1  1  0  0  0  0
  7 67  1  6  0  0  0
  8  2  1  0  0  0  0
  8 68  1  1  0  0  0
  9  3  1  0  0  0  0
  9 69  1  1  0  0  0
 10  4  1  0  0  0  0
 10 70  1  1  0  0  0
 11  5  1  0  0  0  0
 11 71  1  6  0  0  0
 12  6  1  0  0  0  0
 12 72  1  6  0  0  0
 13 43  1  0  0  0  0
 13 73  1  6  0  0  0
 14 44  1  0  0  0  0
 14 74  1  1  0  0  0
 15 45  1  0  0  0  0
 15 75  1  1  0  0  0
 16 46  1  0  0  0  0
 16 76  1  6  0  0  0
 17 47  1  0  0  0  0
 17 77  1  1  0  0  0
 18 48  1  0  0  0  0
 18 78  1  6  0  0  0
 19 13  1  0  0  0  0
 19 49  1  0  0  0  0
 19 79  1  1  0  0  0
 20 14  1  0  0  0  0
 20 50  1  0  0  0  0
 20 80  1  6  0  0  0
 21 15  1  0  0  0  0
 21 51  1  0  0  0  0
 21 81  1  6  0  0  0
 22 16  1  0  0  0  0
 22 52  1  0  0  0  0
 22 82  1  1  0  0  0
 23 17  1  0  0  0  0
 23 53  1  0  0  0  0
 23 83  1  6  0  0  0
 24 18  1  0  0  0  0
 24 54  1  0  0  0  0
 24 84  1  1  0  0  0
 25  7  1  0  0  0  0
 25 13  1  0  0  0  0
 25 85  1  1  0  0  0
 26  8  1  0  0  0  0
 26 15  1  0  0  0  0
 26 86  1  6  0  0  0
 27  9  1  0  0  0  0
 27 14  1  0  0  0  0
 27 87  1  6  0  0  0
 28 10  1  0  0  0  0
 28 17  1  0  0  0  0
 28 88  1  6  0  0  0
 29 11  1  0  0  0  0
 29 16  1  0  0  0  0
 29 89  1  1  0  0  0
 30 12  1  0  0  0  0
 30 18  1  0  0  0  0
 30 90  1  1  0  0  0
 31 19  1  0  0  0  0
 31 91  1  1  0  0  0
 32 20  1  0  0  0  0
 32 92  1  6  0  0  0
 33 21  1  0  0  0  0
 33 93  1  6  0  0  0
 34 22  1  0  0  0  0
 34 94  1  1  0  0  0
 35 23  1  0  0  0  0
 35 95  1  6  0  0  0
 36 24  1  0  0  0  0
 36 96  1  1  0  0  0
 37  1  1  0  0  0  0
 37109  1  0  0  0  0
 38  2  1  0  0  0  0
 38110  1  0  0  0  0
 39  3  1  0  0  0  0
 39111  1  0  0  0  0
 40  4  1  0  0  0  0
 40112  1  0  0  0  0
 41  5  1  0  0  0  0
 41113  1  0  0  0  0
 42  6  1  0  0  0  0
 42114  1  0  0  0  0
 43115  1  0  0  0  0
 44116  1  0  0  0  0
 45117  1  0  0  0  0
 46118  1  0  0  0  0
 47119  1  0  0  0  0
 48120  1  0  0  0  0
 49121  1  0  0  0  0
 50122  1  0  0  0  0
 51123  1  0  0  0  0
 52124  1  0  0  0  0
 53125  1  0  0  0  0
 54126  1  0  0  0  0
 55  7  1  0  0  0  0
 55 31  1  0  0  0  0
 56  9  1  0  0  0  0
 56 32  1  0  0  0  0
 57  8  1  0  0  0  0
 57 33  1  0  0  0  0
 58 11  1  0  0  0  0
 58 34  1  0  0  0  0
 59 10  1  0  0  0  0
 59 35  1  0  0  0  0
 60 12  1  0  0  0  0
 60 36  1  0  0  0  0
 61 25  1  0  0  0  0
 61 32  1  0  0  0  0
 62 26  1  0  0  0  0
 62 31  1  0  0  0  0
 63 27  1  0  0  0  0
 63 34  1  0  0  0  0
 64 28  1  0  0  0  0
 64 33  1  0  0  0  0
 65 29  1  0  0  0  0
 65 36  1  0  0  0  0
 66 30  1  0  0  0  0
 66 35  1  0  0  0  0
M  END
>  <DRUGBANK_ID>
DB01909

>  <SECONDARY_ACCESSION_NUMBERS>
EXPT00422

>  <COMMON_NAME>
Alpha-Cyclodextrin (Cyclohexa-Amylose)

>  <CAS_NUMBER>
10016-20-3

>  <UNII>
Z1LH97KTRM

$$$$
