
 OpenBabel10282417072D

 57 61  0  0  1  0  0  0  0  0999 V2000
   12.5273   -9.5171    0.0000 C   0  0  0  0  0  0  0  0  0  0  0  0
   12.5273  -10.3421    0.0000 C   0  0  1  0  0  0  0  0  0  0  0  0
   13.2417  -10.7546    0.0000 C   0  0  0  0  0  0  0  0  0  0  0  0
   13.9563  -10.3421    0.0000 C   0  0  0  0  0  0  0  0  0  0  0  0
   13.9563   -9.5171    0.0000 C   0  0  2  0  0  0  0  0  0  0  0  0
   13.2417   -9.1046    0.0000 C   0  0  0  0  0  0  0  0  0  0  0  0
   14.6707  -10.7546    0.0000 C   0  0  0  0  0  0  0  0  0  0  0  0
   15.3851  -10.3421    0.0000 C   0  0  0  0  0  0  0  0  0  0  0  0
   15.3851   -9.5171    0.0000 C   0  0  2  0  0  0  0  0  0  0  0  0
   14.6707   -9.1046    0.0000 C   0  0  2  0  0  0  0  0  0  0  0  0
   15.3851   -7.8671    0.0000 C   0  0  0  0  0  0  0  0  0  0  0  0
   14.6707   -8.2796    0.0000 C   0  0  0  0  0  0  0  0  0  0  0  0
   11.8128  -10.7546    0.0000 O   0  0  0  0  0  0  0  0  0  0  0  0
   13.9563   -8.6921    0.0000 C   0  0  0  0  0  0  0  0  0  0  0  0
   14.6707   -9.9296    0.0000 H   0  0  0  0  0  0  0  0  0  0  0  0
   15.3851   -8.6921    0.0000 H   0  0  0  0  0  0  0  0  0  0  0  0
   16.0996   -7.4546    0.0000 C   0  0  0  0  0  0  0  0  0  0  0  0
   16.0996   -9.9296    0.0000 H   0  0  0  0  0  0  0  0  0  0  0  0
   16.8843   -8.0246    0.0000 C   0  0  0  0  0  0  0  0  0  0  0  0
   16.0996   -8.2796    0.0000 C   0  0  2  0  0  0  0  0  0  0  0  0
   16.0996   -9.1046    0.0000 C   0  0  1  0  0  0  0  0  0  0  0  0
   16.8843   -9.3596    0.0000 C   0  0  0  0  0  0  0  0  0  0  0  0
   17.3692   -8.6922    0.0000 C   0  0  0  0  0  0  0  0  0  0  0  0
   17.1393   -7.2401    0.0000 C   0  0  0  0  0  0  0  0  0  0  0  0
   16.5873   -6.6269    0.0000 C   0  0  0  0  0  0  0  0  0  0  0  0
   17.9463   -7.0686    0.0000 C   0  0  0  0  0  0  0  0  0  0  0  0
   16.8423   -5.8423    0.0000 N   0  0  0  0  0  0  0  0  0  0  0  0
   18.2013   -6.2840    0.0000 C   0  0  0  0  0  0  0  0  0  0  0  0
   17.6494   -5.6709    0.0000 C   0  0  0  0  0  0  0  0  0  0  0  0
   11.6006   -8.9821    0.0000 H   0  0  0  0  0  0  0  0  0  0  0  0
   12.5273   -8.4471    0.0000 H   0  0  0  0  0  0  0  0  0  0  0  0
   11.6007   -9.8071    0.0000 H   0  0  0  0  0  0  0  0  0  0  0  0
   13.2416  -11.8246    0.0000 H   0  0  0  0  0  0  0  0  0  0  0  0
   14.1683  -11.2897    0.0000 H   0  0  0  0  0  0  0  0  0  0  0  0
   13.2416   -8.0346    0.0000 H   0  0  0  0  0  0  0  0  0  0  0  0
   12.3150   -8.5696    0.0000 H   0  0  0  0  0  0  0  0  0  0  0  0
   14.6707  -11.7866    0.0000 H   0  0  0  0  0  0  0  0  0  0  0  0
   16.3118  -10.8771    0.0000 H   0  0  0  0  0  0  0  0  0  0  0  0
   16.3117   -9.8071    0.0000 H   0  0  0  0  0  0  0  0  0  0  0  0
   15.3851   -6.7971    0.0000 H   0  0  0  0  0  0  0  0  0  0  0  0
   14.4584   -7.3321    0.0000 H   0  0  0  0  0  0  0  0  0  0  0  0
   13.7440   -7.7446    0.0000 H   0  0  0  0  0  0  0  0  0  0  0  0
   13.7441   -8.8146    0.0000 H   0  0  0  0  0  0  0  0  0  0  0  0
   10.9728  -10.2696    0.0000 H   0  0  0  0  0  0  0  0  0  0  0  0
   14.8829   -8.1571    0.0000 H   0  0  0  0  0  0  0  0  0  0  0  0
   13.0297   -8.1571    0.0000 H   0  0  0  0  0  0  0  0  0  0  0  0
   13.9563   -7.6221    0.0000 H   0  0  0  0  0  0  0  0  0  0  0  0
   17.0262   -6.9196    0.0000 H   0  0  0  0  0  0  0  0  0  0  0  0
   15.1730   -6.9196    0.0000 H   0  0  0  0  0  0  0  0  0  0  0  0
   16.0996   -6.3846    0.0000 H   0  0  0  0  0  0  0  0  0  0  0  0
   17.2149  -10.3772    0.0000 H   0  0  0  0  0  0  0  0  0  0  0  0
   17.9411   -9.5270    0.0000 H   0  0  0  0  0  0  0  0  0  0  0  0
   18.4012   -8.6923    0.0000 H   0  0  0  0  0  0  0  0  0  0  0  0
   15.5778   -6.8414    0.0000 H   0  0  0  0  0  0  0  0  0  0  0  0
   18.6368   -7.8356    0.0000 H   0  0  0  0  0  0  0  0  0  0  0  0
   19.2108   -6.0695    0.0000 H   0  0  0  0  0  0  0  0  0  0  0  0
   17.9685   -4.6895    0.0000 H   0  0  0  0  0  0  0  0  0  0  0  0
  1  2  1  0  0  0  0
  1  6  1  0  0  0  0
  1 30  1  0  0  0  0
  1 31  1  0  0  0  0
  2  3  1  0  0  0  0
  2 13  1  0  0  0  0
  2 32  1  6  0  0  0
  3  4  1  0  0  0  0
  3 33  1  0  0  0  0
  3 34  1  0  0  0  0
  4  5  1  0  0  0  0
  4  7  2  0  0  0  0
  5  6  1  0  0  0  0
  5 10  1  0  0  0  0
  5 14  1  1  0  0  0
  6 35  1  0  0  0  0
  6 36  1  0  0  0  0
  7  8  1  0  0  0  0
  7 37  1  0  0  0  0
  8  9  1  0  0  0  0
  8 38  1  0  0  0  0
  8 39  1  0  0  0  0
  9 10  1  0  0  0  0
  9 21  1  0  0  0  0
  9 16  1  1  0  0  0
 10 12  1  0  0  0  0
 10 15  1  6  0  0  0
 11 12  1  0  0  0  0
 11 40  1  0  0  0  0
 11 41  1  0  0  0  0
 12 42  1  0  0  0  0
 12 43  1  0  0  0  0
 13 44  1  0  0  0  0
 14 45  1  0  0  0  0
 14 46  1  0  0  0  0
 14 47  1  0  0  0  0
 17 48  1  0  0  0  0
 17 49  1  0  0  0  0
 17 50  1  0  0  0  0
 19 20  1  0  0  0  0
 19 23  2  0  0  0  0
 19 24  1  0  0  0  0
 20 11  1  0  0  0  0
 20 17  1  1  0  0  0
 20 21  1  0  0  0  0
 21 18  1  6  0  0  0
 21 22  1  0  0  0  0
 22 23  1  0  0  0  0
 22 51  1  0  0  0  0
 22 52  1  0  0  0  0
 23 53  1  0  0  0  0
 25 24  1  0  0  0  0
 25 54  1  0  0  0  0
 26 24  2  0  0  0  0
 26 55  1  0  0  0  0
 27 25  2  0  0  0  0
 28 26  1  0  0  0  0
 28 56  1  0  0  0  0
 29 27  1  0  0  0  0
 29 28  2  0  0  0  0
 29 57  1  0  0  0  0
M  END
>  <DRUGBANK_ID>
DB05812

>  <COMMON_NAME>
Abiraterone

>  <CAS_NUMBER>
154229-19-3

>  <UNII>
G819A456D0

>  <SYNONYMS>
(3Î²)-17-(pyridin-3-yl)androsta-5,16-dien-3-ol; 17-(3-Pyridyl)androsta-5,16-dien-3beta-ol; Abiraterona; Abiraterone

$$$$
