007
 OpenBabel10282417072D

 30 31  0  0  0  0  0  0  0  0999 V2000
    0.9648    0.2262    0.0000 C   0  0  0  0  0  0  0  0  0  0  0  0
    1.6322   -0.2587    0.0000 C   0  0  0  0  0  0  0  0  0  0  0  0
    0.2973   -0.2587    0.0000 C   0  0  0  0  0  0  0  0  0  0  0  0
    1.3773   -1.0434    0.0000 C   0  0  0  0  0  0  0  0  0  0  0  0
    0.5523   -1.0434    0.0000 C   0  0  0  0  0  0  0  0  0  0  0  0
   -0.2611    0.3486    0.0000 C   0  0  0  0  0  0  0  0  0  0  0  0
   -1.0662    0.1686    0.0000 C   0  0  0  0  0  0  0  0  0  0  0  0
   -0.0144    1.1358    0.0000 C   0  0  0  0  0  0  0  0  0  0  0  0
   -1.6247    0.7759    0.0000 C   0  0  0  0  0  0  0  0  0  0  0  0
   -0.5728    1.7431    0.0000 C   0  0  0  0  0  0  0  0  0  0  0  0
   -1.3780    1.5631    0.0000 C   0  0  0  0  0  0  0  0  0  0  0  0
   -0.5114   -0.4218    0.0000 C   0  0  0  0  0  0  0  0  0  0  0  0
   -0.7745   -1.2037    0.0000 N   0  0  0  0  0  0  0  0  0  0  0  0
    0.9648    1.2962    0.0000 H   0  0  0  0  0  0  0  0  0  0  0  0
    0.0114    0.7120    0.0000 H   0  0  0  0  0  0  0  0  0  0  0  0
    2.6498    0.0720    0.0000 H   0  0  0  0  0  0  0  0  0  0  0  0
    2.3888   -1.0153    0.0000 H   0  0  0  0  0  0  0  0  0  0  0  0
    2.0063   -1.9090    0.0000 H   0  0  0  0  0  0  0  0  0  0  0  0
    0.8915   -1.9968    0.0000 H   0  0  0  0  0  0  0  0  0  0  0  0
   -0.0766   -1.9091    0.0000 H   0  0  0  0  0  0  0  0  0  0  0  0
    1.0381   -1.9968    0.0000 H   0  0  0  0  0  0  0  0  0  0  0  0
   -1.3748   -0.8162    0.0000 H   0  0  0  0  0  0  0  0  0  0  0  0
    0.9928    1.3609    0.0000 H   0  0  0  0  0  0  0  0  0  0  0  0
   -2.6318    0.5508    0.0000 H   0  0  0  0  0  0  0  0  0  0  0  0
   -0.2642    2.7279    0.0000 H   0  0  0  0  0  0  0  0  0  0  0  0
   -2.0765    2.3227    0.0000 H   0  0  0  0  0  0  0  0  0  0  0  0
   -1.2190    0.3808    0.0000 H   0  0  0  0  0  0  0  0  0  0  0  0
   -1.5603   -0.6333    0.0000 H   0  0  0  0  0  0  0  0  0  0  0  0
   -1.7744   -1.4054    0.0000 H   0  0  0  0  0  0  0  0  0  0  0  0
   -0.0999   -1.9688    0.0000 H   0  0  0  0  0  0  0  0  0  0  0  0
  1  2  1  0  0  0  0
  1  3  1  0  0  0  0
  1 14  1  0  0  0  0
  1 15  1  0  0  0  0
  2  4  1  0  0  0  0
  2 16  1  0  0  0  0
  2 17  1  0  0  0  0
  3  5  1  0  0  0  0
  3  6  1  0  0  0  0
  3 12  1  0  0  0  0
  4  5  1  0  0  0  0
  4 18  1  0  0  0  0
  4 19  1  0  0  0  0
  5 20  1  0  0  0  0
  5 21  1  0  0  0  0
  6  7  1  0  0  0  0
  6  8  2  0  0  0  0
  7  9  2  0  0  0  0
  7 22  1  0  0  0  0
  8 10  1  0  0  0  0
  8 23  1  0  0  0  0
  9 11  1  0  0  0  0
  9 24  1  0  0  0  0
 10 11  2  0  0  0  0
 10 25  1  0  0  0  0
 11 26  1  0  0  0  0
 12 13  1  0  0  0  0
 12 27  1  0  0  0  0
 12 28  1  0  0  0  0
 13 29  1  0  0  0  0
 13 30  1  0  0  0  0
M  END
>  <DRUGBANK_ID>
DB04577

>  <COMMON_NAME>
1-(1-phenylcyclopentyl)methylamine

>  <CAS_NUMBER>
17511-89-6

>  <UNII>
03L0BL8FBI

>  <SYNONYMS>
1-(1-phenylcyclopentyl)methanamine; 1-Phenylcyclopentanemethylamine; C-(1-Phenyl-cyclopentyl)-methylamine

$$$$
