
 OpenBabel10282417072D

 97101  0  0  0  0  0  0  0  0999 V2000
   -4.4295   -3.3442    0.0000 C   0  0  0  0  0  0  0  0  0  0  0  0
   -3.8461   -2.7608    0.0000 C   0  0  0  0  0  0  0  0  0  0  0  0
   -4.4295   -2.1774    0.0000 C   0  0  0  0  0  0  0  0  0  0  0  0
   -3.4336   -2.0463    0.0000 C   0  0  0  0  0  0  0  0  0  0  0  0
   -3.1316   -3.1733    0.0000 O   0  0  0  0  0  0  0  0  0  0  0  0
   -2.4172   -2.7608    0.0000 C   0  0  0  0  0  0  0  0  0  0  0  0
   -2.4172   -1.9358    0.0000 O   0  0  0  0  0  0  0  0  0  0  0  0
   -1.7027   -3.1733    0.0000 N   0  0  0  0  0  0  0  0  0  0  0  0
   -1.1193   -2.5899    0.0000 C   0  0  1  0  0  0  0  0  0  0  0  0
   -0.3223   -2.8035    0.0000 C   0  0  0  0  0  0  0  0  0  0  0  0
   -0.3223   -3.6285    0.0000 C   0  0  0  0  0  0  0  0  0  0  0  0
    0.2609   -2.2201    0.0000 C   0  0  0  0  0  0  0  0  0  0  0  0
    0.4745   -3.0170    0.0000 C   0  0  0  0  0  0  0  0  0  0  0  0
   -1.1193   -1.7649    0.0000 C   0  0  0  0  0  0  0  0  0  0  0  0
   -1.5318   -1.0505    0.0000 O   0  0  0  0  0  0  0  0  0  0  0  0
   -0.5360   -1.1816    0.0000 N   0  0  0  0  0  0  0  0  0  0  0  0
    0.1911   -0.0621    0.0000 C   0  0  0  0  0  0  0  0  0  0  0  0
   -0.5790   -0.3577    0.0000 C   0  0  1  0  0  0  0  0  0  0  0  0
    0.2609   -1.3951    0.0000 C   0  0  0  0  0  0  0  0  0  0  0  0
    0.7102   -0.7032    0.0000 C   0  0  2  0  0  0  0  0  0  0  0  0
    1.4247   -1.1157    0.0000 O   0  0  0  0  0  0  0  0  0  0  0  0
    2.1392   -0.7032    0.0000 C   0  0  0  0  0  0  0  0  0  0  0  0
    3.5194   -0.3334    0.0000 C   0  0  0  0  0  0  0  0  0  0  0  0
    3.3059    0.4634    0.0000 C   0  0  0  0  0  0  0  0  0  0  0  0
    2.5090    0.6770    0.0000 C   0  0  0  0  0  0  0  0  0  0  0  0
    1.9256    0.0936    0.0000 N   0  0  0  0  0  0  0  0  0  0  0  0
    2.9361   -0.9167    0.0000 C   0  0  0  0  0  0  0  0  0  0  0  0
    3.1496   -1.7136    0.0000 C   0  0  0  0  0  0  0  0  0  0  0  0
    3.9465   -1.9272    0.0000 C   0  0  0  0  0  0  0  0  0  0  0  0
    4.5298   -1.3438    0.0000 C   0  0  0  0  0  0  0  0  0  0  0  0
    4.3162   -0.5469    0.0000 C   0  0  0  0  0  0  0  0  0  0  0  0
    3.8893    1.0468    0.0000 O   0  0  0  0  0  0  0  0  0  0  0  0
   -1.2936    0.0547    0.0000 C   0  0  0  0  0  0  0  0  0  0  0  0
   -1.2936    0.8797    0.0000 O   0  0  0  0  0  0  0  0  0  0  0  0
   -2.0080   -0.3577    0.0000 N   0  0  0  0  0  0  0  0  0  0  0  0
   -2.7224    0.0547    0.0000 C   0  0  1  0  0  0  0  0  0  0  0  0
   -3.3059   -0.5286    0.0000 C   0  0  1  0  0  0  0  0  0  0  0  0
   -3.5194    0.2682    0.0000 C   0  0  0  0  0  0  0  0  0  0  0  0
   -4.1028   -0.7421    0.0000 C   0  0  0  0  0  0  0  0  0  0  0  0
   -4.6862   -0.1588    0.0000 C   0  0  0  0  0  0  0  0  0  0  0  0
   -2.7224    0.8797    0.0000 C   0  0  0  0  0  0  0  0  0  0  0  0
   -2.3099    1.5941    0.0000 N   0  0  0  0  0  0  0  0  0  0  0  0
   -3.4370    1.2922    0.0000 O   0  0  0  0  0  0  0  0  0  0  0  0
   -2.3099    2.4191    0.0000 S   0  0  0  0  0  0  0  0  0  0  0  0
   -3.1349    2.4191    0.0000 O   0  0  0  0  0  0  0  0  0  0  0  0
   -2.8934    3.0025    0.0000 O   0  0  0  0  0  0  0  0  0  0  0  0
   -1.5955    2.8316    0.0000 C   0  0  0  0  0  0  0  0  0  0  0  0
   -1.3820    3.6285    0.0000 C   0  0  0  0  0  0  0  0  0  0  0  0
   -0.9695    2.9140    0.0000 C   0  0  0  0  0  0  0  0  0  0  0  0
    4.1822   -2.7227    0.0000 Cl  0  0  0  0  0  0  0  0  0  0  0  0
    4.6862    1.2603    0.0000 C   0  0  0  0  0  0  0  0  0  0  0  0
   -5.4630   -3.0673    0.0000 H   0  0  0  0  0  0  0  0  0  0  0  0
   -4.1526   -4.3777    0.0000 H   0  0  0  0  0  0  0  0  0  0  0  0
   -5.1861   -4.1008    0.0000 H   0  0  0  0  0  0  0  0  0  0  0  0
   -4.1526   -1.1439    0.0000 H   0  0  0  0  0  0  0  0  0  0  0  0
   -5.4630   -2.4543    0.0000 H   0  0  0  0  0  0  0  0  0  0  0  0
   -5.1861   -1.4208    0.0000 H   0  0  0  0  0  0  0  0  0  0  0  0
   -2.3636   -2.0463    0.0000 H   0  0  0  0  0  0  0  0  0  0  0  0
   -3.9686   -1.1197    0.0000 H   0  0  0  0  0  0  0  0  0  0  0  0
   -2.8986   -1.1196    0.0000 H   0  0  0  0  0  0  0  0  0  0  0  0
   -1.5742   -4.1494    0.0000 H   0  0  0  0  0  0  0  0  0  0  0  0
   -2.1079   -2.1804    0.0000 H   0  0  0  0  0  0  0  0  0  0  0  0
   -1.2489   -4.1635    0.0000 H   0  0  0  0  0  0  0  0  0  0  0  0
    0.6043   -4.1635    0.0000 H   0  0  0  0  0  0  0  0  0  0  0  0
   -0.3223   -4.6985    0.0000 H   0  0  0  0  0  0  0  0  0  0  0  0
    1.2945   -2.4969    0.0000 H   0  0  0  0  0  0  0  0  0  0  0  0
   -0.0162   -1.1866    0.0000 H   0  0  0  0  0  0  0  0  0  0  0  0
    1.0174   -1.4634    0.0000 H   0  0  0  0  0  0  0  0  0  0  0  0
    0.7514   -4.0505    0.0000 H   0  0  0  0  0  0  0  0  0  0  0  0
    1.2311   -2.2604    0.0000 H   0  0  0  0  0  0  0  0  0  0  0  0
    1.5080   -3.2939    0.0000 H   0  0  0  0  0  0  0  0  0  0  0  0
    0.4681    0.9714    0.0000 H   0  0  0  0  0  0  0  0  0  0  0  0
    1.2377    0.1603    0.0000 H   0  0  0  0  0  0  0  0  0  0  0  0
   -1.4913   -0.9168    0.0000 H   0  0  0  0  0  0  0  0  0  0  0  0
    0.6444   -2.3940    0.0000 H   0  0  0  0  0  0  0  0  0  0  0  0
    1.3250   -1.5069    0.0000 H   0  0  0  0  0  0  0  0  0  0  0  0
    1.4051    0.1104    0.0000 H   0  0  0  0  0  0  0  0  0  0  0  0
    2.2419    1.6738    0.0000 H   0  0  0  0  0  0  0  0  0  0  0  0
    2.4198   -2.4433    0.0000 H   0  0  0  0  0  0  0  0  0  0  0  0
    5.5267   -1.6108    0.0000 H   0  0  0  0  0  0  0  0  0  0  0  0
    5.0459    0.1829    0.0000 H   0  0  0  0  0  0  0  0  0  0  0  0
   -2.0080   -1.3422    0.0000 H   0  0  0  0  0  0  0  0  0  0  0  0
   -3.8408    0.3981    0.0000 H   0  0  0  0  0  0  0  0  0  0  0  0
   -4.2760    1.0248    0.0000 H   0  0  0  0  0  0  0  0  0  0  0  0
   -2.9844    1.1949    0.0000 H   0  0  0  0  0  0  0  0  0  0  0  0
   -4.3699   -1.7389    0.0000 H   0  0  0  0  0  0  0  0  0  0  0  0
   -4.4192    0.8381    0.0000 H   0  0  0  0  0  0  0  0  0  0  0  0
   -5.6830   -0.4260    0.0000 H   0  0  0  0  0  0  0  0  0  0  0  0
   -1.3590    1.3393    0.0000 H   0  0  0  0  0  0  0  0  0  0  0  0
   -0.7910    3.5371    0.0000 H   0  0  0  0  0  0  0  0  0  0  0  0
   -1.5217    4.6893    0.0000 H   0  0  0  0  0  0  0  0  0  0  0  0
   -0.3688    3.9724    0.0000 H   0  0  0  0  0  0  0  0  0  0  0  0
   -0.0099    2.4407    0.0000 H   0  0  0  0  0  0  0  0  0  0  0  0
   -1.1438    1.8583    0.0000 H   0  0  0  0  0  0  0  0  0  0  0  0
    5.4428    0.5037    0.0000 H   0  0  0  0  0  0  0  0  0  0  0  0
    4.9632    2.2938    0.0000 H   0  0  0  0  0  0  0  0  0  0  0  0
    5.7197    1.5372    0.0000 H   0  0  0  0  0  0  0  0  0  0  0  0
  1  2  1  0  0  0  0
  1 52  1  0  0  0  0
  1 53  1  0  0  0  0
  1 54  1  0  0  0  0
  2  3  1  0  0  0  0
  2  4  1  0  0  0  0
  2  5  1  0  0  0  0
  3 55  1  0  0  0  0
  3 56  1  0  0  0  0
  3 57  1  0  0  0  0
  4 58  1  0  0  0  0
  4 59  1  0  0  0  0
  4 60  1  0  0  0  0
  5  6  1  0  0  0  0
  6  7  2  0  0  0  0
  6  8  1  0  0  0  0
  8 61  1  0  0  0  0
  9  8  1  0  0  0  0
  9 14  1  0  0  0  0
  9 10  1  0  0  0  0
  9 62  1  1  0  0  0
 10 11  1  0  0  0  0
 10 12  1  0  0  0  0
 10 13  1  0  0  0  0
 11 63  1  0  0  0  0
 11 64  1  0  0  0  0
 11 65  1  0  0  0  0
 12 66  1  0  0  0  0
 12 67  1  0  0  0  0
 12 68  1  0  0  0  0
 13 69  1  0  0  0  0
 13 70  1  0  0  0  0
 13 71  1  0  0  0  0
 14 15  2  0  0  0  0
 14 16  1  0  0  0  0
 16 19  1  0  0  0  0
 17 18  1  0  0  0  0
 17 20  1  0  0  0  0
 17 72  1  0  0  0  0
 17 73  1  0  0  0  0
 18 16  1  0  0  0  0
 18 33  1  0  0  0  0
 18 74  1  1  0  0  0
 19 20  1  0  0  0  0
 19 75  1  0  0  0  0
 19 76  1  0  0  0  0
 20 21  1  0  0  0  0
 20 77  1  6  0  0  0
 21 22  1  0  0  0  0
 22 27  1  0  0  0  0
 23 24  1  0  0  0  0
 23 27  2  0  0  0  0
 23 31  1  0  0  0  0
 24 25  2  0  0  0  0
 24 32  1  0  0  0  0
 25 26  1  0  0  0  0
 25 78  1  0  0  0  0
 26 22  2  0  0  0  0
 27 28  1  0  0  0  0
 28 29  2  0  0  0  0
 28 79  1  0  0  0  0
 29 30  1  0  0  0  0
 29 50  1  0  0  0  0
 30 31  2  0  0  0  0
 30 80  1  0  0  0  0
 31 81  1  0  0  0  0
 32 51  1  0  0  0  0
 33 34  2  0  0  0  0
 33 35  1  0  0  0  0
 35 82  1  0  0  0  0
 36 37  1  0  0  0  0
 36 38  1  0  0  0  0
 36 35  1  0  0  0  0
 36 41  1  6  0  0  0
 37 38  1  0  0  0  0
 37 39  1  0  0  0  0
 37 83  1  1  0  0  0
 38 84  1  0  0  0  0
 38 85  1  0  0  0  0
 39 40  2  0  0  0  0
 39 86  1  0  0  0  0
 40 87  1  0  0  0  0
 40 88  1  0  0  0  0
 41 42  1  0  0  0  0
 41 43  2  0  0  0  0
 42 44  1  0  0  0  0
 42 89  1  0  0  0  0
 44 45  2  0  0  0  0
 44 46  2  0  0  0  0
 44 47  1  0  0  0  0
 47 48  1  0  0  0  0
 47 49  1  0  0  0  0
 47 90  1  0  0  0  0
 48 49  1  0  0  0  0
 48 91  1  0  0  0  0
 48 92  1  0  0  0  0
 49 93  1  0  0  0  0
 49 94  1  0  0  0  0
 51 95  1  0  0  0  0
 51 96  1  0  0  0  0
 51 97  1  0  0  0  0
M  END
>  <DRUGBANK_ID>
DB11586

>  <COMMON_NAME>
Asunaprevir

>  <CAS_NUMBER>
630420-16-5

>  <UNII>
S9X0KRJ00S

>  <SYNONYMS>
Asunaprevir

$$$$
