BIE
 OpenBabel10282417072D

 28 29  0  0  0  0  0  0  0  0999 V2000
    0.9657    1.1670    0.0000 O   0  0  0  0  0  0  0  0  0  0  0  0
    0.2513    0.7545    0.0000 C   0  0  0  0  0  0  0  0  0  0  0  0
    0.2513   -0.0705    0.0000 C   0  0  0  0  0  0  0  0  0  0  0  0
   -0.4632   -0.4830    0.0000 C   0  0  0  0  0  0  0  0  0  0  0  0
   -0.4632   -1.3080    0.0000 C   0  0  0  0  0  0  0  0  0  0  0  0
    0.9657   -0.4830    0.0000 C   0  0  0  0  0  0  0  0  0  0  0  0
    1.6802   -0.0705    0.0000 N   0  3  0  0  0  0  0  0  0  0  0  0
    1.6802    0.7545    0.0000 O   0  0  0  0  0  0  0  0  0  0  0  0
    2.3947   -0.4830    0.0000 O   0  5  0  0  0  0  0  0  0  0  0  0
    0.9657   -1.3080    0.0000 C   0  0  0  0  0  0  0  0  0  0  0  0
    1.6802   -1.7205    0.0000 O   0  0  0  0  0  0  0  0  0  0  0  0
    0.2513   -1.7205    0.0000 C   0  0  0  0  0  0  0  0  0  0  0  0
    0.2513   -2.5455    0.0000 O   0  0  0  0  0  0  0  0  0  0  0  0
   -0.4632    1.1670    0.0000 C   0  0  0  0  0  0  0  0  0  0  0  0
   -1.1777    0.7545    0.0000 C   0  0  0  0  0  0  0  0  0  0  0  0
   -0.4632    1.9920    0.0000 C   0  0  0  0  0  0  0  0  0  0  0  0
   -1.1777    2.4045    0.0000 C   0  0  0  0  0  0  0  0  0  0  0  0
   -1.8922    1.9920    0.0000 C   0  0  0  0  0  0  0  0  0  0  0  0
   -1.8922    1.1670    0.0000 C   0  0  0  0  0  0  0  0  0  0  0  0
   -1.3569    0.0330    0.0000 H   0  0  0  0  0  0  0  0  0  0  0  0
   -1.3569   -1.8240    0.0000 H   0  0  0  0  0  0  0  0  0  0  0  0
    1.6802   -2.6575    0.0000 H   0  0  0  0  0  0  0  0  0  0  0  0
   -0.5602   -3.0140    0.0000 H   0  0  0  0  0  0  0  0  0  0  0  0
   -1.1777   -0.2775    0.0000 H   0  0  0  0  0  0  0  0  0  0  0  0
    0.4305    2.5080    0.0000 H   0  0  0  0  0  0  0  0  0  0  0  0
   -1.1777    3.4365    0.0000 H   0  0  0  0  0  0  0  0  0  0  0  0
   -2.7859    2.5080    0.0000 H   0  0  0  0  0  0  0  0  0  0  0  0
   -2.7859    0.6510    0.0000 H   0  0  0  0  0  0  0  0  0  0  0  0
  1  2  2  0  0  0  0
  2  3  1  0  0  0  0
  2 14  1  0  0  0  0
  3  4  2  0  0  0  0
  3  6  1  0  0  0  0
  4  5  1  0  0  0  0
  4 20  1  0  0  0  0
  5 12  2  0  0  0  0
  5 21  1  0  0  0  0
  6  7  1  0  0  0  0
  6 10  2  0  0  0  0
  7  8  2  0  0  0  0
  7  9  1  0  0  0  0
 10 11  1  0  0  0  0
 10 12  1  0  0  0  0
 11 22  1  0  0  0  0
 12 13  1  0  0  0  0
 13 23  1  0  0  0  0
 14 15  2  0  0  0  0
 14 16  1  0  0  0  0
 15 19  1  0  0  0  0
 15 24  1  0  0  0  0
 16 17  2  0  0  0  0
 16 25  1  0  0  0  0
 17 18  1  0  0  0  0
 17 26  1  0  0  0  0
 18 19  2  0  0  0  0
 18 27  1  0  0  0  0
 19 28  1  0  0  0  0
M  CHG  2   7   1   9  -1
M  END
>  <DRUGBANK_ID>
DB07462

>  <COMMON_NAME>
(3,4-DIHYDROXY-2-NITROPHENYL)(PHENYL)METHANONE

$$$$
