338
 OpenBabel10282417072D

 32 35  0  0  0  0  0  0  0  0999 V2000
   -0.8755   -2.8695    0.0000 C   0  0  0  0  0  0  0  0  0  0  0  0
   -1.2880   -2.1550    0.0000 C   0  0  0  0  0  0  0  0  0  0  0  0
   -0.8755   -1.4405    0.0000 C   0  0  0  0  0  0  0  0  0  0  0  0
   -0.0505   -1.4405    0.0000 C   0  0  0  0  0  0  0  0  0  0  0  0
    0.3620   -2.1550    0.0000 C   0  0  0  0  0  0  0  0  0  0  0  0
   -0.0505   -2.8695    0.0000 C   0  0  0  0  0  0  0  0  0  0  0  0
   -1.1304   -0.6559    0.0000 O   0  0  0  0  0  0  0  0  0  0  0  0
   -0.4630   -0.1710    0.0000 C   0  0  0  0  0  0  0  0  0  0  0  0
    0.2045   -0.6559    0.0000 N   0  0  0  0  0  0  0  0  0  0  0  0
   -0.4630    0.6540    0.0000 C   0  0  0  0  0  0  0  0  0  0  0  0
    0.2515    1.0665    0.0000 C   0  0  0  0  0  0  0  0  0  0  0  0
    0.2515    1.8915    0.0000 C   0  0  0  0  0  0  0  0  0  0  0  0
   -0.4630    2.3040    0.0000 C   0  0  0  0  0  0  0  0  0  0  0  0
   -1.1774    1.8915    0.0000 C   0  0  0  0  0  0  0  0  0  0  0  0
   -1.1774    1.0665    0.0000 C   0  0  0  0  0  0  0  0  0  0  0  0
    0.9660    0.6540    0.0000 C   0  0  0  0  0  0  0  0  0  0  0  0
    1.6805    1.0665    0.0000 C   0  0  0  0  0  0  0  0  0  0  0  0
    1.6805    1.8915    0.0000 C   0  0  0  0  0  0  0  0  0  0  0  0
    0.9660    2.3040    0.0000 C   0  0  0  0  0  0  0  0  0  0  0  0
   -1.2880   -3.5839    0.0000 O   0  0  0  0  0  0  0  0  0  0  0  0
    0.9660    3.1290    0.0000 O   0  0  0  0  0  0  0  0  0  0  0  0
   -2.3200   -2.1550    0.0000 H   0  0  0  0  0  0  0  0  0  0  0  0
    1.3940   -2.1550    0.0000 H   0  0  0  0  0  0  0  0  0  0  0  0
    0.4655   -3.7632    0.0000 H   0  0  0  0  0  0  0  0  0  0  0  0
   -0.4630    3.3360    0.0000 H   0  0  0  0  0  0  0  0  0  0  0  0
   -2.0711    2.4075    0.0000 H   0  0  0  0  0  0  0  0  0  0  0  0
   -2.0711    0.5505    0.0000 H   0  0  0  0  0  0  0  0  0  0  0  0
    0.9660   -0.3780    0.0000 H   0  0  0  0  0  0  0  0  0  0  0  0
    2.5742    0.5505    0.0000 H   0  0  0  0  0  0  0  0  0  0  0  0
    2.5742    2.4075    0.0000 H   0  0  0  0  0  0  0  0  0  0  0  0
   -2.2250   -3.5839    0.0000 H   0  0  0  0  0  0  0  0  0  0  0  0
    1.7775    3.5975    0.0000 H   0  0  0  0  0  0  0  0  0  0  0  0
  1  2  2  0  0  0  0
  1  6  1  0  0  0  0
  1 20  1  0  0  0  0
  2  3  1  0  0  0  0
  2 22  1  0  0  0  0
  3  4  2  0  0  0  0
  3  7  1  0  0  0  0
  4  5  1  0  0  0  0
  4  9  1  0  0  0  0
  5  6  2  0  0  0  0
  5 23  1  0  0  0  0
  6 24  1  0  0  0  0
  7  8  1  0  0  0  0
  8  9  2  0  0  0  0
  8 10  1  0  0  0  0
 10 11  2  0  0  0  0
 10 15  1  0  0  0  0
 11 12  1  0  0  0  0
 11 16  1  0  0  0  0
 12 13  2  0  0  0  0
 12 19  1  0  0  0  0
 13 14  1  0  0  0  0
 13 25  1  0  0  0  0
 14 15  2  0  0  0  0
 14 26  1  0  0  0  0
 15 27  1  0  0  0  0
 16 17  2  0  0  0  0
 16 28  1  0  0  0  0
 17 18  1  0  0  0  0
 17 29  1  0  0  0  0
 18 19  2  0  0  0  0
 18 30  1  0  0  0  0
 19 21  1  0  0  0  0
 20 31  1  0  0  0  0
 21 32  1  0  0  0  0
M  END
>  <DRUGBANK_ID>
DB07009

>  <COMMON_NAME>
2-(5-HYDROXY-NAPHTHALEN-1-YL)-1,3-BENZOOXAZOL-6-OL

$$$$
