
 OpenBabel10282417072D

 34 36  0  0  0  0  0  0  0  0999 V2000
   -0.7235   -0.6118    0.0000 C   0  0  0  0  0  0  0  0  0  0  0  0
   -0.7201    0.2130    0.0000 C   0  0  0  0  0  0  0  0  0  0  0  0
   -1.4316   -1.0243    0.0000 C   0  0  0  0  0  0  0  0  0  0  0  0
   -0.0086   -1.0278    0.0000 C   0  0  0  0  0  0  0  0  0  0  0  0
   -0.0017    0.6255    0.0000 O   0  0  0  0  0  0  0  0  0  0  0  0
   -1.4316    0.6288    0.0000 C   0  0  0  0  0  0  0  0  0  0  0  0
   -2.1499   -0.6118    0.0000 C   0  0  0  0  0  0  0  0  0  0  0  0
   -1.4316   -1.8526    0.0000 O   0  0  0  0  0  0  0  0  0  0  0  0
    0.7097   -0.6187    0.0000 C   0  0  0  0  0  0  0  0  0  0  0  0
   -0.0120   -1.8526    0.0000 O   0  0  0  0  0  0  0  0  0  0  0  0
    0.7132    0.2061    0.0000 C   0  0  0  0  0  0  0  0  0  0  0  0
   -2.1499    0.2130    0.0000 C   0  0  0  0  0  0  0  0  0  0  0  0
   -2.8613   -1.0243    0.0000 O   0  0  0  0  0  0  0  0  0  0  0  0
    1.4316    0.6186    0.0000 C   0  0  0  0  0  0  0  0  0  0  0  0
   -2.8613    0.6288    0.0000 O   0  0  0  0  0  0  0  0  0  0  0  0
   -3.5797   -0.6154    0.0000 C   0  0  0  0  0  0  0  0  0  0  0  0
    2.1429    0.1993    0.0000 C   0  0  0  0  0  0  0  0  0  0  0  0
    1.4350    1.4436    0.0000 C   0  0  0  0  0  0  0  0  0  0  0  0
    2.8579    0.6117    0.0000 C   0  0  0  0  0  0  0  0  0  0  0  0
    2.1498    1.8526    0.0000 C   0  0  0  0  0  0  0  0  0  0  0  0
    2.8613    1.4367    0.0000 C   0  0  0  0  0  0  0  0  0  0  0  0
    3.5797    1.8457    0.0000 O   0  0  0  0  0  0  0  0  0  0  0  0
   -1.4295    1.6608    0.0000 H   0  0  0  0  0  0  0  0  0  0  0  0
   -2.2431   -2.3211    0.0000 H   0  0  0  0  0  0  0  0  0  0  0  0
    1.6008   -1.1392    0.0000 H   0  0  0  0  0  0  0  0  0  0  0  0
   -2.8563    1.5658    0.0000 H   0  0  0  0  0  0  0  0  0  0  0  0
   -3.5863    0.4546    0.0000 H   0  0  0  0  0  0  0  0  0  0  0  0
   -4.5030   -1.1561    0.0000 H   0  0  0  0  0  0  0  0  0  0  0  0
   -4.5096   -0.0861    0.0000 H   0  0  0  0  0  0  0  0  0  0  0  0
    2.1380   -0.8327    0.0000 H   0  0  0  0  0  0  0  0  0  0  0  0
    0.5433    1.9632    0.0000 H   0  0  0  0  0  0  0  0  0  0  0  0
    3.7505    0.0937    0.0000 H   0  0  0  0  0  0  0  0  0  0  0  0
    2.1546    2.8846    0.0000 H   0  0  0  0  0  0  0  0  0  0  0  0
    4.3883    1.3723    0.0000 H   0  0  0  0  0  0  0  0  0  0  0  0
  1  2  2  0  0  0  0
  1  3  1  0  0  0  0
  1  4  1  0  0  0  0
  2  5  1  0  0  0  0
  2  6  1  0  0  0  0
  3  7  2  0  0  0  0
  3  8  1  0  0  0  0
  4  9  1  0  0  0  0
  4 10  2  0  0  0  0
  5 11  1  0  0  0  0
  6 12  2  0  0  0  0
  6 23  1  0  0  0  0
  7 13  1  0  0  0  0
  7 12  1  0  0  0  0
  8 24  1  0  0  0  0
  9 11  2  0  0  0  0
  9 25  1  0  0  0  0
 11 14  1  0  0  0  0
 12 15  1  0  0  0  0
 13 16  1  0  0  0  0
 14 17  2  0  0  0  0
 14 18  1  0  0  0  0
 15 26  1  0  0  0  0
 16 27  1  0  0  0  0
 16 28  1  0  0  0  0
 16 29  1  0  0  0  0
 17 19  1  0  0  0  0
 17 30  1  0  0  0  0
 18 20  2  0  0  0  0
 18 31  1  0  0  0  0
 19 21  2  0  0  0  0
 19 32  1  0  0  0  0
 20 21  1  0  0  0  0
 20 33  1  0  0  0  0
 21 22  1  0  0  0  0
 22 34  1  0  0  0  0
M  END
>  <DRUGBANK_ID>
DB14008

>  <COMMON_NAME>
Hispidulin

>  <CAS_NUMBER>
1447-88-7

>  <UNII>
N7F61604C2

>  <SYNONYMS>
4',5,7-Trihydroxy-6-methoxyflavone; Dinatin; Salvitin; Scutellarein 6-methyl ether

$$$$
