
 OpenBabel10282417072D

131130  0  0  0  0  0  0  0  0999 V2000
   -4.9446    0.5422    0.0000 C   0  0  0  0  0  0  0  0  0  0  0  0
   -4.1195    0.5422    0.0000 C   0  0  0  0  0  0  0  0  0  0  0  0
   -3.7069    1.2494    0.0000 C   0  0  0  0  0  0  0  0  0  0  0  0
   -2.8818    1.2494    0.0000 C   0  0  0  0  0  0  0  0  0  0  0  0
   -2.4693    0.5422    0.0000 C   0  0  0  0  0  0  0  0  0  0  0  0
   -2.8818   -0.1767    0.0000 C   0  0  0  0  0  0  0  0  0  0  0  0
   -2.4693   -0.8957    0.0000 C   0  0  0  0  0  0  0  0  0  0  0  0
   -1.6442   -0.8957    0.0000 C   0  0  0  0  0  0  0  0  0  0  0  0
   -1.2316   -0.1767    0.0000 C   0  0  0  0  0  0  0  0  0  0  0  0
   -0.4066   -0.1767    0.0000 C   0  0  0  0  0  0  0  0  0  0  0  0
    0.0058   -0.8957    0.0000 C   0  0  0  0  0  0  0  0  0  0  0  0
   -0.4066   -1.6030    0.0000 C   0  0  0  0  0  0  0  0  0  0  0  0
    0.0058   -2.3219    0.0000 C   0  0  0  0  0  0  0  0  0  0  0  0
    0.8191   -2.3219    0.0000 C   0  0  0  0  0  0  0  0  0  0  0  0
    1.2316   -1.6148    0.0000 C   0  0  0  0  0  0  0  0  0  0  0  0
    2.0567   -1.6148    0.0000 C   0  0  0  0  0  0  0  0  0  0  0  0
    2.4693   -2.3219    0.0000 C   0  0  0  0  0  0  0  0  0  0  0  0
    2.0567   -3.0410    0.0000 C   0  0  0  0  0  0  0  0  0  0  0  0
    2.4693   -3.7482    0.0000 C   0  0  0  0  0  0  0  0  0  0  0  0
    2.0567   -4.4671    0.0000 C   0  0  0  0  0  0  0  0  0  0  0  0
    2.4693   -5.1862    0.0000 C   0  0  0  0  0  0  0  0  0  0  0  0
    2.0449   -5.8934    0.0000 O   0  0  0  0  0  0  0  0  0  0  0  0
    3.2944   -5.1862    0.0000 O   0  0  0  0  0  0  0  0  0  0  0  0
    3.7069   -4.4671    0.0000 C   0  0  2  0  0  0  0  0  0  0  0  0
    4.4141   -4.8797    0.0000 H   0  0  0  0  0  0  0  0  0  0  0  0
    4.1195   -3.7600    0.0000 C   0  0  0  0  0  0  0  0  0  0  0  0
    3.7069   -3.0410    0.0000 O   0  0  0  0  0  0  0  0  0  0  0  0
    4.1195   -2.3337    0.0000 C   0  0  0  0  0  0  0  0  0  0  0  0
    4.9446   -2.3337    0.0000 O   0  0  0  0  0  0  0  0  0  0  0  0
    3.7069   -1.6148    0.0000 C   0  0  0  0  0  0  0  0  0  0  0  0
    2.8818   -1.6148    0.0000 C   0  0  0  0  0  0  0  0  0  0  0  0
    2.6814   -1.2612    0.0000 C   0  0  0  0  0  0  0  0  0  0  0  0
    1.8564   -1.2494    0.0000 C   0  0  0  0  0  0  0  0  0  0  0  0
    1.4439   -0.5421    0.0000 C   0  0  0  0  0  0  0  0  0  0  0  0
    1.8564    0.1767    0.0000 C   0  0  0  0  0  0  0  0  0  0  0  0
    2.6814    0.1767    0.0000 C   0  0  0  0  0  0  0  0  0  0  0  0
    3.0940    0.8840    0.0000 C   0  0  0  0  0  0  0  0  0  0  0  0
    2.6932    1.6030    0.0000 C   0  0  0  0  0  0  0  0  0  0  0  0
    1.8682    1.6030    0.0000 C   0  0  0  0  0  0  0  0  0  0  0  0
    1.4557    2.3220    0.0000 C   0  0  0  0  0  0  0  0  0  0  0  0
    1.8682    3.0292    0.0000 C   0  0  0  0  0  0  0  0  0  0  0  0
    2.6932    3.0292    0.0000 C   0  0  0  0  0  0  0  0  0  0  0  0
    3.1176    3.7483    0.0000 C   0  0  0  0  0  0  0  0  0  0  0  0
    2.7050    4.4553    0.0000 C   0  0  0  0  0  0  0  0  0  0  0  0
    1.8799    4.4671    0.0000 C   0  0  0  0  0  0  0  0  0  0  0  0
    1.4792    5.1862    0.0000 C   0  0  0  0  0  0  0  0  0  0  0  0
    1.8917    5.8934    0.0000 C   0  0  0  0  0  0  0  0  0  0  0  0
    2.7050    5.8934    0.0000 C   0  0  0  0  0  0  0  0  0  0  0  0
    2.9879   -4.0546    0.0000 C   0  0  0  0  0  0  0  0  0  0  0  0
    2.2807   -4.4671    0.0000 O   0  0  0  0  0  0  0  0  0  0  0  0
    1.5617   -4.0546    0.0000 P   0  0  3  0  0  0  0  0  0  0  0  0
    1.9742   -3.3356    0.0000 O   0  0  0  0  0  0  0  0  0  0  0  0
    1.1491   -4.7619    0.0000 O   0  0  0  0  0  0  0  0  0  0  0  0
    0.8545   -3.6420    0.0000 O   0  0  0  0  0  0  0  0  0  0  0  0
    0.1355   -4.0428    0.0000 C   0  0  0  0  0  0  0  0  0  0  0  0
   -0.5717   -3.6302    0.0000 C   0  0  1  0  0  0  0  0  0  0  0  0
   -0.1591   -2.9231    0.0000 H   0  0  0  0  0  0  0  0  0  0  0  0
   -1.2907   -3.2177    0.0000 C   0  0  0  0  0  0  0  0  0  0  0  0
   -1.2907   -2.3927    0.0000 O   0  0  0  0  0  0  0  0  0  0  0  0
   -2.0096   -3.6302    0.0000 O   0  0  0  0  0  0  0  0  0  0  0  0
   -0.9842   -4.3493    0.0000 N   0  0  0  0  0  0  0  0  0  0  0  0
   -5.4796    1.4688    0.0000 H   0  0  0  0  0  0  0  0  0  0  0  0
   -5.4796   -0.3844    0.0000 H   0  0  0  0  0  0  0  0  0  0  0  0
   -6.0146    0.5422    0.0000 H   0  0  0  0  0  0  0  0  0  0  0  0
   -3.5866   -0.3857    0.0000 H   0  0  0  0  0  0  0  0  0  0  0  0
   -3.0495    0.5386    0.0000 H   0  0  0  0  0  0  0  0  0  0  0  0
   -4.2209    2.1443    0.0000 H   0  0  0  0  0  0  0  0  0  0  0  0
   -2.3678    2.1443    0.0000 H   0  0  0  0  0  0  0  0  0  0  0  0
   -1.3993    0.5460    0.0000 H   0  0  0  0  0  0  0  0  0  0  0  0
   -1.9314   -0.3828    0.0000 H   0  0  0  0  0  0  0  0  0  0  0  0
   -3.9138   -0.1767    0.0000 H   0  0  0  0  0  0  0  0  0  0  0  0
   -2.9865   -1.7887    0.0000 H   0  0  0  0  0  0  0  0  0  0  0  0
   -1.1080   -1.8216    0.0000 H   0  0  0  0  0  0  0  0  0  0  0  0
   -0.5742   -0.8936    0.0000 H   0  0  0  0  0  0  0  0  0  0  0  0
   -1.7488    0.7164    0.0000 H   0  0  0  0  0  0  0  0  0  0  0  0
    0.1107    0.7163    0.0000 H   0  0  0  0  0  0  0  0  0  0  0  0
    1.0758   -0.8995    0.0000 H   0  0  0  0  0  0  0  0  0  0  0  0
    0.5372   -1.8244    0.0000 H   0  0  0  0  0  0  0  0  0  0  0  0
   -1.4386   -1.5994    0.0000 H   0  0  0  0  0  0  0  0  0  0  0  0
   -0.5114   -3.2149    0.0000 H   0  0  0  0  0  0  0  0  0  0  0  0
    1.3520   -3.2497    0.0000 H   0  0  0  0  0  0  0  0  0  0  0  0
    1.8891   -2.3255    0.0000 H   0  0  0  0  0  0  0  0  0  0  0  0
    0.7176   -0.7199    0.0000 H   0  0  0  0  0  0  0  0  0  0  0  0
    2.5706   -0.7199    0.0000 H   0  0  0  0  0  0  0  0  0  0  0  0
    3.5393   -2.3180    0.0000 H   0  0  0  0  0  0  0  0  0  0  0  0
    3.0072   -3.2468    0.0000 H   0  0  0  0  0  0  0  0  0  0  0  0
    0.9867   -3.0449    0.0000 H   0  0  0  0  0  0  0  0  0  0  0  0
    1.5255   -3.9698    0.0000 H   0  0  0  0  0  0  0  0  0  0  0  0
    3.5393   -3.7444    0.0000 H   0  0  0  0  0  0  0  0  0  0  0  0
    3.0071   -4.6732    0.0000 H   0  0  0  0  0  0  0  0  0  0  0  0
    0.9867   -4.4670    0.0000 H   0  0  0  0  0  0  0  0  0  0  0  0
    1.5204   -5.3930    0.0000 H   0  0  0  0  0  0  0  0  0  0  0  0
    5.1895   -3.7639    0.0000 H   0  0  0  0  0  0  0  0  0  0  0  0
    4.6574   -2.8350    0.0000 H   0  0  0  0  0  0  0  0  0  0  0  0
    4.2431   -0.6888    0.0000 H   0  0  0  0  0  0  0  0  0  0  0  0
    3.1725   -0.6878    0.0000 H   0  0  0  0  0  0  0  0  0  0  0  0
    2.3431   -2.5393    0.0000 H   0  0  0  0  0  0  0  0  0  0  0  0
    1.8118   -1.6084    0.0000 H   0  0  0  0  0  0  0  0  0  0  0  0
    3.2267   -0.3406    0.0000 H   0  0  0  0  0  0  0  0  0  0  0  0
    2.1582   -0.3278    0.0000 H   0  0  0  0  0  0  0  0  0  0  0  0
    1.3360   -2.1406    0.0000 H   0  0  0  0  0  0  0  0  0  0  0  0
    0.4119   -0.5457    0.0000 H   0  0  0  0  0  0  0  0  0  0  0  0
    1.3202    1.1026    0.0000 H   0  0  0  0  0  0  0  0  0  0  0  0
    2.3908    1.1037    0.0000 H   0  0  0  0  0  0  0  0  0  0  0  0
    3.1954   -0.7182    0.0000 H   0  0  0  0  0  0  0  0  0  0  0  0
    4.1260    0.8739    0.0000 H   0  0  0  0  0  0  0  0  0  0  0  0
    3.2352    2.5256    0.0000 H   0  0  0  0  0  0  0  0  0  0  0  0
    2.1617    2.5317    0.0000 H   0  0  0  0  0  0  0  0  0  0  0  0
    1.3510    0.7100    0.0000 H   0  0  0  0  0  0  0  0  0  0  0  0
    0.4237    2.3257    0.0000 H   0  0  0  0  0  0  0  0  0  0  0  0
    1.3353    3.9570    0.0000 H   0  0  0  0  0  0  0  0  0  0  0  0
    2.4042    3.9553    0.0000 H   0  0  0  0  0  0  0  0  0  0  0  0
    3.2049    2.1330    0.0000 H   0  0  0  0  0  0  0  0  0  0  0  0
    4.1496    3.7458    0.0000 H   0  0  0  0  0  0  0  0  0  0  0  0
    3.2445    5.3794    0.0000 H   0  0  0  0  0  0  0  0  0  0  0  0
    2.1789    5.3870    0.0000 H   0  0  0  0  0  0  0  0  0  0  0  0
    1.3508    3.5811    0.0000 H   0  0  0  0  0  0  0  0  0  0  0  0
    0.4472    5.1963    0.0000 H   0  0  0  0  0  0  0  0  0  0  0  0
    1.3588    6.8212    0.0000 H   0  0  0  0  0  0  0  0  0  0  0  0
    2.4277    6.8195    0.0000 H   0  0  0  0  0  0  0  0  0  0  0  0
    3.2400    4.9668    0.0000 H   0  0  0  0  0  0  0  0  0  0  0  0
    3.2400    6.8200    0.0000 H   0  0  0  0  0  0  0  0  0  0  0  0
    3.7750    5.8934    0.0000 H   0  0  0  0  0  0  0  0  0  0  0  0
    2.9841   -2.9846    0.0000 H   0  0  0  0  0  0  0  0  0  0  0  0
    2.0591   -3.5233    0.0000 H   0  0  0  0  0  0  0  0  0  0  0  0
    0.1791   -4.7576    0.0000 H   0  0  0  0  0  0  0  0  0  0  0  0
    0.1250   -5.1127    0.0000 H   0  0  0  0  0  0  0  0  0  0  0  0
   -0.7950   -4.5711    0.0000 H   0  0  0  0  0  0  0  0  0  0  0  0
   -2.8198   -3.1595    0.0000 H   0  0  0  0  0  0  0  0  0  0  0  0
   -2.0042   -4.3521    0.0000 H   0  0  0  0  0  0  0  0  0  0  0  0
   -0.4717   -5.2312    0.0000 H   0  0  0  0  0  0  0  0  0  0  0  0
  1  2  1  0  0  0  0
  1 62  1  0  0  0  0
  1 63  1  0  0  0  0
  1 64  1  0  0  0  0
  2  3  1  0  0  0  0
  2 65  1  0  0  0  0
  2 66  1  0  0  0  0
  3  4  2  0  0  0  0
  3 67  1  0  0  0  0
  4  5  1  0  0  0  0
  4 68  1  0  0  0  0
  5  6  1  0  0  0  0
  5 69  1  0  0  0  0
  5 70  1  0  0  0  0
  6  7  2  0  0  0  0
  6 71  1  0  0  0  0
  7  8  1  0  0  0  0
  7 72  1  0  0  0  0
  8  9  1  0  0  0  0
  8 73  1  0  0  0  0
  8 74  1  0  0  0  0
  9 10  2  0  0  0  0
  9 75  1  0  0  0  0
 10 11  1  0  0  0  0
 10 76  1  0  0  0  0
 11 12  1  0  0  0  0
 11 77  1  0  0  0  0
 11 78  1  0  0  0  0
 12 13  2  0  0  0  0
 12 79  1  0  0  0  0
 13 14  1  0  0  0  0
 13 80  1  0  0  0  0
 14 15  1  0  0  0  0
 14 81  1  0  0  0  0
 14 82  1  0  0  0  0
 15 16  2  0  0  0  0
 15 83  1  0  0  0  0
 16 17  1  0  0  0  0
 16 84  1  0  0  0  0
 17 18  1  0  0  0  0
 17 85  1  0  0  0  0
 17 86  1  0  0  0  0
 18 19  1  0  0  0  0
 18 87  1  0  0  0  0
 18 88  1  0  0  0  0
 19 20  1  0  0  0  0
 19 89  1  0  0  0  0
 19 90  1  0  0  0  0
 20 21  1  0  0  0  0
 20 91  1  0  0  0  0
 20 92  1  0  0  0  0
 21 22  2  0  0  0  0
 21 23  1  0  0  0  0
 23 24  1  0  0  0  0
 24 25  1  6  0  0  0
 24 26  1  0  0  0  0
 24 49  1  0  0  0  0
 26 27  1  0  0  0  0
 26 93  1  0  0  0  0
 26 94  1  0  0  0  0
 27 28  1  0  0  0  0
 28 29  2  0  0  0  0
 28 30  1  0  0  0  0
 30 31  1  0  0  0  0
 30 95  1  0  0  0  0
 30 96  1  0  0  0  0
 31 32  1  0  0  0  0
 31 97  1  0  0  0  0
 31 98  1  0  0  0  0
 32 33  1  0  0  0  0
 32 99  1  0  0  0  0
 32100  1  0  0  0  0
 33 34  2  0  0  0  0
 33101  1  0  0  0  0
 34 35  1  0  0  0  0
 34102  1  0  0  0  0
 35 36  1  0  0  0  0
 35103  1  0  0  0  0
 35104  1  0  0  0  0
 36 37  2  0  0  0  0
 36105  1  0  0  0  0
 37 38  1  0  0  0  0
 37106  1  0  0  0  0
 38 39  1  0  0  0  0
 38107  1  0  0  0  0
 38108  1  0  0  0  0
 39 40  2  0  0  0  0
 39109  1  0  0  0  0
 40 41  1  0  0  0  0
 40110  1  0  0  0  0
 41 42  1  0  0  0  0
 41111  1  0  0  0  0
 41112  1  0  0  0  0
 42 43  2  0  0  0  0
 42113  1  0  0  0  0
 43 44  1  0  0  0  0
 43114  1  0  0  0  0
 44 45  1  0  0  0  0
 44115  1  0  0  0  0
 44116  1  0  0  0  0
 45 46  2  0  0  0  0
 45117  1  0  0  0  0
 46 47  1  0  0  0  0
 46118  1  0  0  0  0
 47 48  1  0  0  0  0
 47119  1  0  0  0  0
 47120  1  0  0  0  0
 48121  1  0  0  0  0
 48122  1  0  0  0  0
 48123  1  0  0  0  0
 49 50  1  0  0  0  0
 49124  1  0  0  0  0
 49125  1  0  0  0  0
 50 51  1  0  0  0  0
 51 52  2  0  0  0  0
 51 53  1  0  0  0  0
 51 54  1  0  0  0  0
 53126  1  0  0  0  0
 54 55  1  0  0  0  0
 55 56  1  0  0  0  0
 55127  1  0  0  0  0
 55128  1  0  0  0  0
 56 57  1  1  0  0  0
 56 58  1  0  0  0  0
 56 61  1  0  0  0  0
 58 59  2  0  0  0  0
 58 60  1  0  0  0  0
 60129  1  0  0  0  0
 61130  1  0  0  0  0
 61131  1  0  0  0  0
M  END
>  <DRUGBANK_ID>
DB14096

>  <COMMON_NAME>
1,2-icosapentoyl-sn-glycero-3-phosphoserine

>  <UNII>
C3019D8IIA

$$$$
