
 OpenBabel10282417072D

 73 77  0  0  1  0  0  0  0  0999 V2000
   -4.8933   -3.2027    0.0000 C   0  0  0  0  0  0  0  0  0  0  0  0
   -4.2613   -3.7330    0.0000 C   0  0  2  0  0  0  0  0  0  0  0  0
   -3.4608   -3.5334    0.0000 C   0  0  0  0  0  0  0  0  0  0  0  0
   -3.0236   -4.2330    0.0000 N   0  0  0  0  0  0  0  0  0  0  0  0
   -2.2006   -4.2906    0.0000 C   0  0  0  0  0  0  0  0  0  0  0  0
   -1.7393   -3.6066    0.0000 C   0  0  0  0  0  0  0  0  0  0  0  0
   -0.9163   -3.6642    0.0000 C   0  0  0  0  0  0  0  0  0  0  0  0
   -0.5546   -4.4057    0.0000 C   0  0  0  0  0  0  0  0  0  0  0  0
   -1.0160   -5.0896    0.0000 C   0  0  0  0  0  0  0  0  0  0  0  0
   -1.8390   -5.0321    0.0000 N   0  0  0  0  0  0  0  0  0  0  0  0
   -0.6543   -5.8311    0.0000 N   0  0  0  0  0  0  0  0  0  0  0  0
    0.1581   -5.9744    0.0000 C   0  0  0  0  0  0  0  0  0  0  0  0
    0.2730   -6.7914    0.0000 C   0  0  0  0  0  0  0  0  0  0  0  0
   -0.4685   -7.1530    0.0000 C   0  0  0  0  0  0  0  0  0  0  0  0
   -0.6118   -7.9655    0.0000 O   0  0  0  0  0  0  0  0  0  0  0  0
    0.0202   -8.4958    0.0000 C   0  0  0  0  0  0  0  0  0  0  0  0
   -0.1231   -9.3083    0.0000 C   0  0  0  0  0  0  0  0  0  0  0  0
    0.5089   -9.8386    0.0000 C   0  0  0  0  0  0  0  0  0  0  0  0
    0.9214  -10.5530    0.0000 C   0  0  0  0  0  0  0  0  0  0  0  0
    0.0964  -10.5530    0.0000 C   0  0  0  0  0  0  0  0  0  0  0  0
    1.1409   -9.3083    0.0000 C   0  0  0  0  0  0  0  0  0  0  0  0
    1.7729   -8.7780    0.0000 F   0  0  0  0  0  0  0  0  0  0  0  0
    0.6106   -8.6763    0.0000 F   0  0  0  0  0  0  0  0  0  0  0  0
    1.6712   -9.9403    0.0000 F   0  0  0  0  0  0  0  0  0  0  0  0
   -1.0416   -6.5596    0.0000 N   0  0  0  0  0  0  0  0  0  0  0  0
   -2.1009   -2.8651    0.0000 C   0  0  0  0  0  0  0  0  0  0  0  0
   -1.6396   -2.1812    0.0000 O   0  0  0  0  0  0  0  0  0  0  0  0
   -2.9239   -2.8076    0.0000 N   0  0  0  0  0  0  0  0  0  0  0  0
   -3.2856   -2.0661    0.0000 S   0  0  0  0  0  0  0  0  0  0  0  0
   -2.5441   -1.7044    0.0000 O   0  0  0  0  0  0  0  0  0  0  0  0
   -4.0271   -2.4277    0.0000 O   0  0  0  0  0  0  0  0  0  0  0  0
   -3.6473   -1.3246    0.0000 C   0  0  0  0  0  0  0  0  0  0  0  0
   -4.4702   -1.2670    0.0000 C   0  0  0  0  0  0  0  0  0  0  0  0
   -4.8319   -0.5255    0.0000 C   0  0  0  0  0  0  0  0  0  0  0  0
   -4.3706    0.1584    0.0000 C   0  0  0  0  0  0  0  0  0  0  0  0
   -3.5476    0.1009    0.0000 C   0  0  0  0  0  0  0  0  0  0  0  0
   -3.1859   -0.6406    0.0000 C   0  0  0  0  0  0  0  0  0  0  0  0
   -3.5539   -4.8650    0.0000 C   0  0  0  0  0  0  0  0  0  0  0  0
   -2.8700   -5.3264    0.0000 C   0  0  0  0  0  0  0  0  0  0  0  0
   -3.9412   -5.5935    0.0000 C   0  0  0  0  0  0  0  0  0  0  0  0
   -4.3188   -4.5560    0.0000 C   0  0  0  0  0  0  0  0  0  0  0  0
   -4.7075   -2.1490    0.0000 H   0  0  0  0  0  0  0  0  0  0  0  0
   -5.8988   -3.5687    0.0000 H   0  0  0  0  0  0  0  0  0  0  0  0
   -5.7130   -2.5149    0.0000 H   0  0  0  0  0  0  0  0  0  0  0  0
   -4.0206   -2.6904    0.0000 H   0  0  0  0  0  0  0  0  0  0  0  0
   -3.0600   -2.5413    0.0000 H   0  0  0  0  0  0  0  0  0  0  0  0
   -2.3949   -3.4401    0.0000 H   0  0  0  0  0  0  0  0  0  0  0  0
   -0.3392   -2.8086    0.0000 H   0  0  0  0  0  0  0  0  0  0  0  0
    0.4749   -4.4777    0.0000 H   0  0  0  0  0  0  0  0  0  0  0  0
    0.9004   -5.2575    0.0000 H   0  0  0  0  0  0  0  0  0  0  0  0
    1.1842   -7.2759    0.0000 H   0  0  0  0  0  0  0  0  0  0  0  0
    1.0257   -8.1299    0.0000 H   0  0  0  0  0  0  0  0  0  0  0  0
    0.8398   -9.1836    0.0000 H   0  0  0  0  0  0  0  0  0  0  0  0
   -1.1286   -9.6742    0.0000 H   0  0  0  0  0  0  0  0  0  0  0  0
   -0.3089  -10.3620    0.0000 H   0  0  0  0  0  0  0  0  0  0  0  0
    1.8481  -11.0880    0.0000 H   0  0  0  0  0  0  0  0  0  0  0  0
    0.6445  -11.5865    0.0000 H   0  0  0  0  0  0  0  0  0  0  0  0
   -0.8303  -11.0880    0.0000 H   0  0  0  0  0  0  0  0  0  0  0  0
   -0.6602   -9.7964    0.0000 H   0  0  0  0  0  0  0  0  0  0  0  0
   -3.4744   -3.6238    0.0000 H   0  0  0  0  0  0  0  0  0  0  0  0
   -5.0473   -2.1226    0.0000 H   0  0  0  0  0  0  0  0  0  0  0  0
   -5.8614   -0.4535    0.0000 H   0  0  0  0  0  0  0  0  0  0  0  0
   -4.8230    1.0859    0.0000 H   0  0  0  0  0  0  0  0  0  0  0  0
   -2.9706    0.9565    0.0000 H   0  0  0  0  0  0  0  0  0  0  0  0
   -2.1564   -0.7126    0.0000 H   0  0  0  0  0  0  0  0  0  0  0  0
   -2.9448   -6.3938    0.0000 H   0  0  0  0  0  0  0  0  0  0  0  0
   -1.9082   -4.8574    0.0000 H   0  0  0  0  0  0  0  0  0  0  0  0
   -1.9830   -5.9248    0.0000 H   0  0  0  0  0  0  0  0  0  0  0  0
   -5.0105   -5.6309    0.0000 H   0  0  0  0  0  0  0  0  0  0  0  0
   -3.3741   -6.5009    0.0000 H   0  0  0  0  0  0  0  0  0  0  0  0
   -4.4435   -6.5383    0.0000 H   0  0  0  0  0  0  0  0  0  0  0  0
   -5.2262   -5.1231    0.0000 H   0  0  0  0  0  0  0  0  0  0  0  0
   -5.2360   -4.0050    0.0000 H   0  0  0  0  0  0  0  0  0  0  0  0
  1 42  1  0  0  0  0
  1 43  1  0  0  0  0
  1 44  1  0  0  0  0
  2  1  1  0  0  0  0
  2  3  1  0  0  0  0
  2 41  1  0  0  0  0
  2 45  1  1  0  0  0
  3  4  1  0  0  0  0
  3 46  1  0  0  0  0
  3 47  1  0  0  0  0
  4  5  1  0  0  0  0
  4 38  1  0  0  0  0
  5  6  2  0  0  0  0
  5 10  1  0  0  0  0
  6  7  1  0  0  0  0
  6 26  1  0  0  0  0
  7  8  2  0  0  0  0
  7 48  1  0  0  0  0
  8  9  1  0  0  0  0
  8 49  1  0  0  0  0
  9 10  2  0  0  0  0
  9 11  1  0  0  0  0
 11 12  1  0  0  0  0
 11 25  1  0  0  0  0
 12 13  2  0  0  0  0
 12 50  1  0  0  0  0
 13 14  1  0  0  0  0
 13 51  1  0  0  0  0
 14 15  1  0  0  0  0
 14 25  2  0  0  0  0
 15 16  1  0  0  0  0
 16 17  1  0  0  0  0
 16 52  1  0  0  0  0
 16 53  1  0  0  0  0
 17 18  1  0  0  0  0
 17 54  1  0  0  0  0
 17 55  1  0  0  0  0
 18 19  1  0  0  0  0
 18 20  1  0  0  0  0
 18 21  1  0  0  0  0
 19 20  1  0  0  0  0
 19 56  1  0  0  0  0
 19 57  1  0  0  0  0
 20 58  1  0  0  0  0
 20 59  1  0  0  0  0
 21 22  1  0  0  0  0
 21 23  1  0  0  0  0
 21 24  1  0  0  0  0
 26 27  2  0  0  0  0
 26 28  1  0  0  0  0
 28 29  1  0  0  0  0
 28 60  1  0  0  0  0
 29 30  2  0  0  0  0
 29 31  2  0  0  0  0
 29 32  1  0  0  0  0
 32 33  2  0  0  0  0
 32 37  1  0  0  0  0
 33 34  1  0  0  0  0
 33 61  1  0  0  0  0
 34 35  2  0  0  0  0
 34 62  1  0  0  0  0
 35 36  1  0  0  0  0
 35 63  1  0  0  0  0
 36 37  2  0  0  0  0
 36 64  1  0  0  0  0
 37 65  1  0  0  0  0
 38 39  1  0  0  0  0
 38 40  1  0  0  0  0
 38 41  1  0  0  0  0
 39 66  1  0  0  0  0
 39 67  1  0  0  0  0
 39 68  1  0  0  0  0
 40 69  1  0  0  0  0
 40 70  1  0  0  0  0
 40 71  1  0  0  0  0
 41 72  1  0  0  0  0
 41 73  1  0  0  0  0
M  END
>  <DRUGBANK_ID>
DB15177

>  <COMMON_NAME>
Bamocaftor

>  <CAS_NUMBER>
2204245-48-5

>  <UNII>
8C7XEW3K7S

>  <SYNONYMS>
3-Pyridinecarboxamide, N-(phenylsulfonyl)-6-(3-(2-(1-(trifluoromethyl)cyclopropyl)ethoxy)-1H-pyrazol-1-yl)-2-((4S)-2,2,4-trimethyl-1-pyrrolidinyl)-; N-(benzenesulfonyl)-6-[3-[2-[1-(trifluoromethyl)cyclopropyl]ethoxy]pyrazol-1-yl]-2-[(4S)-2,2,4-trimethylpyrrolidin-1-yl]pyridine-3-carboxamide

$$$$
