
 OpenBabel10282417072D

 23 23  0  0  0  0  0  0  0  0999 V2000
    0.3572   -0.4125    0.0000 C   0  0  1  0  0  0  0  0  0  0  0  0
    0.3572   -1.2374    0.0000 O   0  0  0  0  0  0  0  0  0  0  0  0
   -0.3572    0.0000    0.0000 C   0  0  2  0  0  0  0  0  0  0  0  0
   -1.0716   -0.4125    0.0000 O   0  0  0  0  0  0  0  0  0  0  0  0
   -0.3572    0.8250    0.0000 C   0  0  2  0  0  0  0  0  0  0  0  0
    1.0717    0.8250    0.0000 C   0  0  2  0  0  0  0  0  0  0  0  0
    1.7861    1.2374    0.0000 O   0  0  0  0  0  0  0  0  0  0  0  0
    0.3572    1.2374    0.0000 O   0  0  0  0  0  0  0  0  0  0  0  0
    1.0717    0.0000    0.0000 C   0  0  1  0  0  0  0  0  0  0  0  0
   -1.0716    1.2374    0.0000 C   0  0  0  0  0  0  0  0  0  0  0  0
   -1.7862    0.8250    0.0000 O   0  0  0  0  0  0  0  0  0  0  0  0
    1.7862   -0.4125    0.0000 F   0  0  0  0  0  0  0  0  0  0  0  0
   -0.5695   -0.9475    0.0000 H   0  0  0  0  0  0  0  0  0  0  0  0
   -0.4828   -1.7224    0.0000 H   0  0  0  0  0  0  0  0  0  0  0  0
   -1.2839    0.5350    0.0000 H   0  0  0  0  0  0  0  0  0  0  0  0
   -1.9117    0.0725    0.0000 H   0  0  0  0  0  0  0  0  0  0  0  0
   -1.2838    0.2900    0.0000 H   0  0  0  0  0  0  0  0  0  0  0  0
    1.0717    1.8950    0.0000 H   0  0  0  0  0  0  0  0  0  0  0  0
    2.6261    0.7523    0.0000 H   0  0  0  0  0  0  0  0  0  0  0  0
    1.0717   -1.0700    0.0000 H   0  0  0  0  0  0  0  0  0  0  0  0
   -1.0715    2.3074    0.0000 H   0  0  0  0  0  0  0  0  0  0  0  0
   -1.9982    1.7725    0.0000 H   0  0  0  0  0  0  0  0  0  0  0  0
   -2.6262    1.3102    0.0000 H   0  0  0  0  0  0  0  0  0  0  0  0
  1  3  1  0  0  0  0
  1  2  1  0  0  0  0
  1 13  1  6  0  0  0
  2 14  1  0  0  0  0
  3  5  1  0  0  0  0
  3  4  1  0  0  0  0
  3 15  1  1  0  0  0
  4 16  1  0  0  0  0
  5  8  1  0  0  0  0
  5 10  1  0  0  0  0
  5 17  1  6  0  0  0
  6  8  1  0  0  0  0
  6  9  1  0  0  0  0
  6  7  1  0  0  0  0
  6 18  1  6  0  0  0
  7 19  1  0  0  0  0
  9  1  1  0  0  0  0
  9 12  1  0  0  0  0
  9 20  1  6  0  0  0
 10 11  1  0  0  0  0
 10 21  1  0  0  0  0
 10 22  1  0  0  0  0
 11 23  1  0  0  0  0
M  END
>  <DRUGBANK_ID>
DB04483

>  <SECONDARY_ACCESSION_NUMBERS>
EXPT02121

>  <COMMON_NAME>
2-deoxy-2-fluoro-Î²-D-mannose

>  <CAS_NUMBER>
55449-80-4

>  <SYNONYMS>
2-deoxy-2-fluoro-beta-D-mannose

$$$$
