
 OpenBabel10282417072D

122124  0  0  0  0  0  0  0  0999 V2000
   -2.3916   -1.5964    0.0000 C   0  0  0  0  0  0  0  0  0  0  0  0
   -1.7405   -1.1066    0.0000 N   0  0  0  0  0  0  0  0  0  0  0  0
   -1.0680   -1.5713    0.0000 C   0  0  0  0  0  0  0  0  0  0  0  0
   -0.2946   -1.3163    0.0000 C   0  0  0  0  0  0  0  0  0  0  0  0
   -0.0517   -0.5279    0.0000 C   0  0  0  0  0  0  0  0  0  0  0  0
   -0.5415    0.1229    0.0000 N   0  5  0  0  0  0  0  0  0  0  0  0
   -0.0769    0.7954    0.0000 C   0  0  0  0  0  0  0  0  0  0  0  0
   -0.3317    1.5687    0.0000 C   0  0  0  0  0  0  0  0  0  0  0  0
   -1.1200    1.8117    0.0000 C   0  0  0  0  0  0  0  0  0  0  0  0
   -1.7710    1.3220    0.0000 N   0  0  0  0  0  0  0  0  0  0  0  0
   -2.4437    1.7866    0.0000 C   0  0  0  0  0  0  0  0  0  0  0  0
   -3.2169    1.5317    0.0000 C   0  0  0  0  0  0  0  0  0  0  0  0
   -3.4599    0.7435    0.0000 C   0  0  0  0  0  0  0  0  0  0  0  0
   -2.9701    0.0924    0.0000 N   0  5  0  0  0  0  0  0  0  0  0  0
   -3.4347   -0.5800    0.0000 C   0  0  0  0  0  0  0  0  0  0  0  0
   -3.1799   -1.3534    0.0000 C   0  0  0  0  0  0  0  0  0  0  0  0
   -3.8844   -1.7595    0.0000 C   0  0  0  0  0  0  0  0  0  0  0  0
   -3.9551   -2.6002    0.0000 N   0  3  0  0  0  0  0  0  0  0  0  0
   -4.7766   -2.7927    0.0000 C   0  0  0  0  0  0  0  0  0  0  0  0
   -5.2133   -2.0710    0.0000 C   0  0  0  0  0  0  0  0  0  0  0  0
   -4.6621   -1.4325    0.0000 N   0  0  0  0  0  0  0  0  0  0  0  0
   -4.8978   -0.6221    0.0000 C   0  0  0  0  0  0  0  0  0  0  0  0
   -5.7175   -0.4211    0.0000 C   0  0  0  0  0  0  0  0  0  0  0  0
   -3.3457   -3.1842    0.0000 C   0  0  0  0  0  0  0  0  0  0  0  0
   -3.5467   -4.0039    0.0000 C   0  0  0  0  0  0  0  0  0  0  0  0
   -4.2287   -0.3370    0.0000 C   0  0  0  0  0  0  0  0  0  0  0  0
   -4.2287    0.4840    0.0000 C   0  0  0  0  0  0  0  0  0  0  0  0
   -3.6231    2.2362    0.0000 C   0  0  0  0  0  0  0  0  0  0  0  0
   -3.2795    3.0066    0.0000 N   0  0  0  0  0  0  0  0  0  0  0  0
   -3.9061    3.5715    0.0000 C   0  0  0  0  0  0  0  0  0  0  0  0
   -4.6369    3.1503    0.0000 C   0  0  0  0  0  0  0  0  0  0  0  0
   -4.4620    2.3249    0.0000 N   0  3  0  0  0  0  0  0  0  0  0  0
   -5.0589    1.7280    0.0000 C   0  0  0  0  0  0  0  0  0  0  0  0
   -5.8741    1.9465    0.0000 C   0  0  0  0  0  0  0  0  0  0  0  0
   -2.4641    3.2251    0.0000 C   0  0  0  0  0  0  0  0  0  0  0  0
   -2.2456    4.0404    0.0000 C   0  0  0  0  0  0  0  0  0  0  0  0
   -2.1992    2.5850    0.0000 C   0  0  0  0  0  0  0  0  0  0  0  0
   -1.3781    2.5850    0.0000 C   0  0  0  0  0  0  0  0  0  0  0  0
    0.3740    1.9794    0.0000 C   0  0  0  0  0  0  0  0  0  0  0  0
    1.1248    1.5945    0.0000 N   0  0  0  0  0  0  0  0  0  0  0  0
    1.7229    2.1897    0.0000 C   0  0  0  0  0  0  0  0  0  0  0  0
    1.3416    2.9423    0.0000 C   0  0  0  0  0  0  0  0  0  0  0  0
    0.5080    2.8123    0.0000 N   0  3  0  0  0  0  0  0  0  0  0  0
   -0.0556    3.4405    0.0000 C   0  0  0  0  0  0  0  0  0  0  0  0
    0.2066    4.2428    0.0000 C   0  0  0  0  0  0  0  0  0  0  0  0
    1.2990    0.7687    0.0000 C   0  0  0  0  0  0  0  0  0  0  0  0
    2.1012    0.5066    0.0000 C   0  0  0  0  0  0  0  0  0  0  0  0
    0.7159    0.5510    0.0000 C   0  0  0  0  0  0  0  0  0  0  0  0
    0.7159   -0.2700    0.0000 C   0  0  0  0  0  0  0  0  0  0  0  0
    0.1159   -2.0223    0.0000 C   0  0  0  0  0  0  0  0  0  0  0  0
    0.9116   -1.7422    0.0000 N   0  3  0  0  0  0  0  0  0  0  0  0
    1.4237   -2.4127    0.0000 C   0  0  0  0  0  0  0  0  0  0  0  0
    0.9444   -3.1070    0.0000 C   0  0  0  0  0  0  0  0  0  0  0  0
    0.1360   -2.8655    0.0000 N   0  0  0  0  0  0  0  0  0  0  0  0
   -0.5066   -3.4127    0.0000 C   0  0  0  0  0  0  0  0  0  0  0  0
   -0.3541   -4.2428    0.0000 C   0  0  0  0  0  0  0  0  0  0  0  0
    1.1946   -0.9470    0.0000 C   0  0  0  0  0  0  0  0  0  0  0  0
    2.0247   -0.7946    0.0000 C   0  0  0  0  0  0  0  0  0  0  0  0
   -1.3111   -2.3595    0.0000 C   0  0  0  0  0  0  0  0  0  0  0  0
   -2.1323   -2.3595    0.0000 C   0  0  0  0  0  0  0  0  0  0  0  0
   -1.9591    0.5318    0.0000 Mn  0  1  0  0  0  0  0  0  0  0  0  0
    5.8741    2.2496    0.0000 Cl  0  5  0  0  0  0  0  0  0  0  0  0
    5.8741    2.2496    0.0000 Cl  0  5  0  0  0  0  0  0  0  0  0  0
    5.8741    2.2496    0.0000 Cl  0  5  0  0  0  0  0  0  0  0  0  0
    5.8741    2.2496    0.0000 Cl  0  5  0  0  0  0  0  0  0  0  0  0
    5.8741    2.2496    0.0000 Cl  0  5  0  0  0  0  0  0  0  0  0  0
   -5.1768   -3.7439    0.0000 H   0  0  0  0  0  0  0  0  0  0  0  0
   -6.2417   -1.9844    0.0000 H   0  0  0  0  0  0  0  0  0  0  0  0
   -4.1575    0.1504    0.0000 H   0  0  0  0  0  0  0  0  0  0  0  0
   -5.1967    0.4053    0.0000 H   0  0  0  0  0  0  0  0  0  0  0  0
   -6.0164    0.6063    0.0000 H   0  0  0  0  0  0  0  0  0  0  0  0
   -6.4578   -1.1937    0.0000 H   0  0  0  0  0  0  0  0  0  0  0  0
   -6.7567   -0.1663    0.0000 H   0  0  0  0  0  0  0  0  0  0  0  0
   -2.3183   -2.8853    0.0000 H   0  0  0  0  0  0  0  0  0  0  0  0
   -2.5731   -3.9245    0.0000 H   0  0  0  0  0  0  0  0  0  0  0  0
   -4.5741   -4.3028    0.0000 H   0  0  0  0  0  0  0  0  0  0  0  0
   -2.7741   -4.7442    0.0000 H   0  0  0  0  0  0  0  0  0  0  0  0
   -3.8015   -5.0431    0.0000 H   0  0  0  0  0  0  0  0  0  0  0  0
   -5.0584   -0.9507    0.0000 H   0  0  0  0  0  0  0  0  0  0  0  0
   -5.0670    1.0858    0.0000 H   0  0  0  0  0  0  0  0  0  0  0  0
   -3.7975    4.5978    0.0000 H   0  0  0  0  0  0  0  0  0  0  0  0
   -5.5794    3.5707    0.0000 H   0  0  0  0  0  0  0  0  0  0  0  0
   -4.7820    0.6944    0.0000 H   0  0  0  0  0  0  0  0  0  0  0  0
   -5.8155    0.9714    0.0000 H   0  0  0  0  0  0  0  0  0  0  0  0
   -6.1510    2.9801    0.0000 H   0  0  0  0  0  0  0  0  0  0  0  0
   -6.6308    1.1900    0.0000 H   0  0  0  0  0  0  0  0  0  0  0  0
   -6.9076    2.2235    0.0000 H   0  0  0  0  0  0  0  0  0  0  0  0
   -1.7075    2.4685    0.0000 H   0  0  0  0  0  0  0  0  0  0  0  0
   -1.4306    3.5020    0.0000 H   0  0  0  0  0  0  0  0  0  0  0  0
   -1.2120    4.3173    0.0000 H   0  0  0  0  0  0  0  0  0  0  0  0
   -3.0022    4.7970    0.0000 H   0  0  0  0  0  0  0  0  0  0  0  0
   -1.9686    5.0739    0.0000 H   0  0  0  0  0  0  0  0  0  0  0  0
   -2.8129    3.4147    0.0000 H   0  0  0  0  0  0  0  0  0  0  0  0
   -0.7748    3.4223    0.0000 H   0  0  0  0  0  0  0  0  0  0  0  0
    2.7418    2.0259    0.0000 H   0  0  0  0  0  0  0  0  0  0  0  0
    1.8123    3.8607    0.0000 H   0  0  0  0  0  0  0  0  0  0  0  0
   -1.1026    3.2199    0.0000 H   0  0  0  0  0  0  0  0  0  0  0  0
   -0.7702    4.2369    0.0000 H   0  0  0  0  0  0  0  0  0  0  0  0
    1.2536    4.4635    0.0000 H   0  0  0  0  0  0  0  0  0  0  0  0
   -0.5080    5.0392    0.0000 H   0  0  0  0  0  0  0  0  0  0  0  0
    0.5390    5.2599    0.0000 H   0  0  0  0  0  0  0  0  0  0  0  0
    0.5027    0.0540    0.0000 H   0  0  0  0  0  0  0  0  0  0  0  0
    1.5198   -0.2783    0.0000 H   0  0  0  0  0  0  0  0  0  0  0  0
    2.3220   -0.5404    0.0000 H   0  0  0  0  0  0  0  0  0  0  0  0
    2.8975    1.2213    0.0000 H   0  0  0  0  0  0  0  0  0  0  0  0
    3.1183    0.1743    0.0000 H   0  0  0  0  0  0  0  0  0  0  0  0
    1.5462    1.1639    0.0000 H   0  0  0  0  0  0  0  0  0  0  0  0
    1.5538   -0.8724    0.0000 H   0  0  0  0  0  0  0  0  0  0  0  0
    2.4554   -2.3879    0.0000 H   0  0  0  0  0  0  0  0  0  0  0  0
    1.2868   -4.0806    0.0000 H   0  0  0  0  0  0  0  0  0  0  0  0
   -1.5147   -3.0540    0.0000 H   0  0  0  0  0  0  0  0  0  0  0  0
   -1.3213   -4.1063    0.0000 H   0  0  0  0  0  0  0  0  0  0  0  0
   -1.1688   -4.9364    0.0000 H   0  0  0  0  0  0  0  0  0  0  0  0
    0.6540   -4.6016    0.0000 H   0  0  0  0  0  0  0  0  0  0  0  0
   -0.1608   -5.2952    0.0000 H   0  0  0  0  0  0  0  0  0  0  0  0
    0.5010   -0.1322    0.0000 H   0  0  0  0  0  0  0  0  0  0  0  0
    1.5534    0.0610    0.0000 H   0  0  0  0  0  0  0  0  0  0  0  0
    2.7182   -1.6094    0.0000 H   0  0  0  0  0  0  0  0  0  0  0  0
    2.3836    0.2134    0.0000 H   0  0  0  0  0  0  0  0  0  0  0  0
    3.0771   -0.6014    0.0000 H   0  0  0  0  0  0  0  0  0  0  0  0
   -0.6983   -3.1898    0.0000 H   0  0  0  0  0  0  0  0  0  0  0  0
   -2.7333   -3.1985    0.0000 H   0  0  0  0  0  0  0  0  0  0  0  0
  2  1  1  0  0  0  0
  3 59  1  0  0  0  0
  3  2  2  0  0  0  0
  4 50  1  0  0  0  0
  4  3  1  0  0  0  0
  5  4  2  0  0  0  0
  6  5  1  0  0  0  0
  7  6  1  0  0  0  0
  7 48  1  0  0  0  0
  8  7  2  0  0  0  0
  8 39  1  0  0  0  0
  9  8  1  0  0  0  0
  9 10  2  0  0  0  0
  9 38  1  0  0  0  0
 10 11  1  0  0  0  0
 11 12  2  0  0  0  0
 12 13  1  0  0  0  0
 13 14  1  0  0  0  0
 13 27  2  0  0  0  0
 14 15  1  0  0  0  0
 15 16  1  0  0  0  0
 16  1  2  0  0  0  0
 16 17  1  0  0  0  0
 18 17  2  0  0  0  0
 18 24  1  0  0  0  0
 19 18  1  0  0  0  0
 19 67  1  0  0  0  0
 20 19  2  0  0  0  0
 20 68  1  0  0  0  0
 21 20  1  0  0  0  0
 21 22  1  0  0  0  0
 21 17  1  0  0  0  0
 22 23  1  0  0  0  0
 22 69  1  0  0  0  0
 22 70  1  0  0  0  0
 23 71  1  0  0  0  0
 23 72  1  0  0  0  0
 23 73  1  0  0  0  0
 24 25  1  0  0  0  0
 24 74  1  0  0  0  0
 24 75  1  0  0  0  0
 25 76  1  0  0  0  0
 25 77  1  0  0  0  0
 25 78  1  0  0  0  0
 26 15  2  0  0  0  0
 26 79  1  0  0  0  0
 27 26  1  0  0  0  0
 27 80  1  0  0  0  0
 28 12  1  0  0  0  0
 29 28  1  0  0  0  0
 29 30  1  0  0  0  0
 29 35  1  0  0  0  0
 30 31  2  0  0  0  0
 30 81  1  0  0  0  0
 31 32  1  0  0  0  0
 31 82  1  0  0  0  0
 32 28  2  0  0  0  0
 32 33  1  0  0  0  0
 33 34  1  0  0  0  0
 33 83  1  0  0  0  0
 33 84  1  0  0  0  0
 34 85  1  0  0  0  0
 34 86  1  0  0  0  0
 34 87  1  0  0  0  0
 35 36  1  0  0  0  0
 35 88  1  0  0  0  0
 35 89  1  0  0  0  0
 36 90  1  0  0  0  0
 36 91  1  0  0  0  0
 36 92  1  0  0  0  0
 37 11  1  0  0  0  0
 37 93  1  0  0  0  0
 38 37  2  0  0  0  0
 38 94  1  0  0  0  0
 40 39  1  0  0  0  0
 40 46  1  0  0  0  0
 41 40  1  0  0  0  0
 41 42  2  0  0  0  0
 41 95  1  0  0  0  0
 42 43  1  0  0  0  0
 42 96  1  0  0  0  0
 43 44  1  0  0  0  0
 43 39  2  0  0  0  0
 44 45  1  0  0  0  0
 44 97  1  0  0  0  0
 44 98  1  0  0  0  0
 45 99  1  0  0  0  0
 45100  1  0  0  0  0
 45101  1  0  0  0  0
 46 47  1  0  0  0  0
 46102  1  0  0  0  0
 46103  1  0  0  0  0
 47104  1  0  0  0  0
 47105  1  0  0  0  0
 47106  1  0  0  0  0
 48 49  2  0  0  0  0
 48107  1  0  0  0  0
 49  5  1  0  0  0  0
 49108  1  0  0  0  0
 51 50  2  0  0  0  0
 51 57  1  0  0  0  0
 52 51  1  0  0  0  0
 52109  1  0  0  0  0
 53 52  2  0  0  0  0
 53110  1  0  0  0  0
 54 53  1  0  0  0  0
 54 55  1  0  0  0  0
 54 50  1  0  0  0  0
 55 56  1  0  0  0  0
 55111  1  0  0  0  0
 55112  1  0  0  0  0
 56113  1  0  0  0  0
 56114  1  0  0  0  0
 56115  1  0  0  0  0
 57 58  1  0  0  0  0
 57116  1  0  0  0  0
 57117  1  0  0  0  0
 58118  1  0  0  0  0
 58119  1  0  0  0  0
 58120  1  0  0  0  0
 59 60  2  0  0  0  0
 59121  1  0  0  0  0
 60  1  1  0  0  0  0
 60122  1  0  0  0  0
M  CHG  8   6  -1  14  -1  18   1  32   1  43   1  51   1  61   3  62  -1
M  CHG  4  63  -1  64  -1  65  -1  66  -1
M  END
>  <DRUGBANK_ID>
DB05874

>  <COMMON_NAME>
AEOL-10150

>  <CAS_NUMBER>
286475-30-7

>  <UNII>
KPKO7W46E8

$$$$
