
 OpenBabel10282417072D

 37 39  0  0  0  0  0  0  0  0999 V2000
   -3.1527    0.6777    0.0000 C   0  0  0  0  0  0  0  0  0  0  0  0
   -3.8671    0.2652    0.0000 C   0  0  0  0  0  0  0  0  0  0  0  0
   -3.8671   -0.5598    0.0000 C   0  0  0  0  0  0  0  0  0  0  0  0
   -3.1527   -0.9723    0.0000 C   0  0  0  0  0  0  0  0  0  0  0  0
   -2.4382   -0.5598    0.0000 C   0  0  0  0  0  0  0  0  0  0  0  0
   -2.4382    0.2652    0.0000 C   0  0  0  0  0  0  0  0  0  0  0  0
   -1.7237    0.6777    0.0000 O   0  0  0  0  0  0  0  0  0  0  0  0
   -1.7237   -0.9723    0.0000 C   0  0  0  0  0  0  0  0  0  0  0  0
   -1.0093   -0.5598    0.0000 C   0  0  0  0  0  0  0  0  0  0  0  0
   -1.0093    0.2652    0.0000 C   0  0  0  0  0  0  0  0  0  0  0  0
   -0.2948   -0.9723    0.0000 C   0  0  3  0  0  0  0  0  0  0  0  0
    0.4197   -0.5598    0.0000 C   0  0  0  0  0  0  0  0  0  0  0  0
    1.1341    0.6777    0.0000 C   0  0  0  0  0  0  0  0  0  0  0  0
    0.4197    0.2652    0.0000 C   0  0  0  0  0  0  0  0  0  0  0  0
    1.1341   -0.9723    0.0000 C   0  0  0  0  0  0  0  0  0  0  0  0
    1.8486   -0.5598    0.0000 C   0  0  0  0  0  0  0  0  0  0  0  0
    1.8486    0.2652    0.0000 C   0  0  0  0  0  0  0  0  0  0  0  0
   -0.2948   -1.7973    0.0000 C   0  0  0  0  0  0  0  0  0  0  0  0
    0.4197   -2.2098    0.0000 C   0  0  0  0  0  0  0  0  0  0  0  0
   -1.7237   -1.7973    0.0000 O   0  0  0  0  0  0  0  0  0  0  0  0
   -0.2948    0.6777    0.0000 O   0  0  0  0  0  0  0  0  0  0  0  0
   -3.1527    1.7097    0.0000 H   0  0  0  0  0  0  0  0  0  0  0  0
   -4.7608    0.7812    0.0000 H   0  0  0  0  0  0  0  0  0  0  0  0
   -4.7608   -1.0758    0.0000 H   0  0  0  0  0  0  0  0  0  0  0  0
   -3.1527   -2.0043    0.0000 H   0  0  0  0  0  0  0  0  0  0  0  0
   -0.2948    0.0977    0.0000 H   0  0  0  0  0  0  0  0  0  0  0  0
    1.1341    1.7097    0.0000 H   0  0  0  0  0  0  0  0  0  0  0  0
   -0.4740    0.7812    0.0000 H   0  0  0  0  0  0  0  0  0  0  0  0
    1.1341   -2.0043    0.0000 H   0  0  0  0  0  0  0  0  0  0  0  0
    2.7423   -1.0758    0.0000 H   0  0  0  0  0  0  0  0  0  0  0  0
    2.7423    0.7812    0.0000 H   0  0  0  0  0  0  0  0  0  0  0  0
   -1.2214   -2.3323    0.0000 H   0  0  0  0  0  0  0  0  0  0  0  0
   -0.2948   -2.8673    0.0000 H   0  0  0  0  0  0  0  0  0  0  0  0
    0.4197   -3.2798    0.0000 H   0  0  0  0  0  0  0  0  0  0  0  0
    1.3463   -1.6748    0.0000 H   0  0  0  0  0  0  0  0  0  0  0  0
    1.3464   -2.7448    0.0000 H   0  0  0  0  0  0  0  0  0  0  0  0
   -2.5352   -2.2658    0.0000 H   0  0  0  0  0  0  0  0  0  0  0  0
  1  2  2  0  0  0  0
  1  6  1  0  0  0  0
  1 22  1  0  0  0  0
  2  3  1  0  0  0  0
  2 23  1  0  0  0  0
  3  4  2  0  0  0  0
  3 24  1  0  0  0  0
  4  5  1  0  0  0  0
  4 25  1  0  0  0  0
  5  8  1  0  0  0  0
  6  5  2  0  0  0  0
  7  6  1  0  0  0  0
  7 10  1  0  0  0  0
  8  9  2  0  0  0  0
  8 20  1  0  0  0  0
  9 10  1  0  0  0  0
  9 11  1  0  0  0  0
 10 21  2  0  0  0  0
 11 12  1  0  0  0  0
 11 18  1  0  0  0  0
 11 26  1  0  0  0  0
 12 15  1  0  0  0  0
 13 14  1  0  0  0  0
 13 17  2  0  0  0  0
 13 27  1  0  0  0  0
 14 12  2  0  0  0  0
 14 28  1  0  0  0  0
 15 16  2  0  0  0  0
 15 29  1  0  0  0  0
 16 17  1  0  0  0  0
 16 30  1  0  0  0  0
 17 31  1  0  0  0  0
 18 19  1  0  0  0  0
 18 32  1  0  0  0  0
 18 33  1  0  0  0  0
 19 34  1  0  0  0  0
 19 35  1  0  0  0  0
 19 36  1  0  0  0  0
 20 37  1  0  0  0  0
M  END
>  <DRUGBANK_ID>
DB00946

>  <SECONDARY_ACCESSION_NUMBERS>
APRD00228

>  <COMMON_NAME>
Phenprocoumon

>  <CAS_NUMBER>
435-97-2

>  <UNII>
Q08SIO485D

>  <SYNONYMS>
3-(1-Phenylpropyl)-4-hydroxycoumarin; 3-(1'-Phenyl-propyl)-4-oxycoumarin; 3-(alpha-Ethylbenzyl)-4-hydroxycoumarin; 3-(alpha-Phenylpropyl)-4-hydroxycoumarin; 4-Hydroxy-3-(1-phenylpropyl)-2H-1-benzopyran-2-one; 4-hydroxy-3-(1-phenylpropyl)-2H-chromen-2-one; Fenprocumon; Fenprocumone; Phenprocoumarol; Phenprocoumarole; Phenprocoumon; Phenprocoumone; Phenprocoumonum; Phenprocumone

$$$$
