PVC
 OpenBabel10282417072D

 70 69  0  0  0  0  0  0  0  0999 V2000
    4.2465    0.1574    0.0000 C   0  0  0  0  0  0  0  0  0  0  0  0
    4.2465    0.9825    0.0000 O   0  0  0  0  0  0  0  0  0  0  0  0
    3.5321   -0.2551    0.0000 C   0  0  0  0  0  0  0  0  0  0  0  0
    2.8175    0.1574    0.0000 C   0  0  0  0  0  0  0  0  0  0  0  0
    2.1030   -0.2551    0.0000 C   0  0  0  0  0  0  0  0  0  0  0  0
    1.3884    0.1574    0.0000 C   0  0  0  0  0  0  0  0  0  0  0  0
    0.6740   -0.2551    0.0000 C   0  0  0  0  0  0  0  0  0  0  0  0
   -0.0406    0.1574    0.0000 C   0  0  0  0  0  0  0  0  0  0  0  0
   -0.7552   -0.2551    0.0000 C   0  0  0  0  0  0  0  0  0  0  0  0
   -1.4696    0.1574    0.0000 C   0  0  0  0  0  0  0  0  0  0  0  0
   -2.1842   -0.2551    0.0000 C   0  0  0  0  0  0  0  0  0  0  0  0
   -2.8987    0.1574    0.0000 C   0  0  0  0  0  0  0  0  0  0  0  0
   -3.6133   -0.2551    0.0000 C   0  0  0  0  0  0  0  0  0  0  0  0
   -4.3277    0.1574    0.0000 C   0  0  0  0  0  0  0  0  0  0  0  0
    5.6756    0.1574    0.0000 C   0  0  0  0  0  0  0  0  0  0  0  0
    6.3901   -0.2551    0.0000 C   0  0  1  0  0  0  0  0  0  0  0  0
    7.1046    0.1574    0.0000 C   0  0  2  0  0  0  0  0  0  0  0  0
    7.8192   -0.2551    0.0000 C   0  0  0  0  0  0  0  0  0  0  0  0
    8.5336    0.1574    0.0000 C   0  0  0  0  0  0  0  0  0  0  0  0
    8.5336    0.9825    0.0000 C   0  0  0  0  0  0  0  0  0  0  0  0
    9.2482   -0.2551    0.0000 O   0  0  0  0  0  0  0  0  0  0  0  0
    7.8192   -1.0802    0.0000 O   0  0  0  0  0  0  0  0  0  0  0  0
    7.1046    0.9825    0.0000 O   0  0  0  0  0  0  0  0  0  0  0  0
    6.3901   -1.0802    0.0000 O   0  0  0  0  0  0  0  0  0  0  0  0
    4.9611   -0.2551    0.0000 O   0  0  0  0  0  0  0  0  0  0  0  0
    9.2482    1.3950    0.0000 O   0  0  0  0  0  0  0  0  0  0  0  0
    7.8192    1.3950    0.0000 O   0  0  0  0  0  0  0  0  0  0  0  0
   -5.0423   -0.2551    0.0000 C   0  0  0  0  0  0  0  0  0  0  0  0
   -5.7568    0.1574    0.0000 C   0  0  0  0  0  0  0  0  0  0  0  0
   -6.4713   -0.2551    0.0000 C   0  0  0  0  0  0  0  0  0  0  0  0
    6.3901    0.3288    0.0000 H   0  0  0  0  0  0  0  0  0  0  0  0
    7.1046   -0.4266    0.0000 H   0  0  0  0  0  0  0  0  0  0  0  0
    3.5322   -1.3251    0.0000 H   0  0  0  0  0  0  0  0  0  0  0  0
    2.6055   -0.7902    0.0000 H   0  0  0  0  0  0  0  0  0  0  0  0
    2.8175    1.2274    0.0000 H   0  0  0  0  0  0  0  0  0  0  0  0
    1.8908    0.6924    0.0000 H   0  0  0  0  0  0  0  0  0  0  0  0
    2.1030   -1.3251    0.0000 H   0  0  0  0  0  0  0  0  0  0  0  0
    1.1764   -0.7902    0.0000 H   0  0  0  0  0  0  0  0  0  0  0  0
    1.3883    1.2274    0.0000 H   0  0  0  0  0  0  0  0  0  0  0  0
    0.4617    0.6924    0.0000 H   0  0  0  0  0  0  0  0  0  0  0  0
    0.6741   -1.3251    0.0000 H   0  0  0  0  0  0  0  0  0  0  0  0
   -0.2526   -0.7902    0.0000 H   0  0  0  0  0  0  0  0  0  0  0  0
   -0.0406    1.2274    0.0000 H   0  0  0  0  0  0  0  0  0  0  0  0
   -0.9672    0.6924    0.0000 H   0  0  0  0  0  0  0  0  0  0  0  0
   -0.7553   -1.3251    0.0000 H   0  0  0  0  0  0  0  0  0  0  0  0
   -1.6819   -0.7901    0.0000 H   0  0  0  0  0  0  0  0  0  0  0  0
   -1.4695    1.2274    0.0000 H   0  0  0  0  0  0  0  0  0  0  0  0
   -2.3962    0.6925    0.0000 H   0  0  0  0  0  0  0  0  0  0  0  0
   -2.1842   -1.3251    0.0000 H   0  0  0  0  0  0  0  0  0  0  0  0
   -3.1109   -0.7901    0.0000 H   0  0  0  0  0  0  0  0  0  0  0  0
   -2.8987    1.2274    0.0000 H   0  0  0  0  0  0  0  0  0  0  0  0
   -3.8253    0.6925    0.0000 H   0  0  0  0  0  0  0  0  0  0  0  0
   -3.6134   -1.3251    0.0000 H   0  0  0  0  0  0  0  0  0  0  0  0
   -4.5400   -0.7901    0.0000 H   0  0  0  0  0  0  0  0  0  0  0  0
   -4.3276    1.2274    0.0000 H   0  0  0  0  0  0  0  0  0  0  0  0
   -5.2543    0.6925    0.0000 H   0  0  0  0  0  0  0  0  0  0  0  0
    5.6756    1.2274    0.0000 H   0  0  0  0  0  0  0  0  0  0  0  0
    4.7490    0.6924    0.0000 H   0  0  0  0  0  0  0  0  0  0  0  0
    9.2483   -1.1921    0.0000 H   0  0  0  0  0  0  0  0  0  0  0  0
    7.0077   -1.5487    0.0000 H   0  0  0  0  0  0  0  0  0  0  0  0
    7.9446    1.4675    0.0000 H   0  0  0  0  0  0  0  0  0  0  0  0
    5.5501   -1.5652    0.0000 H   0  0  0  0  0  0  0  0  0  0  0  0
    7.8192    2.3320    0.0000 H   0  0  0  0  0  0  0  0  0  0  0  0
   -5.0423   -1.3251    0.0000 H   0  0  0  0  0  0  0  0  0  0  0  0
   -5.9690   -0.7901    0.0000 H   0  0  0  0  0  0  0  0  0  0  0  0
   -5.7568    1.2274    0.0000 H   0  0  0  0  0  0  0  0  0  0  0  0
   -6.6834    0.6924    0.0000 H   0  0  0  0  0  0  0  0  0  0  0  0
   -7.3979    0.2799    0.0000 H   0  0  0  0  0  0  0  0  0  0  0  0
   -6.4713   -1.3251    0.0000 H   0  0  0  0  0  0  0  0  0  0  0  0
   -7.3980   -0.7901    0.0000 H   0  0  0  0  0  0  0  0  0  0  0  0
  1  2  2  0  0  0  0
  1  3  1  0  0  0  0
  1 25  1  0  0  0  0
  3  4  1  0  0  0  0
  3 33  1  0  0  0  0
  3 34  1  0  0  0  0
  4  5  1  0  0  0  0
  4 35  1  0  0  0  0
  4 36  1  0  0  0  0
  5  6  1  0  0  0  0
  5 37  1  0  0  0  0
  5 38  1  0  0  0  0
  6  7  1  0  0  0  0
  6 39  1  0  0  0  0
  6 40  1  0  0  0  0
  7  8  1  0  0  0  0
  7 41  1  0  0  0  0
  7 42  1  0  0  0  0
  8  9  1  0  0  0  0
  8 43  1  0  0  0  0
  8 44  1  0  0  0  0
  9 10  1  0  0  0  0
  9 45  1  0  0  0  0
  9 46  1  0  0  0  0
 10 11  1  0  0  0  0
 10 47  1  0  0  0  0
 10 48  1  0  0  0  0
 11 12  1  0  0  0  0
 11 49  1  0  0  0  0
 11 50  1  0  0  0  0
 12 13  1  0  0  0  0
 12 51  1  0  0  0  0
 12 52  1  0  0  0  0
 13 14  1  0  0  0  0
 13 53  1  0  0  0  0
 13 54  1  0  0  0  0
 14 28  1  0  0  0  0
 14 55  1  0  0  0  0
 14 56  1  0  0  0  0
 15 16  1  0  0  0  0
 15 25  1  0  0  0  0
 15 57  1  0  0  0  0
 15 58  1  0  0  0  0
 16 17  1  0  0  0  0
 16 24  1  0  0  0  0
 16 31  1  6  0  0  0
 17 18  1  0  0  0  0
 17 23  1  0  0  0  0
 17 32  1  6  0  0  0
 18 19  2  0  0  0  0
 18 22  1  0  0  0  0
 19 20  1  0  0  0  0
 19 21  1  0  0  0  0
 20 26  2  0  0  0  0
 20 27  1  0  0  0  0
 21 59  1  0  0  0  0
 22 60  1  0  0  0  0
 23 61  1  0  0  0  0
 24 62  1  0  0  0  0
 27 63  1  0  0  0  0
 28 29  1  0  0  0  0
 28 64  1  0  0  0  0
 28 65  1  0  0  0  0
 29 30  1  0  0  0  0
 29 66  1  0  0  0  0
 29 67  1  0  0  0  0
 30 68  1  0  0  0  0
 30 69  1  0  0  0  0
 30 70  1  0  0  0  0
M  END
>  <DRUGBANK_ID>
DB08438

>  <COMMON_NAME>
(2E,4R,5S)-2,3,4,5-TETRAHYDROXY-6-(PALMITOYLOXY)HEX-2-ENOIC ACID

$$$$
