
 OpenBabel10282417072D

 45 47  0  0  1  0  0  0  0  0999 V2000
    4.0668    5.6479    0.0000 C   0  0  0  0  0  0  0  0  0  0  0  0
    4.7812    4.4104    0.0000 C   0  0  0  0  0  0  0  0  0  0  0  0
    3.3523    4.4104    0.0000 C   0  0  0  0  0  0  0  0  0  0  0  0
    3.3523    3.5854    0.0000 C   0  0  0  0  0  0  0  0  0  0  0  0
   -0.5683   -1.4940    0.0000 C   0  0  0  0  0  0  0  0  0  0  0  0
    3.3523    1.1104    0.0000 C   0  0  0  0  0  0  0  0  0  0  0  0
    0.6538    1.5229    0.0000 C   0  0  0  0  0  0  0  0  0  0  0  0
    4.0668    4.8229    0.0000 C   0  0  0  0  0  0  0  0  0  0  0  0
    0.0992   -1.0091    0.0000 C   0  0  2  0  0  0  0  0  0  0  0  0
    1.9233    1.9354    0.0000 C   0  0  0  0  0  0  0  0  0  0  0  0
    0.8838   -1.2640    0.0000 C   0  0  2  0  0  0  0  0  0  0  0  0
    1.3687   -0.5966    0.0000 C   0  0  2  0  0  0  0  0  0  0  0  0
    2.6378    2.3479    0.0000 C   0  0  0  0  0  0  0  0  0  0  0  0
    1.9233    1.1104    0.0000 C   0  0  0  0  0  0  0  0  0  0  0  0
    0.8838    0.0709    0.0000 C   0  0  2  0  0  0  0  0  0  0  0  0
    2.6378    3.1729    0.0000 N   0  0  0  0  0  0  0  0  0  0  0  0
    3.3523    1.9354    0.0000 N   0  0  0  0  0  0  0  0  0  0  0  0
    2.6378    0.6979    0.0000 N   0  0  0  0  0  0  0  0  0  0  0  0
    1.1387    2.1904    0.0000 N   0  0  0  0  0  0  0  0  0  0  0  0
    1.1387    0.8555    0.0000 N   0  0  0  0  0  0  0  0  0  0  0  0
   -0.4820   -2.3145    0.0000 O   0  0  0  0  0  0  0  0  0  0  0  0
    1.1387   -2.0486    0.0000 O   0  0  0  0  0  0  0  0  0  0  0  0
    2.1937   -0.5966    0.0000 O   0  0  0  0  0  0  0  0  0  0  0  0
    0.0992   -0.1841    0.0000 O   0  0  0  0  0  0  0  0  0  0  0  0
    0.4991   -1.7306    0.0000 H   0  0  0  0  0  0  0  0  0  0  0  0
    0.5351   -2.0117    0.0000 H   0  0  0  0  0  0  0  0  0  0  0  0
    1.7432   -1.3316    0.0000 H   0  0  0  0  0  0  0  0  0  0  0  0
    1.6986    0.1999    0.0000 H   0  0  0  0  0  0  0  0  0  0  0  0
    4.9934    6.1829    0.0000 H   0  0  0  0  0  0  0  0  0  0  0  0
    3.1402    6.1829    0.0000 H   0  0  0  0  0  0  0  0  0  0  0  0
    4.0668    6.7179    0.0000 H   0  0  0  0  0  0  0  0  0  0  0  0
    4.7812    3.3404    0.0000 H   0  0  0  0  0  0  0  0  0  0  0  0
    5.7079    4.9454    0.0000 H   0  0  0  0  0  0  0  0  0  0  0  0
    5.7078    3.8754    0.0000 H   0  0  0  0  0  0  0  0  0  0  0  0
    2.4586    4.9264    0.0000 H   0  0  0  0  0  0  0  0  0  0  0  0
    4.2789    3.0504    0.0000 H   0  0  0  0  0  0  0  0  0  0  0  0
    3.3523    2.5154    0.0000 H   0  0  0  0  0  0  0  0  0  0  0  0
   -1.5458   -1.0588    0.0000 H   0  0  0  0  0  0  0  0  0  0  0  0
   -1.4339   -2.1230    0.0000 H   0  0  0  0  0  0  0  0  0  0  0  0
    4.2460    0.5944    0.0000 H   0  0  0  0  0  0  0  0  0  0  0  0
   -0.3782    1.5229    0.0000 H   0  0  0  0  0  0  0  0  0  0  0  0
    1.7852    3.6652    0.0000 H   0  0  0  0  0  0  0  0  0  0  0  0
   -1.2667   -2.8847    0.0000 H   0  0  0  0  0  0  0  0  0  0  0  0
    0.4896   -2.7694    0.0000 H   0  0  0  0  0  0  0  0  0  0  0  0
    2.6787   -1.4366    0.0000 H   0  0  0  0  0  0  0  0  0  0  0  0
  1 29  1  0  0  0  0
  1 30  1  0  0  0  0
  1 31  1  0  0  0  0
  2 32  1  0  0  0  0
  2 33  1  0  0  0  0
  2 34  1  0  0  0  0
  3 35  1  0  0  0  0
  4  3  1  0  0  0  0
  4 36  1  0  0  0  0
  4 37  1  0  0  0  0
  5 38  1  0  0  0  0
  5 39  1  0  0  0  0
  6 40  1  0  0  0  0
  7 41  1  0  0  0  0
  8  1  1  0  0  0  0
  8  2  1  0  0  0  0
  8  3  2  0  0  0  0
  9  5  1  0  0  0  0
  9 25  1  6  0  0  0
 11  9  1  0  0  0  0
 11 22  1  0  0  0  0
 11 26  1  1  0  0  0
 12 11  1  0  0  0  0
 12 23  1  0  0  0  0
 12 27  1  1  0  0  0
 13 10  2  0  0  0  0
 14 10  1  0  0  0  0
 15 12  1  0  0  0  0
 15 20  1  0  0  0  0
 15 28  1  6  0  0  0
 16  4  1  0  0  0  0
 16 13  1  0  0  0  0
 16 42  1  0  0  0  0
 17  6  2  0  0  0  0
 17 13  1  0  0  0  0
 18  6  1  0  0  0  0
 18 14  2  0  0  0  0
 19  7  2  0  0  0  0
 19 10  1  0  0  0  0
 20  7  1  0  0  0  0
 20 14  1  0  0  0  0
 21  5  1  0  0  0  0
 21 43  1  0  0  0  0
 22 44  1  0  0  0  0
 23 45  1  0  0  0  0
 24  9  1  0  0  0  0
 24 15  1  0  0  0  0
M  END
>  <DRUGBANK_ID>
DB11933

>  <COMMON_NAME>
Riboprine

>  <CAS_NUMBER>
7724-76-7

>  <UNII>
8EU82FAZ5J

>  <SYNONYMS>
IPA; riboprina; Riboprine

$$$$
