
 OpenBabel10282417072D

 48 50  0  0  0  0  0  0  0  0999 V2000
   -1.8659   -1.4124    0.0000 C   0  0  0  0  0  0  0  0  0  0  0  0
   -1.4534   -0.6979    0.0000 C   0  0  0  0  0  0  0  0  0  0  0  0
   -0.6284   -0.6979    0.0000 C   0  0  0  0  0  0  0  0  0  0  0  0
   -0.1435   -1.3654    0.0000 C   0  0  0  0  0  0  0  0  0  0  0  0
    0.6411   -1.1104    0.0000 C   0  0  0  0  0  0  0  0  0  0  0  0
    0.6411   -0.2854    0.0000 C   0  0  0  0  0  0  0  0  0  0  0  0
   -0.1435   -0.0305    0.0000 N   0  0  0  0  0  0  0  0  0  0  0  0
   -0.3984    0.7541    0.0000 C   0  0  0  0  0  0  0  0  0  0  0  0
   -1.2054    0.9256    0.0000 C   0  0  0  0  0  0  0  0  0  0  0  0
   -1.7575    0.3126    0.0000 C   0  0  0  0  0  0  0  0  0  0  0  0
   -2.5644    0.4841    0.0000 C   0  0  0  0  0  0  0  0  0  0  0  0
   -2.8194    1.2687    0.0000 C   0  0  0  0  0  0  0  0  0  0  0  0
   -2.2673    1.8818    0.0000 C   0  0  0  0  0  0  0  0  0  0  0  0
   -1.4604    1.7103    0.0000 C   0  0  0  0  0  0  0  0  0  0  0  0
    1.3556    0.1271    0.0000 C   0  0  0  0  0  0  0  0  0  0  0  0
    2.0701   -0.2854    0.0000 C   0  0  0  0  0  0  0  0  0  0  0  0
    2.0701   -1.1104    0.0000 C   0  0  0  0  0  0  0  0  0  0  0  0
    1.3556   -1.5229    0.0000 C   0  0  0  0  0  0  0  0  0  0  0  0
    1.3556   -2.3479    0.0000 O   0  0  0  0  0  0  0  0  0  0  0  0
    2.0701   -2.7604    0.0000 C   0  0  0  0  0  0  0  0  0  0  0  0
    2.0701   -3.5854    0.0000 C   0  0  0  0  0  0  0  0  0  0  0  0
    2.7845   -3.9979    0.0000 O   0  0  0  0  0  0  0  0  0  0  0  0
    1.3556   -3.9979    0.0000 O   0  0  0  0  0  0  0  0  0  0  0  0
   -0.3984   -2.1500    0.0000 C   0  0  0  0  0  0  0  0  0  0  0  0
   -1.2054   -2.3215    0.0000 O   0  0  0  0  0  0  0  0  0  0  0  0
    0.1536   -2.7631    0.0000 C   0  0  0  0  0  0  0  0  0  0  0  0
   -0.1014   -3.5477    0.0000 O   0  0  0  0  0  0  0  0  0  0  0  0
    0.9606   -2.5916    0.0000 N   0  0  0  0  0  0  0  0  0  0  0  0
   -2.9359   -1.4124    0.0000 H   0  0  0  0  0  0  0  0  0  0  0  0
   -1.3309   -2.3390    0.0000 H   0  0  0  0  0  0  0  0  0  0  0  0
   -2.4009   -2.3391    0.0000 H   0  0  0  0  0  0  0  0  0  0  0  0
   -1.9884    0.2287    0.0000 H   0  0  0  0  0  0  0  0  0  0  0  0
   -0.9184    0.2287    0.0000 H   0  0  0  0  0  0  0  0  0  0  0  0
    0.3176    1.5493    0.0000 H   0  0  0  0  0  0  0  0  0  0  0  0
   -0.7291    1.7717    0.0000 H   0  0  0  0  0  0  0  0  0  0  0  0
   -1.4387   -0.6689    0.0000 H   0  0  0  0  0  0  0  0  0  0  0  0
   -3.2549   -0.2829    0.0000 H   0  0  0  0  0  0  0  0  0  0  0  0
   -3.8289    1.4833    0.0000 H   0  0  0  0  0  0  0  0  0  0  0  0
   -2.5862    2.8633    0.0000 H   0  0  0  0  0  0  0  0  0  0  0  0
   -0.7699    2.4772    0.0000 H   0  0  0  0  0  0  0  0  0  0  0  0
    1.3556    1.1591    0.0000 H   0  0  0  0  0  0  0  0  0  0  0  0
    2.9638    0.2306    0.0000 H   0  0  0  0  0  0  0  0  0  0  0  0
    2.9638   -1.6264    0.0000 H   0  0  0  0  0  0  0  0  0  0  0  0
    2.9967   -2.2254    0.0000 H   0  0  0  0  0  0  0  0  0  0  0  0
    2.9967   -3.2954    0.0000 H   0  0  0  0  0  0  0  0  0  0  0  0
    0.5441   -3.5294    0.0000 H   0  0  0  0  0  0  0  0  0  0  0  0
    1.6193   -3.3233    0.0000 H   0  0  0  0  0  0  0  0  0  0  0  0
    1.2649   -1.6553    0.0000 H   0  0  0  0  0  0  0  0  0  0  0  0
  1  2  1  0  0  0  0
  1 29  1  0  0  0  0
  1 30  1  0  0  0  0
  1 31  1  0  0  0  0
  2  3  1  0  0  0  0
  2 32  1  0  0  0  0
  2 33  1  0  0  0  0
  3  4  2  0  0  0  0
  3  7  1  0  0  0  0
  4  5  1  0  0  0  0
  4 24  1  0  0  0  0
  5  6  1  0  0  0  0
  5 18  2  0  0  0  0
  6  7  1  0  0  0  0
  6 15  2  0  0  0  0
  7  8  1  0  0  0  0
  8  9  1  0  0  0  0
  8 34  1  0  0  0  0
  8 35  1  0  0  0  0
  9 10  2  0  0  0  0
  9 14  1  0  0  0  0
 10 11  1  0  0  0  0
 10 36  1  0  0  0  0
 11 12  2  0  0  0  0
 11 37  1  0  0  0  0
 12 13  1  0  0  0  0
 12 38  1  0  0  0  0
 13 14  2  0  0  0  0
 13 39  1  0  0  0  0
 14 40  1  0  0  0  0
 15 16  1  0  0  0  0
 15 41  1  0  0  0  0
 16 17  2  0  0  0  0
 16 42  1  0  0  0  0
 17 18  1  0  0  0  0
 17 43  1  0  0  0  0
 18 19  1  0  0  0  0
 19 20  1  0  0  0  0
 20 21  1  0  0  0  0
 20 44  1  0  0  0  0
 20 45  1  0  0  0  0
 21 22  2  0  0  0  0
 21 23  1  0  0  0  0
 23 46  1  0  0  0  0
 24 25  2  0  0  0  0
 24 26  1  0  0  0  0
 26 27  2  0  0  0  0
 26 28  1  0  0  0  0
 28 47  1  0  0  0  0
 28 48  1  0  0  0  0
M  END
>  <DRUGBANK_ID>
DB11909

>  <COMMON_NAME>
Varespladib

>  <CAS_NUMBER>
172732-68-2

>  <UNII>
2Q3P98DATH

>  <SYNONYMS>
Varespladib

$$$$
