
 OpenBabel10282417072D

 66 71  0  0  1  0  0  0  0  0999 V2000
    5.8208    2.5459    0.0000 C   0  0  0  0  0  0  0  0  0  0  0  0
    5.5658    3.3305    0.0000 C   0  0  0  0  0  0  0  0  0  0  0  0
    6.0508    3.9979    0.0000 C   0  0  0  0  0  0  0  0  0  0  0  0
    5.5658    4.6654    0.0000 C   0  0  0  0  0  0  0  0  0  0  0  0
    4.7812    4.4104    0.0000 N   0  0  0  0  0  0  0  0  0  0  0  0
    4.7812    3.5854    0.0000 C   0  0  0  0  0  0  0  0  0  0  0  0
    4.0668    3.1729    0.0000 C   0  0  0  0  0  0  0  0  0  0  0  0
    3.3523    3.5854    0.0000 N   0  0  0  0  0  0  0  0  0  0  0  0
    3.3523    4.4104    0.0000 C   0  0  0  0  0  0  0  0  0  0  0  0
    4.0668    4.8229    0.0000 N   0  0  0  0  0  0  0  0  0  0  0  0
    4.0668    2.3479    0.0000 N   0  0  0  0  0  0  0  0  0  0  0  0
    3.3523    1.9354    0.0000 C   0  0  0  0  0  0  0  0  0  0  0  0
    3.3523    1.1104    0.0000 C   0  0  0  0  0  0  0  0  0  0  0  0
    2.6378    0.6979    0.0000 C   0  0  0  0  0  0  0  0  0  0  0  0
    1.9233    1.1104    0.0000 C   0  0  0  0  0  0  0  0  0  0  0  0
    1.9233    1.9354    0.0000 C   0  0  0  0  0  0  0  0  0  0  0  0
    2.6378    2.3479    0.0000 C   0  0  0  0  0  0  0  0  0  0  0  0
    1.1387    2.1904    0.0000 C   0  0  0  0  0  0  0  0  0  0  0  0
    0.6538    1.5229    0.0000 N   0  0  0  0  0  0  0  0  0  0  0  0
    1.1387    0.8555    0.0000 N   0  0  0  0  0  0  0  0  0  0  0  0
    0.8838    0.0709    0.0000 C   0  0  0  0  0  0  0  0  0  0  0  0
    0.0768   -0.1006    0.0000 C   0  0  0  0  0  0  0  0  0  0  0  0
   -0.1781   -0.8853    0.0000 C   0  0  0  0  0  0  0  0  0  0  0  0
   -0.9851   -1.0568    0.0000 C   0  0  0  0  0  0  0  0  0  0  0  0
   -1.5371   -0.4437    0.0000 C   0  0  0  0  0  0  0  0  0  0  0  0
   -1.2822    0.3409    0.0000 C   0  0  0  0  0  0  0  0  0  0  0  0
   -0.4752    0.5124    0.0000 C   0  0  0  0  0  0  0  0  0  0  0  0
   -1.8342    0.9540    0.0000 F   0  0  0  0  0  0  0  0  0  0  0  0
    6.8758    3.9979    0.0000 N   0  0  0  0  0  0  0  0  0  0  0  0
    7.2883    4.7124    0.0000 C   0  0  0  0  0  0  0  0  0  0  0  0
    6.8758    5.4269    0.0000 O   0  0  0  0  0  0  0  0  0  0  0  0
    8.1133    4.7124    0.0000 O   0  0  0  0  0  0  0  0  0  0  0  0
    8.5258    5.4269    0.0000 C   0  0  0  0  0  0  0  0  0  0  0  0
    9.3508    5.4269    0.0000 C   0  0  2  0  0  0  0  0  0  0  0  0
    9.7633    6.1414    0.0000 C   0  0  0  0  0  0  0  0  0  0  0  0
   10.5883    6.1414    0.0000 O   0  0  0  0  0  0  0  0  0  0  0  0
   11.0008    5.4269    0.0000 C   0  0  0  0  0  0  0  0  0  0  0  0
   10.5883    4.7124    0.0000 C   0  0  0  0  0  0  0  0  0  0  0  0
    9.7633    4.7124    0.0000 N   0  0  0  0  0  0  0  0  0  0  0  0
    5.1049    1.7507    0.0000 H   0  0  0  0  0  0  0  0  0  0  0  0
    6.8674    2.3235    0.0000 H   0  0  0  0  0  0  0  0  0  0  0  0
    6.1515    1.5283    0.0000 H   0  0  0  0  0  0  0  0  0  0  0  0
    5.8847    5.6469    0.0000 H   0  0  0  0  0  0  0  0  0  0  0  0
    2.4586    4.9264    0.0000 H   0  0  0  0  0  0  0  0  0  0  0  0
    4.9194    1.8556    0.0000 H   0  0  0  0  0  0  0  0  0  0  0  0
    4.2460    0.5944    0.0000 H   0  0  0  0  0  0  0  0  0  0  0  0
    2.6378   -0.3341    0.0000 H   0  0  0  0  0  0  0  0  0  0  0  0
    2.6378    3.3799    0.0000 H   0  0  0  0  0  0  0  0  0  0  0  0
    0.8198    3.1719    0.0000 H   0  0  0  0  0  0  0  0  0  0  0  0
    1.5998   -0.7243    0.0000 H   0  0  0  0  0  0  0  0  0  0  0  0
    0.5531   -0.9467    0.0000 H   0  0  0  0  0  0  0  0  0  0  0  0
    0.5125   -1.6522    0.0000 H   0  0  0  0  0  0  0  0  0  0  0  0
   -1.3040   -2.0383    0.0000 H   0  0  0  0  0  0  0  0  0  0  0  0
   -2.5465   -0.6583    0.0000 H   0  0  0  0  0  0  0  0  0  0  0  0
   -0.1563    1.4939    0.0000 H   0  0  0  0  0  0  0  0  0  0  0  0
    7.3681    3.1453    0.0000 H   0  0  0  0  0  0  0  0  0  0  0  0
    7.9908    6.3535    0.0000 H   0  0  0  0  0  0  0  0  0  0  0  0
    9.0608    6.3535    0.0000 H   0  0  0  0  0  0  0  0  0  0  0  0
    8.8158    6.3535    0.0000 H   0  0  0  0  0  0  0  0  0  0  0  0
    9.2283    7.0680    0.0000 H   0  0  0  0  0  0  0  0  0  0  0  0
   10.2983    7.0680    0.0000 H   0  0  0  0  0  0  0  0  0  0  0  0
   12.0708    5.4269    0.0000 H   0  0  0  0  0  0  0  0  0  0  0  0
   11.5358    4.5003    0.0000 H   0  0  0  0  0  0  0  0  0  0  0  0
   11.1233    3.7858    0.0000 H   0  0  0  0  0  0  0  0  0  0  0  0
   10.0533    3.7858    0.0000 H   0  0  0  0  0  0  0  0  0  0  0  0
    9.2533    3.8291    0.0000 H   0  0  0  0  0  0  0  0  0  0  0  0
  1  2  1  0  0  0  0
  1 40  1  0  0  0  0
  1 41  1  0  0  0  0
  1 42  1  0  0  0  0
  2  3  1  0  0  0  0
  2  6  2  0  0  0  0
  3  4  2  0  0  0  0
  3 29  1  0  0  0  0
  4  5  1  0  0  0  0
  4 43  1  0  0  0  0
  5  6  1  0  0  0  0
  5 10  1  0  0  0  0
  6  7  1  0  0  0  0
  7  8  2  0  0  0  0
  7 11  1  0  0  0  0
  8  9  1  0  0  0  0
  9 10  2  0  0  0  0
  9 44  1  0  0  0  0
 11 12  1  0  0  0  0
 11 45  1  0  0  0  0
 12 13  2  0  0  0  0
 12 17  1  0  0  0  0
 13 14  1  0  0  0  0
 13 46  1  0  0  0  0
 14 15  2  0  0  0  0
 14 47  1  0  0  0  0
 15 16  1  0  0  0  0
 15 20  1  0  0  0  0
 16 17  2  0  0  0  0
 16 18  1  0  0  0  0
 17 48  1  0  0  0  0
 18 19  2  0  0  0  0
 18 49  1  0  0  0  0
 19 20  1  0  0  0  0
 20 21  1  0  0  0  0
 21 22  1  0  0  0  0
 21 50  1  0  0  0  0
 21 51  1  0  0  0  0
 22 23  2  0  0  0  0
 22 27  1  0  0  0  0
 23 24  1  0  0  0  0
 23 52  1  0  0  0  0
 24 25  2  0  0  0  0
 24 53  1  0  0  0  0
 25 26  1  0  0  0  0
 25 54  1  0  0  0  0
 26 27  2  0  0  0  0
 26 28  1  0  0  0  0
 27 55  1  0  0  0  0
 29 30  1  0  0  0  0
 29 56  1  0  0  0  0
 30 31  2  0  0  0  0
 30 32  1  0  0  0  0
 32 33  1  0  0  0  0
 33 57  1  0  0  0  0
 33 58  1  0  0  0  0
 34 33  1  0  0  0  0
 34 35  1  0  0  0  0
 34 39  1  0  0  0  0
 34 59  1  1  0  0  0
 35 36  1  0  0  0  0
 35 60  1  0  0  0  0
 35 61  1  0  0  0  0
 36 37  1  0  0  0  0
 37 38  1  0  0  0  0
 37 62  1  0  0  0  0
 37 63  1  0  0  0  0
 38 39  1  0  0  0  0
 38 64  1  0  0  0  0
 38 65  1  0  0  0  0
 39 66  1  0  0  0  0
M  END
>  <DRUGBANK_ID>
DB12318

>  <COMMON_NAME>
BMS-599626

>  <CAS_NUMBER>
714971-09-2

>  <UNII>
2252724U5N

$$$$
