L12
 OpenBabel10282417072D

 31 33  0  0  0  0  0  0  0  0999 V2000
    0.1345    0.6137    0.0000 C   0  0  0  0  0  0  0  0  0  0  0  0
   -0.1204   -0.1709    0.0000 C   0  0  0  0  0  0  0  0  0  0  0  0
   -0.9274   -0.3425    0.0000 C   0  0  0  0  0  0  0  0  0  0  0  0
   -1.1823   -1.1271    0.0000 C   0  0  0  0  0  0  0  0  0  0  0  0
   -0.6303   -1.7402    0.0000 C   0  0  0  0  0  0  0  0  0  0  0  0
   -0.8852   -2.5248    0.0000 C   0  0  0  0  0  0  0  0  0  0  0  0
   -1.6922   -2.6963    0.0000 N   0  0  0  0  0  0  0  0  0  0  0  0
   -2.2443   -2.0832    0.0000 C   0  0  0  0  0  0  0  0  0  0  0  0
   -1.9893   -1.2986    0.0000 C   0  0  0  0  0  0  0  0  0  0  0  0
   -0.3504    1.2811    0.0000 C   0  0  0  0  0  0  0  0  0  0  0  0
    1.6336    0.4561    0.0000 C   0  0  0  0  0  0  0  0  0  0  0  0
    0.9191    0.8686    0.0000 C   0  0  0  0  0  0  0  0  0  0  0  0
    0.9191    1.6936    0.0000 C   0  0  0  0  0  0  0  0  0  0  0  0
    1.6336    2.1061    0.0000 C   0  0  0  0  0  0  0  0  0  0  0  0
    2.3481    1.6936    0.0000 C   0  0  0  0  0  0  0  0  0  0  0  0
    0.1345    1.9486    0.0000 N   0  0  0  0  0  0  0  0  0  0  0  0
    2.3481    0.8686    0.0000 C   0  0  0  0  0  0  0  0  0  0  0  0
    0.5956   -0.9660    0.0000 H   0  0  0  0  0  0  0  0  0  0  0  0
   -0.4510   -1.1886    0.0000 H   0  0  0  0  0  0  0  0  0  0  0  0
   -1.6434    0.4526    0.0000 H   0  0  0  0  0  0  0  0  0  0  0  0
   -1.9740   -0.5650    0.0000 H   0  0  0  0  0  0  0  0  0  0  0  0
    0.3791   -1.5256    0.0000 H   0  0  0  0  0  0  0  0  0  0  0  0
   -0.1947   -3.2917    0.0000 H   0  0  0  0  0  0  0  0  0  0  0  0
   -3.2538   -2.2978    0.0000 H   0  0  0  0  0  0  0  0  0  0  0  0
   -2.6798   -0.5316    0.0000 H   0  0  0  0  0  0  0  0  0  0  0  0
   -1.3824    1.2811    0.0000 H   0  0  0  0  0  0  0  0  0  0  0  0
    1.6336   -0.5759    0.0000 H   0  0  0  0  0  0  0  0  0  0  0  0
    1.6336    3.1381    0.0000 H   0  0  0  0  0  0  0  0  0  0  0  0
    3.2418    2.2096    0.0000 H   0  0  0  0  0  0  0  0  0  0  0  0
   -0.1697    2.8849    0.0000 H   0  0  0  0  0  0  0  0  0  0  0  0
    3.2418    0.3526    0.0000 H   0  0  0  0  0  0  0  0  0  0  0  0
  1  2  1  0  0  0  0
  1 10  2  0  0  0  0
  1 12  1  0  0  0  0
  2  3  1  0  0  0  0
  2 18  1  0  0  0  0
  2 19  1  0  0  0  0
  3  4  1  0  0  0  0
  3 20  1  0  0  0  0
  3 21  1  0  0  0  0
  4  5  2  0  0  0  0
  4  9  1  0  0  0  0
  5  6  1  0  0  0  0
  5 22  1  0  0  0  0
  6  7  2  0  0  0  0
  6 23  1  0  0  0  0
  7  8  1  0  0  0  0
  8  9  2  0  0  0  0
  8 24  1  0  0  0  0
  9 25  1  0  0  0  0
 10 16  1  0  0  0  0
 10 26  1  0  0  0  0
 11 12  2  0  0  0  0
 11 17  1  0  0  0  0
 11 27  1  0  0  0  0
 12 13  1  0  0  0  0
 13 14  2  0  0  0  0
 13 16  1  0  0  0  0
 14 15  1  0  0  0  0
 14 28  1  0  0  0  0
 15 17  2  0  0  0  0
 15 29  1  0  0  0  0
 16 30  1  0  0  0  0
 17 31  1  0  0  0  0
M  END
>  <DRUGBANK_ID>
DB01953

>  <SECONDARY_ACCESSION_NUMBERS>
EXPT01988

>  <COMMON_NAME>
Inhibitor of P38 Kinase

>  <UNII>
2X6GDX4TXP

$$$$
