
 OpenBabel10282417072D

 46 46  0  0  0  0  0  0  0  0999 V2000
    2.7745   -1.1312    0.0000 S   0  0  0  0  0  0  0  0  0  0  0  0
    3.1443    2.2408    0.0000 S   0  0  2  0  0  0  0  0  0  0  0  0
    0.7828    0.8604    0.0000 O   0  0  0  0  0  0  0  0  0  0  0  0
    4.1548    1.2303    0.0000 O   0  0  0  0  0  0  0  0  0  0  0  0
   -0.2275   -0.1207    0.0000 O   0  0  0  0  0  0  0  0  0  0  0  0
    3.7850   -0.1499    0.0000 O   0  0  0  0  0  0  0  0  0  0  0  0
    3.9413    2.0272    0.0000 O   0  0  0  0  0  0  0  0  0  0  0  0
   -4.1548   -2.0272    0.0000 O   0  0  0  0  0  0  0  0  0  0  0  0
   -3.1443   -3.0376    0.0000 O   0  0  0  0  0  0  0  0  0  0  0  0
    2.1911    0.2771    0.0000 N   0  0  0  0  0  0  0  0  0  0  0  0
    0.7828   -1.1312    0.0000 N   0  0  0  0  0  0  0  0  0  0  0  0
   -2.9881   -0.8604    0.0000 N   0  0  0  0  0  0  0  0  0  0  0  0
    1.3661   -0.5478    0.0000 C   0  0  1  0  0  0  0  0  0  0  0  0
    2.1911   -0.5478    0.0000 C   0  0  1  0  0  0  0  0  0  0  0  0
    1.3661    0.2771    0.0000 C   0  0  0  0  0  0  0  0  0  0  0  0
    2.7745    0.8604    0.0000 C   0  0  2  0  0  0  0  0  0  0  0  0
    2.5610    1.6573    0.0000 C   0  0  0  0  0  0  0  0  0  0  0  0
   -0.0140   -0.9177    0.0000 C   0  0  0  0  0  0  0  0  0  0  0  0
    3.5715    0.6469    0.0000 C   0  0  0  0  0  0  0  0  0  0  0  0
   -0.5974   -1.5011    0.0000 C   0  0  0  0  0  0  0  0  0  0  0  0
   -1.3943   -1.2875    0.0000 C   0  0  0  0  0  0  0  0  0  0  0  0
   -1.9776   -1.8709    0.0000 C   0  0  0  0  0  0  0  0  0  0  0  0
   -2.7746   -1.6573    0.0000 C   0  0  1  0  0  0  0  0  0  0  0  0
    2.9308    3.0376    0.0000 C   0  0  0  0  0  0  0  0  0  0  0  0
   -3.3579   -2.2408    0.0000 C   0  0  0  0  0  0  0  0  0  0  0  0
    2.8009   -0.2952    0.0000 H   0  0  0  0  0  0  0  0  0  0  0  0
    0.9152   -1.6253    0.0000 H   0  0  0  0  0  0  0  0  0  0  0  0
   -2.6264   -0.4987    0.0000 H   0  0  0  0  0  0  0  0  0  0  0  0
   -3.4822   -0.7281    0.0000 H   0  0  0  0  0  0  0  0  0  0  0  0
    2.4225   -2.4449    0.0000 H   0  0  0  0  0  0  0  0  0  0  0  0
    5.0599    0.9879    0.0000 H   0  0  0  0  0  0  0  0  0  0  0  0
   -4.3972   -1.1221    0.0000 H   0  0  0  0  0  0  0  0  0  0  0  0
    1.7756   -1.5363    0.0000 H   0  0  0  0  0  0  0  0  0  0  0  0
    3.0514   -0.1731    0.0000 H   0  0  0  0  0  0  0  0  0  0  0  0
    1.5274    1.9342    0.0000 H   0  0  0  0  0  0  0  0  0  0  0  0
    1.8044    0.9007    0.0000 H   0  0  0  0  0  0  0  0  0  0  0  0
   -0.3205   -2.5347    0.0000 H   0  0  0  0  0  0  0  0  0  0  0  0
   -1.3541   -2.2577    0.0000 H   0  0  0  0  0  0  0  0  0  0  0  0
   -1.6712   -0.2540    0.0000 H   0  0  0  0  0  0  0  0  0  0  0  0
   -2.4279   -1.0106    0.0000 H   0  0  0  0  0  0  0  0  0  0  0  0
   -1.7006   -2.9044    0.0000 H   0  0  0  0  0  0  0  0  0  0  0  0
   -2.7342   -2.6275    0.0000 H   0  0  0  0  0  0  0  0  0  0  0  0
   -2.0180   -0.9007    0.0000 H   0  0  0  0  0  0  0  0  0  0  0  0
    3.6874    3.7942    0.0000 H   0  0  0  0  0  0  0  0  0  0  0  0
    1.8973    3.3145    0.0000 H   0  0  0  0  0  0  0  0  0  0  0  0
    2.6539    4.0711    0.0000 H   0  0  0  0  0  0  0  0  0  0  0  0
  1 14  1  0  0  0  0
  1 30  1  0  0  0  0
  2  7  2  6  0  0  0
  2 17  1  0  0  0  0
  2 24  1  0  0  0  0
  3 15  2  0  0  0  0
  4 19  1  0  0  0  0
  4 31  1  0  0  0  0
  5 18  2  0  0  0  0
  6 19  2  0  0  0  0
  8 25  1  0  0  0  0
  8 32  1  0  0  0  0
  9 25  2  0  0  0  0
 10 14  1  0  0  0  0
 10 15  1  0  0  0  0
 10 16  1  0  0  0  0
 11 18  1  0  0  0  0
 11 27  1  0  0  0  0
 12 28  1  0  0  0  0
 12 29  1  0  0  0  0
 13 11  1  0  0  0  0
 13 14  1  0  0  0  0
 13 15  1  0  0  0  0
 13 33  1  1  0  0  0
 14 26  1  1  0  0  0
 16 17  1  0  0  0  0
 16 19  1  0  0  0  0
 16 34  1  1  0  0  0
 17 35  1  0  0  0  0
 17 36  1  0  0  0  0
 18 20  1  0  0  0  0
 20 21  1  0  0  0  0
 20 37  1  0  0  0  0
 20 38  1  0  0  0  0
 21 22  1  0  0  0  0
 21 39  1  0  0  0  0
 21 40  1  0  0  0  0
 22 23  1  0  0  0  0
 22 41  1  0  0  0  0
 22 42  1  0  0  0  0
 23 12  1  0  0  0  0
 23 25  1  0  0  0  0
 23 43  1  6  0  0  0
 24 44  1  0  0  0  0
 24 45  1  0  0  0  0
 24 46  1  0  0  0  0
M  END
>  <DRUGBANK_ID>
DB03004

>  <SECONDARY_ACCESSION_NUMBERS>
EXPT00419

>  <COMMON_NAME>
(2S)-2-amino-6-[[(3R,4R)-1-[(1S)-1-carboxy-2-[(S)-methylsulfinyl]ethyl]-2-oxo-4-sulfanylazetidin-3-yl]amino]-6-oxohexanoic acid

$$$$
