
 OpenBabel10282417072D

 82 85  0  0  0  0  0  0  0  0999 V2000
    1.8097    3.2065    0.0000 C   0  0  0  0  0  0  0  0  0  0  0  0
    1.5547    3.9911    0.0000 O   0  0  0  0  0  0  0  0  0  0  0  0
    0.7478    4.1626    0.0000 C   0  0  0  0  0  0  0  0  0  0  0  0
    0.1957    3.5496    0.0000 C   0  0  0  0  0  0  0  0  0  0  0  0
    0.4507    2.7649    0.0000 N   0  0  0  0  0  0  0  0  0  0  0  0
   -0.1014    2.1518    0.0000 C   0  0  0  0  0  0  0  0  0  0  0  0
   -0.9083    2.3234    0.0000 N   0  0  0  0  0  0  0  0  0  0  0  0
   -1.4604    1.7103    0.0000 C   0  0  0  0  0  0  0  0  0  0  0  0
   -1.2054    0.9256    0.0000 C   0  0  0  0  0  0  0  0  0  0  0  0
   -1.7575    0.3126    0.0000 C   0  0  0  0  0  0  0  0  0  0  0  0
   -2.5644    0.4841    0.0000 O   0  0  0  0  0  0  0  0  0  0  0  0
   -1.5025   -0.4721    0.0000 O   0  0  0  0  0  0  0  0  0  0  0  0
   -2.0545   -1.0852    0.0000 C   0  0  0  0  0  0  0  0  0  0  0  0
   -2.8615   -0.9136    0.0000 C   0  0  0  0  0  0  0  0  0  0  0  0
   -1.7996   -1.8698    0.0000 C   0  0  0  0  0  0  0  0  0  0  0  0
   -0.3984    0.7541    0.0000 C   0  0  0  0  0  0  0  0  0  0  0  0
    0.1536    1.3672    0.0000 N   0  0  0  0  0  0  0  0  0  0  0  0
   -0.1435   -0.0305    0.0000 C   0  0  0  0  0  0  0  0  0  0  0  0
   -0.6284   -0.6979    0.0000 C   0  0  0  0  0  0  0  0  0  0  0  0
   -0.1435   -1.3654    0.0000 N   0  0  0  0  0  0  0  0  0  0  0  0
   -0.3984   -2.1500    0.0000 C   0  0  0  0  0  0  0  0  0  0  0  0
    0.6411   -1.1104    0.0000 C   0  0  0  0  0  0  0  0  0  0  0  0
    0.6411   -0.2854    0.0000 C   0  0  0  0  0  0  0  0  0  0  0  0
    1.3556    0.1271    0.0000 C   0  0  0  0  0  0  0  0  0  0  0  0
    2.0701   -0.2854    0.0000 C   0  0  0  0  0  0  0  0  0  0  0  0
    2.0701   -1.1104    0.0000 C   0  0  0  0  0  0  0  0  0  0  0  0
    1.3556   -1.5229    0.0000 C   0  0  0  0  0  0  0  0  0  0  0  0
   -0.6112    3.7211    0.0000 C   0  0  0  0  0  0  0  0  0  0  0  0
   -0.8662    4.5057    0.0000 C   0  0  0  0  0  0  0  0  0  0  0  0
   -1.6731    4.6772    0.0000 N   0  0  0  0  0  0  0  0  0  0  0  0
   -2.2252    4.0641    0.0000 C   0  0  0  0  0  0  0  0  0  0  0  0
   -3.0321    4.2357    0.0000 O   0  0  0  0  0  0  0  0  0  0  0  0
   -1.9702    3.2795    0.0000 C   0  0  0  0  0  0  0  0  0  0  0  0
   -2.5223    2.6664    0.0000 C   0  0  0  0  0  0  0  0  0  0  0  0
   -0.3141    5.1188    0.0000 C   0  0  0  0  0  0  0  0  0  0  0  0
    0.4928    4.9473    0.0000 C   0  0  0  0  0  0  0  0  0  0  0  0
   -0.5691    5.9034    0.0000 N   0  0  0  0  0  0  0  0  0  0  0  0
   -1.3760    6.0749    0.0000 C   0  0  0  0  0  0  0  0  0  0  0  0
   -0.0170    6.5165    0.0000 C   0  0  0  0  0  0  0  0  0  0  0  0
   -0.2720    7.3011    0.0000 C   0  0  0  0  0  0  0  0  0  0  0  0
    0.2801    7.9142    0.0000 N   0  0  0  0  0  0  0  0  0  0  0  0
    0.0251    8.6988    0.0000 C   0  0  0  0  0  0  0  0  0  0  0  0
    1.0870    7.7427    0.0000 C   0  0  0  0  0  0  0  0  0  0  0  0
    1.0938    2.4113    0.0000 H   0  0  0  0  0  0  0  0  0  0  0  0
    2.8563    2.9841    0.0000 H   0  0  0  0  0  0  0  0  0  0  0  0
    2.1404    2.1889    0.0000 H   0  0  0  0  0  0  0  0  0  0  0  0
    1.4137    2.5602    0.0000 H   0  0  0  0  0  0  0  0  0  0  0  0
   -2.4698    1.9249    0.0000 H   0  0  0  0  0  0  0  0  0  0  0  0
   -2.7705   -1.8803    0.0000 H   0  0  0  0  0  0  0  0  0  0  0  0
   -3.1921    0.1041    0.0000 H   0  0  0  0  0  0  0  0  0  0  0  0
   -3.5775   -1.7087    0.0000 H   0  0  0  0  0  0  0  0  0  0  0  0
   -3.9081   -0.6911    0.0000 H   0  0  0  0  0  0  0  0  0  0  0  0
   -2.5156   -2.6649    0.0000 H   0  0  0  0  0  0  0  0  0  0  0  0
   -0.7530   -2.0923    0.0000 H   0  0  0  0  0  0  0  0  0  0  0  0
   -1.4690   -2.8874    0.0000 H   0  0  0  0  0  0  0  0  0  0  0  0
   -1.6604   -0.6979    0.0000 H   0  0  0  0  0  0  0  0  0  0  0  0
   -1.4450   -2.3725    0.0000 H   0  0  0  0  0  0  0  0  0  0  0  0
    0.3176   -2.9451    0.0000 H   0  0  0  0  0  0  0  0  0  0  0  0
   -0.7290   -3.1676    0.0000 H   0  0  0  0  0  0  0  0  0  0  0  0
    1.3556    1.1591    0.0000 H   0  0  0  0  0  0  0  0  0  0  0  0
    2.9638    0.2306    0.0000 H   0  0  0  0  0  0  0  0  0  0  0  0
    2.9638   -1.6264    0.0000 H   0  0  0  0  0  0  0  0  0  0  0  0
    1.3556   -2.5549    0.0000 H   0  0  0  0  0  0  0  0  0  0  0  0
   -1.3017    2.9541    0.0000 H   0  0  0  0  0  0  0  0  0  0  0  0
   -1.9773    5.6135    0.0000 H   0  0  0  0  0  0  0  0  0  0  0  0
   -0.9607    3.0649    0.0000 H   0  0  0  0  0  0  0  0  0  0  0  0
   -3.5317    2.8810    0.0000 H   0  0  0  0  0  0  0  0  0  0  0  0
   -2.2034    1.6849    0.0000 H   0  0  0  0  0  0  0  0  0  0  0  0
    1.1833    5.7142    0.0000 H   0  0  0  0  0  0  0  0  0  0  0  0
   -1.7067    7.0925    0.0000 H   0  0  0  0  0  0  0  0  0  0  0  0
   -2.0920    5.2797    0.0000 H   0  0  0  0  0  0  0  0  0  0  0  0
   -2.4226    6.2974    0.0000 H   0  0  0  0  0  0  0  0  0  0  0  0
    1.0296    6.2940    0.0000 H   0  0  0  0  0  0  0  0  0  0  0  0
    0.6989    7.3117    0.0000 H   0  0  0  0  0  0  0  0  0  0  0  0
   -1.3186    7.5236    0.0000 H   0  0  0  0  0  0  0  0  0  0  0  0
   -0.6026    8.3187    0.0000 H   0  0  0  0  0  0  0  0  0  0  0  0
    0.7410    9.4940    0.0000 H   0  0  0  0  0  0  0  0  0  0  0  0
   -1.0215    8.9212    0.0000 H   0  0  0  0  0  0  0  0  0  0  0  0
   -0.3056    9.7164    0.0000 H   0  0  0  0  0  0  0  0  0  0  0  0
    1.4177    6.7251    0.0000 H   0  0  0  0  0  0  0  0  0  0  0  0
    1.8030    8.5379    0.0000 H   0  0  0  0  0  0  0  0  0  0  0  0
    2.1336    7.5202    0.0000 H   0  0  0  0  0  0  0  0  0  0  0  0
  1  2  1  0  0  0  0
  1 44  1  0  0  0  0
  1 45  1  0  0  0  0
  1 46  1  0  0  0  0
  2  3  1  0  0  0  0
  3  4  2  0  0  0  0
  3 36  1  0  0  0  0
  4  5  1  0  0  0  0
  4 28  1  0  0  0  0
  5  6  1  0  0  0  0
  5 47  1  0  0  0  0
  6  7  2  0  0  0  0
  6 17  1  0  0  0  0
  7  8  1  0  0  0  0
  8  9  2  0  0  0  0
  8 48  1  0  0  0  0
  9 10  1  0  0  0  0
  9 16  1  0  0  0  0
 10 11  2  0  0  0  0
 10 12  1  0  0  0  0
 12 13  1  0  0  0  0
 13 14  1  0  0  0  0
 13 15  1  0  0  0  0
 13 49  1  0  0  0  0
 14 50  1  0  0  0  0
 14 51  1  0  0  0  0
 14 52  1  0  0  0  0
 15 53  1  0  0  0  0
 15 54  1  0  0  0  0
 15 55  1  0  0  0  0
 16 17  2  0  0  0  0
 16 18  1  0  0  0  0
 18 19  2  0  0  0  0
 18 23  1  0  0  0  0
 19 20  1  0  0  0  0
 19 56  1  0  0  0  0
 20 21  1  0  0  0  0
 20 22  1  0  0  0  0
 21 57  1  0  0  0  0
 21 58  1  0  0  0  0
 21 59  1  0  0  0  0
 22 23  2  0  0  0  0
 22 27  1  0  0  0  0
 23 24  1  0  0  0  0
 24 25  2  0  0  0  0
 24 60  1  0  0  0  0
 25 26  1  0  0  0  0
 25 61  1  0  0  0  0
 26 27  2  0  0  0  0
 26 62  1  0  0  0  0
 27 63  1  0  0  0  0
 28 29  2  0  0  0  0
 28 64  1  0  0  0  0
 29 30  1  0  0  0  0
 29 35  1  0  0  0  0
 30 31  1  0  0  0  0
 30 65  1  0  0  0  0
 31 32  2  0  0  0  0
 31 33  1  0  0  0  0
 33 34  2  0  0  0  0
 33 66  1  0  0  0  0
 34 67  1  0  0  0  0
 34 68  1  0  0  0  0
 35 36  2  0  0  0  0
 35 37  1  0  0  0  0
 36 69  1  0  0  0  0
 37 38  1  0  0  0  0
 37 39  1  0  0  0  0
 38 70  1  0  0  0  0
 38 71  1  0  0  0  0
 38 72  1  0  0  0  0
 39 40  1  0  0  0  0
 39 73  1  0  0  0  0
 39 74  1  0  0  0  0
 40 41  1  0  0  0  0
 40 75  1  0  0  0  0
 40 76  1  0  0  0  0
 41 42  1  0  0  0  0
 41 43  1  0  0  0  0
 42 77  1  0  0  0  0
 42 78  1  0  0  0  0
 42 79  1  0  0  0  0
 43 80  1  0  0  0  0
 43 81  1  0  0  0  0
 43 82  1  0  0  0  0
M  END
>  <DRUGBANK_ID>
DB16390

>  <COMMON_NAME>
Mobocertinib

>  <CAS_NUMBER>
1847461-43-1

>  <UNII>
39HBQ4A67L

>  <SYNONYMS>
Mobocertinib

$$$$
