
 OpenBabel10282417072D

 55 59  0  0  0  0  0  0  0  0999 V2000
   -5.3350   -1.1333    0.0000 O   0  0  0  0  0  0  0  0  0  0  0  0
   -5.1635   -0.3263    0.0000 C   0  0  0  0  0  0  0  0  0  0  0  0
   -5.7155    0.2868    0.0000 C   0  0  0  0  0  0  0  0  0  0  0  0
   -5.3030    1.0012    0.0000 C   0  0  0  0  0  0  0  0  0  0  0  0
   -4.4960    0.8297    0.0000 C   0  0  0  0  0  0  0  0  0  0  0  0
   -4.4098    0.0092    0.0000 N   0  0  0  0  0  0  0  0  0  0  0  0
   -3.6953   -0.4033    0.0000 C   0  0  0  0  0  0  0  0  0  0  0  0
   -2.9808    0.0092    0.0000 C   0  0  0  0  0  0  0  0  0  0  0  0
   -2.2664   -0.4033    0.0000 C   0  0  0  0  0  0  0  0  0  0  0  0
   -2.2664   -1.2283    0.0000 C   0  0  0  0  0  0  0  0  0  0  0  0
   -1.5519   -1.6408    0.0000 O   0  0  0  0  0  0  0  0  0  0  0  0
   -0.8374   -1.2283    0.0000 C   0  0  0  0  0  0  0  0  0  0  0  0
   -0.1230   -1.6408    0.0000 C   0  0  0  0  0  0  0  0  0  0  0  0
    0.5915   -1.2283    0.0000 C   0  0  0  0  0  0  0  0  0  0  0  0
    0.5915   -0.4033    0.0000 C   0  0  0  0  0  0  0  0  0  0  0  0
    1.2365    0.1111    0.0000 C   0  0  0  0  0  0  0  0  0  0  0  0
    2.0408   -0.0725    0.0000 C   0  0  0  0  0  0  0  0  0  0  0  0
    2.3988   -0.8158    0.0000 N   0  0  3  0  0  0  0  0  0  0  0  0
    2.0408   -1.5591    0.0000 C   0  0  0  0  0  0  0  0  0  0  0  0
    1.2365   -1.7427    0.0000 C   0  0  0  0  0  0  0  0  0  0  0  0
    3.2238   -0.8158    0.0000 C   0  0  0  0  0  0  0  0  0  0  0  0
    3.8072   -0.2324    0.0000 C   0  0  0  0  0  0  0  0  0  0  0  0
    4.3905   -0.8158    0.0000 C   0  0  0  0  0  0  0  0  0  0  0  0
    3.8072   -1.3991    0.0000 C   0  0  0  0  0  0  0  0  0  0  0  0
   -0.1230    0.0092    0.0000 C   0  0  0  0  0  0  0  0  0  0  0  0
   -0.8374   -0.4033    0.0000 C   0  0  0  0  0  0  0  0  0  0  0  0
   -2.9808   -1.6408    0.0000 N   0  0  0  0  0  0  0  0  0  0  0  0
   -3.6953   -1.2283    0.0000 C   0  0  0  0  0  0  0  0  0  0  0  0
   -6.7796    0.1750    0.0000 H   0  0  0  0  0  0  0  0  0  0  0  0
   -6.2982    1.1842    0.0000 H   0  0  0  0  0  0  0  0  0  0  0  0
   -5.7382    1.9787    0.0000 H   0  0  0  0  0  0  0  0  0  0  0  0
   -4.6296    1.8328    0.0000 H   0  0  0  0  0  0  0  0  0  0  0  0
   -3.7008    1.5457    0.0000 H   0  0  0  0  0  0  0  0  0  0  0  0
   -3.4971    0.4462    0.0000 H   0  0  0  0  0  0  0  0  0  0  0  0
   -2.9808    1.0412    0.0000 H   0  0  0  0  0  0  0  0  0  0  0  0
   -1.3727    0.1127    0.0000 H   0  0  0  0  0  0  0  0  0  0  0  0
   -0.1230   -2.6728    0.0000 H   0  0  0  0  0  0  0  0  0  0  0  0
    0.9984    1.1543    0.0000 H   0  0  0  0  0  0  0  0  0  0  0  0
    1.9931    0.8677    0.0000 H   0  0  0  0  0  0  0  0  0  0  0  0
    2.7079    0.7641    0.0000 H   0  0  0  0  0  0  0  0  0  0  0  0
    3.1041   -0.1923    0.0000 H   0  0  0  0  0  0  0  0  0  0  0  0
    2.7079   -2.3957    0.0000 H   0  0  0  0  0  0  0  0  0  0  0  0
    1.6874   -2.5691    0.0000 H   0  0  0  0  0  0  0  0  0  0  0  0
    0.9984   -2.7859    0.0000 H   0  0  0  0  0  0  0  0  0  0  0  0
    0.2265   -2.0961    0.0000 H   0  0  0  0  0  0  0  0  0  0  0  0
    4.2938   -0.8158    0.0000 H   0  0  0  0  0  0  0  0  0  0  0  0
    3.8072    0.8376    0.0000 H   0  0  0  0  0  0  0  0  0  0  0  0
    4.7958    0.1770    0.0000 H   0  0  0  0  0  0  0  0  0  0  0  0
    5.4605   -0.8158    0.0000 H   0  0  0  0  0  0  0  0  0  0  0  0
    4.8000   -1.8044    0.0000 H   0  0  0  0  0  0  0  0  0  0  0  0
    3.8072   -2.4691    0.0000 H   0  0  0  0  0  0  0  0  0  0  0  0
    2.8187   -1.8086    0.0000 H   0  0  0  0  0  0  0  0  0  0  0  0
   -0.1230    1.0412    0.0000 H   0  0  0  0  0  0  0  0  0  0  0  0
   -1.7311    0.1127    0.0000 H   0  0  0  0  0  0  0  0  0  0  0  0
   -4.5890   -1.7443    0.0000 H   0  0  0  0  0  0  0  0  0  0  0  0
  1  2  2  0  0  0  0
  2  3  1  0  0  0  0
  2  6  1  0  0  0  0
  3  4  1  0  0  0  0
  3 29  1  0  0  0  0
  3 30  1  0  0  0  0
  4  5  1  0  0  0  0
  4 31  1  0  0  0  0
  4 32  1  0  0  0  0
  5  6  1  0  0  0  0
  5 33  1  0  0  0  0
  5 34  1  0  0  0  0
  6  7  1  0  0  0  0
  7  8  2  0  0  0  0
  7 28  1  0  0  0  0
  8  9  1  0  0  0  0
  8 35  1  0  0  0  0
  9 10  2  0  0  0  0
  9 36  1  0  0  0  0
 10 11  1  0  0  0  0
 10 27  1  0  0  0  0
 11 12  1  0  0  0  0
 12 13  2  0  0  0  0
 12 26  1  0  0  0  0
 13 14  1  0  0  0  0
 13 37  1  0  0  0  0
 14 15  2  0  0  0  0
 14 20  1  0  0  0  0
 15 16  1  0  0  0  0
 15 25  1  0  0  0  0
 16 17  1  0  0  0  0
 16 38  1  0  0  0  0
 16 39  1  0  0  0  0
 17 18  1  0  0  0  0
 17 40  1  0  0  0  0
 17 41  1  0  0  0  0
 18 19  1  0  0  0  0
 18 21  1  0  0  0  0
 19 20  1  0  0  0  0
 19 42  1  0  0  0  0
 19 43  1  0  0  0  0
 20 44  1  0  0  0  0
 20 45  1  0  0  0  0
 21 22  1  0  0  0  0
 21 24  1  0  0  0  0
 21 46  1  0  0  0  0
 22 23  1  0  0  0  0
 22 47  1  0  0  0  0
 22 48  1  0  0  0  0
 23 24  1  0  0  0  0
 23 49  1  0  0  0  0
 23 50  1  0  0  0  0
 24 51  1  0  0  0  0
 24 52  1  0  0  0  0
 25 26  2  0  0  0  0
 25 53  1  0  0  0  0
 26 54  1  0  0  0  0
 27 28  2  0  0  0  0
 28 55  1  0  0  0  0
M  END
>  <DRUGBANK_ID>
DB15120

>  <COMMON_NAME>
GSK-239512

>  <CAS_NUMBER>
720691-69-0

>  <UNII>
4I7U5C459M

$$$$
