GLE
 OpenBabel10282417072D

 58 57  0  0  0  0  0  0  0  0999 V2000
    1.8362    0.5052    0.0000 C   0  0  0  0  0  0  0  0  0  0  0  0
    1.1217    0.0927    0.0000 O   0  0  0  0  0  0  0  0  0  0  0  0
    2.5507    0.0927    0.0000 C   0  0  2  0  0  0  0  0  0  0  0  0
    2.5507   -0.7323    0.0000 O   0  0  0  0  0  0  0  0  0  0  0  0
    3.2652    0.5052    0.0000 C   0  0  0  0  0  0  0  0  0  0  0  0
    3.9796    0.0927    0.0000 O   0  0  0  0  0  0  0  0  0  0  0  0
    4.6941    0.5052    0.0000 C   0  0  0  0  0  0  0  0  0  0  0  0
    5.4086    0.0927    0.0000 C   0  0  0  0  0  0  0  0  0  0  0  0
    6.1230   -0.3198    0.0000 F   0  0  0  0  0  0  0  0  0  0  0  0
    5.8211    0.8072    0.0000 F   0  0  0  0  0  0  0  0  0  0  0  0
    4.9961   -0.6218    0.0000 F   0  0  0  0  0  0  0  0  0  0  0  0
    3.2652   -1.1448    0.0000 P   0  0  1  0  0  0  0  0  0  0  0  0
    3.6777   -0.4303    0.0000 O   0  0  0  0  0  0  0  0  0  0  0  0
    2.8527   -1.8593    0.0000 O   0  0  0  0  0  0  0  0  0  0  0  0
    3.9796   -2.3823    0.0000 C   0  0  0  0  0  0  0  0  0  0  0  0
    3.9796   -1.5573    0.0000 O   0  0  0  0  0  0  0  0  0  0  0  0
    0.4073    0.5052    0.0000 C   0  0  0  0  0  0  0  0  0  0  0  0
   -0.3072    0.0927    0.0000 C   0  0  0  0  0  0  0  0  0  0  0  0
   -1.0217    0.5052    0.0000 C   0  0  0  0  0  0  0  0  0  0  0  0
   -1.7361    0.0927    0.0000 C   0  0  0  0  0  0  0  0  0  0  0  0
   -2.4506    0.5052    0.0000 C   0  0  0  0  0  0  0  0  0  0  0  0
   -3.1651    0.0927    0.0000 C   0  0  0  0  0  0  0  0  0  0  0  0
   -3.8796    0.5052    0.0000 C   0  0  0  0  0  0  0  0  0  0  0  0
   -4.5940    0.0927    0.0000 C   0  0  0  0  0  0  0  0  0  0  0  0
   -5.3085    0.5052    0.0000 C   0  0  0  0  0  0  0  0  0  0  0  0
   -6.0230    0.0927    0.0000 C   0  0  0  0  0  0  0  0  0  0  0  0
    2.0450   -0.1993    0.0000 H   0  0  0  0  0  0  0  0  0  0  0  0
    1.8362    1.5752    0.0000 H   0  0  0  0  0  0  0  0  0  0  0  0
    2.7628    1.0402    0.0000 H   0  0  0  0  0  0  0  0  0  0  0  0
    3.2652    1.5752    0.0000 H   0  0  0  0  0  0  0  0  0  0  0  0
    4.1919    1.0402    0.0000 H   0  0  0  0  0  0  0  0  0  0  0  0
    4.6941    1.5752    0.0000 H   0  0  0  0  0  0  0  0  0  0  0  0
    5.6207    1.0402    0.0000 H   0  0  0  0  0  0  0  0  0  0  0  0
    1.8827   -1.8593    0.0000 H   0  0  0  0  0  0  0  0  0  0  0  0
    3.0530   -2.9173    0.0000 H   0  0  0  0  0  0  0  0  0  0  0  0
    4.9062   -2.9173    0.0000 H   0  0  0  0  0  0  0  0  0  0  0  0
    3.9796   -3.4523    0.0000 H   0  0  0  0  0  0  0  0  0  0  0  0
    0.4073    1.5752    0.0000 H   0  0  0  0  0  0  0  0  0  0  0  0
   -0.5193    1.0402    0.0000 H   0  0  0  0  0  0  0  0  0  0  0  0
   -0.3072   -0.9773    0.0000 H   0  0  0  0  0  0  0  0  0  0  0  0
   -1.2338   -0.4423    0.0000 H   0  0  0  0  0  0  0  0  0  0  0  0
   -1.0217    1.5752    0.0000 H   0  0  0  0  0  0  0  0  0  0  0  0
   -1.9484    1.0402    0.0000 H   0  0  0  0  0  0  0  0  0  0  0  0
   -1.7361   -0.9773    0.0000 H   0  0  0  0  0  0  0  0  0  0  0  0
   -2.6627   -0.4423    0.0000 H   0  0  0  0  0  0  0  0  0  0  0  0
   -2.4506    1.5752    0.0000 H   0  0  0  0  0  0  0  0  0  0  0  0
   -3.3772    1.0402    0.0000 H   0  0  0  0  0  0  0  0  0  0  0  0
   -3.1651   -0.9773    0.0000 H   0  0  0  0  0  0  0  0  0  0  0  0
   -4.0917   -0.4423    0.0000 H   0  0  0  0  0  0  0  0  0  0  0  0
   -3.8796    1.5752    0.0000 H   0  0  0  0  0  0  0  0  0  0  0  0
   -4.8063    1.0402    0.0000 H   0  0  0  0  0  0  0  0  0  0  0  0
   -4.5940   -0.9773    0.0000 H   0  0  0  0  0  0  0  0  0  0  0  0
   -5.5206   -0.4423    0.0000 H   0  0  0  0  0  0  0  0  0  0  0  0
   -5.3085    1.5752    0.0000 H   0  0  0  0  0  0  0  0  0  0  0  0
   -6.2351    1.0402    0.0000 H   0  0  0  0  0  0  0  0  0  0  0  0
   -6.9496    0.6277    0.0000 H   0  0  0  0  0  0  0  0  0  0  0  0
   -6.0230   -0.9773    0.0000 H   0  0  0  0  0  0  0  0  0  0  0  0
   -6.9497   -0.4423    0.0000 H   0  0  0  0  0  0  0  0  0  0  0  0
  1  2  1  0  0  0  0
  1  3  1  0  0  0  0
  1 28  1  0  0  0  0
  1 29  1  0  0  0  0
  2 17  1  0  0  0  0
  3  4  1  0  0  0  0
  3  5  1  0  0  0  0
  3 27  1  6  0  0  0
  5  6  1  0  0  0  0
  5 30  1  0  0  0  0
  5 31  1  0  0  0  0
  6  7  1  0  0  0  0
  7  8  1  0  0  0  0
  7 32  1  0  0  0  0
  7 33  1  0  0  0  0
  8  9  1  0  0  0  0
  8 10  1  0  0  0  0
  8 11  1  0  0  0  0
 12  4  1  0  0  0  0
 12 13  2  1  0  0  0
 12 14  1  0  0  0  0
 12 16  1  0  0  0  0
 14 34  1  0  0  0  0
 15 16  1  0  0  0  0
 15 35  1  0  0  0  0
 15 36  1  0  0  0  0
 15 37  1  0  0  0  0
 17 18  1  0  0  0  0
 17 38  1  0  0  0  0
 17 39  1  0  0  0  0
 18 19  1  0  0  0  0
 18 40  1  0  0  0  0
 18 41  1  0  0  0  0
 19 20  1  0  0  0  0
 19 42  1  0  0  0  0
 19 43  1  0  0  0  0
 20 21  1  0  0  0  0
 20 44  1  0  0  0  0
 20 45  1  0  0  0  0
 21 22  1  0  0  0  0
 21 46  1  0  0  0  0
 21 47  1  0  0  0  0
 22 23  1  0  0  0  0
 22 48  1  0  0  0  0
 22 49  1  0  0  0  0
 23 24  1  0  0  0  0
 23 50  1  0  0  0  0
 23 51  1  0  0  0  0
 24 25  1  0  0  0  0
 24 52  1  0  0  0  0
 24 53  1  0  0  0  0
 25 26  1  0  0  0  0
 25 54  1  0  0  0  0
 25 55  1  0  0  0  0
 26 56  1  0  0  0  0
 26 57  1  0  0  0  0
 26 58  1  0  0  0  0
M  END
>  <DRUGBANK_ID>
DB07836

>  <COMMON_NAME>
1-DECYL-3-TRIFLUORO ETHYL-SN-GLYCERO-2-PHOSPHOMETHANOL

$$$$
