
 OpenBabel10282417072D

162163  0  0  1  0  0  0  0  0999 V2000
  -14.2894    3.3000    0.0000 C   0  0  0  0  0  0  0  0  0  0  0  0
   13.5749    3.7125    0.0000 C   0  0  0  0  0  0  0  0  0  0  0  0
  -13.5749    3.7125    0.0000 C   0  0  0  0  0  0  0  0  0  0  0  0
   12.8605    3.3000    0.0000 C   0  0  0  0  0  0  0  0  0  0  0  0
  -12.8605    3.3000    0.0000 C   0  0  0  0  0  0  0  0  0  0  0  0
   12.1460    3.7125    0.0000 C   0  0  0  0  0  0  0  0  0  0  0  0
  -12.1460    3.7125    0.0000 C   0  0  0  0  0  0  0  0  0  0  0  0
   11.4315    3.3000    0.0000 C   0  0  0  0  0  0  0  0  0  0  0  0
  -11.4315    3.3000    0.0000 C   0  0  0  0  0  0  0  0  0  0  0  0
   10.7171    3.7125    0.0000 C   0  0  0  0  0  0  0  0  0  0  0  0
  -10.7171    3.7125    0.0000 C   0  0  0  0  0  0  0  0  0  0  0  0
   10.0026    3.3000    0.0000 C   0  0  0  0  0  0  0  0  0  0  0  0
  -10.0026    3.3000    0.0000 C   0  0  0  0  0  0  0  0  0  0  0  0
    9.2881    3.7125    0.0000 C   0  0  0  0  0  0  0  0  0  0  0  0
   -9.2881    3.7125    0.0000 C   0  0  0  0  0  0  0  0  0  0  0  0
    8.5737    3.3000    0.0000 C   0  0  0  0  0  0  0  0  0  0  0  0
   -8.5737    3.3000    0.0000 C   0  0  0  0  0  0  0  0  0  0  0  0
    7.8592    3.7125    0.0000 C   0  0  0  0  0  0  0  0  0  0  0  0
   -7.8592    3.7125    0.0000 C   0  0  0  0  0  0  0  0  0  0  0  0
    7.1447    3.3000    0.0000 C   0  0  0  0  0  0  0  0  0  0  0  0
   -7.1447    3.3000    0.0000 C   0  0  0  0  0  0  0  0  0  0  0  0
    6.4302    3.7125    0.0000 C   0  0  0  0  0  0  0  0  0  0  0  0
   -6.4302    3.7125    0.0000 C   0  0  0  0  0  0  0  0  0  0  0  0
    5.7158    3.3000    0.0000 C   0  0  0  0  0  0  0  0  0  0  0  0
   -5.7158    3.3000    0.0000 C   0  0  0  0  0  0  0  0  0  0  0  0
    5.0013    3.7125    0.0000 C   0  0  0  0  0  0  0  0  0  0  0  0
   -5.0013    3.7125    0.0000 C   0  0  0  0  0  0  0  0  0  0  0  0
    4.2868    3.3000    0.0000 C   0  0  0  0  0  0  0  0  0  0  0  0
   -4.2868    3.3000    0.0000 C   0  0  0  0  0  0  0  0  0  0  0  0
    3.5724    3.7125    0.0000 C   0  0  0  0  0  0  0  0  0  0  0  0
   -3.5724    3.7125    0.0000 C   0  0  0  0  0  0  0  0  0  0  0  0
    2.8579    3.3000    0.0000 C   0  0  0  0  0  0  0  0  0  0  0  0
   -2.8579    3.3000    0.0000 C   0  0  0  0  0  0  0  0  0  0  0  0
    2.1434    3.7125    0.0000 C   0  0  0  0  0  0  0  0  0  0  0  0
   -3.5724   -1.2375    0.0000 C   0  0  0  0  0  0  0  0  0  0  0  0
   -0.7145    3.7125    0.0000 C   0  0  0  0  0  0  0  0  0  0  0  0
   -0.0000    2.4750    0.0000 C   0  0  0  0  0  0  0  0  0  0  0  0
   -0.7145   -0.4125    0.0000 C   0  0  0  0  0  0  0  0  0  0  0  0
   -0.0000    3.3000    0.0000 C   0  0  2  0  0  0  0  0  0  0  0  0
   -2.8579   -1.6500    0.0000 C   0  0  2  0  0  0  0  0  0  0  0  0
   -0.0000   -0.0000    0.0000 C   0  0  2  0  0  0  0  0  0  0  0  0
   -2.1434    3.7125    0.0000 C   0  0  0  0  0  0  0  0  0  0  0  0
    1.4289    3.3000    0.0000 C   0  0  0  0  0  0  0  0  0  0  0  0
   -2.8579   -2.4750    0.0000 C   0  0  1  0  0  0  0  0  0  0  0  0
    0.7145   -0.4125    0.0000 C   0  0  1  0  0  0  0  0  0  0  0  0
   -2.1434   -2.8875    0.0000 C   0  0  1  0  0  0  0  0  0  0  0  0
    1.4289   -0.0000    0.0000 C   0  0  1  0  0  0  0  0  0  0  0  0
   -1.4289   -2.4750    0.0000 C   0  0  2  0  0  0  0  0  0  0  0  0
    1.4289    0.8250    0.0000 C   0  0  2  0  0  0  0  0  0  0  0  0
    0.7145    1.2375    0.0000 C   0  0  2  0  0  0  0  0  0  0  0  0
   -1.4289   -1.6500    0.0000 C   0  0  1  0  0  0  0  0  0  0  0  0
   -3.5724   -0.4125    0.0000 O   0  0  0  0  0  0  0  0  0  0  0  0
   -2.1434    4.5375    0.0000 O   0  0  0  0  0  0  0  0  0  0  0  0
    1.4289    2.4750    0.0000 O   0  0  0  0  0  0  0  0  0  0  0  0
   -3.5724   -2.8875    0.0000 O   0  0  0  0  0  0  0  0  0  0  0  0
    0.7145   -1.2375    0.0000 O   0  0  0  0  0  0  0  0  0  0  0  0
   -2.1434   -3.7125    0.0000 O   0  0  0  0  0  0  0  0  0  0  0  0
    2.1434   -0.4125    0.0000 O   0  0  0  0  0  0  0  0  0  0  0  0
   -0.7145   -2.8875    0.0000 O   0  0  0  0  0  0  0  0  0  0  0  0
    2.1434    1.2375    0.0000 O   0  0  0  0  0  0  0  0  0  0  0  0
   -1.4289    3.3000    0.0000 O   0  0  0  0  0  0  0  0  0  0  0  0
    0.7145    2.0625    0.0000 O   0  0  0  0  0  0  0  0  0  0  0  0
   -0.7145   -1.2375    0.0000 O   0  0  0  0  0  0  0  0  0  0  0  0
    0.7145    3.7125    0.0000 O   0  0  0  0  0  0  0  0  0  0  0  0
   -2.1434   -1.2375    0.0000 O   0  0  0  0  0  0  0  0  0  0  0  0
   -0.0000    0.8250    0.0000 O   0  0  0  0  0  0  0  0  0  0  0  0
   -0.7145    2.8875    0.0000 H   0  0  0  0  0  0  0  0  0  0  0  0
   -3.3882   -2.2820    0.0000 H   0  0  0  0  0  0  0  0  0  0  0  0
    0.2822   -0.7752    0.0000 H   0  0  0  0  0  0  0  0  0  0  0  0
   -3.6704   -2.3317    0.0000 H   0  0  0  0  0  0  0  0  0  0  0  0
    0.1842   -1.0445    0.0000 H   0  0  0  0  0  0  0  0  0  0  0  0
   -2.8579   -3.3000    0.0000 H   0  0  0  0  0  0  0  0  0  0  0  0
    1.4289   -0.8250    0.0000 H   0  0  0  0  0  0  0  0  0  0  0  0
   -1.4289   -3.3000    0.0000 H   0  0  0  0  0  0  0  0  0  0  0  0
    2.1434    0.4125    0.0000 H   0  0  0  0  0  0  0  0  0  0  0  0
    1.4289    1.6500    0.0000 H   0  0  0  0  0  0  0  0  0  0  0  0
   -0.7145   -2.0625    0.0000 H   0  0  0  0  0  0  0  0  0  0  0  0
  -15.2160    3.8350    0.0000 H   0  0  0  0  0  0  0  0  0  0  0  0
  -14.2894    2.2300    0.0000 H   0  0  0  0  0  0  0  0  0  0  0  0
  -15.2161    2.7650    0.0000 H   0  0  0  0  0  0  0  0  0  0  0  0
   14.5016    3.1775    0.0000 H   0  0  0  0  0  0  0  0  0  0  0  0
   13.5749    4.7825    0.0000 H   0  0  0  0  0  0  0  0  0  0  0  0
   14.5015    4.2475    0.0000 H   0  0  0  0  0  0  0  0  0  0  0  0
  -13.5749    4.7825    0.0000 H   0  0  0  0  0  0  0  0  0  0  0  0
  -12.6482    4.2475    0.0000 H   0  0  0  0  0  0  0  0  0  0  0  0
   12.8605    2.2300    0.0000 H   0  0  0  0  0  0  0  0  0  0  0  0
   11.9339    2.7650    0.0000 H   0  0  0  0  0  0  0  0  0  0  0  0
  -12.8605    2.2300    0.0000 H   0  0  0  0  0  0  0  0  0  0  0  0
  -11.9339    2.7650    0.0000 H   0  0  0  0  0  0  0  0  0  0  0  0
   12.1460    4.7825    0.0000 H   0  0  0  0  0  0  0  0  0  0  0  0
   11.2194    4.2475    0.0000 H   0  0  0  0  0  0  0  0  0  0  0  0
  -12.1460    4.7825    0.0000 H   0  0  0  0  0  0  0  0  0  0  0  0
  -11.2194    4.2475    0.0000 H   0  0  0  0  0  0  0  0  0  0  0  0
   11.4315    2.2300    0.0000 H   0  0  0  0  0  0  0  0  0  0  0  0
   10.5048    2.7650    0.0000 H   0  0  0  0  0  0  0  0  0  0  0  0
  -11.4315    2.2300    0.0000 H   0  0  0  0  0  0  0  0  0  0  0  0
  -10.5048    2.7650    0.0000 H   0  0  0  0  0  0  0  0  0  0  0  0
   10.7171    4.7825    0.0000 H   0  0  0  0  0  0  0  0  0  0  0  0
    9.7905    4.2475    0.0000 H   0  0  0  0  0  0  0  0  0  0  0  0
  -10.7171    4.7825    0.0000 H   0  0  0  0  0  0  0  0  0  0  0  0
   -9.7905    4.2475    0.0000 H   0  0  0  0  0  0  0  0  0  0  0  0
   10.0026    2.2300    0.0000 H   0  0  0  0  0  0  0  0  0  0  0  0
    9.0760    2.7650    0.0000 H   0  0  0  0  0  0  0  0  0  0  0  0
  -10.0026    2.2300    0.0000 H   0  0  0  0  0  0  0  0  0  0  0  0
   -9.0760    2.7650    0.0000 H   0  0  0  0  0  0  0  0  0  0  0  0
    9.2881    4.7825    0.0000 H   0  0  0  0  0  0  0  0  0  0  0  0
    8.3614    4.2475    0.0000 H   0  0  0  0  0  0  0  0  0  0  0  0
   -9.2881    4.7825    0.0000 H   0  0  0  0  0  0  0  0  0  0  0  0
   -8.3614    4.2475    0.0000 H   0  0  0  0  0  0  0  0  0  0  0  0
    8.5737    2.2300    0.0000 H   0  0  0  0  0  0  0  0  0  0  0  0
    7.6471    2.7650    0.0000 H   0  0  0  0  0  0  0  0  0  0  0  0
   -8.5737    2.2300    0.0000 H   0  0  0  0  0  0  0  0  0  0  0  0
   -7.6471    2.7650    0.0000 H   0  0  0  0  0  0  0  0  0  0  0  0
    7.8592    4.7825    0.0000 H   0  0  0  0  0  0  0  0  0  0  0  0
    6.9326    4.2475    0.0000 H   0  0  0  0  0  0  0  0  0  0  0  0
   -7.8592    4.7825    0.0000 H   0  0  0  0  0  0  0  0  0  0  0  0
   -6.9326    4.2475    0.0000 H   0  0  0  0  0  0  0  0  0  0  0  0
    7.1447    2.2300    0.0000 H   0  0  0  0  0  0  0  0  0  0  0  0
    6.2181    2.7650    0.0000 H   0  0  0  0  0  0  0  0  0  0  0  0
   -7.1447    2.2300    0.0000 H   0  0  0  0  0  0  0  0  0  0  0  0
   -6.2181    2.7650    0.0000 H   0  0  0  0  0  0  0  0  0  0  0  0
    6.4302    4.7825    0.0000 H   0  0  0  0  0  0  0  0  0  0  0  0
    5.5035    4.2475    0.0000 H   0  0  0  0  0  0  0  0  0  0  0  0
   -6.4302    4.7825    0.0000 H   0  0  0  0  0  0  0  0  0  0  0  0
   -5.5035    4.2475    0.0000 H   0  0  0  0  0  0  0  0  0  0  0  0
    5.7158    2.2300    0.0000 H   0  0  0  0  0  0  0  0  0  0  0  0
    4.7892    2.7650    0.0000 H   0  0  0  0  0  0  0  0  0  0  0  0
   -5.7158    2.2300    0.0000 H   0  0  0  0  0  0  0  0  0  0  0  0
   -4.7892    2.7650    0.0000 H   0  0  0  0  0  0  0  0  0  0  0  0
    5.0013    4.7825    0.0000 H   0  0  0  0  0  0  0  0  0  0  0  0
    4.0747    4.2475    0.0000 H   0  0  0  0  0  0  0  0  0  0  0  0
   -5.0013    4.7825    0.0000 H   0  0  0  0  0  0  0  0  0  0  0  0
   -4.0747    4.2475    0.0000 H   0  0  0  0  0  0  0  0  0  0  0  0
    4.2868    2.2300    0.0000 H   0  0  0  0  0  0  0  0  0  0  0  0
    3.3601    2.7650    0.0000 H   0  0  0  0  0  0  0  0  0  0  0  0
   -4.2868    2.2300    0.0000 H   0  0  0  0  0  0  0  0  0  0  0  0
   -3.3601    2.7650    0.0000 H   0  0  0  0  0  0  0  0  0  0  0  0
    3.5724    4.7825    0.0000 H   0  0  0  0  0  0  0  0  0  0  0  0
    2.6458    4.2475    0.0000 H   0  0  0  0  0  0  0  0  0  0  0  0
   -3.5724    4.7825    0.0000 H   0  0  0  0  0  0  0  0  0  0  0  0
   -2.6458    4.2475    0.0000 H   0  0  0  0  0  0  0  0  0  0  0  0
    2.8579    2.2300    0.0000 H   0  0  0  0  0  0  0  0  0  0  0  0
    1.9313    2.7650    0.0000 H   0  0  0  0  0  0  0  0  0  0  0  0
   -2.8579    2.2300    0.0000 H   0  0  0  0  0  0  0  0  0  0  0  0
   -1.9313    2.7650    0.0000 H   0  0  0  0  0  0  0  0  0  0  0  0
    2.1434    4.7825    0.0000 H   0  0  0  0  0  0  0  0  0  0  0  0
    1.2168    4.2475    0.0000 H   0  0  0  0  0  0  0  0  0  0  0  0
   -4.4990   -1.7725    0.0000 H   0  0  0  0  0  0  0  0  0  0  0  0
   -4.4990   -0.7025    0.0000 H   0  0  0  0  0  0  0  0  0  0  0  0
   -0.7145    4.7825    0.0000 H   0  0  0  0  0  0  0  0  0  0  0  0
   -1.6412    4.2475    0.0000 H   0  0  0  0  0  0  0  0  0  0  0  0
   -0.9266    1.9400    0.0000 H   0  0  0  0  0  0  0  0  0  0  0  0
    0.0000    1.4050    0.0000 H   0  0  0  0  0  0  0  0  0  0  0  0
   -1.6411    0.1225    0.0000 H   0  0  0  0  0  0  0  0  0  0  0  0
   -1.6411   -0.9475    0.0000 H   0  0  0  0  0  0  0  0  0  0  0  0
   -2.7324    0.0725    0.0000 H   0  0  0  0  0  0  0  0  0  0  0  0
   -4.4124   -2.4025    0.0000 H   0  0  0  0  0  0  0  0  0  0  0  0
   -0.1255   -1.7225    0.0000 H   0  0  0  0  0  0  0  0  0  0  0  0
   -2.9834   -4.1975    0.0000 H   0  0  0  0  0  0  0  0  0  0  0  0
    2.1434   -1.3825    0.0000 H   0  0  0  0  0  0  0  0  0  0  0  0
   -0.7145   -3.8575    0.0000 H   0  0  0  0  0  0  0  0  0  0  0  0
    2.9834    0.7525    0.0000 H   0  0  0  0  0  0  0  0  0  0  0  0
  1 78  1  0  0  0  0
  1 79  1  0  0  0  0
  1 80  1  0  0  0  0
  2 81  1  0  0  0  0
  2 82  1  0  0  0  0
  2 83  1  0  0  0  0
  3  1  1  0  0  0  0
  3 84  1  0  0  0  0
  3 85  1  0  0  0  0
  4  2  1  0  0  0  0
  4 86  1  0  0  0  0
  4 87  1  0  0  0  0
  5  3  1  0  0  0  0
  5 88  1  0  0  0  0
  5 89  1  0  0  0  0
  6  4  1  0  0  0  0
  6 90  1  0  0  0  0
  6 91  1  0  0  0  0
  7  5  1  0  0  0  0
  7 92  1  0  0  0  0
  7 93  1  0  0  0  0
  8  6  1  0  0  0  0
  8 94  1  0  0  0  0
  8 95  1  0  0  0  0
  9  7  1  0  0  0  0
  9 96  1  0  0  0  0
  9 97  1  0  0  0  0
 10  8  1  0  0  0  0
 10 98  1  0  0  0  0
 10 99  1  0  0  0  0
 11  9  1  0  0  0  0
 11100  1  0  0  0  0
 11101  1  0  0  0  0
 12 10  1  0  0  0  0
 12102  1  0  0  0  0
 12103  1  0  0  0  0
 13 11  1  0  0  0  0
 13104  1  0  0  0  0
 13105  1  0  0  0  0
 14 12  1  0  0  0  0
 14106  1  0  0  0  0
 14107  1  0  0  0  0
 15 13  1  0  0  0  0
 15108  1  0  0  0  0
 15109  1  0  0  0  0
 16 14  1  0  0  0  0
 16110  1  0  0  0  0
 16111  1  0  0  0  0
 17 15  1  0  0  0  0
 17112  1  0  0  0  0
 17113  1  0  0  0  0
 18 16  1  0  0  0  0
 18114  1  0  0  0  0
 18115  1  0  0  0  0
 19 17  1  0  0  0  0
 19116  1  0  0  0  0
 19117  1  0  0  0  0
 20 18  1  0  0  0  0
 20118  1  0  0  0  0
 20119  1  0  0  0  0
 21 19  1  0  0  0  0
 21120  1  0  0  0  0
 21121  1  0  0  0  0
 22 20  1  0  0  0  0
 22122  1  0  0  0  0
 22123  1  0  0  0  0
 23 21  1  0  0  0  0
 23124  1  0  0  0  0
 23125  1  0  0  0  0
 24 22  1  0  0  0  0
 24126  1  0  0  0  0
 24127  1  0  0  0  0
 25 23  1  0  0  0  0
 25128  1  0  0  0  0
 25129  1  0  0  0  0
 26 24  1  0  0  0  0
 26130  1  0  0  0  0
 26131  1  0  0  0  0
 27 25  1  0  0  0  0
 27132  1  0  0  0  0
 27133  1  0  0  0  0
 28 26  1  0  0  0  0
 28134  1  0  0  0  0
 28135  1  0  0  0  0
 29 27  1  0  0  0  0
 29136  1  0  0  0  0
 29137  1  0  0  0  0
 30 28  1  0  0  0  0
 30138  1  0  0  0  0
 30139  1  0  0  0  0
 31 29  1  0  0  0  0
 31140  1  0  0  0  0
 31141  1  0  0  0  0
 32 30  1  0  0  0  0
 32142  1  0  0  0  0
 32143  1  0  0  0  0
 33 31  1  0  0  0  0
 33144  1  0  0  0  0
 33145  1  0  0  0  0
 34 32  1  0  0  0  0
 34146  1  0  0  0  0
 34147  1  0  0  0  0
 35148  1  0  0  0  0
 35149  1  0  0  0  0
 36150  1  0  0  0  0
 36151  1  0  0  0  0
 37152  1  0  0  0  0
 37153  1  0  0  0  0
 38154  1  0  0  0  0
 38155  1  0  0  0  0
 39 36  1  0  0  0  0
 39 37  1  0  0  0  0
 39 64  1  0  0  0  0
 39 67  1  6  0  0  0
 40 35  1  0  0  0  0
 40 68  1  6  0  0  0
 41 38  1  0  0  0  0
 41 69  1  6  0  0  0
 42 33  1  0  0  0  0
 43 34  1  0  0  0  0
 44 40  1  0  0  0  0
 44 55  1  0  0  0  0
 44 70  1  6  0  0  0
 45 41  1  0  0  0  0
 45 56  1  0  0  0  0
 45 71  1  6  0  0  0
 46 44  1  0  0  0  0
 46 57  1  0  0  0  0
 46 72  1  6  0  0  0
 47 45  1  0  0  0  0
 47 58  1  0  0  0  0
 47 73  1  6  0  0  0
 48 46  1  0  0  0  0
 48 59  1  0  0  0  0
 48 74  1  1  0  0  0
 49 47  1  0  0  0  0
 49 60  1  0  0  0  0
 49 75  1  1  0  0  0
 50 49  1  0  0  0  0
 50 62  1  0  0  0  0
 50 76  1  6  0  0  0
 51 48  1  0  0  0  0
 51 63  1  0  0  0  0
 51 77  1  1  0  0  0
 52 35  1  0  0  0  0
 52156  1  0  0  0  0
 53 42  2  0  0  0  0
 54 43  2  0  0  0  0
 55157  1  0  0  0  0
 56158  1  0  0  0  0
 57159  1  0  0  0  0
 58160  1  0  0  0  0
 59161  1  0  0  0  0
 60162  1  0  0  0  0
 61 36  1  0  0  0  0
 61 42  1  0  0  0  0
 62 37  1  0  0  0  0
 63 38  1  0  0  0  0
 64 43  1  0  0  0  0
 65 40  1  0  0  0  0
 65 51  1  0  0  0  0
 66 41  1  0  0  0  0
 66 50  1  0  0  0  0
M  END
>  <DRUGBANK_ID>
DB03426

>  <SECONDARY_ACCESSION_NUMBERS>
EXPT01176

>  <COMMON_NAME>
Digalactosyl Diacyl Glycerol (Dgdg)

$$$$
