FR7
 OpenBabel10282417072D

 39 40  0  0  0  0  0  0  0  0999 V2000
   -1.4190    0.1708    0.0000 C   0  0  0  0  0  0  0  0  0  0  0  0
   -0.6653   -0.1647    0.0000 N   0  0  0  0  0  0  0  0  0  0  0  0
   -0.7516   -0.9852    0.0000 C   0  0  0  0  0  0  0  0  0  0  0  0
   -1.5586   -1.1567    0.0000 N   0  0  0  0  0  0  0  0  0  0  0  0
   -1.9711   -0.4423    0.0000 C   0  0  0  0  0  0  0  0  0  0  0  0
   -2.7915   -0.3560    0.0000 C   0  0  0  0  0  0  0  0  0  0  0  0
   -3.2765   -1.0235    0.0000 O   0  0  0  0  0  0  0  0  0  0  0  0
   -3.1271    0.3976    0.0000 N   0  0  0  0  0  0  0  0  0  0  0  0
    0.0491    0.2478    0.0000 C   0  0  1  0  0  0  0  0  0  0  0  0
    0.0491    1.0728    0.0000 C   0  0  1  0  0  0  0  0  0  0  0  0
   -0.6653    1.4853    0.0000 O   0  0  0  0  0  0  0  0  0  0  0  0
    0.7636   -0.1647    0.0000 C   0  0  0  0  0  0  0  0  0  0  0  0
    1.4781    0.2478    0.0000 C   0  0  0  0  0  0  0  0  0  0  0  0
    2.1925   -0.1647    0.0000 C   0  0  0  0  0  0  0  0  0  0  0  0
    2.9070    0.2478    0.0000 C   0  0  0  0  0  0  0  0  0  0  0  0
    3.6215   -0.1647    0.0000 C   0  0  0  0  0  0  0  0  0  0  0  0
    3.6215   -0.9897    0.0000 C   0  0  0  0  0  0  0  0  0  0  0  0
    2.9070   -1.4022    0.0000 C   0  0  0  0  0  0  0  0  0  0  0  0
    2.1925   -0.9897    0.0000 C   0  0  0  0  0  0  0  0  0  0  0  0
    2.9070   -2.2272    0.0000 Cl  0  0  0  0  0  0  0  0  0  0  0  0
    1.4781   -1.4022    0.0000 Cl  0  0  0  0  0  0  0  0  0  0  0  0
    0.7636    1.4853    0.0000 C   0  0  0  0  0  0  0  0  0  0  0  0
   -0.5259    0.3492    0.0000 H   0  0  0  0  0  0  0  0  0  0  0  0
   -0.5259    0.9714    0.0000 H   0  0  0  0  0  0  0  0  0  0  0  0
   -1.6336    1.1802    0.0000 H   0  0  0  0  0  0  0  0  0  0  0  0
    0.0153   -1.6758    0.0000 H   0  0  0  0  0  0  0  0  0  0  0  0
   -2.5485    1.1941    0.0000 H   0  0  0  0  0  0  0  0  0  0  0  0
   -4.1062    0.5004    0.0000 H   0  0  0  0  0  0  0  0  0  0  0  0
   -0.6653    2.4553    0.0000 H   0  0  0  0  0  0  0  0  0  0  0  0
    0.7636   -1.2347    0.0000 H   0  0  0  0  0  0  0  0  0  0  0  0
    1.6902   -0.6997    0.0000 H   0  0  0  0  0  0  0  0  0  0  0  0
    1.4781    1.3178    0.0000 H   0  0  0  0  0  0  0  0  0  0  0  0
    2.4048    0.7828    0.0000 H   0  0  0  0  0  0  0  0  0  0  0  0
    2.9070    1.2798    0.0000 H   0  0  0  0  0  0  0  0  0  0  0  0
    4.5152    0.3513    0.0000 H   0  0  0  0  0  0  0  0  0  0  0  0
    4.5152   -1.5057    0.0000 H   0  0  0  0  0  0  0  0  0  0  0  0
    1.6902    0.9503    0.0000 H   0  0  0  0  0  0  0  0  0  0  0  0
    0.7636    2.5553    0.0000 H   0  0  0  0  0  0  0  0  0  0  0  0
    1.6903    2.0203    0.0000 H   0  0  0  0  0  0  0  0  0  0  0  0
  1  2  1  0  0  0  0
  1  5  2  0  0  0  0
  1 25  1  0  0  0  0
  2  3  1  0  0  0  0
  3  4  2  0  0  0  0
  3 26  1  0  0  0  0
  4  5  1  0  0  0  0
  5  6  1  0  0  0  0
  6  7  2  0  0  0  0
  6  8  1  0  0  0  0
  8 27  1  0  0  0  0
  8 28  1  0  0  0  0
  9  2  1  0  0  0  0
  9 10  1  0  0  0  0
  9 12  1  0  0  0  0
  9 23  1  6  0  0  0
 10 11  1  0  0  0  0
 10 22  1  0  0  0  0
 10 24  1  6  0  0  0
 11 29  1  0  0  0  0
 12 13  1  0  0  0  0
 12 30  1  0  0  0  0
 12 31  1  0  0  0  0
 13 14  1  0  0  0  0
 13 32  1  0  0  0  0
 13 33  1  0  0  0  0
 14 15  2  0  0  0  0
 14 19  1  0  0  0  0
 15 16  1  0  0  0  0
 15 34  1  0  0  0  0
 16 17  2  0  0  0  0
 16 35  1  0  0  0  0
 17 18  1  0  0  0  0
 17 36  1  0  0  0  0
 18 19  2  0  0  0  0
 18 20  1  0  0  0  0
 19 21  1  0  0  0  0
 22 37  1  0  0  0  0
 22 38  1  0  0  0  0
 22 39  1  0  0  0  0
M  END
>  <DRUGBANK_ID>
DB03370

>  <SECONDARY_ACCESSION_NUMBERS>
EXPT01486

>  <COMMON_NAME>
FR239087

$$$$
