
 OpenBabel10282417072D

 52 54  0  0  0  0  0  0  0  0999 V2000
    0.2034    2.4046    0.0000 C   0  0  0  0  0  0  0  0  0  0  0  0
   -0.5110    1.9921    0.0000 N   0  0  0  0  0  0  0  0  0  0  0  0
    0.2033    0.7546    0.0000 N   0  0  0  0  0  0  0  0  0  0  0  0
    0.9178    1.1671    0.0000 C   0  0  0  0  0  0  0  0  0  0  0  0
    0.9178    1.9921    0.0000 C   0  0  0  0  0  0  0  0  0  0  0  0
    2.1874    1.5795    0.0000 C   0  0  0  0  0  0  0  0  0  0  0  0
    1.7024    0.9121    0.0000 N   0  0  0  0  0  0  0  0  0  0  0  0
    1.9574    0.1273    0.0000 C   0  0  2  0  0  0  0  0  0  0  0  0
    1.4724   -0.5399    0.0000 O   0  0  0  0  0  0  0  0  0  0  0  0
    1.9573   -1.2075    0.0000 C   0  0  1  0  0  0  0  0  0  0  0  0
    2.7419   -0.9525    0.0000 C   0  0  1  0  0  0  0  0  0  0  0  0
    3.4094   -1.4375    0.0000 O   0  0  0  0  0  0  0  0  0  0  0  0
    2.7420   -0.1275    0.0000 C   0  0  1  0  0  0  0  0  0  0  0  0
    3.4094    0.3573    0.0000 O   0  0  0  0  0  0  0  0  0  0  0  0
    0.8773   -1.9921    0.0000 O   0  0  0  0  0  0  0  0  0  0  0  0
    0.1628   -3.2296    0.0000 O   0  0  0  0  0  0  0  0  0  0  0  0
    0.1628   -2.4046    0.0000 P   0  0  3  0  0  0  0  0  0  0  0  0
    0.1628   -1.5796    0.0000 O   0  0  0  0  0  0  0  0  0  0  0  0
   -0.5515   -1.9921    0.0000 O   0  0  0  0  0  0  0  0  0  0  0  0
   -1.2660   -3.2296    0.0000 O   0  0  0  0  0  0  0  0  0  0  0  0
   -1.2660   -2.4046    0.0000 P   0  0  3  0  0  0  0  0  0  0  0  0
   -1.2660   -1.5599    0.0000 O   0  0  0  0  0  0  0  0  0  0  0  0
   -1.9805   -1.9921    0.0000 O   0  0  0  0  0  0  0  0  0  0  0  0
   -2.6949   -3.2296    0.0000 O   0  0  0  0  0  0  0  0  0  0  0  0
   -3.4094   -1.9921    0.0000 O   0  0  0  0  0  0  0  0  0  0  0  0
   -2.6949   -2.4046    0.0000 P   0  0  0  0  0  0  0  0  0  0  0  0
   -2.6949   -1.5796    0.0000 O   0  0  0  0  0  0  0  0  0  0  0  0
    1.7023   -1.9921    0.0000 C   0  0  0  0  0  0  0  0  0  0  0  0
   -0.5111    1.1671    0.0000 C   0  0  0  0  0  0  0  0  0  0  0  0
   -1.2256    0.7546    0.0000 N   0  0  0  0  0  0  0  0  0  0  0  0
    0.2034    3.2296    0.0000 O   0  0  0  0  0  0  0  0  0  0  0  0
    1.7024    2.2470    0.0000 N   0  3  0  0  0  0  0  0  0  0  0  0
    1.9159    3.0439    0.0000 C   0  0  0  0  0  0  0  0  0  0  0  0
   -1.3636    2.4844    0.0000 H   0  0  0  0  0  0  0  0  0  0  0  0
    3.2194    1.5795    0.0000 H   0  0  0  0  0  0  0  0  0  0  0  0
    0.9006    0.2948    0.0000 H   0  0  0  0  0  0  0  0  0  0  0  0
    0.9005   -1.3748    0.0000 H   0  0  0  0  0  0  0  0  0  0  0  0
    2.5745   -2.0093    0.0000 H   0  0  0  0  0  0  0  0  0  0  0  0
    3.3080   -2.4022    0.0000 H   0  0  0  0  0  0  0  0  0  0  0  0
    2.5746    0.9293    0.0000 H   0  0  0  0  0  0  0  0  0  0  0  0
    4.2955   -0.0373    0.0000 H   0  0  0  0  0  0  0  0  0  0  0  0
    1.0028   -1.0946    0.0000 H   0  0  0  0  0  0  0  0  0  0  0  0
   -0.4260   -1.0749    0.0000 H   0  0  0  0  0  0  0  0  0  0  0  0
   -3.4094   -1.0221    0.0000 H   0  0  0  0  0  0  0  0  0  0  0  0
   -1.8549   -1.0946    0.0000 H   0  0  0  0  0  0  0  0  0  0  0  0
    2.3312   -2.8578    0.0000 H   0  0  0  0  0  0  0  0  0  0  0  0
    1.2165   -2.9455    0.0000 H   0  0  0  0  0  0  0  0  0  0  0  0
   -2.0782    1.2469    0.0000 H   0  0  0  0  0  0  0  0  0  0  0  0
   -1.2256   -0.2299    0.0000 H   0  0  0  0  0  0  0  0  0  0  0  0
    2.9494    3.3209    0.0000 H   0  0  0  0  0  0  0  0  0  0  0  0
    1.1593    3.8005    0.0000 H   0  0  0  0  0  0  0  0  0  0  0  0
    2.1928    4.0774    0.0000 H   0  0  0  0  0  0  0  0  0  0  0  0
  1  2  1  0  0  0  0
  1  5  1  0  0  0  0
  2 29  1  0  0  0  0
  2 34  1  0  0  0  0
  3  4  1  0  0  0  0
  4  5  2  0  0  0  0
  4  7  1  0  0  0  0
  5 32  1  0  0  0  0
  6  7  1  0  0  0  0
  6 35  1  0  0  0  0
  8  7  1  0  0  0  0
  8  9  1  0  0  0  0
  8 13  1  0  0  0  0
  8 36  1  6  0  0  0
  9 10  1  0  0  0  0
 10 28  1  0  0  0  0
 10 11  1  0  0  0  0
 10 37  1  6  0  0  0
 11 12  1  0  0  0  0
 11 13  1  0  0  0  0
 11 38  1  1  0  0  0
 12 39  1  0  0  0  0
 13 14  1  0  0  0  0
 13 40  1  1  0  0  0
 14 41  1  0  0  0  0
 15 17  1  0  0  0  0
 17 16  2  0  0  0  0
 17 19  1  0  0  0  0
 17 18  1  0  0  0  0
 18 42  1  0  0  0  0
 19 21  1  0  0  0  0
 21 20  2  0  0  0  0
 21 23  1  0  0  0  0
 21 22  1  0  0  0  0
 22 43  1  0  0  0  0
 23 26  1  0  0  0  0
 25 44  1  0  0  0  0
 26 24  2  0  0  0  0
 26 25  1  0  0  0  0
 26 27  1  0  0  0  0
 27 45  1  0  0  0  0
 28 15  1  0  0  0  0
 28 46  1  0  0  0  0
 28 47  1  0  0  0  0
 29  3  2  0  0  0  0
 29 30  1  0  0  0  0
 30 48  1  0  0  0  0
 30 49  1  0  0  0  0
 31  1  2  0  0  0  0
 32  6  2  0  0  0  0
 32 33  1  0  0  0  0
 33 50  1  0  0  0  0
 33 51  1  0  0  0  0
 33 52  1  0  0  0  0
M  CHG  1  32   1
M  END
>  <DRUGBANK_ID>
DB02716

>  <SECONDARY_ACCESSION_NUMBERS>
EXPT02167

>  <COMMON_NAME>
7-methyl-guanosine-5'-triphosphate

>  <SYNONYMS>
7-methyl-GTP(1+); 7-methylguanosine 5'-(tetrahydrogen triphosphate)

$$$$
