
 OpenBabel10282417072D

 14 13  0  0  0  0  0  0  0  0999 V2000
    0.7145    0.6187    0.0000 O   0  0  0  0  0  0  0  0  0  0  0  0
    0.7145   -0.2062    0.0000 C   0  0  0  0  0  0  0  0  0  0  0  0
    0.0000   -0.6187    0.0000 C   0  0  0  0  0  0  0  0  0  0  0  0
    1.4290   -0.6187    0.0000 C   0  0  0  0  0  0  0  0  0  0  0  0
   -0.7145   -0.2062    0.0000 C   0  0  0  0  0  0  0  0  0  0  0  0
   -1.4289   -0.6187    0.0000 O   0  0  0  0  0  0  0  0  0  0  0  0
    0.0000   -1.6887    0.0000 H   0  0  0  0  0  0  0  0  0  0  0  0
   -0.9266   -1.1537    0.0000 H   0  0  0  0  0  0  0  0  0  0  0  0
    1.4290   -1.6887    0.0000 H   0  0  0  0  0  0  0  0  0  0  0  0
    2.3556   -0.0837    0.0000 H   0  0  0  0  0  0  0  0  0  0  0  0
    2.3557   -1.1537    0.0000 H   0  0  0  0  0  0  0  0  0  0  0  0
   -0.7145    0.8638    0.0000 H   0  0  0  0  0  0  0  0  0  0  0  0
   -1.6412    0.3288    0.0000 H   0  0  0  0  0  0  0  0  0  0  0  0
   -2.2690   -0.1337    0.0000 H   0  0  0  0  0  0  0  0  0  0  0  0
  2  1  2  0  0  0  0
  2  3  1  0  0  0  0
  2  4  1  0  0  0  0
  3  5  1  0  0  0  0
  3  7  1  0  0  0  0
  3  8  1  0  0  0  0
  4  9  1  0  0  0  0
  4 10  1  0  0  0  0
  4 11  1  0  0  0  0
  5  6  1  0  0  0  0
  5 12  1  0  0  0  0
  5 13  1  0  0  0  0
  6 14  1  0  0  0  0
M  END
>  <DRUGBANK_ID>
DB04094

>  <SECONDARY_ACCESSION_NUMBERS>
EXPT00777

>  <COMMON_NAME>
4-hydroxybutan-2-one

>  <CAS_NUMBER>
590-90-9

>  <UNII>
TCM0BJ44MF

>  <SYNONYMS>
3-Oxo-1-butanol; 3-Oxobutanol; 4-Hydroxy-2-butanone; Methylolacetone; Monomethylolacetone

$$$$
