P01
 OpenBabel10282417072D

 52 54  0  0  0  0  0  0  0  0999 V2000
   -2.9962   -1.8106    0.0000 Cl  0  0  0  0  0  0  0  0  0  0  0  0
   -2.2817   -2.2231    0.0000 C   0  0  0  0  0  0  0  0  0  0  0  0
   -1.5673   -1.8106    0.0000 C   0  0  0  0  0  0  0  0  0  0  0  0
   -0.8528   -2.2231    0.0000 C   0  0  0  0  0  0  0  0  0  0  0  0
   -0.8528   -3.0481    0.0000 C   0  0  0  0  0  0  0  0  0  0  0  0
   -1.5673   -3.4606    0.0000 C   0  0  0  0  0  0  0  0  0  0  0  0
   -2.2817   -3.0481    0.0000 C   0  0  0  0  0  0  0  0  0  0  0  0
   -0.1383   -1.8106    0.0000 N   0  0  0  0  0  0  0  0  0  0  0  0
   -0.1383   -0.9856    0.0000 C   0  0  0  0  0  0  0  0  0  0  0  0
   -0.8528   -0.5731    0.0000 C   0  0  0  0  0  0  0  0  0  0  0  0
   -1.6374   -0.8281    0.0000 N   0  0  0  0  0  0  0  0  0  0  0  0
   -0.8528    0.2519    0.0000 C   0  0  0  0  0  0  0  0  0  0  0  0
   -1.6374    0.5068    0.0000 N   0  0  0  0  0  0  0  0  0  0  0  0
   -1.8924    1.2914    0.0000 C   0  0  0  0  0  0  0  0  0  0  0  0
   -2.6993    1.4630    0.0000 C   0  0  0  0  0  0  0  0  0  0  0  0
   -1.3403    1.9045    0.0000 C   0  0  0  0  0  0  0  0  0  0  0  0
   -2.1223   -0.1606    0.0000 C   0  0  0  0  0  0  0  0  0  0  0  0
   -0.1383    0.6644    0.0000 N   0  0  0  0  0  0  0  0  0  0  0  0
    0.5762    0.2519    0.0000 C   0  0  0  0  0  0  0  0  0  0  0  0
    0.5762   -0.5731    0.0000 N   0  0  0  0  0  0  0  0  0  0  0  0
    1.2906    0.6644    0.0000 N   0  0  0  0  0  0  0  0  0  0  0  0
    1.2906    1.4894    0.0000 C   0  0  2  0  0  0  0  0  0  0  0  0
    2.0051    1.9019    0.0000 C   0  0  0  0  0  0  0  0  0  0  0  0
    2.0051    2.7269    0.0000 C   0  0  0  0  0  0  0  0  0  0  0  0
    2.7196    1.4894    0.0000 C   0  0  0  0  0  0  0  0  0  0  0  0
    0.5762    1.9019    0.0000 C   0  0  0  0  0  0  0  0  0  0  0  0
    0.5762    2.7269    0.0000 O   0  0  0  0  0  0  0  0  0  0  0  0
    1.7963    1.1974    0.0000 H   0  0  0  0  0  0  0  0  0  0  0  0
   -1.5673   -0.7786    0.0000 H   0  0  0  0  0  0  0  0  0  0  0  0
    0.0409   -3.5641    0.0000 H   0  0  0  0  0  0  0  0  0  0  0  0
   -1.5673   -4.4926    0.0000 H   0  0  0  0  0  0  0  0  0  0  0  0
   -3.1754   -3.5641    0.0000 H   0  0  0  0  0  0  0  0  0  0  0  0
    0.7143   -2.3029    0.0000 H   0  0  0  0  0  0  0  0  0  0  0  0
   -2.2230    2.3091    0.0000 H   0  0  0  0  0  0  0  0  0  0  0  0
   -3.0298    2.4807    0.0000 H   0  0  0  0  0  0  0  0  0  0  0  0
   -3.4154    0.6679    0.0000 H   0  0  0  0  0  0  0  0  0  0  0  0
   -3.7459    1.6856    0.0000 H   0  0  0  0  0  0  0  0  0  0  0  0
   -0.2937    1.6820    0.0000 H   0  0  0  0  0  0  0  0  0  0  0  0
   -1.6709    2.9221    0.0000 H   0  0  0  0  0  0  0  0  0  0  0  0
   -0.6243    2.6996    0.0000 H   0  0  0  0  0  0  0  0  0  0  0  0
   -3.1543   -0.1606    0.0000 H   0  0  0  0  0  0  0  0  0  0  0  0
    2.1432    0.1722    0.0000 H   0  0  0  0  0  0  0  0  0  0  0  0
    2.9317    2.4369    0.0000 H   0  0  0  0  0  0  0  0  0  0  0  0
    2.9317    3.2619    0.0000 H   0  0  0  0  0  0  0  0  0  0  0  0
    1.0785    3.2619    0.0000 H   0  0  0  0  0  0  0  0  0  0  0  0
    2.0051    3.7969    0.0000 H   0  0  0  0  0  0  0  0  0  0  0  0
    2.7196    0.4194    0.0000 H   0  0  0  0  0  0  0  0  0  0  0  0
    3.6462    2.0244    0.0000 H   0  0  0  0  0  0  0  0  0  0  0  0
    3.6463    0.9544    0.0000 H   0  0  0  0  0  0  0  0  0  0  0  0
   -0.3505    1.3669    0.0000 H   0  0  0  0  0  0  0  0  0  0  0  0
   -0.3504    2.4369    0.0000 H   0  0  0  0  0  0  0  0  0  0  0  0
    1.4162    3.2119    0.0000 H   0  0  0  0  0  0  0  0  0  0  0  0
  1  2  1  0  0  0  0
  2  3  2  0  0  0  0
  2  7  1  0  0  0  0
  3  4  1  0  0  0  0
  3 29  1  0  0  0  0
  4  5  2  0  0  0  0
  4  8  1  0  0  0  0
  5  6  1  0  0  0  0
  5 30  1  0  0  0  0
  6  7  2  0  0  0  0
  6 31  1  0  0  0  0
  7 32  1  0  0  0  0
  8  9  1  0  0  0  0
  8 33  1  0  0  0  0
  9 10  2  0  0  0  0
  9 20  1  0  0  0  0
 10 11  1  0  0  0  0
 10 12  1  0  0  0  0
 11 17  2  0  0  0  0
 12 13  1  0  0  0  0
 12 18  2  0  0  0  0
 13 14  1  0  0  0  0
 13 17  1  0  0  0  0
 14 15  1  0  0  0  0
 14 16  1  0  0  0  0
 14 34  1  0  0  0  0
 15 35  1  0  0  0  0
 15 36  1  0  0  0  0
 15 37  1  0  0  0  0
 16 38  1  0  0  0  0
 16 39  1  0  0  0  0
 16 40  1  0  0  0  0
 17 41  1  0  0  0  0
 18 19  1  0  0  0  0
 19 20  2  0  0  0  0
 19 21  1  0  0  0  0
 21 42  1  0  0  0  0
 22 21  1  0  0  0  0
 22 23  1  0  0  0  0
 22 26  1  0  0  0  0
 22 28  1  6  0  0  0
 23 24  1  0  0  0  0
 23 25  1  0  0  0  0
 23 43  1  0  0  0  0
 24 44  1  0  0  0  0
 24 45  1  0  0  0  0
 24 46  1  0  0  0  0
 25 47  1  0  0  0  0
 25 48  1  0  0  0  0
 25 49  1  0  0  0  0
 26 27  1  0  0  0  0
 26 50  1  0  0  0  0
 26 51  1  0  0  0  0
 27 52  1  0  0  0  0
M  END
>  <DRUGBANK_ID>
DB04751

>  <COMMON_NAME>
Purvalanol A

>  <CAS_NUMBER>
212844-53-6

>  <UNII>
YP483E75C4

>  <SYNONYMS>
2-(1R-Isopropyl-2-hydroxyethylamino)-6-(3-chloroanilino)-9-isopropylpurine; Purv

$$$$
