
 OpenBabel10282417072D

 47 48  0  0  0  0  0  0  0  0999 V2000
   -1.4534    0.7750    0.0000 C   0  0  0  0  0  0  0  0  0  0  0  0
   -1.5967   -0.0375    0.0000 N   0  3  0  0  0  0  0  0  0  0  0  0
   -1.4534   -0.8499    0.0000 C   0  0  0  0  0  0  0  0  0  0  0  0
   -2.0854   -1.3802    0.0000 C   0  0  0  0  0  0  0  0  0  0  0  0
   -2.8606   -1.0981    0.0000 O   0  0  0  0  0  0  0  0  0  0  0  0
   -3.0039   -0.2856    0.0000 C   0  0  0  0  0  0  0  0  0  0  0  0
   -2.3719    0.2447    0.0000 C   0  0  0  0  0  0  0  0  0  0  0  0
   -0.7717   -0.0375    0.0000 C   0  0  0  0  0  0  0  0  0  0  0  0
   -0.3592    0.6770    0.0000 C   0  0  0  0  0  0  0  0  0  0  0  0
    0.4658    0.6770    0.0000 C   0  0  3  0  0  0  0  0  0  0  0  0
    1.2908    0.6770    0.0000 C   0  0  0  0  0  0  0  0  0  0  0  0
    1.7033    1.3915    0.0000 C   0  0  0  0  0  0  0  0  0  0  0  0
    2.5283    1.3915    0.0000 C   0  0  0  0  0  0  0  0  0  0  0  0
    2.9408    0.6770    0.0000 C   0  0  0  0  0  0  0  0  0  0  0  0
    2.5283   -0.0375    0.0000 C   0  0  0  0  0  0  0  0  0  0  0  0
    1.7033   -0.0375    0.0000 C   0  0  0  0  0  0  0  0  0  0  0  0
    0.4658   -0.1480    0.0000 C   0  0  0  0  0  0  0  0  0  0  0  0
    1.1333   -0.6329    0.0000 C   0  0  0  0  0  0  0  0  0  0  0  0
    0.8783   -1.4175    0.0000 C   0  0  0  0  0  0  0  0  0  0  0  0
    0.0533   -1.4175    0.0000 C   0  0  0  0  0  0  0  0  0  0  0  0
   -0.2016   -0.6329    0.0000 S   0  0  0  0  0  0  0  0  0  0  0  0
    0.4658    1.5020    0.0000 O   0  0  0  0  0  0  0  0  0  0  0  0
    5.1801    0.0000    0.0000 I   0  5  0  0  0  0  0  0  0  0  0  0
   -0.4479    1.1409    0.0000 H   0  0  0  0  0  0  0  0  0  0  0  0
   -2.2730    1.4628    0.0000 H   0  0  0  0  0  0  0  0  0  0  0  0
   -1.2676    1.8287    0.0000 H   0  0  0  0  0  0  0  0  0  0  0  0
   -0.4479   -1.2158    0.0000 H   0  0  0  0  0  0  0  0  0  0  0  0
   -1.2676   -1.9036    0.0000 H   0  0  0  0  0  0  0  0  0  0  0  0
   -1.8996   -2.4339    0.0000 H   0  0  0  0  0  0  0  0  0  0  0  0
   -2.9050   -2.0680    0.0000 H   0  0  0  0  0  0  0  0  0  0  0  0
   -4.0094    0.0803    0.0000 H   0  0  0  0  0  0  0  0  0  0  0  0
   -3.1897    0.7681    0.0000 H   0  0  0  0  0  0  0  0  0  0  0  0
   -2.5577    1.2985    0.0000 H   0  0  0  0  0  0  0  0  0  0  0  0
   -1.5522    0.9324    0.0000 H   0  0  0  0  0  0  0  0  0  0  0  0
   -0.2367   -0.9641    0.0000 H   0  0  0  0  0  0  0  0  0  0  0  0
    0.2983   -0.0375    0.0000 H   0  0  0  0  0  0  0  0  0  0  0  0
   -0.8942    1.6036    0.0000 H   0  0  0  0  0  0  0  0  0  0  0  0
    0.1758    1.6036    0.0000 H   0  0  0  0  0  0  0  0  0  0  0  0
    1.1873    2.2852    0.0000 H   0  0  0  0  0  0  0  0  0  0  0  0
    3.0443    2.2852    0.0000 H   0  0  0  0  0  0  0  0  0  0  0  0
    3.9728    0.6770    0.0000 H   0  0  0  0  0  0  0  0  0  0  0  0
    3.0443   -0.9312    0.0000 H   0  0  0  0  0  0  0  0  0  0  0  0
    1.1873   -0.9312    0.0000 H   0  0  0  0  0  0  0  0  0  0  0  0
    2.1148   -0.3140    0.0000 H   0  0  0  0  0  0  0  0  0  0  0  0
    1.4849   -2.2524    0.0000 H   0  0  0  0  0  0  0  0  0  0  0  0
   -0.5533   -2.2524    0.0000 H   0  0  0  0  0  0  0  0  0  0  0  0
    1.3058    1.9870    0.0000 H   0  0  0  0  0  0  0  0  0  0  0  0
  1  2  1  0  0  0  0
  1 24  1  0  0  0  0
  1 25  1  0  0  0  0
  1 26  1  0  0  0  0
  2  3  1  0  0  0  0
  2  7  1  0  0  0  0
  2  8  1  0  0  0  0
  3  4  1  0  0  0  0
  3 27  1  0  0  0  0
  3 28  1  0  0  0  0
  4  5  1  0  0  0  0
  4 29  1  0  0  0  0
  4 30  1  0  0  0  0
  5  6  1  0  0  0  0
  6  7  1  0  0  0  0
  6 31  1  0  0  0  0
  6 32  1  0  0  0  0
  7 33  1  0  0  0  0
  7 34  1  0  0  0  0
  8  9  1  0  0  0  0
  8 35  1  0  0  0  0
  8 36  1  0  0  0  0
  9 10  1  0  0  0  0
  9 37  1  0  0  0  0
  9 38  1  0  0  0  0
 10 11  1  0  0  0  0
 10 17  1  0  0  0  0
 10 22  1  0  0  0  0
 11 12  2  0  0  0  0
 11 16  1  0  0  0  0
 12 13  1  0  0  0  0
 12 39  1  0  0  0  0
 13 14  2  0  0  0  0
 13 40  1  0  0  0  0
 14 15  1  0  0  0  0
 14 41  1  0  0  0  0
 15 16  2  0  0  0  0
 15 42  1  0  0  0  0
 16 43  1  0  0  0  0
 17 18  2  0  0  0  0
 17 21  1  0  0  0  0
 18 19  1  0  0  0  0
 18 44  1  0  0  0  0
 19 20  2  0  0  0  0
 19 45  1  0  0  0  0
 20 21  1  0  0  0  0
 20 46  1  0  0  0  0
 22 47  1  0  0  0  0
M  CHG  2   2   1  23  -1
M  END
>  <DRUGBANK_ID>
DB13666

>  <COMMON_NAME>
Tiemonium iodide

>  <CAS_NUMBER>
144-12-7

>  <UNII>
FZ2LZ7U304

>  <SYNONYMS>
Tiemonium iodide

$$$$
