
 OpenBabel10282417072D

324333  0  0  1  0  0  0  0  0999 V2000
    0.2661   -3.0821    0.0000 H   0  0  0  0  0  0  0  0  0  0  0  0
    0.0946   -2.2751    0.0000 C   0  0  1  0  0  0  0  0  0  0  0  0
   -0.6199   -2.6876    0.0000 C   0  0  0  0  0  0  0  0  0  0  0  0
   -1.2330   -2.1356    0.0000 S   0  0  0  0  0  0  0  0  0  0  0  0
   -0.8974   -1.3819    0.0000 C   0  0  1  0  0  0  0  0  0  0  0  0
   -1.3099   -0.6674    0.0000 C   0  0  0  0  0  0  0  0  0  0  0  0
   -2.1349   -0.6674    0.0000 C   0  0  0  0  0  0  0  0  0  0  0  0
   -2.5474    0.0470    0.0000 C   0  0  0  0  0  0  0  0  0  0  0  0
   -3.3724    0.0470    0.0000 C   0  0  0  0  0  0  0  0  0  0  0  0
   -3.7849    0.7615    0.0000 C   0  0  0  0  0  0  0  0  0  0  0  0
   -3.0312    1.0971    0.0000 O   0  0  0  0  0  0  0  0  0  0  0  0
   -4.6099    0.7615    0.0000 N   0  0  0  0  0  0  0  0  0  0  0  0
   -5.0224    1.4760    0.0000 C   0  0  0  0  0  0  0  0  0  0  0  0
   -5.8474    1.4760    0.0000 C   0  0  0  0  0  0  0  0  0  0  0  0
   -6.2599    2.1904    0.0000 C   0  0  0  0  0  0  0  0  0  0  0  0
   -7.0849    2.1904    0.0000 C   0  0  0  0  0  0  0  0  0  0  0  0
   -7.4974    2.9049    0.0000 C   0  0  2  0  0  0  0  0  0  0  0  0
   -8.3224    2.9049    0.0000 N   0  0  0  0  0  0  0  0  0  0  0  0
   -8.7349    3.6194    0.0000 C   0  0  0  0  0  0  0  0  0  0  0  0
   -8.3224    4.3339    0.0000 O   0  0  0  0  0  0  0  0  0  0  0  0
   -9.5599    3.6194    0.0000 C   0  0  0  0  0  0  0  0  0  0  0  0
   -9.9724    4.3339    0.0000 C   0  0  0  0  0  0  0  0  0  0  0  0
  -10.7974    4.3339    0.0000 C   0  0  0  0  0  0  0  0  0  0  0  0
  -11.2099    5.0483    0.0000 N   0  0  0  0  0  0  0  0  0  0  0  0
  -12.0349    5.0483    0.0000 C   0  0  0  0  0  0  0  0  0  0  0  0
  -12.4474    4.3339    0.0000 O   0  0  0  0  0  0  0  0  0  0  0  0
  -12.4474    5.7628    0.0000 C   0  0  0  0  0  0  0  0  0  0  0  0
  -13.2724    5.7628    0.0000 C   0  0  2  0  0  0  0  0  0  0  0  0
  -13.6849    6.4773    0.0000 N   0  0  0  0  0  0  0  0  0  0  0  0
  -13.2724    7.1917    0.0000 S   0  0  0  0  0  0  0  0  0  0  0  0
  -12.5580    6.7792    0.0000 O   0  0  0  0  0  0  0  0  0  0  0  0
  -13.9869    7.6042    0.0000 O   0  0  0  0  0  0  0  0  0  0  0  0
  -12.8599    7.9062    0.0000 C   0  0  0  0  0  0  0  0  0  0  0  0
  -12.0349    7.9062    0.0000 C   0  0  0  0  0  0  0  0  0  0  0  0
  -11.6224    7.1917    0.0000 C   0  0  0  0  0  0  0  0  0  0  0  0
  -11.6224    8.6207    0.0000 C   0  0  0  0  0  0  0  0  0  0  0  0
  -12.0349    9.3352    0.0000 C   0  0  0  0  0  0  0  0  0  0  0  0
  -11.6224   10.0496    0.0000 O   0  0  0  0  0  0  0  0  0  0  0  0
  -10.7974   10.0496    0.0000 C   0  0  0  0  0  0  0  0  0  0  0  0
  -12.8599    9.3352    0.0000 C   0  0  0  0  0  0  0  0  0  0  0  0
  -13.2724   10.0496    0.0000 C   0  0  0  0  0  0  0  0  0  0  0  0
  -13.2724    8.6207    0.0000 C   0  0  0  0  0  0  0  0  0  0  0  0
  -14.0974    8.6207    0.0000 C   0  0  0  0  0  0  0  0  0  0  0  0
  -13.6849    5.0483    0.0000 C   0  0  0  0  0  0  0  0  0  0  0  0
  -14.5099    5.0483    0.0000 O   0  0  0  0  0  0  0  0  0  0  0  0
  -13.2724    4.3339    0.0000 N   0  0  0  0  0  0  0  0  0  0  0  0
  -13.6849    3.6194    0.0000 C   0  0  2  0  0  0  0  0  0  0  0  0
  -13.2724    2.9049    0.0000 C   0  0  0  0  0  0  0  0  0  0  0  0
  -12.4474    2.9049    0.0000 C   0  0  0  0  0  0  0  0  0  0  0  0
  -12.0349    3.6194    0.0000 C   0  0  0  0  0  0  0  0  0  0  0  0
  -11.2099    3.6194    0.0000 C   0  0  0  0  0  0  0  0  0  0  0  0
  -10.7974    2.9049    0.0000 C   0  0  0  0  0  0  0  0  0  0  0  0
  -11.2099    2.1904    0.0000 C   0  0  0  0  0  0  0  0  0  0  0  0
  -12.0349    2.1904    0.0000 C   0  0  0  0  0  0  0  0  0  0  0  0
   -9.9724    2.9049    0.0000 C   0  0  0  0  0  0  0  0  0  0  0  0
   -9.5599    2.1904    0.0000 N   0  0  0  0  0  0  0  0  0  0  0  0
   -9.2187    3.2405    0.0000 N   0  0  0  0  0  0  0  0  0  0  0  0
  -14.5099    3.6194    0.0000 C   0  0  0  0  0  0  0  0  0  0  0  0
  -14.9224    4.3339    0.0000 O   0  0  0  0  0  0  0  0  0  0  0  0
  -14.9224    2.9049    0.0000 N   0  0  0  0  0  0  0  0  0  0  0  0
  -14.5099    2.1904    0.0000 C   0  0  0  0  0  0  0  0  0  0  0  0
  -14.9224    1.4760    0.0000 C   0  0  0  0  0  0  0  0  0  0  0  0
  -15.7474    1.4760    0.0000 C   0  0  0  0  0  0  0  0  0  0  0  0
  -16.1599    2.1904    0.0000 C   0  0  0  0  0  0  0  0  0  0  0  0
  -15.7474    2.9049    0.0000 C   0  0  0  0  0  0  0  0  0  0  0  0
   -7.0849    3.6194    0.0000 C   0  0  0  0  0  0  0  0  0  0  0  0
   -7.4974    4.3339    0.0000 O   0  0  0  0  0  0  0  0  0  0  0  0
   -6.2599    3.6194    0.0000 N   0  0  0  0  0  0  0  0  0  0  0  0
   -5.8474    2.9049    0.0000 C   0  0  0  0  0  0  0  0  0  0  0  0
   -5.0224    2.9049    0.0000 C   0  0  0  0  0  0  0  0  0  0  0  0
   -4.6099    2.1904    0.0000 O   0  0  0  0  0  0  0  0  0  0  0  0
   -3.7849    2.1904    0.0000 C   0  0  0  0  0  0  0  0  0  0  0  0
   -3.3724    1.4760    0.0000 C   0  0  0  0  0  0  0  0  0  0  0  0
   -2.5474    1.4760    0.0000 O   0  0  0  0  0  0  0  0  0  0  0  0
   -2.1349    0.7615    0.0000 C   0  0  0  0  0  0  0  0  0  0  0  0
   -1.3099    0.7615    0.0000 C   0  0  0  0  0  0  0  0  0  0  0  0
   -0.8974    0.0470    0.0000 O   0  0  0  0  0  0  0  0  0  0  0  0
   -0.0724    0.0470    0.0000 C   0  0  0  0  0  0  0  0  0  0  0  0
    0.3401   -0.6674    0.0000 C   0  0  0  0  0  0  0  0  0  0  0  0
    1.1651   -0.6674    0.0000 O   0  0  0  0  0  0  0  0  0  0  0  0
    1.5776    0.0470    0.0000 C   0  0  2  0  0  0  0  0  0  0  0  0
    2.4026    0.0470    0.0000 C   0  0  1  0  0  0  0  0  0  0  0  0
    2.8151   -0.6674    0.0000 C   0  0  0  0  0  0  0  0  0  0  0  0
    3.6401   -0.6674    0.0000 O   0  0  0  0  0  0  0  0  0  0  0  0
    4.0526   -1.3819    0.0000 S   0  0  0  0  0  0  0  0  0  0  0  0
    3.3381   -1.7944    0.0000 O   0  0  0  0  0  0  0  0  0  0  0  0
    4.7670   -0.9694    0.0000 O   0  0  0  0  0  0  0  0  0  0  0  0
    4.4651   -2.0964    0.0000 O   0  0  0  0  0  0  0  0  0  0  0  0
    2.8151    0.7615    0.0000 O   0  0  0  0  0  0  0  0  0  0  0  0
    2.4026    1.4760    0.0000 C   0  0  2  0  0  0  0  0  0  0  0  0
    2.8151    2.1904    0.0000 O   0  0  0  0  0  0  0  0  0  0  0  0
    3.6401    2.1904    0.0000 C   0  0  1  0  0  0  0  0  0  0  0  0
    3.2276    1.4760    0.0000 H   0  0  0  0  0  0  0  0  0  0  0  0
    4.0526    2.9049    0.0000 C   0  0  2  0  0  0  0  0  0  0  0  0
    3.6401    3.6194    0.0000 O   0  0  0  0  0  0  0  0  0  0  0  0
    4.0526    4.3339    0.0000 C   0  0  0  0  0  0  0  0  0  0  0  0
    4.8776    2.9049    0.0000 C   0  0  1  0  0  0  0  0  0  0  0  0
    5.2901    3.6194    0.0000 O   0  0  0  0  0  0  0  0  0  0  0  0
    6.1151    3.6194    0.0000 C   0  0  0  0  0  0  0  0  0  0  0  0
    5.2901    2.1904    0.0000 C   0  0  2  0  0  0  0  0  0  0  0  0
    6.1151    2.1904    0.0000 O   0  0  0  0  0  0  0  0  0  0  0  0
    6.5276    1.4760    0.0000 C   0  0  2  0  0  0  0  0  0  0  0  0
    5.7026    1.4760    0.0000 H   0  0  0  0  0  0  0  0  0  0  0  0
    7.3526    1.4760    0.0000 C   0  0  1  0  0  0  0  0  0  0  0  0
    7.7651    2.1904    0.0000 C   0  0  0  0  0  0  0  0  0  0  0  0
    8.5901    2.1904    0.0000 O   0  0  0  0  0  0  0  0  0  0  0  0
    9.0026    2.9049    0.0000 S   0  0  0  0  0  0  0  0  0  0  0  0
    9.7170    2.4924    0.0000 O   0  0  0  0  0  0  0  0  0  0  0  0
    8.2881    3.3174    0.0000 O   0  0  0  0  0  0  0  0  0  0  0  0
    9.4151    3.6194    0.0000 O   0  0  0  0  0  0  0  0  0  0  0  0
    7.7651    0.7615    0.0000 O   0  0  0  0  0  0  0  0  0  0  0  0
    7.3526    0.0470    0.0000 C   0  0  2  0  0  0  0  0  0  0  0  0
    7.7651   -0.6674    0.0000 O   0  0  0  0  0  0  0  0  0  0  0  0
    8.5901   -0.6674    0.0000 C   0  0  1  0  0  0  0  0  0  0  0  0
    8.1776   -1.3819    0.0000 H   0  0  0  0  0  0  0  0  0  0  0  0
    9.0026    0.0470    0.0000 C   0  0  2  0  0  0  0  0  0  0  0  0
    8.5901    0.7615    0.0000 O   0  0  0  0  0  0  0  0  0  0  0  0
    9.0026    1.4760    0.0000 C   0  0  0  0  0  0  0  0  0  0  0  0
    9.8276    0.0470    0.0000 C   0  0  1  0  0  0  0  0  0  0  0  0
   10.2401    0.7615    0.0000 O   0  0  0  0  0  0  0  0  0  0  0  0
   11.0651    0.7615    0.0000 C   0  0  0  0  0  0  0  0  0  0  0  0
   10.2401   -0.6674    0.0000 C   0  0  2  0  0  0  0  0  0  0  0  0
   11.0651   -0.6674    0.0000 O   0  0  0  0  0  0  0  0  0  0  0  0
   11.4776   -1.3819    0.0000 C   0  0  2  0  0  0  0  0  0  0  0  0
   10.6526   -1.3819    0.0000 H   0  0  0  0  0  0  0  0  0  0  0  0
   12.3026   -1.3819    0.0000 C   0  0  1  0  0  0  0  0  0  0  0  0
   12.7151   -0.6674    0.0000 C   0  0  0  0  0  0  0  0  0  0  0  0
   13.5401   -0.6674    0.0000 O   0  0  0  0  0  0  0  0  0  0  0  0
   13.9526    0.0470    0.0000 S   0  0  0  0  0  0  0  0  0  0  0  0
   14.3651    0.7615    0.0000 O   0  0  0  0  0  0  0  0  0  0  0  0
   14.6670   -0.3655    0.0000 O   0  0  0  0  0  0  0  0  0  0  0  0
   13.2381    0.4595    0.0000 O   0  0  0  0  0  0  0  0  0  0  0  0
   12.7151   -2.0964    0.0000 O   0  0  0  0  0  0  0  0  0  0  0  0
   12.3026   -2.8109    0.0000 C   0  0  2  0  0  0  0  0  0  0  0  0
   12.7151   -3.5253    0.0000 O   0  0  0  0  0  0  0  0  0  0  0  0
   13.5401   -3.5253    0.0000 C   0  0  0  0  0  0  0  0  0  0  0  0
   11.4776   -2.8109    0.0000 C   0  0  2  0  0  0  0  0  0  0  0  0
   11.0651   -3.5253    0.0000 O   0  0  0  0  0  0  0  0  0  0  0  0
   11.4776   -4.2398    0.0000 S   0  0  0  0  0  0  0  0  0  0  0  0
   11.8901   -4.9543    0.0000 O   0  0  0  0  0  0  0  0  0  0  0  0
   10.7631   -4.6523    0.0000 O   0  0  0  0  0  0  0  0  0  0  0  0
   12.1920   -3.8273    0.0000 O   0  0  0  0  0  0  0  0  0  0  0  0
   11.0651   -2.0964    0.0000 C   0  0  1  0  0  0  0  0  0  0  0  0
   10.2401   -2.0964    0.0000 O   0  0  0  0  0  0  0  0  0  0  0  0
    9.8276   -2.8109    0.0000 C   0  0  0  0  0  0  0  0  0  0  0  0
    9.8276   -1.3819    0.0000 O   0  0  0  0  0  0  0  0  0  0  0  0
    9.0026   -1.3819    0.0000 C   0  0  1  0  0  0  0  0  0  0  0  0
    8.5901   -2.0964    0.0000 C   0  0  0  0  0  0  0  0  0  0  0  0
    7.7651   -2.0964    0.0000 O   0  0  0  0  0  0  0  0  0  0  0  0
    9.0026   -2.8109    0.0000 O   0  0  0  0  0  0  0  0  0  0  0  0
    6.5276    0.0470    0.0000 C   0  0  2  0  0  0  0  0  0  0  0  0
    6.1151   -0.6674    0.0000 O   0  0  0  0  0  0  0  0  0  0  0  0
    6.5276   -1.3819    0.0000 S   0  0  0  0  0  0  0  0  0  0  0  0
    5.8131   -1.7944    0.0000 O   0  0  0  0  0  0  0  0  0  0  0  0
    7.2420   -0.9694    0.0000 O   0  0  0  0  0  0  0  0  0  0  0  0
    6.9401   -2.0964    0.0000 O   0  0  0  0  0  0  0  0  0  0  0  0
    6.1151    0.7615    0.0000 C   0  0  1  0  0  0  0  0  0  0  0  0
    5.2901    0.7615    0.0000 O   0  0  0  0  0  0  0  0  0  0  0  0
    4.8776    0.0470    0.0000 S   0  0  0  0  0  0  0  0  0  0  0  0
    5.5920   -0.3655    0.0000 O   0  0  0  0  0  0  0  0  0  0  0  0
    4.4651   -0.6674    0.0000 O   0  0  0  0  0  0  0  0  0  0  0  0
    4.1631    0.4595    0.0000 O   0  0  0  0  0  0  0  0  0  0  0  0
    4.8776    1.4760    0.0000 O   0  0  0  0  0  0  0  0  0  0  0  0
    4.0526    1.4760    0.0000 C   0  0  2  0  0  0  0  0  0  0  0  0
    3.6401    0.7615    0.0000 C   0  0  0  0  0  0  0  0  0  0  0  0
    2.9726    0.2766    0.0000 O   0  0  0  0  0  0  0  0  0  0  0  0
    4.0526    0.0470    0.0000 O   0  0  0  0  0  0  0  0  0  0  0  0
    1.5776    1.4760    0.0000 C   0  0  2  0  0  0  0  0  0  0  0  0
    1.1651    2.1904    0.0000 O   0  0  0  0  0  0  0  0  0  0  0  0
    1.5776    2.9049    0.0000 C   0  0  0  0  0  0  0  0  0  0  0  0
    1.1651    0.7615    0.0000 C   0  0  1  0  0  0  0  0  0  0  0  0
    0.3401    0.7615    0.0000 O   0  0  0  0  0  0  0  0  0  0  0  0
   -0.0724    1.4760    0.0000 C   0  0  0  0  0  0  0  0  0  0  0  0
   -0.0769   -1.4681    0.0000 C   0  0  1  0  0  0  0  0  0  0  0  0
    0.6767   -1.8037    0.0000 H   0  0  0  0  0  0  0  0  0  0  0  0
    0.6375   -1.0556    0.0000 N   0  0  0  0  0  0  0  0  0  0  0  0
    1.2506   -1.6077    0.0000 C   0  0  0  0  0  0  0  0  0  0  0  0
    2.0576   -1.4362    0.0000 O   0  0  0  0  0  0  0  0  0  0  0  0
    0.9151   -2.3614    0.0000 N   0  0  0  0  0  0  0  0  0  0  0  0
   -0.7317   -3.7517    0.0000 H   0  0  0  0  0  0  0  0  0  0  0  0
   -1.6188   -3.0711    0.0000 H   0  0  0  0  0  0  0  0  0  0  0  0
   -1.9659   -1.4379    0.0000 H   0  0  0  0  0  0  0  0  0  0  0  0
   -0.7749    0.2592    0.0000 H   0  0  0  0  0  0  0  0  0  0  0  0
   -1.8449    0.2592    0.0000 H   0  0  0  0  0  0  0  0  0  0  0  0
   -2.6699   -1.5941    0.0000 H   0  0  0  0  0  0  0  0  0  0  0  0
   -3.2049   -0.6674    0.0000 H   0  0  0  0  0  0  0  0  0  0  0  0
   -2.0124    0.9737    0.0000 H   0  0  0  0  0  0  0  0  0  0  0  0
   -3.0824    0.9736    0.0000 H   0  0  0  0  0  0  0  0  0  0  0  0
   -3.9074   -0.8796    0.0000 H   0  0  0  0  0  0  0  0  0  0  0  0
   -4.4424    0.0470    0.0000 H   0  0  0  0  0  0  0  0  0  0  0  0
   -5.1022   -0.0911    0.0000 H   0  0  0  0  0  0  0  0  0  0  0  0
   -4.4874    2.4026    0.0000 H   0  0  0  0  0  0  0  0  0  0  0  0
   -5.5574    2.4026    0.0000 H   0  0  0  0  0  0  0  0  0  0  0  0
   -6.3824    0.5493    0.0000 H   0  0  0  0  0  0  0  0  0  0  0  0
   -6.9174    1.4760    0.0000 H   0  0  0  0  0  0  0  0  0  0  0  0
   -5.7249    3.1171    0.0000 H   0  0  0  0  0  0  0  0  0  0  0  0
   -6.7949    3.1170    0.0000 H   0  0  0  0  0  0  0  0  0  0  0  0
   -7.6199    1.2638    0.0000 H   0  0  0  0  0  0  0  0  0  0  0  0
   -8.1549    2.1904    0.0000 H   0  0  0  0  0  0  0  0  0  0  0  0
   -8.0324    1.9783    0.0000 H   0  0  0  0  0  0  0  0  0  0  0  0
   -8.8147    2.0523    0.0000 H   0  0  0  0  0  0  0  0  0  0  0  0
  -10.0949    2.6928    0.0000 H   0  0  0  0  0  0  0  0  0  0  0  0
  -10.6299    3.6194    0.0000 H   0  0  0  0  0  0  0  0  0  0  0  0
   -9.4374    5.2605    0.0000 H   0  0  0  0  0  0  0  0  0  0  0  0
  -10.5074    5.2605    0.0000 H   0  0  0  0  0  0  0  0  0  0  0  0
  -11.3324    3.4072    0.0000 H   0  0  0  0  0  0  0  0  0  0  0  0
  -11.8674    4.3339    0.0000 H   0  0  0  0  0  0  0  0  0  0  0  0
  -10.7177    5.9009    0.0000 H   0  0  0  0  0  0  0  0  0  0  0  0
  -11.9124    6.6894    0.0000 H   0  0  0  0  0  0  0  0  0  0  0  0
  -12.9824    6.6894    0.0000 H   0  0  0  0  0  0  0  0  0  0  0  0
  -12.7374    6.6894    0.0000 H   0  0  0  0  0  0  0  0  0  0  0  0
  -14.7049    6.4773    0.0000 H   0  0  0  0  0  0  0  0  0  0  0  0
  -12.1574    6.2651    0.0000 H   0  0  0  0  0  0  0  0  0  0  0  0
  -10.5524    7.1917    0.0000 H   0  0  0  0  0  0  0  0  0  0  0  0
  -11.0874    6.2650    0.0000 H   0  0  0  0  0  0  0  0  0  0  0  0
  -10.5904    8.6207    0.0000 H   0  0  0  0  0  0  0  0  0  0  0  0
  -10.2624    9.1230    0.0000 H   0  0  0  0  0  0  0  0  0  0  0  0
  -10.2624   10.9762    0.0000 H   0  0  0  0  0  0  0  0  0  0  0  0
   -9.7274   10.0496    0.0000 H   0  0  0  0  0  0  0  0  0  0  0  0
  -12.7374   10.9763    0.0000 H   0  0  0  0  0  0  0  0  0  0  0  0
  -14.3424   10.0496    0.0000 H   0  0  0  0  0  0  0  0  0  0  0  0
  -13.8074   10.9762    0.0000 H   0  0  0  0  0  0  0  0  0  0  0  0
  -14.6324    9.5473    0.0000 H   0  0  0  0  0  0  0  0  0  0  0  0
  -14.6324    7.6941    0.0000 H   0  0  0  0  0  0  0  0  0  0  0  0
  -15.1674    8.6207    0.0000 H   0  0  0  0  0  0  0  0  0  0  0  0
  -12.2879    4.3339    0.0000 H   0  0  0  0  0  0  0  0  0  0  0  0
  -12.6149    3.6194    0.0000 H   0  0  0  0  0  0  0  0  0  0  0  0
  -13.8074    1.9783    0.0000 H   0  0  0  0  0  0  0  0  0  0  0  0
  -12.7374    1.9783    0.0000 H   0  0  0  0  0  0  0  0  0  0  0  0
  -12.5509    4.5131    0.0000 H   0  0  0  0  0  0  0  0  0  0  0  0
  -10.6939    4.5131    0.0000 H   0  0  0  0  0  0  0  0  0  0  0  0
  -10.6939    1.2967    0.0000 H   0  0  0  0  0  0  0  0  0  0  0  0
  -12.5509    1.2967    0.0000 H   0  0  0  0  0  0  0  0  0  0  0  0
  -10.0522    1.3378    0.0000 H   0  0  0  0  0  0  0  0  0  0  0  0
   -8.5754    2.1904    0.0000 H   0  0  0  0  0  0  0  0  0  0  0  0
   -8.4222    2.6619    0.0000 H   0  0  0  0  0  0  0  0  0  0  0  0
  -13.4399    2.1904    0.0000 H   0  0  0  0  0  0  0  0  0  0  0  0
  -13.9749    1.2637    0.0000 H   0  0  0  0  0  0  0  0  0  0  0  0
  -14.3874    0.5493    0.0000 H   0  0  0  0  0  0  0  0  0  0  0  0
  -15.4574    0.5494    0.0000 H   0  0  0  0  0  0  0  0  0  0  0  0
  -16.2824    0.5493    0.0000 H   0  0  0  0  0  0  0  0  0  0  0  0
  -16.8174    1.4760    0.0000 H   0  0  0  0  0  0  0  0  0  0  0  0
  -17.2299    2.1904    0.0000 H   0  0  0  0  0  0  0  0  0  0  0  0
  -16.6949    3.1170    0.0000 H   0  0  0  0  0  0  0  0  0  0  0  0
  -16.2824    3.8315    0.0000 H   0  0  0  0  0  0  0  0  0  0  0  0
  -15.2124    3.8315    0.0000 H   0  0  0  0  0  0  0  0  0  0  0  0
   -5.7676    4.4720    0.0000 H   0  0  0  0  0  0  0  0  0  0  0  0
   -6.3824    1.9783    0.0000 H   0  0  0  0  0  0  0  0  0  0  0  0
   -5.3124    1.9783    0.0000 H   0  0  0  0  0  0  0  0  0  0  0  0
   -4.4874    3.8315    0.0000 H   0  0  0  0  0  0  0  0  0  0  0  0
   -3.9524    2.9049    0.0000 H   0  0  0  0  0  0  0  0  0  0  0  0
   -3.2499    3.1171    0.0000 H   0  0  0  0  0  0  0  0  0  0  0  0
   -2.7149    2.1904    0.0000 H   0  0  0  0  0  0  0  0  0  0  0  0
   -3.9074    0.5493    0.0000 H   0  0  0  0  0  0  0  0  0  0  0  0
   -2.8374    0.5494    0.0000 H   0  0  0  0  0  0  0  0  0  0  0  0
   -2.6699   -0.1651    0.0000 H   0  0  0  0  0  0  0  0  0  0  0  0
   -1.5999   -0.1651    0.0000 H   0  0  0  0  0  0  0  0  0  0  0  0
   -0.7749    1.6881    0.0000 H   0  0  0  0  0  0  0  0  0  0  0  0
   -0.2399    0.7615    0.0000 H   0  0  0  0  0  0  0  0  0  0  0  0
    0.4626    0.9737    0.0000 H   0  0  0  0  0  0  0  0  0  0  0  0
    0.9976    0.0470    0.0000 H   0  0  0  0  0  0  0  0  0  0  0  0
   -0.1949   -1.5941    0.0000 H   0  0  0  0  0  0  0  0  0  0  0  0
    0.8751   -1.5940    0.0000 H   0  0  0  0  0  0  0  0  0  0  0  0
    2.1126   -0.8797    0.0000 H   0  0  0  0  0  0  0  0  0  0  0  0
    1.8676   -0.8797    0.0000 H   0  0  0  0  0  0  0  0  0  0  0  0
    2.2801   -1.5941    0.0000 H   0  0  0  0  0  0  0  0  0  0  0  0
    3.3501   -1.5940    0.0000 H   0  0  0  0  0  0  0  0  0  0  0  0
    2.4981   -1.3094    0.0000 H   0  0  0  0  0  0  0  0  0  0  0  0
    3.4726    1.4760    0.0000 H   0  0  0  0  0  0  0  0  0  0  0  0
    2.9826    2.9049    0.0000 H   0  0  0  0  0  0  0  0  0  0  0  0
    5.1226    4.3339    0.0000 H   0  0  0  0  0  0  0  0  0  0  0  0
    3.5176    5.2605    0.0000 H   0  0  0  0  0  0  0  0  0  0  0  0
    4.5876    5.2606    0.0000 H   0  0  0  0  0  0  0  0  0  0  0  0
    4.3426    3.8315    0.0000 H   0  0  0  0  0  0  0  0  0  0  0  0
    6.6501    2.6928    0.0000 H   0  0  0  0  0  0  0  0  0  0  0  0
    6.6501    4.5460    0.0000 H   0  0  0  0  0  0  0  0  0  0  0  0
    7.1851    3.6194    0.0000 H   0  0  0  0  0  0  0  0  0  0  0  0
    5.8251    3.1170    0.0000 H   0  0  0  0  0  0  0  0  0  0  0  0
    6.8176    2.4027    0.0000 H   0  0  0  0  0  0  0  0  0  0  0  0
    7.2301    3.1171    0.0000 H   0  0  0  0  0  0  0  0  0  0  0  0
    8.3001    3.1170    0.0000 H   0  0  0  0  0  0  0  0  0  0  0  0
    9.7170    1.5224    0.0000 H   0  0  0  0  0  0  0  0  0  0  0  0
    8.4226    0.0470    0.0000 H   0  0  0  0  0  0  0  0  0  0  0  0
    7.9326    0.0470    0.0000 H   0  0  0  0  0  0  0  0  0  0  0  0
   10.0726    1.4760    0.0000 H   0  0  0  0  0  0  0  0  0  0  0  0
    8.4676    2.4026    0.0000 H   0  0  0  0  0  0  0  0  0  0  0  0
    9.5376    2.4027    0.0000 H   0  0  0  0  0  0  0  0  0  0  0  0
    9.2926    0.9736    0.0000 H   0  0  0  0  0  0  0  0  0  0  0  0
   11.6001   -0.1651    0.0000 H   0  0  0  0  0  0  0  0  0  0  0  0
   11.6001    1.6881    0.0000 H   0  0  0  0  0  0  0  0  0  0  0  0
   12.1351    0.7615    0.0000 H   0  0  0  0  0  0  0  0  0  0  0  0
   10.7751    0.2593    0.0000 H   0  0  0  0  0  0  0  0  0  0  0  0
   11.7676   -0.4553    0.0000 H   0  0  0  0  0  0  0  0  0  0  0  0
   12.1801    0.2592    0.0000 H   0  0  0  0  0  0  0  0  0  0  0  0
   13.2501    0.2592    0.0000 H   0  0  0  0  0  0  0  0  0  0  0  0
   15.3351    0.7615    0.0000 H   0  0  0  0  0  0  0  0  0  0  0  0
   13.3726   -2.8109    0.0000 H   0  0  0  0  0  0  0  0  0  0  0  0
   14.0751   -4.4519    0.0000 H   0  0  0  0  0  0  0  0  0  0  0  0
   14.0751   -2.5987    0.0000 H   0  0  0  0  0  0  0  0  0  0  0  0
   14.6101   -3.5253    0.0000 H   0  0  0  0  0  0  0  0  0  0  0  0
   12.0126   -3.7376    0.0000 H   0  0  0  0  0  0  0  0  0  0  0  0
   11.4051   -5.7943    0.0000 H   0  0  0  0  0  0  0  0  0  0  0  0
   10.5301   -3.0230    0.0000 H   0  0  0  0  0  0  0  0  0  0  0  0
    8.7576   -2.8109    0.0000 H   0  0  0  0  0  0  0  0  0  0  0  0
   10.3626   -3.7375    0.0000 H   0  0  0  0  0  0  0  0  0  0  0  0
    9.2926   -3.7376    0.0000 H   0  0  0  0  0  0  0  0  0  0  0  0
    9.5376   -2.3085    0.0000 H   0  0  0  0  0  0  0  0  0  0  0  0
    7.2966   -1.2849    0.0000 H   0  0  0  0  0  0  0  0  0  0  0  0
    7.0626   -0.8797    0.0000 H   0  0  0  0  0  0  0  0  0  0  0  0
    4.9731   -1.3094    0.0000 H   0  0  0  0  0  0  0  0  0  0  0  0
    5.5801   -0.1651    0.0000 H   0  0  0  0  0  0  0  0  0  0  0  0
    5.5920   -1.3355    0.0000 H   0  0  0  0  0  0  0  0  0  0  0  0
    4.5876    0.5494    0.0000 H   0  0  0  0  0  0  0  0  0  0  0  0
    2.1166    0.6578    0.0000 H   0  0  0  0  0  0  0  0  0  0  0  0
    2.1126    2.4027    0.0000 H   0  0  0  0  0  0  0  0  0  0  0  0
    2.6476    2.9049    0.0000 H   0  0  0  0  0  0  0  0  0  0  0  0
    1.0426    3.8315    0.0000 H   0  0  0  0  0  0  0  0  0  0  0  0
    2.1126    3.8316    0.0000 H   0  0  0  0  0  0  0  0  0  0  0  0
    0.6301    1.6881    0.0000 H   0  0  0  0  0  0  0  0  0  0  0  0
    0.4626    2.4026    0.0000 H   0  0  0  0  0  0  0  0  0  0  0  0
   -1.1424    1.4760    0.0000 H   0  0  0  0  0  0  0  0  0  0  0  0
   -0.6074    2.4027    0.0000 H   0  0  0  0  0  0  0  0  0  0  0  0
    0.7404   -0.0765    0.0000 H   0  0  0  0  0  0  0  0  0  0  0  0
    1.4074   -3.2140    0.0000 H   0  0  0  0  0  0  0  0  0  0  0  0
  2  1  1  6  0  0  0
  2  3  1  0  0  0  0
  2179  1  0  0  0  0
  3  4  1  0  0  0  0
  3180  1  0  0  0  0
  3181  1  0  0  0  0
  5  4  1  0  0  0  0
  5  6  1  0  0  0  0
  5182  1  6  0  0  0
  6  7  1  0  0  0  0
  6183  1  0  0  0  0
  6184  1  0  0  0  0
  7  8  1  0  0  0  0
  7185  1  0  0  0  0
  7186  1  0  0  0  0
  8  9  1  0  0  0  0
  8187  1  0  0  0  0
  8188  1  0  0  0  0
  9 10  1  0  0  0  0
  9189  1  0  0  0  0
  9190  1  0  0  0  0
 10 11  2  0  0  0  0
 10 12  1  0  0  0  0
 12 13  1  0  0  0  0
 12191  1  0  0  0  0
 13 14  1  0  0  0  0
 13192  1  0  0  0  0
 13193  1  0  0  0  0
 14 15  1  0  0  0  0
 14194  1  0  0  0  0
 14195  1  0  0  0  0
 15 16  1  0  0  0  0
 15196  1  0  0  0  0
 15197  1  0  0  0  0
 16198  1  0  0  0  0
 16199  1  0  0  0  0
 17 16  1  0  0  0  0
 17 18  1  0  0  0  0
 17 66  1  0  0  0  0
 17200  1  1  0  0  0
 18 19  1  0  0  0  0
 18201  1  0  0  0  0
 19 20  2  0  0  0  0
 19 21  1  0  0  0  0
 21 22  1  0  0  0  0
 21202  1  0  0  0  0
 21203  1  0  0  0  0
 22 23  1  0  0  0  0
 22204  1  0  0  0  0
 22205  1  0  0  0  0
 23 24  1  0  0  0  0
 23206  1  0  0  0  0
 23207  1  0  0  0  0
 24 25  1  0  0  0  0
 24208  1  0  0  0  0
 25 26  2  0  0  0  0
 25 27  1  0  0  0  0
 27209  1  0  0  0  0
 27210  1  0  0  0  0
 28 27  1  0  0  0  0
 28 29  1  0  0  0  0
 28 44  1  0  0  0  0
 28211  1  6  0  0  0
 29 30  1  0  0  0  0
 29212  1  0  0  0  0
 30 31  2  0  0  0  0
 30 32  2  0  0  0  0
 30 33  1  0  0  0  0
 33 34  2  0  0  0  0
 33 42  1  0  0  0  0
 34 35  1  0  0  0  0
 34 36  1  0  0  0  0
 35213  1  0  0  0  0
 35214  1  0  0  0  0
 35215  1  0  0  0  0
 36 37  2  0  0  0  0
 36216  1  0  0  0  0
 37 38  1  0  0  0  0
 37 40  1  0  0  0  0
 38 39  1  0  0  0  0
 39217  1  0  0  0  0
 39218  1  0  0  0  0
 39219  1  0  0  0  0
 40 41  1  0  0  0  0
 40 42  2  0  0  0  0
 41220  1  0  0  0  0
 41221  1  0  0  0  0
 41222  1  0  0  0  0
 42 43  1  0  0  0  0
 43223  1  0  0  0  0
 43224  1  0  0  0  0
 43225  1  0  0  0  0
 44 45  2  0  0  0  0
 44 46  1  0  0  0  0
 46226  1  0  0  0  0
 47 46  1  0  0  0  0
 47 48  1  0  0  0  0
 47 58  1  0  0  0  0
 47227  1  1  0  0  0
 48 49  1  0  0  0  0
 48228  1  0  0  0  0
 48229  1  0  0  0  0
 49 50  2  0  0  0  0
 49 54  1  0  0  0  0
 50 51  1  0  0  0  0
 50230  1  0  0  0  0
 51 52  2  0  0  0  0
 51231  1  0  0  0  0
 52 53  1  0  0  0  0
 52 55  1  0  0  0  0
 53 54  2  0  0  0  0
 53232  1  0  0  0  0
 54233  1  0  0  0  0
 55 56  1  0  0  0  0
 55 57  2  0  0  0  0
 56234  1  0  0  0  0
 56235  1  0  0  0  0
 57236  1  0  0  0  0
 58 59  2  0  0  0  0
 58 60  1  0  0  0  0
 60 61  1  0  0  0  0
 60 65  1  0  0  0  0
 61 62  1  0  0  0  0
 61237  1  0  0  0  0
 61238  1  0  0  0  0
 62 63  1  0  0  0  0
 62239  1  0  0  0  0
 62240  1  0  0  0  0
 63 64  1  0  0  0  0
 63241  1  0  0  0  0
 63242  1  0  0  0  0
 64 65  1  0  0  0  0
 64243  1  0  0  0  0
 64244  1  0  0  0  0
 65245  1  0  0  0  0
 65246  1  0  0  0  0
 66 67  2  0  0  0  0
 66 68  1  0  0  0  0
 68 69  1  0  0  0  0
 68247  1  0  0  0  0
 69 70  1  0  0  0  0
 69248  1  0  0  0  0
 69249  1  0  0  0  0
 70 71  1  0  0  0  0
 70250  1  0  0  0  0
 70251  1  0  0  0  0
 71 72  1  0  0  0  0
 72 73  1  0  0  0  0
 72252  1  0  0  0  0
 72253  1  0  0  0  0
 73 74  1  0  0  0  0
 73254  1  0  0  0  0
 73255  1  0  0  0  0
 74 75  1  0  0  0  0
 75 76  1  0  0  0  0
 75256  1  0  0  0  0
 75257  1  0  0  0  0
 76 77  1  0  0  0  0
 76258  1  0  0  0  0
 76259  1  0  0  0  0
 77 78  1  0  0  0  0
 78 79  1  0  0  0  0
 78260  1  0  0  0  0
 78261  1  0  0  0  0
 79 80  1  0  0  0  0
 79262  1  0  0  0  0
 79263  1  0  0  0  0
 81 80  1  0  0  0  0
 81 82  1  0  0  0  0
 81171  1  0  0  0  0
 81264  1  6  0  0  0
 82 83  1  0  0  0  0
 82 89  1  0  0  0  0
 82265  1  1  0  0  0
 83 84  1  0  0  0  0
 83266  1  0  0  0  0
 83267  1  0  0  0  0
 84 85  1  0  0  0  0
 85 86  1  0  0  0  0
 85 87  2  0  0  0  0
 85 88  2  0  0  0  0
 86268  1  0  0  0  0
 90 89  1  0  0  0  0
 90 91  1  0  0  0  0
 90269  1  6  0  0  0
 92 91  1  0  0  0  0
 92 93  1  6  0  0  0
 92 94  1  0  0  0  0
 92164  1  0  0  0  0
 94 95  1  0  0  0  0
 94 97  1  0  0  0  0
 94270  1  1  0  0  0
 95 96  1  0  0  0  0
 96271  1  0  0  0  0
 96272  1  0  0  0  0
 96273  1  0  0  0  0
 97 98  1  0  0  0  0
 97100  1  0  0  0  0
 97274  1  6  0  0  0
 98 99  1  0  0  0  0
 99275  1  0  0  0  0
 99276  1  0  0  0  0
 99277  1  0  0  0  0
100101  1  0  0  0  0
100163  1  0  0  0  0
100278  1  1  0  0  0
102101  1  0  0  0  0
102103  1  1  0  0  0
102104  1  0  0  0  0
102157  1  0  0  0  0
104105  1  0  0  0  0
104111  1  0  0  0  0
104279  1  6  0  0  0
105106  1  0  0  0  0
105280  1  0  0  0  0
105281  1  0  0  0  0
106107  1  0  0  0  0
107108  1  0  0  0  0
107109  2  0  0  0  0
107110  2  0  0  0  0
108282  1  0  0  0  0
112111  1  0  0  0  0
112113  1  0  0  0  0
112283  1  1  0  0  0
114113  1  0  0  0  0
114115  1  6  0  0  0
114116  1  0  0  0  0
114147  1  0  0  0  0
116117  1  0  0  0  0
116119  1  0  0  0  0
116284  1  1  0  0  0
117118  1  0  0  0  0
118285  1  0  0  0  0
118286  1  0  0  0  0
118287  1  0  0  0  0
119120  1  0  0  0  0
119122  1  0  0  0  0
119288  1  6  0  0  0
120121  1  0  0  0  0
121289  1  0  0  0  0
121290  1  0  0  0  0
121291  1  0  0  0  0
122123  1  0  0  0  0
122146  1  0  0  0  0
122292  1  1  0  0  0
124123  1  0  0  0  0
124125  1  1  0  0  0
124126  1  0  0  0  0
124143  1  0  0  0  0
126127  1  0  0  0  0
126133  1  0  0  0  0
126293  1  6  0  0  0
127128  1  0  0  0  0
127294  1  0  0  0  0
127295  1  0  0  0  0
128129  1  0  0  0  0
129130  1  0  0  0  0
129131  2  0  0  0  0
129132  2  0  0  0  0
130296  1  0  0  0  0
134133  1  0  0  0  0
134135  1  0  0  0  0
134297  1  1  0  0  0
135136  1  0  0  0  0
136298  1  0  0  0  0
136299  1  0  0  0  0
136300  1  0  0  0  0
137134  1  0  0  0  0
137138  1  0  0  0  0
137301  1  1  0  0  0
138139  1  0  0  0  0
139140  1  0  0  0  0
139141  2  0  0  0  0
139142  2  0  0  0  0
140302  1  0  0  0  0
143137  1  0  0  0  0
143144  1  0  0  0  0
143303  1  6  0  0  0
144145  1  0  0  0  0
145304  1  0  0  0  0
145305  1  0  0  0  0
145306  1  0  0  0  0
147146  1  0  0  0  0
147148  1  0  0  0  0
147307  1  6  0  0  0
148149  1  0  0  0  0
148150  2  0  0  0  0
149308  1  0  0  0  0
151112  1  0  0  0  0
151152  1  0  0  0  0
151309  1  1  0  0  0
152153  1  0  0  0  0
153154  1  0  0  0  0
153155  2  0  0  0  0
153156  2  0  0  0  0
154310  1  0  0  0  0
157151  1  0  0  0  0
157158  1  0  0  0  0
157311  1  6  0  0  0
158159  1  0  0  0  0
159160  1  0  0  0  0
159161  2  0  0  0  0
159162  2  0  0  0  0
160312  1  0  0  0  0
164163  1  0  0  0  0
164165  1  0  0  0  0
164313  1  1  0  0  0
165166  1  0  0  0  0
165167  2  0  0  0  0
166314  1  0  0  0  0
168 90  1  0  0  0  0
168169  1  0  0  0  0
168315  1  6  0  0  0
169170  1  0  0  0  0
170316  1  0  0  0  0
170317  1  0  0  0  0
170318  1  0  0  0  0
171168  1  0  0  0  0
171172  1  0  0  0  0
171319  1  1  0  0  0
172173  1  0  0  0  0
173320  1  0  0  0  0
173321  1  0  0  0  0
173322  1  0  0  0  0
174  5  1  0  0  0  0
174  2  1  0  0  0  0
174175  1  6  0  0  0
174176  1  0  0  0  0
176177  1  0  0  0  0
176323  1  0  0  0  0
177178  2  0  0  0  0
177179  1  0  0  0  0
179324  1  0  0  0  0
M  END
>  <DRUGBANK_ID>
DB18393

>  <COMMON_NAME>
EP-217609

>  <CAS_NUMBER>
894494-99-6

>  <UNII>
R6464792NG

>  <SYNONYMS>
EP217609

$$$$
