
 OpenBabel10282417072D

199204  0  0  1  0  0  0  0  0999 V2000
   -2.2101   -5.0779    0.0000 C   0  0  0  0  0  0  0  0  0  0  0  0
   -1.5004   -4.6651    0.0000 N   0  0  0  0  0  0  0  0  0  0  0  0
   -0.7792   -5.0739    0.0000 C   0  0  0  0  0  0  0  0  0  0  0  0
   -0.0680   -4.6609    0.0000 C   0  0  0  0  0  0  0  0  0  0  0  0
   -0.0680   -3.8359    0.0000 O   0  0  0  0  0  0  0  0  0  0  0  0
    0.6424   -5.0734    0.0000 N   0  0  0  0  0  0  0  0  0  0  0  0
    1.3573   -4.6563    0.0000 C   0  0  2  0  0  0  0  0  0  0  0  0
    1.3573   -3.8359    0.0000 C   0  0  0  0  0  0  0  0  0  0  0  0
    2.0677   -3.4234    0.0000 N   0  0  0  0  0  0  0  0  0  0  0  0
    2.0677   -2.6029    0.0000 C   0  0  1  0  0  0  0  0  0  0  0  0
    2.7828   -2.1904    0.0000 C   0  0  2  0  0  0  0  0  0  0  0  0
    2.7828   -1.3654    0.0000 C   0  0  1  0  0  0  0  0  0  0  0  0
    3.4976   -0.9528    0.0000 C   0  0  0  0  0  0  0  0  0  0  0  0
    3.4976   -0.1325    0.0000 N   0  0  0  0  0  0  0  0  0  0  0  0
    4.2082    0.2800    0.0000 C   0  0  2  0  0  0  0  0  0  0  0  0
    4.2082    1.1004    0.0000 C   0  0  0  0  0  0  0  0  0  0  0  0
    4.9232    1.5130    0.0000 N   0  0  0  0  0  0  0  0  0  0  0  0
    4.9232    2.3380    0.0000 C   0  0  0  0  0  0  0  0  0  0  0  0
    5.6336    2.7504    0.0000 C   0  0  0  0  0  0  0  0  0  0  0  0
    5.6336    3.5709    0.0000 C   0  0  0  0  0  0  0  0  0  0  0  0
    6.2969    4.0552    0.0000 S   0  0  0  0  0  0  0  0  0  0  0  0
    6.0455    4.8406    0.0000 C   0  0  0  0  0  0  0  0  0  0  0  0
    5.2204    4.8406    0.0000 C   0  0  0  0  0  0  0  0  0  0  0  0
    4.9691    4.0552    0.0000 N   0  0  0  0  0  0  0  0  0  0  0  0
    4.7373    5.5061    0.0000 C   0  0  0  0  0  0  0  0  0  0  0  0
    4.9857    6.2903    0.0000 S   0  0  0  0  0  0  0  0  0  0  0  0
    4.3201    6.7778    0.0000 C   0  0  0  0  0  0  0  0  0  0  0  0
    3.6501    6.2901    0.0000 C   0  0  0  0  0  0  0  0  0  0  0  0
    3.9079    5.5061    0.0000 N   0  0  0  0  0  0  0  0  0  0  0  0
    2.9386    6.7060    0.0000 C   0  0  0  0  0  0  0  0  0  0  0  0
    2.2235    6.2934    0.0000 N   0  0  0  0  0  0  0  0  0  0  0  0
    1.5086    6.7014    0.0000 C   0  0  0  0  0  0  0  0  0  0  0  0
    0.7981    6.2888    0.0000 C   0  0  0  0  0  0  0  0  0  0  0  0
    0.0830    6.6967    0.0000 C   0  0  0  0  0  0  0  0  0  0  0  0
   -0.6280    6.2817    0.0000 N   0  0  0  0  0  0  0  0  0  0  0  0
   -1.3466    6.6963    0.0000 C   0  0  0  0  0  0  0  0  0  0  0  0
   -2.0578    6.2767    0.0000 C   0  0  0  0  0  0  0  0  0  0  0  0
   -2.7763    6.6913    0.0000 C   0  0  0  0  0  0  0  0  0  0  0  0
   -3.4918    6.2797    0.0000 C   0  0  0  0  0  0  0  0  0  0  0  0
   -4.2024    6.6922    0.0000 N   0  0  0  0  0  0  0  0  0  0  0  0
   -4.9174    6.2797    0.0000 C   0  0  0  0  0  0  0  0  0  0  0  0
   -5.6323    6.6922    0.0000 C   0  0  0  0  0  0  0  0  0  0  0  0
   -6.3454    6.2760    0.0000 C   0  0  0  0  0  0  0  0  0  0  0  0
   -7.0621    6.6940    0.0000 N   0  0  0  0  0  0  0  0  0  0  0  0
    2.9386    7.5311    0.0000 O   0  0  0  0  0  0  0  0  0  0  0  0
    3.4952    1.5124    0.0000 O   0  0  0  0  0  0  0  0  0  0  0  0
    4.9257   -0.1319    0.0000 C   0  0  1  0  0  0  0  0  0  0  0  0
    5.7207    0.0828    0.0000 C   0  0  0  0  0  0  0  0  0  0  0  0
    4.8185   -0.9494    0.0000 O   0  0  0  0  0  0  0  0  0  0  0  0
    4.2106   -1.3650    0.0000 O   0  0  0  0  0  0  0  0  0  0  0  0
    2.0652   -0.9532    0.0000 C   0  0  0  0  0  0  0  0  0  0  0  0
    3.5002   -2.6024    0.0000 O   0  0  0  0  0  0  0  0  0  0  0  0
    1.3548   -2.1910    0.0000 C   0  0  0  0  0  0  0  0  0  0  0  0
    0.6398   -3.4238    0.0000 O   0  0  0  0  0  0  0  0  0  0  0  0
    2.0677   -5.0687    0.0000 C   0  0  1  0  0  0  0  0  0  0  0  0
    2.7828   -4.6562    0.0000 O   0  0  0  0  0  0  0  0  0  0  0  0
    3.4976   -5.0641    0.0000 C   0  0  2  0  0  0  0  0  0  0  0  0
    3.4976   -5.8861    0.0000 O   0  0  0  0  0  0  0  0  0  0  0  0
    4.2043   -6.2940    0.0000 C   0  0  1  0  0  0  0  0  0  0  0  0
    4.2043   -7.1190    0.0000 C   0  0  0  0  0  0  0  0  0  0  0  0
    3.4910   -7.5311    0.0000 O   0  0  0  0  0  0  0  0  0  0  0  0
    4.9191   -5.8849    0.0000 C   0  0  2  0  0  0  0  0  0  0  0  0
    4.9191   -5.0629    0.0000 C   0  0  1  0  0  0  0  0  0  0  0  0
    4.2029   -4.6501    0.0000 C   0  0  2  0  0  0  0  0  0  0  0  0
    4.2029   -3.8250    0.0000 O   0  0  0  0  0  0  0  0  0  0  0  0
    4.9172   -3.4064    0.0000 C   0  0  1  0  0  0  0  0  0  0  0  0
    5.6322   -3.8218    0.0000 O   0  0  0  0  0  0  0  0  0  0  0  0
    6.3415   -3.4114    0.0000 C   0  0  1  0  0  0  0  0  0  0  0  0
    6.3415   -2.5861    0.0000 C   0  0  2  0  0  0  0  0  0  0  0  0
    5.6307   -2.1729    0.0000 C   0  0  1  0  0  0  0  0  0  0  0  0
    4.9172   -2.5850    0.0000 C   0  0  2  0  0  0  0  0  0  0  0  0
    4.1962   -2.1747    0.0000 O   0  0  0  0  0  0  0  0  0  0  0  0
    5.6307   -1.3479    0.0000 O   0  0  0  0  0  0  0  0  0  0  0  0
    6.3450   -0.9362    0.0000 C   0  0  0  0  0  0  0  0  0  0  0  0
    6.3450   -0.1113    0.0000 O   0  0  0  0  0  0  0  0  0  0  0  0
    7.0616   -1.3497    0.0000 N   0  0  0  0  0  0  0  0  0  0  0  0
    7.0621   -2.1747    0.0000 O   0  0  0  0  0  0  0  0  0  0  0  0
    7.0580   -3.8252    0.0000 C   0  0  0  0  0  0  0  0  0  0  0  0
    7.0580   -4.6548    0.0000 O   0  0  0  0  0  0  0  0  0  0  0  0
    5.1248   -4.2025    0.0000 H   0  0  0  0  0  0  0  0  0  0  0  0
    5.6357   -4.6507    0.0000 O   0  0  0  0  0  0  0  0  0  0  0  0
    5.6361   -6.2979    0.0000 O   0  0  0  0  0  0  0  0  0  0  0  0
    2.0677   -5.8937    0.0000 C   0  0  0  0  0  0  0  0  0  0  0  0
    1.4102   -6.3812    0.0000 N   0  0  0  0  0  0  0  0  0  0  0  0
    1.6651   -7.1657    0.0000 C   0  0  0  0  0  0  0  0  0  0  0  0
    2.4901   -7.1657    0.0000 N   0  0  0  0  0  0  0  0  0  0  0  0
    2.7457   -6.3780    0.0000 C   0  0  0  0  0  0  0  0  0  0  0  0
   -0.7792   -5.9095    0.0000 C   0  0  0  0  0  0  0  0  0  0  0  0
   -1.4983   -6.3230    0.0000 C   0  0  0  0  0  0  0  0  0  0  0  0
   -1.4983   -7.1479    0.0000 N   0  0  0  0  0  0  0  0  0  0  0  0
   -2.2101   -5.9101    0.0000 N   0  0  0  0  0  0  0  0  0  0  0  0
   -0.0657   -6.3210    0.0000 C   0  0  0  0  0  0  0  0  0  0  0  0
   -2.9282   -4.6654    0.0000 C   0  0  2  0  0  0  0  0  0  0  0  0
   -3.6385   -5.0779    0.0000 C   0  0  0  0  0  0  0  0  0  0  0  0
   -4.3536   -4.6700    0.0000 C   0  0  0  0  0  0  0  0  0  0  0  0
   -4.3536   -3.8450    0.0000 O   0  0  0  0  0  0  0  0  0  0  0  0
   -5.0693   -5.0849    0.0000 N   0  0  0  0  0  0  0  0  0  0  0  0
   -2.9282   -3.8404    0.0000 N   0  0  0  0  0  0  0  0  0  0  0  0
   -2.2129   -3.4273    0.0000 C   0  0  0  0  0  0  0  0  0  0  0  0
   -2.2129   -2.6022    0.0000 C   0  0  2  0  0  0  0  0  0  0  0  0
   -1.5006   -2.1891    0.0000 N   0  0  0  0  0  0  0  0  0  0  0  0
   -2.9305   -2.1904    0.0000 C   0  0  0  0  0  0  0  0  0  0  0  0
   -2.9305   -1.3654    0.0000 O   0  0  0  0  0  0  0  0  0  0  0  0
   -3.6425   -2.6035    0.0000 N   0  0  0  0  0  0  0  0  0  0  0  0
    0.6434   -6.0579    0.0000 H   0  0  0  0  0  0  0  0  0  0  0  0
    0.4294   -4.1234    0.0000 H   0  0  0  0  0  0  0  0  0  0  0  0
    2.9209   -3.9146    0.0000 H   0  0  0  0  0  0  0  0  0  0  0  0
    1.1410   -3.1378    0.0000 H   0  0  0  0  0  0  0  0  0  0  0  0
    2.7838   -3.2604    0.0000 H   0  0  0  0  0  0  0  0  0  0  0  0
    1.8567   -1.9014    0.0000 H   0  0  0  0  0  0  0  0  0  0  0  0
    2.6444    0.3587    0.0000 H   0  0  0  0  0  0  0  0  0  0  0  0
    3.2809    0.8139    0.0000 H   0  0  0  0  0  0  0  0  0  0  0  0
    5.7757    1.0207    0.0000 H   0  0  0  0  0  0  0  0  0  0  0  0
    3.9959    2.8719    0.0000 H   0  0  0  0  0  0  0  0  0  0  0  0
    4.9213    3.4080    0.0000 H   0  0  0  0  0  0  0  0  0  0  0  0
    6.5609    2.2165    0.0000 H   0  0  0  0  0  0  0  0  0  0  0  0
    6.5599    3.2859    0.0000 H   0  0  0  0  0  0  0  0  0  0  0  0
    6.6539    5.6742    0.0000 H   0  0  0  0  0  0  0  0  0  0  0  0
    4.3216    7.8098    0.0000 H   0  0  0  0  0  0  0  0  0  0  0  0
    2.2258    5.3089    0.0000 H   0  0  0  0  0  0  0  0  0  0  0  0
    1.5046    7.7714    0.0000 H   0  0  0  0  0  0  0  0  0  0  0  0
    0.5803    7.2335    0.0000 H   0  0  0  0  0  0  0  0  0  0  0  0
    0.8022    5.2188    0.0000 H   0  0  0  0  0  0  0  0  0  0  0  0
   -0.1261    5.7496    0.0000 H   0  0  0  0  0  0  0  0  0  0  0  0
    0.0777    7.7667    0.0000 H   0  0  0  0  0  0  0  0  0  0  0  0
   -0.8462    7.2272    0.0000 H   0  0  0  0  0  0  0  0  0  0  0  0
   -0.6254    5.2617    0.0000 H   0  0  0  0  0  0  0  0  0  0  0  0
   -1.3518    7.7663    0.0000 H   0  0  0  0  0  0  0  0  0  0  0  0
   -2.2770    7.2247    0.0000 H   0  0  0  0  0  0  0  0  0  0  0  0
   -2.0526    5.2067    0.0000 H   0  0  0  0  0  0  0  0  0  0  0  0
   -2.9831    5.7394    0.0000 H   0  0  0  0  0  0  0  0  0  0  0  0
   -2.7756    7.7613    0.0000 H   0  0  0  0  0  0  0  0  0  0  0  0
   -3.7023    7.2273    0.0000 H   0  0  0  0  0  0  0  0  0  0  0  0
   -3.4939    5.2097    0.0000 H   0  0  0  0  0  0  0  0  0  0  0  0
   -4.4196    5.7467    0.0000 H   0  0  0  0  0  0  0  0  0  0  0  0
   -4.2010    7.7122    0.0000 H   0  0  0  0  0  0  0  0  0  0  0  0
   -4.9174    5.2097    0.0000 H   0  0  0  0  0  0  0  0  0  0  0  0
   -5.8440    5.7446    0.0000 H   0  0  0  0  0  0  0  0  0  0  0  0
   -5.6350    7.7622    0.0000 H   0  0  0  0  0  0  0  0  0  0  0  0
   -6.5609    7.2239    0.0000 H   0  0  0  0  0  0  0  0  0  0  0  0
   -6.3452    5.2060    0.0000 H   0  0  0  0  0  0  0  0  0  0  0  0
   -7.2732    5.7430    0.0000 H   0  0  0  0  0  0  0  0  0  0  0  0
   -7.0576    7.7140    0.0000 H   0  0  0  0  0  0  0  0  0  0  0  0
   -7.9477    6.1879    0.0000 H   0  0  0  0  0  0  0  0  0  0  0  0
    3.9668   -0.6066    0.0000 H   0  0  0  0  0  0  0  0  0  0  0  0
    6.4788   -0.6723    0.0000 H   0  0  0  0  0  0  0  0  0  0  0  0
    5.9956    1.1169    0.0000 H   0  0  0  0  0  0  0  0  0  0  0  0
    6.7537    0.3618    0.0000 H   0  0  0  0  0  0  0  0  0  0  0  0
    3.9225   -1.3211    0.0000 H   0  0  0  0  0  0  0  0  0  0  0  0
    2.0628    0.1168    0.0000 H   0  0  0  0  0  0  0  0  0  0  0  0
    1.1397   -1.4902    0.0000 H   0  0  0  0  0  0  0  0  0  0  0  0
    1.1374   -0.4202    0.0000 H   0  0  0  0  0  0  0  0  0  0  0  0
    3.5024   -3.5724    0.0000 H   0  0  0  0  0  0  0  0  0  0  0  0
    1.3551   -1.1210    0.0000 H   0  0  0  0  0  0  0  0  0  0  0  0
    0.4280   -2.7257    0.0000 H   0  0  0  0  0  0  0  0  0  0  0  0
    0.4283   -1.6557    0.0000 H   0  0  0  0  0  0  0  0  0  0  0  0
    1.1404   -5.6026    0.0000 H   0  0  0  0  0  0  0  0  0  0  0  0
    2.5723   -5.6014    0.0000 H   0  0  0  0  0  0  0  0  0  0  0  0
    3.2777   -6.8291    0.0000 H   0  0  0  0  0  0  0  0  0  0  0  0
    5.1310   -7.6539    0.0000 H   0  0  0  0  0  0  0  0  0  0  0  0
    4.2045   -8.1890    0.0000 H   0  0  0  0  0  0  0  0  0  0  0  0
    2.6508   -7.0463    0.0000 H   0  0  0  0  0  0  0  0  0  0  0  0
    4.9176   -6.9549    0.0000 H   0  0  0  0  0  0  0  0  0  0  0  0
    5.8453   -5.5986    0.0000 H   0  0  0  0  0  0  0  0  0  0  0  0
    5.1294   -4.1148    0.0000 H   0  0  0  0  0  0  0  0  0  0  0  0
    6.3419   -4.4814    0.0000 H   0  0  0  0  0  0  0  0  0  0  0  0
    7.2668   -3.1233    0.0000 H   0  0  0  0  0  0  0  0  0  0  0  0
    6.5581   -1.6393    0.0000 H   0  0  0  0  0  0  0  0  0  0  0  0
    4.9138   -1.5150    0.0000 H   0  0  0  0  0  0  0  0  0  0  0  0
    4.1902   -1.2047    0.0000 H   0  0  0  0  0  0  0  0  0  0  0  0
    7.0618   -2.3342    0.0000 H   0  0  0  0  0  0  0  0  0  0  0  0
    7.9141   -0.8572    0.0000 H   0  0  0  0  0  0  0  0  0  0  0  0
    7.8998   -2.6638    0.0000 H   0  0  0  0  0  0  0  0  0  0  0  0
    7.9847   -3.2903    0.0000 H   0  0  0  0  0  0  0  0  0  0  0  0
    7.9846   -4.3602    0.0000 H   0  0  0  0  0  0  0  0  0  0  0  0
    6.2180   -5.1398    0.0000 H   0  0  0  0  0  0  0  0  0  0  0  0
    6.4750   -5.1370    0.0000 H   0  0  0  0  0  0  0  0  0  0  0  0
    5.6371   -7.2679    0.0000 H   0  0  0  0  0  0  0  0  0  0  0  0
    0.4724   -6.0815    0.0000 H   0  0  0  0  0  0  0  0  0  0  0  0
    1.0585   -8.0006    0.0000 H   0  0  0  0  0  0  0  0  0  0  0  0
    3.7258   -6.0550    0.0000 H   0  0  0  0  0  0  0  0  0  0  0  0
   -2.3509   -7.6402    0.0000 H   0  0  0  0  0  0  0  0  0  0  0  0
   -0.6457   -7.6402    0.0000 H   0  0  0  0  0  0  0  0  0  0  0  0
   -0.0652   -7.3910    0.0000 H   0  0  0  0  0  0  0  0  0  0  0  0
    0.8607   -5.7856    0.0000 H   0  0  0  0  0  0  0  0  0  0  0  0
    0.8612   -6.8556    0.0000 H   0  0  0  0  0  0  0  0  0  0  0  0
   -2.0021   -4.1294    0.0000 H   0  0  0  0  0  0  0  0  0  0  0  0
   -3.6343   -6.1479    0.0000 H   0  0  0  0  0  0  0  0  0  0  0  0
   -4.5627   -5.6171    0.0000 H   0  0  0  0  0  0  0  0  0  0  0  0
   -5.9228   -4.5942    0.0000 H   0  0  0  0  0  0  0  0  0  0  0  0
   -5.0676   -6.0694    0.0000 H   0  0  0  0  0  0  0  0  0  0  0  0
   -3.8116   -3.3305    0.0000 H   0  0  0  0  0  0  0  0  0  0  0  0
   -1.2862   -3.9622    0.0000 H   0  0  0  0  0  0  0  0  0  0  0  0
   -1.2863   -2.8923    0.0000 H   0  0  0  0  0  0  0  0  0  0  0  0
   -1.2857   -3.1363    0.0000 H   0  0  0  0  0  0  0  0  0  0  0  0
   -0.6163   -2.6974    0.0000 H   0  0  0  0  0  0  0  0  0  0  0  0
   -1.5026   -1.1691    0.0000 H   0  0  0  0  0  0  0  0  0  0  0  0
   -4.4961   -2.1131    0.0000 H   0  0  0  0  0  0  0  0  0  0  0  0
   -3.6404   -3.5880    0.0000 H   0  0  0  0  0  0  0  0  0  0  0  0
  1 91  2  0  0  0  0
  1 93  1  0  0  0  0
  2  1  1  0  0  0  0
  3  2  2  0  0  0  0
  3  4  1  0  0  0  0
  4  5  2  0  0  0  0
  4  6  1  0  0  0  0
  6  7  1  0  0  0  0
  6105  1  0  0  0  0
  7  8  1  0  0  0  0
  7 55  1  0  0  0  0
  7106  1  1  0  0  0
  8  9  1  0  0  0  0
  8 54  2  0  0  0  0
  9 10  1  0  0  0  0
  9107  1  0  0  0  0
 10 11  1  0  0  0  0
 10 53  1  0  0  0  0
 10108  1  1  0  0  0
 11 12  1  0  0  0  0
 11 52  1  0  0  0  0
 11109  1  1  0  0  0
 12 13  1  0  0  0  0
 12 51  1  0  0  0  0
 12110  1  1  0  0  0
 13 14  1  0  0  0  0
 13 50  2  0  0  0  0
 14111  1  0  0  0  0
 15 14  1  0  0  0  0
 15 16  1  0  0  0  0
 15 47  1  0  0  0  0
 15112  1  1  0  0  0
 16 17  1  0  0  0  0
 16 46  2  0  0  0  0
 17 18  1  0  0  0  0
 17113  1  0  0  0  0
 18 19  1  0  0  0  0
 18114  1  0  0  0  0
 18115  1  0  0  0  0
 19 20  1  0  0  0  0
 19116  1  0  0  0  0
 19117  1  0  0  0  0
 20 21  1  0  0  0  0
 21 22  1  0  0  0  0
 22 23  2  0  0  0  0
 22118  1  0  0  0  0
 23 24  1  0  0  0  0
 23 25  1  0  0  0  0
 24 20  2  0  0  0  0
 25 26  1  0  0  0  0
 26 27  1  0  0  0  0
 27 28  2  0  0  0  0
 27119  1  0  0  0  0
 28 29  1  0  0  0  0
 28 30  1  0  0  0  0
 29 25  2  0  0  0  0
 30 31  1  0  0  0  0
 30 45  2  0  0  0  0
 31 32  1  0  0  0  0
 31120  1  0  0  0  0
 32 33  1  0  0  0  0
 32121  1  0  0  0  0
 32122  1  0  0  0  0
 33 34  1  0  0  0  0
 33123  1  0  0  0  0
 33124  1  0  0  0  0
 34 35  1  0  0  0  0
 34125  1  0  0  0  0
 34126  1  0  0  0  0
 35 36  1  0  0  0  0
 35127  1  0  0  0  0
 36 37  1  0  0  0  0
 36128  1  0  0  0  0
 36129  1  0  0  0  0
 37 38  1  0  0  0  0
 37130  1  0  0  0  0
 37131  1  0  0  0  0
 38 39  1  0  0  0  0
 38132  1  0  0  0  0
 38133  1  0  0  0  0
 39 40  1  0  0  0  0
 39134  1  0  0  0  0
 39135  1  0  0  0  0
 40 41  1  0  0  0  0
 40136  1  0  0  0  0
 41 42  1  0  0  0  0
 41137  1  0  0  0  0
 41138  1  0  0  0  0
 42 43  1  0  0  0  0
 42139  1  0  0  0  0
 42140  1  0  0  0  0
 43 44  1  0  0  0  0
 43141  1  0  0  0  0
 43142  1  0  0  0  0
 44143  1  0  0  0  0
 44144  1  0  0  0  0
 47 48  1  0  0  0  0
 47 49  1  0  0  0  0
 47145  1  6  0  0  0
 48146  1  0  0  0  0
 48147  1  0  0  0  0
 48148  1  0  0  0  0
 49149  1  0  0  0  0
 51150  1  0  0  0  0
 51151  1  0  0  0  0
 51152  1  0  0  0  0
 52153  1  0  0  0  0
 53154  1  0  0  0  0
 53155  1  0  0  0  0
 53156  1  0  0  0  0
 55 56  1  0  0  0  0
 55 83  1  0  0  0  0
 55157  1  6  0  0  0
 57 56  1  0  0  0  0
 57 58  1  0  0  0  0
 57 64  1  0  0  0  0
 57158  1  6  0  0  0
 58 59  1  0  0  0  0
 59 60  1  0  0  0  0
 59 62  1  0  0  0  0
 59159  1  1  0  0  0
 60 61  1  0  0  0  0
 60160  1  0  0  0  0
 60161  1  0  0  0  0
 61162  1  0  0  0  0
 62 63  1  0  0  0  0
 62 82  1  0  0  0  0
 62163  1  1  0  0  0
 63 64  1  0  0  0  0
 63 81  1  0  0  0  0
 63164  1  6  0  0  0
 64 65  1  0  0  0  0
 64165  1  6  0  0  0
 65 66  1  0  0  0  0
 66 67  1  0  0  0  0
 66 71  1  0  0  0  0
 66 80  1  1  0  0  0
 67 68  1  0  0  0  0
 68 69  1  0  0  0  0
 68 78  1  0  0  0  0
 68166  1  6  0  0  0
 69 70  1  0  0  0  0
 69 77  1  0  0  0  0
 69167  1  1  0  0  0
 70 71  1  0  0  0  0
 70 73  1  0  0  0  0
 70168  1  6  0  0  0
 71 72  1  0  0  0  0
 71169  1  6  0  0  0
 72170  1  0  0  0  0
 73 74  1  0  0  0  0
 74 75  2  0  0  0  0
 74 76  1  0  0  0  0
 76171  1  0  0  0  0
 76172  1  0  0  0  0
 77173  1  0  0  0  0
 78 79  1  0  0  0  0
 78174  1  0  0  0  0
 78175  1  0  0  0  0
 79176  1  0  0  0  0
 81177  1  0  0  0  0
 82178  1  0  0  0  0
 83 84  1  0  0  0  0
 84 85  1  0  0  0  0
 84179  1  0  0  0  0
 85 86  2  0  0  0  0
 85180  1  0  0  0  0
 86 87  1  0  0  0  0
 87 83  2  0  0  0  0
 87181  1  0  0  0  0
 88  3  1  0  0  0  0
 88 92  1  0  0  0  0
 89 88  2  0  0  0  0
 89 90  1  0  0  0  0
 90182  1  0  0  0  0
 90183  1  0  0  0  0
 91 89  1  0  0  0  0
 92184  1  0  0  0  0
 92185  1  0  0  0  0
 92186  1  0  0  0  0
 93 94  1  0  0  0  0
 93 98  1  0  0  0  0
 93187  1  1  0  0  0
 94 95  1  0  0  0  0
 94188  1  0  0  0  0
 94189  1  0  0  0  0
 95 96  2  0  0  0  0
 95 97  1  0  0  0  0
 97190  1  0  0  0  0
 97191  1  0  0  0  0
 98 99  1  0  0  0  0
 98192  1  0  0  0  0
 99100  1  0  0  0  0
 99193  1  0  0  0  0
 99194  1  0  0  0  0
100101  1  0  0  0  0
100102  1  0  0  0  0
100195  1  6  0  0  0
101196  1  0  0  0  0
101197  1  0  0  0  0
102103  2  0  0  0  0
102104  1  0  0  0  0
104198  1  0  0  0  0
104199  1  0  0  0  0
M  END
>  <DRUGBANK_ID>
DB12992

>  <COMMON_NAME>
Bleomycin A6

>  <CAS_NUMBER>
37293-17-7

>  <UNII>
0B19OCB220

>  <SYNONYMS>
Boanmycin; Pingyangmycin A6; Zhengguangmycin A6

$$$$
