
 OpenBabel10282417072D

 55 55  0  0  0  0  0  0  0  0999 V2000
    0.3555    0.0020    0.0000 C   0  0  0  0  0  0  0  0  0  0  0  0
    0.3555   -0.8253    0.0000 C   0  0  0  0  0  0  0  0  0  0  0  0
    1.0665    0.4137    0.0000 C   0  0  0  0  0  0  0  0  0  0  0  0
   -0.3554    0.4095    0.0000 C   0  0  0  0  0  0  0  0  0  0  0  0
   -1.0706   -0.0020    0.0000 C   0  0  0  0  0  0  0  0  0  0  0  0
    1.7815    0.0020    0.0000 C   0  0  0  0  0  0  0  0  0  0  0  0
    1.0665   -1.2370    0.0000 C   0  0  0  0  0  0  0  0  0  0  0  0
    1.7815   -0.8253    0.0000 C   0  0  0  0  0  0  0  0  0  0  0  0
   -1.7815    0.4095    0.0000 C   0  0  0  0  0  0  0  0  0  0  0  0
   -4.6337    0.4095    0.0000 C   0  0  0  0  0  0  0  0  0  0  0  0
   -3.9228   -0.0020    0.0000 C   0  0  0  0  0  0  0  0  0  0  0  0
   -0.3595   -1.2370    0.0000 O   0  0  0  0  0  0  0  0  0  0  0  0
    1.0623    1.2370    0.0000 O   0  0  0  0  0  0  0  0  0  0  0  0
   -3.2077    0.4095    0.0000 C   0  0  0  0  0  0  0  0  0  0  0  0
   -2.4968   -0.0020    0.0000 C   0  0  0  0  0  0  0  0  0  0  0  0
   -1.7815    1.2327    0.0000 C   0  0  0  0  0  0  0  0  0  0  0  0
   -4.6337    1.2327    0.0000 C   0  0  0  0  0  0  0  0  0  0  0  0
   -5.3489   -0.0020    0.0000 C   0  0  0  0  0  0  0  0  0  0  0  0
    2.4968   -1.2370    0.0000 C   0  0  0  0  0  0  0  0  0  0  0  0
    3.2077   -0.8211    0.0000 C   0  0  0  0  0  0  0  0  0  0  0  0
    4.6338   -0.8211    0.0000 C   0  0  0  0  0  0  0  0  0  0  0  0
    3.9229   -1.2327    0.0000 C   0  0  0  0  0  0  0  0  0  0  0  0
    5.3489   -1.2327    0.0000 C   0  0  0  0  0  0  0  0  0  0  0  0
   -0.3563    1.4795    0.0000 H   0  0  0  0  0  0  0  0  0  0  0  0
   -1.2819    0.9448    0.0000 H   0  0  0  0  0  0  0  0  0  0  0  0
   -1.0719   -1.0340    0.0000 H   0  0  0  0  0  0  0  0  0  0  0  0
    2.6749    0.5185    0.0000 H   0  0  0  0  0  0  0  0  0  0  0  0
    1.0652   -2.2690    0.0000 H   0  0  0  0  0  0  0  0  0  0  0  0
   -3.9241   -1.0340    0.0000 H   0  0  0  0  0  0  0  0  0  0  0  0
   -1.1704   -0.7676    0.0000 H   0  0  0  0  0  0  0  0  0  0  0  0
    1.8714    1.7096    0.0000 H   0  0  0  0  0  0  0  0  0  0  0  0
   -3.2063    1.4795    0.0000 H   0  0  0  0  0  0  0  0  0  0  0  0
   -2.2804    0.9434    0.0000 H   0  0  0  0  0  0  0  0  0  0  0  0
   -2.4982   -1.0720    0.0000 H   0  0  0  0  0  0  0  0  0  0  0  0
   -1.5709   -0.5383    0.0000 H   0  0  0  0  0  0  0  0  0  0  0  0
   -0.8549    1.7677    0.0000 H   0  0  0  0  0  0  0  0  0  0  0  0
   -2.7081    1.7677    0.0000 H   0  0  0  0  0  0  0  0  0  0  0  0
   -1.7815    2.3027    0.0000 H   0  0  0  0  0  0  0  0  0  0  0  0
   -3.7071    1.7677    0.0000 H   0  0  0  0  0  0  0  0  0  0  0  0
   -5.5603    1.7677    0.0000 H   0  0  0  0  0  0  0  0  0  0  0  0
   -4.6337    2.3027    0.0000 H   0  0  0  0  0  0  0  0  0  0  0  0
   -6.2747    0.5344    0.0000 H   0  0  0  0  0  0  0  0  0  0  0  0
   -5.3505   -1.0720    0.0000 H   0  0  0  0  0  0  0  0  0  0  0  0
   -6.2763   -0.5356    0.0000 H   0  0  0  0  0  0  0  0  0  0  0  0
    2.5006   -2.3070    0.0000 H   0  0  0  0  0  0  0  0  0  0  0  0
    3.4259   -1.7677    0.0000 H   0  0  0  0  0  0  0  0  0  0  0  0
    3.2039    0.2489    0.0000 H   0  0  0  0  0  0  0  0  0  0  0  0
    4.1330   -0.2838    0.0000 H   0  0  0  0  0  0  0  0  0  0  0  0
    4.6324    0.2489    0.0000 H   0  0  0  0  0  0  0  0  0  0  0  0
    5.5598   -0.2849    0.0000 H   0  0  0  0  0  0  0  0  0  0  0  0
    3.9243   -2.3027    0.0000 H   0  0  0  0  0  0  0  0  0  0  0  0
    2.9970   -1.7689    0.0000 H   0  0  0  0  0  0  0  0  0  0  0  0
    5.3503   -2.3027    0.0000 H   0  0  0  0  0  0  0  0  0  0  0  0
    6.2748   -0.6965    0.0000 H   0  0  0  0  0  0  0  0  0  0  0  0
    6.2763   -1.7665    0.0000 H   0  0  0  0  0  0  0  0  0  0  0  0
  2  1  2  0  0  0  0
  3  1  1  0  0  0  0
  4  1  1  0  0  0  0
  4 24  1  0  0  0  0
  4 25  1  0  0  0  0
  5  4  1  0  0  0  0
  5 26  1  0  0  0  0
  6  3  2  0  0  0  0
  6  8  1  0  0  0  0
  6 27  1  0  0  0  0
  7  2  1  0  0  0  0
  7 28  1  0  0  0  0
  8  7  2  0  0  0  0
  9  5  2  0  0  0  0
 10 11  2  0  0  0  0
 11 14  1  0  0  0  0
 11 29  1  0  0  0  0
 12  2  1  0  0  0  0
 12 30  1  0  0  0  0
 13  3  1  0  0  0  0
 13 31  1  0  0  0  0
 14 15  1  0  0  0  0
 14 32  1  0  0  0  0
 14 33  1  0  0  0  0
 15  9  1  0  0  0  0
 15 34  1  0  0  0  0
 15 35  1  0  0  0  0
 16  9  1  0  0  0  0
 16 36  1  0  0  0  0
 16 37  1  0  0  0  0
 16 38  1  0  0  0  0
 17 10  1  0  0  0  0
 17 39  1  0  0  0  0
 17 40  1  0  0  0  0
 17 41  1  0  0  0  0
 18 10  1  0  0  0  0
 18 42  1  0  0  0  0
 18 43  1  0  0  0  0
 18 44  1  0  0  0  0
 19  8  1  0  0  0  0
 19 45  1  0  0  0  0
 19 46  1  0  0  0  0
 20 19  1  0  0  0  0
 20 47  1  0  0  0  0
 20 48  1  0  0  0  0
 21 22  1  0  0  0  0
 21 49  1  0  0  0  0
 21 50  1  0  0  0  0
 22 20  1  0  0  0  0
 22 51  1  0  0  0  0
 22 52  1  0  0  0  0
 23 21  1  0  0  0  0
 23 53  1  0  0  0  0
 23 54  1  0  0  0  0
 23 55  1  0  0  0  0
M  END
>  <DRUGBANK_ID>
DB14734

>  <COMMON_NAME>
Cannabigerol

>  <CAS_NUMBER>
25654-31-3

>  <UNII>
J1K406072N

$$$$
