
 OpenBabel10282417072D

134136  0  0  1  0  0  0  0  0999 V2000
    1.4289   -0.4125    0.0000 C   0  0  1  0  0  0  0  0  0  0  0  0
    0.7145   -0.8250    0.0000 C   0  0  2  0  0  0  0  0  0  0  0  0
    0.7145    0.8250    0.0000 C   0  0  0  0  0  0  0  0  0  0  0  0
    0.7145   -1.6500    0.0000 C   0  0  1  0  0  0  0  0  0  0  0  0
    0.7145    1.6500    0.0000 C   0  0  2  0  0  0  0  0  0  0  0  0
    0.0000   -2.0625    0.0000 C   0  0  2  0  0  0  0  0  0  0  0  0
    0.0000    2.0625    0.0000 C   0  0  0  0  0  0  0  0  0  0  0  0
   -0.7145   -1.6500    0.0000 C   0  0  0  0  0  0  0  0  0  0  0  0
   -0.7145    1.6500    0.0000 C   0  0  1  0  0  0  0  0  0  0  0  0
   -0.7145   -0.8250    0.0000 O   0  0  0  0  0  0  0  0  0  0  0  0
   -0.7145    0.8250    0.0000 C   0  0  1  0  0  0  0  0  0  0  0  0
   -1.4289   -0.4125    0.0000 C   0  0  2  0  0  0  0  0  0  0  0  0
    2.1434   -0.8250    0.0000 O   0  0  0  0  0  0  0  0  0  0  0  0
    0.0000   -0.4125    0.0000 C   0  0  0  0  0  0  0  0  0  0  0  0
    2.8578   -0.4125    0.0000 C   0  0  1  0  0  0  0  0  0  0  0  0
    1.4289   -2.0625    0.0000 O   0  0  0  0  0  0  0  0  0  0  0  0
    3.5723   -0.8250    0.0000 C   0  0  1  0  0  0  0  0  0  0  0  0
    2.8578    0.4125    0.0000 O   0  0  0  0  0  0  0  0  0  0  0  0
    1.4289    2.0625    0.0000 C   0  0  0  0  0  0  0  0  0  0  0  0
    1.4289   -2.8875    0.0000 C   0  0  1  0  0  0  0  0  0  0  0  0
    0.0000   -2.8875    0.0000 C   0  0  0  0  0  0  0  0  0  0  0  0
    4.2868   -0.4125    0.0000 C   0  0  2  0  0  0  0  0  0  0  0  0
    3.5723   -1.6500    0.0000 O   0  0  0  0  0  0  0  0  0  0  0  0
    3.5723    0.8250    0.0000 C   0  0  1  0  0  0  0  0  0  0  0  0
    0.0000    2.8875    0.0000 N   0  0  0  0  0  0  0  0  0  0  0  0
    0.7144   -3.3000    0.0000 C   0  0  0  0  0  0  0  0  0  0  0  0
    2.1434   -3.3000    0.0000 O   0  0  0  0  0  0  0  0  0  0  0  0
   -1.4290   -2.0625    0.0000 O   0  0  0  0  0  0  0  0  0  0  0  0
    4.2868    0.4125    0.0000 C   0  0  0  0  0  0  0  0  0  0  0  0
    5.0013   -0.8250    0.0000 N   0  0  0  0  0  0  0  0  0  0  0  0
    3.5723    1.6500    0.0000 C   0  0  0  0  0  0  0  0  0  0  0  0
   -1.4290    2.0625    0.0000 C   0  0  0  0  0  0  0  0  0  0  0  0
    2.1434   -4.1250    0.0000 C   0  0  2  0  0  0  0  0  0  0  0  0
    5.7157   -0.4125    0.0000 C   0  0  0  0  0  0  0  0  0  0  0  0
    5.0013   -1.6500    0.0000 C   0  0  0  0  0  0  0  0  0  0  0  0
    0.0000    0.4125    0.0000 O   0  0  0  0  0  0  0  0  0  0  0  0
    1.4289   -4.5375    0.0000 C   0  0  2  0  0  0  0  0  0  0  0  0
    2.8578   -4.5375    0.0000 C   0  0  0  0  0  0  0  0  0  0  0  0
    1.4289   -5.3625    0.0000 O   0  0  0  0  0  0  0  0  0  0  0  0
    0.7144   -4.1250    0.0000 C   0  0  2  0  0  0  0  0  0  0  0  0
    0.7144    3.3000    0.0000 O   0  0  0  0  0  0  0  0  0  0  0  0
    1.4289    2.8875    0.0000 C   0  0  0  0  0  0  0  0  0  0  0  0
    2.1434    3.3000    0.0000 O   0  0  0  0  0  0  0  0  0  0  0  0
    2.8578    2.8875    0.0000 C   0  0  0  0  0  0  0  0  0  0  0  0
    3.5723    3.3000    0.0000 C   0  0  0  0  0  0  0  0  0  0  0  0
    4.2868    2.8875    0.0000 O   0  0  0  0  0  0  0  0  0  0  0  0
    5.0013    3.3000    0.0000 C   0  0  0  0  0  0  0  0  0  0  0  0
   -2.1435   -0.8250    0.0000 C   0  0  0  0  0  0  0  0  0  0  0  0
   -2.8579   -0.4125    0.0000 C   0  0  0  0  0  0  0  0  0  0  0  0
    0.7144   -4.9500    0.0000 O   0  0  0  0  0  0  0  0  0  0  0  0
   -0.0001   -5.3625    0.0000 C   0  0  0  0  0  0  0  0  0  0  0  0
    0.0000   -4.5375    0.0000 C   0  0  0  0  0  0  0  0  0  0  0  0
   -1.4289    0.4125    0.0000 C   0  0  1  0  0  0  0  0  0  0  0  0
    1.4289    0.4125    0.0000 C   0  0  1  0  0  0  0  0  0  0  0  0
   -1.4289    1.2375    0.0000 O   0  0  0  0  0  0  0  0  0  0  0  0
    1.4289    1.2375    0.0000 O   0  0  0  0  0  0  0  0  0  0  0  0
   -2.1434    0.8249    0.0000 C   0  0  0  0  0  0  0  0  0  0  0  0
    2.1434    0.8250    0.0000 C   0  0  0  0  0  0  0  0  0  0  0  0
    2.3555    0.1225    0.0000 H   0  0  0  0  0  0  0  0  0  0  0  0
    0.7145    0.2450    0.0000 H   0  0  0  0  0  0  0  0  0  0  0  0
   -0.2122    0.2900    0.0000 H   0  0  0  0  0  0  0  0  0  0  0  0
   -0.2121    1.3600    0.0000 H   0  0  0  0  0  0  0  0  0  0  0  0
    1.6412   -1.1150    0.0000 H   0  0  0  0  0  0  0  0  0  0  0  0
    1.6412    1.1150    0.0000 H   0  0  0  0  0  0  0  0  0  0  0  0
    0.9266   -2.5975    0.0000 H   0  0  0  0  0  0  0  0  0  0  0  0
   -0.7145    2.7200    0.0000 H   0  0  0  0  0  0  0  0  0  0  0  0
    0.2121    1.3600    0.0000 H   0  0  0  0  0  0  0  0  0  0  0  0
   -1.4290   -1.4825    0.0000 H   0  0  0  0  0  0  0  0  0  0  0  0
   -0.0000    0.6575    0.0000 H   0  0  0  0  0  0  0  0  0  0  0  0
   -0.9266   -0.9475    0.0000 H   0  0  0  0  0  0  0  0  0  0  0  0
   -0.9267    0.1225    0.0000 H   0  0  0  0  0  0  0  0  0  0  0  0
    2.8578   -1.4825    0.0000 H   0  0  0  0  0  0  0  0  0  0  0  0
    2.6457   -1.3600    0.0000 H   0  0  0  0  0  0  0  0  0  0  0  0
    2.3556    1.5275    0.0000 H   0  0  0  0  0  0  0  0  0  0  0  0
    1.4289    3.1325    0.0000 H   0  0  0  0  0  0  0  0  0  0  0  0
    2.3555    2.5975    0.0000 H   0  0  0  0  0  0  0  0  0  0  0  0
    0.5023   -2.3525    0.0000 H   0  0  0  0  0  0  0  0  0  0  0  0
   -0.9266   -3.4225    0.0000 H   0  0  0  0  0  0  0  0  0  0  0  0
    0.9266   -3.4225    0.0000 H   0  0  0  0  0  0  0  0  0  0  0  0
    0.0000   -3.9575    0.0000 H   0  0  0  0  0  0  0  0  0  0  0  0
    4.2868   -1.4825    0.0000 H   0  0  0  0  0  0  0  0  0  0  0  0
    2.7323   -2.1350    0.0000 H   0  0  0  0  0  0  0  0  0  0  0  0
    2.6457    1.3600    0.0000 H   0  0  0  0  0  0  0  0  0  0  0  0
   -0.2122   -2.7650    0.0000 H   0  0  0  0  0  0  0  0  0  0  0  0
   -0.2122   -3.8350    0.0000 H   0  0  0  0  0  0  0  0  0  0  0  0
    5.2134    0.9475    0.0000 H   0  0  0  0  0  0  0  0  0  0  0  0
    4.2868    1.4825    0.0000 H   0  0  0  0  0  0  0  0  0  0  0  0
    4.4989    2.1850    0.0000 H   0  0  0  0  0  0  0  0  0  0  0  0
    2.6457    2.1850    0.0000 H   0  0  0  0  0  0  0  0  0  0  0  0
    3.5723    2.7200    0.0000 H   0  0  0  0  0  0  0  0  0  0  0  0
   -1.4290    3.1325    0.0000 H   0  0  0  0  0  0  0  0  0  0  0  0
   -2.3556    1.5275    0.0000 H   0  0  0  0  0  0  0  0  0  0  0  0
   -2.3557    2.5975    0.0000 H   0  0  0  0  0  0  0  0  0  0  0  0
    3.0701   -3.5900    0.0000 H   0  0  0  0  0  0  0  0  0  0  0  0
    6.6424   -0.9475    0.0000 H   0  0  0  0  0  0  0  0  0  0  0  0
    5.7157    0.6575    0.0000 H   0  0  0  0  0  0  0  0  0  0  0  0
    6.6423    0.1225    0.0000 H   0  0  0  0  0  0  0  0  0  0  0  0
    4.0747   -2.1850    0.0000 H   0  0  0  0  0  0  0  0  0  0  0  0
    5.9279   -2.1850    0.0000 H   0  0  0  0  0  0  0  0  0  0  0  0
    5.0013   -2.7200    0.0000 H   0  0  0  0  0  0  0  0  0  0  0  0
    0.0000   -0.5575    0.0000 H   0  0  0  0  0  0  0  0  0  0  0  0
    2.3555   -5.0725    0.0000 H   0  0  0  0  0  0  0  0  0  0  0  0
    2.8578   -5.6075    0.0000 H   0  0  0  0  0  0  0  0  0  0  0  0
    3.7845   -4.0025    0.0000 H   0  0  0  0  0  0  0  0  0  0  0  0
    3.7844   -5.0725    0.0000 H   0  0  0  0  0  0  0  0  0  0  0  0
    0.5889   -5.8475    0.0000 H   0  0  0  0  0  0  0  0  0  0  0  0
    1.4289    1.8175    0.0000 H   0  0  0  0  0  0  0  0  0  0  0  0
    2.3555    2.3525    0.0000 H   0  0  0  0  0  0  0  0  0  0  0  0
    2.8578    1.8175    0.0000 H   0  0  0  0  0  0  0  0  0  0  0  0
    3.7844    2.3525    0.0000 H   0  0  0  0  0  0  0  0  0  0  0  0
    3.5723    4.3700    0.0000 H   0  0  0  0  0  0  0  0  0  0  0  0
    4.4989    3.8350    0.0000 H   0  0  0  0  0  0  0  0  0  0  0  0
    5.9279    2.7650    0.0000 H   0  0  0  0  0  0  0  0  0  0  0  0
    5.0013    4.3700    0.0000 H   0  0  0  0  0  0  0  0  0  0  0  0
    5.9280    3.8350    0.0000 H   0  0  0  0  0  0  0  0  0  0  0  0
   -2.1436   -1.8950    0.0000 H   0  0  0  0  0  0  0  0  0  0  0  0
   -3.0702   -1.3600    0.0000 H   0  0  0  0  0  0  0  0  0  0  0  0
   -2.8579    0.6575    0.0000 H   0  0  0  0  0  0  0  0  0  0  0  0
   -3.7846   -0.9475    0.0000 H   0  0  0  0  0  0  0  0  0  0  0  0
   -3.7845    0.1225    0.0000 H   0  0  0  0  0  0  0  0  0  0  0  0
   -0.9267   -4.8275    0.0000 H   0  0  0  0  0  0  0  0  0  0  0  0
   -0.0001   -6.4325    0.0000 H   0  0  0  0  0  0  0  0  0  0  0  0
   -0.9268   -5.8975    0.0000 H   0  0  0  0  0  0  0  0  0  0  0  0
   -0.9267   -4.0025    0.0000 H   0  0  0  0  0  0  0  0  0  0  0  0
    0.0000   -5.6075    0.0000 H   0  0  0  0  0  0  0  0  0  0  0  0
   -0.9266   -5.0725    0.0000 H   0  0  0  0  0  0  0  0  0  0  0  0
   -0.5889    1.7225    0.0000 H   0  0  0  0  0  0  0  0  0  0  0  0
    2.2689    1.7225    0.0000 H   0  0  0  0  0  0  0  0  0  0  0  0
   -2.1435    1.8949    0.0000 H   0  0  0  0  0  0  0  0  0  0  0  0
   -3.0700    0.2898    0.0000 H   0  0  0  0  0  0  0  0  0  0  0  0
   -3.0701    1.3598    0.0000 H   0  0  0  0  0  0  0  0  0  0  0  0
    3.0700    0.2900    0.0000 H   0  0  0  0  0  0  0  0  0  0  0  0
    2.1434    1.8950    0.0000 H   0  0  0  0  0  0  0  0  0  0  0  0
    3.0701    1.3600    0.0000 H   0  0  0  0  0  0  0  0  0  0  0  0
  1 13  1  0  0  0  0
  1 54  1  0  0  0  0
  1 59  1  1  0  0  0
  2  1  1  0  0  0  0
  2 14  1  0  0  0  0
  2  4  1  0  0  0  0
  2 60  1  1  0  0  0
  3  5  1  0  0  0  0
  3 61  1  0  0  0  0
  3 62  1  0  0  0  0
  4 16  1  0  0  0  0
  4  6  1  0  0  0  0
  4 63  1  1  0  0  0
  5 19  1  0  0  0  0
  5  7  1  0  0  0  0
  5 64  1  1  0  0  0
  6 21  1  0  0  0  0
  6  8  1  0  0  0  0
  6 65  1  6  0  0  0
  7 25  2  3  0  0  0
  8 28  2  0  0  0  0
  8 10  1  0  0  0  0
  9  7  1  0  0  0  0
  9 32  1  0  0  0  0
  9 66  1  6  0  0  0
 11  9  1  0  0  0  0
 11 36  1  0  0  0  0
 11 53  1  0  0  0  0
 11 67  1  6  0  0  0
 12 10  1  0  0  0  0
 12 48  1  0  0  0  0
 12 68  1  1  0  0  0
 14 69  1  0  0  0  0
 14 70  1  0  0  0  0
 14 71  1  0  0  0  0
 15 13  1  0  0  0  0
 15 17  1  0  0  0  0
 15 18  1  0  0  0  0
 15 72  1  1  0  0  0
 17 22  1  0  0  0  0
 17 23  1  0  0  0  0
 17 73  1  6  0  0  0
 18 24  1  0  0  0  0
 19 74  1  0  0  0  0
 19 75  1  0  0  0  0
 19 76  1  0  0  0  0
 20 16  1  0  0  0  0
 20 26  1  0  0  0  0
 20 27  1  0  0  0  0
 20 77  1  1  0  0  0
 21 78  1  0  0  0  0
 21 79  1  0  0  0  0
 21 80  1  0  0  0  0
 22 29  1  0  0  0  0
 22 30  1  0  0  0  0
 22 81  1  1  0  0  0
 23 82  1  0  0  0  0
 24 31  1  0  0  0  0
 24 29  1  0  0  0  0
 24 83  1  1  0  0  0
 25 41  1  0  0  0  0
 26 40  1  0  0  0  0
 26 84  1  0  0  0  0
 26 85  1  0  0  0  0
 27 33  1  0  0  0  0
 29 86  1  0  0  0  0
 29 87  1  0  0  0  0
 30 34  1  0  0  0  0
 30 35  1  0  0  0  0
 31 88  1  0  0  0  0
 31 89  1  0  0  0  0
 31 90  1  0  0  0  0
 32 91  1  0  0  0  0
 32 92  1  0  0  0  0
 32 93  1  0  0  0  0
 33 38  1  0  0  0  0
 33 37  1  0  0  0  0
 33 94  1  6  0  0  0
 34 95  1  0  0  0  0
 34 96  1  0  0  0  0
 34 97  1  0  0  0  0
 35 98  1  0  0  0  0
 35 99  1  0  0  0  0
 35100  1  0  0  0  0
 36101  1  0  0  0  0
 37 39  1  0  0  0  0
 37102  1  1  0  0  0
 38103  1  0  0  0  0
 38104  1  0  0  0  0
 38105  1  0  0  0  0
 39106  1  0  0  0  0
 40 37  1  0  0  0  0
 40 50  1  6  0  0  0
 40 52  1  0  0  0  0
 41 42  1  0  0  0  0
 42 43  1  0  0  0  0
 42107  1  0  0  0  0
 42108  1  0  0  0  0
 43 44  1  0  0  0  0
 44 45  1  0  0  0  0
 44109  1  0  0  0  0
 44110  1  0  0  0  0
 45 46  1  0  0  0  0
 45111  1  0  0  0  0
 45112  1  0  0  0  0
 46 47  1  0  0  0  0
 47113  1  0  0  0  0
 47114  1  0  0  0  0
 47115  1  0  0  0  0
 48 49  1  0  0  0  0
 48116  1  0  0  0  0
 48117  1  0  0  0  0
 49118  1  0  0  0  0
 49119  1  0  0  0  0
 49120  1  0  0  0  0
 50 51  1  0  0  0  0
 51121  1  0  0  0  0
 51122  1  0  0  0  0
 51123  1  0  0  0  0
 52124  1  0  0  0  0
 52125  1  0  0  0  0
 52126  1  0  0  0  0
 53 12  1  0  0  0  0
 53 57  1  0  0  0  0
 53 55  1  1  0  0  0
 54 58  1  0  0  0  0
 54  3  1  0  0  0  0
 54 56  1  1  0  0  0
 55127  1  0  0  0  0
 56128  1  0  0  0  0
 57129  1  0  0  0  0
 57130  1  0  0  0  0
 57131  1  0  0  0  0
 58132  1  0  0  0  0
 58133  1  0  0  0  0
 58134  1  0  0  0  0
M  END
>  <DRUGBANK_ID>
DB00778

>  <SECONDARY_ACCESSION_NUMBERS>
APRD01305

>  <COMMON_NAME>
Roxithromycin

>  <CAS_NUMBER>
80214-83-1

>  <UNII>
21KOF230FA

>  <SYNONYMS>
(9E)-erythromycin 9-(O-((2-methoxyethoxy)methyl)oxime); Roxithromycin; Roxithromycine; Roxithromycinum; Roxitromicina

$$$$
