
 OpenBabel10282417072D

 31 28  0  0  0  0  0  0  0  0999 V2000
   -2.0640   -0.2750    0.0000 C   0  0  0  0  0  0  0  0  0  0  0  0
   -1.3496    0.1375    0.0000 C   0  0  0  0  0  0  0  0  0  0  0  0
   -1.3496    0.9625    0.0000 O   0  0  0  0  0  0  0  0  0  0  0  0
   -0.6351   -0.2750    0.0000 C   0  0  0  0  0  0  0  0  0  0  0  0
    0.0794    0.1375    0.0000 C   0  0  0  0  0  0  0  0  0  0  0  0
    0.7939   -0.2750    0.0000 C   0  0  0  0  0  0  0  0  0  0  0  0
    0.7939   -1.1000    0.0000 O   0  0  0  0  0  0  0  0  0  0  0  0
    1.5083    0.1375    0.0000 O   0  5  0  0  0  0  0  0  0  0  0  0
    4.5799   -0.2062    0.0000 C   0  0  0  0  0  0  0  0  0  0  0  0
    5.2944    0.2063    0.0000 C   0  0  0  0  0  0  0  0  0  0  0  0
    5.2944    1.0313    0.0000 O   0  0  0  0  0  0  0  0  0  0  0  0
    6.0089   -0.2063    0.0000 C   0  0  0  0  0  0  0  0  0  0  0  0
    6.7234    0.2063    0.0000 C   0  0  0  0  0  0  0  0  0  0  0  0
    7.4378   -0.2063    0.0000 C   0  0  0  0  0  0  0  0  0  0  0  0
    8.1523    0.2062    0.0000 O   0  0  0  0  0  0  0  0  0  0  0  0
    7.4378   -1.0313    0.0000 O   0  5  0  0  0  0  0  0  0  0  0  0
    2.2228    0.5500    0.0000 Ca  0  2  0  0  0  0  0  0  0  0  0  0
   -2.9907    0.2600    0.0000 H   0  0  0  0  0  0  0  0  0  0  0  0
   -2.0640   -1.3450    0.0000 H   0  0  0  0  0  0  0  0  0  0  0  0
   -2.9906   -0.8100    0.0000 H   0  0  0  0  0  0  0  0  0  0  0  0
   -0.6351   -1.3450    0.0000 H   0  0  0  0  0  0  0  0  0  0  0  0
    0.2915   -0.8100    0.0000 H   0  0  0  0  0  0  0  0  0  0  0  0
    0.0794    1.2075    0.0000 H   0  0  0  0  0  0  0  0  0  0  0  0
    1.0060    0.6725    0.0000 H   0  0  0  0  0  0  0  0  0  0  0  0
    3.6533    0.3288    0.0000 H   0  0  0  0  0  0  0  0  0  0  0  0
    4.5799   -1.2762    0.0000 H   0  0  0  0  0  0  0  0  0  0  0  0
    3.6532   -0.7412    0.0000 H   0  0  0  0  0  0  0  0  0  0  0  0
    6.0089   -1.2763    0.0000 H   0  0  0  0  0  0  0  0  0  0  0  0
    6.9356   -0.7413    0.0000 H   0  0  0  0  0  0  0  0  0  0  0  0
    6.7234    1.2763    0.0000 H   0  0  0  0  0  0  0  0  0  0  0  0
    7.6501    0.7412    0.0000 H   0  0  0  0  0  0  0  0  0  0  0  0
  1  2  1  0  0  0  0
  1 18  1  0  0  0  0
  1 19  1  0  0  0  0
  1 20  1  0  0  0  0
  2  3  2  0  0  0  0
  2  4  1  0  0  0  0
  4  5  1  0  0  0  0
  4 21  1  0  0  0  0
  4 22  1  0  0  0  0
  5  6  1  0  0  0  0
  5 23  1  0  0  0  0
  5 24  1  0  0  0  0
  6  7  2  0  0  0  0
  6  8  1  0  0  0  0
  9 10  1  0  0  0  0
  9 25  1  0  0  0  0
  9 26  1  0  0  0  0
  9 27  1  0  0  0  0
 10 11  2  0  0  0  0
 10 12  1  0  0  0  0
 12 13  1  0  0  0  0
 12 28  1  0  0  0  0
 12 29  1  0  0  0  0
 13 14  1  0  0  0  0
 13 30  1  0  0  0  0
 13 31  1  0  0  0  0
 14 15  2  0  0  0  0
 14 16  1  0  0  0  0
M  CHG  3   8  -1  16  -1  17   2
M  END
>  <DRUGBANK_ID>
DB13800

>  <COMMON_NAME>
Calcium levulinate

>  <CAS_NUMBER>
591-64-0

>  <UNII>
LLQ966USIL

>  <SYNONYMS>
Calcium laevulate; Calcium levulinate anhydrous

$$$$
