
 OpenBabel10282417072D

 63 68  0  0  0  0  0  0  0  0999 V2000
    6.9947   -3.0437    0.0000 C   0  0  0  0  0  0  0  0  0  0  0  0
    6.2604   -2.6675    0.0000 N   0  0  0  0  0  0  0  0  0  0  0  0
    5.5675   -3.1153    0.0000 C   0  0  0  0  0  0  0  0  0  0  0  0
    4.8333   -2.7391    0.0000 C   0  0  0  0  0  0  0  0  0  0  0  0
    4.7919   -1.9151    0.0000 N   0  0  0  0  0  0  0  0  0  0  0  0
    5.4848   -1.4673    0.0000 C   0  0  0  0  0  0  0  0  0  0  0  0
    6.2191   -1.8435    0.0000 C   0  0  0  0  0  0  0  0  0  0  0  0
    4.0577   -1.5390    0.0000 C   0  0  0  0  0  0  0  0  0  0  0  0
    3.3648   -1.9867    0.0000 C   0  0  0  0  0  0  0  0  0  0  0  0
    2.6305   -1.6106    0.0000 N   0  0  0  0  0  0  0  0  0  0  0  0
    2.5892   -0.7866    0.0000 C   0  0  0  0  0  0  0  0  0  0  0  0
    1.8549   -0.4104    0.0000 N   0  0  0  0  0  0  0  0  0  0  0  0
    1.8136    0.4135    0.0000 C   0  0  0  0  0  0  0  0  0  0  0  0
    1.0794    0.7897    0.0000 N   0  0  0  0  0  0  0  0  0  0  0  0
    1.0380    1.6137    0.0000 C   0  0  0  0  0  0  0  0  0  0  0  0
    1.7309    2.0615    0.0000 C   0  0  0  0  0  0  0  0  0  0  0  0
    1.5192    2.8588    0.0000 C   0  0  0  0  0  0  0  0  0  0  0  0
    0.6954    2.9038    0.0000 C   0  0  0  0  0  0  0  0  0  0  0  0
    0.3980    2.1343    0.0000 N   0  0  0  0  0  0  0  0  0  0  0  0
   -0.4171    2.0070    0.0000 C   0  0  0  0  0  0  0  0  0  0  0  0
    0.1007    1.3647    0.0000 C   0  0  0  0  0  0  0  0  0  0  0  0
   -0.1967    0.5952    0.0000 C   0  0  0  0  0  0  0  0  0  0  0  0
   -1.0118    0.4680    0.0000 C   0  0  0  0  0  0  0  0  0  0  0  0
   -1.5296    1.1103    0.0000 C   0  0  0  0  0  0  0  0  0  0  0  0
   -1.2322    1.8798    0.0000 C   0  0  0  0  0  0  0  0  0  0  0  0
   -0.9349    2.6493    0.0000 C   0  0  0  0  0  0  0  0  0  0  0  0
   -0.6375    3.4189    0.0000 N   0  0  0  0  0  0  0  0  0  0  0  0
    0.1776    3.5461    0.0000 C   0  0  0  0  0  0  0  0  0  0  0  0
    0.4750    4.3157    0.0000 O   0  0  0  0  0  0  0  0  0  0  0  0
    2.4652    1.6853    0.0000 C   0  0  0  0  0  0  0  0  0  0  0  0
    2.5065    0.8613    0.0000 N   0  0  0  0  0  0  0  0  0  0  0  0
    3.2821   -0.3388    0.0000 C   0  0  0  0  0  0  0  0  0  0  0  0
    4.0163   -0.7150    0.0000 C   0  0  0  0  0  0  0  0  0  0  0  0
    7.0483   -4.1124    0.0000 H   0  0  0  0  0  0  0  0  0  0  0  0
    7.8934   -2.4629    0.0000 H   0  0  0  0  0  0  0  0  0  0  0  0
    7.9470   -3.5316    0.0000 H   0  0  0  0  0  0  0  0  0  0  0  0
    5.6211   -4.1840    0.0000 H   0  0  0  0  0  0  0  0  0  0  0  0
    4.6688   -3.6960    0.0000 H   0  0  0  0  0  0  0  0  0  0  0  0
    3.9346   -3.3199    0.0000 H   0  0  0  0  0  0  0  0  0  0  0  0
    3.8810   -2.2512    0.0000 H   0  0  0  0  0  0  0  0  0  0  0  0
    5.4312   -0.3986    0.0000 H   0  0  0  0  0  0  0  0  0  0  0  0
    6.3835   -0.8865    0.0000 H   0  0  0  0  0  0  0  0  0  0  0  0
    7.1178   -1.2628    0.0000 H   0  0  0  0  0  0  0  0  0  0  0  0
    7.1714   -2.3314    0.0000 H   0  0  0  0  0  0  0  0  0  0  0  0
    3.4165   -3.0174    0.0000 H   0  0  0  0  0  0  0  0  0  0  0  0
    1.0280   -0.9447    0.0000 H   0  0  0  0  0  0  0  0  0  0  0  0
    2.1705    3.6594    0.0000 H   0  0  0  0  0  0  0  0  0  0  0  0
    1.1579    1.5297    0.0000 H   0  0  0  0  0  0  0  0  0  0  0  0
    0.7722    0.5316    0.0000 H   0  0  0  0  0  0  0  0  0  0  0  0
    0.4748   -0.2379    0.0000 H   0  0  0  0  0  0  0  0  0  0  0  0
   -0.5824   -0.4029    0.0000 H   0  0  0  0  0  0  0  0  0  0  0  0
   -1.3975   -0.5301    0.0000 H   0  0  0  0  0  0  0  0  0  0  0  0
   -2.0690    0.3030    0.0000 H   0  0  0  0  0  0  0  0  0  0  0  0
   -2.5868    0.9453    0.0000 H   0  0  0  0  0  0  0  0  0  0  0  0
   -2.2011    1.9434    0.0000 H   0  0  0  0  0  0  0  0  0  0  0  0
   -1.9037    2.7129    0.0000 H   0  0  0  0  0  0  0  0  0  0  0  0
   -0.8465    2.8779    0.0000 H   0  0  0  0  0  0  0  0  0  0  0  0
   -1.9921    2.4843    0.0000 H   0  0  0  0  0  0  0  0  0  0  0  0
   -1.6064    3.4823    0.0000 H   0  0  0  0  0  0  0  0  0  0  0  0
   -1.2553    4.1854    0.0000 H   0  0  0  0  0  0  0  0  0  0  0  0
    3.3320    2.2454    0.0000 H   0  0  0  0  0  0  0  0  0  0  0  0
    3.2304    0.6919    0.0000 H   0  0  0  0  0  0  0  0  0  0  0  0
    4.8831   -0.1549    0.0000 H   0  0  0  0  0  0  0  0  0  0  0  0
  1  2  1  0  0  0  0
  1 34  1  0  0  0  0
  1 35  1  0  0  0  0
  1 36  1  0  0  0  0
  2  3  1  0  0  0  0
  2  7  1  0  0  0  0
  3  4  1  0  0  0  0
  3 37  1  0  0  0  0
  3 38  1  0  0  0  0
  4  5  1  0  0  0  0
  4 39  1  0  0  0  0
  4 40  1  0  0  0  0
  5  6  1  0  0  0  0
  5  8  1  0  0  0  0
  6  7  1  0  0  0  0
  6 41  1  0  0  0  0
  6 42  1  0  0  0  0
  7 43  1  0  0  0  0
  7 44  1  0  0  0  0
  8  9  2  0  0  0  0
  8 33  1  0  0  0  0
  9 10  1  0  0  0  0
  9 45  1  0  0  0  0
 10 11  2  0  0  0  0
 11 12  1  0  0  0  0
 11 32  1  0  0  0  0
 12 13  1  0  0  0  0
 12 46  1  0  0  0  0
 13 14  2  0  0  0  0
 13 31  1  0  0  0  0
 14 15  1  0  0  0  0
 15 16  2  0  0  0  0
 15 19  1  0  0  0  0
 16 17  1  0  0  0  0
 16 30  1  0  0  0  0
 17 18  2  0  0  0  0
 17 47  1  0  0  0  0
 18 19  1  0  0  0  0
 18 28  1  0  0  0  0
 19 20  1  0  0  0  0
 20 21  1  0  0  0  0
 20 25  1  0  0  0  0
 20 26  1  0  0  0  0
 21 22  1  0  0  0  0
 21 48  1  0  0  0  0
 21 49  1  0  0  0  0
 22 23  1  0  0  0  0
 22 50  1  0  0  0  0
 22 51  1  0  0  0  0
 23 24  1  0  0  0  0
 23 52  1  0  0  0  0
 23 53  1  0  0  0  0
 24 25  1  0  0  0  0
 24 54  1  0  0  0  0
 24 55  1  0  0  0  0
 25 56  1  0  0  0  0
 25 57  1  0  0  0  0
 26 27  1  0  0  0  0
 26 58  1  0  0  0  0
 26 59  1  0  0  0  0
 27 28  1  0  0  0  0
 27 60  1  0  0  0  0
 28 29  2  0  0  0  0
 30 31  2  0  0  0  0
 30 61  1  0  0  0  0
 32 33  2  0  0  0  0
 32 62  1  0  0  0  0
 33 63  1  0  0  0  0
M  END
>  <DRUGBANK_ID>
DB15442

>  <COMMON_NAME>
Trilaciclib

>  <CAS_NUMBER>
1374743-00-6

>  <UNII>
U6072DO9XG

>  <SYNONYMS>
Trilaciclib

$$$$
