
 OpenBabel10282417072D

 30 29  0  0  0  0  0  0  0  0999 V2000
   -2.8578    0.8745    0.0000 O   0  0  0  0  0  0  0  0  0  0  0  0
   -2.1433   -0.3630    0.0000 N   0  0  0  0  0  0  0  0  0  0  0  0
    0.0000    0.0495    0.0000 C   0  0  0  0  0  0  0  0  0  0  0  0
   -0.7144   -0.3630    0.0000 C   0  0  0  0  0  0  0  0  0  0  0  0
    0.7145   -0.3630    0.0000 C   0  0  0  0  0  0  0  0  0  0  0  0
   -1.4289    0.0495    0.0000 C   0  0  1  0  0  0  0  0  0  0  0  0
    1.4289    0.0495    0.0000 C   0  0  0  0  0  0  0  0  0  0  0  0
    2.1434   -0.3630    0.0000 C   0  0  0  0  0  0  0  0  0  0  0  0
   -1.4289    0.8745    0.0000 C   0  0  0  0  0  0  0  0  0  0  0  0
    2.8578    0.0495    0.0000 C   0  0  0  0  0  0  0  0  0  0  0  0
   -2.8578    0.0495    0.0000 C   0  0  0  0  0  0  0  0  0  0  0  0
   -2.1433   -0.8745    0.0000 H   0  0  0  0  0  0  0  0  0  0  0  0
   -0.0000    1.1195    0.0000 H   0  0  0  0  0  0  0  0  0  0  0  0
    0.9266    0.5845    0.0000 H   0  0  0  0  0  0  0  0  0  0  0  0
   -0.7144   -1.4330    0.0000 H   0  0  0  0  0  0  0  0  0  0  0  0
   -1.6410   -0.8980    0.0000 H   0  0  0  0  0  0  0  0  0  0  0  0
    0.7145   -1.4330    0.0000 H   0  0  0  0  0  0  0  0  0  0  0  0
    1.6412   -0.8980    0.0000 H   0  0  0  0  0  0  0  0  0  0  0  0
   -1.4289   -1.0205    0.0000 H   0  0  0  0  0  0  0  0  0  0  0  0
    1.4289    1.1195    0.0000 H   0  0  0  0  0  0  0  0  0  0  0  0
    2.3555    0.5845    0.0000 H   0  0  0  0  0  0  0  0  0  0  0  0
    2.1434   -1.4330    0.0000 H   0  0  0  0  0  0  0  0  0  0  0  0
    3.0701   -0.8980    0.0000 H   0  0  0  0  0  0  0  0  0  0  0  0
   -0.5023    1.4095    0.0000 H   0  0  0  0  0  0  0  0  0  0  0  0
   -2.3555    1.4095    0.0000 H   0  0  0  0  0  0  0  0  0  0  0  0
   -1.4289    1.9445    0.0000 H   0  0  0  0  0  0  0  0  0  0  0  0
    3.7845   -0.4855    0.0000 H   0  0  0  0  0  0  0  0  0  0  0  0
    2.8578    1.1195    0.0000 H   0  0  0  0  0  0  0  0  0  0  0  0
    3.7844    0.5845    0.0000 H   0  0  0  0  0  0  0  0  0  0  0  0
   -3.7515   -0.4665    0.0000 H   0  0  0  0  0  0  0  0  0  0  0  0
  1 11  2  0  0  0  0
  2 11  1  0  0  0  0
  2 12  1  0  0  0  0
  3  4  1  0  0  0  0
  3  5  1  0  0  0  0
  3 13  1  0  0  0  0
  3 14  1  0  0  0  0
  4  6  1  0  0  0  0
  4 15  1  0  0  0  0
  4 16  1  0  0  0  0
  5  7  1  0  0  0  0
  5 17  1  0  0  0  0
  5 18  1  0  0  0  0
  6  2  1  0  0  0  0
  6  9  1  0  0  0  0
  6 19  1  1  0  0  0
  7  8  1  0  0  0  0
  7 20  1  0  0  0  0
  7 21  1  0  0  0  0
  8 10  1  0  0  0  0
  8 22  1  0  0  0  0
  8 23  1  0  0  0  0
  9 24  1  0  0  0  0
  9 25  1  0  0  0  0
  9 26  1  0  0  0  0
 10 27  1  0  0  0  0
 10 28  1  0  0  0  0
 10 29  1  0  0  0  0
 11 30  1  0  0  0  0
M  END
>  <DRUGBANK_ID>
DB02131

>  <SECONDARY_ACCESSION_NUMBERS>
EXPT01516

>  <COMMON_NAME>
N-1-methylheptylformamide

>  <SYNONYMS>
(R)-(-)-2-Octyl isocyanate

$$$$
