
 OpenBabel10282417072D

 20 20  0  0  0  0  0  0  0  0999 V2000
   -1.4289   -1.2374    0.0000 C   0  0  0  0  0  0  0  0  0  0  0  0
   -2.1434   -0.8250    0.0000 C   0  0  0  0  0  0  0  0  0  0  0  0
   -0.7144   -0.8250    0.0000 C   0  0  0  0  0  0  0  0  0  0  0  0
   -0.7144    0.0000    0.0000 C   0  0  0  0  0  0  0  0  0  0  0  0
   -1.4289    0.4125    0.0000 C   0  0  0  0  0  0  0  0  0  0  0  0
   -2.1434    0.0000    0.0000 C   0  0  0  0  0  0  0  0  0  0  0  0
    0.0000    0.4125    0.0000 C   0  0  0  0  0  0  0  0  0  0  0  0
    0.7144   -0.8250    0.0000 O   0  0  0  0  0  0  0  0  0  0  0  0
    0.7144    0.0000    0.0000 C   0  0  0  0  0  0  0  0  0  0  0  0
    1.4289    0.4125    0.0000 C   0  0  0  0  0  0  0  0  0  0  0  0
    1.4289    1.2374    0.0000 O   0  0  0  0  0  0  0  0  0  0  0  0
    2.1434    0.0000    0.0000 O   0  0  0  0  0  0  0  0  0  0  0  0
   -1.4289   -2.2694    0.0000 H   0  0  0  0  0  0  0  0  0  0  0  0
   -3.0371   -1.3411    0.0000 H   0  0  0  0  0  0  0  0  0  0  0  0
    0.1793   -1.3411    0.0000 H   0  0  0  0  0  0  0  0  0  0  0  0
   -1.4289    1.4445    0.0000 H   0  0  0  0  0  0  0  0  0  0  0  0
   -3.0371    0.5160    0.0000 H   0  0  0  0  0  0  0  0  0  0  0  0
    0.0000    1.4825    0.0000 H   0  0  0  0  0  0  0  0  0  0  0  0
    0.9267    0.9475    0.0000 H   0  0  0  0  0  0  0  0  0  0  0  0
    2.1434   -0.9370    0.0000 H   0  0  0  0  0  0  0  0  0  0  0  0
  1  3  2  0  0  0  0
  1 13  1  0  0  0  0
  2  1  1  0  0  0  0
  2 14  1  0  0  0  0
  3 15  1  0  0  0  0
  4  3  1  0  0  0  0
  5  4  2  0  0  0  0
  5  6  1  0  0  0  0
  5 16  1  0  0  0  0
  6  2  2  0  0  0  0
  6 17  1  0  0  0  0
  7  4  1  0  0  0  0
  7  9  1  0  0  0  0
  7 18  1  0  0  0  0
  7 19  1  0  0  0  0
  9  8  2  0  0  0  0
  9 10  1  0  0  0  0
 11 10  2  0  0  0  0
 12 10  1  0  0  0  0
 12 20  1  0  0  0  0
M  END
>  <DRUGBANK_ID>
DB03884

>  <SECONDARY_ACCESSION_NUMBERS>
EXPT02649

>  <COMMON_NAME>
Phenylpyruvic acid

>  <CAS_NUMBER>
156-06-9

>  <UNII>
X7CO62M413

>  <SYNONYMS>
2-oxo-3-phenylpropanic acid; 3-phenyl-2-oxopropanoate; 3-phenyl-2-oxopropanoic acid; 3-phenylpyruvic acid; alpha-Ketohydrocinnamic acid; keto-Phenylpyruvate; keto-phenylpyruvic acid; Phenylbrenztraubensäure; Phenylpyruvate; Phenylpyruvic acid; α-oxo-benzenepropanoic acid; β-phenylpyruvic acid

$$$$
