
 OpenBabel10282417072D

 56 58  0  0  0  0  0  0  0  0999 V2000
   -2.2059    1.5331    0.0000 C   0  0  0  0  0  0  0  0  0  0  0  0
   -2.9204    1.1206    0.0000 C   0  0  0  0  0  0  0  0  0  0  0  0
   -2.9204    0.2956    0.0000 C   0  0  0  0  0  0  0  0  0  0  0  0
   -2.2059   -0.1168    0.0000 C   0  0  0  0  0  0  0  0  0  0  0  0
   -1.4914    0.2956    0.0000 C   0  0  0  0  0  0  0  0  0  0  0  0
   -1.4914    1.1206    0.0000 C   0  0  0  0  0  0  0  0  0  0  0  0
   -3.6349    1.5331    0.0000 O   0  0  0  0  0  0  0  0  0  0  0  0
   -4.3494    1.1206    0.0000 C   0  0  0  0  0  0  0  0  0  0  0  0
   -3.6349   -0.1168    0.0000 O   0  0  0  0  0  0  0  0  0  0  0  0
   -3.6349   -0.9418    0.0000 C   0  0  0  0  0  0  0  0  0  0  0  0
   -0.7770   -0.1168    0.0000 C   0  0  0  0  0  0  0  0  0  0  0  0
   -0.0625    0.2956    0.0000 C   0  0  0  0  0  0  0  0  0  0  0  0
    0.6519   -0.1168    0.0000 O   0  0  0  0  0  0  0  0  0  0  0  0
    1.3663    0.2956    0.0000 C   0  0  2  0  0  0  0  0  0  0  0  0
    2.6039    1.0101    0.0000 C   0  0  0  0  0  0  0  0  0  0  0  0
    2.1914    1.7245    0.0000 C   0  0  0  0  0  0  0  0  0  0  0  0
    1.3663    1.7245    0.0000 C   0  0  0  0  0  0  0  0  0  0  0  0
    0.9538    1.0101    0.0000 C   0  0  0  0  0  0  0  0  0  0  0  0
    2.1914    0.2956    0.0000 C   0  0  1  0  0  0  0  0  0  0  0  0
    2.6039   -0.4188    0.0000 N   0  0  3  0  0  0  0  0  0  0  0  0
    2.2683   -1.1725    0.0000 C   0  0  0  0  0  0  0  0  0  0  0  0
    2.8814   -1.7245    0.0000 C   0  0  0  0  0  0  0  0  0  0  0  0
    3.5958   -1.3120    0.0000 C   0  0  2  0  0  0  0  0  0  0  0  0
    3.4243   -0.5050    0.0000 C   0  0  0  0  0  0  0  0  0  0  0  0
    4.3495   -1.6475    0.0000 O   0  0  0  0  0  0  0  0  0  0  0  0
   -2.2059    2.5651    0.0000 H   0  0  0  0  0  0  0  0  0  0  0  0
   -2.2059   -1.1488    0.0000 H   0  0  0  0  0  0  0  0  0  0  0  0
   -0.5977    1.6366    0.0000 H   0  0  0  0  0  0  0  0  0  0  0  0
   -5.2760    1.6556    0.0000 H   0  0  0  0  0  0  0  0  0  0  0  0
   -4.3494    0.0506    0.0000 H   0  0  0  0  0  0  0  0  0  0  0  0
   -5.2761    0.5856    0.0000 H   0  0  0  0  0  0  0  0  0  0  0  0
   -4.5615   -1.4768    0.0000 H   0  0  0  0  0  0  0  0  0  0  0  0
   -2.7083   -1.4768    0.0000 H   0  0  0  0  0  0  0  0  0  0  0  0
   -3.6349   -2.0118    0.0000 H   0  0  0  0  0  0  0  0  0  0  0  0
   -0.7770   -1.1868    0.0000 H   0  0  0  0  0  0  0  0  0  0  0  0
    0.1496   -0.6519    0.0000 H   0  0  0  0  0  0  0  0  0  0  0  0
   -0.0625    1.3656    0.0000 H   0  0  0  0  0  0  0  0  0  0  0  0
    0.8641    0.8306    0.0000 H   0  0  0  0  0  0  0  0  0  0  0  0
    0.3328    0.5726    0.0000 H   0  0  0  0  0  0  0  0  0  0  0  0
    3.6739    1.0101    0.0000 H   0  0  0  0  0  0  0  0  0  0  0  0
    3.1389    0.0835    0.0000 H   0  0  0  0  0  0  0  0  0  0  0  0
    2.7264    2.6512    0.0000 H   0  0  0  0  0  0  0  0  0  0  0  0
    1.6564    2.6511    0.0000 H   0  0  0  0  0  0  0  0  0  0  0  0
    0.8313    2.6512    0.0000 H   0  0  0  0  0  0  0  0  0  0  0  0
    0.2963    1.7245    0.0000 H   0  0  0  0  0  0  0  0  0  0  0  0
   -0.1162    1.0101    0.0000 H   0  0  0  0  0  0  0  0  0  0  0  0
    0.4188    1.9368    0.0000 H   0  0  0  0  0  0  0  0  0  0  0  0
    1.6564   -0.6311    0.0000 H   0  0  0  0  0  0  0  0  0  0  0  0
    1.2217   -1.3950    0.0000 H   0  0  0  0  0  0  0  0  0  0  0  0
    1.9914   -2.2060    0.0000 H   0  0  0  0  0  0  0  0  0  0  0  0
    2.7696   -2.7886    0.0000 H   0  0  0  0  0  0  0  0  0  0  0  0
    3.7788   -2.3072    0.0000 H   0  0  0  0  0  0  0  0  0  0  0  0
    3.6519   -2.3805    0.0000 H   0  0  0  0  0  0  0  0  0  0  0  0
    4.1403    0.2902    0.0000 H   0  0  0  0  0  0  0  0  0  0  0  0
    4.4578   -0.7820    0.0000 H   0  0  0  0  0  0  0  0  0  0  0  0
    4.4510   -2.6122    0.0000 H   0  0  0  0  0  0  0  0  0  0  0  0
  1  2  1  0  0  0  0
  1  6  2  0  0  0  0
  1 26  1  0  0  0  0
  2  3  2  0  0  0  0
  2  7  1  0  0  0  0
  3  4  1  0  0  0  0
  3  9  1  0  0  0  0
  4  5  2  0  0  0  0
  4 27  1  0  0  0  0
  5  6  1  0  0  0  0
  5 11  1  0  0  0  0
  6 28  1  0  0  0  0
  7  8  1  0  0  0  0
  8 29  1  0  0  0  0
  8 30  1  0  0  0  0
  8 31  1  0  0  0  0
  9 10  1  0  0  0  0
 10 32  1  0  0  0  0
 10 33  1  0  0  0  0
 10 34  1  0  0  0  0
 11 12  1  0  0  0  0
 11 35  1  0  0  0  0
 11 36  1  0  0  0  0
 12 13  1  0  0  0  0
 12 37  1  0  0  0  0
 12 38  1  0  0  0  0
 14 13  1  0  0  0  0
 14 19  1  0  0  0  0
 14 39  1  1  0  0  0
 15 16  1  0  0  0  0
 15 40  1  0  0  0  0
 15 41  1  0  0  0  0
 16 17  1  0  0  0  0
 16 42  1  0  0  0  0
 16 43  1  0  0  0  0
 17 18  1  0  0  0  0
 17 44  1  0  0  0  0
 17 45  1  0  0  0  0
 18 14  1  0  0  0  0
 18 46  1  0  0  0  0
 18 47  1  0  0  0  0
 19 15  1  0  0  0  0
 19 20  1  0  0  0  0
 19 48  1  6  0  0  0
 20 21  1  0  0  0  0
 20 24  1  0  0  0  0
 21 22  1  0  0  0  0
 21 49  1  0  0  0  0
 21 50  1  0  0  0  0
 22 23  1  0  0  0  0
 22 51  1  0  0  0  0
 22 52  1  0  0  0  0
 23 24  1  0  0  0  0
 23 25  1  0  0  0  0
 23 53  1  1  0  0  0
 24 54  1  0  0  0  0
 24 55  1  0  0  0  0
 25 56  1  0  0  0  0
M  END
>  <DRUGBANK_ID>
DB06217

>  <COMMON_NAME>
Vernakalant

>  <CAS_NUMBER>
794466-70-9

>  <UNII>
9G468C8B13

>  <SYNONYMS>
(3R)-1-((1R,2R)-2-(2-(3,4-dimethoxyphenyl)ethoxy)cyclohexyl)pyrrolidin-3-ol; Vernakalant

$$$$
