LIB
 OpenBabel10282417072D

 58 60  0  0  0  0  0  0  0  0999 V2000
    0.2618   -0.5855    0.0000 N   0  0  0  0  0  0  0  0  0  0  0  0
    0.2618    1.8895    0.0000 C   0  0  0  0  0  0  0  0  0  0  0  0
   -0.4526    0.6520    0.0000 C   0  0  0  0  0  0  0  0  0  0  0  0
    0.9763    0.6520    0.0000 C   0  0  0  0  0  0  0  0  0  0  0  0
    0.9763    1.4770    0.0000 C   0  0  0  0  0  0  0  0  0  0  0  0
   -0.4526    1.4770    0.0000 C   0  0  0  0  0  0  0  0  0  0  0  0
    2.4052   -0.9980    0.0000 C   0  0  0  0  0  0  0  0  0  0  0  0
    3.8342   -1.8230    0.0000 C   0  0  0  0  0  0  0  0  0  0  0  0
    3.1197   -0.5855    0.0000 C   0  0  0  0  0  0  0  0  0  0  0  0
    3.1197   -2.2355    0.0000 C   0  0  0  0  0  0  0  0  0  0  0  0
    3.1197    0.2395    0.0000 Cl  0  0  0  0  0  0  0  0  0  0  0  0
    3.8342   -0.9980    0.0000 C   0  0  0  0  0  0  0  0  0  0  0  0
    2.4052   -1.8230    0.0000 C   0  0  0  0  0  0  0  0  0  0  0  0
    1.6908   -0.5855    0.0000 N   0  0  0  0  0  0  0  0  0  0  0  0
    0.9763   -0.9980    0.0000 C   0  0  0  0  0  0  0  0  0  0  0  0
    0.9763   -1.8230    0.0000 O   0  0  0  0  0  0  0  0  0  0  0  0
    0.2618    0.2395    0.0000 C   0  0  0  0  0  0  0  0  0  0  0  0
    0.2618    2.7145    0.0000 O   0  0  0  0  0  0  0  0  0  0  0  0
   -0.4526    3.1270    0.0000 C   0  0  0  0  0  0  0  0  0  0  0  0
   -0.4526   -0.9980    0.0000 C   0  0  0  0  0  0  0  0  0  0  0  0
   -0.4526   -1.8230    0.0000 C   0  0  0  0  0  0  0  0  0  0  0  0
   -1.1671   -2.2355    0.0000 C   0  0  0  0  0  0  0  0  0  0  0  0
   -1.8816   -1.8230    0.0000 N   0  0  0  0  0  0  0  0  0  0  0  0
   -1.8816   -0.9980    0.0000 C   0  0  0  0  0  0  0  0  0  0  0  0
   -1.1671   -0.5855    0.0000 N   0  0  0  0  0  0  0  0  0  0  0  0
   -2.5961   -0.5855    0.0000 N   0  0  0  0  0  0  0  0  0  0  0  0
   -2.5961    0.2395    0.0000 C   0  0  1  0  0  0  0  0  0  0  0  0
   -1.8816    0.6520    0.0000 C   0  0  0  0  0  0  0  0  0  0  0  0
   -3.3105    0.6520    0.0000 C   0  0  0  0  0  0  0  0  0  0  0  0
   -4.0250    1.0645    0.0000 C   0  0  0  0  0  0  0  0  0  0  0  0
   -2.8980    1.3664    0.0000 C   0  0  0  0  0  0  0  0  0  0  0  0
   -3.7230   -0.0625    0.0000 O   0  0  0  0  0  0  0  0  0  0  0  0
   -2.0904   -0.0525    0.0000 H   0  0  0  0  0  0  0  0  0  0  0  0
   -1.3463    0.1360    0.0000 H   0  0  0  0  0  0  0  0  0  0  0  0
    1.8700    0.1360    0.0000 H   0  0  0  0  0  0  0  0  0  0  0  0
    1.8700    1.9930    0.0000 H   0  0  0  0  0  0  0  0  0  0  0  0
   -1.3463    1.9930    0.0000 H   0  0  0  0  0  0  0  0  0  0  0  0
    4.7279   -2.3390    0.0000 H   0  0  0  0  0  0  0  0  0  0  0  0
    3.1197   -3.2675    0.0000 H   0  0  0  0  0  0  0  0  0  0  0  0
    4.7279   -0.4820    0.0000 H   0  0  0  0  0  0  0  0  0  0  0  0
    1.5115   -2.3390    0.0000 H   0  0  0  0  0  0  0  0  0  0  0  0
    1.6908    0.3990    0.0000 H   0  0  0  0  0  0  0  0  0  0  0  0
   -0.4526    4.1970    0.0000 H   0  0  0  0  0  0  0  0  0  0  0  0
   -1.3793    2.5920    0.0000 H   0  0  0  0  0  0  0  0  0  0  0  0
   -1.3792    3.6620    0.0000 H   0  0  0  0  0  0  0  0  0  0  0  0
    0.4411   -2.3390    0.0000 H   0  0  0  0  0  0  0  0  0  0  0  0
   -1.1671   -3.2675    0.0000 H   0  0  0  0  0  0  0  0  0  0  0  0
   -3.4487   -1.0778    0.0000 H   0  0  0  0  0  0  0  0  0  0  0  0
   -0.9550    0.1170    0.0000 H   0  0  0  0  0  0  0  0  0  0  0  0
   -1.8816    1.7220    0.0000 H   0  0  0  0  0  0  0  0  0  0  0  0
   -0.9549    1.1870    0.0000 H   0  0  0  0  0  0  0  0  0  0  0  0
   -4.0250    2.1345    0.0000 H   0  0  0  0  0  0  0  0  0  0  0  0
   -4.9516    0.5295    0.0000 H   0  0  0  0  0  0  0  0  0  0  0  0
   -4.9517    1.5995    0.0000 H   0  0  0  0  0  0  0  0  0  0  0  0
   -1.8280    1.3664    0.0000 H   0  0  0  0  0  0  0  0  0  0  0  0
   -3.4330    2.2931    0.0000 H   0  0  0  0  0  0  0  0  0  0  0  0
   -2.3630    2.2930    0.0000 H   0  0  0  0  0  0  0  0  0  0  0  0
   -4.6930   -0.0625    0.0000 H   0  0  0  0  0  0  0  0  0  0  0  0
  1 15  1  0  0  0  0
  1 17  1  0  0  0  0
  1 20  1  0  0  0  0
  2  5  2  0  0  0  0
  2  6  1  0  0  0  0
  2 18  1  0  0  0  0
  3  6  2  0  0  0  0
  3 17  1  0  0  0  0
  3 34  1  0  0  0  0
  4  5  1  0  0  0  0
  4 17  2  0  0  0  0
  4 35  1  0  0  0  0
  5 36  1  0  0  0  0
  6 37  1  0  0  0  0
  7  9  1  0  0  0  0
  7 13  2  0  0  0  0
  7 14  1  0  0  0  0
  8 10  2  0  0  0  0
  8 12  1  0  0  0  0
  8 38  1  0  0  0  0
  9 11  1  0  0  0  0
  9 12  2  0  0  0  0
 10 13  1  0  0  0  0
 10 39  1  0  0  0  0
 12 40  1  0  0  0  0
 13 41  1  0  0  0  0
 14 15  1  0  0  0  0
 14 42  1  0  0  0  0
 15 16  2  0  0  0  0
 18 19  1  0  0  0  0
 19 43  1  0  0  0  0
 19 44  1  0  0  0  0
 19 45  1  0  0  0  0
 20 21  1  0  0  0  0
 20 25  2  0  0  0  0
 21 22  2  0  0  0  0
 21 46  1  0  0  0  0
 22 23  1  0  0  0  0
 22 47  1  0  0  0  0
 23 24  2  0  0  0  0
 24 25  1  0  0  0  0
 24 26  1  0  0  0  0
 26 27  1  0  0  0  0
 26 48  1  0  0  0  0
 27 28  1  0  0  0  0
 27 29  1  0  0  0  0
 27 33  1  1  0  0  0
 28 49  1  0  0  0  0
 28 50  1  0  0  0  0
 28 51  1  0  0  0  0
 29 30  1  0  0  0  0
 29 31  1  0  0  0  0
 29 32  1  0  0  0  0
 30 52  1  0  0  0  0
 30 53  1  0  0  0  0
 30 54  1  0  0  0  0
 31 55  1  0  0  0  0
 31 56  1  0  0  0  0
 31 57  1  0  0  0  0
 32 58  1  0  0  0  0
M  END
>  <DRUGBANK_ID>
DB08095

>  <COMMON_NAME>
3-(2-CHLOROPHENYL)-1-(2-{[(1S)-2-HYDROXY-1,2-DIMETHYLPROPYL]AMINO}PYRIMIDIN-4-YL)-1-(4-METHOXYPHENYL)UREA

$$$$
