
 OpenBabel10282417072D

 72 74  0  0  1  0  0  0  0  0999 V2000
   -1.0890    1.2765    0.0000 C   0  0  0  0  0  0  0  0  0  0  0  0
   -1.0890   -0.3735    0.0000 C   0  0  0  0  0  0  0  0  0  0  0  0
    0.4101   -0.2159    0.0000 C   0  0  0  0  0  0  0  0  0  0  0  0
    0.8950    0.4515    0.0000 C   0  0  0  0  0  0  0  0  0  0  0  0
   -1.8035    0.8640    0.0000 C   0  0  0  0  0  0  0  0  0  0  0  0
   -1.0890   -1.1985    0.0000 C   0  0  0  0  0  0  0  0  0  0  0  0
   -1.8035    0.0390    0.0000 C   0  0  0  0  0  0  0  0  0  0  0  0
   -1.8035   -1.6110    0.0000 C   0  0  0  0  0  0  0  0  0  0  0  0
   -1.8035   -2.4360    0.0000 C   0  0  0  0  0  0  0  0  0  0  0  0
   -1.0890   -2.8485    0.0000 C   0  0  0  0  0  0  0  0  0  0  0  0
   -2.5179   -2.8485    0.0000 C   0  0  0  0  0  0  0  0  0  0  0  0
   -1.0890   -3.6735    0.0000 C   0  0  0  0  0  0  0  0  0  0  0  0
   -0.3745   -2.4360    0.0000 C   0  0  0  0  0  0  0  0  0  0  0  0
   -2.5179   -3.6735    0.0000 C   0  0  2  0  0  0  0  0  0  0  0  0
   -1.8035   -4.0860    0.0000 C   0  0  0  0  0  0  0  0  0  0  0  0
   -3.2324   -4.0860    0.0000 O   0  0  0  0  0  0  0  0  0  0  0  0
   -0.3044    2.3565    0.0000 C   0  0  0  0  0  0  0  0  0  0  0  0
    0.4101    1.9440    0.0000 C   0  0  2  0  0  0  0  0  0  0  0  0
    1.1246    2.3565    0.0000 C   0  0  0  0  0  0  0  0  0  0  0  0
    1.8390    1.9440    0.0000 C   0  0  0  0  0  0  0  0  0  0  0  0
    3.9825    2.3565    0.0000 C   0  0  0  0  0  0  0  0  0  0  0  0
    3.2680    1.9440    0.0000 C   0  0  0  0  0  0  0  0  0  0  0  0
    3.2680    1.1190    0.0000 C   0  0  0  0  0  0  0  0  0  0  0  0
    2.5535    2.3565    0.0000 C   0  0  0  0  0  0  0  0  0  0  0  0
    0.4101    1.1190    0.0000 C   0  0  2  0  0  0  0  0  0  0  0  0
    1.1246    1.5315    0.0000 H   0  0  0  0  0  0  0  0  0  0  0  0
   -0.3745    0.0390    0.0000 C   0  0  2  0  0  0  0  0  0  0  0  0
   -0.3745   -0.7860    0.0000 H   0  0  0  0  0  0  0  0  0  0  0  0
   -0.3745    0.8640    0.0000 C   0  0  2  0  0  0  0  0  0  0  0  0
   -0.3745    1.6890    0.0000 C   0  0  0  0  0  0  0  0  0  0  0  0
   -1.0890    2.3465    0.0000 H   0  0  0  0  0  0  0  0  0  0  0  0
   -2.0156    1.8115    0.0000 H   0  0  0  0  0  0  0  0  0  0  0  0
    0.7408   -1.2335    0.0000 H   0  0  0  0  0  0  0  0  0  0  0  0
    1.4669   -0.3833    0.0000 H   0  0  0  0  0  0  0  0  0  0  0  0
    1.9650    0.4515    0.0000 H   0  0  0  0  0  0  0  0  0  0  0  0
    1.3808   -0.5019    0.0000 H   0  0  0  0  0  0  0  0  0  0  0  0
   -2.7301    1.3990    0.0000 H   0  0  0  0  0  0  0  0  0  0  0  0
   -2.7301    0.3290    0.0000 H   0  0  0  0  0  0  0  0  0  0  0  0
   -0.1953   -1.7145    0.0000 H   0  0  0  0  0  0  0  0  0  0  0  0
   -2.7301   -0.4960    0.0000 H   0  0  0  0  0  0  0  0  0  0  0  0
   -2.7301    0.5740    0.0000 H   0  0  0  0  0  0  0  0  0  0  0  0
   -2.6972   -1.0950    0.0000 H   0  0  0  0  0  0  0  0  0  0  0  0
   -3.4446   -2.3135    0.0000 H   0  0  0  0  0  0  0  0  0  0  0  0
   -3.4445   -3.3835    0.0000 H   0  0  0  0  0  0  0  0  0  0  0  0
   -0.1624   -4.2085    0.0000 H   0  0  0  0  0  0  0  0  0  0  0  0
   -1.0890   -4.7435    0.0000 H   0  0  0  0  0  0  0  0  0  0  0  0
    0.5192   -2.9520    0.0000 H   0  0  0  0  0  0  0  0  0  0  0  0
   -0.3745   -1.4040    0.0000 H   0  0  0  0  0  0  0  0  0  0  0  0
   -3.4445   -3.1385    0.0000 H   0  0  0  0  0  0  0  0  0  0  0  0
   -1.8035   -5.1560    0.0000 H   0  0  0  0  0  0  0  0  0  0  0  0
   -2.7302   -4.6210    0.0000 H   0  0  0  0  0  0  0  0  0  0  0  0
   -4.0724   -3.6010    0.0000 H   0  0  0  0  0  0  0  0  0  0  0  0
   -0.3044    3.4265    0.0000 H   0  0  0  0  0  0  0  0  0  0  0  0
   -1.2310    1.8215    0.0000 H   0  0  0  0  0  0  0  0  0  0  0  0
   -1.2311    2.8915    0.0000 H   0  0  0  0  0  0  0  0  0  0  0  0
   -0.5165    1.4090    0.0000 H   0  0  0  0  0  0  0  0  0  0  0  0
    1.1246    3.4265    0.0000 H   0  0  0  0  0  0  0  0  0  0  0  0
    2.0513    2.8915    0.0000 H   0  0  0  0  0  0  0  0  0  0  0  0
    1.8390    0.8740    0.0000 H   0  0  0  0  0  0  0  0  0  0  0  0
    2.7656    1.4090    0.0000 H   0  0  0  0  0  0  0  0  0  0  0  0
    4.9091    1.8215    0.0000 H   0  0  0  0  0  0  0  0  0  0  0  0
    3.9825    3.4265    0.0000 H   0  0  0  0  0  0  0  0  0  0  0  0
    4.9092    2.8915    0.0000 H   0  0  0  0  0  0  0  0  0  0  0  0
    4.1946    1.4090    0.0000 H   0  0  0  0  0  0  0  0  0  0  0  0
    2.3414    0.5840    0.0000 H   0  0  0  0  0  0  0  0  0  0  0  0
    4.1946    0.5840    0.0000 H   0  0  0  0  0  0  0  0  0  0  0  0
    3.2680    0.0490    0.0000 H   0  0  0  0  0  0  0  0  0  0  0  0
    2.5535    3.4265    0.0000 H   0  0  0  0  0  0  0  0  0  0  0  0
    3.4801    2.8915    0.0000 H   0  0  0  0  0  0  0  0  0  0  0  0
    0.5521    2.2240    0.0000 H   0  0  0  0  0  0  0  0  0  0  0  0
   -1.3011    2.2240    0.0000 H   0  0  0  0  0  0  0  0  0  0  0  0
   -0.3745    2.7590    0.0000 H   0  0  0  0  0  0  0  0  0  0  0  0
  1  5  1  0  0  0  0
  1 31  1  0  0  0  0
  1 32  1  0  0  0  0
  2  6  2  0  0  0  0
  2  7  1  0  0  0  0
  3  4  1  0  0  0  0
  3 33  1  0  0  0  0
  3 34  1  0  0  0  0
  4 35  1  0  0  0  0
  4 36  1  0  0  0  0
  5  7  1  0  0  0  0
  5 37  1  0  0  0  0
  5 38  1  0  0  0  0
  6  8  1  0  0  0  0
  6 39  1  0  0  0  0
  7 40  1  0  0  0  0
  7 41  1  0  0  0  0
  8  9  2  0  0  0  0
  8 42  1  0  0  0  0
  9 10  1  0  0  0  0
  9 11  1  0  0  0  0
 10 12  1  0  0  0  0
 10 13  2  0  0  0  0
 11 14  1  0  0  0  0
 11 43  1  0  0  0  0
 11 44  1  0  0  0  0
 12 15  1  0  0  0  0
 12 45  1  0  0  0  0
 12 46  1  0  0  0  0
 13 47  1  0  0  0  0
 13 48  1  0  0  0  0
 14 16  1  0  0  0  0
 14 15  1  0  0  0  0
 14 49  1  1  0  0  0
 15 50  1  0  0  0  0
 15 51  1  0  0  0  0
 16 52  1  0  0  0  0
 17 53  1  0  0  0  0
 17 54  1  0  0  0  0
 17 55  1  0  0  0  0
 18 17  1  0  0  0  0
 18 19  1  0  0  0  0
 18 56  1  1  0  0  0
 19 20  1  0  0  0  0
 19 57  1  0  0  0  0
 19 58  1  0  0  0  0
 20 24  1  0  0  0  0
 20 59  1  0  0  0  0
 20 60  1  0  0  0  0
 21 61  1  0  0  0  0
 21 62  1  0  0  0  0
 21 63  1  0  0  0  0
 22 21  1  0  0  0  0
 22 23  1  0  0  0  0
 22 64  1  0  0  0  0
 23 65  1  0  0  0  0
 23 66  1  0  0  0  0
 23 67  1  0  0  0  0
 24 22  1  0  0  0  0
 24 68  1  0  0  0  0
 24 69  1  0  0  0  0
 25  4  1  0  0  0  0
 25 18  1  0  0  0  0
 25 26  1  6  0  0  0
 27 29  1  0  0  0  0
 27  2  1  0  0  0  0
 27  3  1  0  0  0  0
 27 28  1  6  0  0  0
 29 25  1  0  0  0  0
 29  1  1  0  0  0  0
 29 30  1  1  0  0  0
 30 70  1  0  0  0  0
 30 71  1  0  0  0  0
 30 72  1  0  0  0  0
M  END
>  <DRUGBANK_ID>
DB00169

>  <SECONDARY_ACCESSION_NUMBERS>
NUTR00008; APRD00506

>  <COMMON_NAME>
Cholecalciferol

>  <CAS_NUMBER>
67-97-0

>  <UNII>
1C6V77QF41

>  <SYNONYMS>
(+)-vitamin D3; (3Î²,5Z,7E)-9,10-secocholesta-5,7,10(19)-trien-3-ol; (5Z,7E)-(3S)-9,10-secocholesta-5,7,10(19)-trien-3-ol; Activated 7-dehydrocholesterol; Calciol; CC; Cholecalciferol; Cholecalciferolum; Colecalciferol; Colecalciferolum; Oleovitamin D3; Vitamin D-3; Vitamin D3

$$$$
