
 OpenBabel10282417072D

 33 35  0  0  1  0  0  0  0  0999 V2000
   16.2146  -10.8079    0.0000 C   0  0  1  0  0  0  0  0  0  0  0  0
   17.0396  -10.8079    0.0000 C   0  0  2  0  0  0  0  0  0  0  0  0
   17.2944  -10.0232    0.0000 C   0  0  1  0  0  0  0  0  0  0  0  0
   16.6270   -9.5385    0.0000 N   0  0  0  0  0  0  0  0  0  0  0  0
   15.9597  -10.0232    0.0000 C   0  0  2  0  0  0  0  0  0  0  0  0
   15.7297  -11.4752    0.0000 O   0  0  0  0  0  0  0  0  0  0  0  0
   17.5244  -11.4752    0.0000 O   0  0  0  0  0  0  0  0  0  0  0  0
   15.1822   -9.7707    0.0000 C   0  0  0  0  0  0  0  0  0  0  0  0
   18.0720   -9.7707    0.0000 C   0  0  0  0  0  0  0  0  0  0  0  0
   14.5669  -10.3246    0.0000 O   0  0  0  0  0  0  0  0  0  0  0  0
   18.6974  -10.3130    0.0000 C   0  0  0  0  0  0  0  0  0  0  0  0
   19.4066   -9.8868    0.0000 C   0  0  0  0  0  0  0  0  0  0  0  0
   19.2203   -9.0806    0.0000 N   0  0  0  0  0  0  0  0  0  0  0  0
   18.3961   -9.0086    0.0000 C   0  0  0  0  0  0  0  0  0  0  0  0
   18.7120  -11.1379    0.0000 N   0  0  0  0  0  0  0  0  0  0  0  0
   19.4334  -11.5377    0.0000 C   0  0  0  0  0  0  0  0  0  0  0  0
   20.1426  -11.1115    0.0000 N   0  0  0  0  0  0  0  0  0  0  0  0
   20.1281  -10.2867    0.0000 C   0  0  0  0  0  0  0  0  0  0  0  0
   20.8417   -9.8578    0.0000 O   0  0  0  0  0  0  0  0  0  0  0  0
   16.7003  -11.7613    0.0000 H   0  0  0  0  0  0  0  0  0  0  0  0
   16.5538  -11.7613    0.0000 H   0  0  0  0  0  0  0  0  0  0  0  0
   18.0510  -10.7798    0.0000 H   0  0  0  0  0  0  0  0  0  0  0  0
   16.6270   -8.5185    0.0000 H   0  0  0  0  0  0  0  0  0  0  0  0
   15.7923   -8.9664    0.0000 H   0  0  0  0  0  0  0  0  0  0  0  0
   14.7650  -11.3737    0.0000 H   0  0  0  0  0  0  0  0  0  0  0  0
   17.1298  -12.3613    0.0000 H   0  0  0  0  0  0  0  0  0  0  0  0
   14.9597   -8.7241    0.0000 H   0  0  0  0  0  0  0  0  0  0  0  0
   14.1646   -9.4400    0.0000 H   0  0  0  0  0  0  0  0  0  0  0  0
   13.6444  -10.0248    0.0000 H   0  0  0  0  0  0  0  0  0  0  0  0
   19.8661   -8.3375    0.0000 H   0  0  0  0  0  0  0  0  0  0  0  0
   17.8648   -8.1239    0.0000 H   0  0  0  0  0  0  0  0  0  0  0  0
   19.4515  -12.5695    0.0000 H   0  0  0  0  0  0  0  0  0  0  0  0
   21.0037  -11.5887    0.0000 H   0  0  0  0  0  0  0  0  0  0  0  0
  1  2  1  0  0  0  0
  1  5  1  0  0  0  0
  1  6  1  0  0  0  0
  1 20  1  1  0  0  0
  2  3  1  0  0  0  0
  2  7  1  0  0  0  0
  2 21  1  1  0  0  0
  3  4  1  0  0  0  0
  3  9  1  0  0  0  0
  3 22  1  6  0  0  0
  4  5  1  0  0  0  0
  4 23  1  0  0  0  0
  5  8  1  0  0  0  0
  5 24  1  6  0  0  0
  6 25  1  0  0  0  0
  7 26  1  0  0  0  0
  8 10  1  0  0  0  0
  8 27  1  0  0  0  0
  8 28  1  0  0  0  0
  9 11  1  0  0  0  0
  9 14  2  0  0  0  0
 10 29  1  0  0  0  0
 11 12  2  0  0  0  0
 11 15  1  0  0  0  0
 12 13  1  0  0  0  0
 12 18  1  0  0  0  0
 13 14  1  0  0  0  0
 13 30  1  0  0  0  0
 14 31  1  0  0  0  0
 15 16  2  0  0  0  0
 16 17  1  0  0  0  0
 16 32  1  0  0  0  0
 17 18  1  0  0  0  0
 17 33  1  0  0  0  0
 18 19  2  0  0  0  0
M  END
>  <DRUGBANK_ID>
DB06185

>  <SECONDARY_ACCESSION_NUMBERS>
DB03743

>  <COMMON_NAME>
Forodesine

>  <CAS_NUMBER>
209799-67-7

>  <UNII>
426X066ELK

>  <SYNONYMS>
(1S)-1,4-dideoxy-4-imino-(9-deazahypoxanthin-9-yl)-D-ribitol; 1,4-Dideoxy-4-aza-1-(S)-(9-deazahypoxanthin-9-yl)-D-ribitol; Forodesine; Immucillin H; Immucillin-H

$$$$
