
 OpenBabel10282417072D

 44 46  0  0  0  0  0  0  0  0999 V2000
   -3.8020    1.5751    0.0000 C   0  0  0  0  0  0  0  0  0  0  0  0
   -3.8020    0.7490    0.0000 C   0  0  0  0  0  0  0  0  0  0  0  0
   -3.0883    0.3272    0.0000 C   0  0  0  0  0  0  0  0  0  0  0  0
   -2.3793    0.7459    0.0000 C   0  0  0  0  0  0  0  0  0  0  0  0
   -2.3793    1.5770    0.0000 C   0  0  0  0  0  0  0  0  0  0  0  0
   -1.6625    1.9951    0.0000 N   0  0  0  0  0  0  0  0  0  0  0  0
   -0.9480    1.5802    0.0000 C   0  0  0  0  0  0  0  0  0  0  0  0
   -0.2351    1.9953    0.0000 C   0  0  0  0  0  0  0  0  0  0  0  0
    0.4794    1.5847    0.0000 C   0  0  0  0  0  0  0  0  0  0  0  0
    0.4794    0.7581    0.0000 C   0  0  0  0  0  0  0  0  0  0  0  0
   -0.2339    0.3449    0.0000 C   0  0  0  0  0  0  0  0  0  0  0  0
   -0.2339   -0.4766    0.0000 O   0  0  0  0  0  0  0  0  0  0  0  0
    0.3430   -1.0801    0.0000 C   0  0  0  0  0  0  0  0  0  0  0  0
    1.0576   -0.6639    0.0000 C   0  0  2  0  0  0  0  0  0  0  0  0
    1.6544   -1.1076    0.0000 C   0  0  0  0  0  0  0  0  0  0  0  0
    2.3768   -0.7678    0.0000 N   0  0  0  0  0  0  0  0  0  0  0  0
    3.0915   -1.1659    0.0000 C   0  0  0  0  0  0  0  0  0  0  0  0
    3.0915   -1.9953    0.0000 C   0  0  0  0  0  0  0  0  0  0  0  0
    3.8020   -0.7490    0.0000 C   0  0  0  0  0  0  0  0  0  0  0  0
    1.0576    0.1603    0.0000 O   0  0  0  0  0  0  0  0  0  0  0  0
   -0.9480    0.7459    0.0000 C   0  0  0  0  0  0  0  0  0  0  0  0
   -3.0916    1.9840    0.0000 C   0  0  0  0  0  0  0  0  0  0  0  0
   -4.6954    2.0917    0.0000 H   0  0  0  0  0  0  0  0  0  0  0  0
   -4.6984    0.2376    0.0000 H   0  0  0  0  0  0  0  0  0  0  0  0
   -3.0885   -0.7048    0.0000 H   0  0  0  0  0  0  0  0  0  0  0  0
   -1.6635    2.9796    0.0000 H   0  0  0  0  0  0  0  0  0  0  0  0
   -0.2380    3.0273    0.0000 H   0  0  0  0  0  0  0  0  0  0  0  0
    1.3726    2.1016    0.0000 H   0  0  0  0  0  0  0  0  0  0  0  0
    1.3735    0.2427    0.0000 H   0  0  0  0  0  0  0  0  0  0  0  0
    0.1934   -2.1396    0.0000 H   0  0  0  0  0  0  0  0  0  0  0  0
    1.2310   -1.6770    0.0000 H   0  0  0  0  0  0  0  0  0  0  0  0
    0.1299   -0.1307    0.0000 H   0  0  0  0  0  0  0  0  0  0  0  0
    1.5478   -2.1723    0.0000 H   0  0  0  0  0  0  0  0  0  0  0  0
    2.5281   -1.7254    0.0000 H   0  0  0  0  0  0  0  0  0  0  0  0
    2.4118    0.2516    0.0000 H   0  0  0  0  0  0  0  0  0  0  0  0
    4.0200   -1.6976    0.0000 H   0  0  0  0  0  0  0  0  0  0  0  0
    2.1649   -2.5303    0.0000 H   0  0  0  0  0  0  0  0  0  0  0  0
    4.0181   -2.5303    0.0000 H   0  0  0  0  0  0  0  0  0  0  0  0
    3.0915   -3.0653    0.0000 H   0  0  0  0  0  0  0  0  0  0  0  0
    4.7324   -1.2775    0.0000 H   0  0  0  0  0  0  0  0  0  0  0  0
    3.7945    0.3210    0.0000 H   0  0  0  0  0  0  0  0  0  0  0  0
    4.7249   -0.2075    0.0000 H   0  0  0  0  0  0  0  0  0  0  0  0
    1.8976    0.6453    0.0000 H   0  0  0  0  0  0  0  0  0  0  0  0
   -3.0932    3.0160    0.0000 H   0  0  0  0  0  0  0  0  0  0  0  0
  1  2  2  0  0  0  0
  1 23  1  0  0  0  0
  2  3  1  0  0  0  0
  2 24  1  0  0  0  0
  3  4  2  0  0  0  0
  3 25  1  0  0  0  0
  4 21  1  0  0  0  0
  5  4  1  0  0  0  0
  5 22  2  0  0  0  0
  6  5  1  0  0  0  0
  6 26  1  0  0  0  0
  7  6  1  0  0  0  0
  7 21  2  0  0  0  0
  8  7  1  0  0  0  0
  8 27  1  0  0  0  0
  9  8  2  0  0  0  0
  9 28  1  0  0  0  0
 10  9  1  0  0  0  0
 10 29  1  0  0  0  0
 11 10  2  0  0  0  0
 11 12  1  0  0  0  0
 12 13  1  0  0  0  0
 13 14  1  0  0  0  0
 13 30  1  0  0  0  0
 13 31  1  0  0  0  0
 14 15  1  0  0  0  0
 14 20  1  0  0  0  0
 14 32  1  6  0  0  0
 15 16  1  0  0  0  0
 15 33  1  0  0  0  0
 15 34  1  0  0  0  0
 16 17  1  0  0  0  0
 16 35  1  0  0  0  0
 17 18  1  0  0  0  0
 17 19  1  0  0  0  0
 17 36  1  0  0  0  0
 18 37  1  0  0  0  0
 18 38  1  0  0  0  0
 18 39  1  0  0  0  0
 19 40  1  0  0  0  0
 19 41  1  0  0  0  0
 19 42  1  0  0  0  0
 20 43  1  0  0  0  0
 21 11  1  0  0  0  0
 22  1  1  0  0  0  0
 22 44  1  0  0  0  0
M  END
>  <DRUGBANK_ID>
DB07543

>  <COMMON_NAME>
(S)-carazolol

>  <CAS_NUMBER>
78859-33-3

>  <UNII>
6Q9080LN3O

>  <SYNONYMS>
(-)-Carazolol

$$$$
