GF4
 OpenBabel10282417072D

 24 25  0  0  0  0  0  0  0  0999 V2000
    2.0660    0.4473    0.0000 O   0  0  0  0  0  0  0  0  0  0  0  0
    1.2814    0.1924    0.0000 C   0  0  0  0  0  0  0  0  0  0  0  0
    0.6140    0.6773    0.0000 C   0  0  0  0  0  0  0  0  0  0  0  0
    0.6140    1.5023    0.0000 C   0  0  0  0  0  0  0  0  0  0  0  0
   -0.1005    1.9148    0.0000 C   0  0  0  0  0  0  0  0  0  0  0  0
   -0.0535    0.1924    0.0000 C   0  0  0  0  0  0  0  0  0  0  0  0
   -0.8381    0.4473    0.0000 C   0  0  0  0  0  0  0  0  0  0  0  0
    0.2015   -0.5922    0.0000 N   0  0  0  0  0  0  0  0  0  0  0  0
    1.0265   -0.5922    0.0000 N   0  0  0  0  0  0  0  0  0  0  0  0
    1.5114   -1.2597    0.0000 C   0  0  0  0  0  0  0  0  0  0  0  0
    1.2565   -2.0443    0.0000 N   0  0  0  0  0  0  0  0  0  0  0  0
    1.9239   -2.5292    0.0000 N   0  0  0  0  0  0  0  0  0  0  0  0
    2.5913   -2.0443    0.0000 N   0  0  0  0  0  0  0  0  0  0  0  0
    2.3364   -1.2597    0.0000 N   0  0  0  0  0  0  0  0  0  0  0  0
    1.5406    2.0373    0.0000 H   0  0  0  0  0  0  0  0  0  0  0  0
    0.6140    2.5723    0.0000 H   0  0  0  0  0  0  0  0  0  0  0  0
   -0.1005    2.9848    0.0000 H   0  0  0  0  0  0  0  0  0  0  0  0
   -1.0271    1.3798    0.0000 H   0  0  0  0  0  0  0  0  0  0  0  0
   -1.0272    2.4498    0.0000 H   0  0  0  0  0  0  0  0  0  0  0  0
   -1.0606    1.4939    0.0000 H   0  0  0  0  0  0  0  0  0  0  0  0
   -1.6332   -0.2687    0.0000 H   0  0  0  0  0  0  0  0  0  0  0  0
   -1.8557    0.7779    0.0000 H   0  0  0  0  0  0  0  0  0  0  0  0
   -0.3771   -1.3887    0.0000 H   0  0  0  0  0  0  0  0  0  0  0  0
    0.3202   -2.3485    0.0000 H   0  0  0  0  0  0  0  0  0  0  0  0
  2  1  2  0  0  0  0
  3  2  1  0  0  0  0
  3  4  1  0  0  0  0
  4  5  1  0  0  0  0
  4 15  1  0  0  0  0
  4 16  1  0  0  0  0
  5 17  1  0  0  0  0
  5 18  1  0  0  0  0
  5 19  1  0  0  0  0
  6  3  2  0  0  0  0
  6  8  1  0  0  0  0
  7  6  1  0  0  0  0
  7 20  1  0  0  0  0
  7 21  1  0  0  0  0
  7 22  1  0  0  0  0
  8  9  1  0  0  0  0
  8 23  1  0  0  0  0
  9  2  1  0  0  0  0
  9 10  1  0  0  0  0
 10 14  2  0  0  0  0
 11 10  1  0  0  0  0
 11 12  1  0  0  0  0
 11 24  1  0  0  0  0
 12 13  2  0  0  0  0
 13 14  1  0  0  0  0
M  END
>  <DRUGBANK_ID>
DB07824

>  <COMMON_NAME>
4-ethyl-5-methyl-2-(1H-tetrazol-5-yl)-1,2-dihydro-3H-pyrazol-3-one

$$$$
