
 OpenBabel10282417072D

 69 74  0  0  1  0  0  0  0  0999 V2000
    3.1508    0.8481    0.0000 H   0  0  0  0  0  0  0  0  0  0  0  0
    3.6826    0.2174    0.0000 C   0  0  2  0  0  0  0  0  0  0  0  0
    4.3340   -0.2889    0.0000 C   0  0  0  0  0  0  0  0  0  0  0  0
    5.0168    0.1741    0.0000 C   0  0  0  0  0  0  0  0  0  0  0  0
    4.7875    0.9666    0.0000 C   0  0  2  0  0  0  0  0  0  0  0  0
    5.2939    1.6179    0.0000 C   0  0  0  0  0  0  0  0  0  0  0  0
    4.9830    2.3821    0.0000 O   0  0  0  0  0  0  0  0  0  0  0  0
    6.1111    1.5050    0.0000 N   0  0  0  0  0  0  0  0  0  0  0  0
    6.6175    2.1564    0.0000 C   0  0  0  0  0  0  0  0  0  0  0  0
    7.4347    2.0435    0.0000 C   0  0  0  0  0  0  0  0  0  0  0  0
    7.8238    1.3160    0.0000 N   0  0  0  0  0  0  0  0  0  0  0  0
    8.6359    1.4612    0.0000 C   0  0  0  0  0  0  0  0  0  0  0  0
    8.7487    2.2785    0.0000 C   0  0  0  0  0  0  0  0  0  0  0  0
    8.0064    2.6383    0.0000 N   0  0  0  0  0  0  0  0  0  0  0  0
    9.5129    2.5894    0.0000 C   0  0  0  0  0  0  0  0  0  0  0  0
   10.1643    2.0830    0.0000 C   0  0  0  0  0  0  0  0  0  0  0  0
   10.0514    1.2658    0.0000 C   0  0  0  0  0  0  0  0  0  0  0  0
    9.2872    0.9549    0.0000 N   0  0  0  0  0  0  0  0  0  0  0  0
    3.9629    0.9934    0.0000 C   0  0  2  0  0  0  0  0  0  0  0  0
    4.3228    1.7357    0.0000 C   0  0  0  0  0  0  0  0  0  0  0  0
    3.4311    1.6241    0.0000 C   0  0  0  0  0  0  0  0  0  0  0  0
    2.6190    1.4789    0.0000 C   0  0  0  0  0  0  0  0  0  0  0  0
    2.3387    0.7029    0.0000 C   0  0  1  0  0  0  0  0  0  0  0  0
    2.0584   -0.0730    0.0000 H   0  0  0  0  0  0  0  0  0  0  0  0
    2.8705    0.0722    0.0000 C   0  0  1  0  0  0  0  0  0  0  0  0
    3.4023   -0.5585    0.0000 H   0  0  0  0  0  0  0  0  0  0  0  0
    2.5902   -0.7037    0.0000 C   0  0  0  0  0  0  0  0  0  0  0  0
    1.7781   -0.8489    0.0000 C   0  0  0  0  0  0  0  0  0  0  0  0
    1.2463   -0.2182    0.0000 C   0  0  1  0  0  0  0  0  0  0  0  0
    0.7145    0.4125    0.0000 H   0  0  0  0  0  0  0  0  0  0  0  0
    0.4342   -0.3634    0.0000 N   0  0  0  0  0  0  0  0  0  0  0  0
    0.1539   -1.1393    0.0000 C   0  0  0  0  0  0  0  0  0  0  0  0
   -0.0976    0.2673    0.0000 C   0  0  0  0  0  0  0  0  0  0  0  0
   -0.9098    0.1221    0.0000 O   0  0  0  0  0  0  0  0  0  0  0  0
    0.1827    1.0432    0.0000 C   0  0  0  0  0  0  0  0  0  0  0  0
   -0.3492    1.6739    0.0000 F   0  0  0  0  0  0  0  0  0  0  0  0
    0.9948    1.1884    0.0000 C   0  0  0  0  0  0  0  0  0  0  0  0
    1.5266    0.5577    0.0000 C   0  0  2  0  0  0  0  0  0  0  0  0
    1.8069    1.3336    0.0000 C   0  0  0  0  0  0  0  0  0  0  0  0
    4.2993   -1.3583    0.0000 H   0  0  0  0  0  0  0  0  0  0  0  0
    5.2711   -0.8053    0.0000 H   0  0  0  0  0  0  0  0  0  0  0  0
    6.0232   -0.1894    0.0000 H   0  0  0  0  0  0  0  0  0  0  0  0
    5.7976    0.9057    0.0000 H   0  0  0  0  0  0  0  0  0  0  0  0
    5.8383    0.7649    0.0000 H   0  0  0  0  0  0  0  0  0  0  0  0
    6.4821    0.5931    0.0000 H   0  0  0  0  0  0  0  0  0  0  0  0
    6.2143    3.1475    0.0000 H   0  0  0  0  0  0  0  0  0  0  0  0
    7.2743    3.0011    0.0000 H   0  0  0  0  0  0  0  0  0  0  0  0
    7.8331    3.6074    0.0000 H   0  0  0  0  0  0  0  0  0  0  0  0
    9.6541    3.6117    0.0000 H   0  0  0  0  0  0  0  0  0  0  0  0
   11.1202    2.4719    0.0000 H   0  0  0  0  0  0  0  0  0  0  0  0
   10.8661    0.6324    0.0000 H   0  0  0  0  0  0  0  0  0  0  0  0
    5.3900    1.8128    0.0000 H   0  0  0  0  0  0  0  0  0  0  0  0
    3.7224    2.6214    0.0000 H   0  0  0  0  0  0  0  0  0  0  0  0
    4.7896    2.6985    0.0000 H   0  0  0  0  0  0  0  0  0  0  0  0
    3.7947    2.6304    0.0000 H   0  0  0  0  0  0  0  0  0  0  0  0
    2.7414    2.4421    0.0000 H   0  0  0  0  0  0  0  0  0  0  0  0
    1.9292    2.2969    0.0000 H   0  0  0  0  0  0  0  0  0  0  0  0
    1.5657    1.2905    0.0000 H   0  0  0  0  0  0  0  0  0  0  0  0
    3.2799   -1.5217    0.0000 H   0  0  0  0  0  0  0  0  0  0  0  0
    2.2266   -1.7100    0.0000 H   0  0  0  0  0  0  0  0  0  0  0  0
    1.4145   -1.8552    0.0000 H   0  0  0  0  0  0  0  0  0  0  0  0
    0.7248   -1.0372    0.0000 H   0  0  0  0  0  0  0  0  0  0  0  0
   -0.8994   -1.3276    0.0000 H   0  0  0  0  0  0  0  0  0  0  0  0
    0.8436   -1.9573    0.0000 H   0  0  0  0  0  0  0  0  0  0  0  0
   -0.2097   -2.1456    0.0000 H   0  0  0  0  0  0  0  0  0  0  0  0
    1.3454    2.1590    0.0000 H   0  0  0  0  0  0  0  0  0  0  0  0
    2.8602    1.5219    0.0000 H   0  0  0  0  0  0  0  0  0  0  0  0
    1.1172    2.1516    0.0000 H   0  0  0  0  0  0  0  0  0  0  0  0
    2.1705    2.3399    0.0000 H   0  0  0  0  0  0  0  0  0  0  0  0
  2  1  1  6  0  0  0
  2  3  1  0  0  0  0
  2 19  1  0  0  0  0
  2 25  1  0  0  0  0
  3  4  1  0  0  0  0
  3 40  1  0  0  0  0
  3 41  1  0  0  0  0
  4 42  1  0  0  0  0
  4 43  1  0  0  0  0
  5  4  1  0  0  0  0
  5  6  1  0  0  0  0
  5 44  1  6  0  0  0
  6  7  2  0  0  0  0
  6  8  1  0  0  0  0
  8  9  1  0  0  0  0
  8 45  1  0  0  0  0
  9 10  1  0  0  0  0
  9 46  1  0  0  0  0
  9 47  1  0  0  0  0
 10 11  2  0  0  0  0
 10 14  1  0  0  0  0
 11 12  1  0  0  0  0
 12 13  2  0  0  0  0
 12 18  1  0  0  0  0
 13 14  1  0  0  0  0
 13 15  1  0  0  0  0
 14 48  1  0  0  0  0
 15 16  2  0  0  0  0
 15 49  1  0  0  0  0
 16 17  1  0  0  0  0
 16 50  1  0  0  0  0
 17 18  2  0  0  0  0
 17 51  1  0  0  0  0
 19  5  1  0  0  0  0
 19 20  1  1  0  0  0
 19 21  1  0  0  0  0
 20 52  1  0  0  0  0
 20 53  1  0  0  0  0
 20 54  1  0  0  0  0
 21 22  1  0  0  0  0
 21 55  1  0  0  0  0
 21 56  1  0  0  0  0
 22 57  1  0  0  0  0
 22 58  1  0  0  0  0
 23 22  1  0  0  0  0
 23 24  1  6  0  0  0
 23 38  1  0  0  0  0
 25 23  1  0  0  0  0
 25 26  1  1  0  0  0
 25 27  1  0  0  0  0
 27 28  1  0  0  0  0
 27 59  1  0  0  0  0
 27 60  1  0  0  0  0
 28 61  1  0  0  0  0
 28 62  1  0  0  0  0
 29 28  1  0  0  0  0
 29 30  1  6  0  0  0
 29 31  1  0  0  0  0
 31 32  1  0  0  0  0
 31 33  1  0  0  0  0
 32 63  1  0  0  0  0
 32 64  1  0  0  0  0
 32 65  1  0  0  0  0
 33 34  2  0  0  0  0
 33 35  1  0  0  0  0
 35 36  1  0  0  0  0
 35 37  2  0  0  0  0
 37 66  1  0  0  0  0
 38 37  1  0  0  0  0
 38 29  1  0  0  0  0
 38 39  1  1  0  0  0
 39 67  1  0  0  0  0
 39 68  1  0  0  0  0
 39 69  1  0  0  0  0
M  END
>  <DRUGBANK_ID>
DB16244

>  <COMMON_NAME>
MK-0773

>  <CAS_NUMBER>
606101-58-0

>  <UNII>
5730VNW22X

$$$$
