
 OpenBabel10282417072D

 36 38  0  0  0  0  0  0  0  0999 V2000
    3.2789    2.0625    0.0000 C   0  0  0  0  0  0  0  0  0  0  0  0
    3.2789    1.2375    0.0000 C   0  0  0  0  0  0  0  0  0  0  0  0
    3.9934    0.8250    0.0000 C   0  0  0  0  0  0  0  0  0  0  0  0
    3.9934    0.0000    0.0000 C   0  0  0  0  0  0  0  0  0  0  0  0
    3.2789   -0.4125    0.0000 C   0  0  0  0  0  0  0  0  0  0  0  0
    2.5645    0.0000    0.0000 C   0  0  0  0  0  0  0  0  0  0  0  0
    2.5645    0.8250    0.0000 C   0  0  0  0  0  0  0  0  0  0  0  0
    1.7798    1.0799    0.0000 C   0  0  0  0  0  0  0  0  0  0  0  0
    1.2949    0.4125    0.0000 C   0  0  0  0  0  0  0  0  0  0  0  0
    1.7798   -0.2549    0.0000 N   0  0  0  0  0  0  0  0  0  0  0  0
    1.5249    1.8646    0.0000 C   0  0  0  0  0  0  0  0  0  0  0  0
    1.2700    2.6492    0.0000 N   0  0  0  0  0  0  0  0  0  0  0  0
    3.2789   -1.2375    0.0000 N   0  0  0  0  0  0  0  0  0  0  0  0
    3.9934   -1.6500    0.0000 S   0  0  0  0  0  0  0  0  0  0  0  0
    3.5809   -2.3645    0.0000 O   0  0  0  0  0  0  0  0  0  0  0  0
    4.4059   -0.9355    0.0000 O   0  0  0  0  0  0  0  0  0  0  0  0
    4.7079   -2.0625    0.0000 C   0  0  0  0  0  0  0  0  0  0  0  0
    5.4223   -1.6500    0.0000 C   0  0  0  0  0  0  0  0  0  0  0  0
    6.1368   -2.0625    0.0000 C   0  0  0  0  0  0  0  0  0  0  0  0
    6.1368   -2.8875    0.0000 C   0  0  0  0  0  0  0  0  0  0  0  0
    5.4223   -3.3000    0.0000 C   0  0  0  0  0  0  0  0  0  0  0  0
    4.7079   -2.8875    0.0000 C   0  0  0  0  0  0  0  0  0  0  0  0
    5.4223   -4.1250    0.0000 C   0  0  0  0  0  0  0  0  0  0  0  0
    5.4223   -4.9500    0.0000 N   0  0  0  0  0  0  0  0  0  0  0  0
    4.2055    2.5975    0.0000 H   0  0  0  0  0  0  0  0  0  0  0  0
    2.3523    2.5975    0.0000 H   0  0  0  0  0  0  0  0  0  0  0  0
    3.2789    3.1325    0.0000 H   0  0  0  0  0  0  0  0  0  0  0  0
    4.8871    1.3410    0.0000 H   0  0  0  0  0  0  0  0  0  0  0  0
    4.8871   -0.5160    0.0000 H   0  0  0  0  0  0  0  0  0  0  0  0
    0.2629    0.4125    0.0000 H   0  0  0  0  0  0  0  0  0  0  0  0
    1.4755   -1.1912    0.0000 H   0  0  0  0  0  0  0  0  0  0  0  0
    2.4263   -1.7298    0.0000 H   0  0  0  0  0  0  0  0  0  0  0  0
    5.4223   -0.6180    0.0000 H   0  0  0  0  0  0  0  0  0  0  0  0
    7.0305   -1.5465    0.0000 H   0  0  0  0  0  0  0  0  0  0  0  0
    7.0305   -3.4035    0.0000 H   0  0  0  0  0  0  0  0  0  0  0  0
    3.8142   -3.4035    0.0000 H   0  0  0  0  0  0  0  0  0  0  0  0
  1  2  1  0  0  0  0
  1 25  1  0  0  0  0
  1 26  1  0  0  0  0
  1 27  1  0  0  0  0
  2  3  1  0  0  0  0
  2  7  2  0  0  0  0
  3  4  2  0  0  0  0
  3 28  1  0  0  0  0
  4  5  1  0  0  0  0
  4 29  1  0  0  0  0
  5  6  2  0  0  0  0
  5 13  1  0  0  0  0
  6  7  1  0  0  0  0
  6 10  1  0  0  0  0
  7  8  1  0  0  0  0
  8  9  2  0  0  0  0
  8 11  1  0  0  0  0
  9 10  1  0  0  0  0
  9 30  1  0  0  0  0
 10 31  1  0  0  0  0
 11 12  3  0  0  0  0
 13 14  1  0  0  0  0
 13 32  1  0  0  0  0
 14 15  2  0  0  0  0
 14 16  2  0  0  0  0
 14 17  1  0  0  0  0
 17 18  2  0  0  0  0
 17 22  1  0  0  0  0
 18 19  1  0  0  0  0
 18 33  1  0  0  0  0
 19 20  2  0  0  0  0
 19 34  1  0  0  0  0
 20 21  1  0  0  0  0
 20 35  1  0  0  0  0
 21 22  2  0  0  0  0
 21 23  1  0  0  0  0
 22 36  1  0  0  0  0
 23 24  3  0  0  0  0
M  END
>  <DRUGBANK_ID>
DB12505

>  <COMMON_NAME>
E-7820

>  <CAS_NUMBER>
289483-69-8

>  <UNII>
TVH5K7949N

$$$$
