
 OpenBabel10282417072D

 19 18  0  0  0  0  0  0  0  0999 V2000
    0.7145    0.9281    0.0000 O   0  0  0  0  0  0  0  0  0  0  0  0
    0.7145    0.1031    0.0000 C   0  0  0  0  0  0  0  0  0  0  0  0
    1.4289   -0.3094    0.0000 O   0  0  0  0  0  0  0  0  0  0  0  0
    0.0000   -0.3094    0.0000 C   0  0  1  0  0  0  0  0  0  0  0  0
    0.0000   -1.1344    0.0000 N   0  0  0  0  0  0  0  0  0  0  0  0
   -0.7145    0.1031    0.0000 C   0  0  0  0  0  0  0  0  0  0  0  0
   -0.7145    0.9281    0.0000 C   0  0  0  0  0  0  0  0  0  0  0  0
   -1.4289   -0.3094    0.0000 C   0  0  0  0  0  0  0  0  0  0  0  0
    1.4289   -1.2464    0.0000 H   0  0  0  0  0  0  0  0  0  0  0  0
    0.9266   -0.8444    0.0000 H   0  0  0  0  0  0  0  0  0  0  0  0
   -0.8833   -1.6444    0.0000 H   0  0  0  0  0  0  0  0  0  0  0  0
    0.8833   -1.6444    0.0000 H   0  0  0  0  0  0  0  0  0  0  0  0
   -1.6412    0.6381    0.0000 H   0  0  0  0  0  0  0  0  0  0  0  0
    0.2121    1.4631    0.0000 H   0  0  0  0  0  0  0  0  0  0  0  0
   -1.6411    1.4631    0.0000 H   0  0  0  0  0  0  0  0  0  0  0  0
   -0.7145    1.9981    0.0000 H   0  0  0  0  0  0  0  0  0  0  0  0
   -2.3556    0.2256    0.0000 H   0  0  0  0  0  0  0  0  0  0  0  0
   -1.4289   -1.3794    0.0000 H   0  0  0  0  0  0  0  0  0  0  0  0
   -2.3555   -0.8444    0.0000 H   0  0  0  0  0  0  0  0  0  0  0  0
  2  1  2  0  0  0  0
  3  2  1  0  0  0  0
  3  9  1  0  0  0  0
  4  2  1  0  0  0  0
  4  5  1  0  0  0  0
  4 10  1  6  0  0  0
  5 11  1  0  0  0  0
  5 12  1  0  0  0  0
  6  4  1  0  0  0  0
  6 13  1  0  0  0  0
  7  6  1  0  0  0  0
  7 14  1  0  0  0  0
  7 15  1  0  0  0  0
  7 16  1  0  0  0  0
  8  6  1  0  0  0  0
  8 17  1  0  0  0  0
  8 18  1  0  0  0  0
  8 19  1  0  0  0  0
M  END
>  <DRUGBANK_ID>
DB00161

>  <SECONDARY_ACCESSION_NUMBERS>
NUTR00060

>  <COMMON_NAME>
Valine

>  <CAS_NUMBER>
72-18-4

>  <UNII>
HG18B9YRS7

>  <SYNONYMS>
(2S)-2-Amino-3-methylbutanoic acid; (S)-Valine; 2-Amino-3-methylbutyric acid; L-(+)-alpha-Aminoisovaleric acid; L-alpha-Amino-beta-methylbutyric acid; L-valin; L-valine; Val; Valine

$$$$
