
 OpenBabel10282417072D

 51 54  0  0  0  0  0  0  0  0999 V2000
   -1.4550   -0.6874    0.0000 C   0  0  0  0  0  0  0  0  0  0  0  0
   -1.4530    0.1376    0.0000 C   0  0  0  0  0  0  0  0  0  0  0  0
   -0.7375    0.5485    0.0000 C   0  0  0  0  0  0  0  0  0  0  0  0
   -0.0239    0.1341    0.0000 C   0  0  0  0  0  0  0  0  0  0  0  0
   -0.0258   -0.6909    0.0000 C   0  0  0  0  0  0  0  0  0  0  0  0
   -0.7415   -1.1016    0.0000 C   0  0  0  0  0  0  0  0  0  0  0  0
   -2.0274   -1.0160    0.0000 Cl  0  0  0  0  0  0  0  0  0  0  0  0
    0.6871   -1.1068    0.0000 O   0  0  0  0  0  0  0  0  0  0  0  0
    0.6840   -1.9324    0.0000 C   0  0  0  0  0  0  0  0  0  0  0  0
   -0.0391   -2.3443    0.0000 C   0  0  0  0  0  0  0  0  0  0  0  0
   -0.0391   -3.1678    0.0000 C   0  0  0  0  0  0  0  0  0  0  0  0
    0.6840   -3.5796    0.0000 N   0  0  0  0  0  0  0  0  0  0  0  0
    1.3971   -2.3443    0.0000 C   0  0  0  0  0  0  0  0  0  0  0  0
    1.3971   -3.1678    0.0000 C   0  0  0  0  0  0  0  0  0  0  0  0
    2.1102   -3.5796    0.0000 C   0  0  0  0  0  0  0  0  0  0  0  0
    2.8233   -3.1678    0.0000 C   0  0  0  0  0  0  0  0  0  0  0  0
    2.8233   -2.3443    0.0000 C   0  0  0  0  0  0  0  0  0  0  0  0
    2.1102   -1.9324    0.0000 C   0  0  0  0  0  0  0  0  0  0  0  0
    3.5374   -3.5820    0.0000 O   0  0  0  0  0  0  0  0  0  0  0  0
    3.5374   -1.9300    0.0000 O   0  0  0  0  0  0  0  0  0  0  0  0
    3.5363   -1.1044    0.0000 C   0  0  0  0  0  0  0  0  0  0  0  0
   -2.1661    0.5537    0.0000 N   0  0  0  0  0  0  0  0  0  0  0  0
   -2.1629    1.3792    0.0000 C   0  0  0  0  0  0  0  0  0  0  0  0
   -2.8759    1.7952    0.0000 N   0  0  0  0  0  0  0  0  0  0  0  0
   -1.5898    1.7068    0.0000 O   0  0  0  0  0  0  0  0  0  0  0  0
   -2.8727    2.6207    0.0000 C   0  0  0  0  0  0  0  0  0  0  0  0
   -3.5374    3.0976    0.0000 N   0  0  0  0  0  0  0  0  0  0  0  0
   -3.2778    3.8809    0.0000 O   0  0  0  0  0  0  0  0  0  0  0  0
   -2.4528    3.8760    0.0000 C   0  0  0  0  0  0  0  0  0  0  0  0
   -2.2025    3.0898    0.0000 C   0  0  0  0  0  0  0  0  0  0  0  0
   -2.0616    4.4076    0.0000 C   0  0  0  0  0  0  0  0  0  0  0  0
    3.5363   -4.4076    0.0000 C   0  0  0  0  0  0  0  0  0  0  0  0
   -0.7350    1.5805    0.0000 H   0  0  0  0  0  0  0  0  0  0  0  0
    0.8711    0.6479    0.0000 H   0  0  0  0  0  0  0  0  0  0  0  0
   -0.7441   -2.1336    0.0000 H   0  0  0  0  0  0  0  0  0  0  0  0
   -0.9313   -1.8257    0.0000 H   0  0  0  0  0  0  0  0  0  0  0  0
   -0.9313   -3.6864    0.0000 H   0  0  0  0  0  0  0  0  0  0  0  0
    2.1102   -4.6116    0.0000 H   0  0  0  0  0  0  0  0  0  0  0  0
    2.1102   -0.9004    0.0000 H   0  0  0  0  0  0  0  0  0  0  0  0
    4.4622   -0.5682    0.0000 H   0  0  0  0  0  0  0  0  0  0  0  0
    2.6089   -0.5706    0.0000 H   0  0  0  0  0  0  0  0  0  0  0  0
    3.5349   -0.0344    0.0000 H   0  0  0  0  0  0  0  0  0  0  0  0
   -3.0208    0.0651    0.0000 H   0  0  0  0  0  0  0  0  0  0  0  0
   -3.7306    1.3066    0.0000 H   0  0  0  0  0  0  0  0  0  0  0  0
   -1.2248    2.7593    0.0000 H   0  0  0  0  0  0  0  0  0  0  0  0
   -0.9982    4.2893    0.0000 H   0  0  0  0  0  0  0  0  0  0  0  0
   -2.4908    5.3877    0.0000 H   0  0  0  0  0  0  0  0  0  0  0  0
   -1.4274    5.2694    0.0000 H   0  0  0  0  0  0  0  0  0  0  0  0
    2.6089   -4.9414    0.0000 H   0  0  0  0  0  0  0  0  0  0  0  0
    4.4622   -4.9438    0.0000 H   0  0  0  0  0  0  0  0  0  0  0  0
    3.5349   -5.4776    0.0000 H   0  0  0  0  0  0  0  0  0  0  0  0
  1  2  2  0  0  0  0
  1  7  1  0  0  0  0
  2  3  1  0  0  0  0
  2 22  1  0  0  0  0
  3  4  2  0  0  0  0
  3 33  1  0  0  0  0
  4  5  1  0  0  0  0
  4 34  1  0  0  0  0
  5  6  2  0  0  0  0
  5  8  1  0  0  0  0
  6  1  1  0  0  0  0
  6 35  1  0  0  0  0
  8  9  1  0  0  0  0
  9 10  2  0  0  0  0
 10 11  1  0  0  0  0
 10 36  1  0  0  0  0
 11 12  2  0  0  0  0
 11 37  1  0  0  0  0
 12 14  1  0  0  0  0
 13  9  1  0  0  0  0
 13 14  1  0  0  0  0
 14 15  2  0  0  0  0
 15 16  1  0  0  0  0
 15 38  1  0  0  0  0
 16 17  2  0  0  0  0
 16 19  1  0  0  0  0
 17 18  1  0  0  0  0
 17 20  1  0  0  0  0
 18 13  2  0  0  0  0
 18 39  1  0  0  0  0
 19 32  1  0  0  0  0
 20 21  1  0  0  0  0
 21 40  1  0  0  0  0
 21 41  1  0  0  0  0
 21 42  1  0  0  0  0
 22 23  1  0  0  0  0
 22 43  1  0  0  0  0
 23 24  1  0  0  0  0
 23 25  2  0  0  0  0
 24 26  1  0  0  0  0
 24 44  1  0  0  0  0
 26 27  2  0  0  0  0
 27 28  1  0  0  0  0
 28 29  1  0  0  0  0
 29 30  2  0  0  0  0
 29 31  1  0  0  0  0
 30 26  1  0  0  0  0
 30 45  1  0  0  0  0
 31 46  1  0  0  0  0
 31 47  1  0  0  0  0
 31 48  1  0  0  0  0
 32 49  1  0  0  0  0
 32 50  1  0  0  0  0
 32 51  1  0  0  0  0
M  END
>  <DRUGBANK_ID>
DB11800

>  <COMMON_NAME>
Tivozanib

>  <CAS_NUMBER>
475108-18-0

>  <UNII>
172030934T

>  <SYNONYMS>
Tivozanib

$$$$
