1560
 OpenBabel10282417072D

 22 22  0  0  1  0  0  0  0  0999 V2000
    1.6500    0.9034    0.0000 O   0  0  0  0  0  0  0  0  0  0  0  0
    3.0790    1.7284    0.0000 N   0  0  0  0  0  0  0  0  0  0  0  0
    3.0790    0.9034    0.0000 C   0  0  2  0  0  0  0  0  0  0  0  0
    2.3644    0.4909    0.0000 C   0  0  0  0  0  0  0  0  0  0  0  0
    2.3644   -0.3341    0.0000 C   0  0  0  0  0  0  0  0  0  0  0  0
    3.7934    0.4909    0.0000 C   0  0  0  0  0  0  0  0  0  0  0  0
    3.0790   -0.7466    0.0000 C   0  0  0  0  0  0  0  0  0  0  0  0
    1.6500   -0.7466    0.0000 C   0  0  0  0  0  0  0  0  0  0  0  0
    3.0790   -1.5716    0.0000 C   0  0  0  0  0  0  0  0  0  0  0  0
    1.6500   -1.5716    0.0000 C   0  0  0  0  0  0  0  0  0  0  0  0
    2.3644   -1.9841    0.0000 C   0  0  0  0  0  0  0  0  0  0  0  0
    3.9623    2.2384    0.0000 H   0  0  0  0  0  0  0  0  0  0  0  0
    2.1957    2.2384    0.0000 H   0  0  0  0  0  0  0  0  0  0  0  0
    2.1524    1.4384    0.0000 H   0  0  0  0  0  0  0  0  0  0  0  0
    3.7934   -0.5791    0.0000 H   0  0  0  0  0  0  0  0  0  0  0  0
    4.7201    1.0259    0.0000 H   0  0  0  0  0  0  0  0  0  0  0  0
    4.7200   -0.0441    0.0000 H   0  0  0  0  0  0  0  0  0  0  0  0
    3.9727   -0.2306    0.0000 H   0  0  0  0  0  0  0  0  0  0  0  0
    0.7563   -0.2306    0.0000 H   0  0  0  0  0  0  0  0  0  0  0  0
    3.9727   -2.0876    0.0000 H   0  0  0  0  0  0  0  0  0  0  0  0
    0.7563   -2.0876    0.0000 H   0  0  0  0  0  0  0  0  0  0  0  0
    2.3643   -3.0161    0.0000 H   0  0  0  0  0  0  0  0  0  0  0  0
  1  4  2  0  0  0  0
  2 12  1  0  0  0  0
  2 13  1  0  0  0  0
  3  2  1  0  0  0  0
  3  4  1  0  0  0  0
  3  6  1  0  0  0  0
  3 14  1  6  0  0  0
  4  5  1  0  0  0  0
  5  7  2  0  0  0  0
  5  8  1  0  0  0  0
  6 15  1  0  0  0  0
  6 16  1  0  0  0  0
  6 17  1  0  0  0  0
  7  9  1  0  0  0  0
  7 18  1  0  0  0  0
  8 10  2  0  0  0  0
  8 19  1  0  0  0  0
  9 11  2  0  0  0  0
  9 20  1  0  0  0  0
 10 11  1  0  0  0  0
 10 21  1  0  0  0  0
 11 22  1  0  0  0  0
M  END
>  <DRUGBANK_ID>
DB01560

>  <COMMON_NAME>
Cathinone

>  <CAS_NUMBER>
71031-15-7

>  <UNII>
540EI4406J

>  <SYNONYMS>
alpha-Aminopropiophenone; Cathinone; Cathinonum; Catinona; D-Cathinone; Norephedrone

$$$$
