573
 OpenBabel10282417072D

 32 33  0  0  1  0  0  0  0  0999 V2000
    2.3645   -0.7466    0.0000 O   0  0  0  0  0  0  0  0  0  0  0  0
    4.5080    2.9659    0.0000 O   0  0  0  0  0  0  0  0  0  0  0  0
    5.2224    1.7284    0.0000 O   0  0  0  0  0  0  0  0  0  0  0  0
    3.7935    1.7284    0.0000 C   0  0  3  0  0  0  0  0  0  0  0  0
    3.7935    0.9034    0.0000 C   0  0  0  0  0  0  0  0  0  0  0  0
    3.0791    0.4909    0.0000 C   0  0  0  0  0  0  0  0  0  0  0  0
    3.0791    2.1409    0.0000 C   0  0  0  0  0  0  0  0  0  0  0  0
    4.5080    0.4909    0.0000 C   0  0  0  0  0  0  0  0  0  0  0  0
    3.0791   -0.3341    0.0000 C   0  0  0  0  0  0  0  0  0  0  0  0
    4.5080    2.1409    0.0000 C   0  0  0  0  0  0  0  0  0  0  0  0
    4.5080   -0.3341    0.0000 C   0  0  0  0  0  0  0  0  0  0  0  0
    3.7935   -0.7466    0.0000 C   0  0  0  0  0  0  0  0  0  0  0  0
    2.3645   -1.5717    0.0000 C   0  0  0  0  0  0  0  0  0  0  0  0
    3.0791   -1.9842    0.0000 C   0  0  0  0  0  0  0  0  0  0  0  0
    1.6500   -1.9842    0.0000 C   0  0  0  0  0  0  0  0  0  0  0  0
    3.0791   -2.8092    0.0000 C   0  0  0  0  0  0  0  0  0  0  0  0
    1.6500   -2.8092    0.0000 C   0  0  0  0  0  0  0  0  0  0  0  0
    2.3645   -3.2217    0.0000 C   0  0  0  0  0  0  0  0  0  0  0  0
    5.3195    3.4344    0.0000 H   0  0  0  0  0  0  0  0  0  0  0  0
    2.8668    1.1934    0.0000 H   0  0  0  0  0  0  0  0  0  0  0  0
    2.1854    1.0069    0.0000 H   0  0  0  0  0  0  0  0  0  0  0  0
    3.0791    3.2109    0.0000 H   0  0  0  0  0  0  0  0  0  0  0  0
    2.1524    1.6059    0.0000 H   0  0  0  0  0  0  0  0  0  0  0  0
    2.1525    2.6759    0.0000 H   0  0  0  0  0  0  0  0  0  0  0  0
    5.4017    1.0069    0.0000 H   0  0  0  0  0  0  0  0  0  0  0  0
    5.4017   -0.8501    0.0000 H   0  0  0  0  0  0  0  0  0  0  0  0
    3.7935   -1.7786    0.0000 H   0  0  0  0  0  0  0  0  0  0  0  0
    3.9728   -1.4682    0.0000 H   0  0  0  0  0  0  0  0  0  0  0  0
    0.7563   -1.4682    0.0000 H   0  0  0  0  0  0  0  0  0  0  0  0
    3.9728   -3.3252    0.0000 H   0  0  0  0  0  0  0  0  0  0  0  0
    0.7563   -3.3252    0.0000 H   0  0  0  0  0  0  0  0  0  0  0  0
    2.3645   -4.2537    0.0000 H   0  0  0  0  0  0  0  0  0  0  0  0
  1  9  1  0  0  0  0
  1 13  1  0  0  0  0
  2 10  1  0  0  0  0
  2 19  1  0  0  0  0
  3 10  2  0  0  0  0
  4  5  1  0  0  0  0
  4  7  1  0  0  0  0
  4 10  1  0  0  0  0
  4 20  1  0  0  0  0
  5  6  2  0  0  0  0
  5  8  1  0  0  0  0
  6  9  1  0  0  0  0
  6 21  1  0  0  0  0
  7 22  1  0  0  0  0
  7 23  1  0  0  0  0
  7 24  1  0  0  0  0
  8 11  2  0  0  0  0
  8 25  1  0  0  0  0
  9 12  2  0  0  0  0
 11 12  1  0  0  0  0
 11 26  1  0  0  0  0
 12 27  1  0  0  0  0
 13 14  2  0  0  0  0
 13 15  1  0  0  0  0
 14 16  1  0  0  0  0
 14 28  1  0  0  0  0
 15 17  2  0  0  0  0
 15 29  1  0  0  0  0
 16 18  2  0  0  0  0
 16 30  1  0  0  0  0
 17 18  1  0  0  0  0
 17 31  1  0  0  0  0
 18 32  1  0  0  0  0
M  END
>  <DRUGBANK_ID>
DB00573

>  <SECONDARY_ACCESSION_NUMBERS>
APRD00970

>  <COMMON_NAME>
Fenoprofen

>  <CAS_NUMBER>
29679-58-1

>  <UNII>
RA33EAC7KY

>  <SYNONYMS>
(+/-)-fenoprofen; (+/-)-m-phenoxyhydratropic acid; (±)-2-(3-phenoxyphenyl)propionic acid; 2-(3-phenoxyphenyl)propionic acid; 2-(m-phenoxyphenyl)propionic acid; 3-phenoxyhydratropic acid; DL-2-(3-phenoxyphenyl)propionic acid; Fenoprofen; Fénoprofène; Fenoprofeno; Fenoprofenum; α-(m-phenoxyphenyl)propionic acid; α-methyl-3-phenoxybenzeneacetic acid

$$$$
