
 OpenBabel10282417072D

 30 30  0  0  0  0  0  0  0  0999 V2000
    0.1842    1.8695    0.0000 C   0  0  0  0  0  0  0  0  0  0  0  0
    0.7145    1.2375    0.0000 C   0  0  0  0  0  0  0  0  0  0  0  0
    1.4289    0.8250    0.0000 C   0  0  0  0  0  0  0  0  0  0  0  0
    1.4289   -0.0000    0.0000 C   0  0  0  0  0  0  0  0  0  0  0  0
    0.7145   -0.4125    0.0000 C   0  0  0  0  0  0  0  0  0  0  0  0
    0.0000    0.0000    0.0000 C   0  0  0  0  0  0  0  0  0  0  0  0
    0.0000    0.8250    0.0000 N   0  0  0  0  0  0  0  0  0  0  0  0
   -0.7145    1.2375    0.0000 O   0  0  0  0  0  1  0  0  0  0  0  0
   -0.4372   -0.6996    0.0000 C   0  0  0  0  0  0  0  0  0  0  0  0
   -0.8245   -0.0288    0.0000 C   0  0  0  0  0  0  0  0  0  0  0  0
    2.1434   -0.4125    0.0000 O   0  0  0  0  0  0  0  0  0  0  0  0
    1.2448    1.8695    0.0000 C   0  0  0  0  0  0  0  0  0  0  0  0
    0.5502    2.8750    0.0000 H   0  0  0  0  0  0  0  0  0  0  0  0
   -0.8695    1.6837    0.0000 H   0  0  0  0  0  0  0  0  0  0  0  0
   -0.5036    2.6892    0.0000 H   0  0  0  0  0  0  0  0  0  0  0  0
    2.3556    1.3600    0.0000 H   0  0  0  0  0  0  0  0  0  0  0  0
    2.3555    0.2900    0.0000 H   0  0  0  0  0  0  0  0  0  0  0  0
    1.4289   -1.0700    0.0000 H   0  0  0  0  0  0  0  0  0  0  0  0
    0.7145   -1.4825    0.0000 H   0  0  0  0  0  0  0  0  0  0  0  0
   -0.2121   -0.9475    0.0000 H   0  0  0  0  0  0  0  0  0  0  0  0
   -1.5065   -0.6622    0.0000 H   0  0  0  0  0  0  0  0  0  0  0  0
    0.0651   -1.6444    0.0000 H   0  0  0  0  0  0  0  0  0  0  0  0
   -1.0043   -1.6070    0.0000 H   0  0  0  0  0  0  0  0  0  0  0  0
   -1.3915    0.8786    0.0000 H   0  0  0  0  0  0  0  0  0  0  0  0
   -1.3268   -0.9736    0.0000 H   0  0  0  0  0  0  0  0  0  0  0  0
   -1.8938   -0.0662    0.0000 H   0  0  0  0  0  0  0  0  0  0  0  0
    2.1434   -1.3825    0.0000 H   0  0  0  0  0  0  0  0  0  0  0  0
    2.2985    1.6837    0.0000 H   0  0  0  0  0  0  0  0  0  0  0  0
    0.8788    2.8750    0.0000 H   0  0  0  0  0  0  0  0  0  0  0  0
    1.9326    2.6892    0.0000 H   0  0  0  0  0  0  0  0  0  0  0  0
  1  2  1  0  0  0  0
  1 13  1  0  0  0  0
  1 14  1  0  0  0  0
  1 15  1  0  0  0  0
  2  3  1  0  0  0  0
  2  7  1  0  0  0  0
  2 12  1  0  0  0  0
  3  4  1  0  0  0  0
  3 16  1  0  0  0  0
  3 17  1  0  0  0  0
  4  5  1  0  0  0  0
  4 11  1  0  0  0  0
  4 18  1  0  0  0  0
  5  6  1  0  0  0  0
  5 19  1  0  0  0  0
  5 20  1  0  0  0  0
  6  7  1  0  0  0  0
  6  9  1  0  0  0  0
  6 10  1  0  0  0  0
  7  8  1  0  0  0  0
  9 21  1  0  0  0  0
  9 22  1  0  0  0  0
  9 23  1  0  0  0  0
 10 24  1  0  0  0  0
 10 25  1  0  0  0  0
 10 26  1  0  0  0  0
 11 27  1  0  0  0  0
 12 28  1  0  0  0  0
 12 29  1  0  0  0  0
 12 30  1  0  0  0  0
M  RAD  1   8   2
M  END
>  <DRUGBANK_ID>
DB12449

>  <COMMON_NAME>
Tempol

>  <CAS_NUMBER>
2226-96-2

>  <UNII>
U78ZX2F65X

>  <SYNONYMS>
1-PIPERIDINYLOXY,4-HYDROXY-2,2,6,6-TETRAMETHYL-; 2,2,6,6-TETRAMETHYL-4-HYDROXYPIPERIDINE 1-OXIDE RADICAL; 2,2,6,6-TETRAMETHYL-4-HYDROXYPIPERIDINOOXY; 2,2,6,6-TETRAMETHYL-4-HYDROXYPIPERIDINOOXY RADICAL; 4-HYDROXY-2,2,6,6-TETRAMETHYL-1-PIPERIDINYLOXY; 4-HYDROXY-2,2,6,6-TETRAMETHYL-PIPERIDIN-1-OXYL; 4-HYDROXY-2,2,6,6-TETRAMETHYLPIPERIDIN-1-YL)OXIDANYL; 4-Hydroxy-2,2,6,6-tetramethylpiperidine-N-oxyl; 4-HYDROXY-2,2,6,6-TETRAMETHYLPIPERIDINEY-1-OXYL; 4-HYDROXY-2,2,6,6-TETRAMETHYLPIPERIDINLYOXY; 4-HYDROXY-2,2,6,6-TETRAMETHYLPIPERIDINOOXY; 4-HYDROXY-2,2,6,6-TETRAMETHYLPIPERIDINOOXYL; 4-OXYPIPERIDOL

$$$$
