
 OpenBabel10282417072D

 59 59  0  0  1  0  0  0  0  0999 V2000
   -2.8579    1.6500    0.0000 C   0  0  0  0  0  0  0  0  0  0  0  0
   -2.1434    1.2375    0.0000 C   0  0  0  0  0  0  0  0  0  0  0  0
   -1.4289    1.6500    0.0000 C   0  0  0  0  0  0  0  0  0  0  0  0
   -0.7145    1.2375    0.0000 C   0  0  0  0  0  0  0  0  0  0  0  0
    0.0000    1.6500    0.0000 C   0  0  0  0  0  0  0  0  0  0  0  0
    0.7145    1.2375    0.0000 C   0  0  2  0  0  0  0  0  0  0  0  0
    1.4289    1.6500    0.0000 C   0  0  0  0  0  0  0  0  0  0  0  0
    2.1434    1.2375    0.0000 C   0  0  0  0  0  0  0  0  0  0  0  0
    2.8579    1.6500    0.0000 C   0  0  0  0  0  0  0  0  0  0  0  0
    2.8579    2.4750    0.0000 C   0  0  0  0  0  0  0  0  0  0  0  0
    3.5724    2.8875    0.0000 C   0  0  0  0  0  0  0  0  0  0  0  0
    4.2868    2.4750    0.0000 C   0  0  0  0  0  0  0  0  0  0  0  0
    4.2868    1.6500    0.0000 C   0  0  0  0  0  0  0  0  0  0  0  0
    3.5724    1.2375    0.0000 C   0  0  0  0  0  0  0  0  0  0  0  0
    3.5724    0.4125    0.0000 C   0  0  0  0  0  0  0  0  0  0  0  0
    2.8579    0.0000    0.0000 C   0  0  0  0  0  0  0  0  0  0  0  0
    2.8579   -0.8250    0.0000 C   0  0  2  0  0  0  0  0  0  0  0  0
    3.5724   -1.2375    0.0000 C   0  0  2  0  0  0  0  0  0  0  0  0
    4.2868   -0.8250    0.0000 C   0  0  0  0  0  0  0  0  0  0  0  0
    5.0013   -1.2375    0.0000 C   0  0  0  0  0  0  0  0  0  0  0  0
    5.7158   -0.8250    0.0000 C   0  0  0  0  0  0  0  0  0  0  0  0
    6.4302   -1.2375    0.0000 C   0  0  0  0  0  0  0  0  0  0  0  0
    7.1447   -0.8250    0.0000 O   0  0  0  0  0  0  0  0  0  0  0  0
    6.4302   -2.0625    0.0000 O   0  0  0  0  0  0  0  0  0  0  0  0
    3.5724   -2.0625    0.0000 O   0  0  0  0  0  0  0  0  0  0  0  0
    2.1434   -1.2375    0.0000 O   0  0  0  0  0  0  0  0  0  0  0  0
    0.7145    0.4125    0.0000 O   0  0  0  0  0  0  0  0  0  0  0  0
   -2.8579    2.7200    0.0000 H   0  0  0  0  0  0  0  0  0  0  0  0
   -3.7845    1.1150    0.0000 H   0  0  0  0  0  0  0  0  0  0  0  0
   -3.7846    2.1850    0.0000 H   0  0  0  0  0  0  0  0  0  0  0  0
   -2.1434    0.1675    0.0000 H   0  0  0  0  0  0  0  0  0  0  0  0
   -1.2168    0.7025    0.0000 H   0  0  0  0  0  0  0  0  0  0  0  0
   -1.4289    2.7200    0.0000 H   0  0  0  0  0  0  0  0  0  0  0  0
   -0.5022    2.1850    0.0000 H   0  0  0  0  0  0  0  0  0  0  0  0
   -0.7145    0.1675    0.0000 H   0  0  0  0  0  0  0  0  0  0  0  0
    0.2121    0.7025    0.0000 H   0  0  0  0  0  0  0  0  0  0  0  0
    0.0000    2.7200    0.0000 H   0  0  0  0  0  0  0  0  0  0  0  0
    0.9266    2.1850    0.0000 H   0  0  0  0  0  0  0  0  0  0  0  0
   -0.2121    0.7025    0.0000 H   0  0  0  0  0  0  0  0  0  0  0  0
    1.4289    2.6820    0.0000 H   0  0  0  0  0  0  0  0  0  0  0  0
    2.1434    0.2055    0.0000 H   0  0  0  0  0  0  0  0  0  0  0  0
    1.9642    2.9910    0.0000 H   0  0  0  0  0  0  0  0  0  0  0  0
    3.5724    3.9195    0.0000 H   0  0  0  0  0  0  0  0  0  0  0  0
    5.1805    2.9910    0.0000 H   0  0  0  0  0  0  0  0  0  0  0  0
    5.1805    1.1340    0.0000 H   0  0  0  0  0  0  0  0  0  0  0  0
    4.4661   -0.1035    0.0000 H   0  0  0  0  0  0  0  0  0  0  0  0
    1.9642    0.5160    0.0000 H   0  0  0  0  0  0  0  0  0  0  0  0
    1.9313   -0.2900    0.0000 H   0  0  0  0  0  0  0  0  0  0  0  0
    2.6458   -1.7725    0.0000 H   0  0  0  0  0  0  0  0  0  0  0  0
    4.2868    0.2450    0.0000 H   0  0  0  0  0  0  0  0  0  0  0  0
    5.2134   -0.2900    0.0000 H   0  0  0  0  0  0  0  0  0  0  0  0
    5.0013   -2.3075    0.0000 H   0  0  0  0  0  0  0  0  0  0  0  0
    5.9279   -1.7725    0.0000 H   0  0  0  0  0  0  0  0  0  0  0  0
    5.7158    0.2450    0.0000 H   0  0  0  0  0  0  0  0  0  0  0  0
    6.6425   -0.2900    0.0000 H   0  0  0  0  0  0  0  0  0  0  0  0
    5.6187   -2.5310    0.0000 H   0  0  0  0  0  0  0  0  0  0  0  0
    2.7324   -2.5475    0.0000 H   0  0  0  0  0  0  0  0  0  0  0  0
    1.3034   -0.7525    0.0000 H   0  0  0  0  0  0  0  0  0  0  0  0
   -0.1255   -0.0725    0.0000 H   0  0  0  0  0  0  0  0  0  0  0  0
  1  2  1  0  0  0  0
  1 28  1  0  0  0  0
  1 29  1  0  0  0  0
  1 30  1  0  0  0  0
  2  3  1  0  0  0  0
  2 31  1  0  0  0  0
  2 32  1  0  0  0  0
  3  4  1  0  0  0  0
  3 33  1  0  0  0  0
  3 34  1  0  0  0  0
  4  5  1  0  0  0  0
  4 35  1  0  0  0  0
  4 36  1  0  0  0  0
  5  6  1  0  0  0  0
  5 37  1  0  0  0  0
  5 38  1  0  0  0  0
  6  7  1  0  0  0  0
  6 27  1  0  0  0  0
  6 39  1  1  0  0  0
  7  8  2  0  0  0  0
  7 40  1  0  0  0  0
  8  9  1  0  0  0  0
  8 41  1  0  0  0  0
  9 10  2  0  0  0  0
  9 14  1  0  0  0  0
 10 11  1  0  0  0  0
 10 42  1  0  0  0  0
 11 12  2  0  0  0  0
 11 43  1  0  0  0  0
 12 13  1  0  0  0  0
 12 44  1  0  0  0  0
 13 14  2  0  0  0  0
 13 45  1  0  0  0  0
 14 15  1  0  0  0  0
 15 16  2  0  0  0  0
 15 46  1  0  0  0  0
 16 17  1  0  0  0  0
 16 47  1  0  0  0  0
 17 18  1  0  0  0  0
 17 26  1  0  0  0  0
 17 48  1  1  0  0  0
 18 19  1  0  0  0  0
 18 25  1  0  0  0  0
 18 49  1  1  0  0  0
 19 20  1  0  0  0  0
 19 50  1  0  0  0  0
 19 51  1  0  0  0  0
 20 21  1  0  0  0  0
 20 52  1  0  0  0  0
 20 53  1  0  0  0  0
 21 22  1  0  0  0  0
 21 54  1  0  0  0  0
 21 55  1  0  0  0  0
 22 23  2  0  0  0  0
 22 24  1  0  0  0  0
 24 56  1  0  0  0  0
 25 57  1  0  0  0  0
 26 58  1  0  0  0  0
 27 59  1  0  0  0  0
M  END
>  <DRUGBANK_ID>
DB12133

>  <COMMON_NAME>
BLXA4

>  <CAS_NUMBER>
864516-86-9

>  <UNII>
LXE89WJ787

$$$$
