
 OpenBabel10282417072D

 29 28  0  0  1  0  0  0  0  0999 V2000
    2.2836   -2.1434    0.0000 O   0  0  0  0  0  0  0  0  0  0  0  0
    2.9980   -2.5559    0.0000 C   0  0  0  0  0  0  0  0  0  0  0  0
    3.7125   -2.1434    0.0000 C   0  0  0  0  0  0  0  0  0  0  0  0
    3.7125   -1.3184    0.0000 O   0  0  0  0  0  0  0  0  0  0  0  0
    4.4270   -2.5559    0.0000 C   0  0  1  0  0  0  0  0  0  0  0  0
    4.4270   -3.3809    0.0000 O   0  0  0  0  0  0  0  0  0  0  0  0
    5.1414   -2.1434    0.0000 C   0  0  1  0  0  0  0  0  0  0  0  0
    5.1414   -1.3184    0.0000 O   0  0  0  0  0  0  0  0  0  0  0  0
    5.8559   -2.5559    0.0000 C   0  0  2  0  0  0  0  0  0  0  0  0
    5.8559   -3.3809    0.0000 O   0  0  0  0  0  0  0  0  0  0  0  0
    6.5704   -2.1434    0.0000 C   0  0  0  0  0  0  0  0  0  0  0  0
    7.2849   -2.5559    0.0000 O   0  0  0  0  0  0  0  0  0  0  0  0
    7.9993   -2.1434    0.0000 P   0  0  0  0  0  0  0  0  0  0  0  0
    8.7138   -1.7309    0.0000 O   0  0  0  0  0  0  0  0  0  0  0  0
    8.4118   -2.8579    0.0000 O   0  0  0  0  0  0  0  0  0  0  0  0
    7.5868   -1.4289    0.0000 O   0  0  0  0  0  0  0  0  0  0  0  0
    2.2836   -1.1734    0.0000 H   0  0  0  0  0  0  0  0  0  0  0  0
    2.9980   -3.6259    0.0000 H   0  0  0  0  0  0  0  0  0  0  0  0
    3.9246   -3.0909    0.0000 H   0  0  0  0  0  0  0  0  0  0  0  0
    3.5004   -3.0909    0.0000 H   0  0  0  0  0  0  0  0  0  0  0  0
    3.5870   -3.8659    0.0000 H   0  0  0  0  0  0  0  0  0  0  0  0
    4.2147   -1.6084    0.0000 H   0  0  0  0  0  0  0  0  0  0  0  0
    5.9814   -0.8334    0.0000 H   0  0  0  0  0  0  0  0  0  0  0  0
    4.9293   -3.0909    0.0000 H   0  0  0  0  0  0  0  0  0  0  0  0
    5.0159   -3.8659    0.0000 H   0  0  0  0  0  0  0  0  0  0  0  0
    6.5704   -1.0734    0.0000 H   0  0  0  0  0  0  0  0  0  0  0  0
    7.4970   -1.6084    0.0000 H   0  0  0  0  0  0  0  0  0  0  0  0
    9.5538   -2.2159    0.0000 H   0  0  0  0  0  0  0  0  0  0  0  0
    7.9268   -3.6979    0.0000 H   0  0  0  0  0  0  0  0  0  0  0  0
  1  2  1  0  0  0  0
  1 17  1  0  0  0  0
  2  3  1  0  0  0  0
  2 18  1  0  0  0  0
  2 19  1  0  0  0  0
  3  4  2  0  0  0  0
  3  5  1  0  0  0  0
  5  6  1  0  0  0  0
  5  7  1  0  0  0  0
  5 20  1  1  0  0  0
  6 21  1  0  0  0  0
  7  8  1  0  0  0  0
  7  9  1  0  0  0  0
  7 22  1  6  0  0  0
  8 23  1  0  0  0  0
  9 10  1  0  0  0  0
  9 11  1  0  0  0  0
  9 24  1  6  0  0  0
 10 25  1  0  0  0  0
 11 12  1  0  0  0  0
 11 26  1  0  0  0  0
 11 27  1  0  0  0  0
 12 13  1  0  0  0  0
 13 14  1  0  0  0  0
 13 15  1  0  0  0  0
 13 16  2  0  0  0  0
 14 28  1  0  0  0  0
 15 29  1  0  0  0  0
M  END
>  <DRUGBANK_ID>
DB04277

>  <SECONDARY_ACCESSION_NUMBERS>
EXPT01384

>  <COMMON_NAME>
Fructose -6-Phosphate

$$$$
