
 OpenBabel10282417072D

  4  2  0  0  0  0  0  0  0  0999 V2000
    0.0295    0.3904    0.0000 Ca  0  2  0  0  0  0  0  0  0  0  0  0
    0.0000   -0.3903    0.0000 C   0  0  0  0  0  0  0  0  0  0  0  0
    0.8250   -0.3903    0.0000 N   0  5  0  0  0  0  0  0  0  0  0  0
   -0.8250   -0.3903    0.0000 N   0  5  0  0  0  0  0  0  0  0  0  0
  2  3  2  0  0  0  0
  2  4  2  0  0  0  0
M  CHG  3   1   2   3  -1   4  -1
M  END
>  <DRUGBANK_ID>
DB09116

>  <COMMON_NAME>
Calcium carbimide

>  <CAS_NUMBER>
156-62-7

>  <UNII>
ZLR270912W

>  <SYNONYMS>
Calcium carbimide; calcium cyanamide; carbimida calcica; carbimide calcique; Cyanamide calcique; Cyanamide, calcium salt (1:1); Lime nitrogen; Lime-nitrogen; methanediimine, calcium salt (1:1); Nitrogen lime

$$$$
