
 OpenBabel10282417072D

 15 16  0  0  0  0  0  0  0  0999 V2000
    0.4368    0.0000    0.0000 C   0  0  0  0  0  0  0  0  0  0  0  0
    0.4368   -0.8250    0.0000 C   0  0  0  0  0  0  0  0  0  0  0  0
   -0.2775    0.4124    0.0000 C   0  0  0  0  0  0  0  0  0  0  0  0
    1.2215    0.2548    0.0000 N   0  0  0  0  0  0  0  0  0  0  0  0
   -0.2775   -1.2375    0.0000 N   0  0  0  0  0  0  0  0  0  0  0  0
    1.7066   -0.4125    0.0000 N   0  0  0  0  0  0  0  0  0  0  0  0
    1.2215   -1.0800    0.0000 N   0  0  0  0  0  0  0  0  0  0  0  0
   -0.9921   -0.8250    0.0000 C   0  0  0  0  0  0  0  0  0  0  0  0
   -1.7066   -1.2375    0.0000 N   0  0  0  0  0  0  0  0  0  0  0  0
   -0.2775    1.2375    0.0000 O   0  0  0  0  0  0  0  0  0  0  0  0
   -0.9921    0.0000    0.0000 N   0  0  0  0  0  0  0  0  0  0  0  0
    1.5256   -2.0163    0.0000 H   0  0  0  0  0  0  0  0  0  0  0  0
   -2.5592   -0.7452    0.0000 H   0  0  0  0  0  0  0  0  0  0  0  0
   -1.7066   -2.2220    0.0000 H   0  0  0  0  0  0  0  0  0  0  0  0
   -1.8447    0.4923    0.0000 H   0  0  0  0  0  0  0  0  0  0  0  0
  1  2  2  0  0  0  0
  1  3  1  0  0  0  0
  1  4  1  0  0  0  0
  2  5  1  0  0  0  0
  2  7  1  0  0  0  0
  3 11  1  0  0  0  0
  3 10  2  0  0  0  0
  4  6  2  0  0  0  0
  5  8  2  0  0  0  0
  7  6  1  0  0  0  0
  7 12  1  0  0  0  0
  8  9  1  0  0  0  0
  9 13  1  0  0  0  0
  9 14  1  0  0  0  0
 11  8  1  0  0  0  0
 11 15  1  0  0  0  0
M  END
>  <DRUGBANK_ID>
DB01667

>  <SECONDARY_ACCESSION_NUMBERS>
EXPT00603

>  <COMMON_NAME>
8-azaguanine

>  <CAS_NUMBER>
134-58-7

>  <UNII>
Q150359I72

>  <SYNONYMS>
3-amino-2,4,7,8,9-pentazabicyclo[4.3.0]nona-1,3,6-trien-5-one; 8 AG; Azaguanine; Azaguanine-8; Guanazol; Pathocidin; Pathocidine

$$$$
