FR0
 OpenBabel10282417072D

 40 43  0  0  0  0  0  0  0  0999 V2000
    2.2291    0.4069    0.0000 N   0  0  0  0  0  0  0  0  0  0  0  0
    3.0137    0.6619    0.0000 C   0  0  0  0  0  0  0  0  0  0  0  0
    3.0137    1.4869    0.0000 C   0  0  0  0  0  0  0  0  0  0  0  0
    2.2291    1.7418    0.0000 N   0  0  0  0  0  0  0  0  0  0  0  0
    1.7442    1.0744    0.0000 C   0  0  0  0  0  0  0  0  0  0  0  0
    3.7282    0.2494    0.0000 C   0  0  0  0  0  0  0  0  0  0  0  0
    4.4427    0.6619    0.0000 C   0  0  0  0  0  0  0  0  0  0  0  0
    4.4427    1.4869    0.0000 C   0  0  0  0  0  0  0  0  0  0  0  0
    3.7282    1.8994    0.0000 C   0  0  0  0  0  0  0  0  0  0  0  0
    0.9192    1.0744    0.0000 N   0  0  0  0  0  0  0  0  0  0  0  0
    0.5067    0.3599    0.0000 C   0  0  0  0  0  0  0  0  0  0  0  0
   -0.3183    0.3599    0.0000 C   0  0  0  0  0  0  0  0  0  0  0  0
   -0.8032   -0.3075    0.0000 S   0  0  0  0  0  0  0  0  0  0  0  0
   -1.5879   -0.0526    0.0000 C   0  0  0  0  0  0  0  0  0  0  0  0
   -1.5879    0.7724    0.0000 C   0  0  0  0  0  0  0  0  0  0  0  0
   -0.8032    1.0273    0.0000 C   0  0  0  0  0  0  0  0  0  0  0  0
   -2.2553   -0.5375    0.0000 C   0  0  0  0  0  0  0  0  0  0  0  0
   -2.2553   -1.3625    0.0000 N   0  0  0  0  0  0  0  0  0  0  0  0
   -3.0399   -1.6175    0.0000 C   0  0  0  0  0  0  0  0  0  0  0  0
   -3.5248   -0.9500    0.0000 S   0  0  0  0  0  0  0  0  0  0  0  0
   -3.0399   -0.2826    0.0000 C   0  0  0  0  0  0  0  0  0  0  0  0
   -3.2949   -2.4021    0.0000 N   0  0  0  0  0  0  0  0  0  0  0  0
   -4.1018   -2.5736    0.0000 C   0  0  0  0  0  0  0  0  0  0  0  0
   -4.3568   -3.3582    0.0000 N   0  0  0  0  0  0  0  0  0  0  0  0
   -4.6539   -1.9605    0.0000 N   0  0  0  0  0  0  0  0  0  0  0  0
    1.9249    2.6781    0.0000 H   0  0  0  0  0  0  0  0  0  0  0  0
    3.7282   -0.7826    0.0000 H   0  0  0  0  0  0  0  0  0  0  0  0
    5.3364    0.1459    0.0000 H   0  0  0  0  0  0  0  0  0  0  0  0
    5.3364    2.0029    0.0000 H   0  0  0  0  0  0  0  0  0  0  0  0
    3.7282    2.9314    0.0000 H   0  0  0  0  0  0  0  0  0  0  0  0
    0.4269    1.9270    0.0000 H   0  0  0  0  0  0  0  0  0  0  0  0
    1.0417   -0.5667    0.0000 H   0  0  0  0  0  0  0  0  0  0  0  0
   -0.0283   -0.5667    0.0000 H   0  0  0  0  0  0  0  0  0  0  0  0
   -2.4228    1.3790    0.0000 H   0  0  0  0  0  0  0  0  0  0  0  0
   -0.4843    2.0088    0.0000 H   0  0  0  0  0  0  0  0  0  0  0  0
   -3.3588    0.6989    0.0000 H   0  0  0  0  0  0  0  0  0  0  0  0
   -5.3198   -3.5628    0.0000 H   0  0  0  0  0  0  0  0  0  0  0  0
   -3.6981   -4.0899    0.0000 H   0  0  0  0  0  0  0  0  0  0  0  0
   -4.3497   -1.0242    0.0000 H   0  0  0  0  0  0  0  0  0  0  0  0
   -5.6169   -2.1652    0.0000 H   0  0  0  0  0  0  0  0  0  0  0  0
  1  2  1  0  0  0  0
  1  5  2  0  0  0  0
  2  3  2  0  0  0  0
  2  6  1  0  0  0  0
  3  4  1  0  0  0  0
  3  9  1  0  0  0  0
  4  5  1  0  0  0  0
  4 26  1  0  0  0  0
  5 10  1  0  0  0  0
  6  7  2  0  0  0  0
  6 27  1  0  0  0  0
  7  8  1  0  0  0  0
  7 28  1  0  0  0  0
  8  9  2  0  0  0  0
  8 29  1  0  0  0  0
  9 30  1  0  0  0  0
 10 11  1  0  0  0  0
 10 31  1  0  0  0  0
 11 12  1  0  0  0  0
 11 32  1  0  0  0  0
 11 33  1  0  0  0  0
 12 13  1  0  0  0  0
 12 16  2  0  0  0  0
 13 14  1  0  0  0  0
 14 15  2  0  0  0  0
 14 17  1  0  0  0  0
 15 16  1  0  0  0  0
 15 34  1  0  0  0  0
 16 35  1  0  0  0  0
 17 18  1  0  0  0  0
 17 21  2  0  0  0  0
 18 19  2  0  0  0  0
 19 20  1  0  0  0  0
 19 22  1  0  0  0  0
 20 21  1  0  0  0  0
 21 36  1  0  0  0  0
 22 23  2  0  0  0  0
 23 24  1  0  0  0  0
 23 25  1  0  0  0  0
 24 37  1  0  0  0  0
 24 38  1  0  0  0  0
 25 39  1  0  0  0  0
 25 40  1  0  0  0  0
M  END
>  <DRUGBANK_ID>
DB02616

>  <SECONDARY_ACCESSION_NUMBERS>
EXPT01481

>  <COMMON_NAME>
FR117016

$$$$
