
 OpenBabel10282417072D

 75 82  0  0  0  0  0  0  0  0999 V2000
   -0.0008   -0.6785    0.0000 C   0  0  0  0  0  0  0  0  0  0  0  0
    4.9480   -4.4556    0.0000 C   0  0  0  0  0  0  0  0  0  0  0  0
    1.0073    0.9457    0.0000 C   0  0  0  0  0  0  0  0  0  0  0  0
    3.3333   -3.4825    0.0000 C   0  0  0  0  0  0  0  0  0  0  0  0
    3.3926    0.4554    0.0000 C   0  0  0  0  0  0  0  0  0  0  0  0
    7.7109   -1.1106    0.0000 C   0  0  0  0  0  0  0  0  0  0  0  0
    0.8219   -0.9036    0.0000 C   0  0  0  0  0  0  0  0  0  0  0  0
    5.1617   -3.6266    0.0000 C   0  0  0  0  0  0  0  0  0  0  0  0
    5.0521    0.2804    0.0000 C   0  0  0  0  0  0  0  0  0  0  0  0
    7.8445    0.7425    0.0000 C   0  0  0  0  0  0  0  0  0  0  0  0
    4.9430   -0.5720    0.0000 C   0  0  0  0  0  0  0  0  0  0  0  0
    8.6593    0.4644    0.0000 C   0  0  0  0  0  0  0  0  0  0  0  0
    2.9495    1.4992    0.0000 C   0  0  0  0  0  0  0  0  0  0  0  0
    2.7546   -1.4847    0.0000 C   0  0  0  0  0  0  0  0  0  0  0  0
    5.7385   -1.6795    0.0000 C   0  0  0  0  0  0  0  0  0  0  0  0
    5.9333    1.3044    0.0000 C   0  0  0  0  0  0  0  0  0  0  0  0
    1.6294    0.3584    0.0000 C   0  0  0  0  0  0  0  0  0  0  0  0
    3.8954   -2.8048    0.0000 C   0  0  0  0  0  0  0  0  0  0  0  0
    3.8671    1.1123    0.0000 C   0  0  0  0  0  0  0  0  0  0  0  0
    7.0586   -0.5388    0.0000 C   0  0  0  0  0  0  0  0  0  0  0  0
    1.5756   -0.4648    0.0000 C   0  0  0  0  0  0  0  0  0  0  0  0
    4.7186   -2.8585    0.0000 C   0  0  0  0  0  0  0  0  0  0  0  0
    4.6904    1.0585    0.0000 C   0  0  0  0  0  0  0  0  0  0  0  0
    7.1124    0.2845    0.0000 C   0  0  0  0  0  0  0  0  0  0  0  0
    2.4289    0.5617    0.0000 C   0  0  0  0  0  0  0  0  0  0  0  0
    3.6638    1.9119    0.0000 C   0  0  0  0  0  0  0  0  0  0  0  0
    3.6921   -2.0052    0.0000 C   0  0  0  0  0  0  0  0  0  0  0  0
    6.2590   -0.7421    0.0000 C   0  0  0  0  0  0  0  0  0  0  0  0
    2.3420   -0.7703    0.0000 C   0  0  0  0  0  0  0  0  0  0  0  0
    5.0241   -2.0922    0.0000 C   0  0  0  0  0  0  0  0  0  0  0  0
    4.9959    1.8249    0.0000 C   0  0  0  0  0  0  0  0  0  0  0  0
    6.3460    0.5900    0.0000 C   0  0  0  0  0  0  0  0  0  0  0  0
    4.9990   -1.4416    0.0000 C   0  0  0  0  0  0  0  0  0  0  0  0
    9.3833    0.9222    0.0000 C   0  0  0  0  0  0  0  0  0  0  0  0
    4.3598    0.1518    0.0000 Co  0  0  3  0  0  0  0  0  0  0  0  0
    2.8693   -0.1359    0.0000 N   0  0  0  0  0  0  0  0  0  0  0  0
    4.4722   -1.4823    0.0000 N   0  0  0  0  0  0  0  0  0  0  0  0
    4.3615    2.3523    0.0000 N   0  0  0  0  0  0  0  0  0  0  0  0
    5.8186   -0.0444    0.0000 N   0  0  0  0  0  0  0  0  0  0  0  0
    5.8240   -1.1477    0.0000 O   0  0  0  0  0  0  0  0  0  0  0  0
    4.2697   -2.0919    0.0000 O   0  0  0  0  0  0  0  0  0  0  0  0
    9.3517    1.7725    0.0000 O   0  0  0  0  0  0  0  0  0  0  0  0
   10.1377    0.5313    0.0000 O   0  0  0  0  0  0  0  0  0  0  0  0
   -0.2626    0.3197    0.0000 H   0  0  0  0  0  0  0  0  0  0  0  0
   -0.7344   -1.4044    0.0000 H   0  0  0  0  0  0  0  0  0  0  0  0
    3.9538   -4.7322    0.0000 H   0  0  0  0  0  0  0  0  0  0  0  0
    5.6846   -5.1784    0.0000 H   0  0  0  0  0  0  0  0  0  0  0  0
    1.2544    1.9868    0.0000 H   0  0  0  0  0  0  0  0  0  0  0  0
   -0.0178    0.6392    0.0000 H   0  0  0  0  0  0  0  0  0  0  0  0
    0.2292    1.6802    0.0000 H   0  0  0  0  0  0  0  0  0  0  0  0
    2.2785   -3.3027    0.0000 H   0  0  0  0  0  0  0  0  0  0  0  0
    3.7050   -4.4859    0.0000 H   0  0  0  0  0  0  0  0  0  0  0  0
    2.6502   -4.3061    0.0000 H   0  0  0  0  0  0  0  0  0  0  0  0
    2.3282    0.5643    0.0000 H   0  0  0  0  0  0  0  0  0  0  0  0
    3.8305   -0.5209    0.0000 H   0  0  0  0  0  0  0  0  0  0  0  0
    2.7661   -0.4120    0.0000 H   0  0  0  0  0  0  0  0  0  0  0  0
    7.5024   -2.1601    0.0000 H   0  0  0  0  0  0  0  0  0  0  0  0
    8.7240   -0.7664    0.0000 H   0  0  0  0  0  0  0  0  0  0  0  0
    8.5155   -1.8159    0.0000 H   0  0  0  0  0  0  0  0  0  0  0  0
    0.9558   -1.9269    0.0000 H   0  0  0  0  0  0  0  0  0  0  0  0
    6.1842   -3.4872    0.0000 H   0  0  0  0  0  0  0  0  0  0  0  0
    6.1095    0.4444    0.0000 H   0  0  0  0  0  0  0  0  0  0  0  0
    5.5565    1.2241    0.0000 H   0  0  0  0  0  0  0  0  0  0  0  0
    7.7217    1.8054    0.0000 H   0  0  0  0  0  0  0  0  0  0  0  0
    6.8803    1.2063    0.0000 H   0  0  0  0  0  0  0  0  0  0  0  0
    3.8735   -0.5383    0.0000 H   0  0  0  0  0  0  0  0  0  0  0  0
    4.1989   -1.3409    0.0000 H   0  0  0  0  0  0  0  0  0  0  0  0
    8.7847   -0.5982    0.0000 H   0  0  0  0  0  0  0  0  0  0  0  0
    9.6252    0.0041    0.0000 H   0  0  0  0  0  0  0  0  0  0  0  0
    2.2136    2.2227    0.0000 H   0  0  0  0  0  0  0  0  0  0  0  0
    2.0311   -2.2206    0.0000 H   0  0  0  0  0  0  0  0  0  0  0  0
    6.4744   -2.4030    0.0000 H   0  0  0  0  0  0  0  0  0  0  0  0
    6.6568    2.0403    0.0000 H   0  0  0  0  0  0  0  0  0  0  0  0
    6.5376   -1.7549    0.0000 H   0  0  0  0  0  0  0  0  0  0  0  0
   10.1452    2.2708    0.0000 H   0  0  0  0  0  0  0  0  0  0  0  0
  1 44  1  0  0  0  0
  1 45  1  0  0  0  0
  2 46  1  0  0  0  0
  2 47  1  0  0  0  0
  3 48  1  0  0  0  0
  3 49  1  0  0  0  0
  3 50  1  0  0  0  0
  4 51  1  0  0  0  0
  4 52  1  0  0  0  0
  4 53  1  0  0  0  0
  5 54  1  0  0  0  0
  5 55  1  0  0  0  0
  5 56  1  0  0  0  0
  6 57  1  0  0  0  0
  6 58  1  0  0  0  0
  6 59  1  0  0  0  0
  7  1  2  0  0  0  0
  7 60  1  0  0  0  0
  8  2  2  0  0  0  0
  8 61  1  0  0  0  0
  9 62  1  0  0  0  0
  9 63  1  0  0  0  0
 10 64  1  0  0  0  0
 10 65  1  0  0  0  0
 11  9  1  0  0  0  0
 11 66  1  0  0  0  0
 11 67  1  0  0  0  0
 12 10  1  0  0  0  0
 12 68  1  0  0  0  0
 12 69  1  0  0  0  0
 13 70  1  0  0  0  0
 14 71  1  0  0  0  0
 15 72  1  0  0  0  0
 16 73  1  0  0  0  0
 17  3  1  0  0  0  0
 18  4  1  0  0  0  0
 19  5  1  0  0  0  0
 20  6  1  0  0  0  0
 21  7  1  0  0  0  0
 21 17  1  0  0  0  0
 22  8  1  0  0  0  0
 22 18  2  0  0  0  0
 23  9  1  0  0  0  0
 23 19  2  0  0  0  0
 24 10  1  0  0  0  0
 24 20  1  0  0  0  0
 25 13  1  0  0  0  0
 25 17  2  0  0  0  0
 26 13  2  0  0  0  0
 26 19  1  0  0  0  0
 27 14  2  0  0  0  0
 27 18  1  0  0  0  0
 28 15  1  0  0  0  0
 28 20  2  0  0  0  0
 29 14  1  0  0  0  0
 29 21  2  0  0  0  0
 30 15  2  0  0  0  0
 30 22  1  0  0  0  0
 31 16  2  0  0  0  0
 31 23  1  0  0  0  0
 32 16  1  0  0  0  0
 32 24  2  0  0  0  0
 33 11  1  0  0  0  0
 34 12  1  0  0  0  0
 36 25  1  0  0  0  0
 36 29  1  0  0  0  0
 36 35  1  0  0  0  0
 37 27  1  0  0  0  0
 37 30  1  0  0  0  0
 37 35  1  0  0  0  0
 38 26  1  0  0  0  0
 38 31  1  0  0  0  0
 38 35  1  0  0  0  0
 39 28  1  0  0  0  0
 39 32  1  0  0  0  0
 39 35  1  0  0  0  0
 40 33  1  0  0  0  0
 40 74  1  0  0  0  0
 41 33  2  0  0  0  0
 42 34  1  0  0  0  0
 42 75  1  0  0  0  0
 43 34  2  0  0  0  0
M  END
>  <DRUGBANK_ID>
DB02110

>  <SECONDARY_ACCESSION_NUMBERS>
EXPT00984

>  <COMMON_NAME>
Protoporphyrin Ix Containing Co

$$$$
