
 OpenBabel10282417072D

 59 64  0  0  0  0  0  0  0  0999 V2000
    0.4402    5.2104    0.0000 C   0  0  0  0  0  0  0  0  0  0  0  0
    0.2686    4.4034    0.0000 C   0  0  0  0  0  0  0  0  0  0  0  0
    0.0971    3.5965    0.0000 C   0  0  0  0  0  0  0  0  0  0  0  0
    1.0756    4.2319    0.0000 C   0  0  0  0  0  0  0  0  0  0  0  0
    1.8826    4.0604    0.0000 N   0  0  0  0  0  0  0  0  0  0  0  0
   -0.5383    4.5750    0.0000 C   0  0  0  0  0  0  0  0  0  0  0  0
   -1.0904    3.9619    0.0000 C   0  0  0  0  0  0  0  0  0  0  0  0
   -1.8973    4.1334    0.0000 C   0  0  0  0  0  0  0  0  0  0  0  0
   -2.1523    4.9180    0.0000 C   0  0  0  0  0  0  0  0  0  0  0  0
   -1.6003    5.5311    0.0000 C   0  0  0  0  0  0  0  0  0  0  0  0
   -0.7933    5.3596    0.0000 C   0  0  0  0  0  0  0  0  0  0  0  0
   -2.9593    5.0895    0.0000 N   0  0  0  0  0  0  0  0  0  0  0  0
   -3.5724    4.5375    0.0000 C   0  0  0  0  0  0  0  0  0  0  0  0
   -3.5724    3.7125    0.0000 C   0  0  0  0  0  0  0  0  0  0  0  0
   -2.8579    3.3000    0.0000 C   0  0  0  0  0  0  0  0  0  0  0  0
   -2.8579    2.4750    0.0000 C   0  0  0  0  0  0  0  0  0  0  0  0
   -3.5724    2.0625    0.0000 C   0  0  0  0  0  0  0  0  0  0  0  0
   -4.2868    2.4750    0.0000 C   0  0  0  0  0  0  0  0  0  0  0  0
   -4.2868    3.3000    0.0000 C   0  0  0  0  0  0  0  0  0  0  0  0
   -5.0013    3.7125    0.0000 N   0  0  0  0  0  0  0  0  0  0  0  0
   -5.0013    4.5375    0.0000 C   0  0  0  0  0  0  0  0  0  0  0  0
   -4.2868    4.9500    0.0000 C   0  0  0  0  0  0  0  0  0  0  0  0
   -4.1153    5.7570    0.0000 N   0  0  0  0  0  0  0  0  0  0  0  0
   -3.2948    5.8432    0.0000 C   0  0  0  0  0  0  0  0  0  0  0  0
   -2.8823    6.5577    0.0000 O   0  0  0  0  0  0  0  0  0  0  0  0
   -4.6673    6.3701    0.0000 C   0  0  0  0  0  0  0  0  0  0  0  0
   -2.1434    2.0625    0.0000 C   0  0  0  0  0  0  0  0  0  0  0  0
   -1.4289    2.4750    0.0000 C   0  0  0  0  0  0  0  0  0  0  0  0
   -0.7145    2.0625    0.0000 C   0  0  0  0  0  0  0  0  0  0  0  0
    0.0000    2.4750    0.0000 C   0  0  0  0  0  0  0  0  0  0  0  0
    0.7145    2.0625    0.0000 C   0  0  0  0  0  0  0  0  0  0  0  0
    0.7145    1.2375    0.0000 C   0  0  0  0  0  0  0  0  0  0  0  0
   -0.0000    0.8250    0.0000 C   0  0  0  0  0  0  0  0  0  0  0  0
   -0.7145    1.2375    0.0000 C   0  0  0  0  0  0  0  0  0  0  0  0
   -1.4289    0.8250    0.0000 N   0  0  0  0  0  0  0  0  0  0  0  0
   -2.1434    1.2375    0.0000 C   0  0  0  0  0  0  0  0  0  0  0  0
    1.4579    5.5410    0.0000 H   0  0  0  0  0  0  0  0  0  0  0  0
   -0.3549    5.9264    0.0000 H   0  0  0  0  0  0  0  0  0  0  0  0
    0.6627    6.2570    0.0000 H   0  0  0  0  0  0  0  0  0  0  0  0
   -0.9205    3.2658    0.0000 H   0  0  0  0  0  0  0  0  0  0  0  0
    0.8923    2.8805    0.0000 H   0  0  0  0  0  0  0  0  0  0  0  0
   -0.1254    2.5499    0.0000 H   0  0  0  0  0  0  0  0  0  0  0  0
   -0.7715    2.9804    0.0000 H   0  0  0  0  0  0  0  0  0  0  0  0
   -2.5878    3.3664    0.0000 H   0  0  0  0  0  0  0  0  0  0  0  0
   -1.9192    6.5126    0.0000 H   0  0  0  0  0  0  0  0  0  0  0  0
   -0.1028    6.1266    0.0000 H   0  0  0  0  0  0  0  0  0  0  0  0
   -1.9642    3.8160    0.0000 H   0  0  0  0  0  0  0  0  0  0  0  0
   -3.5724    1.0305    0.0000 H   0  0  0  0  0  0  0  0  0  0  0  0
   -5.1805    1.9590    0.0000 H   0  0  0  0  0  0  0  0  0  0  0  0
   -5.8950    5.0535    0.0000 H   0  0  0  0  0  0  0  0  0  0  0  0
   -4.3366    7.3877    0.0000 H   0  0  0  0  0  0  0  0  0  0  0  0
   -5.7139    6.1477    0.0000 H   0  0  0  0  0  0  0  0  0  0  0  0
   -5.3832    7.1653    0.0000 H   0  0  0  0  0  0  0  0  0  0  0  0
   -1.4289    3.5070    0.0000 H   0  0  0  0  0  0  0  0  0  0  0  0
    0.0000    3.5070    0.0000 H   0  0  0  0  0  0  0  0  0  0  0  0
    1.6082    2.5785    0.0000 H   0  0  0  0  0  0  0  0  0  0  0  0
    1.6082    0.7215    0.0000 H   0  0  0  0  0  0  0  0  0  0  0  0
    0.0000   -0.2070    0.0000 H   0  0  0  0  0  0  0  0  0  0  0  0
   -3.0371    0.7215    0.0000 H   0  0  0  0  0  0  0  0  0  0  0  0
  1  2  1  0  0  0  0
  1 37  1  0  0  0  0
  1 38  1  0  0  0  0
  1 39  1  0  0  0  0
  2  3  1  0  0  0  0
  2  4  1  0  0  0  0
  2  6  1  0  0  0  0
  3 40  1  0  0  0  0
  3 41  1  0  0  0  0
  3 42  1  0  0  0  0
  4  5  3  0  0  0  0
  6  7  2  0  0  0  0
  6 11  1  0  0  0  0
  7  8  1  0  0  0  0
  7 43  1  0  0  0  0
  8  9  2  0  0  0  0
  8 44  1  0  0  0  0
  9 10  1  0  0  0  0
  9 12  1  0  0  0  0
 10 11  2  0  0  0  0
 10 45  1  0  0  0  0
 11 46  1  0  0  0  0
 12 13  1  0  0  0  0
 12 24  1  0  0  0  0
 13 14  1  0  0  0  0
 13 22  2  0  0  0  0
 14 15  2  0  0  0  0
 14 19  1  0  0  0  0
 15 16  1  0  0  0  0
 15 47  1  0  0  0  0
 16 17  2  0  0  0  0
 16 27  1  0  0  0  0
 17 18  1  0  0  0  0
 17 48  1  0  0  0  0
 18 19  2  0  0  0  0
 18 49  1  0  0  0  0
 19 20  1  0  0  0  0
 20 21  2  0  0  0  0
 21 22  1  0  0  0  0
 21 50  1  0  0  0  0
 22 23  1  0  0  0  0
 23 24  1  0  0  0  0
 23 26  1  0  0  0  0
 24 25  2  0  0  0  0
 26 51  1  0  0  0  0
 26 52  1  0  0  0  0
 26 53  1  0  0  0  0
 27 28  1  0  0  0  0
 27 36  2  0  0  0  0
 28 29  2  0  0  0  0
 28 54  1  0  0  0  0
 29 30  1  0  0  0  0
 29 34  1  0  0  0  0
 30 31  2  0  0  0  0
 30 55  1  0  0  0  0
 31 32  1  0  0  0  0
 31 56  1  0  0  0  0
 32 33  2  0  0  0  0
 32 57  1  0  0  0  0
 33 34  1  0  0  0  0
 33 58  1  0  0  0  0
 34 35  2  0  0  0  0
 35 36  1  0  0  0  0
 36 59  1  0  0  0  0
M  END
>  <DRUGBANK_ID>
DB11651

>  <COMMON_NAME>
Dactolisib

>  <CAS_NUMBER>
915019-65-7

>  <UNII>
RUJ6Z9Y0DT

>  <SYNONYMS>
Dactolisib

$$$$
