ST8
 OpenBabel10282417072D

 49 51  0  0  0  0  0  0  0  0999 V2000
    0.4866    0.8710    0.0000 C   0  0  0  0  0  0  0  0  0  0  0  0
   -0.9424   -1.6040    0.0000 C   0  0  0  0  0  0  0  0  0  0  0  0
   -0.9424   -2.4290    0.0000 C   0  0  0  0  0  0  0  0  0  0  0  0
   -0.2279   -2.8415    0.0000 C   0  0  0  0  0  0  0  0  0  0  0  0
   -0.2279   -3.6665    0.0000 C   0  0  0  0  0  0  0  0  0  0  0  0
   -0.9424   -4.0790    0.0000 C   0  0  0  0  0  0  0  0  0  0  0  0
   -1.6568   -3.6665    0.0000 C   0  0  0  0  0  0  0  0  0  0  0  0
   -1.6568   -2.8415    0.0000 C   0  0  0  0  0  0  0  0  0  0  0  0
    0.4866    3.3460    0.0000 C   0  0  0  0  0  0  0  0  0  0  0  0
    1.2010    3.7585    0.0000 C   0  0  0  0  0  0  0  0  0  0  0  0
    1.9155    3.3460    0.0000 C   0  0  0  0  0  0  0  0  0  0  0  0
    1.9155    2.5210    0.0000 C   0  0  0  0  0  0  0  0  0  0  0  0
    0.4866    4.9960    0.0000 N   0  0  0  0  0  0  0  0  0  0  0  0
    0.4866    0.0460    0.0000 N   0  0  0  0  0  0  0  0  0  0  0  0
   -0.2279   -0.3665    0.0000 C   0  0  0  0  0  0  0  0  0  0  0  0
   -0.2279   -1.1915    0.0000 O   0  0  0  0  0  0  0  0  0  0  0  0
   -0.9424    0.0460    0.0000 C   0  0  0  0  0  0  0  0  0  0  0  0
   -1.6568   -0.3665    0.0000 N   0  0  0  0  0  0  0  0  0  0  0  0
   -1.6568    1.2835    0.0000 N   0  0  0  0  0  0  0  0  0  0  0  0
   -0.9424    0.8710    0.0000 C   0  0  0  0  0  0  0  0  0  0  0  0
   -0.2279    1.2835    0.0000 N   0  0  0  0  0  0  0  0  0  0  0  0
    1.2010    1.2835    0.0000 N   0  0  0  0  0  0  0  0  0  0  0  0
    1.2010    2.1085    0.0000 C   0  0  0  0  0  0  0  0  0  0  0  0
    0.4866    2.5210    0.0000 C   0  0  0  0  0  0  0  0  0  0  0  0
    1.2010    4.5835    0.0000 C   0  0  0  0  0  0  0  0  0  0  0  0
   -2.3713    0.0460    0.0000 O   0  0  0  0  0  0  0  0  0  0  0  0
    1.9155    4.9960    0.0000 O   0  0  0  0  0  0  0  0  0  0  0  0
   -1.8690   -1.0690    0.0000 H   0  0  0  0  0  0  0  0  0  0  0  0
   -0.9424   -0.5340    0.0000 H   0  0  0  0  0  0  0  0  0  0  0  0
   -0.9424   -3.4990    0.0000 H   0  0  0  0  0  0  0  0  0  0  0  0
    0.6987   -2.3065    0.0000 H   0  0  0  0  0  0  0  0  0  0  0  0
    0.6987   -3.3765    0.0000 H   0  0  0  0  0  0  0  0  0  0  0  0
    0.6987   -4.2015    0.0000 H   0  0  0  0  0  0  0  0  0  0  0  0
   -0.2279   -4.7365    0.0000 H   0  0  0  0  0  0  0  0  0  0  0  0
   -0.9424   -5.1490    0.0000 H   0  0  0  0  0  0  0  0  0  0  0  0
   -1.8691   -4.6140    0.0000 H   0  0  0  0  0  0  0  0  0  0  0  0
   -2.5835   -4.2015    0.0000 H   0  0  0  0  0  0  0  0  0  0  0  0
   -2.5834   -3.1315    0.0000 H   0  0  0  0  0  0  0  0  0  0  0  0
   -2.5835   -2.3065    0.0000 H   0  0  0  0  0  0  0  0  0  0  0  0
   -2.5834   -3.3765    0.0000 H   0  0  0  0  0  0  0  0  0  0  0  0
   -0.4071    3.8620    0.0000 H   0  0  0  0  0  0  0  0  0  0  0  0
    2.8092    3.8620    0.0000 H   0  0  0  0  0  0  0  0  0  0  0  0
    2.8092    2.0050    0.0000 H   0  0  0  0  0  0  0  0  0  0  0  0
    0.4866    5.9805    0.0000 H   0  0  0  0  0  0  0  0  0  0  0  0
   -0.3660    4.5038    0.0000 H   0  0  0  0  0  0  0  0  0  0  0  0
   -1.6568    2.2680    0.0000 H   0  0  0  0  0  0  0  0  0  0  0  0
   -2.5094    0.7913    0.0000 H   0  0  0  0  0  0  0  0  0  0  0  0
    2.0536    0.7913    0.0000 H   0  0  0  0  0  0  0  0  0  0  0  0
   -0.4071    2.0050    0.0000 H   0  0  0  0  0  0  0  0  0  0  0  0
  1 14  2  0  0  0  0
  1 21  1  0  0  0  0
  1 22  1  0  0  0  0
  2  3  1  0  0  0  0
  2 16  1  0  0  0  0
  2 28  1  0  0  0  0
  2 29  1  0  0  0  0
  3  4  1  0  0  0  0
  3  8  1  0  0  0  0
  3 30  1  0  0  0  0
  4  5  1  0  0  0  0
  4 31  1  0  0  0  0
  4 32  1  0  0  0  0
  5  6  1  0  0  0  0
  5 33  1  0  0  0  0
  5 34  1  0  0  0  0
  6  7  1  0  0  0  0
  6 35  1  0  0  0  0
  6 36  1  0  0  0  0
  7  8  1  0  0  0  0
  7 37  1  0  0  0  0
  7 38  1  0  0  0  0
  8 39  1  0  0  0  0
  8 40  1  0  0  0  0
  9 10  2  0  0  0  0
  9 24  1  0  0  0  0
  9 41  1  0  0  0  0
 10 11  1  0  0  0  0
 10 25  1  0  0  0  0
 11 12  2  0  0  0  0
 11 42  1  0  0  0  0
 12 23  1  0  0  0  0
 12 43  1  0  0  0  0
 13 25  1  0  0  0  0
 13 44  1  0  0  0  0
 13 45  1  0  0  0  0
 14 15  1  0  0  0  0
 15 16  1  0  0  0  0
 15 17  2  0  0  0  0
 17 18  1  0  0  0  0
 17 20  1  0  0  0  0
 18 26  2  0  0  0  0
 19 20  1  0  0  0  0
 19 46  1  0  0  0  0
 19 47  1  0  0  0  0
 20 21  2  0  0  0  0
 22 23  1  0  0  0  0
 22 48  1  0  0  0  0
 23 24  2  0  0  0  0
 24 49  1  0  0  0  0
 25 27  2  0  0  0  0
M  END
>  <DRUGBANK_ID>
DB08572

>  <COMMON_NAME>
4-{[4-AMINO-6-(CYCLOHEXYLMETHOXY)-5-NITROSOPYRIMIDIN-2-YL]AMINO}BENZAMIDE

$$$$
