4PY
 OpenBabel10282417072D

 49 53  0  0  0  0  0  0  0  0999 V2000
    2.8551   -0.3361    0.0000 C   0  0  0  0  0  0  0  0  0  0  0  0
    0.8710   -1.1611    0.0000 C   0  0  0  0  0  0  0  0  0  0  0  0
    1.1010    0.2910    0.0000 C   0  0  0  0  0  0  0  0  0  0  0  0
    2.8551   -1.9861    0.0000 C   0  0  0  0  0  0  0  0  0  0  0  0
    1.6531    0.9041    0.0000 C   0  0  1  0  0  0  0  0  0  0  0  0
    1.6952    3.0864    0.0000 C   0  0  0  0  0  0  0  0  0  0  0  0
    0.8882    3.2579    0.0000 C   0  0  0  0  0  0  0  0  0  0  0  0
    2.5443    5.0972    0.0000 C   0  0  0  0  0  0  0  0  0  0  0  0
    1.1853    4.6556    0.0000 C   0  0  0  0  0  0  0  0  0  0  0  0
    3.3513    4.9257    0.0000 C   0  0  0  0  0  0  0  0  0  0  0  0
    3.9033    5.5388    0.0000 C   0  0  0  0  0  0  0  0  0  0  0  0
    3.6484    6.3234    0.0000 C   0  0  0  0  0  0  0  0  0  0  0  0
    2.1406   -0.7486    0.0000 C   0  0  0  0  0  0  0  0  0  0  0  0
    1.3560   -0.4936    0.0000 C   0  0  0  0  0  0  0  0  0  0  0  0
    2.1406   -1.5736    0.0000 C   0  0  0  0  0  0  0  0  0  0  0  0
    1.3560   -1.8285    0.0000 N   0  0  0  0  0  0  0  0  0  0  0  0
    3.5695   -0.7486    0.0000 C   0  0  0  0  0  0  0  0  0  0  0  0
    3.5695   -1.5736    0.0000 C   0  0  0  0  0  0  0  0  0  0  0  0
    1.3981    1.6887    0.0000 C   0  0  0  0  0  0  0  0  0  0  0  0
    2.4600    0.7325    0.0000 N   0  0  0  0  0  0  0  0  0  0  0  0
    1.9501    2.3018    0.0000 O   0  0  0  0  0  0  0  0  0  0  0  0
    2.2472    3.6995    0.0000 C   0  0  0  0  0  0  0  0  0  0  0  0
    1.9923    4.4841    0.0000 C   0  0  0  0  0  0  0  0  0  0  0  0
    0.6333    4.0426    0.0000 N   0  0  0  0  0  0  0  0  0  0  0  0
    2.2894    5.8818    0.0000 N   0  0  0  0  0  0  0  0  0  0  0  0
    2.8414    6.4949    0.0000 C   0  0  0  0  0  0  0  0  0  0  0  0
    4.7283    5.5388    0.0000 C   0  0  0  0  0  0  0  0  0  0  0  0
    4.3158    6.8083    0.0000 N   0  0  0  0  0  0  0  0  0  0  0  0
    4.9833    6.3234    0.0000 N   0  0  0  0  0  0  0  0  0  0  0  0
    1.0819    1.0255    0.0000 H   0  0  0  0  0  0  0  0  0  0  0  0
    2.8551    0.6959    0.0000 H   0  0  0  0  0  0  0  0  0  0  0  0
   -0.1610   -1.1611    0.0000 H   0  0  0  0  0  0  0  0  0  0  0  0
    0.0544    0.5135    0.0000 H   0  0  0  0  0  0  0  0  0  0  0  0
    0.7704    1.3086    0.0000 H   0  0  0  0  0  0  0  0  0  0  0  0
    2.8551   -3.0181    0.0000 H   0  0  0  0  0  0  0  0  0  0  0  0
    0.1976    2.4910    0.0000 H   0  0  0  0  0  0  0  0  0  0  0  0
    0.8664    5.6371    0.0000 H   0  0  0  0  0  0  0  0  0  0  0  0
    3.6702    3.9442    0.0000 H   0  0  0  0  0  0  0  0  0  0  0  0
    4.4632   -0.2326    0.0000 H   0  0  0  0  0  0  0  0  0  0  0  0
    4.4962   -2.1086    0.0000 H   0  0  0  0  0  0  0  0  0  0  0  0
    4.4961   -1.0386    0.0000 H   0  0  0  0  0  0  0  0  0  0  0  0
    0.3515    1.9111    0.0000 H   0  0  0  0  0  0  0  0  0  0  0  0
    1.0674    2.7063    0.0000 H   0  0  0  0  0  0  0  0  0  0  0  0
    2.7751   -0.2376    0.0000 H   0  0  0  0  0  0  0  0  0  0  0  0
    3.1426    1.4904    0.0000 H   0  0  0  0  0  0  0  0  0  0  0  0
    3.2566    3.4849    0.0000 H   0  0  0  0  0  0  0  0  0  0  0  0
    2.5107    7.5125    0.0000 H   0  0  0  0  0  0  0  0  0  0  0  0
    1.7948    6.7173    0.0000 H   0  0  0  0  0  0  0  0  0  0  0  0
    5.3349    4.7039    0.0000 H   0  0  0  0  0  0  0  0  0  0  0  0
  1 17  2  0  0  0  0
  1 13  1  0  0  0  0
  1 31  1  0  0  0  0
  2 16  2  0  0  0  0
  2 14  1  0  0  0  0
  2 32  1  0  0  0  0
  3 14  1  0  0  0  0
  3  5  1  0  0  0  0
  3 33  1  0  0  0  0
  3 34  1  0  0  0  0
  4 18  1  0  0  0  0
  4 15  2  0  0  0  0
  4 35  1  0  0  0  0
  5 19  1  0  0  0  0
  5 20  1  0  0  0  0
  5 30  1  6  0  0  0
  6  7  2  0  0  0  0
  6 22  1  0  0  0  0
  6 21  1  0  0  0  0
  7 24  1  0  0  0  0
  7 36  1  0  0  0  0
  8 25  2  0  0  0  0
  8 23  1  0  0  0  0
  8 10  1  0  0  0  0
  9 24  2  0  0  0  0
  9 23  1  0  0  0  0
  9 37  1  0  0  0  0
 10 11  2  0  0  0  0
 10 38  1  0  0  0  0
 11 12  1  0  0  0  0
 11 27  1  0  0  0  0
 12 26  1  0  0  0  0
 12 28  2  0  0  0  0
 13 15  1  0  0  0  0
 13 14  2  0  0  0  0
 15 16  1  0  0  0  0
 17 18  1  0  0  0  0
 17 39  1  0  0  0  0
 18 40  1  0  0  0  0
 18 41  1  0  0  0  0
 19 21  1  0  0  0  0
 19 42  1  0  0  0  0
 19 43  1  0  0  0  0
 20 44  1  0  0  0  0
 20 45  1  0  0  0  0
 22 23  2  0  0  0  0
 22 46  1  0  0  0  0
 25 26  1  0  0  0  0
 26 47  1  0  0  0  0
 26 48  1  0  0  0  0
 27 29  2  0  0  0  0
 27 49  1  0  0  0  0
 28 29  1  0  0  0  0
M  END
>  <DRUGBANK_ID>
DB07124

>  <COMMON_NAME>
(2S)-1-(6H-INDOL-3-YL)-3-{[5-(7H-PYRAZOLO[3,4-C]PYRIDIN-5-YL)PYRIDIN-3-YL]OXY}PROPAN-2-AMINE

$$$$
