DBD
 OpenBabel10282417072D

 45 48  0  0  0  0  0  0  0  0999 V2000
    0.0393    0.5590    0.0000 O   0  0  0  0  0  0  0  0  0  0  0  0
   -0.2156   -0.2256    0.0000 C   0  0  2  0  0  0  0  0  0  0  0  0
   -1.0226   -0.3972    0.0000 C   0  0  0  0  0  0  0  0  0  0  0  0
   -1.5746    0.2159    0.0000 C   0  0  0  0  0  0  0  0  0  0  0  0
   -1.3197    1.0006    0.0000 C   0  0  0  0  0  0  0  0  0  0  0  0
   -0.5127    1.1721    0.0000 C   0  0  0  0  0  0  0  0  0  0  0  0
   -1.4351   -1.1116    0.0000 S   0  0  0  0  0  0  0  0  0  0  0  0
   -2.2421   -0.9401    0.0000 C   0  0  0  0  0  0  0  0  0  0  0  0
   -2.3283   -0.1196    0.0000 C   0  0  0  0  0  0  0  0  0  0  0  0
   -3.0428    0.2929    0.0000 C   0  0  0  0  0  0  0  0  0  0  0  0
   -3.7572   -0.1196    0.0000 O   0  0  0  0  0  0  0  0  0  0  0  0
   -3.0428    1.1179    0.0000 O   0  0  0  0  0  0  0  0  0  0  0  0
   -2.8552   -1.4921    0.0000 N   0  0  0  0  0  0  0  0  0  0  0  0
   -2.6836   -2.2991    0.0000 C   0  0  0  0  0  0  0  0  0  0  0  0
   -3.2967   -2.8511    0.0000 C   0  0  0  0  0  0  0  0  0  0  0  0
   -4.0813   -2.5962    0.0000 O   0  0  0  0  0  0  0  0  0  0  0  0
   -3.1252   -3.6581    0.0000 O   0  0  0  0  0  0  0  0  0  0  0  0
   -1.8990   -2.5540    0.0000 O   0  0  0  0  0  0  0  0  0  0  0  0
    0.3364   -0.8387    0.0000 C   0  0  0  0  0  0  0  0  0  0  0  0
    1.1434   -0.6672    0.0000 O   0  0  0  0  0  0  0  0  0  0  0  0
    1.3983    0.1174    0.0000 C   0  0  0  0  0  0  0  0  0  0  0  0
    2.1829    0.3724    0.0000 C   0  0  0  0  0  0  0  0  0  0  0  0
    2.1829    1.1974    0.0000 C   0  0  0  0  0  0  0  0  0  0  0  0
    1.3983    1.4523    0.0000 S   0  0  0  0  0  0  0  0  0  0  0  0
    0.9134    0.7849    0.0000 N   0  0  0  0  0  0  0  0  0  0  0  0
    2.8974   -0.0401    0.0000 C   0  0  0  0  0  0  0  0  0  0  0  0
    3.6119    0.3724    0.0000 C   0  0  0  0  0  0  0  0  0  0  0  0
    3.6119    1.1974    0.0000 C   0  0  0  0  0  0  0  0  0  0  0  0
    2.8974    1.6099    0.0000 C   0  0  0  0  0  0  0  0  0  0  0  0
    1.5614    2.2610    0.0000 O   0  0  0  0  0  0  0  0  0  0  0  0
    0.7910    2.0107    0.0000 O   0  0  0  0  0  0  0  0  0  0  0  0
    0.3555   -0.1042    0.0000 H   0  0  0  0  0  0  0  0  0  0  0  0
   -2.0357    1.7958    0.0000 H   0  0  0  0  0  0  0  0  0  0  0  0
   -0.9890    2.0182    0.0000 H   0  0  0  0  0  0  0  0  0  0  0  0
   -0.1820    2.1897    0.0000 H   0  0  0  0  0  0  0  0  0  0  0  0
   -1.2286    1.9673    0.0000 H   0  0  0  0  0  0  0  0  0  0  0  0
   -2.2313    1.5864    0.0000 H   0  0  0  0  0  0  0  0  0  0  0  0
   -3.7915   -1.1879    0.0000 H   0  0  0  0  0  0  0  0  0  0  0  0
   -3.8216   -4.2850    0.0000 H   0  0  0  0  0  0  0  0  0  0  0  0
    0.0057   -1.8563    0.0000 H   0  0  0  0  0  0  0  0  0  0  0  0
    1.0523   -1.6339    0.0000 H   0  0  0  0  0  0  0  0  0  0  0  0
    2.8974   -1.0721    0.0000 H   0  0  0  0  0  0  0  0  0  0  0  0
    4.5056   -0.1436    0.0000 H   0  0  0  0  0  0  0  0  0  0  0  0
    4.5056    1.7134    0.0000 H   0  0  0  0  0  0  0  0  0  0  0  0
    2.8974    2.6419    0.0000 H   0  0  0  0  0  0  0  0  0  0  0  0
  1  2  1  0  0  0  0
  1  6  1  0  0  0  0
  2  3  1  0  0  0  0
  2 19  1  0  0  0  0
  2 32  1  6  0  0  0
  3  4  2  0  0  0  0
  3  7  1  0  0  0  0
  4  5  1  0  0  0  0
  4  9  1  0  0  0  0
  5  6  1  0  0  0  0
  5 33  1  0  0  0  0
  5 34  1  0  0  0  0
  6 35  1  0  0  0  0
  6 36  1  0  0  0  0
  7  8  1  0  0  0  0
  8  9  2  0  0  0  0
  8 13  1  0  0  0  0
  9 10  1  0  0  0  0
 10 11  2  0  0  0  0
 10 12  1  0  0  0  0
 12 37  1  0  0  0  0
 13 14  1  0  0  0  0
 13 38  1  0  0  0  0
 14 15  1  0  0  0  0
 14 18  2  0  0  0  0
 15 16  2  0  0  0  0
 15 17  1  0  0  0  0
 17 39  1  0  0  0  0
 19 20  1  0  0  0  0
 19 40  1  0  0  0  0
 19 41  1  0  0  0  0
 20 21  1  0  0  0  0
 21 22  1  0  0  0  0
 21 25  2  0  0  0  0
 22 23  2  0  0  0  0
 22 26  1  0  0  0  0
 23 24  1  0  0  0  0
 23 29  1  0  0  0  0
 24 25  1  0  0  0  0
 24 30  2  0  0  0  0
 24 31  2  0  0  0  0
 26 27  2  0  0  0  0
 26 42  1  0  0  0  0
 27 28  1  0  0  0  0
 27 43  1  0  0  0  0
 28 29  2  0  0  0  0
 28 44  1  0  0  0  0
 29 45  1  0  0  0  0
M  END
>  <DRUGBANK_ID>
DB02827

>  <SECONDARY_ACCESSION_NUMBERS>
EXPT01119

>  <COMMON_NAME>
7-(1,1-Dioxo-1h-Benzo[D]Isothiazol-3-Yloxymethyl)-2-(Oxalyl-Amino)-4,7-Dihydro-5h-Thieno[2,3-C]Pyran-3-Carboxylic Acid

$$$$
