519
 OpenBabel10282417072D

 65 67  0  0  1  0  0  0  0  0999 V2000
    7.0831   -1.0977    0.0000 O   0  0  0  0  0  0  0  0  0  0  0  0
    7.7385   -3.4304    0.0000 O   0  0  0  0  0  0  0  0  0  0  0  0
    7.7385   -2.0015    0.0000 O   0  0  0  0  0  0  0  0  0  0  0  0
    5.1355    2.1427    0.0000 O   0  0  0  0  0  0  0  0  0  0  0  0
    6.4937    1.6988    0.0000 O   0  0  0  0  0  0  0  0  0  0  0  0
    6.0195   -2.0521    0.0000 N   0  0  0  0  0  0  0  0  0  0  0  0
    5.9811    0.1304    0.0000 N   0  0  0  0  0  0  0  0  0  0  0  0
    5.2389   -3.1285    0.0000 C   0  0  1  0  0  0  0  0  0  0  0  0
    5.2389   -2.3035    0.0000 C   0  0  2  0  0  0  0  0  0  0  0  0
    6.0195   -3.3799    0.0000 C   0  0  0  0  0  0  0  0  0  0  0  0
    6.5010   -2.7160    0.0000 C   0  0  1  0  0  0  0  0  0  0  0  0
    4.5244   -3.5410    0.0000 C   0  0  0  0  0  0  0  0  0  0  0  0
    4.5244   -1.8909    0.0000 C   0  0  0  0  0  0  0  0  0  0  0  0
    3.8099   -3.1285    0.0000 C   0  0  0  0  0  0  0  0  0  0  0  0
    3.8099   -2.3035    0.0000 C   0  0  0  0  0  0  0  0  0  0  0  0
    6.2758   -1.2679    0.0000 C   0  0  0  0  0  0  0  0  0  0  0  0
    7.3260   -2.7160    0.0000 C   0  0  0  0  0  0  0  0  0  0  0  0
    5.7248   -0.6538    0.0000 C   0  0  2  0  0  0  0  0  0  0  0  0
    4.9175   -0.8239    0.0000 C   0  0  0  0  0  0  0  0  0  0  0  0
    5.4302    0.7445    0.0000 C   0  0  1  0  0  0  0  0  0  0  0  0
    4.6229    0.5743    0.0000 C   0  0  0  0  0  0  0  0  0  0  0  0
    5.6864    1.5287    0.0000 C   0  0  0  0  0  0  0  0  0  0  0  0
    4.0719    1.1884    0.0000 C   0  0  0  0  0  0  0  0  0  0  0  0
    3.2646    1.0182    0.0000 C   0  0  0  0  0  0  0  0  0  0  0  0
    5.3917    2.9269    0.0000 C   0  0  0  0  0  0  0  0  0  0  0  0
    2.7136    1.6323    0.0000 C   0  0  0  0  0  0  0  0  0  0  0  0
    3.0083    0.2341    0.0000 C   0  0  0  0  0  0  0  0  0  0  0  0
    1.9064    1.4622    0.0000 C   0  0  0  0  0  0  0  0  0  0  0  0
    2.2010    0.0639    0.0000 C   0  0  0  0  0  0  0  0  0  0  0  0
    4.8408    3.5410    0.0000 C   0  0  0  0  0  0  0  0  0  0  0  0
    1.6500    0.6780    0.0000 C   0  0  0  0  0  0  0  0  0  0  0  0
    5.3087   -3.7848    0.0000 H   0  0  0  0  0  0  0  0  0  0  0  0
    5.3087   -1.6471    0.0000 H   0  0  0  0  0  0  0  0  0  0  0  0
    7.2700   -4.2419    0.0000 H   0  0  0  0  0  0  0  0  0  0  0  0
    6.9792    0.3407    0.0000 H   0  0  0  0  0  0  0  0  0  0  0  0
    6.3519   -4.3970    0.0000 H   0  0  0  0  0  0  0  0  0  0  0  0
    7.0765   -3.5459    0.0000 H   0  0  0  0  0  0  0  0  0  0  0  0
    6.9872   -1.7628    0.0000 H   0  0  0  0  0  0  0  0  0  0  0  0
    4.5244   -4.6110    0.0000 H   0  0  0  0  0  0  0  0  0  0  0  0
    3.5978   -4.0760    0.0000 H   0  0  0  0  0  0  0  0  0  0  0  0
    4.5244   -0.8209    0.0000 H   0  0  0  0  0  0  0  0  0  0  0  0
    3.5977   -1.3559    0.0000 H   0  0  0  0  0  0  0  0  0  0  0  0
    2.8833   -3.6635    0.0000 H   0  0  0  0  0  0  0  0  0  0  0  0
    2.8833   -2.5935    0.0000 H   0  0  0  0  0  0  0  0  0  0  0  0
    2.8832   -1.7685    0.0000 H   0  0  0  0  0  0  0  0  0  0  0  0
    2.8833   -2.8385    0.0000 H   0  0  0  0  0  0  0  0  0  0  0  0
    6.7718   -0.4332    0.0000 H   0  0  0  0  0  0  0  0  0  0  0  0
    4.2029   -0.0275    0.0000 H   0  0  0  0  0  0  0  0  0  0  0  0
    4.5850   -1.8409    0.0000 H   0  0  0  0  0  0  0  0  0  0  0  0
    3.8705   -1.0445    0.0000 H   0  0  0  0  0  0  0  0  0  0  0  0
    5.0978   -0.2726    0.0000 H   0  0  0  0  0  0  0  0  0  0  0  0
    4.2905   -0.4428    0.0000 H   0  0  0  0  0  0  0  0  0  0  0  0
    3.5759    0.3536    0.0000 H   0  0  0  0  0  0  0  0  0  0  0  0
    4.4043    2.2055    0.0000 H   0  0  0  0  0  0  0  0  0  0  0  0
    3.3573    1.9848    0.0000 H   0  0  0  0  0  0  0  0  0  0  0  0
    6.4387    3.1476    0.0000 H   0  0  0  0  0  0  0  0  0  0  0  0
    5.7242    3.9439    0.0000 H   0  0  0  0  0  0  0  0  0  0  0  0
    3.0342    2.6132    0.0000 H   0  0  0  0  0  0  0  0  0  0  0  0
    3.6975   -0.5340    0.0000 H   0  0  0  0  0  0  0  0  0  0  0  0
    1.2172    2.2304    0.0000 H   0  0  0  0  0  0  0  0  0  0  0  0
    1.8804   -0.9170    0.0000 H   0  0  0  0  0  0  0  0  0  0  0  0
    5.1733    4.5580    0.0000 H   0  0  0  0  0  0  0  0  0  0  0  0
    3.7938    3.3205    0.0000 H   0  0  0  0  0  0  0  0  0  0  0  0
    4.1263    4.3375    0.0000 H   0  0  0  0  0  0  0  0  0  0  0  0
    0.6402    0.4652    0.0000 H   0  0  0  0  0  0  0  0  0  0  0  0
  1 16  2  0  0  0  0
  2 17  1  0  0  0  0
  2 34  1  0  0  0  0
  3 17  2  0  0  0  0
  4 22  1  0  0  0  0
  4 25  1  0  0  0  0
  5 22  2  0  0  0  0
  6  9  1  0  0  0  0
  6 11  1  0  0  0  0
  6 16  1  0  0  0  0
  7 35  1  0  0  0  0
  8  9  1  0  0  0  0
  8 10  1  0  0  0  0
  8 12  1  0  0  0  0
  8 32  1  6  0  0  0
  9 13  1  0  0  0  0
  9 33  1  1  0  0  0
 10 11  1  0  0  0  0
 10 36  1  0  0  0  0
 10 37  1  0  0  0  0
 11 17  1  0  0  0  0
 11 38  1  1  0  0  0
 12 14  1  0  0  0  0
 12 39  1  0  0  0  0
 12 40  1  0  0  0  0
 13 15  1  0  0  0  0
 13 41  1  0  0  0  0
 13 42  1  0  0  0  0
 14 15  1  0  0  0  0
 14 43  1  0  0  0  0
 14 44  1  0  0  0  0
 15 45  1  0  0  0  0
 15 46  1  0  0  0  0
 16 18  1  0  0  0  0
 18  7  1  0  0  0  0
 18 19  1  0  0  0  0
 18 47  1  1  0  0  0
 19 48  1  0  0  0  0
 19 49  1  0  0  0  0
 19 50  1  0  0  0  0
 20  7  1  0  0  0  0
 20 21  1  0  0  0  0
 20 22  1  0  0  0  0
 20 51  1  6  0  0  0
 21 23  1  0  0  0  0
 21 52  1  0  0  0  0
 21 53  1  0  0  0  0
 23 24  1  0  0  0  0
 23 54  1  0  0  0  0
 23 55  1  0  0  0  0
 24 26  2  0  0  0  0
 24 27  1  0  0  0  0
 25 30  1  0  0  0  0
 25 56  1  0  0  0  0
 25 57  1  0  0  0  0
 26 28  1  0  0  0  0
 26 58  1  0  0  0  0
 27 29  2  0  0  0  0
 27 59  1  0  0  0  0
 28 31  2  0  0  0  0
 28 60  1  0  0  0  0
 29 31  1  0  0  0  0
 29 61  1  0  0  0  0
 30 62  1  0  0  0  0
 30 63  1  0  0  0  0
 30 64  1  0  0  0  0
 31 65  1  0  0  0  0
M  END
>  <DRUGBANK_ID>
DB00519

>  <SECONDARY_ACCESSION_NUMBERS>
APRD01269

>  <COMMON_NAME>
Trandolapril

>  <CAS_NUMBER>
87679-37-6

>  <UNII>
1T0N3G9CRC

>  <SYNONYMS>
Trandolapril; Trandolaprilum

$$$$
