APP
 OpenBabel10282417072D

 25 25  0  0  0  0  0  0  0  0999 V2000
    0.1592    0.4669    0.0000 N   0  0  0  0  0  0  0  0  0  0  0  0
    0.8737    0.8794    0.0000 C   0  0  0  0  0  0  0  0  0  0  0  0
    0.8737    1.7044    0.0000 O   0  0  0  0  0  0  0  0  0  0  0  0
    1.5882    0.4669    0.0000 C   0  0  0  0  0  0  0  0  0  0  0  0
    0.1592   -0.3581    0.0000 C   0  0  2  0  0  0  0  0  0  0  0  0
    0.8737   -0.7706    0.0000 C   0  0  0  0  0  0  0  0  0  0  0  0
    1.5882   -0.3581    0.0000 O   0  0  0  0  0  0  0  0  0  0  0  0
    0.8737   -1.5956    0.0000 O   0  0  0  0  0  0  0  0  0  0  0  0
   -0.5552   -0.7706    0.0000 C   0  0  0  0  0  0  0  0  0  0  0  0
   -1.2697   -0.3581    0.0000 C   0  0  0  0  0  0  0  0  0  0  0  0
   -1.2697    0.4669    0.0000 C   0  0  0  0  0  0  0  0  0  0  0  0
   -0.5552    0.8794    0.0000 C   0  0  0  0  0  0  0  0  0  0  0  0
    0.6649   -0.0661    0.0000 H   0  0  0  0  0  0  0  0  0  0  0  0
    1.5882   -0.6031    0.0000 H   0  0  0  0  0  0  0  0  0  0  0  0
    2.5148    1.0019    0.0000 H   0  0  0  0  0  0  0  0  0  0  0  0
    2.5149   -0.0681    0.0000 H   0  0  0  0  0  0  0  0  0  0  0  0
    0.0622   -2.0641    0.0000 H   0  0  0  0  0  0  0  0  0  0  0  0
   -0.5552   -1.8406    0.0000 H   0  0  0  0  0  0  0  0  0  0  0  0
   -1.4818   -1.3056    0.0000 H   0  0  0  0  0  0  0  0  0  0  0  0
   -2.1963   -0.8931    0.0000 H   0  0  0  0  0  0  0  0  0  0  0  0
   -2.1963    0.1769    0.0000 H   0  0  0  0  0  0  0  0  0  0  0  0
   -2.1963    1.0019    0.0000 H   0  0  0  0  0  0  0  0  0  0  0  0
   -1.2697    1.5369    0.0000 H   0  0  0  0  0  0  0  0  0  0  0  0
   -0.5552    1.9494    0.0000 H   0  0  0  0  0  0  0  0  0  0  0  0
   -1.4818    1.4144    0.0000 H   0  0  0  0  0  0  0  0  0  0  0  0
  1  2  1  0  0  0  0
  1  5  1  0  0  0  0
  1 12  1  0  0  0  0
  2  3  2  0  0  0  0
  2  4  1  0  0  0  0
  4 14  1  0  0  0  0
  4 15  1  0  0  0  0
  4 16  1  0  0  0  0
  5  6  1  0  0  0  0
  5  9  1  0  0  0  0
  5 13  1  1  0  0  0
  6  7  2  0  0  0  0
  6  8  1  0  0  0  0
  8 17  1  0  0  0  0
  9 10  1  0  0  0  0
  9 18  1  0  0  0  0
  9 19  1  0  0  0  0
 10 11  1  0  0  0  0
 10 20  1  0  0  0  0
 10 21  1  0  0  0  0
 11 12  1  0  0  0  0
 11 22  1  0  0  0  0
 11 23  1  0  0  0  0
 12 24  1  0  0  0  0
 12 25  1  0  0  0  0
M  END
>  <DRUGBANK_ID>
DB07384

>  <COMMON_NAME>
1-ACETYL-2-CARBOXYPIPERIDINE

$$$$
