
 OpenBabel10282417072D

 53 57  0  0  0  0  0  0  0  0999 V2000
    3.6069    3.7993    0.0000 C   0  0  0  0  0  0  0  0  0  0  0  0
    3.5747    2.9750    0.0000 N   0  0  0  0  0  0  0  0  0  0  0  0
    4.3035    2.5883    0.0000 C   0  0  0  0  0  0  0  0  0  0  0  0
    4.4555    1.7774    0.0000 C   0  0  0  0  0  0  0  0  0  0  0  0
    5.2160    1.4576    0.0000 N   0  0  0  0  0  0  0  0  0  0  0  0
    5.1469    0.6355    0.0000 N   0  0  0  0  0  0  0  0  0  0  0  0
    4.3436    0.4472    0.0000 C   0  0  0  0  0  0  0  0  0  0  0  0
    4.0238   -0.3133    0.0000 C   0  0  1  0  0  0  0  0  0  0  0  0
    4.5225   -0.9705    0.0000 C   0  0  0  0  0  0  0  0  0  0  0  0
    4.2027   -1.7310    0.0000 C   0  0  0  0  0  0  0  0  0  0  0  0
    3.3842   -1.8342    0.0000 C   0  0  1  0  0  0  0  0  0  0  0  0
    2.8855   -1.1770    0.0000 C   0  0  0  0  0  0  0  0  0  0  0  0
    3.2053   -0.4165    0.0000 C   0  0  0  0  0  0  0  0  0  0  0  0
    3.0644   -2.5947    0.0000 O   0  0  0  0  0  0  0  0  0  0  0  0
    2.2459   -2.6980    0.0000 C   0  0  0  0  0  0  0  0  0  0  0  0
    1.9261   -3.4585    0.0000 N   0  0  0  0  0  0  0  0  0  0  0  0
    1.1076   -3.5618    0.0000 C   0  0  0  0  0  0  0  0  0  0  0  0
    0.6089   -2.9046    0.0000 C   0  0  0  0  0  0  0  0  0  0  0  0
    0.9287   -2.1441    0.0000 C   0  0  0  0  0  0  0  0  0  0  0  0
    1.7472   -2.0408    0.0000 C   0  0  0  0  0  0  0  0  0  0  0  0
    3.9164    1.1530    0.0000 N   0  0  0  0  0  0  0  0  0  0  0  0
    3.0920    1.1852    0.0000 C   0  0  0  0  0  0  0  0  0  0  0  0
    2.7608    0.4296    0.0000 C   0  0  0  0  0  0  0  0  0  0  0  0
    1.9409    0.3385    0.0000 C   0  0  0  0  0  0  0  0  0  0  0  0
    1.4521    1.0031    0.0000 C   0  0  0  0  0  0  0  0  0  0  0  0
    0.6321    0.9121    0.0000 Cl  0  0  0  0  0  0  0  0  0  0  0  0
    1.7832    1.7587    0.0000 C   0  0  0  0  0  0  0  0  0  0  0  0
    2.6032    1.8498    0.0000 C   0  0  0  0  0  0  0  0  0  0  0  0
    2.8180    2.6463    0.0000 C   0  0  0  0  0  0  0  0  0  0  0  0
    4.5537    4.2977    0.0000 H   0  0  0  0  0  0  0  0  0  0  0  0
    2.7018    4.3701    0.0000 H   0  0  0  0  0  0  0  0  0  0  0  0
    3.6487    4.8685    0.0000 H   0  0  0  0  0  0  0  0  0  0  0  0
    5.1655    3.2223    0.0000 H   0  0  0  0  0  0  0  0  0  0  0  0
    5.2989    2.1957    0.0000 H   0  0  0  0  0  0  0  0  0  0  0  0
    5.0854   -0.1793    0.0000 H   0  0  0  0  0  0  0  0  0  0  0  0
    5.5841   -0.8365    0.0000 H   0  0  0  0  0  0  0  0  0  0  0  0
    5.1693   -1.8229    0.0000 H   0  0  0  0  0  0  0  0  0  0  0  0
    4.8495   -2.5834    0.0000 H   0  0  0  0  0  0  0  0  0  0  0  0
    3.7878   -2.7173    0.0000 H   0  0  0  0  0  0  0  0  0  0  0  0
    4.0310   -2.6866    0.0000 H   0  0  0  0  0  0  0  0  0  0  0  0
    1.8239   -1.3110    0.0000 H   0  0  0  0  0  0  0  0  0  0  0  0
    2.2387   -0.3246    0.0000 H   0  0  0  0  0  0  0  0  0  0  0  0
    2.5585    0.4359    0.0000 H   0  0  0  0  0  0  0  0  0  0  0  0
    3.6202    0.5698    0.0000 H   0  0  0  0  0  0  0  0  0  0  0  0
    0.7076   -4.5131    0.0000 H   0  0  0  0  0  0  0  0  0  0  0  0
   -0.4150   -3.0338    0.0000 H   0  0  0  0  0  0  0  0  0  0  0  0
    0.3049   -1.3220    0.0000 H   0  0  0  0  0  0  0  0  0  0  0  0
    2.1472   -1.0895    0.0000 H   0  0  0  0  0  0  0  0  0  0  0  0
    3.3723   -0.4017    0.0000 H   0  0  0  0  0  0  0  0  0  0  0  0
    1.5267   -0.6067    0.0000 H   0  0  0  0  0  0  0  0  0  0  0  0
    1.1717    2.5900    0.0000 H   0  0  0  0  0  0  0  0  0  0  0  0
    2.0081    3.3456    0.0000 H   0  0  0  0  0  0  0  0  0  0  0  0
    2.9792    3.7041    0.0000 H   0  0  0  0  0  0  0  0  0  0  0  0
  1  2  1  0  0  0  0
  1 30  1  0  0  0  0
  1 31  1  0  0  0  0
  1 32  1  0  0  0  0
  2  3  1  0  0  0  0
  2 29  1  0  0  0  0
  3  4  1  0  0  0  0
  3 33  1  0  0  0  0
  3 34  1  0  0  0  0
  4  5  2  0  0  0  0
  4 21  1  0  0  0  0
  5  6  1  0  0  0  0
  6  7  2  0  0  0  0
  7 21  1  0  0  0  0
  8  7  1  0  0  0  0
  8  9  1  0  0  0  0
  8 13  1  0  0  0  0
  8 35  1  6  0  0  0
  9 10  1  0  0  0  0
  9 36  1  0  0  0  0
  9 37  1  0  0  0  0
 10 38  1  0  0  0  0
 10 39  1  0  0  0  0
 11 10  1  0  0  0  0
 11 12  1  0  0  0  0
 11 14  1  0  0  0  0
 11 40  1  1  0  0  0
 12 13  1  0  0  0  0
 12 41  1  0  0  0  0
 12 42  1  0  0  0  0
 13 43  1  0  0  0  0
 13 44  1  0  0  0  0
 14 15  1  0  0  0  0
 15 16  2  0  0  0  0
 15 20  1  0  0  0  0
 16 17  1  0  0  0  0
 17 18  2  0  0  0  0
 17 45  1  0  0  0  0
 18 19  1  0  0  0  0
 18 46  1  0  0  0  0
 19 20  2  0  0  0  0
 19 47  1  0  0  0  0
 20 48  1  0  0  0  0
 21 22  1  0  0  0  0
 22 23  2  0  0  0  0
 22 28  1  0  0  0  0
 23 24  1  0  0  0  0
 23 49  1  0  0  0  0
 24 25  2  0  0  0  0
 24 50  1  0  0  0  0
 25 26  1  0  0  0  0
 25 27  1  0  0  0  0
 27 28  2  0  0  0  0
 27 51  1  0  0  0  0
 28 29  1  0  0  0  0
 29 52  1  0  0  0  0
 29 53  1  0  0  0  0
M  END
>  <DRUGBANK_ID>
DB14823

>  <COMMON_NAME>
Balovaptan

>  <CAS_NUMBER>
1228088-30-9

>  <UNII>
RAX5D5AGV6

>  <SYNONYMS>
Balovaptan

$$$$
