
 OpenBabel10282417072D

 58 61  0  0  0  0  0  0  0  0999 V2000
   -0.8484   -0.6703    0.0000 N   0  0  0  0  0  0  0  0  0  0  0  0
   -0.8484   -2.3203    0.0000 S   0  0  0  0  0  0  0  0  0  0  0  0
   -0.1340   -1.0828    0.0000 C   0  0  0  0  0  0  0  0  0  0  0  0
   -1.5629   -1.0828    0.0000 C   0  0  0  0  0  0  0  0  0  0  0  0
   -1.5629   -1.9078    0.0000 C   0  0  0  0  0  0  0  0  0  0  0  0
   -0.1340   -1.9078    0.0000 C   0  0  0  0  0  0  0  0  0  0  0  0
    0.5805   -0.6703    0.0000 C   0  0  0  0  0  0  0  0  0  0  0  0
   -2.2774   -0.6703    0.0000 C   0  0  0  0  0  0  0  0  0  0  0  0
   -2.2774   -2.3203    0.0000 C   0  0  0  0  0  0  0  0  0  0  0  0
    0.5805   -2.3203    0.0000 C   0  0  0  0  0  0  0  0  0  0  0  0
   -2.9918   -1.9078    0.0000 C   0  0  0  0  0  0  0  0  0  0  0  0
    1.2950   -1.9078    0.0000 C   0  0  0  0  0  0  0  0  0  0  0  0
   -0.8484    0.1547    0.0000 C   0  0  0  0  0  0  0  0  0  0  0  0
   -0.1340    0.5672    0.0000 C   0  0  0  0  0  0  0  0  0  0  0  0
   -0.1340    1.3922    0.0000 C   0  0  0  0  0  0  0  0  0  0  0  0
    0.5805    1.8047    0.0000 N   0  0  0  0  0  0  0  0  0  0  0  0
    2.0094    2.6297    0.0000 N   0  0  0  0  0  0  0  0  0  0  0  0
    2.0094    1.8047    0.0000 C   0  0  0  0  0  0  0  0  0  0  0  0
    0.5805    2.6297    0.0000 C   0  0  0  0  0  0  0  0  0  0  0  0
    1.2950    3.0422    0.0000 C   0  0  0  0  0  0  0  0  0  0  0  0
    1.2950    1.3922    0.0000 C   0  0  0  0  0  0  0  0  0  0  0  0
    2.7239    3.0422    0.0000 C   0  0  0  0  0  0  0  0  0  0  0  0
    3.4384    2.6297    0.0000 C   0  0  0  0  0  0  0  0  0  0  0  0
    4.1529    3.0422    0.0000 O   0  0  0  0  0  0  0  0  0  0  0  0
   -2.9918   -1.0828    0.0000 C   0  0  0  0  0  0  0  0  0  0  0  0
    1.2950   -1.0828    0.0000 C   0  0  0  0  0  0  0  0  0  0  0  0
    2.7239   -1.0828    0.0000 C   0  0  0  0  0  0  0  0  0  0  0  0
    2.0094   -0.6703    0.0000 C   0  0  0  0  0  0  0  0  0  0  0  0
    2.0094    0.1547    0.0000 O   0  0  0  0  0  0  0  0  0  0  0  0
    0.5805    0.3617    0.0000 H   0  0  0  0  0  0  0  0  0  0  0  0
   -2.2774    0.3617    0.0000 H   0  0  0  0  0  0  0  0  0  0  0  0
   -2.2774   -3.3523    0.0000 H   0  0  0  0  0  0  0  0  0  0  0  0
    0.5805   -3.3523    0.0000 H   0  0  0  0  0  0  0  0  0  0  0  0
   -3.8855   -2.4238    0.0000 H   0  0  0  0  0  0  0  0  0  0  0  0
    2.1887   -2.4238    0.0000 H   0  0  0  0  0  0  0  0  0  0  0  0
   -1.7751    0.6897    0.0000 H   0  0  0  0  0  0  0  0  0  0  0  0
   -0.8484    1.2247    0.0000 H   0  0  0  0  0  0  0  0  0  0  0  0
    0.7927    0.0322    0.0000 H   0  0  0  0  0  0  0  0  0  0  0  0
    0.7926    1.1022    0.0000 H   0  0  0  0  0  0  0  0  0  0  0  0
   -1.0606    1.9272    0.0000 H   0  0  0  0  0  0  0  0  0  0  0  0
   -0.1340    2.4622    0.0000 H   0  0  0  0  0  0  0  0  0  0  0  0
    2.9361    1.2697    0.0000 H   0  0  0  0  0  0  0  0  0  0  0  0
    2.0094    0.7347    0.0000 H   0  0  0  0  0  0  0  0  0  0  0  0
   -0.3461    3.1647    0.0000 H   0  0  0  0  0  0  0  0  0  0  0  0
    0.5805    3.6997    0.0000 H   0  0  0  0  0  0  0  0  0  0  0  0
    1.2950    4.1122    0.0000 H   0  0  0  0  0  0  0  0  0  0  0  0
    0.3684    3.5772    0.0000 H   0  0  0  0  0  0  0  0  0  0  0  0
    1.2950    0.3222    0.0000 H   0  0  0  0  0  0  0  0  0  0  0  0
    2.2217    0.8572    0.0000 H   0  0  0  0  0  0  0  0  0  0  0  0
    2.7239    4.1122    0.0000 H   0  0  0  0  0  0  0  0  0  0  0  0
    3.6505    3.5772    0.0000 H   0  0  0  0  0  0  0  0  0  0  0  0
    3.4384    1.5597    0.0000 H   0  0  0  0  0  0  0  0  0  0  0  0
    4.3650    2.0947    0.0000 H   0  0  0  0  0  0  0  0  0  0  0  0
    4.9929    2.5572    0.0000 H   0  0  0  0  0  0  0  0  0  0  0  0
   -3.8855   -0.5668    0.0000 H   0  0  0  0  0  0  0  0  0  0  0  0
    2.7239   -2.1528    0.0000 H   0  0  0  0  0  0  0  0  0  0  0  0
    3.6505   -0.5478    0.0000 H   0  0  0  0  0  0  0  0  0  0  0  0
    3.6506   -1.6178    0.0000 H   0  0  0  0  0  0  0  0  0  0  0  0
  3  1  1  0  0  0  0
  4  1  1  0  0  0  0
  5  2  1  0  0  0  0
  5  4  2  0  0  0  0
  6  2  1  0  0  0  0
  6  3  1  0  0  0  0
  7  3  2  0  0  0  0
  7 30  1  0  0  0  0
  8  4  1  0  0  0  0
  8 31  1  0  0  0  0
  9  5  1  0  0  0  0
  9 32  1  0  0  0  0
 10  6  2  0  0  0  0
 10 33  1  0  0  0  0
 11  9  2  0  0  0  0
 11 34  1  0  0  0  0
 12 10  1  0  0  0  0
 12 26  2  0  0  0  0
 12 35  1  0  0  0  0
 13  1  1  0  0  0  0
 13 36  1  0  0  0  0
 13 37  1  0  0  0  0
 14 13  1  0  0  0  0
 14 38  1  0  0  0  0
 14 39  1  0  0  0  0
 15 14  1  0  0  0  0
 15 40  1  0  0  0  0
 15 41  1  0  0  0  0
 16 15  1  0  0  0  0
 18 17  1  0  0  0  0
 18 42  1  0  0  0  0
 18 43  1  0  0  0  0
 19 16  1  0  0  0  0
 19 44  1  0  0  0  0
 19 45  1  0  0  0  0
 20 17  1  0  0  0  0
 20 19  1  0  0  0  0
 20 46  1  0  0  0  0
 20 47  1  0  0  0  0
 21 16  1  0  0  0  0
 21 18  1  0  0  0  0
 21 48  1  0  0  0  0
 21 49  1  0  0  0  0
 22 17  1  0  0  0  0
 22 50  1  0  0  0  0
 22 51  1  0  0  0  0
 23 22  1  0  0  0  0
 23 52  1  0  0  0  0
 23 53  1  0  0  0  0
 24 23  1  0  0  0  0
 24 54  1  0  0  0  0
 25  8  2  0  0  0  0
 25 11  1  0  0  0  0
 25 55  1  0  0  0  0
 26  7  1  0  0  0  0
 26 28  1  0  0  0  0
 27 56  1  0  0  0  0
 27 57  1  0  0  0  0
 27 58  1  0  0  0  0
 28 27  1  0  0  0  0
 28 29  2  0  0  0  0
M  END
>  <DRUGBANK_ID>
DB01063

>  <SECONDARY_ACCESSION_NUMBERS>
APRD00462

>  <COMMON_NAME>
Acetophenazine

>  <CAS_NUMBER>
2751-68-0

>  <UNII>
8620H6K4QH

>  <SYNONYMS>
Acetophenazina; Acetophenazine; Acetophenazinum

$$$$
