
 OpenBabel10282417072D

 18 12  0  0  0  0  0  0  0  0999 V2000
   -1.0312    0.1105    0.0000 C   0  0  0  0  0  0  0  0  0  0  0  0
   -1.4437    0.8250    0.0000 C   0  0  0  0  0  0  0  0  0  0  0  0
   -0.2062    0.1105    0.0000 N   0  0  0  0  0  0  0  0  0  0  0  0
   -1.0312    1.5394    0.0000 O   0  0  0  0  0  0  0  0  0  0  0  0
   -2.2687    0.8250    0.0000 O   0  5  0  0  0  0  0  0  0  0  0  0
   -3.0937    0.8250    0.0000 Al  0  1  0  0  0  0  0  0  0  0  0  0
    3.0937    0.7059    0.0000 Cl  0  5  0  0  0  0  0  0  0  0  0  0
   -1.5125   -1.5394    0.0000 O   0  0  0  0  0  0  0  0  0  0  0  0
    0.8446   -1.5394    0.0000 O   0  0  0  0  0  0  0  0  0  0  0  0
    2.2687    0.7059    0.0000 Zr  0  0  0  0  0  0  0  0  0  0  0  0
   -1.5662   -0.8161    0.0000 H   0  0  0  0  0  0  0  0  0  0  0  0
   -0.4962   -0.8161    0.0000 H   0  0  0  0  0  0  0  0  0  0  0  0
    0.3038   -0.7728    0.0000 H   0  0  0  0  0  0  0  0  0  0  0  0
    0.3038    0.9938    0.0000 H   0  0  0  0  0  0  0  0  0  0  0  0
   -0.5425   -1.5394    0.0000 H   0  0  0  0  0  0  0  0  0  0  0  0
   -1.9975   -0.6994    0.0000 H   0  0  0  0  0  0  0  0  0  0  0  0
    1.8146   -1.5394    0.0000 H   0  0  0  0  0  0  0  0  0  0  0  0
    0.3596   -0.6994    0.0000 H   0  0  0  0  0  0  0  0  0  0  0  0
  1 11  1  0  0  0  0
  1 12  1  0  0  0  0
  2  1  1  0  0  0  0
  3  1  1  0  0  0  0
  3 13  1  0  0  0  0
  3 14  1  0  0  0  0
  4  2  2  0  0  0  0
  5  2  1  0  0  0  0
  8 15  1  0  0  0  0
  8 16  1  0  0  0  0
  9 17  1  0  0  0  0
  9 18  1  0  0  0  0
M  CHG  4   5  -1   6   3   7  -1  10   4
M  END
>  <DRUGBANK_ID>
DB11200

>  <COMMON_NAME>
Aluminum zirconium octachlorohydrex gly

>  <CAS_NUMBER>
174514-58-0

>  <UNII>
P9D3YP29MY

>  <SYNONYMS>
Aluminium zirconium octachlorohydrex gly; Aluminium zirconium octachlorohydrex glycine complex; Aluminum zirconium octachlorohydrex gly; Aluminum zirconium octachlorohydrex glycine complex

$$$$
