
 OpenBabel10282417072D

 19 19  0  0  0  0  0  0  0  0999 V2000
    0.7145   -0.4125    0.0000 C   0  0  0  0  0  0  0  0  0  0  0  0
    1.4289    0.0000    0.0000 C   0  0  0  0  0  0  0  0  0  0  0  0
   -0.0000    0.0000    0.0000 C   0  0  0  0  0  0  0  0  0  0  0  0
    1.4289    0.8250    0.0000 C   0  0  0  0  0  0  0  0  0  0  0  0
    0.0000    0.8250    0.0000 C   0  0  0  0  0  0  0  0  0  0  0  0
    0.7145    2.0625    0.0000 C   0  0  0  0  0  0  0  0  0  0  0  0
    0.7145    1.2375    0.0000 C   0  0  0  0  0  0  0  0  0  0  0  0
   -0.7145    2.8875    0.0000 O   0  0  0  0  0  0  0  0  0  0  0  0
    0.4125    3.1895    0.0000 O   0  0  0  0  0  0  0  0  0  0  0  0
   -0.4125    1.7605    0.0000 O   0  0  0  0  0  0  0  0  0  0  0  0
    0.0000    2.4750    0.0000 S   0  0  0  0  0  0  0  0  0  0  0  0
    0.7145   -1.4445    0.0000 H   0  0  0  0  0  0  0  0  0  0  0  0
    2.3226   -0.5160    0.0000 H   0  0  0  0  0  0  0  0  0  0  0  0
   -0.8937   -0.5160    0.0000 H   0  0  0  0  0  0  0  0  0  0  0  0
    2.3226    1.3410    0.0000 H   0  0  0  0  0  0  0  0  0  0  0  0
   -0.8937    1.3410    0.0000 H   0  0  0  0  0  0  0  0  0  0  0  0
    1.6411    2.5975    0.0000 H   0  0  0  0  0  0  0  0  0  0  0  0
    0.7145    3.1325    0.0000 H   0  0  0  0  0  0  0  0  0  0  0  0
   -0.7145    3.8575    0.0000 H   0  0  0  0  0  0  0  0  0  0  0  0
  1 12  1  0  0  0  0
  2  1  2  0  0  0  0
  2 13  1  0  0  0  0
  3  1  1  0  0  0  0
  3 14  1  0  0  0  0
  4  2  1  0  0  0  0
  4 15  1  0  0  0  0
  5  3  2  0  0  0  0
  5 16  1  0  0  0  0
  6 17  1  0  0  0  0
  6 18  1  0  0  0  0
  7  4  2  0  0  0  0
  7  5  1  0  0  0  0
  7  6  1  0  0  0  0
  8 19  1  0  0  0  0
 11  6  1  0  0  0  0
 11  8  1  0  0  0  0
 11  9  2  0  0  0  0
 11 10  2  0  0  0  0
M  END
>  <DRUGBANK_ID>
DB03297

>  <SECONDARY_ACCESSION_NUMBERS>
EXPT02622

>  <COMMON_NAME>
Benzylsulfonic acid

>  <CAS_NUMBER>
100-87-8

>  <UNII>
5BRP81V98H

>  <SYNONYMS>
alpha-Toluenesulfonic acid; Benzenemethanesulfonic acid; Benzylsulfinic acid; Phenylmethanesulfonic acid; Toluene-alpha-sulphonic acid

$$$$
