
 OpenBabel10282417072D

 39 40  0  0  1  0  0  0  0  0999 V2000
    2.5006    1.6500    0.0000 O   0  0  0  0  0  0  0  0  0  0  0  0
    2.5006    0.8250    0.0000 C   0  0  0  0  0  0  0  0  0  0  0  0
    3.2151    0.4125    0.0000 C   0  0  0  0  0  0  0  0  0  0  0  0
    3.9295    0.8250    0.0000 O   0  0  0  0  0  0  0  0  0  0  0  0
    3.2151   -0.4125    0.0000 C   0  0  0  0  0  0  0  0  0  0  0  0
    2.5006   -0.8250    0.0000 C   0  0  0  0  0  0  0  0  0  0  0  0
    1.7861   -0.4125    0.0000 C   0  0  0  0  0  0  0  0  0  0  0  0
    1.0717   -0.8250    0.0000 C   0  0  0  0  0  0  0  0  0  0  0  0
    0.3572   -0.4125    0.0000 C   0  0  0  0  0  0  0  0  0  0  0  0
   -0.3572   -0.8250    0.0000 C   0  0  0  0  0  0  0  0  0  0  0  0
   -1.0717   -0.4125    0.0000 N   0  0  0  0  0  0  0  0  0  0  0  0
   -1.7861   -0.8250    0.0000 C   0  0  2  0  0  0  0  0  0  0  0  0
   -1.7861   -1.6500    0.0000 C   0  0  0  0  0  0  0  0  0  0  0  0
   -2.5006   -0.4125    0.0000 C   0  0  0  0  0  0  0  0  0  0  0  0
   -3.2151   -0.8250    0.0000 C   0  0  0  0  0  0  0  0  0  0  0  0
   -3.9295   -0.4125    0.0000 C   0  0  0  0  0  0  0  0  0  0  0  0
   -3.9295    0.4125    0.0000 C   0  0  0  0  0  0  0  0  0  0  0  0
   -3.2151    0.8250    0.0000 C   0  0  0  0  0  0  0  0  0  0  0  0
   -2.5006    0.4125    0.0000 C   0  0  0  0  0  0  0  0  0  0  0  0
   -0.3572   -1.6500    0.0000 O   0  0  0  0  0  0  0  0  0  0  0  0
    0.3572    0.4125    0.0000 C   0  0  0  0  0  0  0  0  0  0  0  0
    0.3572    1.2375    0.0000 N   0  0  0  0  0  0  0  0  0  0  0  0
    1.7861    0.4125    0.0000 C   0  0  0  0  0  0  0  0  0  0  0  0
    3.3121    2.1185    0.0000 H   0  0  0  0  0  0  0  0  0  0  0  0
    4.7410    0.3565    0.0000 H   0  0  0  0  0  0  0  0  0  0  0  0
    4.1088   -0.9285    0.0000 H   0  0  0  0  0  0  0  0  0  0  0  0
    2.5006   -1.8570    0.0000 H   0  0  0  0  0  0  0  0  0  0  0  0
    1.0717   -1.8570    0.0000 H   0  0  0  0  0  0  0  0  0  0  0  0
   -1.0717    0.5720    0.0000 H   0  0  0  0  0  0  0  0  0  0  0  0
   -0.8594   -1.3600    0.0000 H   0  0  0  0  0  0  0  0  0  0  0  0
   -2.7127   -2.1850    0.0000 H   0  0  0  0  0  0  0  0  0  0  0  0
   -0.8595   -2.1850    0.0000 H   0  0  0  0  0  0  0  0  0  0  0  0
   -1.7861   -2.7200    0.0000 H   0  0  0  0  0  0  0  0  0  0  0  0
   -3.2151   -1.8570    0.0000 H   0  0  0  0  0  0  0  0  0  0  0  0
   -4.8232   -0.9285    0.0000 H   0  0  0  0  0  0  0  0  0  0  0  0
   -4.8232    0.9285    0.0000 H   0  0  0  0  0  0  0  0  0  0  0  0
   -3.2151    1.8570    0.0000 H   0  0  0  0  0  0  0  0  0  0  0  0
   -1.6069    0.9285    0.0000 H   0  0  0  0  0  0  0  0  0  0  0  0
    0.8924    0.9285    0.0000 H   0  0  0  0  0  0  0  0  0  0  0  0
  1  2  1  0  0  0  0
  1 24  1  0  0  0  0
  2  3  2  0  0  0  0
  2 23  1  0  0  0  0
  3  4  1  0  0  0  0
  3  5  1  0  0  0  0
  4 25  1  0  0  0  0
  5  6  2  0  0  0  0
  5 26  1  0  0  0  0
  6  7  1  0  0  0  0
  6 27  1  0  0  0  0
  7  8  1  0  0  0  0
  7 23  2  0  0  0  0
  8  9  2  0  0  0  0
  8 28  1  0  0  0  0
  9 10  1  0  0  0  0
  9 21  1  0  0  0  0
 10 11  1  0  0  0  0
 10 20  2  0  0  0  0
 11 29  1  0  0  0  0
 12 11  1  0  0  0  0
 12 13  1  0  0  0  0
 12 14  1  0  0  0  0
 12 30  1  1  0  0  0
 13 31  1  0  0  0  0
 13 32  1  0  0  0  0
 13 33  1  0  0  0  0
 14 15  2  0  0  0  0
 14 19  1  0  0  0  0
 15 16  1  0  0  0  0
 15 34  1  0  0  0  0
 16 17  2  0  0  0  0
 16 35  1  0  0  0  0
 17 18  1  0  0  0  0
 17 36  1  0  0  0  0
 18 19  2  0  0  0  0
 18 37  1  0  0  0  0
 19 38  1  0  0  0  0
 21 22  3  0  0  0  0
 23 39  1  0  0  0  0
M  END
>  <DRUGBANK_ID>
DB16762

>  <COMMON_NAME>
Tyrphostin B44

>  <CAS_NUMBER>
133550-32-0

>  <SYNONYMS>
AG 527; AG527; Tyrphostin AG 527; Tyrphostin B-44; Tyrphostin B44, (-) enantiomer; Tyrphostin B44(-)

$$$$
