ADL
 OpenBabel10282417072D

 33 35  0  0  0  0  0  0  0  0999 V2000
    2.7924   -0.8501    0.0000 C   0  0  0  0  0  0  0  0  0  0  0  0
    2.0779   -1.2626    0.0000 C   0  0  0  0  0  0  0  0  0  0  0  0
    1.3634   -0.8501    0.0000 C   0  0  0  0  0  0  0  0  0  0  0  0
    1.3634   -0.0251    0.0000 C   0  0  0  0  0  0  0  0  0  0  0  0
    2.0779    0.3874    0.0000 C   0  0  0  0  0  0  0  0  0  0  0  0
    2.7924   -0.0251    0.0000 C   0  0  0  0  0  0  0  0  0  0  0  0
    0.6489    0.3874    0.0000 C   0  0  0  0  0  0  0  0  0  0  0  0
   -0.0655   -0.0251    0.0000 C   0  0  0  0  0  0  0  0  0  0  0  0
   -0.0655   -0.8501    0.0000 C   0  0  0  0  0  0  0  0  0  0  0  0
    0.6489   -1.2626    0.0000 C   0  0  0  0  0  0  0  0  0  0  0  0
   -0.7800    0.3874    0.0000 C   0  0  0  0  0  0  0  0  0  0  0  0
   -1.4945   -0.0251    0.0000 C   0  0  0  0  0  0  0  0  0  0  0  0
   -1.4945   -0.8501    0.0000 C   0  0  0  0  0  0  0  0  0  0  0  0
   -0.7800   -1.2626    0.0000 C   0  0  0  0  0  0  0  0  0  0  0  0
   -2.2089    0.3874    0.0000 C   0  0  0  0  0  0  0  0  0  0  0  0
   -2.2089    1.2124    0.0000 C   0  0  0  0  0  0  0  0  0  0  0  0
    2.0779    1.2124    0.0000 O   0  0  0  0  0  0  0  0  0  0  0  0
    0.6489    1.2124    0.0000 O   0  0  0  0  0  0  0  0  0  0  0  0
   -0.7800    1.2124    0.0000 O   0  0  0  0  0  0  0  0  0  0  0  0
   -2.9234    1.6249    0.0000 O   0  0  0  0  0  0  0  0  0  0  0  0
   -1.4945    1.6249    0.0000 O   0  0  0  0  0  0  0  0  0  0  0  0
    3.6861   -1.3661    0.0000 H   0  0  0  0  0  0  0  0  0  0  0  0
    2.0779   -2.2946    0.0000 H   0  0  0  0  0  0  0  0  0  0  0  0
    3.6861    0.4909    0.0000 H   0  0  0  0  0  0  0  0  0  0  0  0
    0.6489   -2.3326    0.0000 H   0  0  0  0  0  0  0  0  0  0  0  0
   -0.2778   -1.7976    0.0000 H   0  0  0  0  0  0  0  0  0  0  0  0
   -2.3882   -1.3661    0.0000 H   0  0  0  0  0  0  0  0  0  0  0  0
   -0.7800   -2.2946    0.0000 H   0  0  0  0  0  0  0  0  0  0  0  0
   -3.1356   -0.1476    0.0000 H   0  0  0  0  0  0  0  0  0  0  0  0
   -3.1355    0.9224    0.0000 H   0  0  0  0  0  0  0  0  0  0  0  0
    2.8894    1.6809    0.0000 H   0  0  0  0  0  0  0  0  0  0  0  0
    0.0315    1.6809    0.0000 H   0  0  0  0  0  0  0  0  0  0  0  0
   -0.6830    1.1564    0.0000 H   0  0  0  0  0  0  0  0  0  0  0  0
  1  2  2  0  0  0  0
  1  6  1  0  0  0  0
  1 22  1  0  0  0  0
  2  3  1  0  0  0  0
  2 23  1  0  0  0  0
  3  4  2  0  0  0  0
  3 10  1  0  0  0  0
  4  5  1  0  0  0  0
  4  7  1  0  0  0  0
  5  6  2  0  0  0  0
  5 17  1  0  0  0  0
  6 24  1  0  0  0  0
  7  8  1  0  0  0  0
  7 18  2  0  0  0  0
  8  9  2  0  0  0  0
  8 11  1  0  0  0  0
  9 10  1  0  0  0  0
  9 14  1  0  0  0  0
 10 25  1  0  0  0  0
 10 26  1  0  0  0  0
 11 12  2  0  0  0  0
 11 19  1  0  0  0  0
 12 13  1  0  0  0  0
 12 15  1  0  0  0  0
 13 14  2  0  0  0  0
 13 27  1  0  0  0  0
 14 28  1  0  0  0  0
 15 16  1  0  0  0  0
 15 29  1  0  0  0  0
 15 30  1  0  0  0  0
 16 20  2  0  0  0  0
 16 21  1  0  0  0  0
 17 31  1  0  0  0  0
 19 32  1  0  0  0  0
 21 33  1  0  0  0  0
M  END
>  <DRUGBANK_ID>
DB02019

>  <SECONDARY_ACCESSION_NUMBERS>
EXPT00432

>  <COMMON_NAME>
Acetyl Dithranol

$$$$
