
 OpenBabel10282417072D

 50 51  0  0  0  0  0  0  0  0999 V2000
   -0.3571    1.8562    0.0000 S   0  0  0  0  0  0  0  0  0  0  0  0
   -0.4677   -3.5062    0.0000 F   0  0  0  0  0  0  0  0  0  0  0  0
    1.1822   -3.5062    0.0000 F   0  0  0  0  0  0  0  0  0  0  0  0
    0.3572   -4.3312    0.0000 F   0  0  0  0  0  0  0  0  0  0  0  0
   -1.1821    1.8562    0.0000 O   0  0  0  0  0  0  0  0  0  0  0  0
    0.4678    1.8562    0.0000 O   0  0  0  0  0  0  0  0  0  0  0  0
    1.1822   -2.6812    0.0000 O   0  0  0  0  0  0  0  0  0  0  0  0
    1.0717   -1.4437    0.0000 O   0  0  0  0  0  0  0  0  0  0  0  0
   -0.3571    2.6812    0.0000 N   0  0  0  0  0  0  0  0  0  0  0  0
   -0.3571   -1.4437    0.0000 N   0  0  0  0  0  0  0  0  0  0  0  0
   -0.3571    1.0312    0.0000 C   0  0  0  0  0  0  0  0  0  0  0  0
   -0.3571   -0.6187    0.0000 C   0  0  0  0  0  0  0  0  0  0  0  0
   -1.0717   -0.2062    0.0000 C   0  0  0  0  0  0  0  0  0  0  0  0
   -1.0717    3.0937    0.0000 C   0  0  0  0  0  0  0  0  0  0  0  0
   -1.0717    0.6187    0.0000 C   0  0  0  0  0  0  0  0  0  0  0  0
    0.3572   -2.6812    0.0000 C   0  0  2  0  0  0  0  0  0  0  0  0
    0.3572    3.0937    0.0000 C   0  0  0  0  0  0  0  0  0  0  0  0
    0.3572    0.6187    0.0000 C   0  0  0  0  0  0  0  0  0  0  0  0
    0.3572   -0.2062    0.0000 C   0  0  0  0  0  0  0  0  0  0  0  0
    0.3572   -1.8562    0.0000 C   0  0  0  0  0  0  0  0  0  0  0  0
   -1.7861   -0.6187    0.0000 C   0  0  0  0  0  0  0  0  0  0  0  0
   -1.0717    3.9187    0.0000 C   0  0  0  0  0  0  0  0  0  0  0  0
    0.3572   -3.5062    0.0000 C   0  0  0  0  0  0  0  0  0  0  0  0
   -0.4677   -2.6812    0.0000 C   0  0  0  0  0  0  0  0  0  0  0  0
    0.3572    3.9187    0.0000 C   0  0  0  0  0  0  0  0  0  0  0  0
    1.0717    2.6812    0.0000 C   0  0  0  0  0  0  0  0  0  0  0  0
    1.0717    4.3312    0.0000 C   0  0  0  0  0  0  0  0  0  0  0  0
    1.7861    3.0937    0.0000 C   0  0  0  0  0  0  0  0  0  0  0  0
    1.7861    3.9187    0.0000 C   0  0  0  0  0  0  0  0  0  0  0  0
   -0.8002   -1.6995    0.0000 H   0  0  0  0  0  0  0  0  0  0  0  0
    1.6672   -3.5212    0.0000 H   0  0  0  0  0  0  0  0  0  0  0  0
   -1.9983    2.5587    0.0000 H   0  0  0  0  0  0  0  0  0  0  0  0
   -1.9984    3.6287    0.0000 H   0  0  0  0  0  0  0  0  0  0  0  0
   -1.9654    1.1347    0.0000 H   0  0  0  0  0  0  0  0  0  0  0  0
    1.2510    1.1347    0.0000 H   0  0  0  0  0  0  0  0  0  0  0  0
    1.2510   -0.7222    0.0000 H   0  0  0  0  0  0  0  0  0  0  0  0
   -2.7128   -0.0837    0.0000 H   0  0  0  0  0  0  0  0  0  0  0  0
   -1.7861   -1.6887    0.0000 H   0  0  0  0  0  0  0  0  0  0  0  0
   -2.7127   -1.1537    0.0000 H   0  0  0  0  0  0  0  0  0  0  0  0
   -0.1451    4.4537    0.0000 H   0  0  0  0  0  0  0  0  0  0  0  0
   -1.9983    4.4537    0.0000 H   0  0  0  0  0  0  0  0  0  0  0  0
   -1.0717    4.9887    0.0000 H   0  0  0  0  0  0  0  0  0  0  0  0
   -1.0027   -1.7546    0.0000 H   0  0  0  0  0  0  0  0  0  0  0  0
   -1.0027   -3.6078    0.0000 H   0  0  0  0  0  0  0  0  0  0  0  0
   -1.5377   -2.6812    0.0000 H   0  0  0  0  0  0  0  0  0  0  0  0
   -0.5365    4.4347    0.0000 H   0  0  0  0  0  0  0  0  0  0  0  0
    1.0717    1.6492    0.0000 H   0  0  0  0  0  0  0  0  0  0  0  0
    1.0717    5.3632    0.0000 H   0  0  0  0  0  0  0  0  0  0  0  0
    2.6798    2.5777    0.0000 H   0  0  0  0  0  0  0  0  0  0  0  0
    2.6798    4.4347    0.0000 H   0  0  0  0  0  0  0  0  0  0  0  0
  1  5  2  0  0  0  0
  1  6  2  0  0  0  0
  1  9  1  0  0  0  0
  1 11  1  0  0  0  0
  2 23  1  0  0  0  0
  3 23  1  0  0  0  0
  4 23  1  0  0  0  0
  7 31  1  0  0  0  0
  8 20  2  0  0  0  0
  9 14  1  0  0  0  0
  9 17  1  0  0  0  0
 10 12  1  0  0  0  0
 10 20  1  0  0  0  0
 10 30  1  0  0  0  0
 11 15  2  0  0  0  0
 11 18  1  0  0  0  0
 12 13  2  0  0  0  0
 12 19  1  0  0  0  0
 13 15  1  0  0  0  0
 13 21  1  0  0  0  0
 14 22  1  0  0  0  0
 14 32  1  0  0  0  0
 14 33  1  0  0  0  0
 15 34  1  0  0  0  0
 16  7  1  6  0  0  0
 16 20  1  0  0  0  0
 16 23  1  0  0  0  0
 16 24  1  0  0  0  0
 17 25  2  0  0  0  0
 17 26  1  0  0  0  0
 18 19  2  0  0  0  0
 18 35  1  0  0  0  0
 19 36  1  0  0  0  0
 21 37  1  0  0  0  0
 21 38  1  0  0  0  0
 21 39  1  0  0  0  0
 22 40  1  0  0  0  0
 22 41  1  0  0  0  0
 22 42  1  0  0  0  0
 24 43  1  0  0  0  0
 24 44  1  0  0  0  0
 24 45  1  0  0  0  0
 25 27  1  0  0  0  0
 25 46  1  0  0  0  0
 26 28  2  0  0  0  0
 26 47  1  0  0  0  0
 27 29  2  0  0  0  0
 27 48  1  0  0  0  0
 28 29  1  0  0  0  0
 28 49  1  0  0  0  0
 29 50  1  0  0  0  0
M  END
>  <DRUGBANK_ID>
DB08609

>  <COMMON_NAME>
(2R)-N-{4-[Ethyl(phenyl)sulfamoyl]-2-methylphenyl}-3,3,3-trifluoro-2-hydroxy-2-methylpropanamide

$$$$
