
 OpenBabel10282417072D

 29 31  0  0  0  0  0  0  0  0999 V2000
   -1.1801    0.4125    0.0000 C   0  0  0  0  0  0  0  0  0  0  0  0
   -0.7676   -0.3020    0.0000 C   0  0  0  0  0  0  0  0  0  0  0  0
   -0.7676    1.1270    0.0000 C   0  0  0  0  0  0  0  0  0  0  0  0
    0.0574   -0.3020    0.0000 C   0  0  0  0  0  0  0  0  0  0  0  0
    0.0574    1.1270    0.0000 C   0  0  0  0  0  0  0  0  0  0  0  0
    3.9934    0.8250    0.0000 C   0  0  0  0  0  0  0  0  0  0  0  0
    3.2789    1.2375    0.0000 C   0  0  0  0  0  0  0  0  0  0  0  0
    3.2789   -0.4125    0.0000 C   0  0  0  0  0  0  0  0  0  0  0  0
    0.4699    0.4125    0.0000 C   0  0  0  0  0  0  0  0  0  0  0  0
    3.9934    0.0000    0.0000 C   0  0  0  0  0  0  0  0  0  0  0  0
    2.5645    0.8250    0.0000 C   0  0  0  0  0  0  0  0  0  0  0  0
    2.5645    0.0000    0.0000 C   0  0  0  0  0  0  0  0  0  0  0  0
    1.2949    0.4125    0.0000 C   0  0  0  0  0  0  0  0  0  0  0  0
    1.7798    1.0799    0.0000 N   0  0  0  0  0  0  0  0  0  0  0  0
    1.7798   -0.2549    0.0000 N   0  0  0  0  0  0  0  0  0  0  0  0
    5.4223   -0.8250    0.0000 O   0  0  0  0  0  0  0  0  0  0  0  0
    4.2954   -1.1270    0.0000 O   0  0  0  0  0  0  0  0  0  0  0  0
    5.1204    0.3020    0.0000 O   0  0  0  0  0  0  0  0  0  0  0  0
    4.7079   -0.4125    0.0000 S   0  0  0  0  0  0  0  0  0  0  0  0
   -2.2121    0.4125    0.0000 H   0  0  0  0  0  0  0  0  0  0  0  0
   -1.2836   -1.1957    0.0000 H   0  0  0  0  0  0  0  0  0  0  0  0
   -1.2836    2.0207    0.0000 H   0  0  0  0  0  0  0  0  0  0  0  0
    0.5734   -1.1957    0.0000 H   0  0  0  0  0  0  0  0  0  0  0  0
    0.5734    2.0207    0.0000 H   0  0  0  0  0  0  0  0  0  0  0  0
    4.8871    1.3410    0.0000 H   0  0  0  0  0  0  0  0  0  0  0  0
    3.2789    2.2695    0.0000 H   0  0  0  0  0  0  0  0  0  0  0  0
    3.2789   -1.4445    0.0000 H   0  0  0  0  0  0  0  0  0  0  0  0
    1.4755   -1.1912    0.0000 H   0  0  0  0  0  0  0  0  0  0  0  0
    5.4223   -1.7950    0.0000 H   0  0  0  0  0  0  0  0  0  0  0  0
  1 20  1  0  0  0  0
  2  1  2  0  0  0  0
  2 21  1  0  0  0  0
  3  1  1  0  0  0  0
  3 22  1  0  0  0  0
  4  2  1  0  0  0  0
  4 23  1  0  0  0  0
  5  3  2  0  0  0  0
  5 24  1  0  0  0  0
  6 25  1  0  0  0  0
  7  6  2  0  0  0  0
  7 26  1  0  0  0  0
  8 27  1  0  0  0  0
  9  4  2  0  0  0  0
  9  5  1  0  0  0  0
 10  6  1  0  0  0  0
 10  8  2  0  0  0  0
 11  7  1  0  0  0  0
 12  8  1  0  0  0  0
 12 11  2  0  0  0  0
 13  9  1  0  0  0  0
 14 11  1  0  0  0  0
 14 13  2  0  0  0  0
 15 12  1  0  0  0  0
 15 13  1  0  0  0  0
 15 28  1  0  0  0  0
 16 29  1  0  0  0  0
 19 10  1  0  0  0  0
 19 16  1  0  0  0  0
 19 17  2  0  0  0  0
 19 18  2  0  0  0  0
M  END
>  <DRUGBANK_ID>
DB11115

>  <COMMON_NAME>
Ensulizole

>  <CAS_NUMBER>
27503-81-7

>  <UNII>
9YQ9DI1W42

>  <SYNONYMS>
Ensulizole; phenylbenzimidazole sulfonic acid

$$$$
