
 OpenBabel10282417072D

  7  3  0  0  0  0  0  0  0  0999 V2000
    0.4125    0.0000    0.0000 Fe  0  1  0  0  0  0  0  0  0  0  0  0
   -0.4125    0.0000    0.0000 O   0  5  0  0  0  0  0  0  0  0  0  0
    2.7696    0.0000    0.0000 O   0  5  0  0  0  0  0  0  0  0  0  0
    0.0000   -1.6500    0.0000 O   0  5  0  0  0  0  0  0  0  0  0  0
    0.5575    0.0000    0.0000 H   0  0  0  0  0  0  0  0  0  0  0  0
    3.7396    0.0000    0.0000 H   0  0  0  0  0  0  0  0  0  0  0  0
    0.9700   -1.6500    0.0000 H   0  0  0  0  0  0  0  0  0  0  0  0
  2  5  1  0  0  0  0
  3  6  1  0  0  0  0
  4  7  1  0  0  0  0
M  CHG  4   1   3   2  -1   3  -1   4  -1
M  END
>  <DRUGBANK_ID>
DB13423

>  <COMMON_NAME>
Ferric hydroxide

>  <CAS_NUMBER>
1309-33-7

>  <UNII>
2UA751211N

$$$$
