
 OpenBabel10282417072D

 71 74  0  0  1  0  0  0  0  0999 V2000
   -1.6193   -2.4812    0.0000 C   0  0  0  0  0  0  0  0  0  0  0  0
   -1.0062   -1.9291    0.0000 C   0  0  0  0  0  0  0  0  0  0  0  0
   -1.5582   -1.3160    0.0000 C   0  0  0  0  0  0  0  0  0  0  0  0
   -0.4541   -2.5422    0.0000 C   0  0  0  0  0  0  0  0  0  0  0  0
   -0.3931   -1.3771    0.0000 C   0  0  0  0  0  0  0  0  0  0  0  0
    0.3915   -1.6320    0.0000 C   0  0  1  0  0  0  0  0  0  0  0  0
    1.0590   -1.1471    0.0000 C   0  0  2  0  0  0  0  0  0  0  0  0
    1.7264   -1.6320    0.0000 C   0  0  2  0  0  0  0  0  0  0  0  0
    1.4715   -2.4167    0.0000 C   0  0  1  0  0  0  0  0  0  0  0  0
    0.6465   -2.4167    0.0000 N   0  0  0  0  0  0  0  0  0  0  0  0
    1.9564   -3.0841    0.0000 C   0  0  0  0  0  0  0  0  0  0  0  0
    2.7769   -2.9979    0.0000 O   0  0  0  0  0  0  0  0  0  0  0  0
    1.6208   -3.8378    0.0000 N   0  0  0  0  0  0  0  0  0  0  0  0
    2.1058   -4.5052    0.0000 C   0  0  0  0  0  0  0  0  0  0  0  0
    2.9262   -4.4190    0.0000 C   0  0  0  0  0  0  0  0  0  0  0  0
    3.4112   -5.0864    0.0000 C   0  0  0  0  0  0  0  0  0  0  0  0
    3.0756   -5.8401    0.0000 C   0  0  0  0  0  0  0  0  0  0  0  0
    2.2551   -5.9263    0.0000 C   0  0  0  0  0  0  0  0  0  0  0  0
    1.7702   -5.2589    0.0000 C   0  0  0  0  0  0  0  0  0  0  0  0
    0.9497   -5.3451    0.0000 O   0  0  0  0  0  0  0  0  0  0  0  0
    0.4648   -4.6777    0.0000 C   0  0  0  0  0  0  0  0  0  0  0  0
    3.5605   -6.5075    0.0000 C   0  0  0  0  0  0  0  0  0  0  0  0
    3.2250   -7.2612    0.0000 O   0  0  0  0  0  0  0  0  0  0  0  0
    4.3810   -6.4213    0.0000 O   0  0  0  0  0  0  0  0  0  0  0  0
    2.5110   -1.3771    0.0000 C   0  0  0  0  0  0  0  0  0  0  0  0
    2.6826   -0.5701    0.0000 C   0  0  0  0  0  0  0  0  0  0  0  0
    3.4672   -0.3152    0.0000 C   0  0  0  0  0  0  0  0  0  0  0  0
    4.0803   -0.8672    0.0000 C   0  0  0  0  0  0  0  0  0  0  0  0
    3.9088   -1.6742    0.0000 C   0  0  0  0  0  0  0  0  0  0  0  0
    3.1241   -1.9291    0.0000 C   0  0  0  0  0  0  0  0  0  0  0  0
    2.9526   -2.7361    0.0000 F   0  0  0  0  0  0  0  0  0  0  0  0
    4.5219   -2.2262    0.0000 Cl  0  0  0  0  0  0  0  0  0  0  0  0
    0.6540   -0.4284    0.0000 C   0  0  0  0  0  0  0  0  0  0  0  0
    0.2490    0.2904    0.0000 N   0  0  0  0  0  0  0  0  0  0  0  0
    1.4640   -0.4284    0.0000 C   0  0  0  0  0  0  0  0  0  0  0  0
    1.0440    0.2817    0.0000 C   0  0  0  0  0  0  0  0  0  0  0  0
    1.4490    1.0005    0.0000 C   0  0  0  0  0  0  0  0  0  0  0  0
    2.2740    1.0091    0.0000 C   0  0  0  0  0  0  0  0  0  0  0  0
    2.6939    0.2990    0.0000 C   0  0  0  0  0  0  0  0  0  0  0  0
    2.2889   -0.4197    0.0000 C   0  0  0  0  0  0  0  0  0  0  0  0
    3.0941   -0.2398    0.0000 F   0  0  0  0  0  0  0  0  0  0  0  0
    2.6790    1.7279    0.0000 Cl  0  0  0  0  0  0  0  0  0  0  0  0
   -2.6369   -2.1506    0.0000 H   0  0  0  0  0  0  0  0  0  0  0  0
   -1.3968   -3.5278    0.0000 H   0  0  0  0  0  0  0  0  0  0  0  0
   -2.4144   -3.1972    0.0000 H   0  0  0  0  0  0  0  0  0  0  0  0
   -1.2275   -0.2984    0.0000 H   0  0  0  0  0  0  0  0  0  0  0  0
   -2.6048   -1.5384    0.0000 H   0  0  0  0  0  0  0  0  0  0  0  0
   -2.2741   -0.5208    0.0000 H   0  0  0  0  0  0  0  0  0  0  0  0
   -0.7847   -3.5598    0.0000 H   0  0  0  0  0  0  0  0  0  0  0  0
    0.5925   -2.3197    0.0000 H   0  0  0  0  0  0  0  0  0  0  0  0
    0.2619   -3.3373    0.0000 H   0  0  0  0  0  0  0  0  0  0  0  0
   -0.6156   -0.3305    0.0000 H   0  0  0  0  0  0  0  0  0  0  0  0
    0.4021   -0.6611    0.0000 H   0  0  0  0  0  0  0  0  0  0  0  0
    0.2241   -0.5752    0.0000 H   0  0  0  0  0  0  0  0  0  0  0  0
    1.8938   -0.5752    0.0000 H   0  0  0  0  0  0  0  0  0  0  0  0
    2.5283   -2.2493    0.0000 H   0  0  0  0  0  0  0  0  0  0  0  0
    0.0470   -3.2419    0.0000 H   0  0  0  0  0  0  0  0  0  0  0  0
    0.6417   -3.9407    0.0000 H   0  0  0  0  0  0  0  0  0  0  0  0
    3.3459   -3.4762    0.0000 H   0  0  0  0  0  0  0  0  0  0  0  0
    4.4375   -4.9785    0.0000 H   0  0  0  0  0  0  0  0  0  0  0  0
    1.8353   -6.8691    0.0000 H   0  0  0  0  0  0  0  0  0  0  0  0
    0.9000   -3.7002    0.0000 H   0  0  0  0  0  0  0  0  0  0  0  0
   -0.5993   -4.7896    0.0000 H   0  0  0  0  0  0  0  0  0  0  0  0
   -0.1641   -3.8121    0.0000 H   0  0  0  0  0  0  0  0  0  0  0  0
    4.9317   -7.1794    0.0000 H   0  0  0  0  0  0  0  0  0  0  0  0
    1.9157    0.1205    0.0000 H   0  0  0  0  0  0  0  0  0  0  0  0
    3.6818    0.6942    0.0000 H   0  0  0  0  0  0  0  0  0  0  0  0
    5.0618   -0.5483    0.0000 H   0  0  0  0  0  0  0  0  0  0  0  0
    0.0121    0.2709    0.0000 H   0  0  0  0  0  0  0  0  0  0  0  0
    0.9237    1.8888    0.0000 H   0  0  0  0  0  0  0  0  0  0  0  0
    3.7258    0.3098    0.0000 H   0  0  0  0  0  0  0  0  0  0  0  0
  1  2  1  0  0  0  0
  1 43  1  0  0  0  0
  1 44  1  0  0  0  0
  1 45  1  0  0  0  0
  2  3  1  0  0  0  0
  2  4  1  0  0  0  0
  2  5  1  0  0  0  0
  3 46  1  0  0  0  0
  3 47  1  0  0  0  0
  3 48  1  0  0  0  0
  4 49  1  0  0  0  0
  4 50  1  0  0  0  0
  4 51  1  0  0  0  0
  5 52  1  0  0  0  0
  5 53  1  0  0  0  0
  6  5  1  0  0  0  0
  6  7  1  0  0  0  0
  6 10  1  0  0  0  0
  6 54  1  6  0  0  0
  7  8  1  0  0  0  0
  7 33  1  1  0  0  0
  7 35  1  0  0  0  0
  8  9  1  0  0  0  0
  8 25  1  0  0  0  0
  8 55  1  6  0  0  0
  9 10  1  0  0  0  0
  9 11  1  0  0  0  0
  9 56  1  1  0  0  0
 10 57  1  0  0  0  0
 11 12  2  0  0  0  0
 11 13  1  0  0  0  0
 13 14  1  0  0  0  0
 13 58  1  0  0  0  0
 14 15  2  0  0  0  0
 14 19  1  0  0  0  0
 15 16  1  0  0  0  0
 15 59  1  0  0  0  0
 16 17  2  0  0  0  0
 16 60  1  0  0  0  0
 17 18  1  0  0  0  0
 17 22  1  0  0  0  0
 18 19  2  0  0  0  0
 18 61  1  0  0  0  0
 19 20  1  0  0  0  0
 20 21  1  0  0  0  0
 21 62  1  0  0  0  0
 21 63  1  0  0  0  0
 21 64  1  0  0  0  0
 22 23  2  0  0  0  0
 22 24  1  0  0  0  0
 24 65  1  0  0  0  0
 25 26  2  0  0  0  0
 25 30  1  0  0  0  0
 26 27  1  0  0  0  0
 26 66  1  0  0  0  0
 27 28  2  0  0  0  0
 27 67  1  0  0  0  0
 28 29  1  0  0  0  0
 28 68  1  0  0  0  0
 29 30  2  0  0  0  0
 29 32  1  0  0  0  0
 30 31  1  0  0  0  0
 33 34  3  0  0  0  0
 35 36  2  0  0  0  0
 35 40  1  0  0  0  0
 36 37  1  0  0  0  0
 36 69  1  0  0  0  0
 37 38  2  0  0  0  0
 37 70  1  0  0  0  0
 38 39  1  0  0  0  0
 38 42  1  0  0  0  0
 39 40  2  0  0  0  0
 39 71  1  0  0  0  0
 40 41  1  0  0  0  0
M  END
>  <DRUGBANK_ID>
DB12325

>  <COMMON_NAME>
Idasanutlin

>  <CAS_NUMBER>
1229705-06-9

>  <UNII>
QSQ883V35U

>  <SYNONYMS>
BENZOIC ACID, 4-((((2R,3S,4R,5S)-3-(3-CHLORO-2-FLUOROPHENYL)-4-(4-CHLORO-2-FLUOROPHENYL)-4-CYANO-5-(2,2-DIMETHYLPROPYL)-2-PYRROLIDINYL)CARBONYL)AMINO)-3-METHOXY-; Idasanutlin

$$$$
