
 OpenBabel10282417072D

 28 29  0  0  0  0  0  0  0  0999 V2000
    3.4990    1.1104    0.0000 C   0  0  0  0  0  0  0  0  0  0  0  0
    2.7845    0.6979    0.0000 O   0  0  0  0  0  0  0  0  0  0  0  0
    2.0701    1.1104    0.0000 C   0  0  0  0  0  0  0  0  0  0  0  0
    1.3556    0.6979    0.0000 N   0  0  0  0  0  0  0  0  0  0  0  0
    0.6411    1.1104    0.0000 C   0  0  0  0  0  0  0  0  0  0  0  0
   -0.1435    0.8555    0.0000 N   0  0  0  0  0  0  0  0  0  0  0  0
   -0.3984    0.0709    0.0000 C   0  0  0  0  0  0  0  0  0  0  0  0
   -0.6284    1.5229    0.0000 C   0  0  0  0  0  0  0  0  0  0  0  0
   -1.4534    1.5229    0.0000 O   0  0  0  0  0  0  0  0  0  0  0  0
   -0.1435    2.1904    0.0000 N   0  0  0  0  0  0  0  0  0  0  0  0
   -0.3984    2.9750    0.0000 C   0  0  0  0  0  0  0  0  0  0  0  0
    0.6411    1.9354    0.0000 C   0  0  0  0  0  0  0  0  0  0  0  0
    1.3556    2.3479    0.0000 C   0  0  0  0  0  0  0  0  0  0  0  0
    1.3556    3.1729    0.0000 O   0  0  0  0  0  0  0  0  0  0  0  0
    2.0701    1.9354    0.0000 N   0  0  0  0  0  0  0  0  0  0  0  0
    2.7845    2.3479    0.0000 C   0  0  0  0  0  0  0  0  0  0  0  0
    4.4256    0.5754    0.0000 H   0  0  0  0  0  0  0  0  0  0  0  0
    3.4990    2.1804    0.0000 H   0  0  0  0  0  0  0  0  0  0  0  0
    4.4257    1.6454    0.0000 H   0  0  0  0  0  0  0  0  0  0  0  0
   -1.4450   -0.1516    0.0000 H   0  0  0  0  0  0  0  0  0  0  0  0
    0.3176   -0.7242    0.0000 H   0  0  0  0  0  0  0  0  0  0  0  0
   -0.7290   -0.9467    0.0000 H   0  0  0  0  0  0  0  0  0  0  0  0
    0.3176    3.7701    0.0000 H   0  0  0  0  0  0  0  0  0  0  0  0
   -1.4450    3.1975    0.0000 H   0  0  0  0  0  0  0  0  0  0  0  0
   -0.7290    3.9926    0.0000 H   0  0  0  0  0  0  0  0  0  0  0  0
    3.7112    1.8129    0.0000 H   0  0  0  0  0  0  0  0  0  0  0  0
    2.7845    3.4179    0.0000 H   0  0  0  0  0  0  0  0  0  0  0  0
    3.7111    2.8829    0.0000 H   0  0  0  0  0  0  0  0  0  0  0  0
  1  2  1  0  0  0  0
  1 17  1  0  0  0  0
  1 18  1  0  0  0  0
  1 19  1  0  0  0  0
  2  3  1  0  0  0  0
  3  4  2  0  0  0  0
  3 15  1  0  0  0  0
  4  5  1  0  0  0  0
  5  6  1  0  0  0  0
  5 12  2  0  0  0  0
  6  7  1  0  0  0  0
  6  8  1  0  0  0  0
  7 20  1  0  0  0  0
  7 21  1  0  0  0  0
  7 22  1  0  0  0  0
  8  9  2  0  0  0  0
  8 10  1  0  0  0  0
 10 11  1  0  0  0  0
 10 12  1  0  0  0  0
 11 23  1  0  0  0  0
 11 24  1  0  0  0  0
 11 25  1  0  0  0  0
 12 13  1  0  0  0  0
 13 14  2  0  0  0  0
 13 15  1  0  0  0  0
 15 16  1  0  0  0  0
 16 26  1  0  0  0  0
 16 27  1  0  0  0  0
 16 28  1  0  0  0  0
M  END
>  <DRUGBANK_ID>
DB17930

>  <COMMON_NAME>
Methylliberine

>  <CAS_NUMBER>
51168-26-4

>  <UNII>
RY9AJC5PA7

$$$$
