
 OpenBabel10282417072D

 38 39  0  0  0  0  0  0  0  0999 V2000
    0.1148    1.0679    0.0000 C   0  0  0  0  0  0  0  0  0  0  0  0
    0.1148    1.8929    0.0000 C   0  0  0  0  0  0  0  0  0  0  0  0
    0.8294    0.6554    0.0000 N   0  0  0  0  0  0  0  0  0  0  0  0
    1.5439    1.0679    0.0000 C   0  0  0  0  0  0  0  0  0  0  0  0
    1.5439    1.8929    0.0000 N   0  0  0  0  0  0  0  0  0  0  0  0
    0.8294    2.3054    0.0000 C   0  0  0  0  0  0  0  0  0  0  0  0
    0.8294   -0.1695    0.0000 C   0  0  2  0  0  0  0  0  0  0  0  0
    0.1620   -0.6544    0.0000 O   0  0  0  0  0  0  0  0  0  0  0  0
    0.4169   -1.4390    0.0000 C   0  0  1  0  0  0  0  0  0  0  0  0
    1.2419   -1.4390    0.0000 C   0  0  2  0  0  0  0  0  0  0  0  0
    2.2583    0.6554    0.0000 O   0  0  0  0  0  0  0  0  0  0  0  0
   -1.5794   -3.1304    0.0000 O   0  0  0  0  0  0  0  0  0  0  0  0
   -1.5794   -2.3054    0.0000 P   0  0  0  0  0  0  0  0  0  0  0  0
   -0.8648   -1.8929    0.0000 O   0  0  0  0  0  0  0  0  0  0  0  0
   -0.0679   -2.1064    0.0000 C   0  0  0  0  0  0  0  0  0  0  0  0
    1.4969   -0.6544    0.0000 C   0  0  1  0  0  0  0  0  0  0  0  0
    2.2938   -0.4409    0.0000 O   0  0  0  0  0  0  0  0  0  0  0  0
    0.8294    3.1304    0.0000 N   0  0  0  0  0  0  0  0  0  0  0  0
    1.7267   -2.1064    0.0000 O   0  0  0  0  0  0  0  0  0  0  0  0
   -2.2938   -1.8929    0.0000 O   0  0  0  0  0  0  0  0  0  0  0  0
   -0.5995    2.3054    0.0000 C   0  0  0  0  0  0  0  0  0  0  0  0
   -1.5794   -1.4804    0.0000 O   0  0  0  0  0  0  0  0  0  0  0  0
   -0.7789    0.5519    0.0000 H   0  0  0  0  0  0  0  0  0  0  0  0
   -0.1240    0.3163    0.0000 H   0  0  0  0  0  0  0  0  0  0  0  0
   -0.6399   -1.2716    0.0000 H   0  0  0  0  0  0  0  0  0  0  0  0
    2.2987   -1.2717    0.0000 H   0  0  0  0  0  0  0  0  0  0  0  0
    0.2893   -3.1150    0.0000 H   0  0  0  0  0  0  0  0  0  0  0  0
   -0.7942   -2.8922    0.0000 H   0  0  0  0  0  0  0  0  0  0  0  0
    1.6919    0.3977    0.0000 H   0  0  0  0  0  0  0  0  0  0  0  0
    2.9797   -1.1268    0.0000 H   0  0  0  0  0  0  0  0  0  0  0  0
    1.6820    3.6227    0.0000 H   0  0  0  0  0  0  0  0  0  0  0  0
   -0.0232    3.6226    0.0000 H   0  0  0  0  0  0  0  0  0  0  0  0
    1.3321   -2.9925    0.0000 H   0  0  0  0  0  0  0  0  0  0  0  0
   -2.2938   -0.9229    0.0000 H   0  0  0  0  0  0  0  0  0  0  0  0
   -0.5994    3.3754    0.0000 H   0  0  0  0  0  0  0  0  0  0  0  0
   -1.5262    1.7705    0.0000 H   0  0  0  0  0  0  0  0  0  0  0  0
   -1.5261    2.8405    0.0000 H   0  0  0  0  0  0  0  0  0  0  0  0
   -0.7394   -0.9954    0.0000 H   0  0  0  0  0  0  0  0  0  0  0  0
  1  2  2  0  0  0  0
  1 23  1  0  0  0  0
  2  6  1  0  0  0  0
  2 21  1  0  0  0  0
  3  1  1  0  0  0  0
  3  4  1  0  0  0  0
  4 11  2  0  0  0  0
  4  5  1  0  0  0  0
  5  6  2  0  0  0  0
  6 18  1  0  0  0  0
  7  3  1  0  0  0  0
  7  8  1  0  0  0  0
  7 16  1  0  0  0  0
  7 24  1  6  0  0  0
  8  9  1  0  0  0  0
  9 15  1  0  0  0  0
  9 10  1  0  0  0  0
  9 25  1  6  0  0  0
 10 19  1  0  0  0  0
 10 26  1  1  0  0  0
 13 12  2  0  0  0  0
 13 14  1  0  0  0  0
 13 22  1  0  0  0  0
 15 14  1  0  0  0  0
 15 27  1  0  0  0  0
 15 28  1  0  0  0  0
 16 10  1  0  0  0  0
 16 17  1  0  0  0  0
 16 29  1  1  0  0  0
 17 30  1  0  0  0  0
 18 31  1  0  0  0  0
 18 32  1  0  0  0  0
 19 33  1  0  0  0  0
 20 13  1  0  0  0  0
 20 34  1  0  0  0  0
 21 35  1  0  0  0  0
 21 36  1  0  0  0  0
 21 37  1  0  0  0  0
 22 38  1  0  0  0  0
M  END
>  <DRUGBANK_ID>
DB01995

>  <SECONDARY_ACCESSION_NUMBERS>
EXPT00251

>  <COMMON_NAME>
5-methylcytidine 5'-monophosphate

>  <CAS_NUMBER>
3590-36-1

>  <SYNONYMS>
5-methyl-CMP; 5-methylcytidine-5'-monophosphate; 5-methylcytidylic acid

$$$$
