
 OpenBabel10282417072D

 44 45  0  0  1  0  0  0  0  0999 V2000
    1.0688   -0.4081    0.0000 C   0  0  3  0  0  0  0  0  0  0  0  0
    1.0639    0.4178    0.0000 C   0  0  3  0  0  0  0  0  0  0  0  0
    0.3596   -0.8259    0.0000 C   0  0  0  0  0  0  0  0  0  0  0  0
    0.3498    0.8258    0.0000 C   0  0  0  0  0  0  0  0  0  0  0  0
   -0.3546   -0.4130    0.0000 C   0  0  0  0  0  0  0  0  0  0  0  0
    0.3450    1.6518    0.0000 N   0  0  0  0  0  0  0  0  0  0  0  0
    1.0592   -1.2341    0.0000 O   0  0  0  0  0  0  0  0  0  0  0  0
   -1.0688   -0.8259    0.0000 C   0  0  0  0  0  0  0  0  0  0  0  0
    1.7879   -0.8210    0.0000 C   0  0  0  0  0  0  0  0  0  0  0  0
    0.3596   -1.6568    0.0000 C   0  0  0  0  0  0  0  0  0  0  0  0
    1.7830    0.8307    0.0000 C   0  0  0  0  0  0  0  0  0  0  0  0
   -1.7830   -0.4130    0.0000 O   0  0  0  0  0  0  0  0  0  0  0  0
   -0.3546   -2.0697    0.0000 C   0  0  0  0  0  0  0  0  0  0  0  0
   -1.0688   -1.6568    0.0000 C   0  0  0  0  0  0  0  0  0  0  0  0
   -0.3691    2.0648    0.0000 C   0  0  0  0  0  0  0  0  0  0  0  0
    1.0592    2.0697    0.0000 C   0  0  0  0  0  0  0  0  0  0  0  0
   -2.4972   -0.8259    0.0000 C   0  0  0  0  0  0  0  0  0  0  0  0
    2.4972   -0.4081    0.0000 C   0  0  0  0  0  0  0  0  0  0  0  0
    2.4972    0.4178    0.0000 C   0  0  0  0  0  0  0  0  0  0  0  0
    0.1401   -0.1220    0.0000 H   0  0  0  0  0  0  0  0  0  0  0  0
   -0.5741    0.2860    0.0000 H   0  0  0  0  0  0  0  0  0  0  0  0
   -0.5798    1.3557    0.0000 H   0  0  0  0  0  0  0  0  0  0  0  0
   -0.3546    0.6190    0.0000 H   0  0  0  0  0  0  0  0  0  0  0  0
    0.2136   -1.7093    0.0000 H   0  0  0  0  0  0  0  0  0  0  0  0
    1.7911   -1.8910    0.0000 H   0  0  0  0  0  0  0  0  0  0  0  0
    2.7163   -1.3530    0.0000 H   0  0  0  0  0  0  0  0  0  0  0  0
    1.2535   -2.1725    0.0000 H   0  0  0  0  0  0  0  0  0  0  0  0
    1.7846    1.9007    0.0000 H   0  0  0  0  0  0  0  0  0  0  0  0
    2.7102    1.3647    0.0000 H   0  0  0  0  0  0  0  0  0  0  0  0
   -0.3546   -3.1017    0.0000 H   0  0  0  0  0  0  0  0  0  0  0  0
   -1.9627   -2.1725    0.0000 H   0  0  0  0  0  0  0  0  0  0  0  0
   -0.3683    3.1348    0.0000 H   0  0  0  0  0  0  0  0  0  0  0  0
   -1.2961    1.5305    0.0000 H   0  0  0  0  0  0  0  0  0  0  0  0
   -1.2953    2.6005    0.0000 H   0  0  0  0  0  0  0  0  0  0  0  0
    1.9889    1.5401    0.0000 H   0  0  0  0  0  0  0  0  0  0  0  0
    1.0530    3.1397    0.0000 H   0  0  0  0  0  0  0  0  0  0  0  0
    1.9827    2.6101    0.0000 H   0  0  0  0  0  0  0  0  0  0  0  0
   -3.4242   -0.2914    0.0000 H   0  0  0  0  0  0  0  0  0  0  0  0
   -2.4966   -1.8959    0.0000 H   0  0  0  0  0  0  0  0  0  0  0  0
   -3.4235   -1.3614    0.0000 H   0  0  0  0  0  0  0  0  0  0  0  0
    3.4248   -0.9414    0.0000 H   0  0  0  0  0  0  0  0  0  0  0  0
    3.4234    0.1277    0.0000 H   0  0  0  0  0  0  0  0  0  0  0  0
    3.4240    0.9525    0.0000 H   0  0  0  0  0  0  0  0  0  0  0  0
    2.4977    1.4878    0.0000 H   0  0  0  0  0  0  0  0  0  0  0  0
  1  7  1  0  0  0  0
  2  1  1  0  0  0  0
  2  4  1  0  0  0  0
  2 20  1  0  0  0  0
  3  1  1  0  0  0  0
  4 21  1  0  0  0  0
  4 22  1  0  0  0  0
  5  3  2  0  0  0  0
  5 23  1  0  0  0  0
  6  4  1  0  0  0  0
  7 24  1  0  0  0  0
  8  5  1  0  0  0  0
  9  1  1  0  0  0  0
  9 25  1  0  0  0  0
  9 26  1  0  0  0  0
 10  3  1  0  0  0  0
 10 27  1  0  0  0  0
 11  2  1  0  0  0  0
 11 19  1  0  0  0  0
 11 28  1  0  0  0  0
 11 29  1  0  0  0  0
 12  8  1  0  0  0  0
 13 10  2  0  0  0  0
 13 14  1  0  0  0  0
 13 30  1  0  0  0  0
 14  8  2  0  0  0  0
 14 31  1  0  0  0  0
 15  6  1  0  0  0  0
 15 32  1  0  0  0  0
 15 33  1  0  0  0  0
 15 34  1  0  0  0  0
 16  6  1  0  0  0  0
 16 35  1  0  0  0  0
 16 36  1  0  0  0  0
 16 37  1  0  0  0  0
 17 12  1  0  0  0  0
 17 38  1  0  0  0  0
 17 39  1  0  0  0  0
 17 40  1  0  0  0  0
 18  9  1  0  0  0  0
 18 41  1  0  0  0  0
 18 42  1  0  0  0  0
 19 18  1  0  0  0  0
 19 43  1  0  0  0  0
 19 44  1  0  0  0  0
M  END
>  <DRUGBANK_ID>
DB00193

>  <SECONDARY_ACCESSION_NUMBERS>
APRD00028

>  <COMMON_NAME>
Tramadol

>  <CAS_NUMBER>
27203-92-5

>  <UNII>
39J1LGJ30J

>  <SYNONYMS>
Tramadol; Tramadolum

$$$$
