FL8
 OpenBabel10282417072D

 32 34  0  0  0  0  0  0  0  0999 V2000
   -1.7062   -2.5920    0.0000 Br  0  0  0  0  0  0  0  0  0  0  0  0
   -3.1351   -0.1170    0.0000 Br  0  0  0  0  0  0  0  0  0  0  0  0
    0.4372   -0.5295    0.0000 O   0  0  0  0  0  0  0  0  0  0  0  0
   -0.2773   -0.1170    0.0000 C   0  0  0  0  0  0  0  0  0  0  0  0
   -0.2773    0.7080    0.0000 C   0  0  0  0  0  0  0  0  0  0  0  0
    0.4372    1.1205    0.0000 C   0  0  0  0  0  0  0  0  0  0  0  0
    1.1517    0.7080    0.0000 C   0  0  0  0  0  0  0  0  0  0  0  0
    1.8662    1.1205    0.0000 C   0  0  0  0  0  0  0  0  0  0  0  0
    2.5806    0.7080    0.0000 C   0  0  0  0  0  0  0  0  0  0  0  0
    2.5806   -0.1170    0.0000 C   0  0  0  0  0  0  0  0  0  0  0  0
    1.8662   -0.5295    0.0000 C   0  0  0  0  0  0  0  0  0  0  0  0
    1.1517   -0.1170    0.0000 C   0  0  0  0  0  0  0  0  0  0  0  0
   -0.9917   -0.5295    0.0000 C   0  0  0  0  0  0  0  0  0  0  0  0
   -0.9917   -1.3545    0.0000 C   0  0  0  0  0  0  0  0  0  0  0  0
   -1.7062   -1.7670    0.0000 C   0  0  0  0  0  0  0  0  0  0  0  0
   -2.4207   -1.3545    0.0000 C   0  0  0  0  0  0  0  0  0  0  0  0
   -2.4207   -0.5295    0.0000 C   0  0  0  0  0  0  0  0  0  0  0  0
   -1.7062   -0.1170    0.0000 C   0  0  0  0  0  0  0  0  0  0  0  0
   -3.1351   -1.7670    0.0000 O   0  0  0  0  0  0  0  0  0  0  0  0
   -0.9917    1.1205    0.0000 C   0  0  0  0  0  0  0  0  0  0  0  0
    0.4372    1.9455    0.0000 O   0  0  0  0  0  0  0  0  0  0  0  0
    3.2951    1.1205    0.0000 O   0  0  0  0  0  0  0  0  0  0  0  0
    1.8662    2.1525    0.0000 H   0  0  0  0  0  0  0  0  0  0  0  0
    3.4743   -0.6330    0.0000 H   0  0  0  0  0  0  0  0  0  0  0  0
    1.8662   -1.5615    0.0000 H   0  0  0  0  0  0  0  0  0  0  0  0
   -0.0980   -1.8705    0.0000 H   0  0  0  0  0  0  0  0  0  0  0  0
   -1.7062    0.9150    0.0000 H   0  0  0  0  0  0  0  0  0  0  0  0
   -3.9466   -1.2985    0.0000 H   0  0  0  0  0  0  0  0  0  0  0  0
   -0.9917    2.1905    0.0000 H   0  0  0  0  0  0  0  0  0  0  0  0
   -1.9184    0.5855    0.0000 H   0  0  0  0  0  0  0  0  0  0  0  0
   -1.9183    1.6555    0.0000 H   0  0  0  0  0  0  0  0  0  0  0  0
    4.1066    0.6520    0.0000 H   0  0  0  0  0  0  0  0  0  0  0  0
  1 15  1  0  0  0  0
  2 17  1  0  0  0  0
  3  4  1  0  0  0  0
  3 12  1  0  0  0  0
  4  5  2  0  0  0  0
  4 13  1  0  0  0  0
  5  6  1  0  0  0  0
  5 20  1  0  0  0  0
  6  7  1  0  0  0  0
  6 21  2  0  0  0  0
  7  8  2  0  0  0  0
  7 12  1  0  0  0  0
  8  9  1  0  0  0  0
  8 23  1  0  0  0  0
  9 10  2  0  0  0  0
  9 22  1  0  0  0  0
 10 11  1  0  0  0  0
 10 24  1  0  0  0  0
 11 12  2  0  0  0  0
 11 25  1  0  0  0  0
 13 14  2  0  0  0  0
 13 18  1  0  0  0  0
 14 15  1  0  0  0  0
 14 26  1  0  0  0  0
 15 16  2  0  0  0  0
 16 17  1  0  0  0  0
 16 19  1  0  0  0  0
 17 18  2  0  0  0  0
 18 27  1  0  0  0  0
 19 28  1  0  0  0  0
 20 29  1  0  0  0  0
 20 30  1  0  0  0  0
 20 31  1  0  0  0  0
 22 32  1  0  0  0  0
M  END
>  <DRUGBANK_ID>
DB01838

>  <SECONDARY_ACCESSION_NUMBERS>
EXPT01439

>  <COMMON_NAME>
6,4'-Dihydroxy-3-Methyl-3',5'-Dibromoflavone

>  <UNII>
41L058NWH3

$$$$
