
 OpenBabel10282417072D

 72 71  0  0  1  0  0  0  0  0999 V2000
    2.5855    4.0954    0.0000 C   0  0  0  0  0  0  0  0  0  0  0  0
    8.3013    3.2704    0.0000 C   0  0  0  0  0  0  0  0  0  0  0  0
    8.3013   -5.8046    0.0000 C   0  0  0  0  0  0  0  0  0  0  0  0
    7.1743   -6.1066    0.0000 C   0  0  0  0  0  0  0  0  0  0  0  0
    7.9993   -4.6776    0.0000 C   0  0  0  0  0  0  0  0  0  0  0  0
    2.5855    3.2704    0.0000 C   0  0  0  0  0  0  0  0  0  0  0  0
    7.5868    2.8579    0.0000 C   0  0  0  0  0  0  0  0  0  0  0  0
    3.3000    2.8579    0.0000 C   0  0  0  0  0  0  0  0  0  0  0  0
    7.5868    2.0329    0.0000 C   0  0  0  0  0  0  0  0  0  0  0  0
    3.3000    2.0329    0.0000 C   0  0  0  0  0  0  0  0  0  0  0  0
    6.8724    1.6204    0.0000 C   0  0  0  0  0  0  0  0  0  0  0  0
    4.0145    1.6204    0.0000 C   0  0  0  0  0  0  0  0  0  0  0  0
    6.8724    0.7954    0.0000 C   0  0  0  0  0  0  0  0  0  0  0  0
    5.4434   -1.6796    0.0000 C   0  0  0  0  0  0  0  0  0  0  0  0
    6.8724   -4.9796    0.0000 C   0  0  0  0  0  0  0  0  0  0  0  0
    6.8724   -4.1546    0.0000 C   0  0  0  0  0  0  0  0  0  0  0  0
    6.1579   -2.0921    0.0000 C   0  0  0  0  0  0  0  0  0  0  0  0
    4.7289   -0.4421    0.0000 C   0  0  0  0  0  0  0  0  0  0  0  0
    5.4434   -0.8546    0.0000 C   0  0  1  0  0  0  0  0  0  0  0  0
    4.0145    0.7954    0.0000 C   0  0  0  0  0  0  0  0  0  0  0  0
    6.1579    0.3829    0.0000 C   0  0  0  0  0  0  0  0  0  0  0  0
    7.5868   -5.3921    0.0000 N   0  3  0  0  0  0  0  0  0  0  0  0
    3.3000    0.3829    0.0000 O   0  0  0  0  0  0  0  0  0  0  0  0
    5.4434    0.7954    0.0000 O   0  0  0  0  0  0  0  0  0  0  0  0
    5.3329   -2.9171    0.0000 O   0  0  0  0  0  0  0  0  0  0  0  0
    6.9829   -2.9171    0.0000 O   0  5  0  0  0  0  0  0  0  0  0  0
    4.7289    0.3829    0.0000 O   0  0  0  0  0  0  0  0  0  0  0  0
    6.1579   -3.7421    0.0000 O   0  0  0  0  0  0  0  0  0  0  0  0
    6.1579   -0.4421    0.0000 O   0  0  0  0  0  0  0  0  0  0  0  0
    6.1579   -2.9171    0.0000 P   0  0  3  0  0  0  0  0  0  0  0  0
    4.7289   -1.2671    0.0000 H   0  0  0  0  0  0  0  0  0  0  0  0
    3.5121    4.6304    0.0000 H   0  0  0  0  0  0  0  0  0  0  0  0
    1.6589    4.6304    0.0000 H   0  0  0  0  0  0  0  0  0  0  0  0
    2.5855    5.1654    0.0000 H   0  0  0  0  0  0  0  0  0  0  0  0
    9.2279    2.7354    0.0000 H   0  0  0  0  0  0  0  0  0  0  0  0
    8.3013    4.3404    0.0000 H   0  0  0  0  0  0  0  0  0  0  0  0
    9.2280    3.8054    0.0000 H   0  0  0  0  0  0  0  0  0  0  0  0
    8.3013   -6.8746    0.0000 H   0  0  0  0  0  0  0  0  0  0  0  0
    9.2279   -5.2696    0.0000 H   0  0  0  0  0  0  0  0  0  0  0  0
    9.2280   -6.3396    0.0000 H   0  0  0  0  0  0  0  0  0  0  0  0
    6.1043   -6.1066    0.0000 H   0  0  0  0  0  0  0  0  0  0  0  0
    7.7093   -7.0332    0.0000 H   0  0  0  0  0  0  0  0  0  0  0  0
    6.6393   -7.0333    0.0000 H   0  0  0  0  0  0  0  0  0  0  0  0
    9.0693   -4.6776    0.0000 H   0  0  0  0  0  0  0  0  0  0  0  0
    7.4643   -3.7510    0.0000 H   0  0  0  0  0  0  0  0  0  0  0  0
    8.5343   -3.7509    0.0000 H   0  0  0  0  0  0  0  0  0  0  0  0
    1.6589    2.7354    0.0000 H   0  0  0  0  0  0  0  0  0  0  0  0
    2.5855    2.2004    0.0000 H   0  0  0  0  0  0  0  0  0  0  0  0
    6.6602    3.3929    0.0000 H   0  0  0  0  0  0  0  0  0  0  0  0
    6.6602    2.3229    0.0000 H   0  0  0  0  0  0  0  0  0  0  0  0
    4.2266    3.3929    0.0000 H   0  0  0  0  0  0  0  0  0  0  0  0
    4.2266    2.3229    0.0000 H   0  0  0  0  0  0  0  0  0  0  0  0
    8.5135    1.4979    0.0000 H   0  0  0  0  0  0  0  0  0  0  0  0
    7.5868    0.9629    0.0000 H   0  0  0  0  0  0  0  0  0  0  0  0
    2.3734    1.4979    0.0000 H   0  0  0  0  0  0  0  0  0  0  0  0
    3.3000    0.9629    0.0000 H   0  0  0  0  0  0  0  0  0  0  0  0
    5.9457    2.1554    0.0000 H   0  0  0  0  0  0  0  0  0  0  0  0
    5.9458    1.0854    0.0000 H   0  0  0  0  0  0  0  0  0  0  0  0
    4.9411    2.1554    0.0000 H   0  0  0  0  0  0  0  0  0  0  0  0
    4.9411    1.0854    0.0000 H   0  0  0  0  0  0  0  0  0  0  0  0
    7.7990    0.2604    0.0000 H   0  0  0  0  0  0  0  0  0  0  0  0
    6.8724   -0.2746    0.0000 H   0  0  0  0  0  0  0  0  0  0  0  0
    4.5168   -2.2146    0.0000 H   0  0  0  0  0  0  0  0  0  0  0  0
    4.5168   -1.1446    0.0000 H   0  0  0  0  0  0  0  0  0  0  0  0
    5.9457   -5.5146    0.0000 H   0  0  0  0  0  0  0  0  0  0  0  0
    6.8724   -6.0496    0.0000 H   0  0  0  0  0  0  0  0  0  0  0  0
    7.7990   -3.6196    0.0000 H   0  0  0  0  0  0  0  0  0  0  0  0
    6.8724   -3.0846    0.0000 H   0  0  0  0  0  0  0  0  0  0  0  0
    7.0845   -1.5571    0.0000 H   0  0  0  0  0  0  0  0  0  0  0  0
    7.0845   -2.6271    0.0000 H   0  0  0  0  0  0  0  0  0  0  0  0
    3.8023   -0.9771    0.0000 H   0  0  0  0  0  0  0  0  0  0  0  0
    3.8023    0.0929    0.0000 H   0  0  0  0  0  0  0  0  0  0  0  0
  1 32  1  0  0  0  0
  1 33  1  0  0  0  0
  1 34  1  0  0  0  0
  2 35  1  0  0  0  0
  2 36  1  0  0  0  0
  2 37  1  0  0  0  0
  3 38  1  0  0  0  0
  3 39  1  0  0  0  0
  3 40  1  0  0  0  0
  4 41  1  0  0  0  0
  4 42  1  0  0  0  0
  4 43  1  0  0  0  0
  5 44  1  0  0  0  0
  5 45  1  0  0  0  0
  5 46  1  0  0  0  0
  6  1  1  0  0  0  0
  6 47  1  0  0  0  0
  6 48  1  0  0  0  0
  7  2  1  0  0  0  0
  7 49  1  0  0  0  0
  7 50  1  0  0  0  0
  8  6  1  0  0  0  0
  8 51  1  0  0  0  0
  8 52  1  0  0  0  0
  9  7  1  0  0  0  0
  9 53  1  0  0  0  0
  9 54  1  0  0  0  0
 10  8  1  0  0  0  0
 10 55  1  0  0  0  0
 10 56  1  0  0  0  0
 11  9  1  0  0  0  0
 11 57  1  0  0  0  0
 11 58  1  0  0  0  0
 12 10  1  0  0  0  0
 12 59  1  0  0  0  0
 12 60  1  0  0  0  0
 13 11  1  0  0  0  0
 13 61  1  0  0  0  0
 13 62  1  0  0  0  0
 14 63  1  0  0  0  0
 14 64  1  0  0  0  0
 15 65  1  0  0  0  0
 15 66  1  0  0  0  0
 16 15  1  0  0  0  0
 16 67  1  0  0  0  0
 16 68  1  0  0  0  0
 17 14  1  0  0  0  0
 17 69  1  0  0  0  0
 17 70  1  0  0  0  0
 18 71  1  0  0  0  0
 18 72  1  0  0  0  0
 19 14  1  0  0  0  0
 19 18  1  0  0  0  0
 19 29  1  0  0  0  0
 19 31  1  6  0  0  0
 20 12  1  0  0  0  0
 21 13  1  0  0  0  0
 22  3  1  0  0  0  0
 22  4  1  0  0  0  0
 22  5  1  0  0  0  0
 22 15  1  0  0  0  0
 23 20  2  0  0  0  0
 24 21  2  0  0  0  0
 27 18  1  0  0  0  0
 27 20  1  0  0  0  0
 28 16  1  0  0  0  0
 29 21  1  0  0  0  0
 30 17  1  0  0  0  0
 30 25  2  0  0  0  0
 30 26  1  0  0  0  0
 30 28  1  0  0  0  0
M  CHG  2  22   1  26  -1
M  END
>  <DRUGBANK_ID>
DB03827

>  <SECONDARY_ACCESSION_NUMBERS>
EXPT00186

>  <COMMON_NAME>
(3s)-3,4-Di-N-Hexanoyloxybutyl-1-Phosphocholine

$$$$
