881
 OpenBabel10282417072D

 62 64  0  0  1  0  0  0  0  0999 V2000
    3.0790    1.5221    0.0000 O   0  0  0  0  0  0  0  0  0  0  0  0
    3.7934    3.5846    0.0000 O   0  0  0  0  0  0  0  0  0  0  0  0
    3.0790    2.3471    0.0000 O   0  0  0  0  0  0  0  0  0  0  0  0
    2.3645   -2.1904    0.0000 O   0  0  0  0  0  0  0  0  0  0  0  0
    1.6500   -0.9529    0.0000 O   0  0  0  0  0  0  0  0  0  0  0  0
    4.5079    1.5221    0.0000 N   0  0  0  0  0  0  0  0  0  0  0  0
    3.0790   -0.1279    0.0000 N   0  0  0  0  0  0  0  0  0  0  0  0
    4.5079    2.3471    0.0000 C   0  0  1  0  0  0  0  0  0  0  0  0
    5.2223    2.7596    0.0000 C   0  0  0  0  0  0  0  0  0  0  0  0
    5.2223    1.1096    0.0000 C   0  0  0  0  0  0  0  0  0  0  0  0
    5.9369    2.3471    0.0000 C   0  0  0  0  0  0  0  0  0  0  0  0
    5.9369    1.5221    0.0000 C   0  0  0  0  0  0  0  0  0  0  0  0
    3.7934    0.2846    0.0000 C   0  0  2  0  0  0  0  0  0  0  0  0
    3.7934    1.1096    0.0000 C   0  0  0  0  0  0  0  0  0  0  0  0
    3.0790   -0.9529    0.0000 C   0  0  1  0  0  0  0  0  0  0  0  0
    3.7934    2.7596    0.0000 C   0  0  0  0  0  0  0  0  0  0  0  0
    3.7934   -1.3654    0.0000 C   0  0  0  0  0  0  0  0  0  0  0  0
    6.6743    2.7883    0.0000 C   0  0  0  0  0  0  0  0  0  0  0  0
    6.6743    1.0810    0.0000 C   0  0  0  0  0  0  0  0  0  0  0  0
    4.5079   -0.1279    0.0000 C   0  0  0  0  0  0  0  0  0  0  0  0
    3.7934   -2.1904    0.0000 C   0  0  0  0  0  0  0  0  0  0  0  0
    7.4219    2.3643    0.0000 C   0  0  0  0  0  0  0  0  0  0  0  0
    7.4219    1.5050    0.0000 C   0  0  0  0  0  0  0  0  0  0  0  0
    2.3645   -1.3654    0.0000 C   0  0  0  0  0  0  0  0  0  0  0  0
    4.5079   -2.6029    0.0000 C   0  0  0  0  0  0  0  0  0  0  0  0
    5.2223   -2.1904    0.0000 C   0  0  0  0  0  0  0  0  0  0  0  0
    4.5079   -3.4279    0.0000 C   0  0  0  0  0  0  0  0  0  0  0  0
    1.6500   -2.6029    0.0000 C   0  0  0  0  0  0  0  0  0  0  0  0
    5.9369   -2.6029    0.0000 C   0  0  0  0  0  0  0  0  0  0  0  0
    5.2223   -3.8404    0.0000 C   0  0  0  0  0  0  0  0  0  0  0  0
    5.9369   -3.4279    0.0000 C   0  0  0  0  0  0  0  0  0  0  0  0
    1.6500   -3.4279    0.0000 C   0  0  0  0  0  0  0  0  0  0  0  0
    4.6049    4.0531    0.0000 H   0  0  0  0  0  0  0  0  0  0  0  0
    2.1956    0.3821    0.0000 H   0  0  0  0  0  0  0  0  0  0  0  0
    3.5813    1.8121    0.0000 H   0  0  0  0  0  0  0  0  0  0  0  0
    5.2222    3.8296    0.0000 H   0  0  0  0  0  0  0  0  0  0  0  0
    6.1489    3.2947    0.0000 H   0  0  0  0  0  0  0  0  0  0  0  0
    5.2222    0.0396    0.0000 H   0  0  0  0  0  0  0  0  0  0  0  0
    6.1489    0.5745    0.0000 H   0  0  0  0  0  0  0  0  0  0  0  0
    2.8667    0.8196    0.0000 H   0  0  0  0  0  0  0  0  0  0  0  0
    4.0057   -0.4179    0.0000 H   0  0  0  0  0  0  0  0  0  0  0  0
    4.7201   -0.8304    0.0000 H   0  0  0  0  0  0  0  0  0  0  0  0
    4.7200   -1.9004    0.0000 H   0  0  0  0  0  0  0  0  0  0  0  0
    6.6623    3.8202    0.0000 H   0  0  0  0  0  0  0  0  0  0  0  0
    6.6623    0.0491    0.0000 H   0  0  0  0  0  0  0  0  0  0  0  0
    4.5079   -1.1979    0.0000 H   0  0  0  0  0  0  0  0  0  0  0  0
    5.4345    0.4071    0.0000 H   0  0  0  0  0  0  0  0  0  0  0  0
    5.4346   -0.6629    0.0000 H   0  0  0  0  0  0  0  0  0  0  0  0
    2.8668   -2.7254    0.0000 H   0  0  0  0  0  0  0  0  0  0  0  0
    3.7934   -3.2604    0.0000 H   0  0  0  0  0  0  0  0  0  0  0  0
    8.3136    2.8837    0.0000 H   0  0  0  0  0  0  0  0  0  0  0  0
    8.3136    0.9856    0.0000 H   0  0  0  0  0  0  0  0  0  0  0  0
    5.2222   -1.1584    0.0000 H   0  0  0  0  0  0  0  0  0  0  0  0
    3.6142   -3.9439    0.0000 H   0  0  0  0  0  0  0  0  0  0  0  0
    0.7234   -2.0679    0.0000 H   0  0  0  0  0  0  0  0  0  0  0  0
    0.7234   -3.1379    0.0000 H   0  0  0  0  0  0  0  0  0  0  0  0
    6.8306   -2.0869    0.0000 H   0  0  0  0  0  0  0  0  0  0  0  0
    5.2222   -4.8724    0.0000 H   0  0  0  0  0  0  0  0  0  0  0  0
    6.8306   -3.9439    0.0000 H   0  0  0  0  0  0  0  0  0  0  0  0
    0.7234   -3.9629    0.0000 H   0  0  0  0  0  0  0  0  0  0  0  0
    2.5766   -3.9629    0.0000 H   0  0  0  0  0  0  0  0  0  0  0  0
    1.6500   -4.4979    0.0000 H   0  0  0  0  0  0  0  0  0  0  0  0
  1 14  2  0  0  0  0
  2 16  1  0  0  0  0
  2 33  1  0  0  0  0
  3 16  2  0  0  0  0
  4 24  1  0  0  0  0
  4 28  1  0  0  0  0
  5 24  2  0  0  0  0
  6  8  1  0  0  0  0
  6 10  1  0  0  0  0
  6 14  1  0  0  0  0
  7 34  1  0  0  0  0
  8  9  1  0  0  0  0
  8 16  1  0  0  0  0
  8 35  1  1  0  0  0
  9 11  1  0  0  0  0
  9 36  1  0  0  0  0
  9 37  1  0  0  0  0
 10 12  1  0  0  0  0
 10 38  1  0  0  0  0
 10 39  1  0  0  0  0
 11 12  1  0  0  0  0
 11 18  2  0  0  0  0
 12 19  2  0  0  0  0
 13  7  1  0  0  0  0
 13 14  1  0  0  0  0
 13 20  1  0  0  0  0
 13 40  1  1  0  0  0
 15  7  1  0  0  0  0
 15 17  1  0  0  0  0
 15 24  1  0  0  0  0
 15 41  1  6  0  0  0
 17 21  1  0  0  0  0
 17 42  1  0  0  0  0
 17 43  1  0  0  0  0
 18 22  1  0  0  0  0
 18 44  1  0  0  0  0
 19 23  1  0  0  0  0
 19 45  1  0  0  0  0
 20 46  1  0  0  0  0
 20 47  1  0  0  0  0
 20 48  1  0  0  0  0
 21 25  1  0  0  0  0
 21 49  1  0  0  0  0
 21 50  1  0  0  0  0
 22 23  2  0  0  0  0
 22 51  1  0  0  0  0
 23 52  1  0  0  0  0
 25 26  2  0  0  0  0
 25 27  1  0  0  0  0
 26 29  1  0  0  0  0
 26 53  1  0  0  0  0
 27 30  2  0  0  0  0
 27 54  1  0  0  0  0
 28 32  1  0  0  0  0
 28 55  1  0  0  0  0
 28 56  1  0  0  0  0
 29 31  2  0  0  0  0
 29 57  1  0  0  0  0
 30 31  1  0  0  0  0
 30 58  1  0  0  0  0
 31 59  1  0  0  0  0
 32 60  1  0  0  0  0
 32 61  1  0  0  0  0
 32 62  1  0  0  0  0
M  END
>  <DRUGBANK_ID>
DB00881

>  <SECONDARY_ACCESSION_NUMBERS>
APRD00523

>  <COMMON_NAME>
Quinapril

>  <CAS_NUMBER>
85441-61-8

>  <UNII>
RJ84Y44811

>  <SYNONYMS>
Quinapril; Quinaprilum

$$$$
