
 OpenBabel10282417072D

 51 54  0  0  1  0  0  0  0  0999 V2000
    8.6275    0.3477    0.0000 Br  0  0  0  0  0  0  0  0  0  0  0  0
    2.0917   -1.7578    0.0000 O   0  0  0  0  0  0  0  0  0  0  0  0
    7.5775    1.7956    0.0000 O   0  0  0  0  0  0  0  0  0  0  0  0
    5.1119   -0.0648    0.0000 C   0  0  2  0  0  0  0  0  0  0  0  0
    4.3612   -0.4829    0.0000 C   0  0  2  0  0  0  0  0  0  0  0  0
    5.8262   -0.4772    0.0000 C   0  0  2  0  0  0  0  0  0  0  0  0
    6.5406   -0.0648    0.0000 C   0  0  1  0  0  0  0  0  0  0  0  0
    4.3545   -1.3421    0.0000 C   0  0  1  0  0  0  0  0  0  0  0  0
    6.5406    0.7602    0.0000 C   0  0  2  0  0  0  0  0  0  0  0  0
    5.1119    0.7602    0.0000 C   0  0  0  0  0  0  0  0  0  0  0  0
    5.8395   -1.3363    0.0000 C   0  0  0  0  0  0  0  0  0  0  0  0
    5.8262    1.1727    0.0000 C   0  0  0  0  0  0  0  0  0  0  0  0
    5.0987   -1.7718    0.0000 C   0  0  0  0  0  0  0  0  0  0  0  0
    3.5966   -0.0176    0.0000 C   0  0  0  0  0  0  0  0  0  0  0  0
    7.3211   -0.3162    0.0000 C   0  0  0  0  0  0  0  0  0  0  0  0
    3.5829   -1.7956    0.0000 C   0  0  0  0  0  0  0  0  0  0  0  0
    4.3676    0.3421    0.0000 C   0  0  0  0  0  0  0  0  0  0  0  0
    7.3211    1.0115    0.0000 C   0  0  0  0  0  0  0  0  0  0  0  0
    7.8026    0.3477    0.0000 C   0  0  2  0  0  0  0  0  0  0  0  0
    2.8147   -0.4531    0.0000 C   0  0  0  0  0  0  0  0  0  0  0  0
    2.8078   -1.3480    0.0000 C   0  0  2  0  0  0  0  0  0  0  0  0
    6.5406    1.5851    0.0000 C   0  0  0  0  0  0  0  0  0  0  0  0
    5.6833    0.2652    0.0000 H   0  0  0  0  0  0  0  0  0  0  0  0
    6.4003   -0.8028    0.0000 H   0  0  0  0  0  0  0  0  0  0  0  0
    6.6105   -0.7210    0.0000 H   0  0  0  0  0  0  0  0  0  0  0  0
    4.3571   -2.0021    0.0000 H   0  0  0  0  0  0  0  0  0  0  0  0
    1.2535   -1.2696    0.0000 H   0  0  0  0  0  0  0  0  0  0  0  0
    4.1852    1.2952    0.0000 H   0  0  0  0  0  0  0  0  0  0  0  0
    5.1118    1.8302    0.0000 H   0  0  0  0  0  0  0  0  0  0  0  0
    6.7723   -1.8604    0.0000 H   0  0  0  0  0  0  0  0  0  0  0  0
    5.8499   -2.4062    0.0000 H   0  0  0  0  0  0  0  0  0  0  0  0
    5.8262    2.2427    0.0000 H   0  0  0  0  0  0  0  0  0  0  0  0
    4.8995    1.7076    0.0000 H   0  0  0  0  0  0  0  0  0  0  0  0
    5.1029   -2.8418    0.0000 H   0  0  0  0  0  0  0  0  0  0  0  0
    6.0285   -2.3013    0.0000 H   0  0  0  0  0  0  0  0  0  0  0  0
    3.6172    1.0522    0.0000 H   0  0  0  0  0  0  0  0  0  0  0  0
    2.6794    0.5334    0.0000 H   0  0  0  0  0  0  0  0  0  0  0  0
    7.6535   -1.3333    0.0000 H   0  0  0  0  0  0  0  0  0  0  0  0
    8.3781   -0.4822    0.0000 H   0  0  0  0  0  0  0  0  0  0  0  0
    3.5870   -2.8656    0.0000 H   0  0  0  0  0  0  0  0  0  0  0  0
    2.6573   -2.3323    0.0000 H   0  0  0  0  0  0  0  0  0  0  0  0
    5.2984    0.8699    0.0000 H   0  0  0  0  0  0  0  0  0  0  0  0
    3.4451    0.8843    0.0000 H   0  0  0  0  0  0  0  0  0  0  0  0
    4.3759    1.4121    0.0000 H   0  0  0  0  0  0  0  0  0  0  0  0
    8.2888   -0.6055    0.0000 H   0  0  0  0  0  0  0  0  0  0  0  0
    1.8943    0.0926    0.0000 H   0  0  0  0  0  0  0  0  0  0  0  0
    1.8829   -0.9791    0.0000 H   0  0  0  0  0  0  0  0  0  0  0  0
    2.8057   -2.4180    0.0000 H   0  0  0  0  0  0  0  0  0  0  0  0
    7.4672    2.1201    0.0000 H   0  0  0  0  0  0  0  0  0  0  0  0
    5.6140    2.1201    0.0000 H   0  0  0  0  0  0  0  0  0  0  0  0
    6.5406    2.6551    0.0000 H   0  0  0  0  0  0  0  0  0  0  0  0
  2 27  1  0  0  0  0
  3 18  2  0  0  0  0
  4  5  1  0  0  0  0
  4  6  1  0  0  0  0
  4 10  1  0  0  0  0
  4 23  1  6  0  0  0
  5  8  1  0  0  0  0
  5 14  1  0  0  0  0
  5 17  1  1  0  0  0
  6  7  1  0  0  0  0
  6 11  1  0  0  0  0
  6 24  1  1  0  0  0
  7  9  1  0  0  0  0
  7 15  1  0  0  0  0
  7 25  1  6  0  0  0
  8 13  1  0  0  0  0
  8 16  1  0  0  0  0
  8 26  1  6  0  0  0
  9 12  1  0  0  0  0
  9 18  1  0  0  0  0
  9 22  1  1  0  0  0
 10 12  1  0  0  0  0
 10 28  1  0  0  0  0
 10 29  1  0  0  0  0
 11 13  1  0  0  0  0
 11 30  1  0  0  0  0
 11 31  1  0  0  0  0
 12 32  1  0  0  0  0
 12 33  1  0  0  0  0
 13 34  1  0  0  0  0
 13 35  1  0  0  0  0
 14 20  1  0  0  0  0
 14 36  1  0  0  0  0
 14 37  1  0  0  0  0
 15 19  1  0  0  0  0
 15 38  1  0  0  0  0
 15 39  1  0  0  0  0
 16 21  1  0  0  0  0
 16 40  1  0  0  0  0
 16 41  1  0  0  0  0
 17 42  1  0  0  0  0
 17 43  1  0  0  0  0
 17 44  1  0  0  0  0
 18 19  1  0  0  0  0
 19  1  1  0  0  0  0
 19 45  1  1  0  0  0
 20 21  1  0  0  0  0
 20 46  1  0  0  0  0
 20 47  1  0  0  0  0
 21  2  1  0  0  0  0
 21 48  1  6  0  0  0
 22 49  1  0  0  0  0
 22 50  1  0  0  0  0
 22 51  1  0  0  0  0
M  END
>  <DRUGBANK_ID>
DB05107

>  <COMMON_NAME>
16-Bromoepiandrosterone

>  <CAS_NUMBER>
28507-02-0

>  <UNII>
9735KA370S

>  <SYNONYMS>
16alpha-bromoepiandrosterone

$$$$
