
 OpenBabel10282417072D

 39 42  0  0  0  0  0  0  0  0999 V2000
   -1.4587    0.4124    0.0000 C   0  0  0  0  0  0  0  0  0  0  0  0
   -1.4587   -0.4107    0.0000 C   0  0  0  0  0  0  0  0  0  0  0  0
   -0.7442    0.8247    0.0000 C   0  0  0  0  0  0  0  0  0  0  0  0
   -2.1734    0.8247    0.0000 C   0  0  0  0  0  0  0  0  0  0  0  0
   -0.7442   -0.8230    0.0000 C   0  0  0  0  0  0  0  0  0  0  0  0
   -2.1734   -0.8230    0.0000 C   0  0  0  0  0  0  0  0  0  0  0  0
   -0.0296    0.4124    0.0000 C   0  0  0  0  0  0  0  0  0  0  0  0
   -0.7442    1.6510    0.0000 C   0  0  0  0  0  0  0  0  0  0  0  0
   -2.1734    1.6510    0.0000 N   0  0  0  0  0  0  0  0  0  0  0  0
   -2.8880    0.4124    0.0000 O   0  0  0  0  0  0  0  0  0  0  0  0
   -0.0296   -0.4107    0.0000 C   0  0  0  0  0  0  0  0  0  0  0  0
   -0.7442   -1.6493    0.0000 C   0  0  0  0  0  0  0  0  0  0  0  0
   -2.1734   -1.6493    0.0000 C   0  0  0  0  0  0  0  0  0  0  0  0
    0.7539    0.6670    0.0000 N   0  0  0  0  0  0  0  0  0  0  0  0
   -1.4587    2.0617    0.0000 C   0  0  0  0  0  0  0  0  0  0  0  0
    0.7539   -0.6653    0.0000 N   0  0  0  0  0  0  0  0  0  0  0  0
   -1.4587   -2.0617    0.0000 C   0  0  0  0  0  0  0  0  0  0  0  0
   -2.8880   -2.0617    0.0000 F   0  0  0  0  0  0  0  0  0  0  0  0
    1.2386    0.0000    0.0000 C   0  0  0  0  0  0  0  0  0  0  0  0
    2.0633    0.0000    0.0000 C   0  0  0  0  0  0  0  0  0  0  0  0
    2.4755   -0.7129    0.0000 C   0  0  0  0  0  0  0  0  0  0  0  0
    2.4755    0.7146    0.0000 C   0  0  0  0  0  0  0  0  0  0  0  0
    2.8880    0.0000    0.0000 C   0  0  0  0  0  0  0  0  0  0  0  0
   -3.0670   -0.3068    0.0000 H   0  0  0  0  0  0  0  0  0  0  0  0
    0.1490    2.1679    0.0000 H   0  0  0  0  0  0  0  0  0  0  0  0
   -3.0255    2.1441    0.0000 H   0  0  0  0  0  0  0  0  0  0  0  0
    0.1495   -2.1654    0.0000 H   0  0  0  0  0  0  0  0  0  0  0  0
   -1.4586    3.0937    0.0000 H   0  0  0  0  0  0  0  0  0  0  0  0
    1.0575   -1.6018    0.0000 H   0  0  0  0  0  0  0  0  0  0  0  0
   -1.4586   -3.0937    0.0000 H   0  0  0  0  0  0  0  0  0  0  0  0
    1.9411   -1.6399    0.0000 H   0  0  0  0  0  0  0  0  0  0  0  0
    3.5455   -0.7122    0.0000 H   0  0  0  0  0  0  0  0  0  0  0  0
    3.0111   -1.6392    0.0000 H   0  0  0  0  0  0  0  0  0  0  0  0
    3.5455    0.7150    0.0000 H   0  0  0  0  0  0  0  0  0  0  0  0
    1.9401    1.6410    0.0000 H   0  0  0  0  0  0  0  0  0  0  0  0
    3.0101    1.6415    0.0000 H   0  0  0  0  0  0  0  0  0  0  0  0
    3.4230   -0.9266    0.0000 H   0  0  0  0  0  0  0  0  0  0  0  0
    3.4230    0.9266    0.0000 H   0  0  0  0  0  0  0  0  0  0  0  0
    3.9580    0.0000    0.0000 H   0  0  0  0  0  0  0  0  0  0  0  0
  1  2  2  0  0  0  0
  1  3  1  0  0  0  0
  1  4  1  0  0  0  0
  2  5  1  0  0  0  0
  2  6  1  0  0  0  0
  3  7  2  0  0  0  0
  3  8  1  0  0  0  0
  4  9  1  0  0  0  0
  4 10  2  0  0  0  0
  5 11  2  0  0  0  0
  5 12  1  0  0  0  0
  6 13  2  0  0  0  0
  6 24  1  0  0  0  0
  7 11  1  0  0  0  0
  7 14  1  0  0  0  0
  8 15  2  0  0  0  0
  8 25  1  0  0  0  0
  9 15  1  0  0  0  0
  9 26  1  0  0  0  0
 11 16  1  0  0  0  0
 12 17  2  0  0  0  0
 12 27  1  0  0  0  0
 13 17  1  0  0  0  0
 13 18  1  0  0  0  0
 14 19  2  0  0  0  0
 15 28  1  0  0  0  0
 16 19  1  0  0  0  0
 16 29  1  0  0  0  0
 17 30  1  0  0  0  0
 19 20  1  0  0  0  0
 20 21  1  0  0  0  0
 20 22  1  0  0  0  0
 20 23  1  0  0  0  0
 21 31  1  0  0  0  0
 21 32  1  0  0  0  0
 21 33  1  0  0  0  0
 22 34  1  0  0  0  0
 22 35  1  0  0  0  0
 22 36  1  0  0  0  0
 23 37  1  0  0  0  0
 23 38  1  0  0  0  0
 23 39  1  0  0  0  0
M  END
>  <DRUGBANK_ID>
DB04716

>  <COMMON_NAME>
2-tert-butyl-9-fluoro-1,6-dihydrobenzo[h]imidazo[4,5-f]isoquinolin-7-one

>  <CAS_NUMBER>
457081-03-7

>  <UNII>
LDX3F0CCST

>  <SYNONYMS>
CMP 6; Pyridone 6

$$$$
