
 OpenBabel10282417072D

 24 24  0  0  0  0  0  0  0  0999 V2000
   -1.4289   -0.8250    0.0000 C   0  0  0  0  0  0  0  0  0  0  0  0
    0.7144   -1.2375    0.0000 C   0  0  0  0  0  0  0  0  0  0  0  0
    1.4289   -0.8250    0.0000 C   0  0  0  0  0  0  0  0  0  0  0  0
    0.0000   -0.8250    0.0000 C   0  0  0  0  0  0  0  0  0  0  0  0
   -1.4289    0.0000    0.0000 C   0  0  0  0  0  0  0  0  0  0  0  0
    1.4289    0.0000    0.0000 C   0  0  0  0  0  0  0  0  0  0  0  0
    0.0000    0.0000    0.0000 C   0  0  1  0  0  0  0  0  0  0  0  0
    0.7144    0.4125    0.0000 C   0  0  1  0  0  0  0  0  0  0  0  0
   -2.1434    0.4125    0.0000 C   0  0  0  0  0  0  0  0  0  0  0  0
    2.1434    0.4125    0.0000 C   0  0  0  0  0  0  0  0  0  0  0  0
    0.7144    1.2375    0.0000 O   0  0  0  0  0  0  0  0  0  0  0  0
   -2.8578    0.0000    0.0000 O   0  0  0  0  0  0  0  0  0  0  0  0
   -2.1434    1.2375    0.0000 O   0  5  0  0  0  0  0  0  0  0  0  0
    2.1434    1.2375    0.0000 O   0  5  0  0  0  0  0  0  0  0  0  0
    2.8578    0.0000    0.0000 O   0  0  0  0  0  0  0  0  0  0  0  0
   -0.7144    0.4125    0.0000 O   0  0  0  0  0  0  0  0  0  0  0  0
    0.0000    0.8250    0.0000 H   0  0  0  0  0  0  0  0  0  0  0  0
    1.4289    0.8250    0.0000 H   0  0  0  0  0  0  0  0  0  0  0  0
   -2.3226   -1.3410    0.0000 H   0  0  0  0  0  0  0  0  0  0  0  0
   -0.5352   -1.3410    0.0000 H   0  0  0  0  0  0  0  0  0  0  0  0
    0.7144   -2.2695    0.0000 H   0  0  0  0  0  0  0  0  0  0  0  0
    2.3226   -1.3410    0.0000 H   0  0  0  0  0  0  0  0  0  0  0  0
   -0.8937   -1.3410    0.0000 H   0  0  0  0  0  0  0  0  0  0  0  0
    1.5544    1.7225    0.0000 H   0  0  0  0  0  0  0  0  0  0  0  0
  1 19  1  0  0  0  0
  1 20  1  0  0  0  0
  2 21  1  0  0  0  0
  3  2  1  0  0  0  0
  3 22  1  0  0  0  0
  4  2  2  0  0  0  0
  4 23  1  0  0  0  0
  5  1  2  0  0  0  0
  6  3  2  0  0  0  0
  7  4  1  0  0  0  0
  7 16  1  0  0  0  0
  7 17  1  1  0  0  0
  8  6  1  0  0  0  0
  8  7  1  0  0  0  0
  8 11  1  0  0  0  0
  8 18  1  6  0  0  0
  9  5  1  0  0  0  0
 10  6  1  0  0  0  0
 11 24  1  0  0  0  0
 12  9  2  0  0  0  0
 13  9  1  0  0  0  0
 14 10  1  0  0  0  0
 15 10  2  0  0  0  0
 16  5  1  0  0  0  0
M  CHG  2  13  -1  14  -1
M  END
>  <DRUGBANK_ID>
DB02793

>  <SECONDARY_ACCESSION_NUMBERS>
EXPT01933

>  <COMMON_NAME>
Isochorismic Acid

>  <CAS_NUMBER>
22642-82-6

$$$$
