
 OpenBabel10282417072D

 24 25  0  0  0  0  0  0  0  0999 V2000
   -0.3560   -0.2067    0.0000 S   0  0  0  0  0  0  0  0  0  0  0  0
    0.3580    0.2066    0.0000 S   0  0  0  0  0  0  0  0  0  0  0  0
   -1.0699    0.2066    0.0000 C   0  0  0  0  0  0  0  0  0  0  0  0
    1.0720   -0.2067    0.0000 C   0  0  0  0  0  0  0  0  0  0  0  0
   -1.0699    1.0309    0.0000 N   0  3  0  0  0  0  0  0  0  0  0  0
   -1.7839   -0.2067    0.0000 C   0  0  0  0  0  0  0  0  0  0  0  0
    1.0720   -1.0311    0.0000 N   0  3  0  0  0  0  0  0  0  0  0  0
    1.7839    0.2066    0.0000 C   0  0  0  0  0  0  0  0  0  0  0  0
   -0.3560    1.4422    0.0000 O   0  5  0  0  0  0  0  0  0  0  0  0
   -1.7839    1.4422    0.0000 C   0  0  0  0  0  0  0  0  0  0  0  0
   -2.4999    0.2066    0.0000 C   0  0  0  0  0  0  0  0  0  0  0  0
    0.3580   -1.4423    0.0000 O   0  5  0  0  0  0  0  0  0  0  0  0
    1.7839   -1.4423    0.0000 C   0  0  0  0  0  0  0  0  0  0  0  0
    2.4999   -0.2067    0.0000 C   0  0  0  0  0  0  0  0  0  0  0  0
   -2.4999    1.0309    0.0000 C   0  0  0  0  0  0  0  0  0  0  0  0
    2.4999   -1.0311    0.0000 C   0  0  0  0  0  0  0  0  0  0  0  0
   -1.7833   -1.2387    0.0000 H   0  0  0  0  0  0  0  0  0  0  0  0
    1.7826    1.2386    0.0000 H   0  0  0  0  0  0  0  0  0  0  0  0
   -1.7833    2.4742    0.0000 H   0  0  0  0  0  0  0  0  0  0  0  0
   -3.3936   -0.3094    0.0000 H   0  0  0  0  0  0  0  0  0  0  0  0
    1.7826   -2.4743    0.0000 H   0  0  0  0  0  0  0  0  0  0  0  0
    3.3936    0.3093    0.0000 H   0  0  0  0  0  0  0  0  0  0  0  0
   -3.3931    1.5479    0.0000 H   0  0  0  0  0  0  0  0  0  0  0  0
    3.3930   -1.5481    0.0000 H   0  0  0  0  0  0  0  0  0  0  0  0
  1  2  1  0  0  0  0
  1  3  1  0  0  0  0
  2  4  1  0  0  0  0
  3  5  1  0  0  0  0
  3  6  2  0  0  0  0
  4  7  1  0  0  0  0
  4  8  2  0  0  0  0
  5  9  1  0  0  0  0
  5 10  2  0  0  0  0
  6 11  1  0  0  0  0
  6 17  1  0  0  0  0
  7 12  1  0  0  0  0
  7 13  2  0  0  0  0
  8 14  1  0  0  0  0
  8 18  1  0  0  0  0
 10 15  1  0  0  0  0
 10 19  1  0  0  0  0
 11 15  2  0  0  0  0
 11 20  1  0  0  0  0
 13 16  1  0  0  0  0
 13 21  1  0  0  0  0
 14 16  2  0  0  0  0
 14 22  1  0  0  0  0
 15 23  1  0  0  0  0
 16 24  1  0  0  0  0
M  CHG  4   5   1   7   1   9  -1  12  -1
M  END
>  <DRUGBANK_ID>
DB11327

>  <COMMON_NAME>
Dipyrithione

>  <CAS_NUMBER>
3696-28-4

>  <UNII>
9L87N86R9A

>  <SYNONYMS>
Bispyrithione; Dipiritiona; Dipyrithione; Dipyrithionum; Omadine disulfide; OMDS; Pyrithione disulfide; Pyrithione disulphide

$$$$
