DC8
 OpenBabel10282417072D

 39 42  0  0  0  0  0  0  0  0999 V2000
   -1.2219    0.1607    0.0000 C   0  0  0  0  0  0  0  0  0  0  0  0
    0.0373   -0.5148    0.0000 C   0  0  1  0  0  0  0  0  0  0  0  0
    0.4273    0.2122    0.0000 C   0  0  1  0  0  0  0  0  0  0  0  0
    1.2285    0.4089    0.0000 C   0  0  0  0  0  0  0  0  0  0  0  0
   -0.0073    0.9135    0.0000 C   0  0  2  0  0  0  0  0  0  0  0  0
   -0.8319    0.8877    0.0000 C   0  0  0  0  0  0  0  0  0  0  0  0
    0.0819   -1.9430    0.0000 C   0  0  0  0  0  0  0  0  0  0  0  0
    0.5165   -2.6443    0.0000 C   0  0  0  0  0  0  0  0  0  0  0  0
    1.3411   -2.6185    0.0000 C   0  0  0  0  0  0  0  0  0  0  0  0
    1.7311   -1.8915    0.0000 C   0  0  0  0  0  0  0  0  0  0  0  0
   -2.0911    1.5632    0.0000 C   0  0  0  0  0  0  0  0  0  0  0  0
   -2.4811    0.8362    0.0000 C   0  0  0  0  0  0  0  0  0  0  0  0
   -2.0465    0.1349    0.0000 C   0  0  0  0  0  0  0  0  0  0  0  0
   -0.7873   -0.5405    0.0000 O   0  0  0  0  0  0  0  0  0  0  0  0
    1.2891    1.2317    0.0000 C   0  0  0  0  0  0  0  0  0  0  0  0
    1.6866    1.9545    0.0000 F   0  0  0  0  0  0  0  0  0  0  0  0
    2.1133    1.2660    0.0000 F   0  0  0  0  0  0  0  0  0  0  0  0
    0.5253    1.5435    0.0000 C   0  0  0  0  0  0  0  0  0  0  0  0
   -1.2665    1.5890    0.0000 C   0  0  0  0  0  0  0  0  0  0  0  0
    0.4719   -1.2160    0.0000 C   0  0  0  0  0  0  0  0  0  0  0  0
    1.7757   -3.3197    0.0000 O   0  0  0  0  0  0  0  0  0  0  0  0
    1.2965   -1.1902    0.0000 C   0  0  0  0  0  0  0  0  0  0  0  0
   -2.5258    2.2644    0.0000 O   0  0  0  0  0  0  0  0  0  0  0  0
   -0.2387   -1.0293    0.0000 H   0  0  0  0  0  0  0  0  0  0  0  0
    0.7851   -0.2492    0.0000 H   0  0  0  0  0  0  0  0  0  0  0  0
   -0.2614    1.4392    0.0000 H   0  0  0  0  0  0  0  0  0  0  0  0
    2.0456   -0.2819    0.0000 H   0  0  0  0  0  0  0  0  0  0  0  0
    2.2150    0.8234    0.0000 H   0  0  0  0  0  0  0  0  0  0  0  0
   -0.9496   -1.9752    0.0000 H   0  0  0  0  0  0  0  0  0  0  0  0
    0.0287   -3.5537    0.0000 H   0  0  0  0  0  0  0  0  0  0  0  0
    2.7626   -1.8593    0.0000 H   0  0  0  0  0  0  0  0  0  0  0  0
   -3.5126    0.8040    0.0000 H   0  0  0  0  0  0  0  0  0  0  0  0
   -2.5343   -0.7745    0.0000 H   0  0  0  0  0  0  0  0  0  0  0  0
    0.2702    2.5827    0.0000 H   0  0  0  0  0  0  0  0  0  0  0  0
    1.3354    2.2426    0.0000 H   0  0  0  0  0  0  0  0  0  0  0  0
   -0.7787    2.4984    0.0000 H   0  0  0  0  0  0  0  0  0  0  0  0
    1.3328   -4.1454    0.0000 H   0  0  0  0  0  0  0  0  0  0  0  0
    1.7843   -0.2808    0.0000 H   0  0  0  0  0  0  0  0  0  0  0  0
   -2.0830    3.0902    0.0000 H   0  0  0  0  0  0  0  0  0  0  0  0
  1 13  1  0  0  0  0
  1 14  1  0  0  0  0
  1  6  2  0  0  0  0
  2 14  1  0  0  0  0
  2 20  1  0  0  0  0
  2  3  1  0  0  0  0
  2 24  1  1  0  0  0
  3  5  1  0  0  0  0
  3  4  1  0  0  0  0
  3 25  1  1  0  0  0
  4 15  1  0  0  0  0
  4 27  1  0  0  0  0
  4 28  1  0  0  0  0
  5  6  1  0  0  0  0
  5 18  1  0  0  0  0
  5 26  1  1  0  0  0
  6 19  1  0  0  0  0
  7 20  2  0  0  0  0
  7  8  1  0  0  0  0
  7 29  1  0  0  0  0
  8  9  2  0  0  0  0
  8 30  1  0  0  0  0
  9 10  1  0  0  0  0
  9 21  1  0  0  0  0
 10 22  2  0  0  0  0
 10 31  1  0  0  0  0
 11 12  1  0  0  0  0
 11 23  1  0  0  0  0
 11 19  2  0  0  0  0
 12 13  2  0  0  0  0
 12 32  1  0  0  0  0
 13 33  1  0  0  0  0
 15 18  1  0  0  0  0
 15 17  1  0  0  0  0
 15 16  1  0  0  0  0
 18 34  1  0  0  0  0
 18 35  1  0  0  0  0
 19 36  1  0  0  0  0
 20 22  1  0  0  0  0
 21 37  1  0  0  0  0
 22 38  1  0  0  0  0
 23 39  1  0  0  0  0
M  END
>  <DRUGBANK_ID>
DB07638

>  <COMMON_NAME>
(3AS,4R,9BR)-2,2-DIFLUORO-4-(4-HYDROXYPHENYL)-1,2,3,3A,4,9B-HEXAHYDROCYCLOPENTA[C]CHROMEN-8-OL

$$$$
