
 OpenBabel10282417072D

 57 57  0  0  1  0  0  0  0  0999 V2000
    0.7145   -0.4125    0.0000 C   0  0  0  0  0  0  0  0  0  0  0  0
    0.0000    0.0000    0.0000 C   0  0  0  0  0  0  0  0  0  0  0  0
    0.0000    0.8250    0.0000 C   0  0  0  0  0  0  0  0  0  0  0  0
    0.7145    1.2375    0.0000 C   0  0  0  0  0  0  0  0  0  0  0  0
    1.4289    0.8250    0.0000 C   0  0  0  0  0  0  0  0  0  0  0  0
    1.4289    0.0000    0.0000 C   0  0  0  0  0  0  0  0  0  0  0  0
    2.1434   -0.4125    0.0000 N   0  0  0  0  0  0  0  0  0  0  0  0
    2.8579    0.0000    0.0000 C   0  0  0  0  0  0  0  0  0  0  0  0
    2.8579    0.8250    0.0000 O   0  0  0  0  0  0  0  0  0  0  0  0
    3.5724   -0.4125    0.0000 N   0  0  0  0  0  0  0  0  0  0  0  0
    4.2868    0.0000    0.0000 C   0  0  0  0  0  0  0  0  0  0  0  0
    5.0013   -0.4125    0.0000 C   0  0  0  0  0  0  0  0  0  0  0  0
    5.7158    0.0000    0.0000 C   0  0  0  0  0  0  0  0  0  0  0  0
    6.4302   -0.4125    0.0000 C   0  0  0  0  0  0  0  0  0  0  0  0
    7.1447    0.0000    0.0000 C   0  0  1  0  0  0  0  0  0  0  0  0
    7.1447    0.8250    0.0000 C   0  0  0  0  0  0  0  0  0  0  0  0
    7.8592    1.2375    0.0000 O   0  0  0  0  0  0  0  0  0  0  0  0
    6.4302    1.2375    0.0000 O   0  0  0  0  0  0  0  0  0  0  0  0
    7.8592   -0.4125    0.0000 N   0  0  0  0  0  0  0  0  0  0  0  0
    8.5737    0.0000    0.0000 C   0  0  0  0  0  0  0  0  0  0  0  0
    8.5737    0.8250    0.0000 O   0  0  0  0  0  0  0  0  0  0  0  0
    9.2881   -0.4125    0.0000 N   0  0  0  0  0  0  0  0  0  0  0  0
   10.0026    0.0000    0.0000 C   0  0  1  0  0  0  0  0  0  0  0  0
   10.7171   -0.4125    0.0000 C   0  0  0  0  0  0  0  0  0  0  0  0
   11.4315    0.0000    0.0000 C   0  0  0  0  0  0  0  0  0  0  0  0
   12.1460   -0.4125    0.0000 C   0  0  0  0  0  0  0  0  0  0  0  0
   12.8605    0.0000    0.0000 O   0  0  0  0  0  0  0  0  0  0  0  0
   12.1460   -1.2375    0.0000 O   0  0  0  0  0  0  0  0  0  0  0  0
   10.0026    0.8250    0.0000 C   0  0  0  0  0  0  0  0  0  0  0  0
   10.7171    1.2375    0.0000 O   0  0  0  0  0  0  0  0  0  0  0  0
    9.2881    1.2375    0.0000 O   0  0  0  0  0  0  0  0  0  0  0  0
   -0.7145    1.2375    0.0000 I   0  0  0  0  0  0  0  0  0  0  0  0
    0.7145   -1.4445    0.0000 H   0  0  0  0  0  0  0  0  0  0  0  0
   -0.8937   -0.5160    0.0000 H   0  0  0  0  0  0  0  0  0  0  0  0
    0.7145    2.2695    0.0000 H   0  0  0  0  0  0  0  0  0  0  0  0
    2.3226    1.3410    0.0000 H   0  0  0  0  0  0  0  0  0  0  0  0
    2.1434   -1.3970    0.0000 H   0  0  0  0  0  0  0  0  0  0  0  0
    3.5724   -1.3970    0.0000 H   0  0  0  0  0  0  0  0  0  0  0  0
    4.2868    1.0700    0.0000 H   0  0  0  0  0  0  0  0  0  0  0  0
    5.2134    0.5350    0.0000 H   0  0  0  0  0  0  0  0  0  0  0  0
    5.0013   -1.4825    0.0000 H   0  0  0  0  0  0  0  0  0  0  0  0
    5.9279   -0.9475    0.0000 H   0  0  0  0  0  0  0  0  0  0  0  0
    5.7158    1.0700    0.0000 H   0  0  0  0  0  0  0  0  0  0  0  0
    6.6425    0.5350    0.0000 H   0  0  0  0  0  0  0  0  0  0  0  0
    6.4302   -1.4825    0.0000 H   0  0  0  0  0  0  0  0  0  0  0  0
    7.3568   -0.9475    0.0000 H   0  0  0  0  0  0  0  0  0  0  0  0
    7.1447   -1.0700    0.0000 H   0  0  0  0  0  0  0  0  0  0  0  0
    6.4302    2.1745    0.0000 H   0  0  0  0  0  0  0  0  0  0  0  0
    7.8592   -1.3970    0.0000 H   0  0  0  0  0  0  0  0  0  0  0  0
    9.2881   -1.3970    0.0000 H   0  0  0  0  0  0  0  0  0  0  0  0
   10.0026   -1.0700    0.0000 H   0  0  0  0  0  0  0  0  0  0  0  0
   10.7171   -1.4825    0.0000 H   0  0  0  0  0  0  0  0  0  0  0  0
   11.6438   -0.9475    0.0000 H   0  0  0  0  0  0  0  0  0  0  0  0
   11.4315    1.0700    0.0000 H   0  0  0  0  0  0  0  0  0  0  0  0
   12.3581    0.5350    0.0000 H   0  0  0  0  0  0  0  0  0  0  0  0
   11.3345   -1.7060    0.0000 H   0  0  0  0  0  0  0  0  0  0  0  0
    9.2881    2.1745    0.0000 H   0  0  0  0  0  0  0  0  0  0  0  0
  1  2  2  0  0  0  0
  1  6  1  0  0  0  0
  1 33  1  0  0  0  0
  2  3  1  0  0  0  0
  2 34  1  0  0  0  0
  3  4  2  0  0  0  0
  3 32  1  0  0  0  0
  4  5  1  0  0  0  0
  4 35  1  0  0  0  0
  5  6  2  0  0  0  0
  5 36  1  0  0  0  0
  6  7  1  0  0  0  0
  7  8  1  0  0  0  0
  7 37  1  0  0  0  0
  8  9  2  0  0  0  0
  8 10  1  0  0  0  0
 10 11  1  0  0  0  0
 10 38  1  0  0  0  0
 11 12  1  0  0  0  0
 11 39  1  0  0  0  0
 11 40  1  0  0  0  0
 12 13  1  0  0  0  0
 12 41  1  0  0  0  0
 12 42  1  0  0  0  0
 13 14  1  0  0  0  0
 13 43  1  0  0  0  0
 13 44  1  0  0  0  0
 14 15  1  0  0  0  0
 14 45  1  0  0  0  0
 14 46  1  0  0  0  0
 15 16  1  0  0  0  0
 15 19  1  0  0  0  0
 15 47  1  6  0  0  0
 16 17  2  0  0  0  0
 16 18  1  0  0  0  0
 18 48  1  0  0  0  0
 19 20  1  0  0  0  0
 19 49  1  0  0  0  0
 20 21  2  0  0  0  0
 20 22  1  0  0  0  0
 22 50  1  0  0  0  0
 23 22  1  0  0  0  0
 23 24  1  0  0  0  0
 23 29  1  0  0  0  0
 23 51  1  1  0  0  0
 24 25  1  0  0  0  0
 24 52  1  0  0  0  0
 24 53  1  0  0  0  0
 25 26  1  0  0  0  0
 25 54  1  0  0  0  0
 25 55  1  0  0  0  0
 26 27  2  0  0  0  0
 26 28  1  0  0  0  0
 28 56  1  0  0  0  0
 29 30  2  0  0  0  0
 29 31  1  0  0  0  0
 31 57  1  0  0  0  0
M  ISO  1  32 123
M  END
>  <DRUGBANK_ID>
DB12994

>  <COMMON_NAME>
MIP-1095 I-123

>  <CAS_NUMBER>
949575-25-1

>  <UNII>
HD4940602J

$$$$
