
 OpenBabel10282417072D

 56 58  0  0  0  0  0  0  0  0999 V2000
   -4.2860    0.8285    0.0000 C   0  0  0  0  0  0  0  0  0  0  0  0
   -3.5719    0.4155    0.0000 N   0  0  0  0  0  0  0  0  0  0  0  0
   -2.8571    0.8274    0.0000 C   0  0  0  0  0  0  0  0  0  0  0  0
   -2.1430    0.4143    0.0000 N   0  0  0  0  0  0  0  0  0  0  0  0
   -1.4282    0.8261    0.0000 C   0  0  0  0  0  0  0  0  0  0  0  0
   -5.0008    0.4166    0.0000 C   0  0  0  0  0  0  0  0  0  0  0  0
   -5.7149    0.8297    0.0000 C   0  0  0  0  0  0  0  0  0  0  0  0
   -5.7142    1.6547    0.0000 C   0  0  0  0  0  0  0  0  0  0  0  0
   -4.9994    2.0666    0.0000 C   0  0  0  0  0  0  0  0  0  0  0  0
   -4.2853    1.6535    0.0000 C   0  0  0  0  0  0  0  0  0  0  0  0
   -6.4284    2.0678    0.0000 Cl  0  0  0  0  0  0  0  0  0  0  0  0
   -2.8564    1.6523    0.0000 N   0  0  0  0  0  0  0  0  0  0  0  0
   -1.4275    1.6511    0.0000 N   0  0  0  0  0  0  0  0  0  0  0  0
   -0.7141    0.4130    0.0000 N   0  0  0  0  0  0  0  0  0  0  0  0
    4.2860   -0.8285    0.0000 C   0  0  0  0  0  0  0  0  0  0  0  0
    3.5719   -0.4154    0.0000 N   0  0  0  0  0  0  0  0  0  0  0  0
    2.8571   -0.8273    0.0000 C   0  0  0  0  0  0  0  0  0  0  0  0
    2.1430   -0.4143    0.0000 N   0  0  0  0  0  0  0  0  0  0  0  0
    1.4282   -0.8261    0.0000 C   0  0  0  0  0  0  0  0  0  0  0  0
    5.0008   -0.4166    0.0000 C   0  0  0  0  0  0  0  0  0  0  0  0
    5.7150   -0.8297    0.0000 C   0  0  0  0  0  0  0  0  0  0  0  0
    5.7142   -1.6547    0.0000 C   0  0  0  0  0  0  0  0  0  0  0  0
    4.9994   -2.0666    0.0000 C   0  0  0  0  0  0  0  0  0  0  0  0
    4.2853   -1.6535    0.0000 C   0  0  0  0  0  0  0  0  0  0  0  0
    6.4284   -2.0678    0.0000 Cl  0  0  0  0  0  0  0  0  0  0  0  0
    2.8564   -1.6523    0.0000 N   0  0  0  0  0  0  0  0  0  0  0  0
    1.4275   -1.6511    0.0000 N   0  0  0  0  0  0  0  0  0  0  0  0
    0.7141   -0.4130    0.0000 N   0  0  0  0  0  0  0  0  0  0  0  0
   -0.0006   -0.8249    0.0000 C   0  0  0  0  0  0  0  0  0  0  0  0
   -0.7148   -0.4118    0.0000 C   0  0  0  0  0  0  0  0  0  0  0  0
    0.0007    0.8249    0.0000 C   0  0  0  0  0  0  0  0  0  0  0  0
    0.7148    0.4118    0.0000 C   0  0  0  0  0  0  0  0  0  0  0  0
   -3.5727   -0.5690    0.0000 H   0  0  0  0  0  0  0  0  0  0  0  0
   -2.1439   -0.5702    0.0000 H   0  0  0  0  0  0  0  0  0  0  0  0
   -5.0017   -0.6154    0.0000 H   0  0  0  0  0  0  0  0  0  0  0  0
   -6.6091    0.3145    0.0000 H   0  0  0  0  0  0  0  0  0  0  0  0
   -4.9985    3.0986    0.0000 H   0  0  0  0  0  0  0  0  0  0  0  0
   -3.3911    2.1687    0.0000 H   0  0  0  0  0  0  0  0  0  0  0  0
   -2.0034    2.1438    0.0000 H   0  0  0  0  0  0  0  0  0  0  0  0
   -0.5745    2.1426    0.0000 H   0  0  0  0  0  0  0  0  0  0  0  0
    3.5727    0.5691    0.0000 H   0  0  0  0  0  0  0  0  0  0  0  0
    2.1438    0.5702    0.0000 H   0  0  0  0  0  0  0  0  0  0  0  0
    5.0016    0.6154    0.0000 H   0  0  0  0  0  0  0  0  0  0  0  0
    6.6092   -0.3145    0.0000 H   0  0  0  0  0  0  0  0  0  0  0  0
    4.9985   -3.0986    0.0000 H   0  0  0  0  0  0  0  0  0  0  0  0
    3.3911   -2.1687    0.0000 H   0  0  0  0  0  0  0  0  0  0  0  0
    2.0034   -2.1438    0.0000 H   0  0  0  0  0  0  0  0  0  0  0  0
    0.5745   -2.1426    0.0000 H   0  0  0  0  0  0  0  0  0  0  0  0
   -0.0014   -1.8949    0.0000 H   0  0  0  0  0  0  0  0  0  0  0  0
   -0.9277   -1.3592    0.0000 H   0  0  0  0  0  0  0  0  0  0  0  0
   -1.6419   -0.9460    0.0000 H   0  0  0  0  0  0  0  0  0  0  0  0
   -1.6410    0.1240    0.0000 H   0  0  0  0  0  0  0  0  0  0  0  0
    0.0016    1.8949    0.0000 H   0  0  0  0  0  0  0  0  0  0  0  0
    0.9278    1.3591    0.0000 H   0  0  0  0  0  0  0  0  0  0  0  0
    1.6419    0.9460    0.0000 H   0  0  0  0  0  0  0  0  0  0  0  0
    0.7157    1.4818    0.0000 H   0  0  0  0  0  0  0  0  0  0  0  0
  1  6  2  0  0  0  0
  1  2  1  0  0  0  0
  2  3  1  0  0  0  0
  2 33  1  0  0  0  0
  3 12  2  0  0  0  0
  3  4  1  0  0  0  0
  4  5  1  0  0  0  0
  4 34  1  0  0  0  0
  5 13  2  0  0  0  0
  5 14  1  0  0  0  0
  6  7  1  0  0  0  0
  6 35  1  0  0  0  0
  7  8  2  0  0  0  0
  7 36  1  0  0  0  0
  8  9  1  0  0  0  0
  8 11  1  0  0  0  0
  9 10  2  0  0  0  0
  9 37  1  0  0  0  0
 10  1  1  0  0  0  0
 10 38  1  0  0  0  0
 12 39  1  0  0  0  0
 13 40  1  0  0  0  0
 14 31  1  0  0  0  0
 15 20  2  0  0  0  0
 15 16  1  0  0  0  0
 16 17  1  0  0  0  0
 16 41  1  0  0  0  0
 17 18  1  0  0  0  0
 17 26  2  0  0  0  0
 18 19  1  0  0  0  0
 18 42  1  0  0  0  0
 19 27  2  0  0  0  0
 19 28  1  0  0  0  0
 20 21  1  0  0  0  0
 20 43  1  0  0  0  0
 21 22  2  0  0  0  0
 21 44  1  0  0  0  0
 22 23  1  0  0  0  0
 22 25  1  0  0  0  0
 23 24  2  0  0  0  0
 23 45  1  0  0  0  0
 24 15  1  0  0  0  0
 24 46  1  0  0  0  0
 26 47  1  0  0  0  0
 27 48  1  0  0  0  0
 28 29  1  0  0  0  0
 28 32  1  0  0  0  0
 29 30  1  0  0  0  0
 29 49  1  0  0  0  0
 29 50  1  0  0  0  0
 30 14  1  0  0  0  0
 30 51  1  0  0  0  0
 30 52  1  0  0  0  0
 31 32  1  0  0  0  0
 31 53  1  0  0  0  0
 31 54  1  0  0  0  0
 32 55  1  0  0  0  0
 32 56  1  0  0  0  0
M  END
>  <DRUGBANK_ID>
DB13607

>  <COMMON_NAME>
Picloxydine

>  <CAS_NUMBER>
5636-92-0

>  <UNII>
4YC2PY3AEU

>  <SYNONYMS>
Picloxidina; Picloxydine; Picloxydinum

$$$$
