
 OpenBabel10282417072D

 63 68  0  0  0  0  0  0  0  0999 V2000
   -0.9316   -0.3519    0.0000 N   0  0  0  0  0  0  0  0  0  0  0  0
   -0.2277    0.0621    0.0000 N   0  0  0  0  0  0  0  0  0  0  0  0
   -0.2277    0.8902    0.0000 C   0  0  0  0  0  0  0  0  0  0  0  0
   -0.9316    1.3043    0.0000 C   0  0  0  0  0  0  0  0  0  0  0  0
   -1.6356    0.8902    0.0000 N   0  0  0  0  0  0  0  0  0  0  0  0
   -1.6356    0.0621    0.0000 C   0  0  1  0  0  0  0  0  0  0  0  0
    0.5175   -0.3519    0.0000 C   0  0  0  0  0  0  0  0  0  0  0  0
    1.2215    0.0621    0.0000 C   0  0  0  0  0  0  0  0  0  0  0  0
    1.2215    0.8902    0.0000 C   0  0  0  0  0  0  0  0  0  0  0  0
    0.5175    1.3043    0.0000 C   0  0  0  0  0  0  0  0  0  0  0  0
   -2.3395    1.3043    0.0000 C   0  0  0  0  0  0  0  0  0  0  0  0
   -3.0848    0.8902    0.0000 C   0  0  0  0  0  0  0  0  0  0  0  0
   -3.0848    0.0621    0.0000 O   0  0  0  0  0  0  0  0  0  0  0  0
   -2.3395   -0.3519    0.0000 C   0  0  0  0  0  0  0  0  0  0  0  0
   -0.9316    2.1324    0.0000 O   0  0  0  0  0  0  0  0  0  0  0  0
    1.9254    1.3043    0.0000 O   0  0  0  0  0  0  0  0  0  0  0  0
    0.5175    2.1324    0.0000 O   0  0  0  0  0  0  0  0  0  0  0  0
    1.2215    2.5465    0.0000 C   0  0  0  0  0  0  0  0  0  0  0  0
    1.9254    2.1324    0.0000 O   0  0  0  0  0  0  0  0  0  0  0  0
    2.6293    2.5465    0.0000 C   0  0  0  0  0  0  0  0  0  0  0  0
    3.3333    2.1324    0.0000 O   0  0  0  0  0  0  0  0  0  0  0  0
    4.0372    2.5465    0.0000 C   0  0  0  0  0  0  0  0  0  0  0  0
    2.6293    3.3747    0.0000 O   0  0  0  0  0  0  0  0  0  0  0  0
   -1.6356   -0.7660    0.0000 H   0  0  0  0  0  0  0  0  0  0  0  0
   -1.3457   -3.0434    0.0000 C   0  0  0  0  0  0  0  0  0  0  0  0
   -1.8426   -2.3809    0.0000 C   0  0  0  0  0  0  0  0  0  0  0  0
   -1.6769   -1.5527    0.0000 C   0  0  0  0  0  0  0  0  0  0  0  0
   -0.9316   -1.2215    0.0000 C   0  0  1  0  0  0  0  0  0  0  0  0
   -0.5175   -3.0434    0.0000 S   0  0  0  0  0  0  0  0  0  0  0  0
   -0.1863   -1.5941    0.0000 C   0  0  0  0  0  0  0  0  0  0  0  0
    0.0207   -2.4222    0.0000 C   0  0  0  0  0  0  0  0  0  0  0  0
   -2.2566   -0.9730    0.0000 C   0  0  0  0  0  0  0  0  0  0  0  0
   -3.0434   -1.2215    0.0000 C   0  0  0  0  0  0  0  0  0  0  0  0
   -3.2504   -2.0082    0.0000 C   0  0  0  0  0  0  0  0  0  0  0  0
   -2.6707   -2.5880    0.0000 C   0  0  0  0  0  0  0  0  0  0  0  0
    0.8074   -2.6707    0.0000 C   0  0  0  0  0  0  0  0  0  0  0  0
    1.4286   -2.0910    0.0000 C   0  0  0  0  0  0  0  0  0  0  0  0
    1.2215   -1.3043    0.0000 C   0  0  0  0  0  0  0  0  0  0  0  0
    0.4348   -1.0559    0.0000 C   0  0  0  0  0  0  0  0  0  0  0  0
   -2.8777   -3.3747    0.0000 F   0  0  0  0  0  0  0  0  0  0  0  0
   -4.0372   -2.2153    0.0000 F   0  0  0  0  0  0  0  0  0  0  0  0
    0.5301   -1.3838    0.0000 H   0  0  0  0  0  0  0  0  0  0  0  0
    2.1173   -0.4503    0.0000 H   0  0  0  0  0  0  0  0  0  0  0  0
   -2.3263    2.3742    0.0000 H   0  0  0  0  0  0  0  0  0  0  0  0
   -3.2584    1.8526    0.0000 H   0  0  0  0  0  0  0  0  0  0  0  0
   -4.0070    1.4328    0.0000 H   0  0  0  0  0  0  0  0  0  0  0  0
   -4.0136    0.3590    0.0000 H   0  0  0  0  0  0  0  0  0  0  0  0
   -2.3263   -1.4218    0.0000 H   0  0  0  0  0  0  0  0  0  0  0  0
   -1.4075   -0.8774    0.0000 H   0  0  0  0  0  0  0  0  0  0  0  0
    1.2215    3.6165    0.0000 H   0  0  0  0  0  0  0  0  0  0  0  0
    2.1503    3.0777    0.0000 H   0  0  0  0  0  0  0  0  0  0  0  0
    4.9682    2.0191    0.0000 H   0  0  0  0  0  0  0  0  0  0  0  0
    4.0285    3.6165    0.0000 H   0  0  0  0  0  0  0  0  0  0  0  0
    4.9594    3.0891    0.0000 H   0  0  0  0  0  0  0  0  0  0  0  0
   -1.8242   -4.0004    0.0000 H   0  0  0  0  0  0  0  0  0  0  0  0
   -2.4114   -3.1395    0.0000 H   0  0  0  0  0  0  0  0  0  0  0  0
   -1.8288   -0.6384    0.0000 H   0  0  0  0  0  0  0  0  0  0  0  0
   -2.0116    0.0295    0.0000 H   0  0  0  0  0  0  0  0  0  0  0  0
   -3.7907   -0.5097    0.0000 H   0  0  0  0  0  0  0  0  0  0  0  0
    1.0351   -3.6773    0.0000 H   0  0  0  0  0  0  0  0  0  0  0  0
    2.4200   -2.3775    0.0000 H   0  0  0  0  0  0  0  0  0  0  0  0
    1.9687   -0.5924    0.0000 H   0  0  0  0  0  0  0  0  0  0  0  0
    0.2256   -0.0453    0.0000 H   0  0  0  0  0  0  0  0  0  0  0  0
  1  2  1  0  0  0  0
  1  6  1  0  0  0  0
  2  3  1  0  0  0  0
  2  7  1  0  0  0  0
  3  4  1  0  0  0  0
  3 10  2  0  0  0  0
  4  5  1  0  0  0  0
  4 15  2  0  0  0  0
  5  6  1  0  0  0  0
  5 11  1  0  0  0  0
  6 14  1  0  0  0  0
  6 24  1  1  0  0  0
  7  8  2  0  0  0  0
  7 42  1  0  0  0  0
  8  9  1  0  0  0  0
  8 43  1  0  0  0  0
  9 10  1  0  0  0  0
  9 16  2  0  0  0  0
 10 17  1  0  0  0  0
 11 12  1  0  0  0  0
 11 44  1  0  0  0  0
 11 45  1  0  0  0  0
 12 13  1  0  0  0  0
 12 46  1  0  0  0  0
 12 47  1  0  0  0  0
 13 14  1  0  0  0  0
 14 48  1  0  0  0  0
 14 49  1  0  0  0  0
 17 18  1  0  0  0  0
 18 19  1  0  0  0  0
 18 50  1  0  0  0  0
 18 51  1  0  0  0  0
 19 20  1  0  0  0  0
 20 21  1  0  0  0  0
 20 23  2  0  0  0  0
 21 22  1  0  0  0  0
 22 52  1  0  0  0  0
 22 53  1  0  0  0  0
 22 54  1  0  0  0  0
 25 29  1  0  0  0  0
 25 26  1  0  0  0  0
 25 55  1  0  0  0  0
 25 56  1  0  0  0  0
 26 27  1  0  0  0  0
 26 35  2  0  0  0  0
 27 28  1  0  0  0  0
 27 32  2  0  0  0  0
 28 30  1  0  0  0  0
 28  1  1  0  0  0  0
 28 57  1  1  0  0  0
 29 31  1  0  0  0  0
 30 31  1  0  0  0  0
 30 39  2  0  0  0  0
 31 36  2  0  0  0  0
 32 33  1  0  0  0  0
 32 58  1  0  0  0  0
 33 34  2  0  0  0  0
 33 59  1  0  0  0  0
 34 35  1  0  0  0  0
 34 41  1  0  0  0  0
 35 40  1  0  0  0  0
 36 37  1  0  0  0  0
 36 60  1  0  0  0  0
 37 38  2  0  0  0  0
 37 61  1  0  0  0  0
 38 39  1  0  0  0  0
 38 62  1  0  0  0  0
 39 63  1  0  0  0  0
M  END
>  <DRUGBANK_ID>
DB13997

>  <COMMON_NAME>
Baloxavir marboxil

>  <CAS_NUMBER>
1985606-14-1

>  <UNII>
505CXM6OHG

>  <SYNONYMS>
Baloxavir marboxil

$$$$
