
 OpenBabel10282417072D

 32 34  0  0  0  0  0  0  0  0999 V2000
    0.2955    0.0552    0.0000 O   0  0  0  0  0  0  0  0  0  0  0  0
   -1.8870   -0.2802    0.0000 N   0  0  0  0  0  0  0  0  0  0  0  0
   -1.2196    0.8757    0.0000 N   0  0  0  0  0  0  0  0  0  0  0  0
    1.7245    0.8803    0.0000 C   0  0  0  0  0  0  0  0  0  0  0  0
    2.1371    1.5947    0.0000 C   0  0  0  0  0  0  0  0  0  0  0  0
    1.3120    1.5947    0.0000 C   0  0  0  0  0  0  0  0  0  0  0  0
    1.7245    0.0552    0.0000 C   0  0  0  0  0  0  0  0  0  0  0  0
    1.0101   -0.3572    0.0000 C   0  0  0  0  0  0  0  0  0  0  0  0
    2.4390   -0.3572    0.0000 C   0  0  0  0  0  0  0  0  0  0  0  0
    1.0101   -1.1822    0.0000 C   0  0  0  0  0  0  0  0  0  0  0  0
    2.4390   -1.1822    0.0000 C   0  0  0  0  0  0  0  0  0  0  0  0
   -0.4188   -0.3572    0.0000 C   0  0  0  0  0  0  0  0  0  0  0  0
    1.7245   -1.5947    0.0000 C   0  0  0  0  0  0  0  0  0  0  0  0
   -1.1333    0.0552    0.0000 C   0  0  0  0  0  0  0  0  0  0  0  0
   -2.4390    0.3327    0.0000 C   0  0  0  0  0  0  0  0  0  0  0  0
   -2.0265    1.0472    0.0000 C   0  0  0  0  0  0  0  0  0  0  0  0
   -1.9933   -0.7806    0.0000 H   0  0  0  0  0  0  0  0  0  0  0  0
    0.6910    0.6033    0.0000 H   0  0  0  0  0  0  0  0  0  0  0  0
    3.0638    2.1296    0.0000 H   0  0  0  0  0  0  0  0  0  0  0  0
    1.8602    2.6283    0.0000 H   0  0  0  0  0  0  0  0  0  0  0  0
    0.3853    2.1297    0.0000 H   0  0  0  0  0  0  0  0  0  0  0  0
    1.5889    2.6282    0.0000 H   0  0  0  0  0  0  0  0  0  0  0  0
    3.3327    0.1589    0.0000 H   0  0  0  0  0  0  0  0  0  0  0  0
    0.1164   -1.6982    0.0000 H   0  0  0  0  0  0  0  0  0  0  0  0
    3.3327   -1.6982    0.0000 H   0  0  0  0  0  0  0  0  0  0  0  0
   -0.4187   -1.4272    0.0000 H   0  0  0  0  0  0  0  0  0  0  0  0
   -1.3454   -0.8923    0.0000 H   0  0  0  0  0  0  0  0  0  0  0  0
    1.7245   -2.6267    0.0000 H   0  0  0  0  0  0  0  0  0  0  0  0
   -3.5031    0.2208    0.0000 H   0  0  0  0  0  0  0  0  0  0  0  0
   -3.0218    1.2301    0.0000 H   0  0  0  0  0  0  0  0  0  0  0  0
   -2.4617    2.0247    0.0000 H   0  0  0  0  0  0  0  0  0  0  0  0
   -3.0950    1.1032    0.0000 H   0  0  0  0  0  0  0  0  0  0  0  0
  1  8  1  0  0  0  0
  1 12  1  0  0  0  0
  2 14  1  0  0  0  0
  2 15  1  0  0  0  0
  2 17  1  0  0  0  0
  3 14  2  0  0  0  0
  3 16  1  0  0  0  0
  4  5  1  0  0  0  0
  4  6  1  0  0  0  0
  4  7  1  0  0  0  0
  4 18  1  0  0  0  0
  5  6  1  0  0  0  0
  5 19  1  0  0  0  0
  5 20  1  0  0  0  0
  6 21  1  0  0  0  0
  6 22  1  0  0  0  0
  7  8  1  0  0  0  0
  7  9  2  0  0  0  0
  8 10  2  0  0  0  0
  9 11  1  0  0  0  0
  9 23  1  0  0  0  0
 10 13  1  0  0  0  0
 10 24  1  0  0  0  0
 11 13  2  0  0  0  0
 11 25  1  0  0  0  0
 12 14  1  0  0  0  0
 12 26  1  0  0  0  0
 12 27  1  0  0  0  0
 13 28  1  0  0  0  0
 15 16  1  0  0  0  0
 15 29  1  0  0  0  0
 15 30  1  0  0  0  0
 16 31  1  0  0  0  0
 16 32  1  0  0  0  0
M  END
>  <DRUGBANK_ID>
DB09202

>  <COMMON_NAME>
Cirazoline

>  <CAS_NUMBER>
59939-16-1

>  <UNII>
QK318GVY3Y

>  <SYNONYMS>
Cirazoline

$$$$
