
 OpenBabel10282417072D

 50 51  0  0  0  0  0  0  0  0999 V2000
   -3.1649    0.2359    0.0000 C   0  0  0  0  0  0  0  0  0  0  0  0
   -2.4548    0.6559    0.0000 C   0  0  1  0  0  0  0  0  0  0  0  0
   -2.4548   -0.1281    0.0000 C   0  0  0  0  0  0  0  0  0  0  0  0
   -3.1649   -0.5987    0.0000 C   0  0  2  0  0  0  0  0  0  0  0  0
   -2.4548   -1.0045    0.0000 C   0  0  0  0  0  0  0  0  0  0  0  0
   -1.7350   -0.5987    0.0000 C   0  0  0  0  0  0  0  0  0  0  0  0
   -1.7350    0.2359    0.0000 C   0  0  0  0  0  0  0  0  0  0  0  0
   -1.0197    0.6466    0.0000 C   0  0  0  0  0  0  0  0  0  0  0  0
   -0.3054    0.2338    0.0000 C   0  0  0  0  0  0  0  0  0  0  0  0
    0.4099    0.6446    0.0000 O   0  0  0  0  0  0  0  0  0  0  0  0
    1.1195    0.2318    0.0000 C   0  0  0  0  0  0  0  0  0  0  0  0
    1.8348    0.6426    0.0000 C   0  0  0  0  0  0  0  0  0  0  0  0
    2.5491    0.2298    0.0000 N   0  0  0  0  0  0  0  0  0  0  0  0
    3.2645    0.6406    0.0000 C   0  0  0  0  0  0  0  0  0  0  0  0
    3.9787    0.2278    0.0000 C   0  0  0  0  0  0  0  0  0  0  0  0
    2.5491   -0.5939    0.0000 C   0  0  0  0  0  0  0  0  0  0  0  0
    3.2622   -1.0067    0.0000 C   0  0  0  0  0  0  0  0  0  0  0  0
   -3.4517    1.0067    0.0000 C   0  0  0  0  0  0  0  0  0  0  0  0
   -3.9787    0.0875    0.0000 C   0  0  0  0  0  0  0  0  0  0  0  0
   -2.9849   -0.2735    0.0000 H   0  0  0  0  0  0  0  0  0  0  0  0
   -1.5121   -0.6343    0.0000 H   0  0  0  0  0  0  0  0  0  0  0  0
   -2.4053   -1.1970    0.0000 H   0  0  0  0  0  0  0  0  0  0  0  0
   -2.6587    0.3440    0.0000 H   0  0  0  0  0  0  0  0  0  0  0  0
   -2.4579   -2.0745    0.0000 H   0  0  0  0  0  0  0  0  0  0  0  0
   -1.5317   -1.5456    0.0000 H   0  0  0  0  0  0  0  0  0  0  0  0
   -0.8439   -1.1193    0.0000 H   0  0  0  0  0  0  0  0  0  0  0  0
   -1.0182    1.7166    0.0000 H   0  0  0  0  0  0  0  0  0  0  0  0
   -0.0926    1.1808    0.0000 H   0  0  0  0  0  0  0  0  0  0  0  0
   -0.3068   -0.8362    0.0000 H   0  0  0  0  0  0  0  0  0  0  0  0
    0.6203   -0.3029    0.0000 H   0  0  0  0  0  0  0  0  0  0  0  0
    1.1165   -0.8382    0.0000 H   0  0  0  0  0  0  0  0  0  0  0  0
    2.0448   -0.3055    0.0000 H   0  0  0  0  0  0  0  0  0  0  0  0
    1.8362    1.7126    0.0000 H   0  0  0  0  0  0  0  0  0  0  0  0
    2.7619    1.1768    0.0000 H   0  0  0  0  0  0  0  0  0  0  0  0
    3.2660    1.7106    0.0000 H   0  0  0  0  0  0  0  0  0  0  0  0
    4.1917    1.1747    0.0000 H   0  0  0  0  0  0  0  0  0  0  0  0
    3.9782   -0.8422    0.0000 H   0  0  0  0  0  0  0  0  0  0  0  0
    4.9056    0.7624    0.0000 H   0  0  0  0  0  0  0  0  0  0  0  0
    4.9051   -0.3076    0.0000 H   0  0  0  0  0  0  0  0  0  0  0  0
    1.6221   -1.1284    0.0000 H   0  0  0  0  0  0  0  0  0  0  0  0
    2.5482   -1.6639    0.0000 H   0  0  0  0  0  0  0  0  0  0  0  0
    3.2610   -2.0767    0.0000 H   0  0  0  0  0  0  0  0  0  0  0  0
    4.1895   -0.4728    0.0000 H   0  0  0  0  0  0  0  0  0  0  0  0
    4.1882   -1.5428    0.0000 H   0  0  0  0  0  0  0  0  0  0  0  0
   -2.7698    1.8313    0.0000 H   0  0  0  0  0  0  0  0  0  0  0  0
   -4.5067    1.1850    0.0000 H   0  0  0  0  0  0  0  0  0  0  0  0
   -3.8248    2.0095    0.0000 H   0  0  0  0  0  0  0  0  0  0  0  0
   -4.6713    0.9031    0.0000 H   0  0  0  0  0  0  0  0  0  0  0  0
   -4.3388   -0.9201    0.0000 H   0  0  0  0  0  0  0  0  0  0  0  0
   -5.0313   -0.1045    0.0000 H   0  0  0  0  0  0  0  0  0  0  0  0
  1  4  1  0  0  0  0
  1 18  1  0  0  0  0
  1 19  1  0  0  0  0
  2  1  1  0  0  0  0
  2  3  1  0  0  0  0
  2  7  1  0  0  0  0
  2 20  1  1  0  0  0
  3 21  1  0  0  0  0
  3 22  1  0  0  0  0
  4  3  1  0  0  0  0
  4  5  1  0  0  0  0
  4 23  1  1  0  0  0
  5  6  1  0  0  0  0
  5 24  1  0  0  0  0
  5 25  1  0  0  0  0
  6 26  1  0  0  0  0
  7  6  2  0  0  0  0
  7  8  1  0  0  0  0
  8  9  1  0  0  0  0
  8 27  1  0  0  0  0
  8 28  1  0  0  0  0
  9 10  1  0  0  0  0
  9 29  1  0  0  0  0
  9 30  1  0  0  0  0
 10 11  1  0  0  0  0
 11 12  1  0  0  0  0
 11 31  1  0  0  0  0
 11 32  1  0  0  0  0
 12 13  1  0  0  0  0
 12 33  1  0  0  0  0
 12 34  1  0  0  0  0
 13 14  1  0  0  0  0
 13 16  1  0  0  0  0
 14 15  1  0  0  0  0
 14 35  1  0  0  0  0
 14 36  1  0  0  0  0
 15 37  1  0  0  0  0
 15 38  1  0  0  0  0
 15 39  1  0  0  0  0
 16 17  1  0  0  0  0
 16 40  1  0  0  0  0
 16 41  1  0  0  0  0
 17 42  1  0  0  0  0
 17 43  1  0  0  0  0
 17 44  1  0  0  0  0
 18 45  1  0  0  0  0
 18 46  1  0  0  0  0
 18 47  1  0  0  0  0
 19 48  1  0  0  0  0
 19 49  1  0  0  0  0
 19 50  1  0  0  0  0
M  END
>  <DRUGBANK_ID>
DB15785

>  <COMMON_NAME>
Myrtecaine

>  <CAS_NUMBER>
7712-50-7

>  <UNII>
9902116282

>  <SYNONYMS>
Mirtecaina; Myrtecaine; Myrtecainum; Nopoxamine

$$$$
