
 OpenBabel10282417072D

449470  0  0  1  0  0  0  0  0999 V2000
   -3.3183   -2.2988    0.0000 C   0  0  3  0  0  0  0  0  0  0  0  0
   -4.0230   -2.7099    0.0000 C   0  0  0  0  0  0  0  0  0  0  0  0
   -2.6084   -2.7081    0.0000 O   0  0  0  0  0  0  0  0  0  0  0  0
   -4.7378   -2.2977    0.0000 N   0  0  0  0  0  0  0  0  0  0  0  0
   -4.7378   -1.4815    0.0000 C   0  0  0  0  0  0  0  0  0  0  0  0
   -5.4494   -1.0712    0.0000 C   0  0  0  0  0  0  0  0  0  0  0  0
   -5.4453   -2.7037    0.0000 C   0  0  0  0  0  0  0  0  0  0  0  0
   -6.1526   -2.2935    0.0000 C   0  0  0  0  0  0  0  0  0  0  0  0
   -6.8643   -2.6995    0.0000 C   0  0  0  0  0  0  0  0  0  0  0  0
   -7.5718   -2.2893    0.0000 C   0  0  0  0  0  0  0  0  0  0  0  0
   -6.1568   -1.4773    0.0000 C   0  0  0  0  0  0  0  0  0  0  0  0
   -6.8685   -1.0670    0.0000 C   0  0  0  0  0  0  0  0  0  0  0  0
   -1.8028   -0.1565    0.0000 C   0  0  0  0  0  0  0  0  0  0  0  0
   -2.5883   -1.2298    0.0000 C   0  0  0  0  0  0  0  0  0  0  0  0
   -2.5883   -0.4075    0.0000 C   0  0  0  0  0  0  0  0  0  0  0  0
   -3.3078    0.0085    0.0000 C   0  0  0  0  0  0  0  0  0  0  0  0
   -4.0287   -0.4127    0.0000 C   0  0  0  0  0  0  0  0  0  0  0  0
   -4.0287   -1.2310    0.0000 C   0  0  0  0  0  0  0  0  0  0  0  0
   -3.3183   -1.6481    0.0000 C   0  0  0  0  0  0  0  0  0  0  0  0
   -1.3167   -0.8165    0.0000 C   0  0  0  0  0  0  0  0  0  0  0  0
   -1.8006   -1.4886    0.0000 C   0  0  0  0  0  0  0  0  0  0  0  0
   -1.4557   -2.2439    0.0000 C   0  0  0  0  0  0  0  0  0  0  0  0
   -0.6316   -2.3266    0.0000 C   0  0  0  0  0  0  0  0  0  0  0  0
   -0.1523   -1.6580    0.0000 C   0  0  0  0  0  0  0  0  0  0  0  0
   -0.4880   -0.8994    0.0000 C   0  0  0  0  0  0  0  0  0  0  0  0
    0.6721   -1.7490    0.0000 Cl  0  0  0  0  0  0  0  0  0  0  0  0
   -4.7529   -0.0042    0.0000 Cl  0  0  0  0  0  0  0  0  0  0  0  0
   -1.5382    0.6383    0.0000 C   0  0  0  0  0  0  0  0  0  0  0  0
   -2.0888    1.2614    0.0000 C   0  0  0  0  0  0  0  0  0  0  0  0
   -1.8272    2.0431    0.0000 C   0  0  0  0  0  0  0  0  0  0  0  0
   -2.3740    2.6560    0.0000 C   0  0  0  0  0  0  0  0  0  0  0  0
   -3.1858    2.4962    0.0000 C   0  0  0  0  0  0  0  0  0  0  0  0
   -3.4464    1.7132    0.0000 C   0  0  0  0  0  0  0  0  0  0  0  0
   -2.9001    1.0950    0.0000 C   0  0  0  0  0  0  0  0  0  0  0  0
   -3.7341    3.1114    0.0000 Cl  0  0  0  0  0  0  0  0  0  0  0  0
    2.5570   -1.8682    0.0000 C   0  0  0  0  0  0  0  0  0  0  0  0
    3.2769   -2.2826    0.0000 O   0  0  0  0  0  0  0  0  0  0  0  0
    4.7122   -3.1114    0.0000 C   0  0  0  0  0  0  0  0  0  0  0  0
    5.4276   -2.6971    0.0000 H   0  0  0  0  0  0  0  0  0  0  0  0
    6.8560   -0.2105    0.0000 H   0  0  0  0  0  0  0  0  0  0  0  0
    4.5069    1.8902    0.0000 C   0  0  0  0  0  0  0  0  0  0  0  0
    3.8169   -0.2733    0.0000 H   0  0  0  0  0  0  0  0  0  0  0  0
    5.5037    0.4215    0.0000 O   0  0  0  0  0  0  0  0  0  0  0  0
    5.1312   -0.2733    0.0000 O   0  0  0  0  0  0  0  0  0  0  0  0
    5.4276   -1.0434    0.0000 C   0  0  2  0  0  0  0  0  0  0  0  0
    4.7122   -0.6249    0.0000 C   0  0  1  0  0  0  0  0  0  0  0  0
    4.3150    0.2289    0.0000 O   0  0  0  0  0  0  0  0  0  0  0  0
    4.9177    1.0076    0.0000 C   0  0  2  0  0  0  0  0  0  0  0  0
    5.8848    1.0076    0.0000 C   0  0  0  0  0  0  0  0  0  0  0  0
    6.3536    0.1369    0.0000 C   0  0  0  0  0  0  0  0  0  0  0  0
    6.1408   -0.6258    0.0000 C   0  0  1  0  0  0  0  0  0  0  0  0
    7.5718   -0.6207    0.0000 C   0  0  0  0  0  0  0  0  0  0  0  0
    6.8597   -1.0416    0.0000 C   0  0  2  0  0  0  0  0  0  0  0  0
    6.8597   -1.8705    0.0000 C   0  0  0  0  0  0  0  0  0  0  0  0
    6.1429   -2.2835    0.0000 C   0  0  0  0  0  0  0  0  0  0  0  0
    5.4276   -1.8723    0.0000 C   0  0  1  0  0  0  0  0  0  0  0  0
    4.7122   -2.2826    0.0000 C   0  0  2  0  0  0  0  0  0  0  0  0
    3.9968   -1.8723    0.0000 C   0  0  2  0  0  0  0  0  0  0  0  0
    3.9968   -1.0434    0.0000 O   0  0  0  0  0  0  0  0  0  0  0  0
   -3.3183   -2.2988    0.0000 C   0  0  3  0  0  0  0  0  0  0  0  0
   -4.0230   -2.7099    0.0000 C   0  0  0  0  0  0  0  0  0  0  0  0
   -2.6084   -2.7081    0.0000 O   0  0  0  0  0  0  0  0  0  0  0  0
   -4.7378   -2.2977    0.0000 N   0  0  0  0  0  0  0  0  0  0  0  0
   -4.7378   -1.4815    0.0000 C   0  0  0  0  0  0  0  0  0  0  0  0
   -5.4494   -1.0712    0.0000 C   0  0  0  0  0  0  0  0  0  0  0  0
   -5.4453   -2.7037    0.0000 C   0  0  0  0  0  0  0  0  0  0  0  0
   -6.1526   -2.2935    0.0000 C   0  0  0  0  0  0  0  0  0  0  0  0
   -6.8643   -2.6995    0.0000 C   0  0  0  0  0  0  0  0  0  0  0  0
   -7.5718   -2.2893    0.0000 C   0  0  0  0  0  0  0  0  0  0  0  0
   -6.1568   -1.4773    0.0000 C   0  0  0  0  0  0  0  0  0  0  0  0
   -6.8685   -1.0670    0.0000 C   0  0  0  0  0  0  0  0  0  0  0  0
   -1.8028   -0.1565    0.0000 C   0  0  0  0  0  0  0  0  0  0  0  0
   -2.5883   -1.2298    0.0000 C   0  0  0  0  0  0  0  0  0  0  0  0
   -2.5883   -0.4075    0.0000 C   0  0  0  0  0  0  0  0  0  0  0  0
   -3.3078    0.0085    0.0000 C   0  0  0  0  0  0  0  0  0  0  0  0
   -4.0287   -0.4127    0.0000 C   0  0  0  0  0  0  0  0  0  0  0  0
   -4.0287   -1.2310    0.0000 C   0  0  0  0  0  0  0  0  0  0  0  0
   -3.3183   -1.6481    0.0000 C   0  0  0  0  0  0  0  0  0  0  0  0
   -1.3167   -0.8165    0.0000 C   0  0  0  0  0  0  0  0  0  0  0  0
   -1.8006   -1.4886    0.0000 C   0  0  0  0  0  0  0  0  0  0  0  0
   -1.4557   -2.2439    0.0000 C   0  0  0  0  0  0  0  0  0  0  0  0
   -0.6316   -2.3266    0.0000 C   0  0  0  0  0  0  0  0  0  0  0  0
   -0.1523   -1.6580    0.0000 C   0  0  0  0  0  0  0  0  0  0  0  0
   -0.4880   -0.8994    0.0000 C   0  0  0  0  0  0  0  0  0  0  0  0
    0.6721   -1.7490    0.0000 Cl  0  0  0  0  0  0  0  0  0  0  0  0
   -4.7529   -0.0042    0.0000 Cl  0  0  0  0  0  0  0  0  0  0  0  0
   -1.5382    0.6383    0.0000 C   0  0  0  0  0  0  0  0  0  0  0  0
   -2.0888    1.2614    0.0000 C   0  0  0  0  0  0  0  0  0  0  0  0
   -1.8272    2.0431    0.0000 C   0  0  0  0  0  0  0  0  0  0  0  0
   -2.3740    2.6560    0.0000 C   0  0  0  0  0  0  0  0  0  0  0  0
   -3.1858    2.4962    0.0000 C   0  0  0  0  0  0  0  0  0  0  0  0
   -3.4464    1.7132    0.0000 C   0  0  0  0  0  0  0  0  0  0  0  0
   -2.9001    1.0950    0.0000 C   0  0  0  0  0  0  0  0  0  0  0  0
   -3.7341    3.1114    0.0000 Cl  0  0  0  0  0  0  0  0  0  0  0  0
   -3.3183   -2.2988    0.0000 C   0  0  3  0  0  0  0  0  0  0  0  0
   -4.0230   -2.7099    0.0000 C   0  0  0  0  0  0  0  0  0  0  0  0
   -2.6084   -2.7081    0.0000 O   0  0  0  0  0  0  0  0  0  0  0  0
   -4.7378   -2.2977    0.0000 N   0  0  0  0  0  0  0  0  0  0  0  0
   -4.7378   -1.4815    0.0000 C   0  0  0  0  0  0  0  0  0  0  0  0
   -5.4494   -1.0712    0.0000 C   0  0  0  0  0  0  0  0  0  0  0  0
   -5.4453   -2.7037    0.0000 C   0  0  0  0  0  0  0  0  0  0  0  0
   -6.1526   -2.2935    0.0000 C   0  0  0  0  0  0  0  0  0  0  0  0
   -6.8643   -2.6995    0.0000 C   0  0  0  0  0  0  0  0  0  0  0  0
   -7.5718   -2.2893    0.0000 C   0  0  0  0  0  0  0  0  0  0  0  0
   -6.1568   -1.4773    0.0000 C   0  0  0  0  0  0  0  0  0  0  0  0
   -6.8685   -1.0670    0.0000 C   0  0  0  0  0  0  0  0  0  0  0  0
   -1.8028   -0.1565    0.0000 C   0  0  0  0  0  0  0  0  0  0  0  0
   -2.5883   -1.2298    0.0000 C   0  0  0  0  0  0  0  0  0  0  0  0
   -2.5883   -0.4075    0.0000 C   0  0  0  0  0  0  0  0  0  0  0  0
   -3.3078    0.0085    0.0000 C   0  0  0  0  0  0  0  0  0  0  0  0
   -4.0287   -0.4127    0.0000 C   0  0  0  0  0  0  0  0  0  0  0  0
   -4.0287   -1.2310    0.0000 C   0  0  0  0  0  0  0  0  0  0  0  0
   -3.3183   -1.6481    0.0000 C   0  0  0  0  0  0  0  0  0  0  0  0
   -1.3167   -0.8165    0.0000 C   0  0  0  0  0  0  0  0  0  0  0  0
   -1.8006   -1.4886    0.0000 C   0  0  0  0  0  0  0  0  0  0  0  0
   -1.4557   -2.2439    0.0000 C   0  0  0  0  0  0  0  0  0  0  0  0
   -0.6316   -2.3266    0.0000 C   0  0  0  0  0  0  0  0  0  0  0  0
   -0.1523   -1.6580    0.0000 C   0  0  0  0  0  0  0  0  0  0  0  0
   -0.4880   -0.8994    0.0000 C   0  0  0  0  0  0  0  0  0  0  0  0
    0.6721   -1.7490    0.0000 Cl  0  0  0  0  0  0  0  0  0  0  0  0
   -4.7529   -0.0042    0.0000 Cl  0  0  0  0  0  0  0  0  0  0  0  0
   -1.5382    0.6383    0.0000 C   0  0  0  0  0  0  0  0  0  0  0  0
   -2.0888    1.2614    0.0000 C   0  0  0  0  0  0  0  0  0  0  0  0
   -1.8272    2.0431    0.0000 C   0  0  0  0  0  0  0  0  0  0  0  0
   -2.3740    2.6560    0.0000 C   0  0  0  0  0  0  0  0  0  0  0  0
   -3.1858    2.4962    0.0000 C   0  0  0  0  0  0  0  0  0  0  0  0
   -3.4464    1.7132    0.0000 C   0  0  0  0  0  0  0  0  0  0  0  0
   -2.9001    1.0950    0.0000 C   0  0  0  0  0  0  0  0  0  0  0  0
   -3.7341    3.1114    0.0000 Cl  0  0  0  0  0  0  0  0  0  0  0  0
   -3.3183   -2.2988    0.0000 C   0  0  3  0  0  0  0  0  0  0  0  0
   -4.0230   -2.7099    0.0000 C   0  0  0  0  0  0  0  0  0  0  0  0
   -2.6084   -2.7081    0.0000 O   0  0  0  0  0  0  0  0  0  0  0  0
   -4.7378   -2.2977    0.0000 N   0  0  0  0  0  0  0  0  0  0  0  0
   -4.7378   -1.4815    0.0000 C   0  0  0  0  0  0  0  0  0  0  0  0
   -5.4494   -1.0712    0.0000 C   0  0  0  0  0  0  0  0  0  0  0  0
   -5.4453   -2.7037    0.0000 C   0  0  0  0  0  0  0  0  0  0  0  0
   -6.1526   -2.2935    0.0000 C   0  0  0  0  0  0  0  0  0  0  0  0
   -6.8643   -2.6995    0.0000 C   0  0  0  0  0  0  0  0  0  0  0  0
   -7.5718   -2.2893    0.0000 C   0  0  0  0  0  0  0  0  0  0  0  0
   -6.1568   -1.4773    0.0000 C   0  0  0  0  0  0  0  0  0  0  0  0
   -6.8685   -1.0670    0.0000 C   0  0  0  0  0  0  0  0  0  0  0  0
   -1.8028   -0.1565    0.0000 C   0  0  0  0  0  0  0  0  0  0  0  0
   -2.5883   -1.2298    0.0000 C   0  0  0  0  0  0  0  0  0  0  0  0
   -2.5883   -0.4075    0.0000 C   0  0  0  0  0  0  0  0  0  0  0  0
   -3.3078    0.0085    0.0000 C   0  0  0  0  0  0  0  0  0  0  0  0
   -4.0287   -0.4127    0.0000 C   0  0  0  0  0  0  0  0  0  0  0  0
   -4.0287   -1.2310    0.0000 C   0  0  0  0  0  0  0  0  0  0  0  0
   -3.3183   -1.6481    0.0000 C   0  0  0  0  0  0  0  0  0  0  0  0
   -1.3167   -0.8165    0.0000 C   0  0  0  0  0  0  0  0  0  0  0  0
   -1.8006   -1.4886    0.0000 C   0  0  0  0  0  0  0  0  0  0  0  0
   -1.4557   -2.2439    0.0000 C   0  0  0  0  0  0  0  0  0  0  0  0
   -0.6316   -2.3266    0.0000 C   0  0  0  0  0  0  0  0  0  0  0  0
   -0.1523   -1.6580    0.0000 C   0  0  0  0  0  0  0  0  0  0  0  0
   -0.4880   -0.8994    0.0000 C   0  0  0  0  0  0  0  0  0  0  0  0
    0.6721   -1.7490    0.0000 Cl  0  0  0  0  0  0  0  0  0  0  0  0
   -4.7529   -0.0042    0.0000 Cl  0  0  0  0  0  0  0  0  0  0  0  0
   -1.5382    0.6383    0.0000 C   0  0  0  0  0  0  0  0  0  0  0  0
   -2.0888    1.2614    0.0000 C   0  0  0  0  0  0  0  0  0  0  0  0
   -1.8272    2.0431    0.0000 C   0  0  0  0  0  0  0  0  0  0  0  0
   -2.3740    2.6560    0.0000 C   0  0  0  0  0  0  0  0  0  0  0  0
   -3.1858    2.4962    0.0000 C   0  0  0  0  0  0  0  0  0  0  0  0
   -3.4464    1.7132    0.0000 C   0  0  0  0  0  0  0  0  0  0  0  0
   -2.9001    1.0950    0.0000 C   0  0  0  0  0  0  0  0  0  0  0  0
   -3.7341    3.1114    0.0000 Cl  0  0  0  0  0  0  0  0  0  0  0  0
   -3.3183   -2.2988    0.0000 C   0  0  3  0  0  0  0  0  0  0  0  0
   -4.0230   -2.7099    0.0000 C   0  0  0  0  0  0  0  0  0  0  0  0
   -2.6084   -2.7081    0.0000 O   0  0  0  0  0  0  0  0  0  0  0  0
   -4.7378   -2.2977    0.0000 N   0  0  0  0  0  0  0  0  0  0  0  0
   -4.7378   -1.4815    0.0000 C   0  0  0  0  0  0  0  0  0  0  0  0
   -5.4494   -1.0712    0.0000 C   0  0  0  0  0  0  0  0  0  0  0  0
   -5.4453   -2.7037    0.0000 C   0  0  0  0  0  0  0  0  0  0  0  0
   -6.1526   -2.2935    0.0000 C   0  0  0  0  0  0  0  0  0  0  0  0
   -6.8643   -2.6995    0.0000 C   0  0  0  0  0  0  0  0  0  0  0  0
   -7.5718   -2.2893    0.0000 C   0  0  0  0  0  0  0  0  0  0  0  0
   -6.1568   -1.4773    0.0000 C   0  0  0  0  0  0  0  0  0  0  0  0
   -6.8685   -1.0670    0.0000 C   0  0  0  0  0  0  0  0  0  0  0  0
   -1.8028   -0.1565    0.0000 C   0  0  0  0  0  0  0  0  0  0  0  0
   -2.5883   -1.2298    0.0000 C   0  0  0  0  0  0  0  0  0  0  0  0
   -2.5883   -0.4075    0.0000 C   0  0  0  0  0  0  0  0  0  0  0  0
   -3.3078    0.0085    0.0000 C   0  0  0  0  0  0  0  0  0  0  0  0
   -4.0287   -0.4127    0.0000 C   0  0  0  0  0  0  0  0  0  0  0  0
   -4.0287   -1.2310    0.0000 C   0  0  0  0  0  0  0  0  0  0  0  0
   -3.3183   -1.6481    0.0000 C   0  0  0  0  0  0  0  0  0  0  0  0
   -1.3167   -0.8165    0.0000 C   0  0  0  0  0  0  0  0  0  0  0  0
   -1.8006   -1.4886    0.0000 C   0  0  0  0  0  0  0  0  0  0  0  0
   -1.4557   -2.2439    0.0000 C   0  0  0  0  0  0  0  0  0  0  0  0
   -0.6316   -2.3266    0.0000 C   0  0  0  0  0  0  0  0  0  0  0  0
   -0.1523   -1.6580    0.0000 C   0  0  0  0  0  0  0  0  0  0  0  0
   -0.4880   -0.8994    0.0000 C   0  0  0  0  0  0  0  0  0  0  0  0
    0.6721   -1.7490    0.0000 Cl  0  0  0  0  0  0  0  0  0  0  0  0
   -4.7529   -0.0042    0.0000 Cl  0  0  0  0  0  0  0  0  0  0  0  0
   -1.5382    0.6383    0.0000 C   0  0  0  0  0  0  0  0  0  0  0  0
   -2.0888    1.2614    0.0000 C   0  0  0  0  0  0  0  0  0  0  0  0
   -1.8272    2.0431    0.0000 C   0  0  0  0  0  0  0  0  0  0  0  0
   -2.3740    2.6560    0.0000 C   0  0  0  0  0  0  0  0  0  0  0  0
   -3.1858    2.4962    0.0000 C   0  0  0  0  0  0  0  0  0  0  0  0
   -3.4464    1.7132    0.0000 C   0  0  0  0  0  0  0  0  0  0  0  0
   -2.9001    1.0950    0.0000 C   0  0  0  0  0  0  0  0  0  0  0  0
   -3.7341    3.1114    0.0000 Cl  0  0  0  0  0  0  0  0  0  0  0  0
   -3.3183   -2.2988    0.0000 C   0  0  3  0  0  0  0  0  0  0  0  0
   -4.0230   -2.7099    0.0000 C   0  0  0  0  0  0  0  0  0  0  0  0
   -2.6084   -2.7081    0.0000 O   0  0  0  0  0  0  0  0  0  0  0  0
   -4.7378   -2.2977    0.0000 N   0  0  0  0  0  0  0  0  0  0  0  0
   -4.7378   -1.4815    0.0000 C   0  0  0  0  0  0  0  0  0  0  0  0
   -5.4494   -1.0712    0.0000 C   0  0  0  0  0  0  0  0  0  0  0  0
   -5.4453   -2.7037    0.0000 C   0  0  0  0  0  0  0  0  0  0  0  0
   -6.1526   -2.2935    0.0000 C   0  0  0  0  0  0  0  0  0  0  0  0
   -6.8643   -2.6995    0.0000 C   0  0  0  0  0  0  0  0  0  0  0  0
   -7.5718   -2.2893    0.0000 C   0  0  0  0  0  0  0  0  0  0  0  0
   -6.1568   -1.4773    0.0000 C   0  0  0  0  0  0  0  0  0  0  0  0
   -6.8685   -1.0670    0.0000 C   0  0  0  0  0  0  0  0  0  0  0  0
   -1.8028   -0.1565    0.0000 C   0  0  0  0  0  0  0  0  0  0  0  0
   -2.5883   -1.2298    0.0000 C   0  0  0  0  0  0  0  0  0  0  0  0
   -2.5883   -0.4075    0.0000 C   0  0  0  0  0  0  0  0  0  0  0  0
   -3.3078    0.0085    0.0000 C   0  0  0  0  0  0  0  0  0  0  0  0
   -4.0287   -0.4127    0.0000 C   0  0  0  0  0  0  0  0  0  0  0  0
   -4.0287   -1.2310    0.0000 C   0  0  0  0  0  0  0  0  0  0  0  0
   -3.3183   -1.6481    0.0000 C   0  0  0  0  0  0  0  0  0  0  0  0
   -1.3167   -0.8165    0.0000 C   0  0  0  0  0  0  0  0  0  0  0  0
   -1.8006   -1.4886    0.0000 C   0  0  0  0  0  0  0  0  0  0  0  0
   -1.4557   -2.2439    0.0000 C   0  0  0  0  0  0  0  0  0  0  0  0
   -0.6316   -2.3266    0.0000 C   0  0  0  0  0  0  0  0  0  0  0  0
   -0.1523   -1.6580    0.0000 C   0  0  0  0  0  0  0  0  0  0  0  0
   -0.4880   -0.8994    0.0000 C   0  0  0  0  0  0  0  0  0  0  0  0
    0.6721   -1.7490    0.0000 Cl  0  0  0  0  0  0  0  0  0  0  0  0
   -4.7529   -0.0042    0.0000 Cl  0  0  0  0  0  0  0  0  0  0  0  0
   -1.5382    0.6383    0.0000 C   0  0  0  0  0  0  0  0  0  0  0  0
   -2.0888    1.2614    0.0000 C   0  0  0  0  0  0  0  0  0  0  0  0
   -1.8272    2.0431    0.0000 C   0  0  0  0  0  0  0  0  0  0  0  0
   -2.3740    2.6560    0.0000 C   0  0  0  0  0  0  0  0  0  0  0  0
   -3.1858    2.4962    0.0000 C   0  0  0  0  0  0  0  0  0  0  0  0
   -3.4464    1.7132    0.0000 C   0  0  0  0  0  0  0  0  0  0  0  0
   -2.9001    1.0950    0.0000 C   0  0  0  0  0  0  0  0  0  0  0  0
   -3.7341    3.1114    0.0000 Cl  0  0  0  0  0  0  0  0  0  0  0  0
   -3.3156   -3.3688    0.0000 H   0  0  0  0  0  0  0  0  0  0  0  0
   -4.0203   -3.7799    0.0000 H   0  0  0  0  0  0  0  0  0  0  0  0
   -4.9488   -3.2463    0.0000 H   0  0  0  0  0  0  0  0  0  0  0  0
   -2.6078   -3.6781    0.0000 H   0  0  0  0  0  0  0  0  0  0  0  0
   -3.8113   -0.9462    0.0000 H   0  0  0  0  0  0  0  0  0  0  0  0
   -4.7383   -0.4115    0.0000 H   0  0  0  0  0  0  0  0  0  0  0  0
   -5.4484   -0.0012    0.0000 H   0  0  0  0  0  0  0  0  0  0  0  0
   -6.3751   -0.5346    0.0000 H   0  0  0  0  0  0  0  0  0  0  0  0
   -5.4477   -3.7737    0.0000 H   0  0  0  0  0  0  0  0  0  0  0  0
   -6.3731   -3.2367    0.0000 H   0  0  0  0  0  0  0  0  0  0  0  0
   -6.1488   -1.2235    0.0000 H   0  0  0  0  0  0  0  0  0  0  0  0
   -7.0769   -1.7545    0.0000 H   0  0  0  0  0  0  0  0  0  0  0  0
   -6.8680   -3.7695    0.0000 H   0  0  0  0  0  0  0  0  0  0  0  0
   -7.7924   -3.2320    0.0000 H   0  0  0  0  0  0  0  0  0  0  0  0
   -7.5698   -1.2193    0.0000 H   0  0  0  0  0  0  0  0  0  0  0  0
   -8.4994   -2.8226    0.0000 H   0  0  0  0  0  0  0  0  0  0  0  0
   -8.4975   -1.7526    0.0000 H   0  0  0  0  0  0  0  0  0  0  0  0
   -6.1578   -2.5473    0.0000 H   0  0  0  0  0  0  0  0  0  0  0  0
   -7.0835   -2.0122    0.0000 H   0  0  0  0  0  0  0  0  0  0  0  0
   -6.8692    0.0030    0.0000 H   0  0  0  0  0  0  0  0  0  0  0  0
   -7.7948   -1.6026    0.0000 H   0  0  0  0  0  0  0  0  0  0  0  0
   -7.7955   -0.5326    0.0000 H   0  0  0  0  0  0  0  0  0  0  0  0
   -3.3101    1.0405    0.0000 H   0  0  0  0  0  0  0  0  0  0  0  0
   -4.9243   -1.7437    0.0000 H   0  0  0  0  0  0  0  0  0  0  0  0
   -2.0564   -3.0831    0.0000 H   0  0  0  0  0  0  0  0  0  0  0  0
   -0.2066   -3.2670    0.0000 H   0  0  0  0  0  0  0  0  0  0  0  0
    0.1174   -0.0637    0.0000 H   0  0  0  0  0  0  0  0  0  0  0  0
   -0.5270    0.8445    0.0000 H   0  0  0  0  0  0  0  0  0  0  0  0
   -0.8163    2.2509    0.0000 H   0  0  0  0  0  0  0  0  0  0  0  0
   -2.0455    3.6343    0.0000 H   0  0  0  0  0  0  0  0  0  0  0  0
   -4.4576    1.5069    0.0000 H   0  0  0  0  0  0  0  0  0  0  0  0
   -3.2271    0.1162    0.0000 H   0  0  0  0  0  0  0  0  0  0  0  0
    2.5556   -0.7982    0.0000 H   0  0  0  0  0  0  0  0  0  0  0  0
    1.6310   -2.4044    0.0000 H   0  0  0  0  0  0  0  0  0  0  0  0
    1.6297   -1.3344    0.0000 H   0  0  0  0  0  0  0  0  0  0  0  0
    3.7856   -3.6464    0.0000 H   0  0  0  0  0  0  0  0  0  0  0  0
    5.6388   -3.6464    0.0000 H   0  0  0  0  0  0  0  0  0  0  0  0
    4.7122   -4.1814    0.0000 H   0  0  0  0  0  0  0  0  0  0  0  0
    5.1212    2.7663    0.0000 H   0  0  0  0  0  0  0  0  0  0  0  0
    3.4410    1.9842    0.0000 H   0  0  0  0  0  0  0  0  0  0  0  0
    4.0554    2.8603    0.0000 H   0  0  0  0  0  0  0  0  0  0  0  0
    6.4335    1.9262    0.0000 H   0  0  0  0  0  0  0  0  0  0  0  0
    6.9545    0.9838    0.0000 H   0  0  0  0  0  0  0  0  0  0  0  0
    7.4170    0.2553    0.0000 H   0  0  0  0  0  0  0  0  0  0  0  0
    7.0468   -0.6782    0.0000 H   0  0  0  0  0  0  0  0  0  0  0  0
    8.5039   -1.1462    0.0000 H   0  0  0  0  0  0  0  0  0  0  0  0
    7.5609    0.4492    0.0000 H   0  0  0  0  0  0  0  0  0  0  0  0
    8.4929   -0.0763    0.0000 H   0  0  0  0  0  0  0  0  0  0  0  0
    6.8546    0.0284    0.0000 H   0  0  0  0  0  0  0  0  0  0  0  0
    7.7861   -2.4059    0.0000 H   0  0  0  0  0  0  0  0  0  0  0  0
    6.8590   -2.9405    0.0000 H   0  0  0  0  0  0  0  0  0  0  0  0
    6.1434   -3.3535    0.0000 H   0  0  0  0  0  0  0  0  0  0  0  0
    5.2169   -2.8196    0.0000 H   0  0  0  0  0  0  0  0  0  0  0  0
    5.6381   -2.8189    0.0000 H   0  0  0  0  0  0  0  0  0  0  0  0
    3.9954   -2.9423    0.0000 H   0  0  0  0  0  0  0  0  0  0  0  0
   -3.3156   -3.3688    0.0000 H   0  0  0  0  0  0  0  0  0  0  0  0
   -4.0203   -3.7799    0.0000 H   0  0  0  0  0  0  0  0  0  0  0  0
   -4.9488   -3.2463    0.0000 H   0  0  0  0  0  0  0  0  0  0  0  0
   -2.6078   -3.6781    0.0000 H   0  0  0  0  0  0  0  0  0  0  0  0
   -3.8113   -0.9462    0.0000 H   0  0  0  0  0  0  0  0  0  0  0  0
   -4.7383   -0.4115    0.0000 H   0  0  0  0  0  0  0  0  0  0  0  0
   -5.4484   -0.0012    0.0000 H   0  0  0  0  0  0  0  0  0  0  0  0
   -6.3751   -0.5346    0.0000 H   0  0  0  0  0  0  0  0  0  0  0  0
   -5.4477   -3.7737    0.0000 H   0  0  0  0  0  0  0  0  0  0  0  0
   -6.3731   -3.2367    0.0000 H   0  0  0  0  0  0  0  0  0  0  0  0
   -6.1488   -1.2235    0.0000 H   0  0  0  0  0  0  0  0  0  0  0  0
   -7.0769   -1.7545    0.0000 H   0  0  0  0  0  0  0  0  0  0  0  0
   -6.8680   -3.7695    0.0000 H   0  0  0  0  0  0  0  0  0  0  0  0
   -7.7924   -3.2320    0.0000 H   0  0  0  0  0  0  0  0  0  0  0  0
   -7.5698   -1.2193    0.0000 H   0  0  0  0  0  0  0  0  0  0  0  0
   -8.4994   -2.8226    0.0000 H   0  0  0  0  0  0  0  0  0  0  0  0
   -8.4975   -1.7526    0.0000 H   0  0  0  0  0  0  0  0  0  0  0  0
   -6.1578   -2.5473    0.0000 H   0  0  0  0  0  0  0  0  0  0  0  0
   -7.0835   -2.0122    0.0000 H   0  0  0  0  0  0  0  0  0  0  0  0
   -6.8692    0.0030    0.0000 H   0  0  0  0  0  0  0  0  0  0  0  0
   -7.7948   -1.6026    0.0000 H   0  0  0  0  0  0  0  0  0  0  0  0
   -7.7955   -0.5326    0.0000 H   0  0  0  0  0  0  0  0  0  0  0  0
   -3.3101    1.0405    0.0000 H   0  0  0  0  0  0  0  0  0  0  0  0
   -4.9243   -1.7437    0.0000 H   0  0  0  0  0  0  0  0  0  0  0  0
   -2.0564   -3.0831    0.0000 H   0  0  0  0  0  0  0  0  0  0  0  0
   -0.2066   -3.2670    0.0000 H   0  0  0  0  0  0  0  0  0  0  0  0
    0.1174   -0.0637    0.0000 H   0  0  0  0  0  0  0  0  0  0  0  0
   -0.5270    0.8445    0.0000 H   0  0  0  0  0  0  0  0  0  0  0  0
   -0.8163    2.2509    0.0000 H   0  0  0  0  0  0  0  0  0  0  0  0
   -2.0455    3.6343    0.0000 H   0  0  0  0  0  0  0  0  0  0  0  0
   -4.4576    1.5069    0.0000 H   0  0  0  0  0  0  0  0  0  0  0  0
   -3.2271    0.1162    0.0000 H   0  0  0  0  0  0  0  0  0  0  0  0
   -3.3156   -3.3688    0.0000 H   0  0  0  0  0  0  0  0  0  0  0  0
   -4.0203   -3.7799    0.0000 H   0  0  0  0  0  0  0  0  0  0  0  0
   -4.9488   -3.2463    0.0000 H   0  0  0  0  0  0  0  0  0  0  0  0
   -2.6078   -3.6781    0.0000 H   0  0  0  0  0  0  0  0  0  0  0  0
   -3.8113   -0.9462    0.0000 H   0  0  0  0  0  0  0  0  0  0  0  0
   -4.7383   -0.4115    0.0000 H   0  0  0  0  0  0  0  0  0  0  0  0
   -5.4484   -0.0012    0.0000 H   0  0  0  0  0  0  0  0  0  0  0  0
   -6.3751   -0.5346    0.0000 H   0  0  0  0  0  0  0  0  0  0  0  0
   -5.4477   -3.7737    0.0000 H   0  0  0  0  0  0  0  0  0  0  0  0
   -6.3731   -3.2367    0.0000 H   0  0  0  0  0  0  0  0  0  0  0  0
   -6.1488   -1.2235    0.0000 H   0  0  0  0  0  0  0  0  0  0  0  0
   -7.0769   -1.7545    0.0000 H   0  0  0  0  0  0  0  0  0  0  0  0
   -6.8680   -3.7695    0.0000 H   0  0  0  0  0  0  0  0  0  0  0  0
   -7.7924   -3.2320    0.0000 H   0  0  0  0  0  0  0  0  0  0  0  0
   -7.5698   -1.2193    0.0000 H   0  0  0  0  0  0  0  0  0  0  0  0
   -8.4994   -2.8226    0.0000 H   0  0  0  0  0  0  0  0  0  0  0  0
   -8.4975   -1.7526    0.0000 H   0  0  0  0  0  0  0  0  0  0  0  0
   -6.1578   -2.5473    0.0000 H   0  0  0  0  0  0  0  0  0  0  0  0
   -7.0835   -2.0122    0.0000 H   0  0  0  0  0  0  0  0  0  0  0  0
   -6.8692    0.0030    0.0000 H   0  0  0  0  0  0  0  0  0  0  0  0
   -7.7948   -1.6026    0.0000 H   0  0  0  0  0  0  0  0  0  0  0  0
   -7.7955   -0.5326    0.0000 H   0  0  0  0  0  0  0  0  0  0  0  0
   -3.3101    1.0405    0.0000 H   0  0  0  0  0  0  0  0  0  0  0  0
   -4.9243   -1.7437    0.0000 H   0  0  0  0  0  0  0  0  0  0  0  0
   -2.0564   -3.0831    0.0000 H   0  0  0  0  0  0  0  0  0  0  0  0
   -0.2066   -3.2670    0.0000 H   0  0  0  0  0  0  0  0  0  0  0  0
    0.1174   -0.0637    0.0000 H   0  0  0  0  0  0  0  0  0  0  0  0
   -0.5270    0.8445    0.0000 H   0  0  0  0  0  0  0  0  0  0  0  0
   -0.8163    2.2509    0.0000 H   0  0  0  0  0  0  0  0  0  0  0  0
   -2.0455    3.6343    0.0000 H   0  0  0  0  0  0  0  0  0  0  0  0
   -4.4576    1.5069    0.0000 H   0  0  0  0  0  0  0  0  0  0  0  0
   -3.2271    0.1162    0.0000 H   0  0  0  0  0  0  0  0  0  0  0  0
   -3.3156   -3.3688    0.0000 H   0  0  0  0  0  0  0  0  0  0  0  0
   -4.0203   -3.7799    0.0000 H   0  0  0  0  0  0  0  0  0  0  0  0
   -4.9488   -3.2463    0.0000 H   0  0  0  0  0  0  0  0  0  0  0  0
   -2.6078   -3.6781    0.0000 H   0  0  0  0  0  0  0  0  0  0  0  0
   -3.8113   -0.9462    0.0000 H   0  0  0  0  0  0  0  0  0  0  0  0
   -4.7383   -0.4115    0.0000 H   0  0  0  0  0  0  0  0  0  0  0  0
   -5.4484   -0.0012    0.0000 H   0  0  0  0  0  0  0  0  0  0  0  0
   -6.3751   -0.5346    0.0000 H   0  0  0  0  0  0  0  0  0  0  0  0
   -5.4477   -3.7737    0.0000 H   0  0  0  0  0  0  0  0  0  0  0  0
   -6.3731   -3.2367    0.0000 H   0  0  0  0  0  0  0  0  0  0  0  0
   -6.1488   -1.2235    0.0000 H   0  0  0  0  0  0  0  0  0  0  0  0
   -7.0769   -1.7545    0.0000 H   0  0  0  0  0  0  0  0  0  0  0  0
   -6.8680   -3.7695    0.0000 H   0  0  0  0  0  0  0  0  0  0  0  0
   -7.7924   -3.2320    0.0000 H   0  0  0  0  0  0  0  0  0  0  0  0
   -7.5698   -1.2193    0.0000 H   0  0  0  0  0  0  0  0  0  0  0  0
   -8.4994   -2.8226    0.0000 H   0  0  0  0  0  0  0  0  0  0  0  0
   -8.4975   -1.7526    0.0000 H   0  0  0  0  0  0  0  0  0  0  0  0
   -6.1578   -2.5473    0.0000 H   0  0  0  0  0  0  0  0  0  0  0  0
   -7.0835   -2.0122    0.0000 H   0  0  0  0  0  0  0  0  0  0  0  0
   -6.8692    0.0030    0.0000 H   0  0  0  0  0  0  0  0  0  0  0  0
   -7.7948   -1.6026    0.0000 H   0  0  0  0  0  0  0  0  0  0  0  0
   -7.7955   -0.5326    0.0000 H   0  0  0  0  0  0  0  0  0  0  0  0
   -3.3101    1.0405    0.0000 H   0  0  0  0  0  0  0  0  0  0  0  0
   -4.9243   -1.7437    0.0000 H   0  0  0  0  0  0  0  0  0  0  0  0
   -2.0564   -3.0831    0.0000 H   0  0  0  0  0  0  0  0  0  0  0  0
   -0.2066   -3.2670    0.0000 H   0  0  0  0  0  0  0  0  0  0  0  0
    0.1174   -0.0637    0.0000 H   0  0  0  0  0  0  0  0  0  0  0  0
   -0.5270    0.8445    0.0000 H   0  0  0  0  0  0  0  0  0  0  0  0
   -0.8163    2.2509    0.0000 H   0  0  0  0  0  0  0  0  0  0  0  0
   -2.0455    3.6343    0.0000 H   0  0  0  0  0  0  0  0  0  0  0  0
   -4.4576    1.5069    0.0000 H   0  0  0  0  0  0  0  0  0  0  0  0
   -3.2271    0.1162    0.0000 H   0  0  0  0  0  0  0  0  0  0  0  0
   -3.3156   -3.3688    0.0000 H   0  0  0  0  0  0  0  0  0  0  0  0
   -4.0203   -3.7799    0.0000 H   0  0  0  0  0  0  0  0  0  0  0  0
   -4.9488   -3.2463    0.0000 H   0  0  0  0  0  0  0  0  0  0  0  0
   -2.6078   -3.6781    0.0000 H   0  0  0  0  0  0  0  0  0  0  0  0
   -3.8113   -0.9462    0.0000 H   0  0  0  0  0  0  0  0  0  0  0  0
   -4.7383   -0.4115    0.0000 H   0  0  0  0  0  0  0  0  0  0  0  0
   -5.4484   -0.0012    0.0000 H   0  0  0  0  0  0  0  0  0  0  0  0
   -6.3751   -0.5346    0.0000 H   0  0  0  0  0  0  0  0  0  0  0  0
   -5.4477   -3.7737    0.0000 H   0  0  0  0  0  0  0  0  0  0  0  0
   -6.3731   -3.2367    0.0000 H   0  0  0  0  0  0  0  0  0  0  0  0
   -6.1488   -1.2235    0.0000 H   0  0  0  0  0  0  0  0  0  0  0  0
   -7.0769   -1.7545    0.0000 H   0  0  0  0  0  0  0  0  0  0  0  0
   -6.8680   -3.7695    0.0000 H   0  0  0  0  0  0  0  0  0  0  0  0
   -7.7924   -3.2320    0.0000 H   0  0  0  0  0  0  0  0  0  0  0  0
   -7.5698   -1.2193    0.0000 H   0  0  0  0  0  0  0  0  0  0  0  0
   -8.4994   -2.8226    0.0000 H   0  0  0  0  0  0  0  0  0  0  0  0
   -8.4975   -1.7526    0.0000 H   0  0  0  0  0  0  0  0  0  0  0  0
   -6.1578   -2.5473    0.0000 H   0  0  0  0  0  0  0  0  0  0  0  0
   -7.0835   -2.0122    0.0000 H   0  0  0  0  0  0  0  0  0  0  0  0
   -6.8692    0.0030    0.0000 H   0  0  0  0  0  0  0  0  0  0  0  0
   -7.7948   -1.6026    0.0000 H   0  0  0  0  0  0  0  0  0  0  0  0
   -7.7955   -0.5326    0.0000 H   0  0  0  0  0  0  0  0  0  0  0  0
   -3.3101    1.0405    0.0000 H   0  0  0  0  0  0  0  0  0  0  0  0
   -4.9243   -1.7437    0.0000 H   0  0  0  0  0  0  0  0  0  0  0  0
   -2.0564   -3.0831    0.0000 H   0  0  0  0  0  0  0  0  0  0  0  0
   -0.2066   -3.2670    0.0000 H   0  0  0  0  0  0  0  0  0  0  0  0
    0.1174   -0.0637    0.0000 H   0  0  0  0  0  0  0  0  0  0  0  0
   -0.5270    0.8445    0.0000 H   0  0  0  0  0  0  0  0  0  0  0  0
   -0.8163    2.2509    0.0000 H   0  0  0  0  0  0  0  0  0  0  0  0
   -2.0455    3.6343    0.0000 H   0  0  0  0  0  0  0  0  0  0  0  0
   -4.4576    1.5069    0.0000 H   0  0  0  0  0  0  0  0  0  0  0  0
   -3.2271    0.1162    0.0000 H   0  0  0  0  0  0  0  0  0  0  0  0
   -3.3156   -3.3688    0.0000 H   0  0  0  0  0  0  0  0  0  0  0  0
   -4.0203   -3.7799    0.0000 H   0  0  0  0  0  0  0  0  0  0  0  0
   -4.9488   -3.2463    0.0000 H   0  0  0  0  0  0  0  0  0  0  0  0
   -2.6078   -3.6781    0.0000 H   0  0  0  0  0  0  0  0  0  0  0  0
   -3.8113   -0.9462    0.0000 H   0  0  0  0  0  0  0  0  0  0  0  0
   -4.7383   -0.4115    0.0000 H   0  0  0  0  0  0  0  0  0  0  0  0
   -5.4484   -0.0012    0.0000 H   0  0  0  0  0  0  0  0  0  0  0  0
   -6.3751   -0.5346    0.0000 H   0  0  0  0  0  0  0  0  0  0  0  0
   -5.4477   -3.7737    0.0000 H   0  0  0  0  0  0  0  0  0  0  0  0
   -6.3731   -3.2367    0.0000 H   0  0  0  0  0  0  0  0  0  0  0  0
   -6.1488   -1.2235    0.0000 H   0  0  0  0  0  0  0  0  0  0  0  0
   -7.0769   -1.7545    0.0000 H   0  0  0  0  0  0  0  0  0  0  0  0
   -6.8680   -3.7695    0.0000 H   0  0  0  0  0  0  0  0  0  0  0  0
   -7.7924   -3.2320    0.0000 H   0  0  0  0  0  0  0  0  0  0  0  0
   -7.5698   -1.2193    0.0000 H   0  0  0  0  0  0  0  0  0  0  0  0
   -8.4994   -2.8226    0.0000 H   0  0  0  0  0  0  0  0  0  0  0  0
   -8.4975   -1.7526    0.0000 H   0  0  0  0  0  0  0  0  0  0  0  0
   -6.1578   -2.5473    0.0000 H   0  0  0  0  0  0  0  0  0  0  0  0
   -7.0835   -2.0122    0.0000 H   0  0  0  0  0  0  0  0  0  0  0  0
   -6.8692    0.0030    0.0000 H   0  0  0  0  0  0  0  0  0  0  0  0
   -7.7948   -1.6026    0.0000 H   0  0  0  0  0  0  0  0  0  0  0  0
   -7.7955   -0.5326    0.0000 H   0  0  0  0  0  0  0  0  0  0  0  0
   -3.3101    1.0405    0.0000 H   0  0  0  0  0  0  0  0  0  0  0  0
   -4.9243   -1.7437    0.0000 H   0  0  0  0  0  0  0  0  0  0  0  0
   -2.0564   -3.0831    0.0000 H   0  0  0  0  0  0  0  0  0  0  0  0
   -0.2066   -3.2670    0.0000 H   0  0  0  0  0  0  0  0  0  0  0  0
    0.1174   -0.0637    0.0000 H   0  0  0  0  0  0  0  0  0  0  0  0
   -0.5270    0.8445    0.0000 H   0  0  0  0  0  0  0  0  0  0  0  0
   -0.8163    2.2509    0.0000 H   0  0  0  0  0  0  0  0  0  0  0  0
   -2.0455    3.6343    0.0000 H   0  0  0  0  0  0  0  0  0  0  0  0
   -4.4576    1.5069    0.0000 H   0  0  0  0  0  0  0  0  0  0  0  0
   -3.2271    0.1162    0.0000 H   0  0  0  0  0  0  0  0  0  0  0  0
  1  2  1  0  0  0  0
  1  3  1  0  0  0  0
  1 19  1  0  0  0  0
  1235  1  0  0  0  0
  2  4  1  0  0  0  0
  2236  1  0  0  0  0
  2237  1  0  0  0  0
  3238  1  0  0  0  0
  4  5  1  0  0  0  0
  4  7  1  0  0  0  0
  5  6  1  0  0  0  0
  5239  1  0  0  0  0
  5240  1  0  0  0  0
  6 11  1  0  0  0  0
  6241  1  0  0  0  0
  6242  1  0  0  0  0
  7  8  1  0  0  0  0
  7243  1  0  0  0  0
  7244  1  0  0  0  0
  8  9  1  0  0  0  0
  8245  1  0  0  0  0
  8246  1  0  0  0  0
  9 10  1  0  0  0  0
  9247  1  0  0  0  0
  9248  1  0  0  0  0
 10249  1  0  0  0  0
 10250  1  0  0  0  0
 10251  1  0  0  0  0
 11 12  1  0  0  0  0
 11252  1  0  0  0  0
 11253  1  0  0  0  0
 12254  1  0  0  0  0
 12255  1  0  0  0  0
 12256  1  0  0  0  0
 13 15  1  0  0  0  0
 13 28  2  0  0  0  0
 14 15  2  0  0  0  0
 14 21  1  0  0  0  0
 15 16  1  0  0  0  0
 16 17  2  0  0  0  0
 16257  1  0  0  0  0
 17 27  1  0  0  0  0
 17 18  1  0  0  0  0
 18 19  2  0  0  0  0
 18258  1  0  0  0  0
 19 14  1  0  0  0  0
 20 13  1  0  0  0  0
 20 21  1  0  0  0  0
 20 25  2  0  0  0  0
 21 22  2  0  0  0  0
 22 23  1  0  0  0  0
 22259  1  0  0  0  0
 23 24  2  0  0  0  0
 23260  1  0  0  0  0
 24 25  1  0  0  0  0
 24 26  1  0  0  0  0
 25261  1  0  0  0  0
 28 29  1  0  0  0  0
 28262  1  0  0  0  0
 29 30  2  0  0  0  0
 30 31  1  0  0  0  0
 30263  1  0  0  0  0
 31 32  2  0  0  0  0
 31264  1  0  0  0  0
 32 33  1  0  0  0  0
 32 35  1  0  0  0  0
 33 34  2  0  0  0  0
 33265  1  0  0  0  0
 34 29  1  0  0  0  0
 34266  1  0  0  0  0
 36267  1  0  0  0  0
 36268  1  0  0  0  0
 36269  1  0  0  0  0
 37 36  1  0  0  0  0
 38270  1  0  0  0  0
 38271  1  0  0  0  0
 38272  1  0  0  0  0
 41273  1  0  0  0  0
 41274  1  0  0  0  0
 41275  1  0  0  0  0
 44 43  1  0  0  0  0
 45 44  1  6  0  0  0
 45 56  1  0  0  0  0
 45 51  1  0  0  0  0
 45 46  1  0  0  0  0
 46 42  1  1  0  0  0
 46 47  1  0  0  0  0
 47 48  1  0  0  0  0
 48 41  1  6  0  0  0
 48 43  1  0  0  0  0
 48 49  1  0  0  0  0
 49276  1  0  0  0  0
 49277  1  0  0  0  0
 50 49  1  0  0  0  0
 50278  1  0  0  0  0
 50279  1  0  0  0  0
 51 40  1  6  0  0  0
 51 50  1  0  0  0  0
 52280  1  0  0  0  0
 52281  1  0  0  0  0
 52282  1  0  0  0  0
 53 51  1  0  0  0  0
 53 52  1  0  0  0  0
 53283  1  1  0  0  0
 54 53  1  0  0  0  0
 54284  1  0  0  0  0
 54285  1  0  0  0  0
 55 54  1  0  0  0  0
 55286  1  0  0  0  0
 55287  1  0  0  0  0
 56 39  1  6  0  0  0
 56 55  1  0  0  0  0
 57 38  1  0  0  0  0
 57 56  1  0  0  0  0
 57288  1  6  0  0  0
 58 37  1  0  0  0  0
 58 57  1  0  0  0  0
 58289  1  6  0  0  0
 59 46  1  0  0  0  0
 59 58  1  0  0  0  0
 60 61  1  0  0  0  0
 60 62  1  0  0  0  0
 60 78  1  0  0  0  0
 60290  1  0  0  0  0
 61 63  1  0  0  0  0
 61291  1  0  0  0  0
 61292  1  0  0  0  0
 62293  1  0  0  0  0
 63 64  1  0  0  0  0
 63 66  1  0  0  0  0
 64 65  1  0  0  0  0
 64294  1  0  0  0  0
 64295  1  0  0  0  0
 65 70  1  0  0  0  0
 65296  1  0  0  0  0
 65297  1  0  0  0  0
 66 67  1  0  0  0  0
 66298  1  0  0  0  0
 66299  1  0  0  0  0
 67 68  1  0  0  0  0
 67300  1  0  0  0  0
 67301  1  0  0  0  0
 68 69  1  0  0  0  0
 68302  1  0  0  0  0
 68303  1  0  0  0  0
 69304  1  0  0  0  0
 69305  1  0  0  0  0
 69306  1  0  0  0  0
 70 71  1  0  0  0  0
 70307  1  0  0  0  0
 70308  1  0  0  0  0
 71309  1  0  0  0  0
 71310  1  0  0  0  0
 71311  1  0  0  0  0
 72 74  1  0  0  0  0
 72 87  2  0  0  0  0
 73 74  2  0  0  0  0
 73 80  1  0  0  0  0
 74 75  1  0  0  0  0
 75 76  2  0  0  0  0
 75312  1  0  0  0  0
 76 86  1  0  0  0  0
 76 77  1  0  0  0  0
 77 78  2  0  0  0  0
 77313  1  0  0  0  0
 78 73  1  0  0  0  0
 79 72  1  0  0  0  0
 79 80  1  0  0  0  0
 79 84  2  0  0  0  0
 80 81  2  0  0  0  0
 81 82  1  0  0  0  0
 81314  1  0  0  0  0
 82 83  2  0  0  0  0
 82315  1  0  0  0  0
 83 84  1  0  0  0  0
 83 85  1  0  0  0  0
 84316  1  0  0  0  0
 87 88  1  0  0  0  0
 87317  1  0  0  0  0
 88 89  2  0  0  0  0
 89 90  1  0  0  0  0
 89318  1  0  0  0  0
 90 91  2  0  0  0  0
 90319  1  0  0  0  0
 91 92  1  0  0  0  0
 91 94  1  0  0  0  0
 92 93  2  0  0  0  0
 92320  1  0  0  0  0
 93 88  1  0  0  0  0
 93321  1  0  0  0  0
 95 96  1  0  0  0  0
 95 97  1  0  0  0  0
 95113  1  0  0  0  0
 95322  1  0  0  0  0
 96 98  1  0  0  0  0
 96323  1  0  0  0  0
 96324  1  0  0  0  0
 97325  1  0  0  0  0
 98 99  1  0  0  0  0
 98101  1  0  0  0  0
 99100  1  0  0  0  0
 99326  1  0  0  0  0
 99327  1  0  0  0  0
100105  1  0  0  0  0
100328  1  0  0  0  0
100329  1  0  0  0  0
101102  1  0  0  0  0
101330  1  0  0  0  0
101331  1  0  0  0  0
102103  1  0  0  0  0
102332  1  0  0  0  0
102333  1  0  0  0  0
103104  1  0  0  0  0
103334  1  0  0  0  0
103335  1  0  0  0  0
104336  1  0  0  0  0
104337  1  0  0  0  0
104338  1  0  0  0  0
105106  1  0  0  0  0
105339  1  0  0  0  0
105340  1  0  0  0  0
106341  1  0  0  0  0
106342  1  0  0  0  0
106343  1  0  0  0  0
107109  1  0  0  0  0
107122  2  0  0  0  0
108109  2  0  0  0  0
108115  1  0  0  0  0
109110  1  0  0  0  0
110111  2  0  0  0  0
110344  1  0  0  0  0
111121  1  0  0  0  0
111112  1  0  0  0  0
112113  2  0  0  0  0
112345  1  0  0  0  0
113108  1  0  0  0  0
114107  1  0  0  0  0
114115  1  0  0  0  0
114119  2  0  0  0  0
115116  2  0  0  0  0
116117  1  0  0  0  0
116346  1  0  0  0  0
117118  2  0  0  0  0
117347  1  0  0  0  0
118119  1  0  0  0  0
118120  1  0  0  0  0
119348  1  0  0  0  0
122123  1  0  0  0  0
122349  1  0  0  0  0
123124  2  0  0  0  0
124125  1  0  0  0  0
124350  1  0  0  0  0
125126  2  0  0  0  0
125351  1  0  0  0  0
126127  1  0  0  0  0
126129  1  0  0  0  0
127128  2  0  0  0  0
127352  1  0  0  0  0
128123  1  0  0  0  0
128353  1  0  0  0  0
130131  1  0  0  0  0
130132  1  0  0  0  0
130148  1  0  0  0  0
130354  1  0  0  0  0
131133  1  0  0  0  0
131355  1  0  0  0  0
131356  1  0  0  0  0
132357  1  0  0  0  0
133134  1  0  0  0  0
133136  1  0  0  0  0
134135  1  0  0  0  0
134358  1  0  0  0  0
134359  1  0  0  0  0
135140  1  0  0  0  0
135360  1  0  0  0  0
135361  1  0  0  0  0
136137  1  0  0  0  0
136362  1  0  0  0  0
136363  1  0  0  0  0
137138  1  0  0  0  0
137364  1  0  0  0  0
137365  1  0  0  0  0
138139  1  0  0  0  0
138366  1  0  0  0  0
138367  1  0  0  0  0
139368  1  0  0  0  0
139369  1  0  0  0  0
139370  1  0  0  0  0
140141  1  0  0  0  0
140371  1  0  0  0  0
140372  1  0  0  0  0
141373  1  0  0  0  0
141374  1  0  0  0  0
141375  1  0  0  0  0
142144  1  0  0  0  0
142157  2  0  0  0  0
143144  2  0  0  0  0
143150  1  0  0  0  0
144145  1  0  0  0  0
145146  2  0  0  0  0
145376  1  0  0  0  0
146156  1  0  0  0  0
146147  1  0  0  0  0
147148  2  0  0  0  0
147377  1  0  0  0  0
148143  1  0  0  0  0
149142  1  0  0  0  0
149150  1  0  0  0  0
149154  2  0  0  0  0
150151  2  0  0  0  0
151152  1  0  0  0  0
151378  1  0  0  0  0
152153  2  0  0  0  0
152379  1  0  0  0  0
153154  1  0  0  0  0
153155  1  0  0  0  0
154380  1  0  0  0  0
157158  1  0  0  0  0
157381  1  0  0  0  0
158159  2  0  0  0  0
159160  1  0  0  0  0
159382  1  0  0  0  0
160161  2  0  0  0  0
160383  1  0  0  0  0
161162  1  0  0  0  0
161164  1  0  0  0  0
162163  2  0  0  0  0
162384  1  0  0  0  0
163158  1  0  0  0  0
163385  1  0  0  0  0
165166  1  0  0  0  0
165167  1  0  0  0  0
165183  1  0  0  0  0
165386  1  0  0  0  0
166168  1  0  0  0  0
166387  1  0  0  0  0
166388  1  0  0  0  0
167389  1  0  0  0  0
168169  1  0  0  0  0
168171  1  0  0  0  0
169170  1  0  0  0  0
169390  1  0  0  0  0
169391  1  0  0  0  0
170175  1  0  0  0  0
170392  1  0  0  0  0
170393  1  0  0  0  0
171172  1  0  0  0  0
171394  1  0  0  0  0
171395  1  0  0  0  0
172173  1  0  0  0  0
172396  1  0  0  0  0
172397  1  0  0  0  0
173174  1  0  0  0  0
173398  1  0  0  0  0
173399  1  0  0  0  0
174400  1  0  0  0  0
174401  1  0  0  0  0
174402  1  0  0  0  0
175176  1  0  0  0  0
175403  1  0  0  0  0
175404  1  0  0  0  0
176405  1  0  0  0  0
176406  1  0  0  0  0
176407  1  0  0  0  0
177179  1  0  0  0  0
177192  2  0  0  0  0
178179  2  0  0  0  0
178185  1  0  0  0  0
179180  1  0  0  0  0
180181  2  0  0  0  0
180408  1  0  0  0  0
181191  1  0  0  0  0
181182  1  0  0  0  0
182183  2  0  0  0  0
182409  1  0  0  0  0
183178  1  0  0  0  0
184177  1  0  0  0  0
184185  1  0  0  0  0
184189  2  0  0  0  0
185186  2  0  0  0  0
186187  1  0  0  0  0
186410  1  0  0  0  0
187188  2  0  0  0  0
187411  1  0  0  0  0
188189  1  0  0  0  0
188190  1  0  0  0  0
189412  1  0  0  0  0
192193  1  0  0  0  0
192413  1  0  0  0  0
193194  2  0  0  0  0
194195  1  0  0  0  0
194414  1  0  0  0  0
195196  2  0  0  0  0
195415  1  0  0  0  0
196197  1  0  0  0  0
196199  1  0  0  0  0
197198  2  0  0  0  0
197416  1  0  0  0  0
198193  1  0  0  0  0
198417  1  0  0  0  0
200201  1  0  0  0  0
200202  1  0  0  0  0
200218  1  0  0  0  0
200418  1  0  0  0  0
201203  1  0  0  0  0
201419  1  0  0  0  0
201420  1  0  0  0  0
202421  1  0  0  0  0
203204  1  0  0  0  0
203206  1  0  0  0  0
204205  1  0  0  0  0
204422  1  0  0  0  0
204423  1  0  0  0  0
205210  1  0  0  0  0
205424  1  0  0  0  0
205425  1  0  0  0  0
206207  1  0  0  0  0
206426  1  0  0  0  0
206427  1  0  0  0  0
207208  1  0  0  0  0
207428  1  0  0  0  0
207429  1  0  0  0  0
208209  1  0  0  0  0
208430  1  0  0  0  0
208431  1  0  0  0  0
209432  1  0  0  0  0
209433  1  0  0  0  0
209434  1  0  0  0  0
210211  1  0  0  0  0
210435  1  0  0  0  0
210436  1  0  0  0  0
211437  1  0  0  0  0
211438  1  0  0  0  0
211439  1  0  0  0  0
212214  1  0  0  0  0
212227  2  0  0  0  0
213214  2  0  0  0  0
213220  1  0  0  0  0
214215  1  0  0  0  0
215216  2  0  0  0  0
215440  1  0  0  0  0
216226  1  0  0  0  0
216217  1  0  0  0  0
217218  2  0  0  0  0
217441  1  0  0  0  0
218213  1  0  0  0  0
219212  1  0  0  0  0
219220  1  0  0  0  0
219224  2  0  0  0  0
220221  2  0  0  0  0
221222  1  0  0  0  0
221442  1  0  0  0  0
222223  2  0  0  0  0
222443  1  0  0  0  0
223224  1  0  0  0  0
223225  1  0  0  0  0
224444  1  0  0  0  0
227228  1  0  0  0  0
227445  1  0  0  0  0
228229  2  0  0  0  0
229230  1  0  0  0  0
229446  1  0  0  0  0
230231  2  0  0  0  0
230447  1  0  0  0  0
231232  1  0  0  0  0
231234  1  0  0  0  0
232233  2  0  0  0  0
232448  1  0  0  0  0
233228  1  0  0  0  0
233449  1  0  0  0  0
M  END
>  <DRUGBANK_ID>
DB13085

>  <COMMON_NAME>
Lumefantrine co-artemether

>  <CAS_NUMBER>
141204-94-6

>  <UNII>
5T2U51A0MW

>  <SYNONYMS>
Artemether/lumefantrine; Lumefantrine co-artemether

$$$$
