1512
 OpenBabel10282417072D

 43 47  0  0  1  0  0  0  0  0999 V2000
    1.9356    0.0458    0.0000 O   0  0  0  0  0  0  0  0  0  0  0  0
    4.4727   -1.4895    0.0000 O   0  0  0  0  0  0  0  0  0  0  0  0
    1.7349   -2.0838    0.0000 O   0  0  0  0  0  0  0  0  0  0  0  0
    1.7349    2.0838    0.0000 O   0  0  0  0  0  0  0  0  0  0  0  0
    5.3440   -0.8250    0.0000 N   0  0  0  0  0  0  0  0  0  0  0  0
    3.2006   -0.4125    0.0000 C   0  0  1  0  0  0  0  0  0  0  0  0
    3.9151   -0.8250    0.0000 C   0  0  1  0  0  0  0  0  0  0  0  0
    4.6296   -0.4125    0.0000 C   0  0  1  0  0  0  0  0  0  0  0  0
    2.4861   -0.8250    0.0000 C   0  0  2  0  0  0  0  0  0  0  0  0
    3.6773    0.1925    0.0000 C   0  0  0  0  0  0  0  0  0  0  0  0
    3.2006    0.4125    0.0000 C   0  0  0  0  0  0  0  0  0  0  0  0
    3.9151   -1.6501    0.0000 C   0  0  0  0  0  0  0  0  0  0  0  0
    2.4861   -1.6501    0.0000 C   0  0  2  0  0  0  0  0  0  0  0  0
    4.6296    0.4125    0.0000 C   0  0  0  0  0  0  0  0  0  0  0  0
    3.2006   -2.0625    0.0000 C   0  0  0  0  0  0  0  0  0  0  0  0
    4.8506    0.1925    0.0000 C   0  0  0  0  0  0  0  0  0  0  0  0
    3.9151    0.8250    0.0000 C   0  0  0  0  0  0  0  0  0  0  0  0
    2.4861    0.8250    0.0000 C   0  0  0  0  0  0  0  0  0  0  0  0
    5.9350   -1.4601    0.0000 C   0  0  0  0  0  0  0  0  0  0  0  0
    3.9151    1.6500    0.0000 C   0  0  0  0  0  0  0  0  0  0  0  0
    2.4861    1.6500    0.0000 C   0  0  0  0  0  0  0  0  0  0  0  0
    3.2006    2.0625    0.0000 C   0  0  0  0  0  0  0  0  0  0  0  0
    4.8675   -1.0645    0.0000 H   0  0  0  0  0  0  0  0  0  0  0  0
    1.8196   -1.0180    0.0000 H   0  0  0  0  0  0  0  0  0  0  0  0
    4.1410   -2.4010    0.0000 H   0  0  0  0  0  0  0  0  0  0  0  0
    0.8949   -1.5988    0.0000 H   0  0  0  0  0  0  0  0  0  0  0  0
    1.7350    3.0208    0.0000 H   0  0  0  0  0  0  0  0  0  0  0  0
    3.2102    1.1552    0.0000 H   0  0  0  0  0  0  0  0  0  0  0  0
    4.2452    1.0993    0.0000 H   0  0  0  0  0  0  0  0  0  0  0  0
    4.8417   -2.1852    0.0000 H   0  0  0  0  0  0  0  0  0  0  0  0
    3.9150   -2.7201    0.0000 H   0  0  0  0  0  0  0  0  0  0  0  0
    1.5595   -1.1151    0.0000 H   0  0  0  0  0  0  0  0  0  0  0  0
    5.5562    0.9475    0.0000 H   0  0  0  0  0  0  0  0  0  0  0  0
    4.6296    1.4825    0.0000 H   0  0  0  0  0  0  0  0  0  0  0  0
    3.2006   -3.1325    0.0000 H   0  0  0  0  0  0  0  0  0  0  0  0
    2.2740   -2.5976    0.0000 H   0  0  0  0  0  0  0  0  0  0  0  0
    5.4186    1.0993    0.0000 H   0  0  0  0  0  0  0  0  0  0  0  0
    4.3324    1.1286    0.0000 H   0  0  0  0  0  0  0  0  0  0  0  0
    5.6211   -2.4830    0.0000 H   0  0  0  0  0  0  0  0  0  0  0  0
    6.9778   -1.2205    0.0000 H   0  0  0  0  0  0  0  0  0  0  0  0
    6.6639   -2.2434    0.0000 H   0  0  0  0  0  0  0  0  0  0  0  0
    4.8088    2.1660    0.0000 H   0  0  0  0  0  0  0  0  0  0  0  0
    3.2006    3.0945    0.0000 H   0  0  0  0  0  0  0  0  0  0  0  0
  1  9  1  0  0  0  0
  1 18  1  0  0  0  0
  2 25  1  0  0  0  0
  3 26  1  0  0  0  0
  4 21  1  0  0  0  0
  4 27  1  0  0  0  0
  5  8  1  0  0  0  0
  5 16  1  0  0  0  0
  5 19  1  0  0  0  0
  6  7  1  0  0  0  0
  6  9  1  0  0  0  0
  6 10  1  0  0  0  0
  6 11  1  6  0  0  0
  7  2  1  1  0  0  0
  7  8  1  0  0  0  0
  7 12  1  0  0  0  0
  8 14  1  0  0  0  0
  8 23  1  6  0  0  0
  9 13  1  0  0  0  0
  9 24  1  1  0  0  0
 10 16  1  0  0  0  0
 10 28  1  0  0  0  0
 10 29  1  0  0  0  0
 11 17  2  0  0  0  0
 11 18  1  0  0  0  0
 12 15  1  0  0  0  0
 12 30  1  0  0  0  0
 12 31  1  0  0  0  0
 13  3  1  0  0  0  0
 13 15  1  0  0  0  0
 13 32  1  1  0  0  0
 14 17  1  0  0  0  0
 14 33  1  0  0  0  0
 14 34  1  0  0  0  0
 15 35  1  0  0  0  0
 15 36  1  0  0  0  0
 16 37  1  0  0  0  0
 16 38  1  0  0  0  0
 17 20  1  0  0  0  0
 18 21  2  0  0  0  0
 19 39  1  0  0  0  0
 19 40  1  0  0  0  0
 19 41  1  0  0  0  0
 20 22  2  0  0  0  0
 20 42  1  0  0  0  0
 21 22  1  0  0  0  0
 22 43  1  0  0  0  0
M  END
>  <DRUGBANK_ID>
DB01512

>  <COMMON_NAME>
Hydromorphinol

>  <CAS_NUMBER>
2183-56-4

>  <UNII>
1O00P9X5C1

>  <SYNONYMS>
Hydromorphinol

$$$$
