P2N
 OpenBabel10282417072D

 42 43  0  0  0  0  0  0  0  0999 V2000
   -0.7735   -0.9064    0.0000 C   0  0  0  0  0  0  0  0  0  0  0  0
   -1.4880   -0.4939    0.0000 C   0  0  0  0  0  0  0  0  0  0  0  0
   -2.2024   -0.9064    0.0000 C   0  0  0  0  0  0  0  0  0  0  0  0
   -2.9169   -0.4939    0.0000 C   0  0  0  0  0  0  0  0  0  0  0  0
   -2.9169    0.3311    0.0000 C   0  0  0  0  0  0  0  0  0  0  0  0
   -2.2024    0.7436    0.0000 C   0  0  0  0  0  0  0  0  0  0  0  0
   -1.4880    0.3311    0.0000 C   0  0  0  0  0  0  0  0  0  0  0  0
   -0.7735    0.7436    0.0000 C   0  0  0  0  0  0  0  0  0  0  0  0
   -0.7735    1.5686    0.0000 C   0  0  0  0  0  0  0  0  0  0  0  0
   -0.0590    1.9811    0.0000 C   0  0  0  0  0  0  0  0  0  0  0  0
    0.6555    1.5686    0.0000 C   0  0  0  0  0  0  0  0  0  0  0  0
    0.6555    0.7436    0.0000 C   0  0  0  0  0  0  0  0  0  0  0  0
    1.3699    0.3311    0.0000 C   0  0  0  0  0  0  0  0  0  0  0  0
    1.3699   -0.4939    0.0000 C   0  0  0  0  0  0  0  0  0  0  0  0
    0.6555   -0.9064    0.0000 C   0  0  0  0  0  0  0  0  0  0  0  0
    0.6555   -1.7314    0.0000 C   0  0  0  0  0  0  0  0  0  0  0  0
   -0.0590   -2.1439    0.0000 C   0  0  0  0  0  0  0  0  0  0  0  0
   -0.7735   -1.7314    0.0000 O   0  0  0  0  0  0  0  0  0  0  0  0
   -0.0590   -0.4939    0.0000 O   0  0  0  0  0  0  0  0  0  0  0  0
   -2.2024   -1.7314    0.0000 O   0  0  0  0  0  0  0  0  0  0  0  0
   -3.6314    0.7436    0.0000 O   0  0  0  0  0  0  0  0  0  0  0  0
   -2.2024    1.5686    0.0000 Cl  0  0  0  0  0  0  0  0  0  0  0  0
   -1.4880    1.9811    0.0000 O   0  0  0  0  0  0  0  0  0  0  0  0
   -3.8106   -1.0099    0.0000 H   0  0  0  0  0  0  0  0  0  0  0  0
    0.1531    0.2086    0.0000 H   0  0  0  0  0  0  0  0  0  0  0  0
    0.1531    1.2786    0.0000 H   0  0  0  0  0  0  0  0  0  0  0  0
   -0.0590    3.0511    0.0000 H   0  0  0  0  0  0  0  0  0  0  0  0
    0.8676    2.5161    0.0000 H   0  0  0  0  0  0  0  0  0  0  0  0
    1.5821    2.1036    0.0000 H   0  0  0  0  0  0  0  0  0  0  0  0
    1.5821    1.0336    0.0000 H   0  0  0  0  0  0  0  0  0  0  0  0
   -0.2712    0.2086    0.0000 H   0  0  0  0  0  0  0  0  0  0  0  0
    0.6555   -0.3264    0.0000 H   0  0  0  0  0  0  0  0  0  0  0  0
    2.2966    0.8661    0.0000 H   0  0  0  0  0  0  0  0  0  0  0  0
    2.2965   -0.2039    0.0000 H   0  0  0  0  0  0  0  0  0  0  0  0
    2.2636   -1.0099    0.0000 H   0  0  0  0  0  0  0  0  0  0  0  0
   -0.2382   -0.3904    0.0000 H   0  0  0  0  0  0  0  0  0  0  0  0
    1.5821   -2.2664    0.0000 H   0  0  0  0  0  0  0  0  0  0  0  0
    0.6555   -2.8014    0.0000 H   0  0  0  0  0  0  0  0  0  0  0  0
   -0.0590   -3.2139    0.0000 H   0  0  0  0  0  0  0  0  0  0  0  0
   -0.9856   -2.6789    0.0000 H   0  0  0  0  0  0  0  0  0  0  0  0
   -3.0139   -2.1999    0.0000 H   0  0  0  0  0  0  0  0  0  0  0  0
   -3.6314    1.6806    0.0000 H   0  0  0  0  0  0  0  0  0  0  0  0
  1  2  1  0  0  0  0
  1 18  1  0  0  0  0
  1 19  2  0  0  0  0
  2  3  2  0  0  0  0
  2  7  1  0  0  0  0
  3  4  1  0  0  0  0
  3 20  1  0  0  0  0
  4  5  2  0  0  0  0
  4 24  1  0  0  0  0
  5  6  1  0  0  0  0
  5 21  1  0  0  0  0
  6  7  2  0  0  0  0
  6 22  1  0  0  0  0
  7  8  1  0  0  0  0
  8  9  1  0  0  0  0
  8 25  1  0  0  0  0
  8 26  1  0  0  0  0
  9 10  1  0  0  0  0
  9 23  2  0  0  0  0
 10 11  1  0  0  0  0
 10 27  1  0  0  0  0
 10 28  1  0  0  0  0
 11 12  1  0  0  0  0
 11 29  1  0  0  0  0
 11 30  1  0  0  0  0
 12 13  1  0  0  0  0
 12 31  1  0  0  0  0
 12 32  1  0  0  0  0
 13 14  1  0  0  0  0
 13 33  1  0  0  0  0
 13 34  1  0  0  0  0
 14 15  2  0  0  0  0
 14 35  1  0  0  0  0
 15 16  1  0  0  0  0
 15 36  1  0  0  0  0
 16 17  1  0  0  0  0
 16 37  1  0  0  0  0
 16 38  1  0  0  0  0
 17 18  1  0  0  0  0
 17 39  1  0  0  0  0
 17 40  1  0  0  0  0
 20 41  1  0  0  0  0
 21 42  1  0  0  0  0
M  END
>  <DRUGBANK_ID>
DB08346

>  <COMMON_NAME>
(5Z)-13-CHLORO-14,16-DIHYDROXY-3,4,7,8,9,10-HEXAHYDRO-1H-2-BENZOXACYCLOTETRADECINE-1,11(12H)-DIONE

$$$$
