
 OpenBabel10282417072D

 77 80  0  0  0  0  0  0  0  0999 V2000
    3.2441    1.1612    0.0000 C   0  0  0  0  0  0  0  0  0  0  0  0
    2.4191    1.1612    0.0000 C   0  0  0  0  0  0  0  0  0  0  0  0
    2.0066    1.8756    0.0000 C   0  0  0  0  0  0  0  0  0  0  0  0
    2.4191    2.5901    0.0000 C   0  0  0  0  0  0  0  0  0  0  0  0
    3.2441    2.5901    0.0000 C   0  0  0  0  0  0  0  0  0  0  0  0
    3.6566    1.8756    0.0000 C   0  0  0  0  0  0  0  0  0  0  0  0
    2.0066    3.3046    0.0000 C   0  0  0  0  0  0  0  0  0  0  0  0
    1.2922    2.8921    0.0000 F   0  0  0  0  0  0  0  0  0  0  0  0
    2.7211    3.7171    0.0000 F   0  0  0  0  0  0  0  0  0  0  0  0
    1.5941    4.0190    0.0000 P   0  0  0  0  0  0  0  0  0  0  0  0
    1.1816    4.7335    0.0000 O   0  0  0  0  0  0  0  0  0  0  0  0
    0.8797    3.6065    0.0000 O   0  0  0  0  0  0  0  0  0  0  0  0
    2.3086    4.4315    0.0000 O   0  0  0  0  0  0  0  0  0  0  0  0
    3.6566    0.4467    0.0000 C   0  0  0  0  0  0  0  0  0  0  0  0
    3.2441   -0.2677    0.0000 C   0  0  1  0  0  0  0  0  0  0  0  0
    2.4191   -0.2677    0.0000 C   0  0  0  0  0  0  0  0  0  0  0  0
    2.0066   -0.9821    0.0000 N   0  0  0  0  0  0  0  0  0  0  0  0
    2.0066    0.4467    0.0000 O   0  0  0  0  0  0  0  0  0  0  0  0
    3.6566   -0.9821    0.0000 N   0  0  0  0  0  0  0  0  0  0  0  0
    4.4816   -0.9821    0.0000 C   0  0  0  0  0  0  0  0  0  0  0  0
    4.8942   -0.2677    0.0000 O   0  0  0  0  0  0  0  0  0  0  0  0
    4.8942   -1.6966    0.0000 C   0  0  0  0  0  0  0  0  0  0  0  0
    1.1816   -0.9821    0.0000 C   0  0  2  0  0  0  0  0  0  0  0  0
    0.8237   -1.7254    0.0000 C   0  0  0  0  0  0  0  0  0  0  0  0
    0.0194   -1.9090    0.0000 N   0  0  0  0  0  0  0  0  0  0  0  0
    1.3381   -2.3705    0.0000 O   0  0  0  0  0  0  0  0  0  0  0  0
   -0.6255   -1.3946    0.0000 C   0  0  0  0  0  0  0  0  0  0  0  0
   -0.6255   -0.5696    0.0000 C   0  0  0  0  0  0  0  0  0  0  0  0
   -0.1641   -2.7133    0.0000 C   0  0  0  0  0  0  0  0  0  0  0  0
   -0.9525   -2.9565    0.0000 C   0  0  0  0  0  0  0  0  0  0  0  0
    0.0194   -0.0553    0.0000 C   0  0  0  0  0  0  0  0  0  0  0  0
    0.8237   -0.2388    0.0000 C   0  0  0  0  0  0  0  0  0  0  0  0
   -1.1360   -3.7608    0.0000 C   0  0  0  0  0  0  0  0  0  0  0  0
   -1.9244   -4.0040    0.0000 C   0  0  0  0  0  0  0  0  0  0  0  0
   -2.5292   -3.4429    0.0000 C   0  0  0  0  0  0  0  0  0  0  0  0
   -2.3456   -2.6385    0.0000 C   0  0  0  0  0  0  0  0  0  0  0  0
   -1.5572   -2.3954    0.0000 C   0  0  0  0  0  0  0  0  0  0  0  0
   -3.3175   -3.6860    0.0000 C   0  0  0  0  0  0  0  0  0  0  0  0
   -3.5011   -4.4903    0.0000 C   0  0  0  0  0  0  0  0  0  0  0  0
   -4.2894   -4.7335    0.0000 C   0  0  0  0  0  0  0  0  0  0  0  0
   -4.8942   -4.1724    0.0000 C   0  0  0  0  0  0  0  0  0  0  0  0
   -4.7106   -3.3681    0.0000 C   0  0  0  0  0  0  0  0  0  0  0  0
   -3.9223   -3.1249    0.0000 C   0  0  0  0  0  0  0  0  0  0  0  0
    1.9031    0.2675    0.0000 H   0  0  0  0  0  0  0  0  0  0  0  0
    0.9746    1.8756    0.0000 H   0  0  0  0  0  0  0  0  0  0  0  0
    3.7601    3.4838    0.0000 H   0  0  0  0  0  0  0  0  0  0  0  0
    4.6886    1.8756    0.0000 H   0  0  0  0  0  0  0  0  0  0  0  0
    0.0396    4.0915    0.0000 H   0  0  0  0  0  0  0  0  0  0  0  0
    3.1486    3.9465    0.0000 H   0  0  0  0  0  0  0  0  0  0  0  0
    4.7266    0.4467    0.0000 H   0  0  0  0  0  0  0  0  0  0  0  0
    4.1916   -0.4800    0.0000 H   0  0  0  0  0  0  0  0  0  0  0  0
    4.3141   -0.2677    0.0000 H   0  0  0  0  0  0  0  0  0  0  0  0
    2.4988   -1.8347    0.0000 H   0  0  0  0  0  0  0  0  0  0  0  0
    3.1644   -1.8347    0.0000 H   0  0  0  0  0  0  0  0  0  0  0  0
    4.3593   -2.6233    0.0000 H   0  0  0  0  0  0  0  0  0  0  0  0
    5.9642   -1.6965    0.0000 H   0  0  0  0  0  0  0  0  0  0  0  0
    5.4293   -2.6232    0.0000 H   0  0  0  0  0  0  0  0  0  0  0  0
    1.7509   -1.8881    0.0000 H   0  0  0  0  0  0  0  0  0  0  0  0
   -1.5896   -1.8588    0.0000 H   0  0  0  0  0  0  0  0  0  0  0  0
   -1.5315   -0.8253    0.0000 H   0  0  0  0  0  0  0  0  0  0  0  0
   -1.5895   -0.1053    0.0000 H   0  0  0  0  0  0  0  0  0  0  0  0
   -0.7453    0.4937    0.0000 H   0  0  0  0  0  0  0  0  0  0  0  0
    0.6203   -3.4410    0.0000 H   0  0  0  0  0  0  0  0  0  0  0  0
   -0.4022   -3.7565    0.0000 H   0  0  0  0  0  0  0  0  0  0  0  0
   -0.2187    0.9879    0.0000 H   0  0  0  0  0  0  0  0  0  0  0  0
    0.7760    0.7014    0.0000 H   0  0  0  0  0  0  0  0  0  0  0  0
    1.4908    0.5978    0.0000 H   0  0  0  0  0  0  0  0  0  0  0  0
    0.4702    0.7711    0.0000 H   0  0  0  0  0  0  0  0  0  0  0  0
   -0.3795   -4.4627    0.0000 H   0  0  0  0  0  0  0  0  0  0  0  0
   -2.1540   -5.0101    0.0000 H   0  0  0  0  0  0  0  0  0  0  0  0
   -3.1021   -1.9365    0.0000 H   0  0  0  0  0  0  0  0  0  0  0  0
   -1.3275   -1.3893    0.0000 H   0  0  0  0  0  0  0  0  0  0  0  0
   -2.7446   -5.1922    0.0000 H   0  0  0  0  0  0  0  0  0  0  0  0
   -4.5190   -5.7396    0.0000 H   0  0  0  0  0  0  0  0  0  0  0  0
   -5.8803   -4.4766    0.0000 H   0  0  0  0  0  0  0  0  0  0  0  0
   -5.4671   -2.6662    0.0000 H   0  0  0  0  0  0  0  0  0  0  0  0
   -3.6927   -2.1188    0.0000 H   0  0  0  0  0  0  0  0  0  0  0  0
  1  2  1  0  0  0  0
  1  6  2  0  0  0  0
  1 14  1  0  0  0  0
  2  3  2  0  0  0  0
  2 44  1  0  0  0  0
  3  4  1  0  0  0  0
  3 45  1  0  0  0  0
  4  5  2  0  0  0  0
  5  6  1  0  0  0  0
  5 46  1  0  0  0  0
  6 47  1  0  0  0  0
  7  4  1  0  0  0  0
  7  8  1  0  0  0  0
  7  9  1  0  0  0  0
  7 10  1  0  0  0  0
 11 10  2  0  0  0  0
 12 10  1  0  0  0  0
 12 48  1  0  0  0  0
 13 10  1  0  0  0  0
 13 49  1  0  0  0  0
 14 15  1  0  0  0  0
 14 50  1  0  0  0  0
 14 51  1  0  0  0  0
 15 16  1  0  0  0  0
 15 19  1  0  0  0  0
 15 52  1  1  0  0  0
 16 17  1  0  0  0  0
 16 18  2  0  0  0  0
 17 53  1  0  0  0  0
 19 54  1  0  0  0  0
 20 19  1  0  0  0  0
 20 21  2  0  0  0  0
 20 22  1  0  0  0  0
 22 55  1  0  0  0  0
 22 56  1  0  0  0  0
 22 57  1  0  0  0  0
 23 17  1  0  0  0  0
 23 24  1  0  0  0  0
 23 32  1  0  0  0  0
 23 58  1  1  0  0  0
 24 25  1  0  0  0  0
 24 26  2  0  0  0  0
 27 25  1  0  0  0  0
 27 28  1  0  0  0  0
 27 59  1  0  0  0  0
 27 60  1  0  0  0  0
 28 31  1  0  0  0  0
 28 61  1  0  0  0  0
 28 62  1  0  0  0  0
 29 25  1  0  0  0  0
 29 30  1  0  0  0  0
 29 63  1  0  0  0  0
 29 64  1  0  0  0  0
 30 33  1  0  0  0  0
 30 37  2  0  0  0  0
 31 32  1  0  0  0  0
 31 65  1  0  0  0  0
 31 66  1  0  0  0  0
 32 67  1  0  0  0  0
 32 68  1  0  0  0  0
 33 34  2  0  0  0  0
 33 69  1  0  0  0  0
 34 35  1  0  0  0  0
 34 70  1  0  0  0  0
 35 36  2  0  0  0  0
 35 38  1  0  0  0  0
 36 37  1  0  0  0  0
 36 71  1  0  0  0  0
 37 72  1  0  0  0  0
 38 39  1  0  0  0  0
 38 43  2  0  0  0  0
 39 40  2  0  0  0  0
 39 73  1  0  0  0  0
 40 41  1  0  0  0  0
 40 74  1  0  0  0  0
 41 42  2  0  0  0  0
 41 75  1  0  0  0  0
 42 43  1  0  0  0  0
 42 76  1  0  0  0  0
 43 77  1  0  0  0  0
M  END
>  <DRUGBANK_ID>
DB03591

>  <SECONDARY_ACCESSION_NUMBERS>
EXPT00322

>  <COMMON_NAME>
RU82209

$$$$
