939
 OpenBabel10282417072D

 30 31  0  0  0  0  0  0  0  0999 V2000
    1.6500   -0.9529    0.0000 Cl  0  0  0  0  0  0  0  0  0  0  0  0
    4.5080   -0.9529    0.0000 Cl  0  0  0  0  0  0  0  0  0  0  0  0
    3.0791    2.3472    0.0000 O   0  0  0  0  0  0  0  0  0  0  0  0
    2.3645    1.1096    0.0000 O   0  0  0  0  0  0  0  0  0  0  0  0
    3.0791   -0.1279    0.0000 N   0  0  0  0  0  0  0  0  0  0  0  0
    3.0791   -0.9529    0.0000 C   0  0  0  0  0  0  0  0  0  0  0  0
    3.7935    0.2846    0.0000 C   0  0  0  0  0  0  0  0  0  0  0  0
    2.3645   -2.1904    0.0000 C   0  0  0  0  0  0  0  0  0  0  0  0
    2.3645   -1.3654    0.0000 C   0  0  0  0  0  0  0  0  0  0  0  0
    3.7935    1.1096    0.0000 C   0  0  0  0  0  0  0  0  0  0  0  0
    3.7935   -1.3654    0.0000 C   0  0  0  0  0  0  0  0  0  0  0  0
    3.0791   -2.6029    0.0000 C   0  0  0  0  0  0  0  0  0  0  0  0
    4.5080   -0.1279    0.0000 C   0  0  0  0  0  0  0  0  0  0  0  0
    3.7935   -2.1904    0.0000 C   0  0  0  0  0  0  0  0  0  0  0  0
    4.5080    1.5222    0.0000 C   0  0  0  0  0  0  0  0  0  0  0  0
    1.6500   -2.6029    0.0000 C   0  0  0  0  0  0  0  0  0  0  0  0
    5.2224    0.2846    0.0000 C   0  0  0  0  0  0  0  0  0  0  0  0
    5.2224    1.1096    0.0000 C   0  0  0  0  0  0  0  0  0  0  0  0
    3.0791    1.5222    0.0000 C   0  0  0  0  0  0  0  0  0  0  0  0
    3.8906    2.8157    0.0000 H   0  0  0  0  0  0  0  0  0  0  0  0
    2.2265    0.3643    0.0000 H   0  0  0  0  0  0  0  0  0  0  0  0
    3.0792   -3.6349    0.0000 H   0  0  0  0  0  0  0  0  0  0  0  0
    4.5080   -1.1599    0.0000 H   0  0  0  0  0  0  0  0  0  0  0  0
    4.6872   -2.7064    0.0000 H   0  0  0  0  0  0  0  0  0  0  0  0
    4.5080    2.5542    0.0000 H   0  0  0  0  0  0  0  0  0  0  0  0
    0.7234   -2.0679    0.0000 H   0  0  0  0  0  0  0  0  0  0  0  0
    1.6500   -3.6729    0.0000 H   0  0  0  0  0  0  0  0  0  0  0  0
    0.7233   -3.1379    0.0000 H   0  0  0  0  0  0  0  0  0  0  0  0
    6.1161   -0.2314    0.0000 H   0  0  0  0  0  0  0  0  0  0  0  0
    6.1162    1.6255    0.0000 H   0  0  0  0  0  0  0  0  0  0  0  0
  1  9  1  0  0  0  0
  2 11  1  0  0  0  0
  3 19  1  0  0  0  0
  3 20  1  0  0  0  0
  4 19  2  0  0  0  0
  5  6  1  0  0  0  0
  5  7  1  0  0  0  0
  5 21  1  0  0  0  0
  6  9  1  0  0  0  0
  6 11  2  0  0  0  0
  7 10  1  0  0  0  0
  7 13  2  0  0  0  0
  8  9  2  0  0  0  0
  8 12  1  0  0  0  0
  8 16  1  0  0  0  0
 10 15  2  0  0  0  0
 10 19  1  0  0  0  0
 11 14  1  0  0  0  0
 12 14  2  0  0  0  0
 12 22  1  0  0  0  0
 13 17  1  0  0  0  0
 13 23  1  0  0  0  0
 14 24  1  0  0  0  0
 15 18  1  0  0  0  0
 15 25  1  0  0  0  0
 16 26  1  0  0  0  0
 16 27  1  0  0  0  0
 16 28  1  0  0  0  0
 17 18  2  0  0  0  0
 17 29  1  0  0  0  0
 18 30  1  0  0  0  0
M  END
>  <DRUGBANK_ID>
DB00939

>  <SECONDARY_ACCESSION_NUMBERS>
APRD01090

>  <COMMON_NAME>
Meclofenamic acid

>  <CAS_NUMBER>
644-62-2

>  <UNII>
48I5LU4ZWD

>  <SYNONYMS>
Acide méclofénamique; ácido meclofenámico; Acidum meclofenamicum; Meclofenamate; Meclofenamic acid; N-(2,6-dichloro-3-methylphenyl)anthranilic acid; N-(2,6-dichloro-m-tolyl)anthranilic acid; N-(3-methyl-2,6-dichlorophenyl)anthranilic acid

$$$$
