
 OpenBabel10282417072D

 32 35  0  0  0  0  0  0  0  0999 V2000
   -2.6768   -0.7746    0.0000 N   0  0  0  0  0  0  0  0  0  0  0  0
   -1.8922   -0.5196    0.0000 C   0  0  1  0  0  0  0  0  0  0  0  0
   -1.4072   -1.1870    0.0000 C   0  0  0  0  0  0  0  0  0  0  0  0
   -1.8921   -1.8544    0.0000 C   0  0  0  0  0  0  0  0  0  0  0  0
   -2.6768   -1.5996    0.0000 C   0  0  0  0  0  0  0  0  0  0  0  0
   -0.4632   -0.5195    0.0000 N   0  0  0  0  0  0  0  0  0  0  0  0
   -1.1777   -0.1070    0.0000 C   0  0  0  0  0  0  0  0  0  0  0  0
   -1.1778    0.7179    0.0000 N   0  0  0  0  0  0  0  0  0  0  0  0
   -0.4633    1.1304    0.0000 C   0  0  0  0  0  0  0  0  0  0  0  0
    0.2512   -0.1070    0.0000 C   0  0  0  0  0  0  0  0  0  0  0  0
    0.2511    0.7180    0.0000 C   0  0  0  0  0  0  0  0  0  0  0  0
    1.0358    0.9729    0.0000 O   0  0  0  0  0  0  0  0  0  0  0  0
    1.0358   -0.3619    0.0000 C   0  0  0  0  0  0  0  0  0  0  0  0
    1.5207    0.3055    0.0000 C   0  0  0  0  0  0  0  0  0  0  0  0
    2.3412    0.2193    0.0000 C   0  0  0  0  0  0  0  0  0  0  0  0
    2.6768   -0.5343    0.0000 C   0  0  0  0  0  0  0  0  0  0  0  0
    2.1919   -1.2017    0.0000 C   0  0  0  0  0  0  0  0  0  0  0  0
    1.3714   -1.1156    0.0000 C   0  0  0  0  0  0  0  0  0  0  0  0
    2.5275   -1.9554    0.0000 Cl  0  0  0  0  0  0  0  0  0  0  0  0
   -0.4633    1.9554    0.0000 O   0  0  0  0  0  0  0  0  0  0  0  0
   -2.2278    0.2340    0.0000 H   0  0  0  0  0  0  0  0  0  0  0  0
   -3.5020   -0.1751    0.0000 H   0  0  0  0  0  0  0  0  0  0  0  0
   -0.3372   -1.1869    0.0000 H   0  0  0  0  0  0  0  0  0  0  0  0
   -0.9214   -2.1404    0.0000 H   0  0  0  0  0  0  0  0  0  0  0  0
   -1.5614   -2.8720    0.0000 H   0  0  0  0  0  0  0  0  0  0  0  0
   -0.8353   -2.0217    0.0000 H   0  0  0  0  0  0  0  0  0  0  0  0
   -3.5424   -2.2286    0.0000 H   0  0  0  0  0  0  0  0  0  0  0  0
   -3.6302   -1.1139    0.0000 H   0  0  0  0  0  0  0  0  0  0  0  0
   -2.0304    1.2101    0.0000 H   0  0  0  0  0  0  0  0  0  0  0  0
    2.9477    1.0542    0.0000 H   0  0  0  0  0  0  0  0  0  0  0  0
    3.7032   -0.6421    0.0000 H   0  0  0  0  0  0  0  0  0  0  0  0
    0.7649   -1.9506    0.0000 H   0  0  0  0  0  0  0  0  0  0  0  0
  1  2  1  0  0  0  0
  1 22  1  0  0  0  0
  2  3  1  0  0  0  0
  2 21  1  1  0  0  0
  3  4  1  0  0  0  0
  3 23  1  0  0  0  0
  3 24  1  0  0  0  0
  4  5  1  0  0  0  0
  4 25  1  0  0  0  0
  4 26  1  0  0  0  0
  5  1  1  0  0  0  0
  5 27  1  0  0  0  0
  5 28  1  0  0  0  0
  6  7  2  0  0  0  0
  7  8  1  0  0  0  0
  7  2  1  0  0  0  0
  8  9  1  0  0  0  0
  8 29  1  0  0  0  0
  9 20  2  0  0  0  0
 10  6  1  0  0  0  0
 10 11  2  0  0  0  0
 11 12  1  0  0  0  0
 11  9  1  0  0  0  0
 12 14  1  0  0  0  0
 13 10  1  0  0  0  0
 13 14  2  0  0  0  0
 14 15  1  0  0  0  0
 15 16  2  0  0  0  0
 15 30  1  0  0  0  0
 16 17  1  0  0  0  0
 16 31  1  0  0  0  0
 17 18  2  0  0  0  0
 17 19  1  0  0  0  0
 18 13  1  0  0  0  0
 18 32  1  0  0  0  0
M  END
>  <DRUGBANK_ID>
DB12357

>  <COMMON_NAME>
BMS-863233

>  <CAS_NUMBER>
1169558-38-6

>  <UNII>
8QK62S7492

$$$$
