
 OpenBabel10282417072D

 46 47  0  0  0  0  0  0  0  0999 V2000
   -0.6660   -0.4188    0.0000 C   0  0  3  0  0  0  0  0  0  0  0  0
    0.0505   -0.0139    0.0000 C   0  0  0  0  0  0  0  0  0  0  0  0
    0.8589    0.0000    0.0000 C   0  0  0  0  0  0  0  0  0  0  0  0
    1.6872    0.0032    0.0000 C   0  0  0  0  0  0  0  0  0  0  0  0
    2.0970   -0.7147    0.0000 N   0  0  0  0  0  0  0  0  0  0  0  0
    2.0968    0.7147    0.0000 O   0  0  0  0  0  0  0  0  0  0  0  0
    0.8623   -0.8222    0.0000 C   0  0  0  0  0  0  0  0  0  0  0  0
    0.8602    0.8252    0.0000 C   0  0  0  0  0  0  0  0  0  0  0  0
   -1.3761    0.0021    0.0000 N   0  0  0  0  0  0  0  0  0  0  0  0
   -1.3674    0.8275    0.0000 C   0  0  0  0  0  0  0  0  0  0  0  0
   -2.0970   -0.4010    0.0000 C   0  0  0  0  0  0  0  0  0  0  0  0
    0.1460    1.2385    0.0000 C   0  0  0  0  0  0  0  0  0  0  0  0
    0.1469    2.0672    0.0000 C   0  0  0  0  0  0  0  0  0  0  0  0
    0.8611    2.4764    0.0000 C   0  0  0  0  0  0  0  0  0  0  0  0
    1.5719    2.0670    0.0000 C   0  0  0  0  0  0  0  0  0  0  0  0
    1.5717    1.2397    0.0000 C   0  0  0  0  0  0  0  0  0  0  0  0
    1.5753   -1.2346    0.0000 C   0  0  0  0  0  0  0  0  0  0  0  0
    1.5749   -2.0644    0.0000 C   0  0  0  0  0  0  0  0  0  0  0  0
    0.8603   -2.4764    0.0000 C   0  0  0  0  0  0  0  0  0  0  0  0
    0.1493   -2.0649    0.0000 C   0  0  0  0  0  0  0  0  0  0  0  0
    0.1490   -1.2366    0.0000 C   0  0  0  0  0  0  0  0  0  0  0  0
   -0.6787   -1.2471    0.0000 C   0  0  0  0  0  0  0  0  0  0  0  0
   -0.6549    0.6511    0.0000 H   0  0  0  0  0  0  0  0  0  0  0  0
   -0.2305    1.0185    0.0000 H   0  0  0  0  0  0  0  0  0  0  0  0
   -0.9370    0.3982    0.0000 H   0  0  0  0  0  0  0  0  0  0  0  0
    1.6006   -1.5649    0.0000 H   0  0  0  0  0  0  0  0  0  0  0  0
    3.0815   -0.7195    0.0000 H   0  0  0  0  0  0  0  0  0  0  0  0
   -0.4352    1.3527    0.0000 H   0  0  0  0  0  0  0  0  0  0  0  0
   -2.2884    1.3722    0.0000 H   0  0  0  0  0  0  0  0  0  0  0  0
   -1.3561    1.8974    0.0000 H   0  0  0  0  0  0  0  0  0  0  0  0
   -3.0162    0.1467    0.0000 H   0  0  0  0  0  0  0  0  0  0  0  0
   -2.1117   -1.4709    0.0000 H   0  0  0  0  0  0  0  0  0  0  0  0
   -3.0309   -0.9232    0.0000 H   0  0  0  0  0  0  0  0  0  0  0  0
   -0.7483    0.7234    0.0000 H   0  0  0  0  0  0  0  0  0  0  0  0
   -0.7457    2.5852    0.0000 H   0  0  0  0  0  0  0  0  0  0  0  0
    0.8623    3.5084    0.0000 H   0  0  0  0  0  0  0  0  0  0  0  0
    2.4654    2.5834    0.0000 H   0  0  0  0  0  0  0  0  0  0  0  0
    2.4664    0.7253    0.0000 H   0  0  0  0  0  0  0  0  0  0  0  0
    2.4694   -0.7192    0.0000 H   0  0  0  0  0  0  0  0  0  0  0  0
    2.4684   -2.5809    0.0000 H   0  0  0  0  0  0  0  0  0  0  0  0
    0.8594   -3.5084    0.0000 H   0  0  0  0  0  0  0  0  0  0  0  0
   -0.7446   -2.5806    0.0000 H   0  0  0  0  0  0  0  0  0  0  0  0
   -0.7455   -0.7220    0.0000 H   0  0  0  0  0  0  0  0  0  0  0  0
   -1.6134   -1.7678    0.0000 H   0  0  0  0  0  0  0  0  0  0  0  0
    0.2396   -1.7962    0.0000 H   0  0  0  0  0  0  0  0  0  0  0  0
   -0.6951   -2.3170    0.0000 H   0  0  0  0  0  0  0  0  0  0  0  0
  1  9  1  0  0  0  0
  1  2  1  0  0  0  0
  1 22  1  0  0  0  0
  1 23  1  0  0  0  0
  2  3  1  0  0  0  0
  2 24  1  0  0  0  0
  2 25  1  0  0  0  0
  3  7  1  0  0  0  0
  3  8  1  0  0  0  0
  3  4  1  0  0  0  0
  4  6  2  0  0  0  0
  4  5  1  0  0  0  0
  5 26  1  0  0  0  0
  5 27  1  0  0  0  0
  7 17  2  0  0  0  0
  8 12  2  0  0  0  0
  9 10  1  0  0  0  0
  9 11  1  0  0  0  0
 10 28  1  0  0  0  0
 10 29  1  0  0  0  0
 10 30  1  0  0  0  0
 11 31  1  0  0  0  0
 11 32  1  0  0  0  0
 11 33  1  0  0  0  0
 12 13  1  0  0  0  0
 12 34  1  0  0  0  0
 13 14  2  0  0  0  0
 13 35  1  0  0  0  0
 14 15  1  0  0  0  0
 14 36  1  0  0  0  0
 15 16  2  0  0  0  0
 15 37  1  0  0  0  0
 16  8  1  0  0  0  0
 16 38  1  0  0  0  0
 17 18  1  0  0  0  0
 17 39  1  0  0  0  0
 18 19  2  0  0  0  0
 18 40  1  0  0  0  0
 19 20  1  0  0  0  0
 19 41  1  0  0  0  0
 20 21  2  0  0  0  0
 20 42  1  0  0  0  0
 21  7  1  0  0  0  0
 21 43  1  0  0  0  0
 22 44  1  0  0  0  0
 22 45  1  0  0  0  0
 22 46  1  0  0  0  0
M  END
>  <DRUGBANK_ID>
DB15597

>  <COMMON_NAME>
Aminopentamide

>  <CAS_NUMBER>
60-46-8

>  <UNII>
IP1B47L61M

>  <SYNONYMS>
Aminopentamide; Dimevamida; Dimevamide; Dimevamidum

$$$$
