
 OpenBabel10282417072D

 32 32  0  0  0  0  0  0  0  0999 V2000
    7.1447    2.4750    0.0000 C   0  0  0  0  0  0  0  0  0  0  0  0
   10.0026    2.4750    0.0000 C   0  0  0  0  0  0  0  0  0  0  0  0
    9.2881    2.8875    0.0000 C   0  0  0  0  0  0  0  0  0  0  0  0
   10.0026    1.6500    0.0000 C   0  0  0  0  0  0  0  0  0  0  0  0
    5.0013    1.2375    0.0000 C   0  0  0  0  0  0  0  0  0  0  0  0
    8.5737    2.4750    0.0000 C   0  0  0  0  0  0  0  0  0  0  0  0
    9.2881    1.2375    0.0000 C   0  0  0  0  0  0  0  0  0  0  0  0
    4.2868    1.6500    0.0000 C   0  0  0  0  0  0  0  0  0  0  0  0
    5.7158    1.6500    0.0000 C   0  0  0  0  0  0  0  0  0  0  0  0
    7.8592    1.2375    0.0000 C   0  0  0  0  0  0  0  0  0  0  0  0
    7.1447    1.6500    0.0000 C   0  0  3  0  0  0  0  0  0  0  0  0
    8.5737    1.6500    0.0000 C   0  0  0  0  0  0  0  0  0  0  0  0
    3.5724    1.2375    0.0000 Cl  0  0  0  0  0  0  0  0  0  0  0  0
    6.4302    1.2375    0.0000 N   0  0  0  0  0  0  0  0  0  0  0  0
    8.0713    3.0100    0.0000 H   0  0  0  0  0  0  0  0  0  0  0  0
    6.2181    3.0100    0.0000 H   0  0  0  0  0  0  0  0  0  0  0  0
    7.1447    3.5450    0.0000 H   0  0  0  0  0  0  0  0  0  0  0  0
   10.8963    2.9910    0.0000 H   0  0  0  0  0  0  0  0  0  0  0  0
    9.2881    3.9195    0.0000 H   0  0  0  0  0  0  0  0  0  0  0  0
   10.8963    1.1340    0.0000 H   0  0  0  0  0  0  0  0  0  0  0  0
    5.0013    0.1675    0.0000 H   0  0  0  0  0  0  0  0  0  0  0  0
    5.9279    0.7025    0.0000 H   0  0  0  0  0  0  0  0  0  0  0  0
    7.6800    2.9910    0.0000 H   0  0  0  0  0  0  0  0  0  0  0  0
    9.2881    0.2055    0.0000 H   0  0  0  0  0  0  0  0  0  0  0  0
    4.2868    2.7200    0.0000 H   0  0  0  0  0  0  0  0  0  0  0  0
    3.3601    2.1850    0.0000 H   0  0  0  0  0  0  0  0  0  0  0  0
    5.7158    2.7200    0.0000 H   0  0  0  0  0  0  0  0  0  0  0  0
    6.6425    2.1850    0.0000 H   0  0  0  0  0  0  0  0  0  0  0  0
    7.8592    0.1675    0.0000 H   0  0  0  0  0  0  0  0  0  0  0  0
    8.7858    0.7025    0.0000 H   0  0  0  0  0  0  0  0  0  0  0  0
    8.0713    2.1850    0.0000 H   0  0  0  0  0  0  0  0  0  0  0  0
    6.4302    0.2175    0.0000 H   0  0  0  0  0  0  0  0  0  0  0  0
  1 15  1  0  0  0  0
  1 16  1  0  0  0  0
  1 17  1  0  0  0  0
  2 18  1  0  0  0  0
  3  2  2  0  0  0  0
  3 19  1  0  0  0  0
  4  2  1  0  0  0  0
  4 20  1  0  0  0  0
  5 21  1  0  0  0  0
  5 22  1  0  0  0  0
  6  3  1  0  0  0  0
  6 23  1  0  0  0  0
  7  4  2  0  0  0  0
  7 24  1  0  0  0  0
  8  5  1  0  0  0  0
  8 25  1  0  0  0  0
  8 26  1  0  0  0  0
  9  5  1  0  0  0  0
  9 27  1  0  0  0  0
  9 28  1  0  0  0  0
 10 29  1  0  0  0  0
 10 30  1  0  0  0  0
 11  1  1  0  0  0  0
 11 10  1  0  0  0  0
 11 31  1  0  0  0  0
 12  6  2  0  0  0  0
 12  7  1  0  0  0  0
 12 10  1  0  0  0  0
 13  8  1  0  0  0  0
 14  9  1  0  0  0  0
 14 11  1  0  0  0  0
 14 32  1  0  0  0  0
M  END
>  <DRUGBANK_ID>
DB13852

>  <COMMON_NAME>
Mefenorex

>  <CAS_NUMBER>
17243-57-1

>  <UNII>
K98M4N387W

$$$$
