HXS
 OpenBabel10282417072D

 42 43  0  0  0  0  0  0  0  0999 V2000
   -1.0595    2.2472    0.0000 C   0  0  0  0  0  0  0  0  0  0  0  0
   -0.3450    2.6597    0.0000 C   0  0  0  0  0  0  0  0  0  0  0  0
    0.3695    2.2472    0.0000 C   0  0  0  0  0  0  0  0  0  0  0  0
    0.3695    1.4222    0.0000 C   0  0  0  0  0  0  0  0  0  0  0  0
   -0.3450    1.0097    0.0000 C   0  0  0  0  0  0  0  0  0  0  0  0
   -0.3450    3.4847    0.0000 O   0  0  0  0  0  0  0  0  0  0  0  0
   -1.0595    1.4222    0.0000 C   0  0  0  0  0  0  0  0  0  0  0  0
   -0.3450    0.1847    0.0000 C   0  0  2  0  0  0  0  0  0  0  0  0
   -1.0595   -0.2278    0.0000 C   0  0  0  0  0  0  0  0  0  0  0  0
   -1.7739    0.1847    0.0000 C   0  0  0  0  0  0  0  0  0  0  0  0
    0.3695   -0.2278    0.0000 C   0  0  2  0  0  0  0  0  0  0  0  0
    1.0840    0.1847    0.0000 C   0  0  0  0  0  0  0  0  0  0  0  0
    1.7984   -0.2278    0.0000 C   0  0  0  0  0  0  0  0  0  0  0  0
    0.3695   -1.0528    0.0000 C   0  0  0  0  0  0  0  0  0  0  0  0
    1.0840   -1.4653    0.0000 C   0  0  0  0  0  0  0  0  0  0  0  0
    1.0840   -2.2903    0.0000 C   0  0  0  0  0  0  0  0  0  0  0  0
    0.3695   -2.7028    0.0000 C   0  0  0  0  0  0  0  0  0  0  0  0
    0.3695   -3.5278    0.0000 O   0  0  0  0  0  0  0  0  0  0  0  0
   -0.3450   -2.2903    0.0000 C   0  0  0  0  0  0  0  0  0  0  0  0
   -0.3450   -1.4653    0.0000 C   0  0  0  0  0  0  0  0  0  0  0  0
   -0.8507    0.4767    0.0000 H   0  0  0  0  0  0  0  0  0  0  0  0
    0.3695    0.3562    0.0000 H   0  0  0  0  0  0  0  0  0  0  0  0
   -1.9532    2.7632    0.0000 H   0  0  0  0  0  0  0  0  0  0  0  0
    1.2632    2.7632    0.0000 H   0  0  0  0  0  0  0  0  0  0  0  0
    1.2632    0.9062    0.0000 H   0  0  0  0  0  0  0  0  0  0  0  0
    0.4665    3.9532    0.0000 H   0  0  0  0  0  0  0  0  0  0  0  0
   -1.9532    0.9062    0.0000 H   0  0  0  0  0  0  0  0  0  0  0  0
   -1.0595   -1.2978    0.0000 H   0  0  0  0  0  0  0  0  0  0  0  0
   -1.9862   -0.7628    0.0000 H   0  0  0  0  0  0  0  0  0  0  0  0
   -1.7739    1.2547    0.0000 H   0  0  0  0  0  0  0  0  0  0  0  0
   -2.7006   -0.3503    0.0000 H   0  0  0  0  0  0  0  0  0  0  0  0
   -2.7005    0.7197    0.0000 H   0  0  0  0  0  0  0  0  0  0  0  0
    1.0840    1.2547    0.0000 H   0  0  0  0  0  0  0  0  0  0  0  0
    2.0107    0.7197    0.0000 H   0  0  0  0  0  0  0  0  0  0  0  0
    1.7984   -1.2978    0.0000 H   0  0  0  0  0  0  0  0  0  0  0  0
    2.7251    0.3072    0.0000 H   0  0  0  0  0  0  0  0  0  0  0  0
    2.7250   -0.7628    0.0000 H   0  0  0  0  0  0  0  0  0  0  0  0
    1.9777   -0.9493    0.0000 H   0  0  0  0  0  0  0  0  0  0  0  0
    1.9777   -2.8063    0.0000 H   0  0  0  0  0  0  0  0  0  0  0  0
   -0.4420   -3.9963    0.0000 H   0  0  0  0  0  0  0  0  0  0  0  0
   -1.2387   -2.8063    0.0000 H   0  0  0  0  0  0  0  0  0  0  0  0
   -1.2387   -0.9493    0.0000 H   0  0  0  0  0  0  0  0  0  0  0  0
  1  2  2  0  0  0  0
  1  7  1  0  0  0  0
  1 23  1  0  0  0  0
  2  3  1  0  0  0  0
  2  6  1  0  0  0  0
  3  4  2  0  0  0  0
  3 24  1  0  0  0  0
  4  5  1  0  0  0  0
  4 25  1  0  0  0  0
  5  7  2  0  0  0  0
  5  8  1  0  0  0  0
  6 26  1  0  0  0  0
  7 27  1  0  0  0  0
  8  9  1  0  0  0  0
  8 11  1  0  0  0  0
  8 21  1  6  0  0  0
  9 10  1  0  0  0  0
  9 28  1  0  0  0  0
  9 29  1  0  0  0  0
 10 30  1  0  0  0  0
 10 31  1  0  0  0  0
 10 32  1  0  0  0  0
 11 12  1  0  0  0  0
 11 14  1  0  0  0  0
 11 22  1  1  0  0  0
 12 13  1  0  0  0  0
 12 33  1  0  0  0  0
 12 34  1  0  0  0  0
 13 35  1  0  0  0  0
 13 36  1  0  0  0  0
 13 37  1  0  0  0  0
 14 15  2  0  0  0  0
 14 20  1  0  0  0  0
 15 16  1  0  0  0  0
 15 38  1  0  0  0  0
 16 17  2  0  0  0  0
 16 39  1  0  0  0  0
 17 18  1  0  0  0  0
 17 19  1  0  0  0  0
 18 40  1  0  0  0  0
 19 20  2  0  0  0  0
 19 41  1  0  0  0  0
 20 42  1  0  0  0  0
M  END
>  <DRUGBANK_ID>
DB07931

>  <SECONDARY_ACCESSION_NUMBERS>
DB08959

>  <COMMON_NAME>
Hexestrol

>  <CAS_NUMBER>
84-16-2

>  <UNII>
10BI795R7D

>  <SYNONYMS>
4,4'-(1,2-diethylethylene)diphenol; Erythrohexestrol; Hexanoestrol; Hexestrol; Hexoestrolum; Meso-3,4-di(p-hydroxyphenyl)-n-hexane; Meso-hexestrol; Mesohexestrol; Synoestrolum

$$$$
