
 OpenBabel10282417072D

 30 31  0  0  1  0  0  0  0  0999 V2000
   29.0166   -5.6375    0.0000 O   0  0  0  0  0  0  0  0  0  0  0  0
   27.5845   -6.4570    0.0000 O   0  0  0  0  0  0  0  0  0  0  0  0
   24.6753   -6.4371    0.0000 O   0  0  0  0  0  0  0  0  0  0  0  0
   23.2463   -3.9621    0.0000 N   0  0  0  0  0  0  0  0  0  0  0  0
   24.6753   -3.9621    0.0000 N   0  0  0  0  0  0  0  0  0  0  0  0
   26.1273   -3.9334    0.0000 N   0  0  0  0  0  0  0  0  0  0  0  0
   26.1273   -5.6407    0.0000 N   0  0  0  0  0  0  0  0  0  0  0  0
   23.9608   -5.1996    0.0000 N   0  0  0  0  0  0  0  0  0  0  0  0
   28.3037   -5.2223    0.0000 C   0  0  2  0  0  0  0  0  0  0  0  0
   27.5876   -5.6320    0.0000 C   0  0  1  0  0  0  0  0  0  0  0  0
   28.3069   -4.3972    0.0000 C   0  0  0  0  0  0  0  0  0  0  0  0
   26.8747   -5.2167    0.0000 C   0  0  1  0  0  0  0  0  0  0  0  0
   26.8747   -4.3574    0.0000 C   0  0  0  0  0  0  0  0  0  0  0  0
   23.9608   -4.3746    0.0000 C   0  0  0  0  0  0  0  0  0  0  0  0
   25.3897   -4.3746    0.0000 C   0  0  0  0  0  0  0  0  0  0  0  0
   24.6753   -5.6121    0.0000 C   0  0  0  0  0  0  0  0  0  0  0  0
   25.3897   -5.1996    0.0000 C   0  0  0  0  0  0  0  0  0  0  0  0
   26.8709   -5.8767    0.0000 H   0  0  0  0  0  0  0  0  0  0  0  0
   29.0129   -6.6075    0.0000 H   0  0  0  0  0  0  0  0  0  0  0  0
   26.7426   -6.9388    0.0000 H   0  0  0  0  0  0  0  0  0  0  0  0
   23.2463   -2.9776    0.0000 H   0  0  0  0  0  0  0  0  0  0  0  0
   22.3937   -4.4544    0.0000 H   0  0  0  0  0  0  0  0  0  0  0  0
   24.6753   -2.9776    0.0000 H   0  0  0  0  0  0  0  0  0  0  0  0
   28.2996   -6.2923    0.0000 H   0  0  0  0  0  0  0  0  0  0  0  0
   28.5122   -6.1706    0.0000 H   0  0  0  0  0  0  0  0  0  0  0  0
   29.2356   -3.8658    0.0000 H   0  0  0  0  0  0  0  0  0  0  0  0
   27.3823   -3.8586    0.0000 H   0  0  0  0  0  0  0  0  0  0  0  0
   28.3110   -3.3272    0.0000 H   0  0  0  0  0  0  0  0  0  0  0  0
   27.7993   -3.8189    0.0000 H   0  0  0  0  0  0  0  0  0  0  0  0
   27.8024   -4.8906    0.0000 H   0  0  0  0  0  0  0  0  0  0  0  0
  1 19  1  0  0  0  0
  2 20  1  0  0  0  0
  3 16  2  0  0  0  0
  4 14  1  0  0  0  0
  4 21  1  0  0  0  0
  4 22  1  0  0  0  0
  5 14  1  0  0  0  0
  5 15  1  0  0  0  0
  5 23  1  0  0  0  0
  6 13  1  0  0  0  0
  6 15  2  0  0  0  0
  7 12  1  0  0  0  0
  7 17  2  0  0  0  0
  8 14  2  0  0  0  0
  8 16  1  0  0  0  0
  9  1  1  0  0  0  0
  9 10  1  0  0  0  0
  9 11  1  0  0  0  0
  9 24  1  1  0  0  0
 10  2  1  0  0  0  0
 10 12  1  0  0  0  0
 10 25  1  1  0  0  0
 11 26  1  0  0  0  0
 11 27  1  0  0  0  0
 11 28  1  0  0  0  0
 12 13  1  0  0  0  0
 12 18  1  1  0  0  0
 13 29  1  0  0  0  0
 13 30  1  0  0  0  0
 15 17  1  0  0  0  0
 16 17  1  0  0  0  0
M  END
>  <DRUGBANK_ID>
DB02562

>  <SECONDARY_ACCESSION_NUMBERS>
EXPT01676

>  <COMMON_NAME>
Quinonoid 7,8-Tetrahydrobiopterin

>  <CAS_NUMBER>
79647-29-3

$$$$
