
 OpenBabel10282417072D

138141  0  0  0  0  0  0  0  0999 V2000
   -1.4412   -0.1142    0.0000 S   0  0  0  0  0  0  0  0  0  0  0  0
   -1.4313    0.7553    0.0000 S   0  0  0  0  0  0  0  0  0  0  0  0
   -2.4574   -3.1115    0.0000 O   0  0  0  0  0  0  0  0  0  0  0  0
   -1.4189   -2.6623    0.0000 O   0  0  0  0  0  0  0  0  0  0  0  0
   -5.3961   -4.0282    0.0000 O   0  0  0  0  0  0  0  0  0  0  0  0
   -0.6700   -3.1442    0.0000 O   0  0  0  0  0  0  0  0  0  0  0  0
    2.2724   -2.2913    0.0000 O   0  0  0  0  0  0  0  0  0  0  0  0
    0.2426   -4.7175    0.0000 O   0  0  0  0  0  0  0  0  0  0  0  0
    3.7250   -0.5842    0.0000 O   0  0  0  0  0  0  0  0  0  0  0  0
   -5.5739   -1.0595    0.0000 O   0  0  0  0  0  0  0  0  0  0  0  0
    2.9846    2.3853    0.0000 O   0  0  0  0  0  0  0  0  0  0  0  0
    0.0509    3.2615    0.0000 O   0  0  0  0  0  0  0  0  0  0  0  0
    4.4157   -2.6835    0.0000 O   0  0  0  0  0  0  0  0  0  0  0  0
    4.9954    5.7665    0.0000 O   0  0  0  0  0  0  0  0  0  0  0  0
   -2.1221   -1.4188    0.0000 N   0  0  0  0  0  0  0  0  0  0  0  0
   -3.8513   -2.7979    0.0000 N   0  0  0  0  0  0  0  0  0  0  0  0
    0.0551   -1.8701    0.0000 N   0  0  0  0  0  0  0  0  0  0  0  0
   -5.0827   -2.6343    0.0000 N   0  0  0  0  0  0  0  0  0  0  0  0
    1.5537   -2.7421    0.0000 N   0  0  0  0  0  0  0  0  0  0  0  0
    2.2644   -0.6017    0.0000 N   0  0  0  0  0  0  0  0  0  0  0  0
   -1.1268   -5.7205    0.0000 N   0  0  0  0  0  0  0  0  0  0  0  0
    2.2621    1.1244    0.0000 N   0  0  0  0  0  0  0  0  0  0  0  0
    0.7872    2.0012    0.0000 N   0  0  0  0  0  0  0  0  0  0  0  0
    1.5846   -5.2075    0.0000 N   0  0  0  0  0  0  0  0  0  0  0  0
   -1.4197    2.4190    0.0000 N   0  0  0  0  0  0  0  0  0  0  0  0
   -6.9378   -1.4849    0.0000 N   0  0  0  0  0  0  0  0  0  0  0  0
    3.7097   -3.9257    0.0000 N   0  0  0  0  0  0  0  0  0  0  0  0
   -2.8830   -1.7476    0.0000 C   0  0  1  0  0  0  0  0  0  0  0  0
   -3.4278   -1.1266    0.0000 C   0  0  0  0  0  0  0  0  0  0  0  0
   -3.0074   -0.4155    0.0000 C   0  0  0  0  0  0  0  0  0  0  0  0
   -2.2028   -0.5975    0.0000 C   0  0  0  0  0  0  0  0  0  0  0  0
   -3.0639   -2.5524    0.0000 C   0  0  0  0  0  0  0  0  0  0  0  0
   -1.4116   -1.8375    0.0000 C   0  0  0  0  0  0  0  0  0  0  0  0
   -0.6936   -1.4314    0.0000 C   0  0  2  0  0  0  0  0  0  0  0  0
   -4.0324   -3.6027    0.0000 C   0  0  1  0  0  0  0  0  0  0  0  0
   -0.6836   -0.5531    0.0000 C   0  0  0  0  0  0  0  0  0  0  0  0
   -3.2275   -3.7837    0.0000 C   0  0  0  0  0  0  0  0  0  0  0  0
   -2.9820   -4.5711    0.0000 C   0  0  0  0  0  0  0  0  0  0  0  0
   -4.8371   -3.4217    0.0000 C   0  0  0  0  0  0  0  0  0  0  0  0
    0.0453   -2.7336    0.0000 C   0  0  0  0  0  0  0  0  0  0  0  0
    0.8084   -3.1678    0.0000 C   0  0  2  0  0  0  0  0  0  0  0  0
   -2.1772   -4.7522    0.0000 C   0  0  0  0  0  0  0  0  0  0  0  0
    1.3380   -3.8003    0.0000 C   0  0  0  0  0  0  0  0  0  0  0  0
   -1.9316   -5.5396    0.0000 C   0  0  0  0  0  0  0  0  0  0  0  0
    2.2644   -1.4608    0.0000 C   0  0  2  0  0  0  0  0  0  0  0  0
    1.5557   -1.8829    0.0000 C   0  0  0  0  0  0  0  0  0  0  0  0
   -5.8874   -2.4533    0.0000 C   0  0  0  0  0  0  0  0  0  0  0  0
    2.9814   -1.8684    0.0000 C   0  0  0  0  0  0  0  0  0  0  0  0
   -0.6723    1.1863    0.0000 C   0  0  0  0  0  0  0  0  0  0  0  0
    1.0551   -4.5751    0.0000 C   0  0  0  0  0  0  0  0  0  0  0  0
    3.0032    0.6851    0.0000 C   0  0  2  0  0  0  0  0  0  0  0  0
   -0.7003    2.0156    0.0000 C   0  0  1  0  0  0  0  0  0  0  0  0
    3.0095   -0.1738    0.0000 C   0  0  0  0  0  0  0  0  0  0  0  0
    1.5376    2.4178    0.0000 C   0  0  2  0  0  0  0  0  0  0  0  0
    2.9870   -2.6933    0.0000 C   0  0  0  0  0  0  0  0  0  0  0  0
    4.2546    1.4043    0.0000 C   0  0  0  0  0  0  0  0  0  0  0  0
   -6.1331   -1.6659    0.0000 C   0  0  0  0  0  0  0  0  0  0  0  0
    2.2658    1.9806    0.0000 C   0  0  0  0  0  0  0  0  0  0  0  0
    0.0445    2.4367    0.0000 C   0  0  0  0  0  0  0  0  0  0  0  0
    1.5620    3.8611    0.0000 C   0  0  0  0  0  0  0  0  0  0  0  0
    5.5034    0.6801    0.0000 C   0  0  0  0  0  0  0  0  0  0  0  0
    3.7042   -3.1009    0.0000 C   0  0  0  0  0  0  0  0  0  0  0  0
    2.8242    4.5615    0.0000 C   0  0  0  0  0  0  0  0  0  0  0  0
    5.4992   -0.1447    0.0000 C   0  0  0  0  0  0  0  0  0  0  0  0
    6.2174    1.0931    0.0000 C   0  0  0  0  0  0  0  0  0  0  0  0
    3.5302    4.1350    0.0000 C   0  0  0  0  0  0  0  0  0  0  0  0
    2.8359    5.3863    0.0000 C   0  0  0  0  0  0  0  0  0  0  0  0
    6.2164   -0.5607    0.0000 C   0  0  0  0  0  0  0  0  0  0  0  0
    6.9346    0.6770    0.0000 C   0  0  0  0  0  0  0  0  0  0  0  0
    6.9378   -0.1519    0.0000 C   0  0  0  0  0  0  0  0  0  0  0  0
    4.2552    4.5373    0.0000 C   0  0  0  0  0  0  0  0  0  0  0  0
    3.5608    5.7886    0.0000 C   0  0  0  0  0  0  0  0  0  0  0  0
    4.2741    5.3662    0.0000 C   0  0  0  0  0  0  0  0  0  0  0  0
   -4.2133   -4.4075    0.0000 H   0  0  0  0  0  0  0  0  0  0  0  0
    0.2798   -3.8011    0.0000 H   0  0  0  0  0  0  0  0  0  0  0  0
    1.3725   -5.7886    0.0000 H   0  0  0  0  0  0  0  0  0  0  0  0
    2.1939   -5.1006    0.0000 H   0  0  0  0  0  0  0  0  0  0  0  0
    5.7988    5.2843    0.0000 H   0  0  0  0  0  0  0  0  0  0  0  0
   -4.5750   -2.1305    0.0000 H   0  0  0  0  0  0  0  0  0  0  0  0
    0.9120   -1.3854    0.0000 H   0  0  0  0  0  0  0  0  0  0  0  0
   -4.4153   -1.9105    0.0000 H   0  0  0  0  0  0  0  0  0  0  0  0
    2.4046   -3.2373    0.0000 H   0  0  0  0  0  0  0  0  0  0  0  0
    1.4124   -0.1085    0.0000 H   0  0  0  0  0  0  0  0  0  0  0  0
   -0.8229   -6.6942    0.0000 H   0  0  0  0  0  0  0  0  0  0  0  0
   -0.4355   -4.9705    0.0000 H   0  0  0  0  0  0  0  0  0  0  0  0
    1.4056    0.6389    0.0000 H   0  0  0  0  0  0  0  0  0  0  0  0
    0.7756    1.0168    0.0000 H   0  0  0  0  0  0  0  0  0  0  0  0
   -1.4325    3.4389    0.0000 H   0  0  0  0  0  0  0  0  0  0  0  0
   -2.2966    1.8980    0.0000 H   0  0  0  0  0  0  0  0  0  0  0  0
   -7.2310   -0.5451    0.0000 H   0  0  0  0  0  0  0  0  0  0  0  0
   -7.6052   -2.2087    0.0000 H   0  0  0  0  0  0  0  0  0  0  0  0
    2.8604   -4.4236    0.0000 H   0  0  0  0  0  0  0  0  0  0  0  0
    4.5656   -4.4123    0.0000 H   0  0  0  0  0  0  0  0  0  0  0  0
   -2.0591   -2.4303    0.0000 H   0  0  0  0  0  0  0  0  0  0  0  0
   -4.4932   -1.2261    0.0000 H   0  0  0  0  0  0  0  0  0  0  0  0
   -4.0007   -0.2229    0.0000 H   0  0  0  0  0  0  0  0  0  0  0  0
   -3.4312    0.5670    0.0000 H   0  0  0  0  0  0  0  0  0  0  0  0
   -2.3238    0.4077    0.0000 H   0  0  0  0  0  0  0  0  0  0  0  0
   -1.4006    0.1106    0.0000 H   0  0  0  0  0  0  0  0  0  0  0  0
   -2.4679    0.4391    0.0000 H   0  0  0  0  0  0  0  0  0  0  0  0
   -0.7018   -2.5014    0.0000 H   0  0  0  0  0  0  0  0  0  0  0  0
    0.2465   -0.0241    0.0000 H   0  0  0  0  0  0  0  0  0  0  0  0
    0.2382   -1.0963    0.0000 H   0  0  0  0  0  0  0  0  0  0  0  0
   -2.5022   -2.9971    0.0000 H   0  0  0  0  0  0  0  0  0  0  0  0
   -2.1836   -4.0186    0.0000 H   0  0  0  0  0  0  0  0  0  0  0  0
   -3.7074   -5.3577    0.0000 H   0  0  0  0  0  0  0  0  0  0  0  0
   -2.6635   -5.5926    0.0000 H   0  0  0  0  0  0  0  0  0  0  0  0
   -1.4519   -3.9656    0.0000 H   0  0  0  0  0  0  0  0  0  0  0  0
   -1.1333   -4.9870    0.0000 H   0  0  0  0  0  0  0  0  0  0  0  0
    2.3919   -3.6156    0.0000 H   0  0  0  0  0  0  0  0  0  0  0  0
    2.0249   -4.6207    0.0000 H   0  0  0  0  0  0  0  0  0  0  0  0
   -2.6569   -6.3263    0.0000 H   0  0  0  0  0  0  0  0  0  0  0  0
   -2.9755   -5.3048    0.0000 H   0  0  0  0  0  0  0  0  0  0  0  0
    3.1893   -0.9227    0.0000 H   0  0  0  0  0  0  0  0  0  0  0  0
   -6.6127   -3.2400    0.0000 H   0  0  0  0  0  0  0  0  0  0  0  0
   -6.9313   -2.2186    0.0000 H   0  0  0  0  0  0  0  0  0  0  0  0
    3.9044   -1.3272    0.0000 H   0  0  0  0  0  0  0  0  0  0  0  0
    3.9116   -2.3971    0.0000 H   0  0  0  0  0  0  0  0  0  0  0  0
    0.2614    0.6637    0.0000 H   0  0  0  0  0  0  0  0  0  0  0  0
    0.2415    1.7429    0.0000 H   0  0  0  0  0  0  0  0  0  0  0  0
    3.0104    1.7551    0.0000 H   0  0  0  0  0  0  0  0  0  0  0  0
   -1.6143    1.4593    0.0000 H   0  0  0  0  0  0  0  0  0  0  0  0
    0.6201    2.9683    0.0000 H   0  0  0  0  0  0  0  0  0  0  0  0
    2.0640   -3.2346    0.0000 H   0  0  0  0  0  0  0  0  0  0  0  0
    2.9943   -3.7633    0.0000 H   0  0  0  0  0  0  0  0  0  0  0  0
    4.2567    2.4743    0.0000 H   0  0  0  0  0  0  0  0  0  0  0  0
    5.1823    1.9375    0.0000 H   0  0  0  0  0  0  0  0  0  0  0  0
    0.6446    4.4117    0.0000 H   0  0  0  0  0  0  0  0  0  0  0  0
    1.5802    4.9309    0.0000 H   0  0  0  0  0  0  0  0  0  0  0  0
    4.6036   -0.6575    0.0000 H   0  0  0  0  0  0  0  0  0  0  0  0
    6.2181    2.1251    0.0000 H   0  0  0  0  0  0  0  0  0  0  0  0
    3.5112    3.1032    0.0000 H   0  0  0  0  0  0  0  0  0  0  0  0
    1.9503    5.9161    0.0000 H   0  0  0  0  0  0  0  0  0  0  0  0
    6.2112   -1.5927    0.0000 H   0  0  0  0  0  0  0  0  0  0  0  0
    7.8279    1.1938    0.0000 H   0  0  0  0  0  0  0  0  0  0  0  0
    7.8305   -0.6698    0.0000 H   0  0  0  0  0  0  0  0  0  0  0  0
    5.1385    4.0036    0.0000 H   0  0  0  0  0  0  0  0  0  0  0  0
    3.5752    6.8205    0.0000 H   0  0  0  0  0  0  0  0  0  0  0  0
  1  2  1  0  0  0  0
  1 36  1  0  0  0  0
  2 49  1  0  0  0  0
  3 32  2  0  0  0  0
  4 33  2  0  0  0  0
  5 39  2  0  0  0  0
  6 40  2  0  0  0  0
  7 46  2  0  0  0  0
  8 50  2  0  0  0  0
  9 53  2  0  0  0  0
 10 57  2  0  0  0  0
 11 58  2  0  0  0  0
 12 59  2  0  0  0  0
 13 62  2  0  0  0  0
 14 73  1  0  0  0  0
 14 78  1  0  0  0  0
 15 28  1  0  0  0  0
 15 31  1  0  0  0  0
 15 33  1  0  0  0  0
 16 32  1  0  0  0  0
 16 35  1  0  0  0  0
 16 79  1  0  0  0  0
 17 34  1  0  0  0  0
 17 40  1  0  0  0  0
 17 80  1  0  0  0  0
 18 39  1  0  0  0  0
 18 47  1  0  0  0  0
 18 81  1  0  0  0  0
 19 41  1  0  0  0  0
 19 46  1  0  0  0  0
 19 82  1  0  0  0  0
 20 45  1  0  0  0  0
 20 53  1  0  0  0  0
 20 83  1  0  0  0  0
 21 44  1  0  0  0  0
 21 84  1  0  0  0  0
 21 85  1  0  0  0  0
 22 51  1  0  0  0  0
 22 58  1  0  0  0  0
 22 86  1  0  0  0  0
 23 54  1  0  0  0  0
 23 59  1  0  0  0  0
 23 87  1  0  0  0  0
 24 50  1  0  0  0  0
 24 76  1  0  0  0  0
 24 77  1  0  0  0  0
 25 88  1  0  0  0  0
 25 89  1  0  0  0  0
 26 57  1  0  0  0  0
 26 90  1  0  0  0  0
 26 91  1  0  0  0  0
 27 62  1  0  0  0  0
 27 92  1  0  0  0  0
 27 93  1  0  0  0  0
 28 29  1  0  0  0  0
 28 32  1  0  0  0  0
 28 94  1  1  0  0  0
 29 30  1  0  0  0  0
 29 95  1  0  0  0  0
 29 96  1  0  0  0  0
 30 31  1  0  0  0  0
 30 97  1  0  0  0  0
 30 98  1  0  0  0  0
 31 99  1  0  0  0  0
 31100  1  0  0  0  0
 34 36  1  0  0  0  0
 34 33  1  0  0  0  0
 34101  1  1  0  0  0
 35 37  1  0  0  0  0
 35 39  1  0  0  0  0
 35 74  1  6  0  0  0
 36102  1  0  0  0  0
 36103  1  0  0  0  0
 37 38  1  0  0  0  0
 37104  1  0  0  0  0
 37105  1  0  0  0  0
 38 42  1  0  0  0  0
 38106  1  0  0  0  0
 38107  1  0  0  0  0
 40 41  1  0  0  0  0
 41 43  1  0  0  0  0
 41 75  1  6  0  0  0
 42 44  1  0  0  0  0
 42108  1  0  0  0  0
 42109  1  0  0  0  0
 43 50  1  0  0  0  0
 43110  1  0  0  0  0
 43111  1  0  0  0  0
 44112  1  0  0  0  0
 44113  1  0  0  0  0
 45 46  1  0  0  0  0
 45 48  1  0  0  0  0
 45114  1  6  0  0  0
 47 57  1  0  0  0  0
 47115  1  0  0  0  0
 47116  1  0  0  0  0
 48 55  1  0  0  0  0
 48117  1  0  0  0  0
 48118  1  0  0  0  0
 49 52  1  0  0  0  0
 49119  1  0  0  0  0
 49120  1  0  0  0  0
 51 53  1  0  0  0  0
 51 56  1  0  0  0  0
 51121  1  6  0  0  0
 52 59  1  0  0  0  0
 52 25  1  0  0  0  0
 52122  1  1  0  0  0
 54 58  1  0  0  0  0
 54 60  1  0  0  0  0
 54123  1  6  0  0  0
 55 62  1  0  0  0  0
 55124  1  0  0  0  0
 55125  1  0  0  0  0
 56 61  1  0  0  0  0
 56126  1  0  0  0  0
 56127  1  0  0  0  0
 60 63  1  0  0  0  0
 60128  1  0  0  0  0
 60129  1  0  0  0  0
 61 64  2  0  0  0  0
 61 65  1  0  0  0  0
 63 66  2  0  0  0  0
 63 67  1  0  0  0  0
 64 68  1  0  0  0  0
 64130  1  0  0  0  0
 65 69  2  0  0  0  0
 65131  1  0  0  0  0
 66 71  1  0  0  0  0
 66132  1  0  0  0  0
 67 72  2  0  0  0  0
 67133  1  0  0  0  0
 68 70  2  0  0  0  0
 68134  1  0  0  0  0
 69 70  1  0  0  0  0
 69135  1  0  0  0  0
 70136  1  0  0  0  0
 71 73  2  0  0  0  0
 71137  1  0  0  0  0
 72 73  1  0  0  0  0
 72138  1  0  0  0  0
M  END
>  <DRUGBANK_ID>
DB14642

>  <SECONDARY_ACCESSION_NUMBERS>
DBSALT002465

>  <COMMON_NAME>
Lypressin

>  <CAS_NUMBER>
50-57-7

>  <UNII>
7CZF3L922Y

>  <SYNONYMS>
8-L-lysinevasopressin; Lypressin; Lysine vasopressin; Vasopressin pig; Vasopressin, 8-L-lysine

$$$$
