
 OpenBabel10282417072D

 34 35  0  0  0  0  0  0  0  0999 V2000
   -2.9412   -0.7390    0.0000 O   0  0  0  0  0  0  0  0  0  0  0  0
   -2.3231   -0.1929    0.0000 C   0  0  0  0  0  0  0  0  0  0  0  0
   -1.5383   -0.4520    0.0000 C   0  0  2  0  0  0  0  0  0  0  0  0
   -1.2883   -1.2382    0.0000 C   0  0  1  0  0  0  0  0  0  0  0  0
   -1.7797   -1.9030    0.0000 O   0  0  0  0  0  0  0  0  0  0  0  0
   -0.4640   -1.2416    0.0000 C   0  0  0  0  0  0  0  0  0  0  0  0
   -0.2036   -0.4607    0.0000 C   0  0  1  0  0  0  0  0  0  0  0  0
   -0.8683    0.0305    0.0000 O   0  0  0  0  0  0  0  0  0  0  0  0
    0.5826   -0.2109    0.0000 N   0  0  0  0  0  0  0  0  0  0  0  0
    1.1911   -0.7641    0.0000 C   0  0  0  0  0  0  0  0  0  0  0  0
    1.0149   -1.5714    0.0000 O   0  0  0  0  0  0  0  0  0  0  0  0
    1.9775   -0.5144    0.0000 N   0  0  0  0  0  0  0  0  0  0  0  0
    2.1550    0.2887    0.0000 C   0  0  0  0  0  0  0  0  0  0  0  0
    2.9412    0.5386    0.0000 O   0  0  0  0  0  0  0  0  0  0  0  0
    1.5451    0.8461    0.0000 C   0  0  0  0  0  0  0  0  0  0  0  0
    0.7588    0.5962    0.0000 C   0  0  0  0  0  0  0  0  0  0  0  0
    1.7214    1.6531    0.0000 C   0  0  0  0  0  0  0  0  0  0  0  0
    2.5075    1.9030    0.0000 C   0  0  0  0  0  0  0  0  0  0  0  0
   -3.8609   -0.4306    0.0000 H   0  0  0  0  0  0  0  0  0  0  0  0
   -2.5382    0.8553    0.0000 H   0  0  0  0  0  0  0  0  0  0  0  0
   -1.5237    0.5184    0.0000 H   0  0  0  0  0  0  0  0  0  0  0  0
   -2.2991   -1.2044    0.0000 H   0  0  0  0  0  0  0  0  0  0  0  0
   -2.3439   -1.0632    0.0000 H   0  0  0  0  0  0  0  0  0  0  0  0
   -2.7435   -1.7937    0.0000 H   0  0  0  0  0  0  0  0  0  0  0  0
    0.1598   -2.1110    0.0000 H   0  0  0  0  0  0  0  0  0  0  0  0
    0.5939   -1.0814    0.0000 H   0  0  0  0  0  0  0  0  0  0  0  0
    0.5476   -1.2227    0.0000 H   0  0  0  0  0  0  0  0  0  0  0  0
    2.7042   -1.1786    0.0000 H   0  0  0  0  0  0  0  0  0  0  0  0
   -0.0040    1.2913    0.0000 H   0  0  0  0  0  0  0  0  0  0  0  0
    0.9305    2.3738    0.0000 H   0  0  0  0  0  0  0  0  0  0  0  0
    0.7019    1.3284    0.0000 H   0  0  0  0  0  0  0  0  0  0  0  0
    3.2981    1.1820    0.0000 H   0  0  0  0  0  0  0  0  0  0  0  0
    2.7366    2.9482    0.0000 H   0  0  0  0  0  0  0  0  0  0  0  0
    3.5272    2.2272    0.0000 H   0  0  0  0  0  0  0  0  0  0  0  0
  1  2  1  0  0  0  0
  1 19  1  0  0  0  0
  2 20  1  0  0  0  0
  2 21  1  0  0  0  0
  3  2  1  0  0  0  0
  3  4  1  0  0  0  0
  3  8  1  0  0  0  0
  3 22  1  6  0  0  0
  4  5  1  0  0  0  0
  4  6  1  0  0  0  0
  4 23  1  1  0  0  0
  5 24  1  0  0  0  0
  6  7  1  0  0  0  0
  6 25  1  0  0  0  0
  6 26  1  0  0  0  0
  7  8  1  0  0  0  0
  7  9  1  0  0  0  0
  7 27  1  6  0  0  0
  9 10  1  0  0  0  0
  9 16  1  0  0  0  0
 10 11  2  0  0  0  0
 10 12  1  0  0  0  0
 12 13  1  0  0  0  0
 12 28  1  0  0  0  0
 13 14  2  0  0  0  0
 13 15  1  0  0  0  0
 15 16  2  0  0  0  0
 15 17  1  0  0  0  0
 16 29  1  0  0  0  0
 17 18  1  0  0  0  0
 17 30  1  0  0  0  0
 17 31  1  0  0  0  0
 18 32  1  0  0  0  0
 18 33  1  0  0  0  0
 18 34  1  0  0  0  0
M  END
>  <DRUGBANK_ID>
DB13421

>  <COMMON_NAME>
Edoxudine

>  <CAS_NUMBER>
15176-29-1

>  <UNII>
15ZQM81Y3R

>  <SYNONYMS>
2'-Deoxy-5-ethyluridine; 5-Ethyl-2'-deoxyuridine; Edoxudine

$$$$
