LIG
 OpenBabel10282417072D

 29 32  0  0  0  0  0  0  0  0999 V2000
    1.0213   -0.9724    0.0000 N   0  0  0  0  0  0  0  0  0  0  0  0
    0.3444   -1.4441    0.0000 N   0  0  0  0  0  0  0  0  0  0  0  0
   -0.3133   -0.9461    0.0000 C   0  0  0  0  0  0  0  0  0  0  0  0
   -0.0430   -0.1667    0.0000 C   0  0  0  0  0  0  0  0  0  0  0  0
    0.7819   -0.1829    0.0000 C   0  0  0  0  0  0  0  0  0  0  0  0
    1.2798    0.4748    0.0000 C   0  0  0  0  0  0  0  0  0  0  0  0
    0.9592    1.2350    0.0000 C   0  0  0  0  0  0  0  0  0  0  0  0
    1.4572    1.8927    0.0000 C   0  0  0  0  0  0  0  0  0  0  0  0
    2.2758    1.7903    0.0000 N   0  0  0  0  0  0  0  0  0  0  0  0
    2.5964    1.0302    0.0000 C   0  0  0  0  0  0  0  0  0  0  0  0
    2.0985    0.3724    0.0000 C   0  0  0  0  0  0  0  0  0  0  0  0
   -0.7007    0.3313    0.0000 C   0  0  0  0  0  0  0  0  0  0  0  0
   -1.3776   -0.1404    0.0000 C   0  0  0  0  0  0  0  0  0  0  0  0
   -1.1382   -0.9298    0.0000 C   0  0  0  0  0  0  0  0  0  0  0  0
   -1.7022   -1.5319    0.0000 C   0  0  0  0  0  0  0  0  0  0  0  0
   -2.5056   -1.3445    0.0000 C   0  0  0  0  0  0  0  0  0  0  0  0
   -2.7450   -0.5550    0.0000 C   0  0  0  0  0  0  0  0  0  0  0  0
   -2.1810    0.0471    0.0000 C   0  0  0  0  0  0  0  0  0  0  0  0
    1.9514   -1.2950    0.0000 H   0  0  0  0  0  0  0  0  0  0  0  0
   -0.0648    1.3631    0.0000 H   0  0  0  0  0  0  0  0  0  0  0  0
    1.0561    2.8436    0.0000 H   0  0  0  0  0  0  0  0  0  0  0  0
    3.6204    0.9022    0.0000 H   0  0  0  0  0  0  0  0  0  0  0  0
    2.4996   -0.5784    0.0000 H   0  0  0  0  0  0  0  0  0  0  0  0
   -0.6796    1.4011    0.0000 H   0  0  0  0  0  0  0  0  0  0  0  0
   -1.6443    0.8358    0.0000 H   0  0  0  0  0  0  0  0  0  0  0  0
   -1.4027   -2.5195    0.0000 H   0  0  0  0  0  0  0  0  0  0  0  0
   -3.2111   -2.0977    0.0000 H   0  0  0  0  0  0  0  0  0  0  0  0
   -3.7500   -0.3206    0.0000 H   0  0  0  0  0  0  0  0  0  0  0  0
   -2.4804    1.0347    0.0000 H   0  0  0  0  0  0  0  0  0  0  0  0
  1  2  1  0  0  0  0
  1  5  1  0  0  0  0
  1 19  1  0  0  0  0
  2  3  2  0  0  0  0
  3  4  1  0  0  0  0
  3 14  1  0  0  0  0
  4  5  2  0  0  0  0
  4 12  1  0  0  0  0
  5  6  1  0  0  0  0
  6  7  2  0  0  0  0
  6 11  1  0  0  0  0
  7  8  1  0  0  0  0
  7 20  1  0  0  0  0
  8  9  2  0  0  0  0
  8 21  1  0  0  0  0
  9 10  1  0  0  0  0
 10 11  2  0  0  0  0
 10 22  1  0  0  0  0
 11 23  1  0  0  0  0
 12 13  1  0  0  0  0
 12 24  1  0  0  0  0
 12 25  1  0  0  0  0
 13 14  2  0  0  0  0
 13 18  1  0  0  0  0
 14 15  1  0  0  0  0
 15 16  2  0  0  0  0
 15 26  1  0  0  0  0
 16 17  1  0  0  0  0
 16 27  1  0  0  0  0
 17 18  2  0  0  0  0
 17 28  1  0  0  0  0
 18 29  1  0  0  0  0
M  END
>  <DRUGBANK_ID>
DB03490

>  <SECONDARY_ACCESSION_NUMBERS>
EXPT02030

>  <COMMON_NAME>
3-Pyridin-4-Yl-2,4-Dihydro-Indeno[1,2-.C.]Pyrazole

>  <UNII>
0EMS99B8D6

$$$$
