139
 OpenBabel10282417072D

 14 13  0  0  0  0  0  0  0  0999 V2000
    2.0928    0.2063    0.0000 O   0  0  0  0  0  0  0  0  0  0  0  0
    5.6650   -0.2063    0.0000 O   0  0  0  0  0  0  0  0  0  0  0  0
    2.8072   -1.0312    0.0000 O   0  0  0  0  0  0  0  0  0  0  0  0
    4.9504    1.0312    0.0000 O   0  0  0  0  0  0  0  0  0  0  0  0
    3.5217    0.2063    0.0000 C   0  0  0  0  0  0  0  0  0  0  0  0
    4.2361   -0.2063    0.0000 C   0  0  0  0  0  0  0  0  0  0  0  0
    2.8072   -0.2063    0.0000 C   0  0  0  0  0  0  0  0  0  0  0  0
    4.9504    0.2063    0.0000 C   0  0  0  0  0  0  0  0  0  0  0  0
    2.0929    1.1433    0.0000 H   0  0  0  0  0  0  0  0  0  0  0  0
    5.6650   -1.1433    0.0000 H   0  0  0  0  0  0  0  0  0  0  0  0
    3.5217    1.2763    0.0000 H   0  0  0  0  0  0  0  0  0  0  0  0
    2.5950    0.7413    0.0000 H   0  0  0  0  0  0  0  0  0  0  0  0
    4.2361   -1.2763    0.0000 H   0  0  0  0  0  0  0  0  0  0  0  0
    5.1628   -0.7412    0.0000 H   0  0  0  0  0  0  0  0  0  0  0  0
  1  7  1  0  0  0  0
  1  9  1  0  0  0  0
  2  8  1  0  0  0  0
  2 10  1  0  0  0  0
  3  7  2  0  0  0  0
  4  8  2  0  0  0  0
  5  6  1  0  0  0  0
  5  7  1  0  0  0  0
  5 11  1  0  0  0  0
  5 12  1  0  0  0  0
  6  8  1  0  0  0  0
  6 13  1  0  0  0  0
  6 14  1  0  0  0  0
M  END
>  <DRUGBANK_ID>
DB00139

>  <SECONDARY_ACCESSION_NUMBERS>
NUTR00054

>  <COMMON_NAME>
Succinic acid

>  <CAS_NUMBER>
110-15-6

>  <UNII>
AB6MNQ6J6L

>  <SYNONYMS>
1,2-ethanedicarboxylic acid; Acide butanedioïque; Acide succinique; Acidum succinicum; Amber acid; Asuccin; Bernsteinsäure; Butandisäure; Butanedioic acid; Butanedionic acid; Dihydrofumaric acid; Ethylenesuccinic acid; Spirit of amber; Succinic acid

$$$$
