
 OpenBabel10282417072D

 32 32  0  0  0  0  0  0  0  0999 V2000
   -2.5265    0.1433    0.0000 C   0  0  0  0  0  0  0  0  0  0  0  0
    1.0786   -0.2210    0.0000 O   0  0  0  0  0  0  0  0  0  0  0  0
   -2.5507    0.9741    0.0000 O   0  0  0  0  0  0  0  0  0  0  0  0
    1.8073    0.2016    0.0000 C   0  0  0  0  0  0  0  0  0  0  0  0
   -1.7976   -0.2599    0.0000 O   0  0  0  0  0  0  0  0  0  0  0  0
    2.5215   -0.2064    0.0000 C   0  0  0  0  0  0  0  0  0  0  0  0
   -3.2357   -0.2891    0.0000 N   0  0  0  0  0  0  0  0  0  0  0  0
   -0.3547   -0.2356    0.0000 C   0  0  3  0  0  0  0  0  0  0  0  0
    0.3498    0.1870    0.0000 C   0  0  0  0  0  0  0  0  0  0  0  0
   -1.0834    0.1627    0.0000 C   0  0  0  0  0  0  0  0  0  0  0  0
    2.5215   -1.0373    0.0000 O   0  0  0  0  0  0  0  0  0  0  0  0
   -0.3352   -1.0810    0.0000 O   0  0  0  0  0  0  0  0  0  0  0  0
    1.8073    1.0324    0.0000 C   0  0  0  0  0  0  0  0  0  0  0  0
    3.2357    0.2016    0.0000 C   0  0  0  0  0  0  0  0  0  0  0  0
    1.8073   -1.4454    0.0000 C   0  0  0  0  0  0  0  0  0  0  0  0
    2.5215    1.4454    0.0000 C   0  0  0  0  0  0  0  0  0  0  0  0
    3.2357    1.0373    0.0000 C   0  0  0  0  0  0  0  0  0  0  0  0
   -4.0998    0.1826    0.0000 H   0  0  0  0  0  0  0  0  0  0  0  0
   -3.2121   -1.2733    0.0000 H   0  0  0  0  0  0  0  0  0  0  0  0
   -0.3761    0.8342    0.0000 H   0  0  0  0  0  0  0  0  0  0  0  0
    0.3338    1.2569    0.0000 H   0  0  0  0  0  0  0  0  0  0  0  0
   -0.5852    0.7072    0.0000 H   0  0  0  0  0  0  0  0  0  0  0  0
   -1.1016    1.2325    0.0000 H   0  0  0  0  0  0  0  0  0  0  0  0
   -2.0174    0.6848    0.0000 H   0  0  0  0  0  0  0  0  0  0  0  0
   -1.1638   -1.5852    0.0000 H   0  0  0  0  0  0  0  0  0  0  0  0
    0.9134    1.5481    0.0000 H   0  0  0  0  0  0  0  0  0  0  0  0
    4.1283   -0.3164    0.0000 H   0  0  0  0  0  0  0  0  0  0  0  0
    0.8831   -0.9063    0.0000 H   0  0  0  0  0  0  0  0  0  0  0  0
    1.8025   -2.5154    0.0000 H   0  0  0  0  0  0  0  0  0  0  0  0
    0.8783   -1.9763    0.0000 H   0  0  0  0  0  0  0  0  0  0  0  0
    2.5188    2.4774    0.0000 H   0  0  0  0  0  0  0  0  0  0  0  0
    4.1283    1.5553    0.0000 H   0  0  0  0  0  0  0  0  0  0  0  0
  2  9  1  0  0  0  0
  3  1  2  0  0  0  0
  4  2  1  0  0  0  0
  5  1  1  0  0  0  0
  6  4  2  0  0  0  0
  7  1  1  0  0  0  0
  7 18  1  0  0  0  0
  7 19  1  0  0  0  0
  8 10  1  0  0  0  0
  8 20  1  0  0  0  0
  9  8  1  0  0  0  0
  9 21  1  0  0  0  0
  9 22  1  0  0  0  0
 10  5  1  0  0  0  0
 10 23  1  0  0  0  0
 10 24  1  0  0  0  0
 11  6  1  0  0  0  0
 12  8  1  0  0  0  0
 12 25  1  0  0  0  0
 13  4  1  0  0  0  0
 13 26  1  0  0  0  0
 14  6  1  0  0  0  0
 14 27  1  0  0  0  0
 15 11  1  0  0  0  0
 15 28  1  0  0  0  0
 15 29  1  0  0  0  0
 15 30  1  0  0  0  0
 16 13  2  0  0  0  0
 16 31  1  0  0  0  0
 17 16  1  0  0  0  0
 17 14  2  0  0  0  0
 17 32  1  0  0  0  0
M  END
>  <DRUGBANK_ID>
DB00423

>  <SECONDARY_ACCESSION_NUMBERS>
APRD01102

>  <COMMON_NAME>
Methocarbamol

>  <CAS_NUMBER>
532-03-6

>  <UNII>
125OD7737X

>  <SYNONYMS>
(RS)-2-hydroxy-3-(2-methoxyphenoxy)propyl carbamate; Methocarbamol; MÃ©thocarbamol; Methocarbamolum; Metocarbamol; Metocarbamolo

$$$$
