
 OpenBabel10282417072D

 29 29  0  0  0  0  0  0  0  0999 V2000
    1.8569   -2.6352    0.0000 C   0  0  0  0  0  0  0  0  0  0  0  0
    2.2695   -1.9208    0.0000 C   0  0  0  0  0  0  0  0  0  0  0  0
    1.8569   -1.2063    0.0000 C   0  0  0  0  0  0  0  0  0  0  0  0
    3.0945   -1.9208    0.0000 C   0  0  0  0  0  0  0  0  0  0  0  0
    2.6820   -2.6352    0.0000 C   0  0  0  0  0  0  0  0  0  0  0  0
    3.0945   -3.3497    0.0000 C   0  0  0  0  0  0  0  0  0  0  0  0
    3.0945   -1.0958    0.0000 C   0  0  0  0  0  0  0  0  0  0  0  0
    2.3800   -0.6832    0.0000 O   0  0  0  0  0  0  0  0  0  0  0  0
    3.8089   -0.6832    0.0000 N   0  0  0  0  0  0  0  0  0  0  0  0
    4.5234   -1.0958    0.0000 C   0  0  0  0  0  0  0  0  0  0  0  0
    5.2379   -0.6832    0.0000 O   0  0  0  0  0  0  0  0  0  0  0  0
    4.5234   -1.9208    0.0000 N   0  0  0  0  0  0  0  0  0  0  0  0
    3.8089   -2.3333    0.0000 C   0  0  0  0  0  0  0  0  0  0  0  0
    3.8089   -3.1583    0.0000 O   0  0  0  0  0  0  0  0  0  0  0  0
    2.6820   -4.0642    0.0000 C   0  0  0  0  0  0  0  0  0  0  0  0
    0.7869   -2.6350    0.0000 H   0  0  0  0  0  0  0  0  0  0  0  0
    2.3918   -3.5619    0.0000 H   0  0  0  0  0  0  0  0  0  0  0  0
    1.3218   -3.5618    0.0000 H   0  0  0  0  0  0  0  0  0  0  0  0
    2.8045   -0.9941    0.0000 H   0  0  0  0  0  0  0  0  0  0  0  0
    2.3918   -0.2796    0.0000 H   0  0  0  0  0  0  0  0  0  0  0  0
    0.7869   -1.2064    0.0000 H   0  0  0  0  0  0  0  0  0  0  0  0
    1.3218   -0.2797    0.0000 H   0  0  0  0  0  0  0  0  0  0  0  0
    1.6120   -2.6352    0.0000 H   0  0  0  0  0  0  0  0  0  0  0  0
    2.1470   -3.5618    0.0000 H   0  0  0  0  0  0  0  0  0  0  0  0
    4.1265   -3.3497    0.0000 H   0  0  0  0  0  0  0  0  0  0  0  0
    3.8089    0.3013    0.0000 H   0  0  0  0  0  0  0  0  0  0  0  0
    5.3760   -2.4131    0.0000 H   0  0  0  0  0  0  0  0  0  0  0  0
    1.6500   -4.0642    0.0000 H   0  0  0  0  0  0  0  0  0  0  0  0
    3.1980   -4.9579    0.0000 H   0  0  0  0  0  0  0  0  0  0  0  0
  1  2  1  0  0  0  0
  1 16  1  0  0  0  0
  1 17  1  0  0  0  0
  1 18  1  0  0  0  0
  2  3  1  0  0  0  0
  2  4  1  0  0  0  0
  2 19  1  0  0  0  0
  3 20  1  0  0  0  0
  3 21  1  0  0  0  0
  3 22  1  0  0  0  0
  4  5  1  0  0  0  0
  4  7  1  0  0  0  0
  4 13  1  0  0  0  0
  5  6  1  0  0  0  0
  5 23  1  0  0  0  0
  5 24  1  0  0  0  0
  6 25  1  0  0  0  0
  7  8  2  0  0  0  0
  7  9  1  0  0  0  0
  9 10  1  0  0  0  0
  9 26  1  0  0  0  0
 10 11  2  0  0  0  0
 10 12  1  0  0  0  0
 12 13  1  0  0  0  0
 12 27  1  0  0  0  0
 13 14  2  0  0  0  0
 15  6  2  0  0  0  0
 15 28  1  0  0  0  0
 15 29  1  0  0  0  0
M  END
>  <DRUGBANK_ID>
DB01352

>  <COMMON_NAME>
Aprobarbital

>  <CAS_NUMBER>
77-02-1

>  <UNII>
Q0YKG9L6RF

>  <SYNONYMS>
5-(1-methylethyl)-5-(2-propenyl)-2,4,6(1H,3H,5H)-pyrimidinetrione; 5-allyl-5-isopropylbarbituric acid; 5-allyl-5-isopropylpyrimidine-2,4,6(1H,3H,5H)-trione; 5-isopropyl-5-allylbarbituric acid; Allypropymal; Aprobarbital; Aprobarbitale; Aprobarbitalum

$$$$
