
 OpenBabel10282417072D

 32 31  0  0  1  0  0  0  0  0999 V2000
    2.9980    1.7309    0.0000 C   0  0  0  0  0  0  0  0  0  0  0  0
    3.7125    2.1434    0.0000 C   0  0  0  0  0  0  0  0  0  0  0  0
    4.1250    1.4289    0.0000 C   0  0  0  0  0  0  0  0  0  0  0  0
    3.3000    2.8579    0.0000 C   0  0  0  0  0  0  0  0  0  0  0  0
    4.4270    2.5559    0.0000 O   0  0  0  0  0  0  0  0  0  0  0  0
    5.1414    2.1434    0.0000 C   0  0  0  0  0  0  0  0  0  0  0  0
    5.1414    1.3184    0.0000 O   0  0  0  0  0  0  0  0  0  0  0  0
    5.8559    2.5559    0.0000 C   0  0  1  0  0  0  0  0  0  0  0  0
    5.8559    3.3809    0.0000 N   0  0  0  0  0  0  0  0  0  0  0  0
    6.5704    2.1434    0.0000 C   0  0  0  0  0  0  0  0  0  0  0  0
    7.2849    2.5559    0.0000 C   0  0  0  0  0  0  0  0  0  0  0  0
    7.9993    2.1434    0.0000 C   0  0  0  0  0  0  0  0  0  0  0  0
    8.7138    2.5559    0.0000 N   0  0  0  0  0  0  0  0  0  0  0  0
    7.9993    1.3184    0.0000 O   0  0  0  0  0  0  0  0  0  0  0  0
    2.0714    2.2659    0.0000 H   0  0  0  0  0  0  0  0  0  0  0  0
    2.9980    0.6609    0.0000 H   0  0  0  0  0  0  0  0  0  0  0  0
    2.0713    1.1959    0.0000 H   0  0  0  0  0  0  0  0  0  0  0  0
    3.5900    0.5023    0.0000 H   0  0  0  0  0  0  0  0  0  0  0  0
    5.1950    1.4289    0.0000 H   0  0  0  0  0  0  0  0  0  0  0  0
    4.6600    0.5022    0.0000 H   0  0  0  0  0  0  0  0  0  0  0  0
    3.8350    3.7845    0.0000 H   0  0  0  0  0  0  0  0  0  0  0  0
    2.2300    2.8579    0.0000 H   0  0  0  0  0  0  0  0  0  0  0  0
    2.7650    3.7846    0.0000 H   0  0  0  0  0  0  0  0  0  0  0  0
    4.9293    3.0909    0.0000 H   0  0  0  0  0  0  0  0  0  0  0  0
    6.7392    3.8909    0.0000 H   0  0  0  0  0  0  0  0  0  0  0  0
    4.9726    3.8909    0.0000 H   0  0  0  0  0  0  0  0  0  0  0  0
    6.5704    1.0734    0.0000 H   0  0  0  0  0  0  0  0  0  0  0  0
    7.4970    1.6084    0.0000 H   0  0  0  0  0  0  0  0  0  0  0  0
    7.2849    3.6259    0.0000 H   0  0  0  0  0  0  0  0  0  0  0  0
    8.2116    3.0909    0.0000 H   0  0  0  0  0  0  0  0  0  0  0  0
    9.5664    2.0636    0.0000 H   0  0  0  0  0  0  0  0  0  0  0  0
    8.7138    3.5404    0.0000 H   0  0  0  0  0  0  0  0  0  0  0  0
  1  2  1  0  0  0  0
  1 15  1  0  0  0  0
  1 16  1  0  0  0  0
  1 17  1  0  0  0  0
  2  3  1  0  0  0  0
  2  4  1  0  0  0  0
  2  5  1  0  0  0  0
  3 18  1  0  0  0  0
  3 19  1  0  0  0  0
  3 20  1  0  0  0  0
  4 21  1  0  0  0  0
  4 22  1  0  0  0  0
  4 23  1  0  0  0  0
  5  6  1  0  0  0  0
  6  7  2  0  0  0  0
  6  8  1  0  0  0  0
  8  9  1  0  0  0  0
  8 10  1  0  0  0  0
  8 24  1  6  0  0  0
  9 25  1  0  0  0  0
  9 26  1  0  0  0  0
 10 11  1  0  0  0  0
 10 27  1  0  0  0  0
 10 28  1  0  0  0  0
 11 12  1  0  0  0  0
 11 29  1  0  0  0  0
 11 30  1  0  0  0  0
 12 13  1  0  0  0  0
 12 14  2  0  0  0  0
 13 31  1  0  0  0  0
 13 32  1  0  0  0  0
M  END
>  <DRUGBANK_ID>
DB04636

>  <COMMON_NAME>
Glutamine t-butyl ester

$$$$
