
 OpenBabel10282417072D

 58 57  0  0  1  0  0  0  0  0999 V2000
    1.8562   -2.8578    0.0000 C   0  0  0  0  0  0  0  0  0  0  0  0
    2.6812   -2.8578    0.0000 C   0  0  0  0  0  0  0  0  0  0  0  0
    3.0937   -3.5723    0.0000 C   0  0  0  0  0  0  0  0  0  0  0  0
    3.9187   -3.5723    0.0000 C   0  0  0  0  0  0  0  0  0  0  0  0
    4.3312   -2.8578    0.0000 C   0  0  0  0  0  0  0  0  0  0  0  0
    3.9187   -2.1433    0.0000 C   0  0  2  0  0  0  0  0  0  0  0  0
    3.0937   -2.1433    0.0000 O   0  0  0  0  0  0  0  0  0  0  0  0
    4.3312   -1.4289    0.0000 C   0  0  0  0  0  0  0  0  0  0  0  0
    3.9187   -0.7144    0.0000 C   0  0  0  0  0  0  0  0  0  0  0  0
    3.0937   -0.7144    0.0000 C   0  0  0  0  0  0  0  0  0  0  0  0
    2.6812    0.0000    0.0000 C   0  0  0  0  0  0  0  0  0  0  0  0
    1.8562    0.0000    0.0000 C   0  0  0  0  0  0  0  0  0  0  0  0
    1.4437    0.7144    0.0000 C   0  0  0  0  0  0  0  0  0  0  0  0
    0.6187    0.7144    0.0000 C   0  0  2  0  0  0  0  0  0  0  0  0
    0.2062    0.0000    0.0000 O   0  0  0  0  0  0  0  0  0  0  0  0
    0.2062    1.4289    0.0000 C   0  0  0  0  0  0  0  0  0  0  0  0
    0.6187    2.1433    0.0000 C   0  0  0  0  0  0  0  0  0  0  0  0
    0.2062    2.8578    0.0000 C   0  0  0  0  0  0  0  0  0  0  0  0
   -0.6187    2.8578    0.0000 C   0  0  0  0  0  0  0  0  0  0  0  0
   -1.0312    3.5723    0.0000 C   0  0  0  0  0  0  0  0  0  0  0  0
   -1.8562    3.5723    0.0000 C   0  0  0  0  0  0  0  0  0  0  0  0
   -2.2687    2.8578    0.0000 C   0  0  0  0  0  0  0  0  0  0  0  0
   -3.0937    2.8578    0.0000 C   0  0  0  0  0  0  0  0  0  0  0  0
   -3.5062    2.1433    0.0000 C   0  0  0  0  0  0  0  0  0  0  0  0
   -4.3312    2.1433    0.0000 O   0  0  0  0  0  0  0  0  0  0  0  0
   -3.0937    1.4289    0.0000 O   0  0  0  0  0  0  0  0  0  0  0  0
    1.3212   -1.9312    0.0000 H   0  0  0  0  0  0  0  0  0  0  0  0
    1.3212   -3.7844    0.0000 H   0  0  0  0  0  0  0  0  0  0  0  0
    0.7862   -2.8578    0.0000 H   0  0  0  0  0  0  0  0  0  0  0  0
    3.2162   -1.9312    0.0000 H   0  0  0  0  0  0  0  0  0  0  0  0
    3.7512   -2.8578    0.0000 H   0  0  0  0  0  0  0  0  0  0  0  0
    2.5777   -4.4660    0.0000 H   0  0  0  0  0  0  0  0  0  0  0  0
    4.4347   -4.4660    0.0000 H   0  0  0  0  0  0  0  0  0  0  0  0
    5.4012   -2.8578    0.0000 H   0  0  0  0  0  0  0  0  0  0  0  0
    4.8662   -1.9312    0.0000 H   0  0  0  0  0  0  0  0  0  0  0  0
    3.3837   -3.0699    0.0000 H   0  0  0  0  0  0  0  0  0  0  0  0
    2.6087   -1.3033    0.0000 H   0  0  0  0  0  0  0  0  0  0  0  0
    5.3632   -1.4289    0.0000 H   0  0  0  0  0  0  0  0  0  0  0  0
    4.4347    0.1793    0.0000 H   0  0  0  0  0  0  0  0  0  0  0  0
    2.5777   -1.6081    0.0000 H   0  0  0  0  0  0  0  0  0  0  0  0
    3.1972    0.8937    0.0000 H   0  0  0  0  0  0  0  0  0  0  0  0
    1.3402   -0.8937    0.0000 H   0  0  0  0  0  0  0  0  0  0  0  0
    1.9597    1.6081    0.0000 H   0  0  0  0  0  0  0  0  0  0  0  0
    1.1537   -0.2123    0.0000 H   0  0  0  0  0  0  0  0  0  0  0  0
   -0.7638    0.0000    0.0000 H   0  0  0  0  0  0  0  0  0  0  0  0
   -0.8638    1.4289    0.0000 H   0  0  0  0  0  0  0  0  0  0  0  0
   -0.3288    2.3556    0.0000 H   0  0  0  0  0  0  0  0  0  0  0  0
    1.6507    2.1433    0.0000 H   0  0  0  0  0  0  0  0  0  0  0  0
    0.7222    3.7515    0.0000 H   0  0  0  0  0  0  0  0  0  0  0  0
   -1.1537    1.9312    0.0000 H   0  0  0  0  0  0  0  0  0  0  0  0
   -1.6887    2.8578    0.0000 H   0  0  0  0  0  0  0  0  0  0  0  0
   -0.5152    4.4660    0.0000 H   0  0  0  0  0  0  0  0  0  0  0  0
   -2.3722    4.4660    0.0000 H   0  0  0  0  0  0  0  0  0  0  0  0
   -1.7337    1.9312    0.0000 H   0  0  0  0  0  0  0  0  0  0  0  0
   -2.8037    1.9312    0.0000 H   0  0  0  0  0  0  0  0  0  0  0  0
   -3.6287    3.7844    0.0000 H   0  0  0  0  0  0  0  0  0  0  0  0
   -4.1637    2.8578    0.0000 H   0  0  0  0  0  0  0  0  0  0  0  0
   -4.7997    2.9548    0.0000 H   0  0  0  0  0  0  0  0  0  0  0  0
  1  2  1  0  0  0  0
  1 27  1  0  0  0  0
  1 28  1  0  0  0  0
  1 29  1  0  0  0  0
  2  3  1  0  0  0  0
  2 30  1  0  0  0  0
  2 31  1  0  0  0  0
  3  4  2  0  0  0  0
  3 32  1  0  0  0  0
  4  5  1  0  0  0  0
  4 33  1  0  0  0  0
  5 34  1  0  0  0  0
  5 35  1  0  0  0  0
  6  5  1  0  0  0  0
  6  7  1  0  0  0  0
  6  8  1  0  0  0  0
  6 36  1  1  0  0  0
  7 37  1  0  0  0  0
  8  9  2  0  0  0  0
  8 38  1  0  0  0  0
  9 10  1  0  0  0  0
  9 39  1  0  0  0  0
 10 11  2  0  0  0  0
 10 40  1  0  0  0  0
 11 12  1  0  0  0  0
 11 41  1  0  0  0  0
 12 13  2  0  0  0  0
 12 42  1  0  0  0  0
 13 43  1  0  0  0  0
 14 13  1  0  0  0  0
 14 15  1  0  0  0  0
 14 16  1  0  0  0  0
 14 44  1  1  0  0  0
 15 45  1  0  0  0  0
 16 17  1  0  0  0  0
 16 46  1  0  0  0  0
 16 47  1  0  0  0  0
 17 18  2  0  0  0  0
 17 48  1  0  0  0  0
 18 19  1  0  0  0  0
 18 49  1  0  0  0  0
 19 20  1  0  0  0  0
 19 50  1  0  0  0  0
 19 51  1  0  0  0  0
 20 21  2  0  0  0  0
 20 52  1  0  0  0  0
 21 22  1  0  0  0  0
 21 53  1  0  0  0  0
 22 23  1  0  0  0  0
 22 54  1  0  0  0  0
 22 55  1  0  0  0  0
 23 24  1  0  0  0  0
 23 56  1  0  0  0  0
 23 57  1  0  0  0  0
 24 25  1  0  0  0  0
 24 26  2  0  0  0  0
 25 58  1  0  0  0  0
M  END
>  <DRUGBANK_ID>
DB18511

>  <COMMON_NAME>
AP-001

>  <CAS_NUMBER>
660430-03-5

>  <UNII>
P3FX063KLI

>  <SYNONYMS>
(4Z,7Z,10R,11E,13E,15Z,17S,19Z) 10,17-DIHYDROXY-DOCOSA-4,7,11,13,15,19-HEXAENOIC ACID; 4,7,11,13,15,19-DOCOSAHEXAENOIC ACID, 10,17-DIHYDROXY-, (4Z,7Z,10R,11E,13E,15Z,17S,19Z)-; NEUROPROTECTIN D1; NPD-1; PROTECTIN D1

$$$$
