
 OpenBabel10282417072D

 38 37  0  0  0  0  0  0  0  0999 V2000
    2.3649   -2.7596    0.0000 O   0  0  0  0  0  0  0  0  0  0  0  0
    3.0793   -1.5221    0.0000 O   0  0  0  0  0  0  0  0  0  0  0  0
   -2.6364    1.7778    0.0000 O   0  0  0  0  0  0  0  0  0  0  0  0
   -1.9218    3.0153    0.0000 O   0  0  0  0  0  0  0  0  0  0  0  0
   -1.9218   -0.2846    0.0000 O   0  0  0  0  0  0  0  0  0  0  0  0
   -2.6364    0.9528    0.0000 O   0  0  0  0  0  0  0  0  0  0  0  0
   -0.4929    2.1903    0.0000 N   0  0  0  0  0  0  0  0  0  0  0  0
    0.2214    0.9528    0.0000 N   0  0  0  0  0  0  0  0  0  0  0  0
    0.9360   -1.9346    0.0000 N   0  0  0  0  0  0  0  0  0  0  0  0
    0.9360    2.1903    0.0000 N   0  0  0  0  0  0  0  0  0  0  0  0
    1.6504   -0.6971    0.0000 C   0  0  0  0  0  0  0  0  0  0  0  0
    0.9360   -0.2846    0.0000 C   0  0  0  0  0  0  0  0  0  0  0  0
    1.6504   -1.5221    0.0000 C   0  0  1  0  0  0  0  0  0  0  0  0
    0.9360    0.5403    0.0000 C   0  0  0  0  0  0  0  0  0  0  0  0
   -1.2074    1.7778    0.0000 C   0  0  2  0  0  0  0  0  0  0  0  0
   -1.2074    0.9528    0.0000 C   0  0  0  0  0  0  0  0  0  0  0  0
    0.2214    1.7778    0.0000 C   0  0  0  0  0  0  0  0  0  0  0  0
    2.3649   -1.9346    0.0000 C   0  0  0  0  0  0  0  0  0  0  0  0
   -1.9218    2.1903    0.0000 C   0  0  0  0  0  0  0  0  0  0  0  0
   -1.9218    0.5403    0.0000 C   0  0  0  0  0  0  0  0  0  0  0  0
    1.5534   -3.2281    0.0000 H   0  0  0  0  0  0  0  0  0  0  0  0
   -3.4478    2.2464    0.0000 H   0  0  0  0  0  0  0  0  0  0  0  0
   -2.7333   -0.7531    0.0000 H   0  0  0  0  0  0  0  0  0  0  0  0
   -0.4928    3.1748    0.0000 H   0  0  0  0  0  0  0  0  0  0  0  0
    0.0526   -1.4246    0.0000 H   0  0  0  0  0  0  0  0  0  0  0  0
    0.9360   -2.9546    0.0000 H   0  0  0  0  0  0  0  0  0  0  0  0
    1.7886    1.6980    0.0000 H   0  0  0  0  0  0  0  0  0  0  0  0
    0.9361    3.1748    0.0000 H   0  0  0  0  0  0  0  0  0  0  0  0
    2.5771   -0.1621    0.0000 H   0  0  0  0  0  0  0  0  0  0  0  0
    2.5770   -1.2321    0.0000 H   0  0  0  0  0  0  0  0  0  0  0  0
    0.0093   -0.8196    0.0000 H   0  0  0  0  0  0  0  0  0  0  0  0
    0.0094    0.2504    0.0000 H   0  0  0  0  0  0  0  0  0  0  0  0
    0.7237   -0.9871    0.0000 H   0  0  0  0  0  0  0  0  0  0  0  0
    1.8626    1.0753    0.0000 H   0  0  0  0  0  0  0  0  0  0  0  0
    1.8627    0.0053    0.0000 H   0  0  0  0  0  0  0  0  0  0  0  0
   -0.2808    1.2428    0.0000 H   0  0  0  0  0  0  0  0  0  0  0  0
   -0.2807    0.4178    0.0000 H   0  0  0  0  0  0  0  0  0  0  0  0
   -1.2074   -0.1172    0.0000 H   0  0  0  0  0  0  0  0  0  0  0  0
  1 18  1  0  0  0  0
  1 21  1  0  0  0  0
  2 18  2  0  0  0  0
  3 19  1  0  0  0  0
  3 22  1  0  0  0  0
  4 19  2  0  0  0  0
  5 20  1  0  0  0  0
  5 23  1  0  0  0  0
  6 20  2  0  0  0  0
  7 17  1  0  0  0  0
  7 24  1  0  0  0  0
  8 14  1  0  0  0  0
  8 17  2  0  0  0  0
  9 25  1  0  0  0  0
  9 26  1  0  0  0  0
 10 17  1  0  0  0  0
 10 27  1  0  0  0  0
 10 28  1  0  0  0  0
 11 12  1  0  0  0  0
 11 13  1  0  0  0  0
 11 29  1  0  0  0  0
 11 30  1  0  0  0  0
 12 14  1  0  0  0  0
 12 31  1  0  0  0  0
 12 32  1  0  0  0  0
 13  9  1  0  0  0  0
 13 18  1  0  0  0  0
 13 33  1  6  0  0  0
 14 34  1  0  0  0  0
 14 35  1  0  0  0  0
 15  7  1  0  0  0  0
 15 16  1  0  0  0  0
 15 19  1  0  0  0  0
 15 36  1  1  0  0  0
 16 20  1  0  0  0  0
 16 37  1  0  0  0  0
 16 38  1  0  0  0  0
M  END
>  <DRUGBANK_ID>
DB02267

>  <SECONDARY_ACCESSION_NUMBERS>
EXPT00565

>  <COMMON_NAME>
Argininosuccinate

$$$$
