
 OpenBabel10282417072D

 58 62  0  0  1  0  0  0  0  0999 V2000
    4.8908    7.7120    0.0000 C   0  0  0  0  0  0  0  0  0  0  0  0
    4.4059    7.0445    0.0000 C   0  0  0  0  0  0  0  0  0  0  0  0
    4.6608    6.2599    0.0000 N   0  0  0  0  0  0  0  0  0  0  0  0
    3.9934    5.7750    0.0000 C   0  0  0  0  0  0  0  0  0  0  0  0
    3.9934    4.9500    0.0000 C   0  0  0  0  0  0  0  0  0  0  0  0
    3.2789    4.5375    0.0000 O   0  0  0  0  0  0  0  0  0  0  0  0
    4.7079    4.5375    0.0000 N   0  0  0  0  0  0  0  0  0  0  0  0
    5.4223    4.9500    0.0000 C   0  0  0  0  0  0  0  0  0  0  0  0
    6.1368    4.5375    0.0000 C   0  0  0  0  0  0  0  0  0  0  0  0
    6.1368    3.7125    0.0000 C   0  0  0  0  0  0  0  0  0  0  0  0
    5.4223    3.3000    0.0000 C   0  0  0  0  0  0  0  0  0  0  0  0
    4.7079    3.7125    0.0000 C   0  0  1  0  0  0  0  0  0  0  0  0
    3.9934    3.3000    0.0000 C   0  0  0  0  0  0  0  0  0  0  0  0
    3.9934    2.4750    0.0000 N   0  0  0  0  0  0  0  0  0  0  0  0
    3.2789    2.0625    0.0000 C   0  0  0  0  0  0  0  0  0  0  0  0
    2.5645    2.4750    0.0000 O   0  0  0  0  0  0  0  0  0  0  0  0
    3.2789    1.2375    0.0000 C   0  0  0  0  0  0  0  0  0  0  0  0
    3.9934    0.8250    0.0000 C   0  0  0  0  0  0  0  0  0  0  0  0
    3.9934    0.0000    0.0000 C   0  0  0  0  0  0  0  0  0  0  0  0
    3.2789   -0.4125    0.0000 C   0  0  0  0  0  0  0  0  0  0  0  0
    2.5645    0.0000    0.0000 C   0  0  0  0  0  0  0  0  0  0  0  0
    2.5645    0.8250    0.0000 C   0  0  0  0  0  0  0  0  0  0  0  0
    1.7798    1.0799    0.0000 C   0  0  0  0  0  0  0  0  0  0  0  0
    1.2949    0.4125    0.0000 C   0  0  0  0  0  0  0  0  0  0  0  0
    1.7798   -0.2549    0.0000 O   0  0  0  0  0  0  0  0  0  0  0  0
    3.3260    6.2599    0.0000 C   0  0  0  0  0  0  0  0  0  0  0  0
    3.5809    7.0445    0.0000 S   0  0  0  0  0  0  0  0  0  0  0  0
    2.5413    6.0050    0.0000 C   0  0  0  0  0  0  0  0  0  0  0  0
    2.3698    5.1980    0.0000 C   0  0  0  0  0  0  0  0  0  0  0  0
    1.5852    4.9431    0.0000 C   0  0  0  0  0  0  0  0  0  0  0  0
    0.9721    5.4951    0.0000 C   0  0  0  0  0  0  0  0  0  0  0  0
    0.1875    5.2402    0.0000 F   0  0  0  0  0  0  0  0  0  0  0  0
    1.1436    6.3021    0.0000 C   0  0  0  0  0  0  0  0  0  0  0  0
    1.9282    6.5570    0.0000 C   0  0  0  0  0  0  0  0  0  0  0  0
    5.9549    7.6002    0.0000 H   0  0  0  0  0  0  0  0  0  0  0  0
    4.4555    8.6895    0.0000 H   0  0  0  0  0  0  0  0  0  0  0  0
    5.5197    8.5777    0.0000 H   0  0  0  0  0  0  0  0  0  0  0  0
    5.4223    6.0200    0.0000 H   0  0  0  0  0  0  0  0  0  0  0  0
    6.3489    5.4850    0.0000 H   0  0  0  0  0  0  0  0  0  0  0  0
    7.0634    5.0725    0.0000 H   0  0  0  0  0  0  0  0  0  0  0  0
    7.0634    4.0025    0.0000 H   0  0  0  0  0  0  0  0  0  0  0  0
    7.0634    3.1775    0.0000 H   0  0  0  0  0  0  0  0  0  0  0  0
    6.1368    2.6425    0.0000 H   0  0  0  0  0  0  0  0  0  0  0  0
    5.4223    2.2300    0.0000 H   0  0  0  0  0  0  0  0  0  0  0  0
    4.4956    2.7650    0.0000 H   0  0  0  0  0  0  0  0  0  0  0  0
    4.7079    2.6425    0.0000 H   0  0  0  0  0  0  0  0  0  0  0  0
    3.0668    3.8350    0.0000 H   0  0  0  0  0  0  0  0  0  0  0  0
    3.0668    2.7650    0.0000 H   0  0  0  0  0  0  0  0  0  0  0  0
    4.8460    1.9827    0.0000 H   0  0  0  0  0  0  0  0  0  0  0  0
    4.8871    1.3410    0.0000 H   0  0  0  0  0  0  0  0  0  0  0  0
    4.8871   -0.5160    0.0000 H   0  0  0  0  0  0  0  0  0  0  0  0
    3.2789   -1.4445    0.0000 H   0  0  0  0  0  0  0  0  0  0  0  0
    1.4609    2.0614    0.0000 H   0  0  0  0  0  0  0  0  0  0  0  0
    0.2629    0.4125    0.0000 H   0  0  0  0  0  0  0  0  0  0  0  0
    3.1367    4.5075    0.0000 H   0  0  0  0  0  0  0  0  0  0  0  0
    1.3706    3.9337    0.0000 H   0  0  0  0  0  0  0  0  0  0  0  0
    0.3767    6.9926    0.0000 H   0  0  0  0  0  0  0  0  0  0  0  0
    2.1428    7.5664    0.0000 H   0  0  0  0  0  0  0  0  0  0  0  0
  1  2  1  0  0  0  0
  1 35  1  0  0  0  0
  1 36  1  0  0  0  0
  1 37  1  0  0  0  0
  2  3  2  0  0  0  0
  2 27  1  0  0  0  0
  3  4  1  0  0  0  0
  4  5  1  0  0  0  0
  4 26  2  0  0  0  0
  5  6  2  0  0  0  0
  5  7  1  0  0  0  0
  7  8  1  0  0  0  0
  8  9  1  0  0  0  0
  8 38  1  0  0  0  0
  8 39  1  0  0  0  0
  9 10  1  0  0  0  0
  9 40  1  0  0  0  0
  9 41  1  0  0  0  0
 10 11  1  0  0  0  0
 10 42  1  0  0  0  0
 10 43  1  0  0  0  0
 11 44  1  0  0  0  0
 11 45  1  0  0  0  0
 12 11  1  0  0  0  0
 12  7  1  0  0  0  0
 12 13  1  0  0  0  0
 12 46  1  6  0  0  0
 13 14  1  0  0  0  0
 13 47  1  0  0  0  0
 13 48  1  0  0  0  0
 14 15  1  0  0  0  0
 14 49  1  0  0  0  0
 15 16  2  0  0  0  0
 15 17  1  0  0  0  0
 17 18  2  0  0  0  0
 17 22  1  0  0  0  0
 18 19  1  0  0  0  0
 18 50  1  0  0  0  0
 19 20  2  0  0  0  0
 19 51  1  0  0  0  0
 20 21  1  0  0  0  0
 20 52  1  0  0  0  0
 21 22  2  0  0  0  0
 21 25  1  0  0  0  0
 22 23  1  0  0  0  0
 23 24  2  0  0  0  0
 23 53  1  0  0  0  0
 24 25  1  0  0  0  0
 24 54  1  0  0  0  0
 26 27  1  0  0  0  0
 26 28  1  0  0  0  0
 28 29  2  0  0  0  0
 28 34  1  0  0  0  0
 29 30  1  0  0  0  0
 29 55  1  0  0  0  0
 30 31  2  0  0  0  0
 30 56  1  0  0  0  0
 31 32  1  0  0  0  0
 31 33  1  0  0  0  0
 33 34  2  0  0  0  0
 33 57  1  0  0  0  0
 34 58  1  0  0  0  0
M  END
>  <DRUGBANK_ID>
DB14822

>  <COMMON_NAME>
SB-649868

>  <CAS_NUMBER>
380899-24-1

>  <UNII>
1L1V1K2M4V

$$$$
