
 OpenBabel10282417072D

 30 29  0  0  1  0  0  0  0  0999 V2000
   -0.9355   -1.0164    0.0000 C   0  0  0  0  0  0  0  0  0  0  0  0
   -1.6500   -1.4289    0.0000 C   0  0  0  0  0  0  0  0  0  0  0  0
    1.9224   -1.0164    0.0000 C   0  0  0  0  0  0  0  0  0  0  0  0
   -0.2211   -1.4289    0.0000 C   0  0  2  0  0  0  0  0  0  0  0  0
    1.2079   -1.4289    0.0000 C   0  0  2  0  0  0  0  0  0  0  0  0
    0.4934   -1.0164    0.0000 C   0  0  1  0  0  0  0  0  0  0  0  0
   -2.3645   -1.0164    0.0000 O   0  0  0  0  0  0  0  0  0  0  0  0
   -0.2211   -2.2539    0.0000 O   0  0  0  0  0  0  0  0  0  0  0  0
    1.2079   -2.2539    0.0000 O   0  0  0  0  0  0  0  0  0  0  0  0
    0.4934   -0.1914    0.0000 O   0  0  0  0  0  0  0  0  0  0  0  0
    4.0658   -0.6039    0.0000 O   0  0  0  0  0  0  0  0  0  0  0  0
    3.7638   -1.7309    0.0000 O   0  0  0  0  0  0  0  0  0  0  0  0
    2.9388   -0.3020    0.0000 O   0  0  0  0  0  0  0  0  0  0  0  0
    2.6368   -1.4289    0.0000 O   0  0  0  0  0  0  0  0  0  0  0  0
    3.3513   -1.0164    0.0000 P   0  0  0  0  0  0  0  0  0  0  0  0
   -0.2211   -0.6039    0.0000 H   0  0  0  0  0  0  0  0  0  0  0  0
    1.2079   -0.6039    0.0000 H   0  0  0  0  0  0  0  0  0  0  0  0
    0.4934   -1.8414    0.0000 H   0  0  0  0  0  0  0  0  0  0  0  0
   -0.9355    0.0536    0.0000 H   0  0  0  0  0  0  0  0  0  0  0  0
   -0.0088   -0.4814    0.0000 H   0  0  0  0  0  0  0  0  0  0  0  0
   -1.6500   -2.4989    0.0000 H   0  0  0  0  0  0  0  0  0  0  0  0
   -2.5766   -1.9639    0.0000 H   0  0  0  0  0  0  0  0  0  0  0  0
    1.9224    0.0536    0.0000 H   0  0  0  0  0  0  0  0  0  0  0  0
    2.8491   -0.4814    0.0000 H   0  0  0  0  0  0  0  0  0  0  0  0
   -2.3645   -0.0464    0.0000 H   0  0  0  0  0  0  0  0  0  0  0  0
   -1.0611   -2.7389    0.0000 H   0  0  0  0  0  0  0  0  0  0  0  0
    0.3679   -2.7389    0.0000 H   0  0  0  0  0  0  0  0  0  0  0  0
    1.3334    0.2936    0.0000 H   0  0  0  0  0  0  0  0  0  0  0  0
    4.9058   -1.0889    0.0000 H   0  0  0  0  0  0  0  0  0  0  0  0
    3.2788   -2.5709    0.0000 H   0  0  0  0  0  0  0  0  0  0  0  0
  1 19  1  0  0  0  0
  1 20  1  0  0  0  0
  2  1  1  0  0  0  0
  2 21  1  0  0  0  0
  2 22  1  0  0  0  0
  3 23  1  0  0  0  0
  3 24  1  0  0  0  0
  4  1  1  0  0  0  0
  4  8  1  0  0  0  0
  4 16  1  1  0  0  0
  5  3  1  0  0  0  0
  5  9  1  0  0  0  0
  5 17  1  6  0  0  0
  6  4  1  0  0  0  0
  6  5  1  0  0  0  0
  6 10  1  0  0  0  0
  6 18  1  1  0  0  0
  7  2  1  0  0  0  0
  7 25  1  0  0  0  0
  8 26  1  0  0  0  0
  9 27  1  0  0  0  0
 10 28  1  0  0  0  0
 11 29  1  0  0  0  0
 12 30  1  0  0  0  0
 14  3  1  0  0  0  0
 15 11  1  0  0  0  0
 15 12  1  0  0  0  0
 15 13  2  0  0  0  0
 15 14  1  0  0  0  0
M  END
>  <DRUGBANK_ID>
DB04516

>  <SECONDARY_ACCESSION_NUMBERS>
EXPT01174

>  <COMMON_NAME>
2-Deoxy-Glucitol-6-Phosphate

$$$$
