SD8
 OpenBabel10282417072D

 46 49  0  0  0  0  0  0  0  0999 V2000
    1.4202    1.4230    0.0000 C   0  0  0  0  0  0  0  0  0  0  0  0
    1.4202    2.2480    0.0000 C   0  0  0  0  0  0  0  0  0  0  0  0
    2.8491    2.2480    0.0000 C   0  0  0  0  0  0  0  0  0  0  0  0
    3.5636    2.6605    0.0000 C   0  0  0  0  0  0  0  0  0  0  0  0
    4.2781    2.2480    0.0000 C   0  0  0  0  0  0  0  0  0  0  0  0
    4.2781    1.4230    0.0000 C   0  0  0  0  0  0  0  0  0  0  0  0
    3.5636    1.0105    0.0000 C   0  0  0  0  0  0  0  0  0  0  0  0
    2.8491    1.4230    0.0000 C   0  0  0  0  0  0  0  0  0  0  0  0
    0.7057    0.1855    0.0000 C   0  0  0  0  0  0  0  0  0  0  0  0
   -0.0088   -0.2270    0.0000 C   0  0  0  0  0  0  0  0  0  0  0  0
   -0.7232    1.0105    0.0000 C   0  0  0  0  0  0  0  0  0  0  0  0
   -0.0088    1.4230    0.0000 C   0  0  0  0  0  0  0  0  0  0  0  0
   -1.4377   -0.2270    0.0000 C   0  0  0  0  0  0  0  0  0  0  0  0
   -2.7434   -0.5045    0.0000 C   0  0  0  0  0  0  0  0  0  0  0  0
   -2.3309   -1.2190    0.0000 C   0  0  0  0  0  0  0  0  0  0  0  0
   -2.6665   -1.9726    0.0000 C   0  0  0  0  0  0  0  0  0  0  0  0
   -2.5171   -3.3937    0.0000 C   0  0  0  0  0  0  0  0  0  0  0  0
   -2.0322   -4.0612    0.0000 C   0  0  0  0  0  0  0  0  0  0  0  0
    2.1347    1.0105    0.0000 N   0  0  0  0  0  0  0  0  0  0  0  0
    0.7057    1.0105    0.0000 N   0  0  0  0  0  0  0  0  0  0  0  0
   -0.7232    0.1855    0.0000 N   0  0  0  0  0  0  0  0  0  0  0  0
   -1.5239   -1.0474    0.0000 N   0  0  0  0  0  0  0  0  0  0  0  0
   -3.4869   -2.0589    0.0000 O   0  0  0  0  0  0  0  0  0  0  0  0
   -2.1815   -2.6401    0.0000 O   0  0  0  0  0  0  0  0  0  0  0  0
    2.1347    2.6605    0.0000 S   0  0  0  0  0  0  0  0  0  0  0  0
   -2.1914    0.1086    0.0000 S   0  0  0  0  0  0  0  0  0  0  0  0
    0.4936    2.7830    0.0000 H   0  0  0  0  0  0  0  0  0  0  0  0
    1.4202    3.3180    0.0000 H   0  0  0  0  0  0  0  0  0  0  0  0
    3.5636    3.6925    0.0000 H   0  0  0  0  0  0  0  0  0  0  0  0
    5.1718    2.7640    0.0000 H   0  0  0  0  0  0  0  0  0  0  0  0
    5.1718    0.9070    0.0000 H   0  0  0  0  0  0  0  0  0  0  0  0
    3.5636   -0.0215    0.0000 H   0  0  0  0  0  0  0  0  0  0  0  0
    1.6323   -0.3495    0.0000 H   0  0  0  0  0  0  0  0  0  0  0  0
    1.6323    0.7205    0.0000 H   0  0  0  0  0  0  0  0  0  0  0  0
   -0.0088   -1.2970    0.0000 H   0  0  0  0  0  0  0  0  0  0  0  0
   -0.9355   -0.7620    0.0000 H   0  0  0  0  0  0  0  0  0  0  0  0
   -1.6499    1.5455    0.0000 H   0  0  0  0  0  0  0  0  0  0  0  0
   -1.6498    0.4755    0.0000 H   0  0  0  0  0  0  0  0  0  0  0  0
   -0.0088    2.4930    0.0000 H   0  0  0  0  0  0  0  0  0  0  0  0
    0.9178    1.9580    0.0000 H   0  0  0  0  0  0  0  0  0  0  0  0
   -3.7697   -0.3966    0.0000 H   0  0  0  0  0  0  0  0  0  0  0  0
   -3.5812   -3.5055    0.0000 H   0  0  0  0  0  0  0  0  0  0  0  0
   -3.1460   -2.5280    0.0000 H   0  0  0  0  0  0  0  0  0  0  0  0
   -2.4675   -5.0387    0.0000 H   0  0  0  0  0  0  0  0  0  0  0  0
   -0.9681   -3.9494    0.0000 H   0  0  0  0  0  0  0  0  0  0  0  0
   -1.4033   -4.9269    0.0000 H   0  0  0  0  0  0  0  0  0  0  0  0
  1  2  1  0  0  0  0
  1 19  2  0  0  0  0
  1 20  1  0  0  0  0
  2 25  1  0  0  0  0
  2 27  1  0  0  0  0
  2 28  1  0  0  0  0
  3  4  2  0  0  0  0
  3  8  1  0  0  0  0
  3 25  1  0  0  0  0
  4  5  1  0  0  0  0
  4 29  1  0  0  0  0
  5  6  2  0  0  0  0
  5 30  1  0  0  0  0
  6  7  1  0  0  0  0
  6 31  1  0  0  0  0
  7  8  2  0  0  0  0
  7 32  1  0  0  0  0
  8 19  1  0  0  0  0
  9 10  1  0  0  0  0
  9 20  1  0  0  0  0
  9 33  1  0  0  0  0
  9 34  1  0  0  0  0
 10 21  1  0  0  0  0
 10 35  1  0  0  0  0
 10 36  1  0  0  0  0
 11 12  1  0  0  0  0
 11 21  1  0  0  0  0
 11 37  1  0  0  0  0
 11 38  1  0  0  0  0
 12 20  1  0  0  0  0
 12 39  1  0  0  0  0
 12 40  1  0  0  0  0
 13 21  1  0  0  0  0
 13 22  2  0  0  0  0
 13 26  1  0  0  0  0
 14 15  2  0  0  0  0
 14 26  1  0  0  0  0
 14 41  1  0  0  0  0
 15 16  1  0  0  0  0
 15 22  1  0  0  0  0
 16 23  2  0  0  0  0
 16 24  1  0  0  0  0
 17 18  1  0  0  0  0
 17 24  1  0  0  0  0
 17 42  1  0  0  0  0
 17 43  1  0  0  0  0
 18 44  1  0  0  0  0
 18 45  1  0  0  0  0
 18 46  1  0  0  0  0
M  END
>  <DRUGBANK_ID>
DB08540

>  <COMMON_NAME>
2-[4-(2H-1,4-BENZOTHIAZINE-3-YL)-PIPERAZINE-1-LY]-1,3-THIAZOLE-4-CARBOXYLIC ACID ETHYLESTER

$$$$
