
 OpenBabel10282417072D

 51 54  0  0  1  0  0  0  0  0999 V2000
    3.0790    0.4125    0.0000 O   0  0  0  0  0  0  0  0  0  0  0  0
    5.2223   -0.8250    0.0000 O   0  0  0  0  0  0  0  0  0  0  0  0
    3.7934   -0.8250    0.0000 N   0  0  0  0  0  0  0  0  0  0  0  0
    4.5079    2.0625    0.0000 N   0  0  0  0  0  0  0  0  0  0  0  0
    3.7934   -1.6500    0.0000 C   0  0  3  0  0  0  0  0  0  0  0  0
    4.5079   -2.0625    0.0000 C   0  0  0  0  0  0  0  0  0  0  0  0
    3.0790   -2.0625    0.0000 C   0  0  0  0  0  0  0  0  0  0  0  0
    4.5079    0.4125    0.0000 C   0  0  0  0  0  0  0  0  0  0  0  0
    4.5079   -0.4125    0.0000 C   0  0  0  0  0  0  0  0  0  0  0  0
    5.2223    0.8250    0.0000 C   0  0  0  0  0  0  0  0  0  0  0  0
    4.5079   -2.8875    0.0000 C   0  0  0  0  0  0  0  0  0  0  0  0
    3.7934    0.8250    0.0000 C   0  0  0  0  0  0  0  0  0  0  0  0
    5.2223    1.6500    0.0000 C   0  0  0  0  0  0  0  0  0  0  0  0
    3.7934    1.6500    0.0000 C   0  0  0  0  0  0  0  0  0  0  0  0
    2.3644   -1.6500    0.0000 C   0  0  0  0  0  0  0  0  0  0  0  0
    3.0790   -2.8875    0.0000 C   0  0  0  0  0  0  0  0  0  0  0  0
    5.9599    0.3839    0.0000 C   0  0  0  0  0  0  0  0  0  0  0  0
    3.0790    2.0625    0.0000 C   0  0  0  0  0  0  0  0  0  0  0  0
    5.9599    2.0911    0.0000 C   0  0  0  0  0  0  0  0  0  0  0  0
    1.6500   -2.0625    0.0000 C   0  0  0  0  0  0  0  0  0  0  0  0
    2.3644   -3.3000    0.0000 C   0  0  0  0  0  0  0  0  0  0  0  0
    6.7073    0.8078    0.0000 C   0  0  0  0  0  0  0  0  0  0  0  0
    1.6500   -2.8875    0.0000 C   0  0  0  0  0  0  0  0  0  0  0  0
    6.7073    1.6672    0.0000 C   0  0  0  0  0  0  0  0  0  0  0  0
    3.0790    2.8875    0.0000 C   0  0  0  0  0  0  0  0  0  0  0  0
    2.3644    1.6500    0.0000 C   0  0  0  0  0  0  0  0  0  0  0  0
    2.3644    3.3000    0.0000 C   0  0  0  0  0  0  0  0  0  0  0  0
    1.6500    2.0625    0.0000 C   0  0  0  0  0  0  0  0  0  0  0  0
    1.6500    2.8875    0.0000 C   0  0  0  0  0  0  0  0  0  0  0  0
    2.2675    0.8810    0.0000 H   0  0  0  0  0  0  0  0  0  0  0  0
    2.9408   -0.3327    0.0000 H   0  0  0  0  0  0  0  0  0  0  0  0
    4.7200   -1.1150    0.0000 H   0  0  0  0  0  0  0  0  0  0  0  0
    5.4345   -1.5275    0.0000 H   0  0  0  0  0  0  0  0  0  0  0  0
    5.4345   -2.5975    0.0000 H   0  0  0  0  0  0  0  0  0  0  0  0
    3.5813   -3.4225    0.0000 H   0  0  0  0  0  0  0  0  0  0  0  0
    5.4345   -3.4225    0.0000 H   0  0  0  0  0  0  0  0  0  0  0  0
    4.5079   -3.9575    0.0000 H   0  0  0  0  0  0  0  0  0  0  0  0
    2.3643   -0.6180    0.0000 H   0  0  0  0  0  0  0  0  0  0  0  0
    3.9727   -3.4035    0.0000 H   0  0  0  0  0  0  0  0  0  0  0  0
    5.9480   -0.6480    0.0000 H   0  0  0  0  0  0  0  0  0  0  0  0
    5.9480    3.1230    0.0000 H   0  0  0  0  0  0  0  0  0  0  0  0
    0.7563   -1.5465    0.0000 H   0  0  0  0  0  0  0  0  0  0  0  0
    2.3643   -4.3320    0.0000 H   0  0  0  0  0  0  0  0  0  0  0  0
    7.5991    0.2884    0.0000 H   0  0  0  0  0  0  0  0  0  0  0  0
    0.7563   -3.4035    0.0000 H   0  0  0  0  0  0  0  0  0  0  0  0
    7.5991    2.1866    0.0000 H   0  0  0  0  0  0  0  0  0  0  0  0
    3.9727    3.4035    0.0000 H   0  0  0  0  0  0  0  0  0  0  0  0
    2.3643    0.6180    0.0000 H   0  0  0  0  0  0  0  0  0  0  0  0
    2.3643    4.3320    0.0000 H   0  0  0  0  0  0  0  0  0  0  0  0
    0.7563    1.5465    0.0000 H   0  0  0  0  0  0  0  0  0  0  0  0
    0.7563    3.4035    0.0000 H   0  0  0  0  0  0  0  0  0  0  0  0
  1 12  1  0  0  0  0
  1 30  1  0  0  0  0
  2  9  2  0  0  0  0
  3  5  1  0  0  0  0
  3  9  1  0  0  0  0
  3 31  1  0  0  0  0
  4 13  1  0  0  0  0
  4 14  2  0  0  0  0
  5  6  1  0  0  0  0
  5  7  1  0  0  0  0
  5 32  1  0  0  0  0
  6 11  1  0  0  0  0
  6 33  1  0  0  0  0
  6 34  1  0  0  0  0
  7 15  2  0  0  0  0
  7 16  1  0  0  0  0
  8  9  1  0  0  0  0
  8 10  1  0  0  0  0
  8 12  2  0  0  0  0
 10 13  1  0  0  0  0
 10 17  2  0  0  0  0
 11 35  1  0  0  0  0
 11 36  1  0  0  0  0
 11 37  1  0  0  0  0
 12 14  1  0  0  0  0
 13 19  2  0  0  0  0
 14 18  1  0  0  0  0
 15 20  1  0  0  0  0
 15 38  1  0  0  0  0
 16 21  2  0  0  0  0
 16 39  1  0  0  0  0
 17 22  1  0  0  0  0
 17 40  1  0  0  0  0
 18 25  2  0  0  0  0
 18 26  1  0  0  0  0
 19 24  1  0  0  0  0
 19 41  1  0  0  0  0
 20 23  2  0  0  0  0
 20 42  1  0  0  0  0
 21 23  1  0  0  0  0
 21 43  1  0  0  0  0
 22 24  2  0  0  0  0
 22 44  1  0  0  0  0
 23 45  1  0  0  0  0
 24 46  1  0  0  0  0
 25 27  1  0  0  0  0
 25 47  1  0  0  0  0
 26 28  2  0  0  0  0
 26 48  1  0  0  0  0
 27 29  2  0  0  0  0
 27 49  1  0  0  0  0
 28 29  1  0  0  0  0
 28 50  1  0  0  0  0
 29 51  1  0  0  0  0
M  END
>  <DRUGBANK_ID>
DB06429

>  <COMMON_NAME>
Talnetant

>  <CAS_NUMBER>
174636-32-9

>  <UNII>
CZ3T9T146K

>  <SYNONYMS>
Talnetant

$$$$
