
 OpenBabel10282417072D

 61 65  0  0  0  0  0  0  0  0999 V2000
    5.3942   -4.4349    0.0000 C   0  0  0  0  0  0  0  0  0  0  0  0
    5.0587   -3.6812    0.0000 C   0  0  0  0  0  0  0  0  0  0  0  0
    5.8123   -3.3456    0.0000 C   0  0  0  0  0  0  0  0  0  0  0  0
    4.3050   -4.0167    0.0000 O   0  0  0  0  0  0  0  0  0  0  0  0
    4.7231   -2.9275    0.0000 C   0  0  0  0  0  0  0  0  0  0  0  0
    3.9026   -2.8413    0.0000 C   0  0  0  0  0  0  0  0  0  0  0  0
    3.5671   -2.0876    0.0000 C   0  0  0  0  0  0  0  0  0  0  0  0
    2.7466   -2.0014    0.0000 N   0  0  0  0  0  0  0  0  0  0  0  0
    2.4110   -1.2477    0.0000 C   0  0  0  0  0  0  0  0  0  0  0  0
    1.5905   -1.1614    0.0000 C   0  0  0  0  0  0  0  0  0  0  0  0
    1.2550   -0.4078    0.0000 C   0  0  0  0  0  0  0  0  0  0  0  0
    0.4345   -0.3215    0.0000 O   0  0  0  0  0  0  0  0  0  0  0  0
   -0.0504   -0.9890    0.0000 C   0  0  0  0  0  0  0  0  0  0  0  0
    0.2045   -1.7736    0.0000 C   0  0  0  0  0  0  0  0  0  0  0  0
   -0.4629   -2.2585    0.0000 N   0  0  0  0  0  0  0  0  0  0  0  0
   -1.1304   -1.7736    0.0000 N   0  0  0  0  0  0  0  0  0  0  0  0
   -0.8754   -0.9890    0.0000 C   0  0  0  0  0  0  0  0  0  0  0  0
   -1.3603   -0.3215    0.0000 C   0  0  0  0  0  0  0  0  0  0  0  0
   -2.1808   -0.4078    0.0000 C   0  0  0  0  0  0  0  0  0  0  0  0
   -2.6657    0.2597    0.0000 C   0  0  0  0  0  0  0  0  0  0  0  0
   -2.3302    1.0133    0.0000 O   0  0  0  0  0  0  0  0  0  0  0  0
   -1.5097    1.0996    0.0000 C   0  0  0  0  0  0  0  0  0  0  0  0
   -1.0248    0.4321    0.0000 C   0  0  0  0  0  0  0  0  0  0  0  0
   -0.4629   -3.0835    0.0000 C   0  0  0  0  0  0  0  0  0  0  0  0
   -0.0504   -3.7980    0.0000 C   0  0  0  0  0  0  0  0  0  0  0  0
   -0.8754   -3.7980    0.0000 C   0  0  0  0  0  0  0  0  0  0  0  0
    1.7399    0.2597    0.0000 C   0  0  0  0  0  0  0  0  0  0  0  0
    2.5604    0.1734    0.0000 C   0  0  0  0  0  0  0  0  0  0  0  0
    2.8959   -0.5802    0.0000 N   0  0  0  0  0  0  0  0  0  0  0  0
    4.0520   -1.4202    0.0000 C   0  0  0  0  0  0  0  0  0  0  0  0
    4.8725   -1.5064    0.0000 C   0  0  0  0  0  0  0  0  0  0  0  0
    5.2080   -2.2601    0.0000 N   0  0  0  0  0  0  0  0  0  0  0  0
    4.7652   -5.3005    0.0000 H   0  0  0  0  0  0  0  0  0  0  0  0
    6.4583   -4.5468    0.0000 H   0  0  0  0  0  0  0  0  0  0  0  0
    5.8293   -5.4124    0.0000 H   0  0  0  0  0  0  0  0  0  0  0  0
    6.6780   -3.9745    0.0000 H   0  0  0  0  0  0  0  0  0  0  0  0
    5.9241   -2.2815    0.0000 H   0  0  0  0  0  0  0  0  0  0  0  0
    6.7898   -2.9103    0.0000 H   0  0  0  0  0  0  0  0  0  0  0  0
    3.5203   -3.4465    0.0000 H   0  0  0  0  0  0  0  0  0  0  0  0
    3.2960   -3.6762    0.0000 H   0  0  0  0  0  0  0  0  0  0  0  0
    2.1680   -2.7979    0.0000 H   0  0  0  0  0  0  0  0  0  0  0  0
    0.9839   -1.9963    0.0000 H   0  0  0  0  0  0  0  0  0  0  0  0
    1.1860   -2.0925    0.0000 H   0  0  0  0  0  0  0  0  0  0  0  0
   -1.9893    0.5441    0.0000 H   0  0  0  0  0  0  0  0  0  0  0  0
   -2.6160   -1.3853    0.0000 H   0  0  0  0  0  0  0  0  0  0  0  0
   -3.2449   -0.5196    0.0000 H   0  0  0  0  0  0  0  0  0  0  0  0
   -3.7298    0.1479    0.0000 H   0  0  0  0  0  0  0  0  0  0  0  0
   -3.2946    1.1253    0.0000 H   0  0  0  0  0  0  0  0  0  0  0  0
   -1.0745    2.0771    0.0000 H   0  0  0  0  0  0  0  0  0  0  0  0
   -0.4456    1.2114    0.0000 H   0  0  0  0  0  0  0  0  0  0  0  0
    0.0393    0.5439    0.0000 H   0  0  0  0  0  0  0  0  0  0  0  0
   -0.3959   -0.4335    0.0000 H   0  0  0  0  0  0  0  0  0  0  0  0
   -0.4629   -4.1535    0.0000 H   0  0  0  0  0  0  0  0  0  0  0  0
    0.8762   -4.3330    0.0000 H   0  0  0  0  0  0  0  0  0  0  0  0
   -0.3273   -4.8315    0.0000 H   0  0  0  0  0  0  0  0  0  0  0  0
   -1.8020   -4.3330    0.0000 H   0  0  0  0  0  0  0  0  0  0  0  0
   -1.6320   -3.0414    0.0000 H   0  0  0  0  0  0  0  0  0  0  0  0
    1.3202    1.2025    0.0000 H   0  0  0  0  0  0  0  0  0  0  0  0
    3.1670    1.0083    0.0000 H   0  0  0  0  0  0  0  0  0  0  0  0
    3.6322   -0.4774    0.0000 H   0  0  0  0  0  0  0  0  0  0  0  0
    5.4791   -0.6715    0.0000 H   0  0  0  0  0  0  0  0  0  0  0  0
  1  2  1  0  0  0  0
  1 33  1  0  0  0  0
  1 34  1  0  0  0  0
  1 35  1  0  0  0  0
  2  3  1  0  0  0  0
  2  4  1  0  0  0  0
  2  5  1  0  0  0  0
  3 36  1  0  0  0  0
  3 37  1  0  0  0  0
  3 38  1  0  0  0  0
  4 39  1  0  0  0  0
  5  6  2  0  0  0  0
  5 32  1  0  0  0  0
  6  7  1  0  0  0  0
  6 40  1  0  0  0  0
  7  8  1  0  0  0  0
  7 30  2  0  0  0  0
  8  9  1  0  0  0  0
  8 41  1  0  0  0  0
  9 10  2  0  0  0  0
  9 29  1  0  0  0  0
 10 11  1  0  0  0  0
 10 42  1  0  0  0  0
 11 12  1  0  0  0  0
 11 27  2  0  0  0  0
 12 13  1  0  0  0  0
 13 14  2  0  0  0  0
 13 17  1  0  0  0  0
 14 15  1  0  0  0  0
 14 43  1  0  0  0  0
 15 16  1  0  0  0  0
 15 24  1  0  0  0  0
 16 17  2  0  0  0  0
 17 18  1  0  0  0  0
 18 19  1  0  0  0  0
 18 23  1  0  0  0  0
 18 44  1  0  0  0  0
 19 20  1  0  0  0  0
 19 45  1  0  0  0  0
 19 46  1  0  0  0  0
 20 21  1  0  0  0  0
 20 47  1  0  0  0  0
 20 48  1  0  0  0  0
 21 22  1  0  0  0  0
 22 23  1  0  0  0  0
 22 49  1  0  0  0  0
 22 50  1  0  0  0  0
 23 51  1  0  0  0  0
 23 52  1  0  0  0  0
 24 25  1  0  0  0  0
 24 26  1  0  0  0  0
 24 53  1  0  0  0  0
 25 26  1  0  0  0  0
 25 54  1  0  0  0  0
 25 55  1  0  0  0  0
 26 56  1  0  0  0  0
 26 57  1  0  0  0  0
 27 28  1  0  0  0  0
 27 58  1  0  0  0  0
 28 29  2  0  0  0  0
 28 59  1  0  0  0  0
 30 31  1  0  0  0  0
 30 60  1  0  0  0  0
 31 32  2  0  0  0  0
 31 61  1  0  0  0  0
M  END
>  <DRUGBANK_ID>
DB16064

>  <COMMON_NAME>
LY-3200882

>  <CAS_NUMBER>
1898283-02-7

>  <UNII>
19HY34R6UN

$$$$
