
 OpenBabel10282417072D

 81 84  0  0  0  0  0  0  0  0999 V2000
   -2.8578   -1.2375    0.0000 S   0  0  0  0  0  0  0  0  0  0  0  0
   -3.5724   -1.6499    0.0000 O   0  0  0  0  0  0  0  0  0  0  0  0
    0.0000    1.2375    0.0000 O   0  0  0  0  0  0  0  0  0  0  0  0
   -2.4453   -1.9519    0.0000 O   0  0  0  0  0  0  0  0  0  0  0  0
   -3.2703   -0.5230    0.0000 O   0  0  0  0  0  0  0  0  0  0  0  0
    1.4289    2.8875    0.0000 O   0  0  0  0  0  0  0  0  0  0  0  0
    0.7145    1.6499    0.0000 O   0  0  0  0  0  0  0  0  0  0  0  0
   -4.2868   -5.3625    0.0000 O   0  5  0  0  0  0  0  0  0  0  0  0
   -2.8578   -5.3625    0.0000 O   0  0  0  0  0  0  0  0  0  0  0  0
   -1.4289    1.2375    0.0000 N   0  0  0  0  0  0  0  0  0  0  0  0
    0.0000    2.8875    0.0000 N   0  0  0  0  0  0  0  0  0  0  0  0
   -3.5724   -4.9500    0.0000 N   0  3  0  0  0  0  0  0  0  0  0  0
   -1.4289    0.4124    0.0000 C   0  0  2  0  0  0  0  0  0  0  0  0
   -2.1434    0.0000    0.0000 C   0  0  0  0  0  0  0  0  0  0  0  0
   -0.7145    0.0000    0.0000 C   0  0  0  0  0  0  0  0  0  0  0  0
   -2.1434   -0.8250    0.0000 C   0  0  0  0  0  0  0  0  0  0  0  0
    0.0000    0.4124    0.0000 C   0  0  0  0  0  0  0  0  0  0  0  0
   -0.7145    2.4750    0.0000 C   0  0  2  0  0  0  0  0  0  0  0  0
   -0.7145    1.6499    0.0000 C   0  0  0  0  0  0  0  0  0  0  0  0
    0.7145    0.0000    0.0000 C   0  0  0  0  0  0  0  0  0  0  0  0
   -1.4289    2.8875    0.0000 C   0  0  0  0  0  0  0  0  0  0  0  0
   -1.4289    3.7125    0.0000 C   0  0  0  0  0  0  0  0  0  0  0  0
    1.4289    0.4124    0.0000 C   0  0  0  0  0  0  0  0  0  0  0  0
    0.7145   -0.8250    0.0000 C   0  0  0  0  0  0  0  0  0  0  0  0
    2.1434    0.0000    0.0000 C   0  0  0  0  0  0  0  0  0  0  0  0
    1.4289   -1.2375    0.0000 C   0  0  0  0  0  0  0  0  0  0  0  0
   -2.1434    4.1250    0.0000 C   0  0  0  0  0  0  0  0  0  0  0  0
   -0.7145    4.1250    0.0000 C   0  0  0  0  0  0  0  0  0  0  0  0
    0.7145    2.4750    0.0000 C   0  0  0  0  0  0  0  0  0  0  0  0
   -3.5724   -2.4750    0.0000 C   0  0  0  0  0  0  0  0  0  0  0  0
    2.1434   -0.8250    0.0000 C   0  0  0  0  0  0  0  0  0  0  0  0
   -2.1434    4.9500    0.0000 C   0  0  0  0  0  0  0  0  0  0  0  0
   -0.7145    4.9500    0.0000 C   0  0  0  0  0  0  0  0  0  0  0  0
   -1.4289    5.3625    0.0000 C   0  0  0  0  0  0  0  0  0  0  0  0
   -4.2868   -2.8875    0.0000 C   0  0  0  0  0  0  0  0  0  0  0  0
   -2.8578   -2.8875    0.0000 C   0  0  0  0  0  0  0  0  0  0  0  0
    2.1434    2.4750    0.0000 C   0  0  0  0  0  0  0  0  0  0  0  0
   -4.2868   -3.7125    0.0000 C   0  0  0  0  0  0  0  0  0  0  0  0
   -2.8578   -3.7125    0.0000 C   0  0  0  0  0  0  0  0  0  0  0  0
   -3.5724   -4.1250    0.0000 C   0  0  0  0  0  0  0  0  0  0  0  0
    2.8579    2.8875    0.0000 C   0  0  0  0  0  0  0  0  0  0  0  0
    3.5724    2.4750    0.0000 C   0  0  0  0  0  0  0  0  0  0  0  0
    2.8579    3.7125    0.0000 C   0  0  0  0  0  0  0  0  0  0  0  0
    4.2868    2.8875    0.0000 C   0  0  0  0  0  0  0  0  0  0  0  0
    3.5724    4.1250    0.0000 C   0  0  0  0  0  0  0  0  0  0  0  0
    4.2868    3.7125    0.0000 C   0  0  0  0  0  0  0  0  0  0  0  0
   -1.8718    1.4932    0.0000 H   0  0  0  0  0  0  0  0  0  0  0  0
    0.0000    3.3990    0.0000 H   0  0  0  0  0  0  0  0  0  0  0  0
   -2.3555    0.9475    0.0000 H   0  0  0  0  0  0  0  0  0  0  0  0
   -3.0700    0.5351    0.0000 H   0  0  0  0  0  0  0  0  0  0  0  0
   -3.0701   -0.5350    0.0000 H   0  0  0  0  0  0  0  0  0  0  0  0
   -0.7145   -1.0700    0.0000 H   0  0  0  0  0  0  0  0  0  0  0  0
    0.2121   -0.5351    0.0000 H   0  0  0  0  0  0  0  0  0  0  0  0
   -1.2167   -1.3600    0.0000 H   0  0  0  0  0  0  0  0  0  0  0  0
   -1.2168   -0.2900    0.0000 H   0  0  0  0  0  0  0  0  0  0  0  0
    0.0000    1.4824    0.0000 H   0  0  0  0  0  0  0  0  0  0  0  0
    0.9266    0.9475    0.0000 H   0  0  0  0  0  0  0  0  0  0  0  0
    0.2121    1.9400    0.0000 H   0  0  0  0  0  0  0  0  0  0  0  0
   -2.3556    2.3525    0.0000 H   0  0  0  0  0  0  0  0  0  0  0  0
   -2.3555    3.4225    0.0000 H   0  0  0  0  0  0  0  0  0  0  0  0
    1.4289    1.4444    0.0000 H   0  0  0  0  0  0  0  0  0  0  0  0
   -0.1792   -1.3410    0.0000 H   0  0  0  0  0  0  0  0  0  0  0  0
    3.0371    0.5161    0.0000 H   0  0  0  0  0  0  0  0  0  0  0  0
    1.4289   -2.2695    0.0000 H   0  0  0  0  0  0  0  0  0  0  0  0
   -3.0371    3.6090    0.0000 H   0  0  0  0  0  0  0  0  0  0  0  0
    0.1792    3.6090    0.0000 H   0  0  0  0  0  0  0  0  0  0  0  0
    3.0371   -1.3410    0.0000 H   0  0  0  0  0  0  0  0  0  0  0  0
   -3.0371    5.4660    0.0000 H   0  0  0  0  0  0  0  0  0  0  0  0
    0.1792    5.4660    0.0000 H   0  0  0  0  0  0  0  0  0  0  0  0
   -1.4289    6.3945    0.0000 H   0  0  0  0  0  0  0  0  0  0  0  0
   -5.1805   -2.3715    0.0000 H   0  0  0  0  0  0  0  0  0  0  0  0
   -1.9641   -2.3715    0.0000 H   0  0  0  0  0  0  0  0  0  0  0  0
    2.1434    1.4050    0.0000 H   0  0  0  0  0  0  0  0  0  0  0  0
    3.0700    1.9400    0.0000 H   0  0  0  0  0  0  0  0  0  0  0  0
   -5.1805   -4.2285    0.0000 H   0  0  0  0  0  0  0  0  0  0  0  0
   -1.9641   -4.2285    0.0000 H   0  0  0  0  0  0  0  0  0  0  0  0
    3.5724    1.4430    0.0000 H   0  0  0  0  0  0  0  0  0  0  0  0
    1.9642    4.2285    0.0000 H   0  0  0  0  0  0  0  0  0  0  0  0
    5.1805    2.3715    0.0000 H   0  0  0  0  0  0  0  0  0  0  0  0
    3.5724    5.1570    0.0000 H   0  0  0  0  0  0  0  0  0  0  0  0
    5.1805    4.2285    0.0000 H   0  0  0  0  0  0  0  0  0  0  0  0
  1  2  1  0  0  0  0
  1  4  2  0  0  0  0
  1  5  2  0  0  0  0
  1 16  1  0  0  0  0
  2 30  1  0  0  0  0
  3 19  2  0  0  0  0
  6 29  1  0  0  0  0
  6 37  1  0  0  0  0
  7 29  2  0  0  0  0
  8 12  1  0  0  0  0
  9 12  2  0  0  0  0
 10 19  1  0  0  0  0
 10 47  1  0  0  0  0
 11 29  1  0  0  0  0
 11 48  1  0  0  0  0
 12 40  1  0  0  0  0
 13 10  1  0  0  0  0
 13 14  1  0  0  0  0
 13 15  1  0  0  0  0
 13 49  1  6  0  0  0
 14 16  1  0  0  0  0
 14 50  1  0  0  0  0
 14 51  1  0  0  0  0
 15 17  1  0  0  0  0
 15 52  1  0  0  0  0
 15 53  1  0  0  0  0
 16 54  1  0  0  0  0
 16 55  1  0  0  0  0
 17 20  1  0  0  0  0
 17 56  1  0  0  0  0
 17 57  1  0  0  0  0
 18 11  1  0  0  0  0
 18 19  1  0  0  0  0
 18 21  1  0  0  0  0
 18 58  1  1  0  0  0
 20 23  2  0  0  0  0
 20 24  1  0  0  0  0
 21 22  1  0  0  0  0
 21 59  1  0  0  0  0
 21 60  1  0  0  0  0
 22 27  2  0  0  0  0
 22 28  1  0  0  0  0
 23 25  1  0  0  0  0
 23 61  1  0  0  0  0
 24 26  2  0  0  0  0
 24 62  1  0  0  0  0
 25 31  2  0  0  0  0
 25 63  1  0  0  0  0
 26 31  1  0  0  0  0
 26 64  1  0  0  0  0
 27 32  1  0  0  0  0
 27 65  1  0  0  0  0
 28 33  2  0  0  0  0
 28 66  1  0  0  0  0
 30 35  2  0  0  0  0
 30 36  1  0  0  0  0
 31 67  1  0  0  0  0
 32 34  2  0  0  0  0
 32 68  1  0  0  0  0
 33 34  1  0  0  0  0
 33 69  1  0  0  0  0
 34 70  1  0  0  0  0
 35 38  1  0  0  0  0
 35 71  1  0  0  0  0
 36 39  2  0  0  0  0
 36 72  1  0  0  0  0
 37 41  1  0  0  0  0
 37 73  1  0  0  0  0
 37 74  1  0  0  0  0
 38 40  2  0  0  0  0
 38 75  1  0  0  0  0
 39 40  1  0  0  0  0
 39 76  1  0  0  0  0
 41 42  2  0  0  0  0
 41 43  1  0  0  0  0
 42 44  1  0  0  0  0
 42 77  1  0  0  0  0
 43 45  2  0  0  0  0
 43 78  1  0  0  0  0
 44 46  2  0  0  0  0
 44 79  1  0  0  0  0
 45 46  1  0  0  0  0
 45 80  1  0  0  0  0
 46 81  1  0  0  0  0
M  CHG  2   8  -1  12   1
M  END
>  <DRUGBANK_ID>
DB02051

>  <SECONDARY_ACCESSION_NUMBERS>
EXPT03233

>  <COMMON_NAME>
4-Nitrophenyl (3S)-3-({N-[(benzyloxy)carbonyl]-L-phenylalanyl}amino)-5-phenyl-1-pentanesulfonate

>  <SYNONYMS>
3-[N-[Benzyloxycarbonyl]-phenylalaninyl-amino]-5-phenyl-pentane-1-sulfonic acid 4-nitro-phenyl ester

$$$$
