1275
 OpenBabel10282417072D

 20 21  0  0  0  0  0  0  0  0999 V2000
    2.6954   -0.7582    0.0000 N   0  0  0  0  0  0  0  0  0  0  0  0
    2.0094    0.4298    0.0000 N   0  0  0  0  0  0  0  0  0  0  0  0
    2.0094    1.2219    0.0000 N   0  0  0  0  0  0  0  0  0  0  0  0
    2.0094   -1.1543    0.0000 N   0  0  0  0  0  0  0  0  0  0  0  0
    3.3813    0.4298    0.0000 C   0  0  0  0  0  0  0  0  0  0  0  0
    3.3813    1.2219    0.0000 C   0  0  0  0  0  0  0  0  0  0  0  0
    2.6954    0.0338    0.0000 C   0  0  0  0  0  0  0  0  0  0  0  0
    4.0893    0.0063    0.0000 C   0  0  0  0  0  0  0  0  0  0  0  0
    4.0893    1.6454    0.0000 C   0  0  0  0  0  0  0  0  0  0  0  0
    4.8070    0.4133    0.0000 C   0  0  0  0  0  0  0  0  0  0  0  0
    2.6954    1.6179    0.0000 C   0  0  0  0  0  0  0  0  0  0  0  0
    4.8070    1.2384    0.0000 C   0  0  0  0  0  0  0  0  0  0  0  0
    3.5480   -1.2504    0.0000 H   0  0  0  0  0  0  0  0  0  0  0  0
    1.1260   -0.6443    0.0000 H   0  0  0  0  0  0  0  0  0  0  0  0
    2.0094   -2.1743    0.0000 H   0  0  0  0  0  0  0  0  0  0  0  0
    4.0773   -1.0256    0.0000 H   0  0  0  0  0  0  0  0  0  0  0  0
    4.0773    2.6773    0.0000 H   0  0  0  0  0  0  0  0  0  0  0  0
    5.6987   -0.1062    0.0000 H   0  0  0  0  0  0  0  0  0  0  0  0
    2.6954    2.6499    0.0000 H   0  0  0  0  0  0  0  0  0  0  0  0
    5.6987    1.7579    0.0000 H   0  0  0  0  0  0  0  0  0  0  0  0
  1  4  1  0  0  0  0
  1  7  1  0  0  0  0
  1 13  1  0  0  0  0
  2  3  1  0  0  0  0
  2  7  2  0  0  0  0
  3 11  2  0  0  0  0
  4 14  1  0  0  0  0
  4 15  1  0  0  0  0
  5  6  1  0  0  0  0
  5  7  1  0  0  0  0
  5  8  2  0  0  0  0
  6  9  2  0  0  0  0
  6 11  1  0  0  0  0
  8 10  1  0  0  0  0
  8 16  1  0  0  0  0
  9 12  1  0  0  0  0
  9 17  1  0  0  0  0
 10 12  2  0  0  0  0
 10 18  1  0  0  0  0
 11 19  1  0  0  0  0
 12 20  1  0  0  0  0
M  END
>  <DRUGBANK_ID>
DB01275

>  <COMMON_NAME>
Hydralazine

>  <CAS_NUMBER>
86-54-4

>  <UNII>
26NAK24LS8

>  <SYNONYMS>
(1Z)-1(2H)-Phthalazinone hydrazone; (2H)-Phthalazinone hydrazone; 1-Hydrazinophthalazine; 1-Phthalazinylhydrazine; 6-Hydralazine; Hidralazina; Hydralazin; Hydralazine; Hydralazinum; Hydrallazine; Hydrazinophthalazine; Hydrazone 1(2H)-phthalazinone; Hypophthalin; Idralazina; Phthalazin-1-ylhydrazine

$$$$
