
 OpenBabel10282417072D

 85 87  0  0  0  0  0  0  0  0999 V2000
    7.6454    2.4054    0.0000 S   0  0  0  0  0  0  0  0  0  0  0  0
    8.3985    2.0685    0.0000 S   0  0  0  0  0  0  0  0  0  0  0  0
   -5.6309    2.7367    0.0000 P   0  0  0  0  0  0  0  0  0  0  0  0
   -3.0567    1.7140    0.0000 P   0  0  2  0  0  0  0  0  0  0  0  0
   -1.6354    1.8608    0.0000 P   0  0  2  0  0  0  0  0  0  0  0  0
   -5.1477    0.2583    0.0000 O   0  0  0  0  0  0  0  0  0  0  0  0
   -6.1839    2.1246    0.0000 O   0  0  0  0  0  0  0  0  0  0  0  0
   -7.2415    0.6744    0.0000 O   0  0  0  0  0  0  0  0  0  0  0  0
   -3.7250    1.2302    0.0000 O   0  0  0  0  0  0  0  0  0  0  0  0
   -6.2430    3.2898    0.0000 O   0  0  0  0  0  0  0  0  0  0  0  0
   -5.0778    3.3488    0.0000 O   0  0  0  0  0  0  0  0  0  0  0  0
   -2.3885    2.1976    0.0000 O   0  0  0  0  0  0  0  0  0  0  0  0
   -0.8823    1.5240    0.0000 O   0  0  0  0  0  0  0  0  0  0  0  0
   -5.0188    2.1836    0.0000 O   0  0  0  0  0  0  0  0  0  0  0  0
    1.3767    0.5135    0.0000 O   0  0  0  0  0  0  0  0  0  0  0  0
   -2.5730    1.0457    0.0000 O   0  0  0  0  0  0  0  0  0  0  0  0
   -3.5404    2.3822    0.0000 O   0  0  0  0  0  0  0  0  0  0  0  0
   -1.2986    2.6139    0.0000 O   0  0  0  0  0  0  0  0  0  0  0  0
    1.8753    2.6383    0.0000 O   0  0  0  0  0  0  0  0  0  0  0  0
   -1.9723    1.1078    0.0000 O   0  0  0  0  0  0  0  0  0  0  0  0
    4.7180    2.9322    0.0000 O   0  0  0  0  0  0  0  0  0  0  0  0
   -6.1890   -0.7793    0.0000 N   0  0  0  0  0  0  0  0  0  0  0  0
   -6.1890   -2.1070    0.0000 N   0  0  0  0  0  0  0  0  0  0  0  0
   -7.6840   -0.6182    0.0000 N   0  0  0  0  0  0  0  0  0  0  0  0
   -8.3985   -1.8556    0.0000 N   0  0  0  0  0  0  0  0  0  0  0  0
    2.7132    1.4809    0.0000 N   0  0  0  0  0  0  0  0  0  0  0  0
   -7.6840   -3.0931    0.0000 N   0  0  0  0  0  0  0  0  0  0  0  0
    5.5558    1.7748    0.0000 N   0  0  0  0  0  0  0  0  0  0  0  0
   -5.9304    1.3396    0.0000 C   0  0  1  0  0  0  0  0  0  0  0  0
   -6.4165    0.6730    0.0000 C   0  0  2  0  0  0  0  0  0  0  0  0
   -5.1462    1.0833    0.0000 C   0  0  1  0  0  0  0  0  0  0  0  0
   -5.9327    0.0047    0.0000 C   0  0  1  0  0  0  0  0  0  0  0  0
   -4.4780    1.5670    0.0000 C   0  0  0  0  0  0  0  0  0  0  0  0
   -6.9695   -1.0307    0.0000 C   0  0  0  0  0  0  0  0  0  0  0  0
   -5.7075   -1.4431    0.0000 C   0  0  0  0  0  0  0  0  0  0  0  0
    0.5388    1.6709    0.0000 C   0  0  0  0  0  0  0  0  0  0  0  0
   -6.9695   -1.8556    0.0000 C   0  0  0  0  0  0  0  0  0  0  0  0
    1.2919    1.3341    0.0000 C   0  0  2  0  0  0  0  0  0  0  0  0
   -0.2141    2.0077    0.0000 C   0  0  0  0  0  0  0  0  0  0  0  0
    0.2020    0.9178    0.0000 C   0  0  0  0  0  0  0  0  0  0  0  0
    0.8757    2.4239    0.0000 C   0  0  0  0  0  0  0  0  0  0  0  0
   -7.6840   -2.2681    0.0000 C   0  0  0  0  0  0  0  0  0  0  0  0
    1.9601    1.8178    0.0000 C   0  0  0  0  0  0  0  0  0  0  0  0
   -8.3985   -1.0307    0.0000 C   0  0  0  0  0  0  0  0  0  0  0  0
    3.3815    1.9647    0.0000 C   0  0  0  0  0  0  0  0  0  0  0  0
    4.1345    1.6278    0.0000 C   0  0  0  0  0  0  0  0  0  0  0  0
    4.8028    2.1116    0.0000 C   0  0  0  0  0  0  0  0  0  0  0  0
    6.2240    2.2584    0.0000 C   0  0  0  0  0  0  0  0  0  0  0  0
    6.9771    1.9216    0.0000 C   0  0  0  0  0  0  0  0  0  0  0  0
    2.7658    0.9722    0.0000 H   0  0  0  0  0  0  0  0  0  0  0  0
   -8.1270   -3.3488    0.0000 H   0  0  0  0  0  0  0  0  0  0  0  0
   -7.2410   -3.3488    0.0000 H   0  0  0  0  0  0  0  0  0  0  0  0
    5.6084    1.2659    0.0000 H   0  0  0  0  0  0  0  0  0  0  0  0
    8.5383    0.7157    0.0000 H   0  0  0  0  0  0  0  0  0  0  0  0
   -7.7251    1.5153    0.0000 H   0  0  0  0  0  0  0  0  0  0  0  0
   -6.0396    4.2382    0.0000 H   0  0  0  0  0  0  0  0  0  0  0  0
   -4.1294    3.1454    0.0000 H   0  0  0  0  0  0  0  0  0  0  0  0
    0.5910   -0.0553    0.0000 H   0  0  0  0  0  0  0  0  0  0  0  0
   -2.9691    0.1603    0.0000 H   0  0  0  0  0  0  0  0  0  0  0  0
   -0.3337    2.7137    0.0000 H   0  0  0  0  0  0  0  0  0  0  0  0
   -6.9869    1.5089    0.0000 H   0  0  0  0  0  0  0  0  0  0  0  0
   -6.9006    1.6272    0.0000 H   0  0  0  0  0  0  0  0  0  0  0  0
   -4.1937    0.5958    0.0000 H   0  0  0  0  0  0  0  0  0  0  0  0
   -5.1774   -0.7532    0.0000 H   0  0  0  0  0  0  0  0  0  0  0  0
   -4.5880    2.6313    0.0000 H   0  0  0  0  0  0  0  0  0  0  0  0
   -5.4547    2.0039    0.0000 H   0  0  0  0  0  0  0  0  0  0  0  0
   -4.6755   -1.4431    0.0000 H   0  0  0  0  0  0  0  0  0  0  0  0
    0.4252    0.7066    0.0000 H   0  0  0  0  0  0  0  0  0  0  0  0
   -0.3241    3.0720    0.0000 H   0  0  0  0  0  0  0  0  0  0  0  0
    0.6526    2.6351    0.0000 H   0  0  0  0  0  0  0  0  0  0  0  0
   -0.8623    0.8077    0.0000 H   0  0  0  0  0  0  0  0  0  0  0  0
    0.8295    0.0511    0.0000 H   0  0  0  0  0  0  0  0  0  0  0  0
   -0.2348   -0.0590    0.0000 H   0  0  0  0  0  0  0  0  0  0  0  0
    1.9400    2.5338    0.0000 H   0  0  0  0  0  0  0  0  0  0  0  0
    0.2483    3.2907    0.0000 H   0  0  0  0  0  0  0  0  0  0  0  0
    1.3127    3.4006    0.0000 H   0  0  0  0  0  0  0  0  0  0  0  0
   -9.2922   -0.5147    0.0000 H   0  0  0  0  0  0  0  0  0  0  0  0
    3.2715    3.0290    0.0000 H   0  0  0  0  0  0  0  0  0  0  0  0
    4.2483    2.5921    0.0000 H   0  0  0  0  0  0  0  0  0  0  0  0
    4.2445    0.5635    0.0000 H   0  0  0  0  0  0  0  0  0  0  0  0
    5.1112    1.1909    0.0000 H   0  0  0  0  0  0  0  0  0  0  0  0
    6.1140    3.3227    0.0000 H   0  0  0  0  0  0  0  0  0  0  0  0
    7.0907    2.8859    0.0000 H   0  0  0  0  0  0  0  0  0  0  0  0
    7.0872    0.8573    0.0000 H   0  0  0  0  0  0  0  0  0  0  0  0
    6.1104    1.2941    0.0000 H   0  0  0  0  0  0  0  0  0  0  0  0
  1  2  1  0  0  0  0
  1 49  1  0  0  0  0
  2 54  1  0  0  0  0
  3  7  1  0  0  0  0
  3 10  1  0  0  0  0
  3 11  1  0  0  0  0
  3 14  2  0  0  0  0
  4  9  1  0  0  0  0
  4 12  1  0  0  0  0
  4 16  1  0  0  0  0
  4 17  2  1  0  0  0
  5 12  1  0  0  0  0
  5 13  1  0  0  0  0
  5 18  1  0  0  0  0
  5 20  2  6  0  0  0
  6 31  1  0  0  0  0
  6 32  1  0  0  0  0
  8 55  1  0  0  0  0
  9 33  1  0  0  0  0
 10 56  1  0  0  0  0
 11 57  1  0  0  0  0
 13 39  1  0  0  0  0
 15 58  1  0  0  0  0
 16 59  1  0  0  0  0
 18 60  1  0  0  0  0
 19 43  2  0  0  0  0
 21 47  2  0  0  0  0
 22 34  1  0  0  0  0
 22 35  1  0  0  0  0
 23 35  2  0  0  0  0
 23 37  1  0  0  0  0
 24 34  2  0  0  0  0
 24 44  1  0  0  0  0
 25 42  1  0  0  0  0
 25 44  2  0  0  0  0
 26 43  1  0  0  0  0
 26 45  1  0  0  0  0
 26 50  1  0  0  0  0
 27 42  1  0  0  0  0
 27 51  1  0  0  0  0
 27 52  1  0  0  0  0
 28 47  1  0  0  0  0
 28 48  1  0  0  0  0
 28 53  1  0  0  0  0
 29  7  1  0  0  0  0
 29 30  1  0  0  0  0
 29 31  1  0  0  0  0
 29 61  1  1  0  0  0
 30  8  1  0  0  0  0
 30 32  1  0  0  0  0
 30 62  1  1  0  0  0
 31 33  1  0  0  0  0
 31 63  1  6  0  0  0
 32 22  1  0  0  0  0
 32 64  1  6  0  0  0
 33 65  1  0  0  0  0
 33 66  1  0  0  0  0
 34 37  1  0  0  0  0
 35 67  1  0  0  0  0
 36 38  1  0  0  0  0
 36 39  1  0  0  0  0
 36 40  1  0  0  0  0
 36 41  1  0  0  0  0
 37 42  2  0  0  0  0
 38 15  1  0  0  0  0
 38 43  1  0  0  0  0
 38 68  1  1  0  0  0
 39 69  1  0  0  0  0
 39 70  1  0  0  0  0
 40 71  1  0  0  0  0
 40 72  1  0  0  0  0
 40 73  1  0  0  0  0
 41 74  1  0  0  0  0
 41 75  1  0  0  0  0
 41 76  1  0  0  0  0
 44 77  1  0  0  0  0
 45 46  1  0  0  0  0
 45 78  1  0  0  0  0
 45 79  1  0  0  0  0
 46 47  1  0  0  0  0
 46 80  1  0  0  0  0
 46 81  1  0  0  0  0
 48 49  1  0  0  0  0
 48 82  1  0  0  0  0
 48 83  1  0  0  0  0
 49 84  1  0  0  0  0
 49 85  1  0  0  0  0
M  END
>  <DRUGBANK_ID>
DB04036

>  <SECONDARY_ACCESSION_NUMBERS>
EXPT00989

>  <COMMON_NAME>
Coenzyme A persulfide

>  <CAS_NUMBER>
81918-99-2

>  <SYNONYMS>
CoA persulfide

$$$$
