
 OpenBabel10282417072D

418426  0  0  0  0  0  0  0  0999 V2000
    1.0751   -6.5663    0.0000 C   0  0  0  0  0  0  0  0  0  0  0  0
    1.7893   -6.9793    0.0000 C   0  0  1  0  0  0  0  0  0  0  0  0
    1.0755   -5.7413    0.0000 O   0  0  0  0  0  0  0  0  0  0  0  0
    2.5041   -6.5671    0.0000 N   0  0  0  0  0  0  0  0  0  0  0  0
    1.7889   -7.8042    0.0000 C   0  0  0  0  0  0  0  0  0  0  0  0
    2.5032   -8.2172    0.0000 O   0  0  0  0  0  0  0  0  0  0  0  0
    0.3603   -6.9784    0.0000 N   0  0  0  0  0  0  0  0  0  0  0  0
   -1.0684   -6.9776    0.0000 C   0  0  0  0  0  0  0  0  0  0  0  0
   -1.0689   -7.8025    0.0000 O   0  0  0  0  0  0  0  0  0  0  0  0
   -0.3537   -6.5654    0.0000 C   0  0  2  0  0  0  0  0  0  0  0  0
   -0.3533   -5.7406    0.0000 C   0  0  0  0  0  0  0  0  0  0  0  0
   -1.0676   -5.3276    0.0000 C   0  0  0  0  0  0  0  0  0  0  0  0
   -1.0672   -4.5026    0.0000 C   0  0  0  0  0  0  0  0  0  0  0  0
   -1.7822   -5.7397    0.0000 C   0  0  0  0  0  0  0  0  0  0  0  0
   -2.4966   -5.3267    0.0000 C   0  0  0  0  0  0  0  0  0  0  0  0
   -2.4961   -4.5018    0.0000 C   0  0  0  0  0  0  0  0  0  0  0  0
   -1.7814   -4.0897    0.0000 C   0  0  0  0  0  0  0  0  0  0  0  0
   -3.2102   -4.0889    0.0000 O   0  0  0  0  0  0  0  0  0  0  0  0
   -1.7826   -6.5646    0.0000 N   0  0  0  0  0  0  0  0  0  0  0  0
   -3.2115   -6.5638    0.0000 C   0  0  0  0  0  0  0  0  0  0  0  0
   -2.4974   -6.9767    0.0000 C   0  0  2  0  0  0  0  0  0  0  0  0
   -3.2111   -5.7388    0.0000 O   0  0  0  0  0  0  0  0  0  0  0  0
   -2.4978   -7.8016    0.0000 C   0  0  0  0  0  0  0  0  0  0  0  0
   -1.7835   -8.2146    0.0000 O   0  0  0  0  0  0  0  0  0  0  0  0
   -3.9262   -6.9759    0.0000 N   0  0  0  0  0  0  0  0  0  0  0  0
   -5.3552   -6.9751    0.0000 C   0  0  0  0  0  0  0  0  0  0  0  0
   -5.3557   -7.8000    0.0000 O   0  0  0  0  0  0  0  0  0  0  0  0
   -4.6404   -6.5630    0.0000 C   0  0  2  0  0  0  0  0  0  0  0  0
   -5.3539   -4.5000    0.0000 S   0  0  0  0  0  0  0  0  0  0  0  0
   -4.6400   -5.7380    0.0000 C   0  0  0  0  0  0  0  0  0  0  0  0
   -5.3543   -5.3251    0.0000 C   0  0  0  0  0  0  0  0  0  0  0  0
   -6.0681   -4.0872    0.0000 C   0  0  0  0  0  0  0  0  0  0  0  0
   -6.0694   -6.5621    0.0000 N   0  0  0  0  0  0  0  0  0  0  0  0
   -7.4984   -6.5614    0.0000 C   0  0  0  0  0  0  0  0  0  0  0  0
   -6.0706   -9.0372    0.0000 C   0  0  0  0  0  0  0  0  0  0  0  0
   -7.4980   -5.7364    0.0000 O   0  0  0  0  0  0  0  0  0  0  0  0
   -6.7841   -6.9743    0.0000 C   0  0  2  0  0  0  0  0  0  0  0  0
   -5.3564   -9.4500    0.0000 O   0  0  0  0  0  0  0  0  0  0  0  0
   -6.7846   -7.7993    0.0000 C   0  0  0  0  0  0  0  0  0  0  0  0
   -6.0702   -8.2121    0.0000 C   0  0  0  0  0  0  0  0  0  0  0  0
   -6.7853   -9.4494    0.0000 O   0  0  0  0  0  0  0  0  0  0  0  0
   -8.2131   -6.9736    0.0000 N   0  0  0  0  0  0  0  0  0  0  0  0
   -8.9272   -5.7359    0.0000 C   0  0  0  0  0  0  0  0  0  0  0  0
   -8.2127   -5.3236    0.0000 O   0  0  0  0  0  0  0  0  0  0  0  0
   -8.9275   -6.5608    0.0000 C   0  0  2  0  0  0  0  0  0  0  0  0
   -9.6420   -6.9733    0.0000 C   0  0  0  0  0  0  0  0  0  0  0  0
  -10.3567   -6.5609    0.0000 C   0  0  0  0  0  0  0  0  0  0  0  0
  -11.1413   -6.8155    0.0000 N   0  0  0  0  0  0  0  0  0  0  0  0
  -11.6260   -6.1477    0.0000 C   0  0  0  0  0  0  0  0  0  0  0  0
  -11.1406   -5.4805    0.0000 N   0  0  0  0  0  0  0  0  0  0  0  0
  -10.3561   -5.7359    0.0000 C   0  0  0  0  0  0  0  0  0  0  0  0
   -9.6416   -5.3232    0.0000 N   0  0  0  0  0  0  0  0  0  0  0  0
  -10.3560   -4.0856    0.0000 C   0  0  0  0  0  0  0  0  0  0  0  0
   -9.6415   -4.4981    0.0000 C   0  0  2  0  0  0  0  0  0  0  0  0
  -11.0705   -4.4980    0.0000 O   0  0  0  0  0  0  0  0  0  0  0  0
   -8.9270   -4.0857    0.0000 C   0  0  0  0  0  0  0  0  0  0  0  0
   -8.9269   -3.2607    0.0000 C   0  0  0  0  0  0  0  0  0  0  0  0
   -8.2123   -2.8482    0.0000 C   0  0  0  0  0  0  0  0  0  0  0  0
   -9.6413   -2.8482    0.0000 C   0  0  0  0  0  0  0  0  0  0  0  0
   -9.6412   -2.0230    0.0000 C   0  0  0  0  0  0  0  0  0  0  0  0
   -8.2122   -2.0232    0.0000 C   0  0  0  0  0  0  0  0  0  0  0  0
   -8.9267   -1.6106    0.0000 C   0  0  0  0  0  0  0  0  0  0  0  0
  -10.3560   -3.2605    0.0000 N   0  0  0  0  0  0  0  0  0  0  0  0
  -14.6429   -3.2603    0.0000 C   0  0  0  0  0  0  0  0  0  0  0  0
  -11.0704   -2.0229    0.0000 C   0  0  0  0  0  0  0  0  0  0  0  0
  -15.3574   -2.8478    0.0000 N   0  0  0  0  0  0  0  0  0  0  0  0
  -10.3559   -1.6104    0.0000 O   0  0  0  0  0  0  0  0  0  0  0  0
  -13.9284   -2.8478    0.0000 N   0  0  0  0  0  0  0  0  0  0  0  0
  -11.0704   -2.8480    0.0000 C   0  0  2  0  0  0  0  0  0  0  0  0
  -14.6430   -4.0854    0.0000 N   0  0  0  0  0  0  0  0  0  0  0  0
  -13.2139   -3.2604    0.0000 C   0  0  0  0  0  0  0  0  0  0  0  0
  -11.7849   -3.2604    0.0000 C   0  0  0  0  0  0  0  0  0  0  0  0
  -12.4994   -2.8479    0.0000 C   0  0  0  0  0  0  0  0  0  0  0  0
  -11.7849   -1.6104    0.0000 N   0  0  0  0  0  0  0  0  0  0  0  0
  -11.0705   -0.3730    0.0000 C   0  0  0  0  0  0  0  0  0  0  0  0
  -10.3560   -0.7856    0.0000 O   0  0  0  0  0  0  0  0  0  0  0  0
  -11.7849   -0.7856    0.0000 C   0  0  2  0  0  0  0  0  0  0  0  0
  -12.4993   -0.3730    0.0000 C   0  0  0  0  0  0  0  0  0  0  0  0
  -12.4993    0.4518    0.0000 C   0  0  0  0  0  0  0  0  0  0  0  0
  -11.8319    0.9368    0.0000 C   0  0  0  0  0  0  0  0  0  0  0  0
  -12.0868    1.7213    0.0000 N   0  0  0  0  0  0  0  0  0  0  0  0
  -12.9119    1.7213    0.0000 C   0  0  0  0  0  0  0  0  0  0  0  0
  -13.1668    0.9368    0.0000 C   0  0  0  0  0  0  0  0  0  0  0  0
  -13.9736    0.7653    0.0000 C   0  0  0  0  0  0  0  0  0  0  0  0
  -13.4638    2.3345    0.0000 C   0  0  0  0  0  0  0  0  0  0  0  0
  -14.2708    2.1628    0.0000 C   0  0  0  0  0  0  0  0  0  0  0  0
  -14.5257    1.3783    0.0000 C   0  0  0  0  0  0  0  0  0  0  0  0
  -11.0704    0.4519    0.0000 N   0  0  0  0  0  0  0  0  0  0  0  0
  -10.3559    1.6894    0.0000 C   0  0  0  0  0  0  0  0  0  0  0  0
  -11.0703    2.1018    0.0000 O   0  0  0  0  0  0  0  0  0  0  0  0
  -10.3559    0.8645    0.0000 C   0  0  0  0  0  0  0  0  0  0  0  0
   -9.6414    2.1018    0.0000 N   0  0  0  0  0  0  0  0  0  0  0  0
   -8.9271    3.3395    0.0000 C   0  0  0  0  0  0  0  0  0  0  0  0
   -8.2125    2.9270    0.0000 N   0  0  0  0  0  0  0  0  0  0  0  0
   -9.6415    2.9269    0.0000 C   0  0  2  0  0  0  0  0  0  0  0  0
  -13.2141    3.3390    0.0000 N   0  0  0  0  0  0  0  0  0  0  0  0
  -12.4995    2.9266    0.0000 C   0  0  0  0  0  0  0  0  0  0  0  0
  -10.3561    3.3393    0.0000 C   0  0  0  0  0  0  0  0  0  0  0  0
  -11.7851    3.3392    0.0000 C   0  0  0  0  0  0  0  0  0  0  0  0
  -11.0705    2.9268    0.0000 C   0  0  0  0  0  0  0  0  0  0  0  0
   -8.9271    4.1645    0.0000 O   0  0  0  0  0  0  0  0  0  0  0  0
   -7.4588    3.2624    0.0000 C   0  0  1  0  0  0  0  0  0  0  0  0
   -8.1261    2.1064    0.0000 C   0  0  0  0  0  0  0  0  0  0  0  0
   -7.3193    1.9350    0.0000 C   0  0  0  0  0  0  0  0  0  0  0  0
   -6.9068    2.6495    0.0000 C   0  0  0  0  0  0  0  0  0  0  0  0
   -7.4588    4.0875    0.0000 C   0  0  0  0  0  0  0  0  0  0  0  0
   -8.1733    4.5000    0.0000 O   0  0  0  0  0  0  0  0  0  0  0  0
   -6.7444    4.5000    0.0000 N   0  0  0  0  0  0  0  0  0  0  0  0
   -6.0299    5.7375    0.0000 C   0  0  0  0  0  0  0  0  0  0  0  0
   -6.7444    5.3251    0.0000 C   0  0  2  0  0  0  0  0  0  0  0  0
   -5.3155    5.3251    0.0000 O   0  0  0  0  0  0  0  0  0  0  0  0
   -7.4588    5.7375    0.0000 C   0  0  0  0  0  0  0  0  0  0  0  0
   -7.4588    6.5625    0.0000 C   0  0  0  0  0  0  0  0  0  0  0  0
   -8.1734    5.3250    0.0000 C   0  0  0  0  0  0  0  0  0  0  0  0
   -6.0299    6.5626    0.0000 N   0  0  0  0  0  0  0  0  0  0  0  0
   -4.6010    6.5624    0.0000 C   0  0  0  0  0  0  0  0  0  0  0  0
   -3.8865    6.9749    0.0000 O   0  0  0  0  0  0  0  0  0  0  0  0
   -5.3154    6.9751    0.0000 C   0  0  0  0  0  0  0  0  0  0  0  0
   -4.6011    5.7375    0.0000 N   0  0  0  0  0  0  0  0  0  0  0  0
   -3.1720    5.7374    0.0000 C   0  0  0  0  0  0  0  0  0  0  0  0
   -3.1720    6.5624    0.0000 O   0  0  0  0  0  0  0  0  0  0  0  0
   -3.8867    5.3249    0.0000 C   0  0  2  0  0  0  0  0  0  0  0  0
   -5.3160    2.0249    0.0000 N   0  0  0  0  0  0  0  0  0  0  0  0
   -5.3159    2.8500    0.0000 C   0  0  0  0  0  0  0  0  0  0  0  0
   -3.8867    4.4999    0.0000 C   0  0  0  0  0  0  0  0  0  0  0  0
   -4.6013    3.2624    0.0000 C   0  0  0  0  0  0  0  0  0  0  0  0
   -4.6012    4.0875    0.0000 C   0  0  0  0  0  0  0  0  0  0  0  0
   -2.4577    5.3249    0.0000 N   0  0  0  0  0  0  0  0  0  0  0  0
   -1.0286    5.3250    0.0000 C   0  0  0  0  0  0  0  0  0  0  0  0
   -1.0286    4.4999    0.0000 O   0  0  0  0  0  0  0  0  0  0  0  0
   -1.7431    5.7374    0.0000 C   0  0  2  0  0  0  0  0  0  0  0  0
   -3.1725    9.0374    0.0000 N   0  0  0  0  0  0  0  0  0  0  0  0
   -3.1724    8.2123    0.0000 C   0  0  0  0  0  0  0  0  0  0  0  0
   -1.7432    6.5624    0.0000 C   0  0  0  0  0  0  0  0  0  0  0  0
   -2.4579    7.7999    0.0000 C   0  0  0  0  0  0  0  0  0  0  0  0
   -2.4578    6.9749    0.0000 C   0  0  0  0  0  0  0  0  0  0  0  0
   -0.3141    5.7375    0.0000 N   0  0  0  0  0  0  0  0  0  0  0  0
   -1.0288    2.0248    0.0000 C   0  0  0  0  0  0  0  0  0  0  0  0
    1.1148    5.7374    0.0000 C   0  0  0  0  0  0  0  0  0  0  0  0
   -1.7431    1.6123    0.0000 N   0  0  0  0  0  0  0  0  0  0  0  0
    1.1148    6.5624    0.0000 O   0  0  0  0  0  0  0  0  0  0  0  0
   -1.0287    2.8499    0.0000 N   0  0  0  0  0  0  0  0  0  0  0  0
    0.4002    5.3250    0.0000 C   0  0  2  0  0  0  0  0  0  0  0  0
   -0.3142    1.6123    0.0000 N   0  0  0  0  0  0  0  0  0  0  0  0
   -0.3142    3.2624    0.0000 C   0  0  0  0  0  0  0  0  0  0  0  0
    0.4002    4.5000    0.0000 C   0  0  0  0  0  0  0  0  0  0  0  0
   -0.3141    4.0874    0.0000 C   0  0  0  0  0  0  0  0  0  0  0  0
    1.8292    5.3249    0.0000 N   0  0  0  0  0  0  0  0  0  0  0  0
    1.1146    9.0376    0.0000 C   0  0  0  0  0  0  0  0  0  0  0  0
    3.2582    5.3250    0.0000 C   0  0  0  0  0  0  0  0  0  0  0  0
    0.4001    9.4500    0.0000 N   0  0  0  0  0  0  0  0  0  0  0  0
    3.2582    4.5000    0.0000 N   0  0  0  0  0  0  0  0  0  0  0  0
    1.1147    8.2124    0.0000 N   0  0  0  0  0  0  0  0  0  0  0  0
    2.5438    5.7374    0.0000 C   0  0  2  0  0  0  0  0  0  0  0  0
    1.8291    9.4500    0.0000 N   0  0  0  0  0  0  0  0  0  0  0  0
    1.8291    7.8000    0.0000 C   0  0  0  0  0  0  0  0  0  0  0  0
    2.5438    6.5624    0.0000 C   0  0  0  0  0  0  0  0  0  0  0  0
    1.8291    6.9750    0.0000 C   0  0  0  0  0  0  0  0  0  0  0  0
    3.9727    5.7375    0.0000 O   0  0  0  0  0  0  0  0  0  0  0  0
    3.9256    4.0150    0.0000 C   0  0  1  0  0  0  0  0  0  0  0  0
    2.5908    4.0150    0.0000 C   0  0  0  0  0  0  0  0  0  0  0  0
    2.8457    3.2304    0.0000 C   0  0  0  0  0  0  0  0  0  0  0  0
    3.6707    3.2304    0.0000 C   0  0  0  0  0  0  0  0  0  0  0  0
    4.6400    4.4274    0.0000 C   0  0  0  0  0  0  0  0  0  0  0  0
    4.6400    5.2524    0.0000 O   0  0  0  0  0  0  0  0  0  0  0  0
    5.3545    4.0150    0.0000 N   0  0  0  0  0  0  0  0  0  0  0  0
    6.7836    4.0150    0.0000 C   0  0  0  0  0  0  0  0  0  0  0  0
    6.0690    4.4275    0.0000 C   0  0  2  0  0  0  0  0  0  0  0  0
    6.7836    3.1900    0.0000 O   0  0  0  0  0  0  0  0  0  0  0  0
    6.0690    5.2525    0.0000 C   0  0  0  0  0  0  0  0  0  0  0  0
    6.7836    5.6650    0.0000 C   0  0  0  0  0  0  0  0  0  0  0  0
    5.3546    5.6650    0.0000 C   0  0  0  0  0  0  0  0  0  0  0  0
    7.4980    4.4275    0.0000 N   0  0  0  0  0  0  0  0  0  0  0  0
    8.9269    4.4274    0.0000 C   0  0  0  0  0  0  0  0  0  0  0  0
    8.9270    5.2525    0.0000 O   0  0  0  0  0  0  0  0  0  0  0  0
    8.2124    4.0149    0.0000 C   0  0  2  0  0  0  0  0  0  0  0  0
    6.7831    0.7150    0.0000 N   0  0  0  0  0  0  0  0  0  0  0  0
    6.7833    1.5400    0.0000 C   0  0  0  0  0  0  0  0  0  0  0  0
    8.2123    3.1899    0.0000 C   0  0  0  0  0  0  0  0  0  0  0  0
    7.4977    1.9523    0.0000 C   0  0  0  0  0  0  0  0  0  0  0  0
    7.4979    2.7775    0.0000 C   0  0  0  0  0  0  0  0  0  0  0  0
    9.6414    4.0149    0.0000 N   0  0  0  0  0  0  0  0  0  0  0  0
   11.0704    4.0149    0.0000 C   0  0  0  0  0  0  0  0  0  0  0  0
   10.3559    4.4274    0.0000 C   0  0  2  0  0  0  0  0  0  0  0  0
   11.0704    3.1899    0.0000 O   0  0  0  0  0  0  0  0  0  0  0  0
   10.3559    5.2524    0.0000 C   0  0  0  0  0  0  0  0  0  0  0  0
    9.6414    5.6649    0.0000 C   0  0  0  0  0  0  0  0  0  0  0  0
   11.0704    5.6650    0.0000 C   0  0  0  0  0  0  0  0  0  0  0  0
   11.7849    4.4274    0.0000 N   0  0  0  0  0  0  0  0  0  0  0  0
   13.2139    4.4274    0.0000 C   0  0  0  0  0  0  0  0  0  0  0  0
   13.2139    5.2524    0.0000 N   0  0  0  0  0  0  0  0  0  0  0  0
   12.4994    4.0149    0.0000 C   0  0  2  0  0  0  0  0  0  0  0  0
   12.4994    3.1899    0.0000 C   0  0  0  0  0  0  0  0  0  0  0  0
   13.2139    2.7773    0.0000 C   0  0  0  0  0  0  0  0  0  0  0  0
   13.2139    1.9523    0.0000 C   0  0  0  0  0  0  0  0  0  0  0  0
   13.9284    3.1898    0.0000 C   0  0  0  0  0  0  0  0  0  0  0  0
   14.6429    2.7774    0.0000 C   0  0  0  0  0  0  0  0  0  0  0  0
   14.6429    1.9523    0.0000 C   0  0  0  0  0  0  0  0  0  0  0  0
   13.9284    1.5399    0.0000 C   0  0  0  0  0  0  0  0  0  0  0  0
   15.3574    1.5399    0.0000 O   0  0  0  0  0  0  0  0  0  0  0  0
   13.9283    4.0149    0.0000 O   0  0  0  0  0  0  0  0  0  0  0  0
   13.8813    5.7374    0.0000 C   0  0  1  0  0  0  0  0  0  0  0  0
   12.5464    5.7374    0.0000 C   0  0  0  0  0  0  0  0  0  0  0  0
   12.8015    6.5219    0.0000 C   0  0  0  0  0  0  0  0  0  0  0  0
   13.6264    6.5219    0.0000 C   0  0  0  0  0  0  0  0  0  0  0  0
   14.5958    5.3249    0.0000 C   0  0  0  0  0  0  0  0  0  0  0  0
   14.5957    4.4998    0.0000 O   0  0  0  0  0  0  0  0  0  0  0  0
   15.3102    5.7374    0.0000 O   0  0  0  0  0  0  0  0  0  0  0  0
    1.7899   -5.9093    0.0000 H   0  0  0  0  0  0  0  0  0  0  0  0
    3.3872   -7.0776    0.0000 H   0  0  0  0  0  0  0  0  0  0  0  0
    2.5046   -5.5471    0.0000 H   0  0  0  0  0  0  0  0  0  0  0  0
    0.8620   -8.3387    0.0000 H   0  0  0  0  0  0  0  0  0  0  0  0
    1.7883   -8.8742    0.0000 H   0  0  0  0  0  0  0  0  0  0  0  0
    2.5026   -9.1872    0.0000 H   0  0  0  0  0  0  0  0  0  0  0  0
    0.3596   -7.9629    0.0000 H   0  0  0  0  0  0  0  0  0  0  0  0
   -0.3544   -7.6354    0.0000 H   0  0  0  0  0  0  0  0  0  0  0  0
    0.5736   -5.2061    0.0000 H   0  0  0  0  0  0  0  0  0  0  0  0
   -0.3527   -4.6706    0.0000 H   0  0  0  0  0  0  0  0  0  0  0  0
   -0.1732   -3.9871    0.0000 H   0  0  0  0  0  0  0  0  0  0  0  0
   -1.7827   -6.7717    0.0000 H   0  0  0  0  0  0  0  0  0  0  0  0
   -3.3906   -5.8422    0.0000 H   0  0  0  0  0  0  0  0  0  0  0  0
   -1.7808   -3.0577    0.0000 H   0  0  0  0  0  0  0  0  0  0  0  0
   -3.2096   -3.1519    0.0000 H   0  0  0  0  0  0  0  0  0  0  0  0
   -1.7820   -5.5801    0.0000 H   0  0  0  0  0  0  0  0  0  0  0  0
   -2.4967   -5.9067    0.0000 H   0  0  0  0  0  0  0  0  0  0  0  0
   -3.4247   -8.3361    0.0000 H   0  0  0  0  0  0  0  0  0  0  0  0
   -2.4984   -8.8716    0.0000 H   0  0  0  0  0  0  0  0  0  0  0  0
   -1.7841   -9.1846    0.0000 H   0  0  0  0  0  0  0  0  0  0  0  0
   -3.9268   -7.9604    0.0000 H   0  0  0  0  0  0  0  0  0  0  0  0
   -4.6410   -7.6330    0.0000 H   0  0  0  0  0  0  0  0  0  0  0  0
   -3.7131   -5.2035    0.0000 H   0  0  0  0  0  0  0  0  0  0  0  0
   -4.6395   -4.6680    0.0000 H   0  0  0  0  0  0  0  0  0  0  0  0
   -6.2812   -5.8596    0.0000 H   0  0  0  0  0  0  0  0  0  0  0  0
   -5.3548   -6.3951    0.0000 H   0  0  0  0  0  0  0  0  0  0  0  0
   -6.0676   -3.0172    0.0000 H   0  0  0  0  0  0  0  0  0  0  0  0
   -6.9950   -4.6218    0.0000 H   0  0  0  0  0  0  0  0  0  0  0  0
   -6.9945   -3.5518    0.0000 H   0  0  0  0  0  0  0  0  0  0  0  0
   -6.0688   -5.5776    0.0000 H   0  0  0  0  0  0  0  0  0  0  0  0
   -6.7836   -5.9043    0.0000 H   0  0  0  0  0  0  0  0  0  0  0  0
   -7.7115   -8.3339    0.0000 H   0  0  0  0  0  0  0  0  0  0  0  0
   -6.7850   -8.8693    0.0000 H   0  0  0  0  0  0  0  0  0  0  0  0
   -5.1433   -7.6775    0.0000 H   0  0  0  0  0  0  0  0  0  0  0  0
   -6.0698   -7.1421    0.0000 H   0  0  0  0  0  0  0  0  0  0  0  0
   -7.5966   -8.9805    0.0000 H   0  0  0  0  0  0  0  0  0  0  0  0
   -8.2135   -7.9581    0.0000 H   0  0  0  0  0  0  0  0  0  0  0  0
   -8.0007   -6.0261    0.0000 H   0  0  0  0  0  0  0  0  0  0  0  0
   -9.6419   -8.0433    0.0000 H   0  0  0  0  0  0  0  0  0  0  0  0
  -10.5686   -7.5085    0.0000 H   0  0  0  0  0  0  0  0  0  0  0  0
  -11.4459   -7.7517    0.0000 H   0  0  0  0  0  0  0  0  0  0  0  0
  -12.6580   -6.1471    0.0000 H   0  0  0  0  0  0  0  0  0  0  0  0
   -9.5208   -5.1299    0.0000 H   0  0  0  0  0  0  0  0  0  0  0  0
  -10.4943   -5.8153    0.0000 H   0  0  0  0  0  0  0  0  0  0  0  0
  -10.5682   -5.0331    0.0000 H   0  0  0  0  0  0  0  0  0  0  0  0
   -8.0004   -4.6208    0.0000 H   0  0  0  0  0  0  0  0  0  0  0  0
   -8.0003   -3.5508    0.0000 H   0  0  0  0  0  0  0  0  0  0  0  0
   -7.3186   -3.3643    0.0000 H   0  0  0  0  0  0  0  0  0  0  0  0
  -10.5351   -3.3641    0.0000 H   0  0  0  0  0  0  0  0  0  0  0  0
  -10.5349   -1.5069    0.0000 H   0  0  0  0  0  0  0  0  0  0  0  0
   -7.3184   -1.5073    0.0000 H   0  0  0  0  0  0  0  0  0  0  0  0
   -8.9266   -0.5786    0.0000 H   0  0  0  0  0  0  0  0  0  0  0  0
   -9.5034   -2.7683    0.0000 H   0  0  0  0  0  0  0  0  0  0  0  0
  -15.3574   -1.8633    0.0000 H   0  0  0  0  0  0  0  0  0  0  0  0
  -13.9283   -1.8633    0.0000 H   0  0  0  0  0  0  0  0  0  0  0  0
  -10.1437   -2.3130    0.0000 H   0  0  0  0  0  0  0  0  0  0  0  0
  -15.4957   -4.5775    0.0000 H   0  0  0  0  0  0  0  0  0  0  0  0
  -13.7905   -4.5778    0.0000 H   0  0  0  0  0  0  0  0  0  0  0  0
  -13.2140   -4.3304    0.0000 H   0  0  0  0  0  0  0  0  0  0  0  0
  -12.2873   -3.7954    0.0000 H   0  0  0  0  0  0  0  0  0  0  0  0
  -11.7850   -4.3304    0.0000 H   0  0  0  0  0  0  0  0  0  0  0  0
  -12.7116   -3.7954    0.0000 H   0  0  0  0  0  0  0  0  0  0  0  0
  -12.4994   -1.7779    0.0000 H   0  0  0  0  0  0  0  0  0  0  0  0
  -11.5728   -2.3129    0.0000 H   0  0  0  0  0  0  0  0  0  0  0  0
  -12.6375   -2.1027    0.0000 H   0  0  0  0  0  0  0  0  0  0  0  0
  -10.8582   -1.3205    0.0000 H   0  0  0  0  0  0  0  0  0  0  0  0
  -13.4260   -0.9079    0.0000 H   0  0  0  0  0  0  0  0  0  0  0  0
  -13.4259    0.1620    0.0000 H   0  0  0  0  0  0  0  0  0  0  0  0
  -10.8504    0.6179    0.0000 H   0  0  0  0  0  0  0  0  0  0  0  0
  -11.5081    2.5178    0.0000 H   0  0  0  0  0  0  0  0  0  0  0  0
  -14.2924   -0.2162    0.0000 H   0  0  0  0  0  0  0  0  0  0  0  0
  -13.1449    3.3160    0.0000 H   0  0  0  0  0  0  0  0  0  0  0  0
  -14.9614    2.9297    0.0000 H   0  0  0  0  0  0  0  0  0  0  0  0
  -15.5351    1.1637    0.0000 H   0  0  0  0  0  0  0  0  0  0  0  0
  -11.9230    0.9442    0.0000 H   0  0  0  0  0  0  0  0  0  0  0  0
   -9.4292    0.3295    0.0000 H   0  0  0  0  0  0  0  0  0  0  0  0
  -10.3558   -0.2055    0.0000 H   0  0  0  0  0  0  0  0  0  0  0  0
   -8.7888    1.6095    0.0000 H   0  0  0  0  0  0  0  0  0  0  0  0
   -8.7148    2.3920    0.0000 H   0  0  0  0  0  0  0  0  0  0  0  0
  -13.2143    4.3590    0.0000 H   0  0  0  0  0  0  0  0  0  0  0  0
  -14.0974    2.8288    0.0000 H   0  0  0  0  0  0  0  0  0  0  0  0
  -12.4993    1.8566    0.0000 H   0  0  0  0  0  0  0  0  0  0  0  0
  -11.5728    2.3917    0.0000 H   0  0  0  0  0  0  0  0  0  0  0  0
  -10.3562    4.4093    0.0000 H   0  0  0  0  0  0  0  0  0  0  0  0
  -11.2828    3.8742    0.0000 H   0  0  0  0  0  0  0  0  0  0  0  0
  -11.7853    4.4092    0.0000 H   0  0  0  0  0  0  0  0  0  0  0  0
  -10.8585    3.8744    0.0000 H   0  0  0  0  0  0  0  0  0  0  0  0
  -11.0704    1.8568    0.0000 H   0  0  0  0  0  0  0  0  0  0  0  0
  -11.9971    2.3917    0.0000 H   0  0  0  0  0  0  0  0  0  0  0  0
   -8.3561    3.8452    0.0000 H   0  0  0  0  0  0  0  0  0  0  0  0
   -8.9212    1.3903    0.0000 H   0  0  0  0  0  0  0  0  0  0  0  0
   -7.8490    1.0729    0.0000 H   0  0  0  0  0  0  0  0  0  0  0  0
   -6.8840    0.9575    0.0000 H   0  0  0  0  0  0  0  0  0  0  0  0
   -6.2508    1.8790    0.0000 H   0  0  0  0  0  0  0  0  0  0  0  0
   -5.8427    2.7614    0.0000 H   0  0  0  0  0  0  0  0  0  0  0  0
   -6.3240    1.7521    0.0000 H   0  0  0  0  0  0  0  0  0  0  0  0
   -5.8918    4.0078    0.0000 H   0  0  0  0  0  0  0  0  0  0  0  0
   -5.8178    4.7900    0.0000 H   0  0  0  0  0  0  0  0  0  0  0  0
   -8.3854    6.2725    0.0000 H   0  0  0  0  0  0  0  0  0  0  0  0
   -6.5322    7.0975    0.0000 H   0  0  0  0  0  0  0  0  0  0  0  0
   -8.3854    7.0975    0.0000 H   0  0  0  0  0  0  0  0  0  0  0  0
   -7.4588    7.6325    0.0000 H   0  0  0  0  0  0  0  0  0  0  0  0
   -9.1000    5.8601    0.0000 H   0  0  0  0  0  0  0  0  0  0  0  0
   -8.1735    4.2550    0.0000 H   0  0  0  0  0  0  0  0  0  0  0  0
   -9.1001    4.7901    0.0000 H   0  0  0  0  0  0  0  0  0  0  0  0
   -6.8825    7.0549    0.0000 H   0  0  0  0  0  0  0  0  0  0  0  0
   -5.3153    8.0451    0.0000 H   0  0  0  0  0  0  0  0  0  0  0  0
   -6.2420    7.5102    0.0000 H   0  0  0  0  0  0  0  0  0  0  0  0
   -5.4538    5.2454    0.0000 H   0  0  0  0  0  0  0  0  0  0  0  0
   -3.8865    6.3949    0.0000 H   0  0  0  0  0  0  0  0  0  0  0  0
   -6.1994    1.5150    0.0000 H   0  0  0  0  0  0  0  0  0  0  0  0
   -4.4327    1.5148    0.0000 H   0  0  0  0  0  0  0  0  0  0  0  0
   -6.2425    3.3851    0.0000 H   0  0  0  0  0  0  0  0  0  0  0  0
   -5.3157    3.9200    0.0000 H   0  0  0  0  0  0  0  0  0  0  0  0
   -2.9601    3.9648    0.0000 H   0  0  0  0  0  0  0  0  0  0  0  0
   -3.8868    3.4299    0.0000 H   0  0  0  0  0  0  0  0  0  0  0  0
   -3.6747    2.7273    0.0000 H   0  0  0  0  0  0  0  0  0  0  0  0
   -3.6746    3.7973    0.0000 H   0  0  0  0  0  0  0  0  0  0  0  0
   -5.5278    4.6226    0.0000 H   0  0  0  0  0  0  0  0  0  0  0  0
   -5.5279    3.5526    0.0000 H   0  0  0  0  0  0  0  0  0  0  0  0
   -2.4578    4.3404    0.0000 H   0  0  0  0  0  0  0  0  0  0  0  0
   -1.7431    4.6674    0.0000 H   0  0  0  0  0  0  0  0  0  0  0  0
   -2.2892    9.5475    0.0000 H   0  0  0  0  0  0  0  0  0  0  0  0
   -4.0559    9.5473    0.0000 H   0  0  0  0  0  0  0  0  0  0  0  0
   -4.0990    7.6772    0.0000 H   0  0  0  0  0  0  0  0  0  0  0  0
   -3.1723    7.1423    0.0000 H   0  0  0  0  0  0  0  0  0  0  0  0
   -0.8166    7.0975    0.0000 H   0  0  0  0  0  0  0  0  0  0  0  0
   -1.7433    7.6324    0.0000 H   0  0  0  0  0  0  0  0  0  0  0  0
   -1.5313    8.3350    0.0000 H   0  0  0  0  0  0  0  0  0  0  0  0
   -1.5312    7.2650    0.0000 H   0  0  0  0  0  0  0  0  0  0  0  0
   -3.3844    6.4398    0.0000 H   0  0  0  0  0  0  0  0  0  0  0  0
   -3.3845    7.5098    0.0000 H   0  0  0  0  0  0  0  0  0  0  0  0
   -0.3140    6.7220    0.0000 H   0  0  0  0  0  0  0  0  0  0  0  0
   -2.5958    2.1045    0.0000 H   0  0  0  0  0  0  0  0  0  0  0  0
   -1.8813    3.3422    0.0000 H   0  0  0  0  0  0  0  0  0  0  0  0
    0.4004    6.3950    0.0000 H   0  0  0  0  0  0  0  0  0  0  0  0
   -0.3141    0.6278    0.0000 H   0  0  0  0  0  0  0  0  0  0  0  0
    0.5384    2.1046    0.0000 H   0  0  0  0  0  0  0  0  0  0  0  0
    0.6124    2.7273    0.0000 H   0  0  0  0  0  0  0  0  0  0  0  0
    0.6125    3.7973    0.0000 H   0  0  0  0  0  0  0  0  0  0  0  0
    1.3269    3.9651    0.0000 H   0  0  0  0  0  0  0  0  0  0  0  0
    0.4004    3.4300    0.0000 H   0  0  0  0  0  0  0  0  0  0  0  0
   -1.2408    4.6224    0.0000 H   0  0  0  0  0  0  0  0  0  0  0  0
   -0.3142    5.1574    0.0000 H   0  0  0  0  0  0  0  0  0  0  0  0
    1.8291    4.3404    0.0000 H   0  0  0  0  0  0  0  0  0  0  0  0
    0.4000   10.4345    0.0000 H   0  0  0  0  0  0  0  0  0  0  0  0
    0.2621    7.7201    0.0000 H   0  0  0  0  0  0  0  0  0  0  0  0
    2.5438    4.6674    0.0000 H   0  0  0  0  0  0  0  0  0  0  0  0
    2.6816    8.9576    0.0000 H   0  0  0  0  0  0  0  0  0  0  0  0
    1.8292   10.4345    0.0000 H   0  0  0  0  0  0  0  0  0  0  0  0
    2.7557    8.3350    0.0000 H   0  0  0  0  0  0  0  0  0  0  0  0
    2.7558    7.2650    0.0000 H   0  0  0  0  0  0  0  0  0  0  0  0
    3.4704    7.0974    0.0000 H   0  0  0  0  0  0  0  0  0  0  0  0
    2.5438    7.6324    0.0000 H   0  0  0  0  0  0  0  0  0  0  0  0
    0.9025    6.4400    0.0000 H   0  0  0  0  0  0  0  0  0  0  0  0
    1.8291    5.9050    0.0000 H   0  0  0  0  0  0  0  0  0  0  0  0
    3.9817    5.0835    0.0000 H   0  0  0  0  0  0  0  0  0  0  0  0
    1.5732    4.3456    0.0000 H   0  0  0  0  0  0  0  0  0  0  0  0
    1.8342    3.2584    0.0000 H   0  0  0  0  0  0  0  0  0  0  0  0
    2.2168    2.3648    0.0000 H   0  0  0  0  0  0  0  0  0  0  0  0
    3.3315    2.2770    0.0000 H   0  0  0  0  0  0  0  0  0  0  0  0
    4.2996    2.3648    0.0000 H   0  0  0  0  0  0  0  0  0  0  0  0
    3.1849    2.2770    0.0000 H   0  0  0  0  0  0  0  0  0  0  0  0
    5.3546    3.0305    0.0000 H   0  0  0  0  0  0  0  0  0  0  0  0
    6.0690    3.3575    0.0000 H   0  0  0  0  0  0  0  0  0  0  0  0
    6.0691    6.3225    0.0000 H   0  0  0  0  0  0  0  0  0  0  0  0
    7.7102    5.1299    0.0000 H   0  0  0  0  0  0  0  0  0  0  0  0
    6.7837    6.7350    0.0000 H   0  0  0  0  0  0  0  0  0  0  0  0
    7.7103    6.1999    0.0000 H   0  0  0  0  0  0  0  0  0  0  0  0
    5.3546    6.7350    0.0000 H   0  0  0  0  0  0  0  0  0  0  0  0
    4.4279    5.1300    0.0000 H   0  0  0  0  0  0  0  0  0  0  0  0
    4.4280    6.2000    0.0000 H   0  0  0  0  0  0  0  0  0  0  0  0
    7.4981    5.4120    0.0000 H   0  0  0  0  0  0  0  0  0  0  0  0
    8.2125    5.0849    0.0000 H   0  0  0  0  0  0  0  0  0  0  0  0
    5.8996    0.2052    0.0000 H   0  0  0  0  0  0  0  0  0  0  0  0
    7.6663    0.2048    0.0000 H   0  0  0  0  0  0  0  0  0  0  0  0
    5.8568    2.0752    0.0000 H   0  0  0  0  0  0  0  0  0  0  0  0
    6.7835    2.6100    0.0000 H   0  0  0  0  0  0  0  0  0  0  0  0
    9.1389    2.6548    0.0000 H   0  0  0  0  0  0  0  0  0  0  0  0
    8.2122    2.1199    0.0000 H   0  0  0  0  0  0  0  0  0  0  0  0
    8.4242    1.4171    0.0000 H   0  0  0  0  0  0  0  0  0  0  0  0
    8.4245    2.4871    0.0000 H   0  0  0  0  0  0  0  0  0  0  0  0
    6.5713    3.3126    0.0000 H   0  0  0  0  0  0  0  0  0  0  0  0
    6.5711    2.2427    0.0000 H   0  0  0  0  0  0  0  0  0  0  0  0
    9.6414    3.0304    0.0000 H   0  0  0  0  0  0  0  0  0  0  0  0
   10.3559    3.3574    0.0000 H   0  0  0  0  0  0  0  0  0  0  0  0
   10.3558    6.3224    0.0000 H   0  0  0  0  0  0  0  0  0  0  0  0
    9.6414    6.7349    0.0000 H   0  0  0  0  0  0  0  0  0  0  0  0
    8.7148    5.1299    0.0000 H   0  0  0  0  0  0  0  0  0  0  0  0
    8.7147    6.1999    0.0000 H   0  0  0  0  0  0  0  0  0  0  0  0
   11.9971    5.1301    0.0000 H   0  0  0  0  0  0  0  0  0  0  0  0
   11.0703    6.7350    0.0000 H   0  0  0  0  0  0  0  0  0  0  0  0
   11.9970    6.2001    0.0000 H   0  0  0  0  0  0  0  0  0  0  0  0
   11.7849    5.4119    0.0000 H   0  0  0  0  0  0  0  0  0  0  0  0
   12.4994    5.0849    0.0000 H   0  0  0  0  0  0  0  0  0  0  0  0
   11.5727    2.6549    0.0000 H   0  0  0  0  0  0  0  0  0  0  0  0
   12.4993    2.1199    0.0000 H   0  0  0  0  0  0  0  0  0  0  0  0
   12.3202    1.4362    0.0000 H   0  0  0  0  0  0  0  0  0  0  0  0
   13.9283    4.2218    0.0000 H   0  0  0  0  0  0  0  0  0  0  0  0
   15.5366    3.2935    0.0000 H   0  0  0  0  0  0  0  0  0  0  0  0
   13.9284    0.5079    0.0000 H   0  0  0  0  0  0  0  0  0  0  0  0
   15.3575    0.6029    0.0000 H   0  0  0  0  0  0  0  0  0  0  0  0
   13.9374    4.6689    0.0000 H   0  0  0  0  0  0  0  0  0  0  0  0
   11.5287    5.4069    0.0000 H   0  0  0  0  0  0  0  0  0  0  0  0
   11.7899    6.4941    0.0000 H   0  0  0  0  0  0  0  0  0  0  0  0
   12.1727    7.3876    0.0000 H   0  0  0  0  0  0  0  0  0  0  0  0
   13.2873    7.4752    0.0000 H   0  0  0  0  0  0  0  0  0  0  0  0
   14.2553    7.3875    0.0000 H   0  0  0  0  0  0  0  0  0  0  0  0
   13.1406    7.4753    0.0000 H   0  0  0  0  0  0  0  0  0  0  0  0
   16.1217    5.2689    0.0000 H   0  0  0  0  0  0  0  0  0  0  0  0
  1  7  1  0  0  0  0
  2  1  1  0  0  0  0
  2  4  1  0  0  0  0
  2209  1  6  0  0  0
  3  1  2  0  0  0  0
  4210  1  0  0  0  0
  4211  1  0  0  0  0
  5  2  1  0  0  0  0
  5212  1  0  0  0  0
  5213  1  0  0  0  0
  6  5  1  0  0  0  0
  6214  1  0  0  0  0
  7215  1  0  0  0  0
  8 19  1  0  0  0  0
  9  8  2  0  0  0  0
 10  8  1  0  0  0  0
 10  7  1  0  0  0  0
 10216  1  1  0  0  0
 11 10  1  0  0  0  0
 11217  1  0  0  0  0
 11218  1  0  0  0  0
 12 11  1  0  0  0  0
 13 12  2  0  0  0  0
 13219  1  0  0  0  0
 14 12  1  0  0  0  0
 14220  1  0  0  0  0
 15 14  2  0  0  0  0
 15221  1  0  0  0  0
 16 15  1  0  0  0  0
 17 13  1  0  0  0  0
 17 16  2  0  0  0  0
 17222  1  0  0  0  0
 18 16  1  0  0  0  0
 18223  1  0  0  0  0
 19224  1  0  0  0  0
 20 25  1  0  0  0  0
 21 20  1  0  0  0  0
 21 19  1  0  0  0  0
 21225  1  6  0  0  0
 22 20  2  0  0  0  0
 23 21  1  0  0  0  0
 23226  1  0  0  0  0
 23227  1  0  0  0  0
 24 23  1  0  0  0  0
 24228  1  0  0  0  0
 25229  1  0  0  0  0
 26 33  1  0  0  0  0
 27 26  2  0  0  0  0
 28 26  1  0  0  0  0
 28 25  1  0  0  0  0
 28230  1  1  0  0  0
 30 28  1  0  0  0  0
 30231  1  0  0  0  0
 30232  1  0  0  0  0
 31 29  1  0  0  0  0
 31 30  1  0  0  0  0
 31233  1  0  0  0  0
 31234  1  0  0  0  0
 32 29  1  0  0  0  0
 32235  1  0  0  0  0
 32236  1  0  0  0  0
 32237  1  0  0  0  0
 33238  1  0  0  0  0
 34 42  1  0  0  0  0
 36 34  2  0  0  0  0
 37 34  1  0  0  0  0
 37 33  1  0  0  0  0
 37239  1  6  0  0  0
 38 35  2  0  0  0  0
 39 37  1  0  0  0  0
 39240  1  0  0  0  0
 39241  1  0  0  0  0
 40 35  1  0  0  0  0
 40 39  1  0  0  0  0
 40242  1  0  0  0  0
 40243  1  0  0  0  0
 41 35  1  0  0  0  0
 41244  1  0  0  0  0
 42245  1  0  0  0  0
 43 52  1  0  0  0  0
 44 43  2  0  0  0  0
 45 43  1  0  0  0  0
 45 42  1  0  0  0  0
 45246  1  6  0  0  0
 46 45  1  0  0  0  0
 46247  1  0  0  0  0
 46248  1  0  0  0  0
 47 46  1  0  0  0  0
 48 47  1  0  0  0  0
 48249  1  0  0  0  0
 49 48  1  0  0  0  0
 49250  1  0  0  0  0
 50 49  2  0  0  0  0
 51 47  2  0  0  0  0
 51 50  1  0  0  0  0
 51251  1  0  0  0  0
 52252  1  0  0  0  0
 53 63  1  0  0  0  0
 54 53  1  0  0  0  0
 54 52  1  0  0  0  0
 54253  1  1  0  0  0
 55 53  2  0  0  0  0
 56 54  1  0  0  0  0
 56254  1  0  0  0  0
 56255  1  0  0  0  0
 57 56  1  0  0  0  0
 58 57  2  0  0  0  0
 58256  1  0  0  0  0
 59 57  1  0  0  0  0
 59257  1  0  0  0  0
 60 59  2  0  0  0  0
 60258  1  0  0  0  0
 61 58  1  0  0  0  0
 61259  1  0  0  0  0
 62 60  1  0  0  0  0
 62 61  2  0  0  0  0
 62260  1  0  0  0  0
 63261  1  0  0  0  0
 65 74  1  0  0  0  0
 66 64  2  0  0  0  0
 66262  1  0  0  0  0
 67 65  2  0  0  0  0
 68 64  1  0  0  0  0
 68263  1  0  0  0  0
 69 65  1  0  0  0  0
 69 63  1  0  0  0  0
 69264  1  6  0  0  0
 70 64  1  0  0  0  0
 70265  1  0  0  0  0
 70266  1  0  0  0  0
 71 68  1  0  0  0  0
 71267  1  0  0  0  0
 71268  1  0  0  0  0
 72 69  1  0  0  0  0
 72269  1  0  0  0  0
 72270  1  0  0  0  0
 73 71  1  0  0  0  0
 73 72  1  0  0  0  0
 73271  1  0  0  0  0
 73272  1  0  0  0  0
 74273  1  0  0  0  0
 75 88  1  0  0  0  0
 76 75  2  0  0  0  0
 77 75  1  0  0  0  0
 77 74  1  0  0  0  0
 77274  1  6  0  0  0
 78 77  1  0  0  0  0
 78275  1  0  0  0  0
 78276  1  0  0  0  0
 79 78  1  0  0  0  0
 80 79  2  0  0  0  0
 80277  1  0  0  0  0
 81 80  1  0  0  0  0
 81278  1  0  0  0  0
 82 81  1  0  0  0  0
 83 79  1  0  0  0  0
 83 82  2  0  0  0  0
 84 83  1  0  0  0  0
 84279  1  0  0  0  0
 85 82  1  0  0  0  0
 85280  1  0  0  0  0
 86 85  2  0  0  0  0
 86281  1  0  0  0  0
 87 84  2  0  0  0  0
 87 86  1  0  0  0  0
 87282  1  0  0  0  0
 88 91  1  0  0  0  0
 88283  1  0  0  0  0
 89 92  1  0  0  0  0
 90 89  2  0  0  0  0
 91 89  1  0  0  0  0
 91284  1  0  0  0  0
 91285  1  0  0  0  0
 92286  1  0  0  0  0
 93101  2  0  0  0  0
 94 93  1  0  0  0  0
 94102  1  0  0  0  0
 95 93  1  0  0  0  0
 95 92  1  0  0  0  0
 95287  1  6  0  0  0
 96288  1  0  0  0  0
 96289  1  0  0  0  0
 97 96  1  0  0  0  0
 97290  1  0  0  0  0
 97291  1  0  0  0  0
 98 95  1  0  0  0  0
 98292  1  0  0  0  0
 98293  1  0  0  0  0
 99 97  1  0  0  0  0
 99294  1  0  0  0  0
 99295  1  0  0  0  0
100 98  1  0  0  0  0
100 99  1  0  0  0  0
100296  1  0  0  0  0
100297  1  0  0  0  0
102106  1  0  0  0  0
102298  1  1  0  0  0
103 94  1  0  0  0  0
103299  1  0  0  0  0
103300  1  0  0  0  0
104103  1  0  0  0  0
104301  1  0  0  0  0
104302  1  0  0  0  0
105102  1  0  0  0  0
105104  1  0  0  0  0
105303  1  0  0  0  0
105304  1  0  0  0  0
106107  2  0  0  0  0
106108  1  0  0  0  0
108305  1  0  0  0  0
109115  1  0  0  0  0
110109  1  0  0  0  0
110108  1  0  0  0  0
110306  1  6  0  0  0
111109  2  0  0  0  0
112110  1  0  0  0  0
112307  1  0  0  0  0
113112  1  0  0  0  0
113308  1  0  0  0  0
113309  1  0  0  0  0
113310  1  0  0  0  0
114112  1  0  0  0  0
114311  1  0  0  0  0
114312  1  0  0  0  0
114313  1  0  0  0  0
115118  1  0  0  0  0
115314  1  0  0  0  0
116119  1  0  0  0  0
117116  2  0  0  0  0
118116  1  0  0  0  0
118315  1  0  0  0  0
118316  1  0  0  0  0
119317  1  0  0  0  0
120128  1  0  0  0  0
121120  2  0  0  0  0
122120  1  0  0  0  0
122119  1  0  0  0  0
122318  1  1  0  0  0
123319  1  0  0  0  0
123320  1  0  0  0  0
124123  1  0  0  0  0
124321  1  0  0  0  0
124322  1  0  0  0  0
125122  1  0  0  0  0
125323  1  0  0  0  0
125324  1  0  0  0  0
126124  1  0  0  0  0
126325  1  0  0  0  0
126326  1  0  0  0  0
127125  1  0  0  0  0
127126  1  0  0  0  0
127327  1  0  0  0  0
127328  1  0  0  0  0
128329  1  0  0  0  0
129137  1  0  0  0  0
130129  2  0  0  0  0
131129  1  0  0  0  0
131128  1  0  0  0  0
131330  1  6  0  0  0
132331  1  0  0  0  0
132332  1  0  0  0  0
133132  1  0  0  0  0
133333  1  0  0  0  0
133334  1  0  0  0  0
134131  1  0  0  0  0
134335  1  0  0  0  0
134336  1  0  0  0  0
135133  1  0  0  0  0
135337  1  0  0  0  0
135338  1  0  0  0  0
136134  1  0  0  0  0
136135  1  0  0  0  0
136339  1  0  0  0  0
136340  1  0  0  0  0
137341  1  0  0  0  0
139148  1  0  0  0  0
140138  2  0  0  0  0
140342  1  0  0  0  0
141139  2  0  0  0  0
142138  1  0  0  0  0
142343  1  0  0  0  0
143139  1  0  0  0  0
143137  1  0  0  0  0
143344  1  1  0  0  0
144138  1  0  0  0  0
144345  1  0  0  0  0
144346  1  0  0  0  0
145142  1  0  0  0  0
145347  1  0  0  0  0
145348  1  0  0  0  0
146143  1  0  0  0  0
146349  1  0  0  0  0
146350  1  0  0  0  0
147145  1  0  0  0  0
147146  1  0  0  0  0
147351  1  0  0  0  0
147352  1  0  0  0  0
148353  1  0  0  0  0
150159  2  0  0  0  0
151149  2  0  0  0  0
151354  1  0  0  0  0
152150  1  0  0  0  0
152160  1  0  0  0  0
153149  1  0  0  0  0
153355  1  0  0  0  0
154150  1  0  0  0  0
154148  1  0  0  0  0
154356  1  6  0  0  0
155149  1  0  0  0  0
155357  1  0  0  0  0
155358  1  0  0  0  0
156153  1  0  0  0  0
156359  1  0  0  0  0
156360  1  0  0  0  0
157154  1  0  0  0  0
157361  1  0  0  0  0
157362  1  0  0  0  0
158156  1  0  0  0  0
158157  1  0  0  0  0
158363  1  0  0  0  0
158364  1  0  0  0  0
160164  1  0  0  0  0
160365  1  1  0  0  0
161152  1  0  0  0  0
161366  1  0  0  0  0
161367  1  0  0  0  0
162161  1  0  0  0  0
162368  1  0  0  0  0
162369  1  0  0  0  0
163160  1  0  0  0  0
163162  1  0  0  0  0
163370  1  0  0  0  0
163371  1  0  0  0  0
164165  2  0  0  0  0
164166  1  0  0  0  0
166372  1  0  0  0  0
167173  1  0  0  0  0
168167  1  0  0  0  0
168166  1  0  0  0  0
168373  1  6  0  0  0
169167  2  0  0  0  0
170168  1  0  0  0  0
170374  1  0  0  0  0
171170  1  0  0  0  0
171375  1  0  0  0  0
171376  1  0  0  0  0
171377  1  0  0  0  0
172170  1  0  0  0  0
172378  1  0  0  0  0
172379  1  0  0  0  0
172380  1  0  0  0  0
173381  1  0  0  0  0
174182  1  0  0  0  0
175174  2  0  0  0  0
176174  1  0  0  0  0
176173  1  0  0  0  0
176382  1  1  0  0  0
177383  1  0  0  0  0
177384  1  0  0  0  0
178177  1  0  0  0  0
178385  1  0  0  0  0
178386  1  0  0  0  0
179176  1  0  0  0  0
179387  1  0  0  0  0
179388  1  0  0  0  0
180178  1  0  0  0  0
180389  1  0  0  0  0
180390  1  0  0  0  0
181179  1  0  0  0  0
181180  1  0  0  0  0
181391  1  0  0  0  0
181392  1  0  0  0  0
182393  1  0  0  0  0
183189  1  0  0  0  0
184183  1  0  0  0  0
184182  1  0  0  0  0
184394  1  6  0  0  0
185183  2  0  0  0  0
186184  1  0  0  0  0
186395  1  0  0  0  0
187186  1  0  0  0  0
187396  1  0  0  0  0
187397  1  0  0  0  0
187398  1  0  0  0  0
188186  1  0  0  0  0
188399  1  0  0  0  0
188400  1  0  0  0  0
188401  1  0  0  0  0
189402  1  0  0  0  0
190201  2  0  0  0  0
191190  1  0  0  0  0
191202  1  0  0  0  0
192190  1  0  0  0  0
192189  1  0  0  0  0
192403  1  1  0  0  0
193192  1  0  0  0  0
193404  1  0  0  0  0
193405  1  0  0  0  0
194193  1  0  0  0  0
195194  2  0  0  0  0
195406  1  0  0  0  0
196194  1  0  0  0  0
196407  1  0  0  0  0
197196  2  0  0  0  0
197408  1  0  0  0  0
198197  1  0  0  0  0
199195  1  0  0  0  0
199198  2  0  0  0  0
199409  1  0  0  0  0
200198  1  0  0  0  0
200410  1  0  0  0  0
202206  1  0  0  0  0
202411  1  6  0  0  0
203191  1  0  0  0  0
203412  1  0  0  0  0
203413  1  0  0  0  0
204203  1  0  0  0  0
204414  1  0  0  0  0
204415  1  0  0  0  0
205202  1  0  0  0  0
205204  1  0  0  0  0
205416  1  0  0  0  0
205417  1  0  0  0  0
206207  2  0  0  0  0
206208  1  0  0  0  0
208418  1  0  0  0  0
M  END
>  <DRUGBANK_ID>
DB01284

>  <COMMON_NAME>
Tetracosactide

>  <CAS_NUMBER>
16960-16-0

>  <UNII>
72YY86EA29

>  <SYNONYMS>
adrenocorticotropic hormone 1-24; Adrenocorticotropic hormone fragment 1-24 human, rat; alpha(1-24)-corticotrophin; ATCH (1-24); beta(1-24)-corticotrophin; Corticotropin tetracosapeptide; corticotropin-(1-24); corticotropin-(1-24) tetracosapeptide; Cosyntropin; Tetracosactida; Tetracosactide; Tetracosactrin; α1-24-corticotrophin; β1-24-corticotrophin

$$$$
