
 OpenBabel10282417072D

 46 49  0  0  1  0  0  0  0  0999 V2000
   14.4191  -12.1888    0.0000 C   0  0  2  0  0  0  0  0  0  0  0  0
   15.1319  -12.6085    0.0000 C   0  0  2  0  0  0  0  0  0  0  0  0
   14.4191  -11.3674    0.0000 C   0  0  0  0  0  0  0  0  0  0  0  0
   15.1319  -11.6787    0.0000 C   0  0  0  0  0  0  0  0  0  0  0  0
   13.7065  -12.5977    0.0000 C   0  0  0  0  0  0  0  0  0  0  0  0
   15.8447  -12.1961    0.0000 C   0  0  2  0  0  0  0  0  0  0  0  0
   15.1680  -13.4333    0.0000 C   0  0  0  0  0  0  0  0  0  0  0  0
   15.1392  -10.9550    0.0000 C   0  0  0  0  0  0  0  0  0  0  0  0
   13.7028  -10.9550    0.0000 C   0  0  0  0  0  0  0  0  0  0  0  0
   16.5684  -11.6787    0.0000 C   0  0  0  0  0  0  0  0  0  0  0  0
   13.7425  -13.4226    0.0000 C   0  0  0  0  0  0  0  0  0  0  0  0
   16.5611  -12.6122    0.0000 N   0  0  0  0  0  0  0  0  0  0  0  0
   15.8484  -11.3711    0.0000 C   0  0  0  0  0  0  0  0  0  0  0  0
   14.4517  -13.8350    0.0000 C   0  0  0  0  0  0  0  0  0  0  0  0
   15.1392  -10.1300    0.0000 C   0  0  0  0  0  0  0  0  0  0  0  0
   13.7028  -10.1300    0.0000 C   0  0  0  0  0  0  0  0  0  0  0  0
   17.4801  -12.1381    0.0000 C   0  0  0  0  0  0  0  0  0  0  0  0
   14.4191   -9.7140    0.0000 C   0  0  0  0  0  0  0  0  0  0  0  0
   12.9864   -9.7140    0.0000 O   0  0  0  0  0  0  0  0  0  0  0  0
   18.1494  -12.5543    0.0000 C   0  0  0  0  0  0  0  0  0  0  0  0
   18.8152  -12.1815    0.0000 C   0  0  0  0  0  0  0  0  0  0  0  0
   15.9279  -13.1440    0.0000 H   0  0  0  0  0  0  0  0  0  0  0  0
   14.8049  -10.6599    0.0000 H   0  0  0  0  0  0  0  0  0  0  0  0
   14.1161  -11.3426    0.0000 H   0  0  0  0  0  0  0  0  0  0  0  0
   12.7691  -12.0818    0.0000 H   0  0  0  0  0  0  0  0  0  0  0  0
   13.6970  -11.5277    0.0000 H   0  0  0  0  0  0  0  0  0  0  0  0
   16.7732  -11.6644    0.0000 H   0  0  0  0  0  0  0  0  0  0  0  0
   16.1029  -13.9538    0.0000 H   0  0  0  0  0  0  0  0  0  0  0  0
   16.0784  -12.8710    0.0000 H   0  0  0  0  0  0  0  0  0  0  0  0
   12.8094  -11.4715    0.0000 H   0  0  0  0  0  0  0  0  0  0  0  0
   17.3280  -10.9251    0.0000 H   0  0  0  0  0  0  0  0  0  0  0  0
   17.5545  -12.0940    0.0000 H   0  0  0  0  0  0  0  0  0  0  0  0
   12.8269  -13.9763    0.0000 H   0  0  0  0  0  0  0  0  0  0  0  0
   13.7517  -14.4926    0.0000 H   0  0  0  0  0  0  0  0  0  0  0  0
   16.7781  -10.8414    0.0000 H   0  0  0  0  0  0  0  0  0  0  0  0
   15.8552  -10.3011    0.0000 H   0  0  0  0  0  0  0  0  0  0  0  0
   14.4433  -14.9050    0.0000 H   0  0  0  0  0  0  0  0  0  0  0  0
   13.5221  -14.3649    0.0000 H   0  0  0  0  0  0  0  0  0  0  0  0
   16.0330   -9.6141    0.0000 H   0  0  0  0  0  0  0  0  0  0  0  0
   17.5229  -11.0690    0.0000 H   0  0  0  0  0  0  0  0  0  0  0  0
   18.4256  -11.6372    0.0000 H   0  0  0  0  0  0  0  0  0  0  0  0
   14.4179   -8.6820    0.0000 H   0  0  0  0  0  0  0  0  0  0  0  0
   12.9887   -8.7770    0.0000 H   0  0  0  0  0  0  0  0  0  0  0  0
   18.1257  -13.5860    0.0000 H   0  0  0  0  0  0  0  0  0  0  0  0
   19.7021  -12.7092    0.0000 H   0  0  0  0  0  0  0  0  0  0  0  0
   18.8288  -11.1496    0.0000 H   0  0  0  0  0  0  0  0  0  0  0  0
  1  2  1  0  0  0  0
  1  3  1  6  0  0  0
  1  4  1  0  0  0  0
  1  5  1  0  0  0  0
  2 22  1  1  0  0  0
  2  6  1  0  0  0  0
  2  7  1  0  0  0  0
  3  8  2  0  0  0  0
  3  9  1  0  0  0  0
  4 10  1  0  0  0  0
  4 23  1  0  0  0  0
  4 24  1  0  0  0  0
  5 11  1  0  0  0  0
  5 25  1  0  0  0  0
  5 26  1  0  0  0  0
  6 12  1  0  0  0  0
  6 13  1  0  0  0  0
  6 27  1  6  0  0  0
  7 14  1  0  0  0  0
  7 28  1  0  0  0  0
  7 29  1  0  0  0  0
  8 15  1  0  0  0  0
  8 13  1  0  0  0  0
  9 16  2  0  0  0  0
  9 30  1  0  0  0  0
 10 12  1  0  0  0  0
 10 31  1  0  0  0  0
 10 32  1  0  0  0  0
 11 14  1  0  0  0  0
 11 33  1  0  0  0  0
 11 34  1  0  0  0  0
 12 17  1  0  0  0  0
 13 35  1  0  0  0  0
 13 36  1  0  0  0  0
 14 37  1  0  0  0  0
 14 38  1  0  0  0  0
 15 18  2  0  0  0  0
 15 39  1  0  0  0  0
 16 19  1  0  0  0  0
 16 18  1  0  0  0  0
 17 20  1  0  0  0  0
 17 40  1  0  0  0  0
 17 41  1  0  0  0  0
 18 42  1  0  0  0  0
 19 43  1  0  0  0  0
 20 21  2  0  0  0  0
 20 44  1  0  0  0  0
 21 45  1  0  0  0  0
 21 46  1  0  0  0  0
M  END
>  <DRUGBANK_ID>
DB00504

>  <SECONDARY_ACCESSION_NUMBERS>
APRD00733

>  <COMMON_NAME>
Levallorphan

>  <CAS_NUMBER>
152-02-3

>  <UNII>
353613BU4U

>  <SYNONYMS>
Levallofano; Levallorphan; LÃ©vallorphane; Levallorphanum; Levalorfano

$$$$
