
 OpenBabel10282417072D

 31 33  0  0  0  0  0  0  0  0999 V2000
    0.2987   -2.1703    0.0000 C   0  0  0  0  0  0  0  0  0  0  0  0
    0.2987   -1.3453    0.0000 C   0  0  0  0  0  0  0  0  0  0  0  0
    1.0132   -0.9328    0.0000 C   0  0  0  0  0  0  0  0  0  0  0  0
    1.7277   -1.3453    0.0000 C   0  0  0  0  0  0  0  0  0  0  0  0
    1.7277   -2.1703    0.0000 C   0  0  0  0  0  0  0  0  0  0  0  0
    1.0132   -2.5828    0.0000 C   0  0  0  0  0  0  0  0  0  0  0  0
   -0.0031    1.1616    0.0000 C   0  0  0  0  0  0  0  0  0  0  0  0
    0.2517    0.3770    0.0000 N   0  0  0  0  0  0  0  0  0  0  0  0
   -0.4156   -0.1078    0.0000 N   0  0  0  0  0  0  0  0  0  0  0  0
   -0.8281    1.1616    0.0000 C   0  0  0  0  0  0  0  0  0  0  0  0
   -1.0831    0.3770    0.0000 C   0  0  0  0  0  0  0  0  0  0  0  0
    0.4817    1.8291    0.0000 C   0  0  0  0  0  0  0  0  0  0  0  0
   -0.4156   -0.9328    0.0000 C   0  0  0  0  0  0  0  0  0  0  0  0
    0.1461    2.5828    0.0000 O   0  0  0  0  0  0  0  0  0  0  0  0
    1.3022    1.7428    0.0000 O   0  0  0  0  0  0  0  0  0  0  0  0
   -1.3802    1.7747    0.0000 C   0  0  0  0  0  0  0  0  0  0  0  0
    2.4421   -2.5828    0.0000 Cl  0  0  0  0  0  0  0  0  0  0  0  0
   -1.8901    0.2055    0.0000 C   0  0  0  0  0  0  0  0  0  0  0  0
   -2.1871    1.6032    0.0000 C   0  0  0  0  0  0  0  0  0  0  0  0
   -2.4421    0.8186    0.0000 C   0  0  0  0  0  0  0  0  0  0  0  0
   -0.4156   -2.5828    0.0000 Cl  0  0  0  0  0  0  0  0  0  0  0  0
    1.0132    0.0992    0.0000 H   0  0  0  0  0  0  0  0  0  0  0  0
    2.6214   -0.8293    0.0000 H   0  0  0  0  0  0  0  0  0  0  0  0
    1.0132   -3.6148    0.0000 H   0  0  0  0  0  0  0  0  0  0  0  0
   -1.3423   -1.4678    0.0000 H   0  0  0  0  0  0  0  0  0  0  0  0
   -1.3422   -0.3978    0.0000 H   0  0  0  0  0  0  0  0  0  0  0  0
    1.6832    0.8868    0.0000 H   0  0  0  0  0  0  0  0  0  0  0  0
   -1.0613    2.7562    0.0000 H   0  0  0  0  0  0  0  0  0  0  0  0
   -2.2090   -0.7760    0.0000 H   0  0  0  0  0  0  0  0  0  0  0  0
   -2.8776    2.3702    0.0000 H   0  0  0  0  0  0  0  0  0  0  0  0
   -3.4516    0.6041    0.0000 H   0  0  0  0  0  0  0  0  0  0  0  0
  1 21  1  0  0  0  0
  1  2  2  0  0  0  0
  2 13  1  0  0  0  0
  3  2  1  0  0  0  0
  3 22  1  0  0  0  0
  4  3  2  0  0  0  0
  4 23  1  0  0  0  0
  5  4  1  0  0  0  0
  6  1  1  0  0  0  0
  6  5  2  0  0  0  0
  6 24  1  0  0  0  0
  8  7  2  0  0  0  0
  9  8  1  0  0  0  0
 10  7  1  0  0  0  0
 11  9  1  0  0  0  0
 11 10  2  0  0  0  0
 12  7  1  0  0  0  0
 13  9  1  0  0  0  0
 13 25  1  0  0  0  0
 13 26  1  0  0  0  0
 14 12  2  0  0  0  0
 15 12  1  0  0  0  0
 15 27  1  0  0  0  0
 16 10  1  0  0  0  0
 16 28  1  0  0  0  0
 17  5  1  0  0  0  0
 18 11  1  0  0  0  0
 18 29  1  0  0  0  0
 19 16  2  0  0  0  0
 19 30  1  0  0  0  0
 20 18  2  0  0  0  0
 20 19  1  0  0  0  0
 20 31  1  0  0  0  0
M  END
>  <DRUGBANK_ID>
DB06266

>  <SECONDARY_ACCESSION_NUMBERS>
DB03762

>  <COMMON_NAME>
Lonidamine

>  <CAS_NUMBER>
50264-69-2

>  <UNII>
U78804BIDR

>  <SYNONYMS>
1-(2,4-dichlorbenzyl)-indazole-3-carboxylic acid; DICA; diclondazolic acid; Doridamina; Lonidamin; lonidamina; Lonidamine; lonidaminum

$$$$
