
 OpenBabel10282417072D

123126  0  0  1  0  0  0  0  0999 V2000
   14.4190   -7.4605    0.0000 C   0  0  0  0  0  0  0  0  0  0  0  0
   14.4190   -8.2855    0.0000 C   0  0  1  0  0  0  0  0  0  0  0  0
   15.1334   -8.6981    0.0000 C   0  0  0  0  0  0  0  0  0  0  0  0
   15.8479   -8.2855    0.0000 C   0  0  0  0  0  0  0  0  0  0  0  0
   15.8479   -7.4605    0.0000 C   0  0  2  0  0  0  0  0  0  0  0  0
   15.1334   -7.0480    0.0000 C   0  0  0  0  0  0  0  0  0  0  0  0
   16.5623   -8.6981    0.0000 C   0  0  0  0  0  0  0  0  0  0  0  0
   17.2768   -8.2855    0.0000 C   0  0  0  0  0  0  0  0  0  0  0  0
   17.2768   -7.4605    0.0000 C   0  0  2  0  0  0  0  0  0  0  0  0
   16.5623   -7.0480    0.0000 C   0  0  2  0  0  0  0  0  0  0  0  0
   17.9913   -7.0480    0.0000 C   0  0  1  0  0  0  0  0  0  0  0  0
   17.9913   -6.2230    0.0000 C   0  0  2  0  0  0  0  0  0  0  0  0
   17.2768   -5.8105    0.0000 C   0  0  0  0  0  0  0  0  0  0  0  0
   16.5623   -6.2230    0.0000 C   0  0  0  0  0  0  0  0  0  0  0  0
   18.7759   -7.3030    0.0000 C   0  0  0  0  0  0  0  0  0  0  0  0
   19.2608   -6.6355    0.0000 C   0  0  0  0  0  0  0  0  0  0  0  0
   18.7759   -5.9681    0.0000 C   0  0  2  0  0  0  0  0  0  0  0  0
   13.7044   -8.6981    0.0000 O   0  0  0  0  0  0  0  0  0  0  0  0
   18.0775   -5.4026    0.0000 C   0  0  0  0  0  0  0  0  0  0  0  0
   19.0308   -5.1835    0.0000 C   0  0  2  0  0  0  0  0  0  0  0  0
   18.4788   -4.5704    0.0000 C   0  0  0  0  0  0  0  0  0  0  0  0
   19.8378   -5.0120    0.0000 C   0  0  0  0  0  0  0  0  0  0  0  0
   20.0927   -4.2273    0.0000 C   0  0  0  0  0  0  0  0  0  0  0  0
   20.8997   -4.0558    0.0000 C   0  0  0  0  0  0  0  0  0  0  0  0
   21.1547   -3.2712    0.0000 C   0  0  0  0  0  0  0  0  0  0  0  0
   21.9617   -3.0996    0.0000 C   0  0  0  0  0  0  0  0  0  0  0  0
   20.6026   -2.6581    0.0000 C   0  0  0  0  0  0  0  0  0  0  0  0
   16.5623   -7.8730    0.0000 H   0  0  0  0  0  0  0  0  0  0  0  0
   15.8479   -6.6355    0.0000 C   0  0  0  0  0  0  0  0  0  0  0  0
   17.2768   -6.6355    0.0000 H   0  0  0  0  0  0  0  0  0  0  0  0
   18.0775   -7.8685    0.0000 H   0  0  0  0  0  0  0  0  0  0  0  0
   12.9899   -8.2855    0.0000 C   0  0  0  0  0  0  0  0  0  0  0  0
   12.2754   -8.6980    0.0000 C   0  0  0  0  0  0  0  0  0  0  0  0
   12.9900   -7.4605    0.0000 O   0  0  0  0  0  0  0  0  0  0  0  0
   11.5610   -8.2855    0.0000 C   0  0  0  0  0  0  0  0  0  0  0  0
   10.8465   -8.6980    0.0000 C   0  0  0  0  0  0  0  0  0  0  0  0
   10.1321   -8.2854    0.0000 C   0  0  0  0  0  0  0  0  0  0  0  0
    9.4175   -8.6979    0.0000 C   0  0  0  0  0  0  0  0  0  0  0  0
    8.7031   -8.2854    0.0000 C   0  0  0  0  0  0  0  0  0  0  0  0
    7.9886   -8.6978    0.0000 C   0  0  0  0  0  0  0  0  0  0  0  0
    7.2741   -8.2853    0.0000 C   0  0  0  0  0  0  0  0  0  0  0  0
    6.5597   -8.6977    0.0000 C   0  0  0  0  0  0  0  0  0  0  0  0
    6.5596   -9.5227    0.0000 C   0  0  0  0  0  0  0  0  0  0  0  0
    5.8451   -9.9352    0.0000 C   0  0  0  0  0  0  0  0  0  0  0  0
    5.8450  -10.7602    0.0000 C   0  0  0  0  0  0  0  0  0  0  0  0
    6.5595  -11.1727    0.0000 C   0  0  0  0  0  0  0  0  0  0  0  0
    6.5594  -11.9977    0.0000 C   0  0  0  0  0  0  0  0  0  0  0  0
    7.2739  -12.4103    0.0000 C   0  0  0  0  0  0  0  0  0  0  0  0
    7.2738  -13.2353    0.0000 C   0  0  0  0  0  0  0  0  0  0  0  0
   19.5938   -5.7612    0.0000 H   0  0  0  0  0  0  0  0  0  0  0  0
    6.5593  -13.6477    0.0000 C   0  0  0  0  0  0  0  0  0  0  0  0
   13.4923   -6.9255    0.0000 H   0  0  0  0  0  0  0  0  0  0  0  0
   14.4190   -6.3905    0.0000 H   0  0  0  0  0  0  0  0  0  0  0  0
   13.4923   -7.7505    0.0000 H   0  0  0  0  0  0  0  0  0  0  0  0
   15.1334   -9.7681    0.0000 H   0  0  0  0  0  0  0  0  0  0  0  0
   16.0601   -9.2331    0.0000 H   0  0  0  0  0  0  0  0  0  0  0  0
   15.1334   -5.9780    0.0000 H   0  0  0  0  0  0  0  0  0  0  0  0
   14.2067   -6.5130    0.0000 H   0  0  0  0  0  0  0  0  0  0  0  0
   16.5623   -9.7301    0.0000 H   0  0  0  0  0  0  0  0  0  0  0  0
   18.2035   -8.8205    0.0000 H   0  0  0  0  0  0  0  0  0  0  0  0
   18.2034   -7.7505    0.0000 H   0  0  0  0  0  0  0  0  0  0  0  0
   17.2768   -4.7405    0.0000 H   0  0  0  0  0  0  0  0  0  0  0  0
   16.3502   -5.2755    0.0000 H   0  0  0  0  0  0  0  0  0  0  0  0
   15.6357   -5.6880    0.0000 H   0  0  0  0  0  0  0  0  0  0  0  0
   15.6357   -6.7580    0.0000 H   0  0  0  0  0  0  0  0  0  0  0  0
   19.1065   -8.3206    0.0000 H   0  0  0  0  0  0  0  0  0  0  0  0
   19.8327   -7.4704    0.0000 H   0  0  0  0  0  0  0  0  0  0  0  0
   20.3308   -6.6355    0.0000 H   0  0  0  0  0  0  0  0  0  0  0  0
   19.7466   -5.6821    0.0000 H   0  0  0  0  0  0  0  0  0  0  0  0
   19.0550   -4.9674    0.0000 H   0  0  0  0  0  0  0  0  0  0  0  0
   17.2118   -4.7737    0.0000 H   0  0  0  0  0  0  0  0  0  0  0  0
   18.1893   -4.3385    0.0000 H   0  0  0  0  0  0  0  0  0  0  0  0
   17.9842   -5.4060    0.0000 H   0  0  0  0  0  0  0  0  0  0  0  0
   18.8095   -3.5528    0.0000 H   0  0  0  0  0  0  0  0  0  0  0  0
   17.4322   -4.7928    0.0000 H   0  0  0  0  0  0  0  0  0  0  0  0
   17.7629   -3.7752    0.0000 H   0  0  0  0  0  0  0  0  0  0  0  0
   20.5538   -5.8072    0.0000 H   0  0  0  0  0  0  0  0  0  0  0  0
   20.8844   -4.7895    0.0000 H   0  0  0  0  0  0  0  0  0  0  0  0
   19.3767   -3.4321    0.0000 H   0  0  0  0  0  0  0  0  0  0  0  0
   20.4234   -3.2097    0.0000 H   0  0  0  0  0  0  0  0  0  0  0  0
   21.6156   -4.8510    0.0000 H   0  0  0  0  0  0  0  0  0  0  0  0
   21.9463   -3.8334    0.0000 H   0  0  0  0  0  0  0  0  0  0  0  0
   21.4853   -2.2535    0.0000 H   0  0  0  0  0  0  0  0  0  0  0  0
   22.6777   -3.8947    0.0000 H   0  0  0  0  0  0  0  0  0  0  0  0
   22.2923   -2.0819    0.0000 H   0  0  0  0  0  0  0  0  0  0  0  0
   23.0083   -2.8771    0.0000 H   0  0  0  0  0  0  0  0  0  0  0  0
   20.9332   -1.6405    0.0000 H   0  0  0  0  0  0  0  0  0  0  0  0
   19.5560   -2.8806    0.0000 H   0  0  0  0  0  0  0  0  0  0  0  0
   19.8866   -1.8630    0.0000 H   0  0  0  0  0  0  0  0  0  0  0  0
   16.7745   -6.1005    0.0000 H   0  0  0  0  0  0  0  0  0  0  0  0
   14.9213   -6.1005    0.0000 H   0  0  0  0  0  0  0  0  0  0  0  0
   15.8479   -5.5655    0.0000 H   0  0  0  0  0  0  0  0  0  0  0  0
   12.2754   -9.7680    0.0000 H   0  0  0  0  0  0  0  0  0  0  0  0
   11.3487   -9.2330    0.0000 H   0  0  0  0  0  0  0  0  0  0  0  0
   11.5610   -7.2155    0.0000 H   0  0  0  0  0  0  0  0  0  0  0  0
   10.6344   -7.7505    0.0000 H   0  0  0  0  0  0  0  0  0  0  0  0
   10.8464   -9.7680    0.0000 H   0  0  0  0  0  0  0  0  0  0  0  0
    9.9198   -9.2329    0.0000 H   0  0  0  0  0  0  0  0  0  0  0  0
   10.1322   -7.2154    0.0000 H   0  0  0  0  0  0  0  0  0  0  0  0
    9.2055   -7.7503    0.0000 H   0  0  0  0  0  0  0  0  0  0  0  0
    9.4174   -9.7679    0.0000 H   0  0  0  0  0  0  0  0  0  0  0  0
    8.4908   -9.2329    0.0000 H   0  0  0  0  0  0  0  0  0  0  0  0
    8.7032   -7.2154    0.0000 H   0  0  0  0  0  0  0  0  0  0  0  0
    7.7765   -7.7503    0.0000 H   0  0  0  0  0  0  0  0  0  0  0  0
    7.9885   -9.7678    0.0000 H   0  0  0  0  0  0  0  0  0  0  0  0
    7.0619   -9.2328    0.0000 H   0  0  0  0  0  0  0  0  0  0  0  0
    7.2741   -7.2533    0.0000 H   0  0  0  0  0  0  0  0  0  0  0  0
    5.6660   -8.1816    0.0000 H   0  0  0  0  0  0  0  0  0  0  0  0
    7.4862  -10.0578    0.0000 H   0  0  0  0  0  0  0  0  0  0  0  0
    6.5596  -10.5927    0.0000 H   0  0  0  0  0  0  0  0  0  0  0  0
    4.9514   -9.4191    0.0000 H   0  0  0  0  0  0  0  0  0  0  0  0
    4.9512  -11.2762    0.0000 H   0  0  0  0  0  0  0  0  0  0  0  0
    7.4862  -10.6377    0.0000 H   0  0  0  0  0  0  0  0  0  0  0  0
    7.4861  -11.7078    0.0000 H   0  0  0  0  0  0  0  0  0  0  0  0
    5.6327  -12.5326    0.0000 H   0  0  0  0  0  0  0  0  0  0  0  0
    6.5593  -13.0677    0.0000 H   0  0  0  0  0  0  0  0  0  0  0  0
    8.2006  -11.8754    0.0000 H   0  0  0  0  0  0  0  0  0  0  0  0
    8.2005  -12.9454    0.0000 H   0  0  0  0  0  0  0  0  0  0  0  0
    8.2004  -13.7704    0.0000 H   0  0  0  0  0  0  0  0  0  0  0  0
    7.2737  -14.3053    0.0000 H   0  0  0  0  0  0  0  0  0  0  0  0
    5.6327  -13.1126    0.0000 H   0  0  0  0  0  0  0  0  0  0  0  0
    6.5592  -14.7177    0.0000 H   0  0  0  0  0  0  0  0  0  0  0  0
    5.6326  -14.1826    0.0000 H   0  0  0  0  0  0  0  0  0  0  0  0
  1  2  1  0  0  0  0
  1 52  1  0  0  0  0
  1 53  1  0  0  0  0
  2  3  1  0  0  0  0
  2 18  1  0  0  0  0
  2 54  1  6  0  0  0
  3  4  1  0  0  0  0
  3 55  1  0  0  0  0
  3 56  1  0  0  0  0
  4  5  1  0  0  0  0
  4  7  2  0  0  0  0
  5  6  1  0  0  0  0
  5 29  1  1  0  0  0
  6  1  1  0  0  0  0
  6 57  1  0  0  0  0
  6 58  1  0  0  0  0
  7  8  1  0  0  0  0
  7 59  1  0  0  0  0
  8  9  1  0  0  0  0
  8 60  1  0  0  0  0
  8 61  1  0  0  0  0
  9 10  1  0  0  0  0
  9 11  1  0  0  0  0
  9 30  1  1  0  0  0
 10  5  1  0  0  0  0
 10 28  1  6  0  0  0
 11 12  1  0  0  0  0
 11 15  1  0  0  0  0
 11 31  1  6  0  0  0
 12 13  1  0  0  0  0
 12 19  1  1  0  0  0
 13 14  1  0  0  0  0
 13 62  1  0  0  0  0
 13 63  1  0  0  0  0
 14 10  1  0  0  0  0
 14 64  1  0  0  0  0
 14 65  1  0  0  0  0
 15 16  1  0  0  0  0
 15 66  1  0  0  0  0
 15 67  1  0  0  0  0
 16 17  1  0  0  0  0
 16 68  1  0  0  0  0
 16 69  1  0  0  0  0
 17 12  1  0  0  0  0
 17 20  1  0  0  0  0
 17 50  1  6  0  0  0
 19 70  1  0  0  0  0
 19 71  1  0  0  0  0
 19 72  1  0  0  0  0
 20 21  1  0  0  0  0
 20 22  1  0  0  0  0
 20 73  1  1  0  0  0
 21 74  1  0  0  0  0
 21 75  1  0  0  0  0
 21 76  1  0  0  0  0
 22 23  1  0  0  0  0
 22 77  1  0  0  0  0
 22 78  1  0  0  0  0
 23 24  1  0  0  0  0
 23 79  1  0  0  0  0
 23 80  1  0  0  0  0
 24 25  1  0  0  0  0
 24 81  1  0  0  0  0
 24 82  1  0  0  0  0
 25 26  1  0  0  0  0
 25 27  1  0  0  0  0
 25 83  1  0  0  0  0
 26 84  1  0  0  0  0
 26 85  1  0  0  0  0
 26 86  1  0  0  0  0
 27 87  1  0  0  0  0
 27 88  1  0  0  0  0
 27 89  1  0  0  0  0
 29 90  1  0  0  0  0
 29 91  1  0  0  0  0
 29 92  1  0  0  0  0
 32 18  1  0  0  0  0
 33 32  1  0  0  0  0
 33 93  1  0  0  0  0
 33 94  1  0  0  0  0
 34 32  2  0  0  0  0
 35 33  1  0  0  0  0
 35 95  1  0  0  0  0
 35 96  1  0  0  0  0
 36 35  1  0  0  0  0
 36 97  1  0  0  0  0
 36 98  1  0  0  0  0
 37 36  1  0  0  0  0
 37 99  1  0  0  0  0
 37100  1  0  0  0  0
 38 37  1  0  0  0  0
 38101  1  0  0  0  0
 38102  1  0  0  0  0
 39 38  1  0  0  0  0
 39103  1  0  0  0  0
 39104  1  0  0  0  0
 40 39  1  0  0  0  0
 40105  1  0  0  0  0
 40106  1  0  0  0  0
 41 40  1  0  0  0  0
 41107  1  0  0  0  0
 42 41  2  0  0  0  0
 42108  1  0  0  0  0
 43 42  1  0  0  0  0
 43109  1  0  0  0  0
 43110  1  0  0  0  0
 44 43  1  0  0  0  0
 44111  1  0  0  0  0
 45 44  2  0  0  0  0
 45112  1  0  0  0  0
 46 45  1  0  0  0  0
 46113  1  0  0  0  0
 46114  1  0  0  0  0
 47 46  1  0  0  0  0
 47115  1  0  0  0  0
 47116  1  0  0  0  0
 48 47  1  0  0  0  0
 48117  1  0  0  0  0
 48118  1  0  0  0  0
 49 48  1  0  0  0  0
 49119  1  0  0  0  0
 49120  1  0  0  0  0
 51 49  1  0  0  0  0
 51121  1  0  0  0  0
 51122  1  0  0  0  0
 51123  1  0  0  0  0
M  END
>  <DRUGBANK_ID>
DB02092

>  <SECONDARY_ACCESSION_NUMBERS>
EXPT00941

>  <COMMON_NAME>
Cholesteryl Linoleate

>  <CAS_NUMBER>
604-33-1

>  <UNII>
75427237HI

>  <SYNONYMS>
(3β)-cholest-5-en-3-ol, (9Z,12Z)-9,12-octadecadienoate; (3β)-cholest-5-en-3-ol, (Z,Z)-9,12-octadecadienoate; (Z,Z)-(3beta)-Cholest-5-en-3-ol 9,12-octadecadienoate; 18:2 Cholesteryl ester; CE(18:2(9Z,12Z)); CE(18:2); cholest-5-en-3β-yl (Z,Z)-octadeca-9,12-dienoate; cholesteryl (9Z,12Z-octadecadienoate)

$$$$
