
 OpenBabel10282417072D

 45 48  0  0  0  0  0  0  0  0999 V2000
   -3.0536    0.0000    0.0000 C   0  0  0  0  0  0  0  0  0  0  0  0
    3.9934    0.8250    0.0000 C   0  0  0  0  0  0  0  0  0  0  0  0
   -2.3391   -0.4125    0.0000 C   0  0  0  0  0  0  0  0  0  0  0  0
    3.2789    1.2375    0.0000 C   0  0  0  0  0  0  0  0  0  0  0  0
   -2.3391    1.2375    0.0000 C   0  0  0  0  0  0  0  0  0  0  0  0
    3.2789   -0.4125    0.0000 C   0  0  0  0  0  0  0  0  0  0  0  0
   -3.0536    0.8250    0.0000 C   0  0  0  0  0  0  0  0  0  0  0  0
    3.9934    0.0000    0.0000 C   0  0  0  0  0  0  0  0  0  0  0  0
   -1.6246    0.0000    0.0000 C   0  0  0  0  0  0  0  0  0  0  0  0
    2.5645    0.8250    0.0000 C   0  0  0  0  0  0  0  0  0  0  0  0
   -1.6246    0.8250    0.0000 C   0  0  0  0  0  0  0  0  0  0  0  0
    2.5645    0.0000    0.0000 C   0  0  0  0  0  0  0  0  0  0  0  0
   -3.7680    1.2375    0.0000 C   0  0  0  0  0  0  0  0  0  0  0  0
    4.7079   -0.4125    0.0000 C   0  0  0  0  0  0  0  0  0  0  0  0
   -0.3551    0.4125    0.0000 C   0  0  0  0  0  0  0  0  0  0  0  0
    1.2949    0.4125    0.0000 C   0  0  0  0  0  0  0  0  0  0  0  0
    0.4699    0.4125    0.0000 C   0  0  0  0  0  0  0  0  0  0  0  0
   -4.4825    0.8250    0.0000 N   0  3  0  0  0  0  0  0  0  0  0  0
   -3.7680    2.0625    0.0000 N   0  3  0  0  0  0  0  0  0  0  0  0
    5.4223   -0.0000    0.0000 N   0  0  0  0  0  0  0  0  0  0  0  0
    4.7079   -1.2375    0.0000 N   0  0  0  0  0  0  0  0  0  0  0  0
   -0.8400   -0.2549    0.0000 N   0  0  0  0  0  0  0  0  0  0  0  0
    1.7798    1.0799    0.0000 N   0  0  0  0  0  0  0  0  0  0  0  0
   -0.8400    1.0799    0.0000 N   0  0  0  0  0  0  0  0  0  0  0  0
    1.7798   -0.2549    0.0000 N   0  0  0  0  0  0  0  0  0  0  0  0
    0.4699   -0.4125    0.0000 O   0  0  0  0  0  0  0  0  0  0  0  0
    0.4699    1.2375    0.0000 O   0  0  0  0  0  0  0  0  0  0  0  0
   -3.9473   -0.5160    0.0000 H   0  0  0  0  0  0  0  0  0  0  0  0
    4.8871    1.3410    0.0000 H   0  0  0  0  0  0  0  0  0  0  0  0
   -2.3391   -1.4445    0.0000 H   0  0  0  0  0  0  0  0  0  0  0  0
    3.2789    2.2695    0.0000 H   0  0  0  0  0  0  0  0  0  0  0  0
   -2.3391    2.2695    0.0000 H   0  0  0  0  0  0  0  0  0  0  0  0
    3.2789   -1.4445    0.0000 H   0  0  0  0  0  0  0  0  0  0  0  0
   -5.3351    1.3173    0.0000 H   0  0  0  0  0  0  0  0  0  0  0  0
   -4.4825   -0.1595    0.0000 H   0  0  0  0  0  0  0  0  0  0  0  0
   -2.9154    2.5548    0.0000 H   0  0  0  0  0  0  0  0  0  0  0  0
   -4.6206    2.5547    0.0000 H   0  0  0  0  0  0  0  0  0  0  0  0
   -3.7680    3.0470    0.0000 H   0  0  0  0  0  0  0  0  0  0  0  0
    6.2749   -0.4922    0.0000 H   0  0  0  0  0  0  0  0  0  0  0  0
    3.8553   -1.7298    0.0000 H   0  0  0  0  0  0  0  0  0  0  0  0
    5.5605   -1.7297    0.0000 H   0  0  0  0  0  0  0  0  0  0  0  0
   -0.5358    2.0162    0.0000 H   0  0  0  0  0  0  0  0  0  0  0  0
    1.4755   -1.1912    0.0000 H   0  0  0  0  0  0  0  0  0  0  0  0
   -0.3416   -0.8810    0.0000 H   0  0  0  0  0  0  0  0  0  0  0  0
    1.2814    1.7060    0.0000 H   0  0  0  0  0  0  0  0  0  0  0  0
  1 28  1  0  0  0  0
  2 29  1  0  0  0  0
  3  1  2  0  0  0  0
  3 30  1  0  0  0  0
  4  2  2  0  0  0  0
  4 31  1  0  0  0  0
  5 32  1  0  0  0  0
  6 33  1  0  0  0  0
  7  1  1  0  0  0  0
  7  5  2  0  0  0  0
  8  2  1  0  0  0  0
  8  6  2  0  0  0  0
  9  3  1  0  0  0  0
 10  4  1  0  0  0  0
 11  5  1  0  0  0  0
 11  9  2  0  0  0  0
 12  6  1  0  0  0  0
 12 10  2  0  0  0  0
 13  7  1  0  0  0  0
 14  8  1  0  0  0  0
 17 15  1  0  0  0  0
 17 16  1  0  0  0  0
 18 13  2  0  0  0  0
 18 34  1  0  0  0  0
 18 35  1  0  0  0  0
 19 13  1  0  0  0  0
 19 36  1  0  0  0  0
 19 37  1  0  0  0  0
 19 38  1  0  0  0  0
 20 14  2  0  0  0  0
 20 39  1  0  0  0  0
 21 14  1  0  0  0  0
 21 40  1  0  0  0  0
 21 41  1  0  0  0  0
 22  9  1  0  0  0  0
 22 15  2  0  0  0  0
 23 10  1  0  0  0  0
 23 16  2  0  0  0  0
 24 11  1  0  0  0  0
 24 15  1  0  0  0  0
 24 42  1  0  0  0  0
 25 12  1  0  0  0  0
 25 16  1  0  0  0  0
 25 43  1  0  0  0  0
 26 17  1  0  0  0  0
 26 44  1  0  0  0  0
 27 17  1  0  0  0  0
 27 45  1  0  0  0  0
M  CHG  2  18   1  19   1
M  END
>  <DRUGBANK_ID>
DB04301

>  <SECONDARY_ACCESSION_NUMBERS>
EXPT00621

>  <COMMON_NAME>
Bis(5-Amidino-2-Benzimidazolyl)Methane Ketone Hydrate

$$$$
