
 OpenBabel10282417072D

 13 13  0  0  0  0  0  0  0  0999 V2000
    0.5678    1.9391    0.0000 C   0  0  0  0  0  0  0  0  0  0  0  0
    0.5678    1.1141    0.0000 N   0  0  0  0  0  0  0  0  0  0  0  0
    1.2350    0.6294    0.0000 C   0  0  0  0  0  0  0  0  0  0  0  0
    0.9801   -0.1553    0.0000 C   0  0  0  0  0  0  0  0  0  0  0  0
    0.1553   -0.1553    0.0000 N   0  3  0  0  0  0  0  0  0  0  0  0
   -0.0997    0.6294    0.0000 C   0  0  0  0  0  0  0  0  0  0  0  0
    1.4944    2.4741    0.0000 H   0  0  0  0  0  0  0  0  0  0  0  0
   -0.3588    2.4741    0.0000 H   0  0  0  0  0  0  0  0  0  0  0  0
    0.5678    3.0091    0.0000 H   0  0  0  0  0  0  0  0  0  0  0  0
    2.2165    0.9484    0.0000 H   0  0  0  0  0  0  0  0  0  0  0  0
    1.5867   -0.9902    0.0000 H   0  0  0  0  0  0  0  0  0  0  0  0
   -0.4234   -0.9518    0.0000 H   0  0  0  0  0  0  0  0  0  0  0  0
   -1.0812    0.9484    0.0000 H   0  0  0  0  0  0  0  0  0  0  0  0
  1  2  1  0  0  0  0
  1  7  1  0  0  0  0
  1  8  1  0  0  0  0
  1  9  1  0  0  0  0
  2  3  1  0  0  0  0
  2  6  1  0  0  0  0
  3  4  2  0  0  0  0
  3 10  1  0  0  0  0
  4  5  1  0  0  0  0
  4 11  1  0  0  0  0
  5  6  2  0  0  0  0
  5 12  1  0  0  0  0
  6 13  1  0  0  0  0
M  CHG  1   5   1
M  END
>  <DRUGBANK_ID>
DB02671

>  <SECONDARY_ACCESSION_NUMBERS>
EXPT00077

>  <COMMON_NAME>
1-Methylimidazole

>  <CAS_NUMBER>
616-47-7

>  <UNII>
P4617QS63Y

$$$$
