
 OpenBabel10282417072D

 31 31  0  0  0  0  0  0  0  0999 V2000
   -1.0724   -0.2556    0.0000 C   0  0  0  0  0  0  0  0  0  0  0  0
   -0.3585   -0.6690    0.0000 C   0  0  0  0  0  0  0  0  0  0  0  0
   -0.3595   -1.4940    0.0000 C   0  0  0  0  0  0  0  0  0  0  0  0
   -1.0745   -1.9055    0.0000 C   0  0  0  0  0  0  0  0  0  0  0  0
   -1.7884   -1.4922    0.0000 C   0  0  0  0  0  0  0  0  0  0  0  0
   -1.7874   -0.6672    0.0000 C   0  0  0  0  0  0  0  0  0  0  0  0
   -1.0714    0.5697    0.0000 C   0  0  0  0  0  0  0  0  0  0  0  0
   -0.3563    0.9820    0.0000 C   0  0  1  0  0  0  0  0  0  0  0  0
    1.7884    0.5689    0.0000 C   0  0  0  0  0  0  0  0  0  0  0  0
    1.0736    0.9816    0.0000 C   0  0  0  0  0  0  0  0  0  0  0  0
    0.3585    0.5693    0.0000 N   0  0  0  0  0  0  0  0  0  0  0  0
    1.0738    1.6415    0.0000 O   0  0  0  0  0  0  0  0  0  0  0  0
   -1.2066    1.8510    0.0000 O   0  0  0  0  0  0  0  0  0  0  0  0
    0.0320    2.5655    0.0000 O   0  0  0  0  0  0  0  0  0  0  0  0
    0.3591    2.2199    0.0000 O   0  0  0  0  0  0  0  0  0  0  0  0
   -0.3560    1.8074    0.0000 B   0  5  0  0  0  0  0  0  0  0  0  0
   -1.0753   -2.5655    0.0000 Cl  0  0  0  0  0  0  0  0  0  0  0  0
   -0.3565    0.4320    0.0000 H   0  0  0  0  0  0  0  0  0  0  0  0
    0.3583    0.0193    0.0000 H   0  0  0  0  0  0  0  0  0  0  0  0
    0.5359   -0.1541    0.0000 H   0  0  0  0  0  0  0  0  0  0  0  0
    0.5336   -2.0112    0.0000 H   0  0  0  0  0  0  0  0  0  0  0  0
   -2.6828   -2.0071    0.0000 H   0  0  0  0  0  0  0  0  0  0  0  0
   -2.6805   -0.1501    0.0000 H   0  0  0  0  0  0  0  0  0  0  0  0
   -1.9976    1.1055    0.0000 H   0  0  0  0  0  0  0  0  0  0  0  0
   -1.0706    1.6397    0.0000 H   0  0  0  0  0  0  0  0  0  0  0  0
    1.7884   -0.5011    0.0000 H   0  0  0  0  0  0  0  0  0  0  0  0
    2.7151    1.1039    0.0000 H   0  0  0  0  0  0  0  0  0  0  0  0
    2.7150    0.0339    0.0000 H   0  0  0  0  0  0  0  0  0  0  0  0
   -1.6480    2.7148    0.0000 H   0  0  0  0  0  0  0  0  0  0  0  0
    1.0008    2.6145    0.0000 H   0  0  0  0  0  0  0  0  0  0  0  0
    1.1990    1.7346    0.0000 H   0  0  0  0  0  0  0  0  0  0  0  0
  1  2  2  0  0  0  0
  1  6  1  0  0  0  0
  1  7  1  0  0  0  0
  2  3  1  0  0  0  0
  2 20  1  0  0  0  0
  3  4  2  0  0  0  0
  3 21  1  0  0  0  0
  4  5  1  0  0  0  0
  4 17  1  0  0  0  0
  5  6  2  0  0  0  0
  5 22  1  0  0  0  0
  6 23  1  0  0  0  0
  7  8  1  0  0  0  0
  7 24  1  0  0  0  0
  7 25  1  0  0  0  0
  8 11  1  0  0  0  0
  8 18  1  1  0  0  0
  9 26  1  0  0  0  0
  9 27  1  0  0  0  0
  9 28  1  0  0  0  0
 10  9  1  0  0  0  0
 10 11  1  0  0  0  0
 10 12  2  0  0  0  0
 13 29  1  0  0  0  0
 14 30  1  0  0  0  0
 15 31  1  0  0  0  0
 16  8  1  0  0  0  0
 16 13  1  0  0  0  0
 16 14  1  0  0  0  0
 16 15  1  0  0  0  0
 19 11  1  0  0  0  0
M  CHG  1  16  -1
M  END
>  <DRUGBANK_ID>
DB08692

>  <COMMON_NAME>
D-1-(4-chlorophenyl)-2-(acetamido)ethane boronic acid

$$$$
