
 OpenBabel10282417072D

 48 50  0  0  1  0  0  0  0  0999 V2000
   -1.5956   -1.7768    0.0000 N   0  0  0  0  0  0  0  0  0  0  0  0
   -1.4241   -0.9698    0.0000 C   0  0  0  0  0  0  0  0  0  0  0  0
   -2.0372   -0.4178    0.0000 O   0  0  0  0  0  0  0  0  0  0  0  0
   -0.6394   -0.7149    0.0000 C   0  0  2  0  0  0  0  0  0  0  0  0
   -0.3845    0.0698    0.0000 C   0  0  0  0  0  0  0  0  0  0  0  0
    0.4405    0.0698    0.0000 C   0  0  0  0  0  0  0  0  0  0  0  0
    0.6954   -0.7149    0.0000 C   0  0  0  0  0  0  0  0  0  0  0  0
    0.0280   -1.1998    0.0000 N   0  0  0  0  0  0  0  0  0  0  0  0
    0.0280   -2.0248    0.0000 C   0  0  0  0  0  0  0  0  0  0  0  0
   -0.6865   -2.4373    0.0000 O   0  0  0  0  0  0  0  0  0  0  0  0
    0.7425   -2.4373    0.0000 C   0  0  2  0  0  0  0  0  0  0  0  0
    0.7425   -3.2623    0.0000 C   0  0  0  0  0  0  0  0  0  0  0  0
    0.0280   -3.6748    0.0000 C   0  0  0  0  0  0  0  0  0  0  0  0
   -0.0582   -4.4953    0.0000 C   0  0  0  0  0  0  0  0  0  0  0  0
   -0.8652   -4.6668    0.0000 N   0  0  0  0  0  0  0  0  0  0  0  0
   -1.2777   -3.9523    0.0000 C   0  0  0  0  0  0  0  0  0  0  0  0
   -0.7257   -3.3392    0.0000 N   0  0  0  0  0  0  0  0  0  0  0  0
    1.4569   -2.0248    0.0000 N   0  0  0  0  0  0  0  0  0  0  0  0
    2.1714   -2.4373    0.0000 C   0  0  0  0  0  0  0  0  0  0  0  0
    2.1714   -3.2623    0.0000 O   0  0  0  0  0  0  0  0  0  0  0  0
    2.8859   -2.0248    0.0000 C   0  0  2  0  0  0  0  0  0  0  0  0
    2.9721   -1.2043    0.0000 C   0  0  0  0  0  0  0  0  0  0  0  0
    3.7791   -1.0328    0.0000 C   0  0  0  0  0  0  0  0  0  0  0  0
    4.1916   -1.7472    0.0000 C   0  0  0  0  0  0  0  0  0  0  0  0
    5.0121   -1.8335    0.0000 O   0  0  0  0  0  0  0  0  0  0  0  0
    3.6396   -2.3603    0.0000 N   0  0  0  0  0  0  0  0  0  0  0  0
   -1.3931   -0.3794    0.0000 H   0  0  0  0  0  0  0  0  0  0  0  0
    1.4570   -2.8498    0.0000 H   0  0  0  0  0  0  0  0  0  0  0  0
    2.0789   -1.8533    0.0000 H   0  0  0  0  0  0  0  0  0  0  0  0
   -2.5319   -2.0811    0.0000 H   0  0  0  0  0  0  0  0  0  0  0  0
   -0.8639   -2.4355    0.0000 H   0  0  0  0  0  0  0  0  0  0  0  0
   -1.0135    0.9354    0.0000 H   0  0  0  0  0  0  0  0  0  0  0  0
    0.1013    1.0232    0.0000 H   0  0  0  0  0  0  0  0  0  0  0  0
    1.0695    0.9354    0.0000 H   0  0  0  0  0  0  0  0  0  0  0  0
    1.4973   -0.0976    0.0000 H   0  0  0  0  0  0  0  0  0  0  0  0
    1.7130   -1.0456    0.0000 H   0  0  0  0  0  0  0  0  0  0  0  0
    0.8628   -1.7717    0.0000 H   0  0  0  0  0  0  0  0  0  0  0  0
    1.6691   -3.7973    0.0000 H   0  0  0  0  0  0  0  0  0  0  0  0
    0.7425   -4.3323    0.0000 H   0  0  0  0  0  0  0  0  0  0  0  0
    0.7087   -5.1858    0.0000 H   0  0  0  0  0  0  0  0  0  0  0  0
   -2.3040   -3.8444    0.0000 H   0  0  0  0  0  0  0  0  0  0  0  0
   -0.9304   -2.3762    0.0000 H   0  0  0  0  0  0  0  0  0  0  0  0
    1.4569   -1.0403    0.0000 H   0  0  0  0  0  0  0  0  0  0  0  0
    2.1769   -0.4883    0.0000 H   0  0  0  0  0  0  0  0  0  0  0  0
    3.2491   -0.1708    0.0000 H   0  0  0  0  0  0  0  0  0  0  0  0
    4.2143   -0.0553    0.0000 H   0  0  0  0  0  0  0  0  0  0  0  0
    4.8476   -0.9768    0.0000 H   0  0  0  0  0  0  0  0  0  0  0  0
    3.8443   -3.3233    0.0000 H   0  0  0  0  0  0  0  0  0  0  0  0
  1  2  1  0  0  0  0
  1 30  1  0  0  0  0
  1 31  1  0  0  0  0
  2  3  2  0  0  0  0
  4  2  1  0  0  0  0
  4  5  1  0  0  0  0
  4  8  1  0  0  0  0
  4 27  1  1  0  0  0
  5  6  1  0  0  0  0
  5 32  1  0  0  0  0
  5 33  1  0  0  0  0
  6  7  1  0  0  0  0
  6 34  1  0  0  0  0
  6 35  1  0  0  0  0
  7  8  1  0  0  0  0
  7 36  1  0  0  0  0
  7 37  1  0  0  0  0
  8  9  1  0  0  0  0
  9 10  2  0  0  0  0
  9 11  1  0  0  0  0
 11 12  1  0  0  0  0
 11 18  1  0  0  0  0
 11 28  1  6  0  0  0
 12 13  1  0  0  0  0
 12 38  1  0  0  0  0
 12 39  1  0  0  0  0
 13 14  2  0  0  0  0
 13 17  1  0  0  0  0
 14 15  1  0  0  0  0
 14 40  1  0  0  0  0
 15 16  2  0  0  0  0
 16 17  1  0  0  0  0
 16 41  1  0  0  0  0
 17 42  1  0  0  0  0
 18 19  1  0  0  0  0
 18 43  1  0  0  0  0
 19 20  2  0  0  0  0
 21 19  1  0  0  0  0
 21 22  1  0  0  0  0
 21 26  1  0  0  0  0
 21 29  1  1  0  0  0
 22 23  1  0  0  0  0
 22 44  1  0  0  0  0
 22 45  1  0  0  0  0
 23 24  1  0  0  0  0
 23 46  1  0  0  0  0
 23 47  1  0  0  0  0
 24 25  2  0  0  0  0
 24 26  1  0  0  0  0
 26 48  1  0  0  0  0
M  END
>  <DRUGBANK_ID>
DB09421

>  <COMMON_NAME>
Protirelin

>  <CAS_NUMBER>
24305-27-9

>  <UNII>
5Y5F15120W

>  <SYNONYMS>
5-oxo-L-prolyl-L-histidyl-L-prolinamide; L-pyroglutamyl-L-histidyl-L-prolineamide; Protirelin; Protirelina; Thyroliberin; Thyrotropic releasing hormone; Thyrotropic-releasing factor; Thyrotropin releasing hormone; Thyrotropin-releasing factor; TRH; TSH-releasing factor; TSH-releasing hormone

$$$$
