
 OpenBabel10282417072D

 60 63  0  0  0  0  0  0  0  0999 V2000
    4.2868   -4.9500    0.0000 C   0  0  0  0  0  0  0  0  0  0  0  0
   -5.7158   -4.9500    0.0000 C   0  0  0  0  0  0  0  0  0  0  0  0
    3.5724   -5.3625    0.0000 C   0  0  0  0  0  0  0  0  0  0  0  0
    1.4289   -6.6000    0.0000 C   0  0  0  0  0  0  0  0  0  0  0  0
    0.7145   -6.1875    0.0000 C   0  0  0  0  0  0  0  0  0  0  0  0
    2.1434   -6.1875    0.0000 C   0  0  0  0  0  0  0  0  0  0  0  0
    0.7145   -5.3625    0.0000 C   0  0  0  0  0  0  0  0  0  0  0  0
   -0.7145   -3.7125    0.0000 C   0  0  0  0  0  0  0  0  0  0  0  0
    0.0000   -4.1250    0.0000 C   0  0  0  0  0  0  0  0  0  0  0  0
   -1.4289   -1.6500    0.0000 C   0  0  0  0  0  0  0  0  0  0  0  0
   -2.1434   -1.2375    0.0000 C   0  0  0  0  0  0  0  0  0  0  0  0
   -4.2868   -4.1250    0.0000 C   0  0  0  0  0  0  0  0  0  0  0  0
   -5.0013   -2.8875    0.0000 C   0  0  0  0  0  0  0  0  0  0  0  0
   -3.5724   -3.7125    0.0000 C   0  0  0  0  0  0  0  0  0  0  0  0
   -4.2868   -2.4750    0.0000 C   0  0  0  0  0  0  0  0  0  0  0  0
    0.0000   -2.4750    0.0000 C   0  0  0  0  0  0  0  0  0  0  0  0
   -2.1434   -2.8875    0.0000 C   0  0  0  0  0  0  0  0  0  0  0  0
   -5.7158   -4.1250    0.0000 C   0  0  0  0  0  0  0  0  0  0  0  0
   -0.7145   -2.8875    0.0000 C   0  0  0  0  0  0  0  0  0  0  0  0
   -1.4289   -2.4750    0.0000 C   0  0  0  0  0  0  0  0  0  0  0  0
    0.7145   -2.8875    0.0000 C   0  0  0  0  0  0  0  0  0  0  0  0
    2.1434   -5.3625    0.0000 C   0  0  0  0  0  0  0  0  0  0  0  0
    0.7145   -3.7125    0.0000 C   0  0  0  0  0  0  0  0  0  0  0  0
    1.4289   -4.9500    0.0000 C   0  0  0  0  0  0  0  0  0  0  0  0
   -2.8579   -2.4750    0.0000 C   0  0  0  0  0  0  0  0  0  0  0  0
   -2.8579   -1.6500    0.0000 N   0  0  0  0  0  0  0  0  0  0  0  0
   -5.0013   -3.7125    0.0000 N   0  0  0  0  0  0  0  0  0  0  0  0
   -3.5724   -2.8875    0.0000 N   0  0  0  0  0  0  0  0  0  0  0  0
    1.4289   -2.4750    0.0000 N   0  0  0  0  0  0  0  0  0  0  0  0
   -6.4302   -3.7125    0.0000 O   0  0  0  0  0  0  0  0  0  0  0  0
    2.1434   -2.8875    0.0000 O   0  0  0  0  0  0  0  0  0  0  0  0
    1.4289   -1.6500    0.0000 O   0  0  0  0  0  0  0  0  0  0  0  0
    2.8579   -4.9500    0.0000 O   0  0  0  0  0  0  0  0  0  0  0  0
    1.4289   -4.1250    0.0000 S   0  0  0  0  0  0  0  0  0  0  0  0
    5.2135   -5.4850    0.0000 H   0  0  0  0  0  0  0  0  0  0  0  0
    4.2868   -3.8800    0.0000 H   0  0  0  0  0  0  0  0  0  0  0  0
    5.2134   -4.4150    0.0000 H   0  0  0  0  0  0  0  0  0  0  0  0
   -6.6424   -5.4850    0.0000 H   0  0  0  0  0  0  0  0  0  0  0  0
   -4.7892   -5.4850    0.0000 H   0  0  0  0  0  0  0  0  0  0  0  0
   -5.7158   -6.0200    0.0000 H   0  0  0  0  0  0  0  0  0  0  0  0
    3.5724   -6.4325    0.0000 H   0  0  0  0  0  0  0  0  0  0  0  0
    2.6458   -5.8975    0.0000 H   0  0  0  0  0  0  0  0  0  0  0  0
    1.4289   -7.6320    0.0000 H   0  0  0  0  0  0  0  0  0  0  0  0
   -0.1792   -6.7035    0.0000 H   0  0  0  0  0  0  0  0  0  0  0  0
    3.0371   -6.7035    0.0000 H   0  0  0  0  0  0  0  0  0  0  0  0
   -0.1792   -4.8465    0.0000 H   0  0  0  0  0  0  0  0  0  0  0  0
   -1.6082   -4.2285    0.0000 H   0  0  0  0  0  0  0  0  0  0  0  0
    0.0000   -5.1570    0.0000 H   0  0  0  0  0  0  0  0  0  0  0  0
   -0.5352   -1.1340    0.0000 H   0  0  0  0  0  0  0  0  0  0  0  0
   -2.1434   -0.2055    0.0000 H   0  0  0  0  0  0  0  0  0  0  0  0
   -4.2868   -5.1950    0.0000 H   0  0  0  0  0  0  0  0  0  0  0  0
   -5.2134   -4.6600    0.0000 H   0  0  0  0  0  0  0  0  0  0  0  0
   -5.9279   -2.3525    0.0000 H   0  0  0  0  0  0  0  0  0  0  0  0
   -5.9279   -3.4225    0.0000 H   0  0  0  0  0  0  0  0  0  0  0  0
   -2.6457   -4.2475    0.0000 H   0  0  0  0  0  0  0  0  0  0  0  0
   -2.6458   -3.1775    0.0000 H   0  0  0  0  0  0  0  0  0  0  0  0
   -4.2868   -1.4050    0.0000 H   0  0  0  0  0  0  0  0  0  0  0  0
   -3.3601   -1.9400    0.0000 H   0  0  0  0  0  0  0  0  0  0  0  0
    0.0000   -1.4430    0.0000 H   0  0  0  0  0  0  0  0  0  0  0  0
   -2.1434   -3.9195    0.0000 H   0  0  0  0  0  0  0  0  0  0  0  0
  1 35  1  0  0  0  0
  1 36  1  0  0  0  0
  1 37  1  0  0  0  0
  2 38  1  0  0  0  0
  2 39  1  0  0  0  0
  2 40  1  0  0  0  0
  3  1  1  0  0  0  0
  3 41  1  0  0  0  0
  3 42  1  0  0  0  0
  4 43  1  0  0  0  0
  5  4  2  0  0  0  0
  5 44  1  0  0  0  0
  6  4  1  0  0  0  0
  6 45  1  0  0  0  0
  7  5  1  0  0  0  0
  7 46  1  0  0  0  0
  8 47  1  0  0  0  0
  9  8  2  0  0  0  0
  9 48  1  0  0  0  0
 10 49  1  0  0  0  0
 11 10  2  0  0  0  0
 11 50  1  0  0  0  0
 12 51  1  0  0  0  0
 12 52  1  0  0  0  0
 13 53  1  0  0  0  0
 13 54  1  0  0  0  0
 14 12  1  0  0  0  0
 14 55  1  0  0  0  0
 14 56  1  0  0  0  0
 15 13  1  0  0  0  0
 15 57  1  0  0  0  0
 15 58  1  0  0  0  0
 16 59  1  0  0  0  0
 17 60  1  0  0  0  0
 18  2  1  0  0  0  0
 19  8  1  0  0  0  0
 19 16  2  0  0  0  0
 20 10  1  0  0  0  0
 20 17  2  0  0  0  0
 20 19  1  0  0  0  0
 21 16  1  0  0  0  0
 22  6  2  0  0  0  0
 23  9  1  0  0  0  0
 23 21  2  0  0  0  0
 24  7  2  0  0  0  0
 24 22  1  0  0  0  0
 25 17  1  0  0  0  0
 26 11  1  0  0  0  0
 26 25  2  0  0  0  0
 27 12  1  0  0  0  0
 27 13  1  0  0  0  0
 27 18  1  0  0  0  0
 28 14  1  0  0  0  0
 28 15  1  0  0  0  0
 28 25  1  0  0  0  0
 29 21  1  0  0  0  0
 30 18  2  0  0  0  0
 31 29  2  0  0  0  0
 32 29  2  0  0  0  0
 33  3  1  0  0  0  0
 33 22  1  0  0  0  0
 34 23  1  0  0  0  0
 34 24  1  0  0  0  0
M  END
>  <DRUGBANK_ID>
DB02177

>  <SECONDARY_ACCESSION_NUMBERS>
EXPT01986

>  <COMMON_NAME>
1-Acetyl-4-(4-{4-[(2-Ethoxyphenyl)Thio]-3-Nitrophenyl}Pyridin-2-Yl)Piperazine

$$$$
