
 OpenBabel10282417072D

 65 68  0  0  0  0  0  0  0  0999 V2000
    1.1091   -0.5333    0.0000 C   0  0  0  0  0  0  0  0  0  0  0  0
    1.9341   -0.5333    0.0000 C   0  0  0  0  0  0  0  0  0  0  0  0
    2.7591   -0.5333    0.0000 C   0  0  0  0  0  0  0  0  0  0  0  0
    1.9341    0.2917    0.0000 C   0  0  0  0  0  0  0  0  0  0  0  0
    1.2197    0.7042    0.0000 C   0  0  0  0  0  0  0  0  0  0  0  0
    1.2197    1.5292    0.0000 C   0  0  0  0  0  0  0  0  0  0  0  0
    1.2197    2.3542    0.0000 C   0  0  0  0  0  0  0  0  0  0  0  0
    0.5052    2.7667    0.0000 C   0  0  0  0  0  0  0  0  0  0  0  0
    0.5052    3.5917    0.0000 C   0  0  0  0  0  0  0  0  0  0  0  0
    1.2197    4.0042    0.0000 C   0  0  0  0  0  0  0  0  0  0  0  0
    1.9341    3.5917    0.0000 C   0  0  0  0  0  0  0  0  0  0  0  0
    1.9341    2.7667    0.0000 C   0  0  0  0  0  0  0  0  0  0  0  0
    0.3947    1.5292    0.0000 C   0  0  0  0  0  0  0  0  0  0  0  0
   -0.0178    0.8147    0.0000 C   0  0  0  0  0  0  0  0  0  0  0  0
   -0.8428    0.8147    0.0000 C   0  0  0  0  0  0  0  0  0  0  0  0
   -1.2553    1.5292    0.0000 C   0  0  0  0  0  0  0  0  0  0  0  0
   -0.8428    2.2437    0.0000 C   0  0  0  0  0  0  0  0  0  0  0  0
   -0.0178    2.2437    0.0000 C   0  0  0  0  0  0  0  0  0  0  0  0
    2.0447    1.5292    0.0000 C   0  0  0  0  0  0  0  0  0  0  0  0
    2.4572    2.2437    0.0000 O   0  0  0  0  0  0  0  0  0  0  0  0
    2.4572    0.8147    0.0000 N   0  0  0  0  0  0  0  0  0  0  0  0
    1.9341   -1.3583    0.0000 N   0  0  0  0  0  0  0  0  0  0  0  0
    2.5175   -1.9417    0.0000 C   0  0  0  0  0  0  0  0  0  0  0  0
    1.9341   -2.5250    0.0000 C   0  0  0  0  0  0  0  0  0  0  0  0
    1.3508   -1.9417    0.0000 C   0  0  0  0  0  0  0  0  0  0  0  0
    1.9341   -3.3500    0.0000 O   0  0  0  0  0  0  0  0  0  0  0  0
    1.2197   -3.7625    0.0000 C   0  0  0  0  0  0  0  0  0  0  0  0
    1.2197   -4.5875    0.0000 C   0  0  0  0  0  0  0  0  0  0  0  0
    0.5052   -5.0000    0.0000 C   0  0  0  0  0  0  0  0  0  0  0  0
   -0.2093   -4.5875    0.0000 C   0  0  0  0  0  0  0  0  0  0  0  0
   -0.2093   -3.7625    0.0000 C   0  0  0  0  0  0  0  0  0  0  0  0
    0.5052   -3.3500    0.0000 C   0  0  0  0  0  0  0  0  0  0  0  0
   -0.9237   -3.3500    0.0000 O   0  0  0  0  0  0  0  0  0  0  0  0
    0.5741    0.3933    0.0000 H   0  0  0  0  0  0  0  0  0  0  0  0
    0.5741   -1.4599    0.0000 H   0  0  0  0  0  0  0  0  0  0  0  0
    0.0391   -0.5333    0.0000 H   0  0  0  0  0  0  0  0  0  0  0  0
    3.2941   -1.4599    0.0000 H   0  0  0  0  0  0  0  0  0  0  0  0
    3.2941    0.3933    0.0000 H   0  0  0  0  0  0  0  0  0  0  0  0
    3.8291   -0.5333    0.0000 H   0  0  0  0  0  0  0  0  0  0  0  0
    2.8608    0.8267    0.0000 H   0  0  0  0  0  0  0  0  0  0  0  0
    1.9341    1.3617    0.0000 H   0  0  0  0  0  0  0  0  0  0  0  0
    0.2930    0.1692    0.0000 H   0  0  0  0  0  0  0  0  0  0  0  0
    0.2931    1.2392    0.0000 H   0  0  0  0  0  0  0  0  0  0  0  0
   -0.3885    2.2507    0.0000 H   0  0  0  0  0  0  0  0  0  0  0  0
   -0.3885    4.1077    0.0000 H   0  0  0  0  0  0  0  0  0  0  0  0
    1.2197    5.0362    0.0000 H   0  0  0  0  0  0  0  0  0  0  0  0
    2.8278    4.1077    0.0000 H   0  0  0  0  0  0  0  0  0  0  0  0
    2.8278    2.2507    0.0000 H   0  0  0  0  0  0  0  0  0  0  0  0
    0.4982   -0.0790    0.0000 H   0  0  0  0  0  0  0  0  0  0  0  0
   -1.3588   -0.0790    0.0000 H   0  0  0  0  0  0  0  0  0  0  0  0
   -2.2873    1.5292    0.0000 H   0  0  0  0  0  0  0  0  0  0  0  0
   -1.3588    3.1374    0.0000 H   0  0  0  0  0  0  0  0  0  0  0  0
    0.4982    3.1374    0.0000 H   0  0  0  0  0  0  0  0  0  0  0  0
    1.9649   -0.0379    0.0000 H   0  0  0  0  0  0  0  0  0  0  0  0
    3.4417    0.8147    0.0000 H   0  0  0  0  0  0  0  0  0  0  0  0
    3.5875   -1.9417    0.0000 H   0  0  0  0  0  0  0  0  0  0  0  0
    2.9269   -2.9303    0.0000 H   0  0  0  0  0  0  0  0  0  0  0  0
    0.9455   -2.9345    0.0000 H   0  0  0  0  0  0  0  0  0  0  0  0
    0.2808   -1.9417    0.0000 H   0  0  0  0  0  0  0  0  0  0  0  0
    0.9413   -0.9532    0.0000 H   0  0  0  0  0  0  0  0  0  0  0  0
    2.1134   -5.1035    0.0000 H   0  0  0  0  0  0  0  0  0  0  0  0
    0.5052   -6.0320    0.0000 H   0  0  0  0  0  0  0  0  0  0  0  0
   -1.1030   -5.1035    0.0000 H   0  0  0  0  0  0  0  0  0  0  0  0
    0.5052   -2.3180    0.0000 H   0  0  0  0  0  0  0  0  0  0  0  0
   -0.9237   -2.4130    0.0000 H   0  0  0  0  0  0  0  0  0  0  0  0
  1  2  1  0  0  0  0
  1 34  1  0  0  0  0
  1 35  1  0  0  0  0
  1 36  1  0  0  0  0
  2  3  1  0  0  0  0
  2  4  1  0  0  0  0
  2 22  1  0  0  0  0
  3 37  1  0  0  0  0
  3 38  1  0  0  0  0
  3 39  1  0  0  0  0
  4  5  1  0  0  0  0
  4 40  1  0  0  0  0
  4 41  1  0  0  0  0
  5  6  1  0  0  0  0
  5 42  1  0  0  0  0
  5 43  1  0  0  0  0
  6  7  1  0  0  0  0
  6 13  1  0  0  0  0
  6 19  1  0  0  0  0
  7  8  2  0  0  0  0
  7 12  1  0  0  0  0
  8  9  1  0  0  0  0
  8 44  1  0  0  0  0
  9 10  2  0  0  0  0
  9 45  1  0  0  0  0
 10 11  1  0  0  0  0
 10 46  1  0  0  0  0
 11 12  2  0  0  0  0
 11 47  1  0  0  0  0
 12 48  1  0  0  0  0
 13 14  2  0  0  0  0
 13 18  1  0  0  0  0
 14 15  1  0  0  0  0
 14 49  1  0  0  0  0
 15 16  2  0  0  0  0
 15 50  1  0  0  0  0
 16 17  1  0  0  0  0
 16 51  1  0  0  0  0
 17 18  2  0  0  0  0
 17 52  1  0  0  0  0
 18 53  1  0  0  0  0
 19 20  2  0  0  0  0
 19 21  1  0  0  0  0
 21 54  1  0  0  0  0
 21 55  1  0  0  0  0
 22 23  1  0  0  0  0
 22 25  1  0  0  0  0
 23 24  1  0  0  0  0
 23 56  1  0  0  0  0
 23 57  1  0  0  0  0
 24 25  1  0  0  0  0
 24 26  1  0  0  0  0
 24 58  1  0  0  0  0
 25 59  1  0  0  0  0
 25 60  1  0  0  0  0
 26 27  1  0  0  0  0
 27 28  2  0  0  0  0
 27 32  1  0  0  0  0
 28 29  1  0  0  0  0
 28 61  1  0  0  0  0
 29 30  2  0  0  0  0
 29 62  1  0  0  0  0
 30 31  1  0  0  0  0
 30 63  1  0  0  0  0
 31 32  2  0  0  0  0
 31 33  1  0  0  0  0
 32 64  1  0  0  0  0
 33 65  1  0  0  0  0
M  END
>  <DRUGBANK_ID>
DB12408

>  <COMMON_NAME>
PF-03635659

>  <CAS_NUMBER>
931409-24-4

>  <UNII>
O0RG3QM34H

$$$$
