
 OpenBabel10282417072D

 25 24  0  0  0  0  0  0  0  0999 V2000
    0.3586   -0.8206    0.0000 C   0  0  0  0  0  0  0  0  0  0  0  0
   -0.3586   -0.4125    0.0000 C   0  0  1  0  0  0  0  0  0  0  0  0
   -0.3637    0.4125    0.0000 C   0  0  0  0  0  0  0  0  0  0  0  0
    0.3482    0.8295    0.0000 C   0  0  0  0  0  0  0  0  0  0  0  0
    1.0652    0.4215    0.0000 C   0  0  0  0  0  0  0  0  0  0  0  0
    0.3430    1.6546    0.0000 C   0  0  0  0  0  0  0  0  0  0  0  0
   -1.0704   -0.8295    0.0000 N   0  0  0  0  0  0  0  0  0  0  0  0
    0.3637   -1.6456    0.0000 O   0  0  0  0  0  0  0  0  0  0  0  0
    1.0704   -0.4035    0.0000 O   0  0  0  0  0  0  0  0  0  0  0  0
   -1.0652   -1.6546    0.0000 C   0  0  0  0  0  0  0  0  0  0  0  0
   -0.3519   -1.4825    0.0000 H   0  0  0  0  0  0  0  0  0  0  0  0
   -1.2937    0.9417    0.0000 H   0  0  0  0  0  0  0  0  0  0  0  0
   -0.3704    1.4825    0.0000 H   0  0  0  0  0  0  0  0  0  0  0  0
    1.2715    1.3703    0.0000 H   0  0  0  0  0  0  0  0  0  0  0  0
    1.0719   -0.6485    0.0000 H   0  0  0  0  0  0  0  0  0  0  0  0
    1.9885    0.9623    0.0000 H   0  0  0  0  0  0  0  0  0  0  0  0
    1.9952   -0.1077    0.0000 H   0  0  0  0  0  0  0  0  0  0  0  0
    1.2663    2.1954    0.0000 H   0  0  0  0  0  0  0  0  0  0  0  0
   -0.5870    2.1837    0.0000 H   0  0  0  0  0  0  0  0  0  0  0  0
    0.3363    2.7246    0.0000 H   0  0  0  0  0  0  0  0  0  0  0  0
   -1.9570   -0.3251    0.0000 H   0  0  0  0  0  0  0  0  0  0  0  0
    1.8849   -0.8668    0.0000 H   0  0  0  0  0  0  0  0  0  0  0  0
   -1.9885   -2.1954    0.0000 H   0  0  0  0  0  0  0  0  0  0  0  0
   -0.1352   -2.1837    0.0000 H   0  0  0  0  0  0  0  0  0  0  0  0
   -1.0585   -2.7246    0.0000 H   0  0  0  0  0  0  0  0  0  0  0  0
  2  1  1  0  0  0  0
  2  7  1  0  0  0  0
  2 11  1  1  0  0  0
  3  2  1  0  0  0  0
  3 12  1  0  0  0  0
  3 13  1  0  0  0  0
  4  3  1  0  0  0  0
  4 14  1  0  0  0  0
  5  4  1  0  0  0  0
  5 15  1  0  0  0  0
  5 16  1  0  0  0  0
  5 17  1  0  0  0  0
  6  4  1  0  0  0  0
  6 18  1  0  0  0  0
  6 19  1  0  0  0  0
  6 20  1  0  0  0  0
  7 10  1  0  0  0  0
  7 21  1  0  0  0  0
  8  1  2  0  0  0  0
  9  1  1  0  0  0  0
  9 22  1  0  0  0  0
 10 23  1  0  0  0  0
 10 24  1  0  0  0  0
 10 25  1  0  0  0  0
M  END
>  <DRUGBANK_ID>
DB04487

>  <SECONDARY_ACCESSION_NUMBERS>
EXPT02181

>  <COMMON_NAME>
N-Methylleucine

>  <CAS_NUMBER>
31321-74-1

>  <UNII>
RS2PMV5S1P

$$$$
