
 OpenBabel10282417072D

 56 58  0  0  0  0  0  0  0  0999 V2000
   -1.7862    1.8562    0.0000 O   0  0  0  0  0  0  0  0  0  0  0  0
   -0.3571   -0.6187    0.0000 N   0  0  0  0  0  0  0  0  0  0  0  0
   -0.3571    1.8562    0.0000 N   0  0  0  0  0  0  0  0  0  0  0  0
   -0.3571    1.0312    0.0000 C   0  0  0  0  0  0  0  0  0  0  0  0
    0.3572    0.6187    0.0000 C   0  0  0  0  0  0  0  0  0  0  0  0
   -1.0717    0.6187    0.0000 C   0  0  0  0  0  0  0  0  0  0  0  0
    0.3572   -0.2062    0.0000 C   0  0  0  0  0  0  0  0  0  0  0  0
   -1.0717   -0.2062    0.0000 C   0  0  0  0  0  0  0  0  0  0  0  0
   -0.3571   -1.4437    0.0000 C   0  0  0  0  0  0  0  0  0  0  0  0
   -1.0717   -1.8562    0.0000 C   0  0  0  0  0  0  0  0  0  0  0  0
    0.3572    2.2687    0.0000 C   0  0  0  0  0  0  0  0  0  0  0  0
   -1.0717    2.2687    0.0000 C   0  0  0  0  0  0  0  0  0  0  0  0
   -1.0717    3.0938    0.0000 C   0  0  0  0  0  0  0  0  0  0  0  0
   -1.0717   -2.6813    0.0000 C   0  0  0  0  0  0  0  0  0  0  0  0
    0.3572    3.0938    0.0000 C   0  0  0  0  0  0  0  0  0  0  0  0
    1.0717    1.8562    0.0000 C   0  0  0  0  0  0  0  0  0  0  0  0
   -1.7862    3.5063    0.0000 C   0  0  0  0  0  0  0  0  0  0  0  0
   -0.3571   -3.0938    0.0000 C   0  0  0  0  0  0  0  0  0  0  0  0
   -1.7862   -3.0938    0.0000 C   0  0  0  0  0  0  0  0  0  0  0  0
    1.0717    3.5063    0.0000 C   0  0  0  0  0  0  0  0  0  0  0  0
    1.7862    2.2687    0.0000 C   0  0  0  0  0  0  0  0  0  0  0  0
   -1.7862    4.3313    0.0000 C   0  0  0  0  0  0  0  0  0  0  0  0
    1.7862    3.0938    0.0000 C   0  0  0  0  0  0  0  0  0  0  0  0
   -0.3571   -3.9188    0.0000 C   0  0  0  0  0  0  0  0  0  0  0  0
   -1.7862   -3.9188    0.0000 C   0  0  0  0  0  0  0  0  0  0  0  0
   -1.0717   -4.3313    0.0000 C   0  0  0  0  0  0  0  0  0  0  0  0
   -0.3572   -0.0388    0.0000 H   0  0  0  0  0  0  0  0  0  0  0  0
    1.2839    1.1537    0.0000 H   0  0  0  0  0  0  0  0  0  0  0  0
    1.2838    0.0837    0.0000 H   0  0  0  0  0  0  0  0  0  0  0  0
   -1.9983    1.1537    0.0000 H   0  0  0  0  0  0  0  0  0  0  0  0
   -1.9984    0.0837    0.0000 H   0  0  0  0  0  0  0  0  0  0  0  0
    1.2839   -0.7412    0.0000 H   0  0  0  0  0  0  0  0  0  0  0  0
    1.2838    0.3288    0.0000 H   0  0  0  0  0  0  0  0  0  0  0  0
   -1.9983   -0.7412    0.0000 H   0  0  0  0  0  0  0  0  0  0  0  0
   -1.9984    0.3288    0.0000 H   0  0  0  0  0  0  0  0  0  0  0  0
    0.5695   -1.9787    0.0000 H   0  0  0  0  0  0  0  0  0  0  0  0
   -0.3572   -2.5137    0.0000 H   0  0  0  0  0  0  0  0  0  0  0  0
   -1.9983   -1.3212    0.0000 H   0  0  0  0  0  0  0  0  0  0  0  0
   -1.9984   -2.3912    0.0000 H   0  0  0  0  0  0  0  0  0  0  0  0
   -0.1451    3.6288    0.0000 H   0  0  0  0  0  0  0  0  0  0  0  0
   -1.0717    4.1638    0.0000 H   0  0  0  0  0  0  0  0  0  0  0  0
   -0.5365    3.6098    0.0000 H   0  0  0  0  0  0  0  0  0  0  0  0
    1.0717    0.8242    0.0000 H   0  0  0  0  0  0  0  0  0  0  0  0
   -2.7128    2.9713    0.0000 H   0  0  0  0  0  0  0  0  0  0  0  0
   -2.7128    4.0413    0.0000 H   0  0  0  0  0  0  0  0  0  0  0  0
    0.5366   -2.5778    0.0000 H   0  0  0  0  0  0  0  0  0  0  0  0
   -2.6799   -2.5778    0.0000 H   0  0  0  0  0  0  0  0  0  0  0  0
    1.0717    4.5383    0.0000 H   0  0  0  0  0  0  0  0  0  0  0  0
    2.6799    1.7527    0.0000 H   0  0  0  0  0  0  0  0  0  0  0  0
   -0.8596    4.8663    0.0000 H   0  0  0  0  0  0  0  0  0  0  0  0
   -2.7128    4.8663    0.0000 H   0  0  0  0  0  0  0  0  0  0  0  0
   -1.7862    5.4013    0.0000 H   0  0  0  0  0  0  0  0  0  0  0  0
    2.6799    3.6098    0.0000 H   0  0  0  0  0  0  0  0  0  0  0  0
    0.5366   -4.4348    0.0000 H   0  0  0  0  0  0  0  0  0  0  0  0
   -2.6799   -4.4348    0.0000 H   0  0  0  0  0  0  0  0  0  0  0  0
   -1.0717   -5.3633    0.0000 H   0  0  0  0  0  0  0  0  0  0  0  0
  1 12  2  0  0  0  0
  2  7  1  0  0  0  0
  2  8  1  0  0  0  0
  2  9  1  0  0  0  0
  3  4  1  0  0  0  0
  3 11  1  0  0  0  0
  3 12  1  0  0  0  0
  4  5  1  0  0  0  0
  4  6  1  0  0  0  0
  4 27  1  0  0  0  0
  5  7  1  0  0  0  0
  5 28  1  0  0  0  0
  5 29  1  0  0  0  0
  6  8  1  0  0  0  0
  6 30  1  0  0  0  0
  6 31  1  0  0  0  0
  7 32  1  0  0  0  0
  7 33  1  0  0  0  0
  8 34  1  0  0  0  0
  8 35  1  0  0  0  0
  9 10  1  0  0  0  0
  9 36  1  0  0  0  0
  9 37  1  0  0  0  0
 10 14  1  0  0  0  0
 10 38  1  0  0  0  0
 10 39  1  0  0  0  0
 11 15  2  0  0  0  0
 11 16  1  0  0  0  0
 12 13  1  0  0  0  0
 13 17  1  0  0  0  0
 13 40  1  0  0  0  0
 13 41  1  0  0  0  0
 14 18  2  0  0  0  0
 14 19  1  0  0  0  0
 15 20  1  0  0  0  0
 15 42  1  0  0  0  0
 16 21  2  0  0  0  0
 16 43  1  0  0  0  0
 17 22  1  0  0  0  0
 17 44  1  0  0  0  0
 17 45  1  0  0  0  0
 18 24  1  0  0  0  0
 18 46  1  0  0  0  0
 19 25  2  0  0  0  0
 19 47  1  0  0  0  0
 20 23  2  0  0  0  0
 20 48  1  0  0  0  0
 21 23  1  0  0  0  0
 21 49  1  0  0  0  0
 22 50  1  0  0  0  0
 22 51  1  0  0  0  0
 22 52  1  0  0  0  0
 23 53  1  0  0  0  0
 24 26  2  0  0  0  0
 24 54  1  0  0  0  0
 25 26  1  0  0  0  0
 25 55  1  0  0  0  0
 26 56  1  0  0  0  0
M  END
>  <DRUGBANK_ID>
DB09173

>  <COMMON_NAME>
Butyrfentanyl

>  <CAS_NUMBER>
1169-70-6

>  <UNII>
07V1H7R6ZN

>  <SYNONYMS>
Butyr-fentanyl; Butyrylfentanyl

$$$$
