HEP
 OpenBabel10282417072D

 45 45  0  0  0  0  0  0  0  0999 V2000
    0.3676   -0.4240    0.0000 C   0  0  2  0  0  0  0  0  0  0  0  0
   -0.1725    0.1997    0.0000 C   0  0  0  0  0  0  0  0  0  0  0  0
    0.0976    0.9792    0.0000 C   0  0  0  0  0  0  0  0  0  0  0  0
   -0.4425    1.6028    0.0000 C   0  0  0  0  0  0  0  0  0  0  0  0
   -0.1725    2.3824    0.0000 C   0  0  0  0  0  0  0  0  0  0  0  0
   -1.2526   -2.9186    0.0000 C   0  0  0  0  0  0  0  0  0  0  0  0
   -2.0628   -3.0745    0.0000 C   0  0  0  0  0  0  0  0  0  0  0  0
   -2.6029   -2.4508    0.0000 C   0  0  0  0  0  0  0  0  0  0  0  0
   -2.3328   -1.6713    0.0000 C   0  0  0  0  0  0  0  0  0  0  0  0
   -1.5227   -1.5154    0.0000 C   0  0  0  0  0  0  0  0  0  0  0  0
   -0.9826   -2.1390    0.0000 C   0  0  0  0  0  0  0  0  0  0  0  0
    1.4478    0.5115    0.0000 C   0  0  0  0  0  0  0  0  0  0  0  0
    2.5280    1.4469    0.0000 C   0  0  0  0  0  0  0  0  0  0  0  0
    2.2579    0.6674    0.0000 C   0  0  0  0  0  0  0  0  0  0  0  0
    3.3381    1.6028    0.0000 C   0  0  0  0  0  0  0  0  0  0  0  0
    0.8771   -1.4736    0.0000 O   0  0  0  0  0  0  0  0  0  0  0  0
   -0.6820   -0.9335    0.0000 O   0  0  0  0  0  0  0  0  0  0  0  0
   -0.1725   -1.9831    0.0000 O   0  0  0  0  0  0  0  0  0  0  0  0
    0.9077    1.1351    0.0000 O   0  0  0  0  0  0  0  0  0  0  0  0
    3.6082    2.3824    0.0000 O   0  0  0  0  0  0  0  0  0  0  0  0
    3.8782    0.9792    0.0000 O   0  0  0  0  0  0  0  0  0  0  0  0
    1.1778   -0.2681    0.0000 N   0  0  0  0  0  0  0  0  0  0  0  0
    0.0976   -1.2035    0.0000 P   0  0  1  0  0  0  0  0  0  0  0  0
    0.5588    0.1278    0.0000 H   0  0  0  0  0  0  0  0  0  0  0  0
   -1.2232   -0.0024    0.0000 H   0  0  0  0  0  0  0  0  0  0  0  0
   -0.8729    1.0086    0.0000 H   0  0  0  0  0  0  0  0  0  0  0  0
    1.1483    1.1814    0.0000 H   0  0  0  0  0  0  0  0  0  0  0  0
    0.4478    1.9903    0.0000 H   0  0  0  0  0  0  0  0  0  0  0  0
   -1.4932    1.4005    0.0000 H   0  0  0  0  0  0  0  0  0  0  0  0
   -1.1430    2.4116    0.0000 H   0  0  0  0  0  0  0  0  0  0  0  0
    0.8782    2.5847    0.0000 H   0  0  0  0  0  0  0  0  0  0  0  0
   -0.8730    3.1912    0.0000 H   0  0  0  0  0  0  0  0  0  0  0  0
    0.1777    3.3935    0.0000 H   0  0  0  0  0  0  0  0  0  0  0  0
   -0.5770   -3.6987    0.0000 H   0  0  0  0  0  0  0  0  0  0  0  0
   -2.4006   -4.0496    0.0000 H   0  0  0  0  0  0  0  0  0  0  0  0
   -3.6163   -2.6458    0.0000 H   0  0  0  0  0  0  0  0  0  0  0  0
   -3.0084   -0.8912    0.0000 H   0  0  0  0  0  0  0  0  0  0  0  0
   -1.1849   -0.5402    0.0000 H   0  0  0  0  0  0  0  0  0  0  0  0
    1.8276    2.2558    0.0000 H   0  0  0  0  0  0  0  0  0  0  0  0
    2.8783    2.4579    0.0000 H   0  0  0  0  0  0  0  0  0  0  0  0
    2.9583   -0.1415    0.0000 H   0  0  0  0  0  0  0  0  0  0  0  0
    3.3086    0.8695    0.0000 H   0  0  0  0  0  0  0  0  0  0  0  0
   -0.8654    0.0190    0.0000 H   0  0  0  0  0  0  0  0  0  0  0  0
    3.5715    0.0938    0.0000 H   0  0  0  0  0  0  0  0  0  0  0  0
    1.8223   -1.0123    0.0000 H   0  0  0  0  0  0  0  0  0  0  0  0
  1  2  1  0  0  0  0
  1 22  1  0  0  0  0
  1 23  1  0  0  0  0
  1 24  1  1  0  0  0
  2  3  1  0  0  0  0
  2 25  1  0  0  0  0
  2 26  1  0  0  0  0
  3  4  1  0  0  0  0
  3 27  1  0  0  0  0
  3 28  1  0  0  0  0
  4  5  1  0  0  0  0
  4 29  1  0  0  0  0
  4 30  1  0  0  0  0
  5 31  1  0  0  0  0
  5 32  1  0  0  0  0
  5 33  1  0  0  0  0
  6  7  2  0  0  0  0
  6 11  1  0  0  0  0
  6 34  1  0  0  0  0
  7  8  1  0  0  0  0
  7 35  1  0  0  0  0
  8  9  2  0  0  0  0
  8 36  1  0  0  0  0
  9 10  1  0  0  0  0
  9 37  1  0  0  0  0
 10 11  2  0  0  0  0
 10 38  1  0  0  0  0
 11 18  1  0  0  0  0
 12 14  1  0  0  0  0
 12 19  2  0  0  0  0
 12 22  1  0  0  0  0
 13 14  1  0  0  0  0
 13 15  1  0  0  0  0
 13 39  1  0  0  0  0
 13 40  1  0  0  0  0
 14 41  1  0  0  0  0
 14 42  1  0  0  0  0
 15 20  2  0  0  0  0
 15 21  1  0  0  0  0
 17 43  1  0  0  0  0
 21 44  1  0  0  0  0
 22 45  1  0  0  0  0
 23 16  2  1  0  0  0
 23 17  1  0  0  0  0
 23 18  1  0  0  0  0
M  END
>  <DRUGBANK_ID>
DB07893

>  <COMMON_NAME>
PHENYL[1-(N-SUCCINYLAMINO)PENTYL]PHOSPHONATE

$$$$
