
 OpenBabel10282417072D

 48 47  0  0  1  0  0  0  0  0999 V2000
    2.0625   -0.7145    0.0000 C   0  0  0  0  0  0  0  0  0  0  0  0
    0.6336   -0.7145    0.0000 C   0  0  0  0  0  0  0  0  0  0  0  0
    5.6349   -0.3020    0.0000 C   0  0  0  0  0  0  0  0  0  0  0  0
    1.3480    0.5230    0.0000 C   0  0  0  0  0  0  0  0  0  0  0  0
    2.7770   -0.3020    0.0000 C   0  0  2  0  0  0  0  0  0  0  0  0
    4.9204   -0.7145    0.0000 C   0  0  2  0  0  0  0  0  0  0  0  0
    0.6336   -1.5395    0.0000 C   0  0  0  0  0  0  0  0  0  0  0  0
    3.4914   -0.7145    0.0000 C   0  0  2  0  0  0  0  0  0  0  0  0
    4.2059   -0.3020    0.0000 C   0  0  2  0  0  0  0  0  0  0  0  0
    1.3480   -0.3020    0.0000 N   0  0  0  0  0  0  0  0  0  0  0  0
    2.7770    0.5230    0.0000 O   0  0  0  0  0  0  0  0  0  0  0  0
    4.9204   -1.5395    0.0000 O   0  0  0  0  0  0  0  0  0  0  0  0
    1.3480   -1.9520    0.0000 O   0  0  0  0  0  0  0  0  0  0  0  0
   -0.0809   -1.9520    0.0000 O   0  0  0  0  0  0  0  0  0  0  0  0
    3.4914   -1.5395    0.0000 O   0  0  0  0  0  0  0  0  0  0  0  0
    4.2059    0.5230    0.0000 O   0  0  0  0  0  0  0  0  0  0  0  0
    0.2211    0.2211    0.0000 O   0  0  0  0  0  0  0  0  0  0  0  0
   -0.0809    1.3480    0.0000 O   0  0  0  0  0  0  0  0  0  0  0  0
    1.0461    1.6500    0.0000 O   0  0  0  0  0  0  0  0  0  0  0  0
    7.7783    0.1105    0.0000 O   0  0  0  0  0  0  0  0  0  0  0  0
    7.4763   -1.0164    0.0000 O   0  0  0  0  0  0  0  0  0  0  0  0
    6.6513    0.4125    0.0000 O   0  0  0  0  0  0  0  0  0  0  0  0
    6.3493   -0.7145    0.0000 O   0  0  0  0  0  0  0  0  0  0  0  0
    0.6336    0.9355    0.0000 P   0  0  0  0  0  0  0  0  0  0  0  0
    7.0638   -0.3020    0.0000 P   0  0  0  0  0  0  0  0  0  0  0  0
    2.7770   -1.1270    0.0000 H   0  0  0  0  0  0  0  0  0  0  0  0
    4.9204    0.1105    0.0000 H   0  0  0  0  0  0  0  0  0  0  0  0
    3.4914    0.1105    0.0000 H   0  0  0  0  0  0  0  0  0  0  0  0
    4.2059   -1.1270    0.0000 H   0  0  0  0  0  0  0  0  0  0  0  0
    2.0625   -1.7845    0.0000 H   0  0  0  0  0  0  0  0  0  0  0  0
    1.1359   -1.2495    0.0000 H   0  0  0  0  0  0  0  0  0  0  0  0
   -0.2931   -0.1795    0.0000 H   0  0  0  0  0  0  0  0  0  0  0  0
    0.6336    0.3555    0.0000 H   0  0  0  0  0  0  0  0  0  0  0  0
    5.6349    0.7680    0.0000 H   0  0  0  0  0  0  0  0  0  0  0  0
    6.5616    0.2330    0.0000 H   0  0  0  0  0  0  0  0  0  0  0  0
    2.2747    1.0580    0.0000 H   0  0  0  0  0  0  0  0  0  0  0  0
    1.3480    1.5930    0.0000 H   0  0  0  0  0  0  0  0  0  0  0  0
    0.6336   -2.6095    0.0000 H   0  0  0  0  0  0  0  0  0  0  0  0
    3.6170    1.0080    0.0000 H   0  0  0  0  0  0  0  0  0  0  0  0
    4.0804   -2.0245    0.0000 H   0  0  0  0  0  0  0  0  0  0  0  0
    1.3480   -2.8890    0.0000 H   0  0  0  0  0  0  0  0  0  0  0  0
   -0.8924   -1.4835    0.0000 H   0  0  0  0  0  0  0  0  0  0  0  0
    2.6514   -2.0245    0.0000 H   0  0  0  0  0  0  0  0  0  0  0  0
    5.0459    1.0080    0.0000 H   0  0  0  0  0  0  0  0  0  0  0  0
   -0.7489    0.2211    0.0000 H   0  0  0  0  0  0  0  0  0  0  0  0
   -0.0809    2.3180    0.0000 H   0  0  0  0  0  0  0  0  0  0  0  0
    8.6183   -0.3745    0.0000 H   0  0  0  0  0  0  0  0  0  0  0  0
    6.9913   -1.8565    0.0000 H   0  0  0  0  0  0  0  0  0  0  0  0
  1 30  1  0  0  0  0
  1 31  1  0  0  0  0
  2 32  1  0  0  0  0
  2 33  1  0  0  0  0
  3 34  1  0  0  0  0
  3 35  1  0  0  0  0
  4 36  1  0  0  0  0
  4 37  1  0  0  0  0
  5  1  1  0  0  0  0
  5 11  1  0  0  0  0
  5 26  1  6  0  0  0
  6  3  1  0  0  0  0
  6 12  1  0  0  0  0
  6 27  1  6  0  0  0
  7  2  1  0  0  0  0
  7 38  1  0  0  0  0
  8  5  1  0  0  0  0
  8 15  1  0  0  0  0
  8 28  1  1  0  0  0
  9  6  1  0  0  0  0
  9  8  1  0  0  0  0
  9 16  1  0  0  0  0
  9 29  1  1  0  0  0
 10  1  1  0  0  0  0
 10  2  1  0  0  0  0
 10  4  1  0  0  0  0
 11 39  1  0  0  0  0
 12 40  1  0  0  0  0
 13  7  1  0  0  0  0
 13 41  1  0  0  0  0
 14  7  1  0  0  0  0
 14 42  1  0  0  0  0
 15 43  1  0  0  0  0
 16 44  1  0  0  0  0
 17 45  1  0  0  0  0
 18 46  1  0  0  0  0
 20 47  1  0  0  0  0
 21 48  1  0  0  0  0
 23  3  1  0  0  0  0
 24  4  1  0  0  0  0
 24 17  1  0  0  0  0
 24 18  1  0  0  0  0
 24 19  2  0  0  0  0
 25 20  1  0  0  0  0
 25 21  1  0  0  0  0
 25 22  2  0  0  0  0
 25 23  1  0  0  0  0
M  END
>  <DRUGBANK_ID>
DB02433

>  <SECONDARY_ACCESSION_NUMBERS>
EXPT02492

>  <COMMON_NAME>
{[(2,2-Dihydroxy-Ethyl)-(2,3,4,5-Tetrahydroxy-6-Phosphonooxy-Hexyl)-Amino]-Methyl}-Phosphonic Acid

$$$$
