
 OpenBabel10282417072D

 55 58  0  0  0  0  0  0  0  0999 V2000
    1.8804    2.0609    0.0000 C   0  0  0  0  0  0  0  0  0  0  0  0
    1.8804    1.2359    0.0000 C   0  0  0  0  0  0  0  0  0  0  0  0
    1.1659    2.4734    0.0000 C   0  0  0  0  0  0  0  0  0  0  0  0
    1.1659    0.8234    0.0000 C   0  0  0  0  0  0  0  0  0  0  0  0
    0.4515    2.0609    0.0000 C   0  0  0  0  0  0  0  0  0  0  0  0
    0.4515    1.2359    0.0000 C   0  0  0  0  0  0  0  0  0  0  0  0
    2.5950    0.8234    0.0000 C   0  0  0  0  0  0  0  0  0  0  0  0
    3.3094    1.2359    0.0000 C   0  0  0  0  0  0  0  0  0  0  0  0
    2.5950   -0.0015    0.0000 C   0  0  0  0  0  0  0  0  0  0  0  0
    4.0238    0.8233    0.0000 C   0  0  0  0  0  0  0  0  0  0  0  0
    3.3094   -0.4140    0.0000 C   0  0  0  0  0  0  0  0  0  0  0  0
    4.0238   -0.0016    0.0000 C   0  0  0  0  0  0  0  0  0  0  0  0
    4.7383    1.2358    0.0000 C   0  0  0  0  0  0  0  0  0  0  0  0
    4.7384    2.0608    0.0000 O   0  0  0  0  0  0  0  0  0  0  0  0
    5.4529    0.8232    0.0000 O   0  0  0  0  0  0  0  0  0  0  0  0
    1.1658   -0.0015    0.0000 O   0  0  0  0  0  0  0  0  0  0  0  0
   -0.2630    0.8234    0.0000 N   0  0  0  0  0  0  0  0  0  0  0  0
   -0.9774    1.2359    0.0000 N   0  0  0  0  0  0  0  0  0  0  0  0
   -1.7619    0.9810    0.0000 C   0  0  0  0  0  0  0  0  0  0  0  0
   -2.4295    1.4659    0.0000 C   0  0  0  0  0  0  0  0  0  0  0  0
   -2.0170    0.1963    0.0000 C   0  0  0  0  0  0  0  0  0  0  0  0
   -3.0969    0.9809    0.0000 N   0  0  0  0  0  0  0  0  0  0  0  0
   -2.8421    0.1963    0.0000 N   0  0  0  0  0  0  0  0  0  0  0  0
   -1.5319   -0.4710    0.0000 O   0  0  0  0  0  0  0  0  0  0  0  0
   -2.4295    2.2909    0.0000 C   0  0  0  0  0  0  0  0  0  0  0  0
   -3.3270   -0.4710    0.0000 C   0  0  0  0  0  0  0  0  0  0  0  0
   -4.1475   -0.3847    0.0000 C   0  0  0  0  0  0  0  0  0  0  0  0
   -2.9915   -1.2247    0.0000 C   0  0  0  0  0  0  0  0  0  0  0  0
   -4.6325   -1.0523    0.0000 C   0  0  0  0  0  0  0  0  0  0  0  0
   -3.4763   -1.8921    0.0000 C   0  0  0  0  0  0  0  0  0  0  0  0
   -4.2969   -1.8060    0.0000 C   0  0  0  0  0  0  0  0  0  0  0  0
   -4.7819   -2.4734    0.0000 C   0  0  0  0  0  0  0  0  0  0  0  0
   -5.4529   -0.9660    0.0000 C   0  0  0  0  0  0  0  0  0  0  0  0
    2.7741    2.5769    0.0000 H   0  0  0  0  0  0  0  0  0  0  0  0
    1.1659    3.5054    0.0000 H   0  0  0  0  0  0  0  0  0  0  0  0
   -0.4422    2.5769    0.0000 H   0  0  0  0  0  0  0  0  0  0  0  0
    3.3095    2.2679    0.0000 H   0  0  0  0  0  0  0  0  0  0  0  0
    1.7013   -0.5175    0.0000 H   0  0  0  0  0  0  0  0  0  0  0  0
    3.3093   -1.4460    0.0000 H   0  0  0  0  0  0  0  0  0  0  0  0
    4.9175   -0.5176    0.0000 H   0  0  0  0  0  0  0  0  0  0  0  0
    5.4529   -0.1138    0.0000 H   0  0  0  0  0  0  0  0  0  0  0  0
    0.3543   -0.4699    0.0000 H   0  0  0  0  0  0  0  0  0  0  0  0
   -0.2630   -0.1611    0.0000 H   0  0  0  0  0  0  0  0  0  0  0  0
   -1.5029    2.8259    0.0000 H   0  0  0  0  0  0  0  0  0  0  0  0
   -3.3561    2.8259    0.0000 H   0  0  0  0  0  0  0  0  0  0  0  0
   -2.4295    3.3609    0.0000 H   0  0  0  0  0  0  0  0  0  0  0  0
   -4.5672    0.5581    0.0000 H   0  0  0  0  0  0  0  0  0  0  0  0
   -1.9652   -1.3326    0.0000 H   0  0  0  0  0  0  0  0  0  0  0  0
   -3.0564   -2.8348    0.0000 H   0  0  0  0  0  0  0  0  0  0  0  0
   -5.8460   -2.3614    0.0000 H   0  0  0  0  0  0  0  0  0  0  0  0
   -4.3468   -3.4509    0.0000 H   0  0  0  0  0  0  0  0  0  0  0  0
   -5.4109   -3.3390    0.0000 H   0  0  0  0  0  0  0  0  0  0  0  0
   -5.8880    0.0115    0.0000 H   0  0  0  0  0  0  0  0  0  0  0  0
   -6.0819   -1.8316    0.0000 H   0  0  0  0  0  0  0  0  0  0  0  0
   -6.5170   -0.8541    0.0000 H   0  0  0  0  0  0  0  0  0  0  0  0
  1 34  1  0  0  0  0
  2  1  1  0  0  0  0
  2  7  1  0  0  0  0
  3  1  2  0  0  0  0
  3 35  1  0  0  0  0
  4  2  2  0  0  0  0
  4 16  1  0  0  0  0
  5  3  1  0  0  0  0
  5 36  1  0  0  0  0
  6  4  1  0  0  0  0
  6  5  2  0  0  0  0
  6 17  1  0  0  0  0
  8  7  1  0  0  0  0
  8 37  1  0  0  0  0
  9  7  2  0  0  0  0
  9 38  1  0  0  0  0
 10  8  2  0  0  0  0
 10 13  1  0  0  0  0
 11  9  1  0  0  0  0
 11 39  1  0  0  0  0
 12 10  1  0  0  0  0
 12 11  2  0  0  0  0
 12 40  1  0  0  0  0
 14 13  2  0  0  0  0
 15 13  1  0  0  0  0
 15 41  1  0  0  0  0
 16 42  1  0  0  0  0
 17 18  1  0  0  0  0
 17 43  1  0  0  0  0
 18 19  2  0  0  0  0
 20 19  1  0  0  0  0
 20 25  1  0  0  0  0
 21 19  1  0  0  0  0
 21 24  2  0  0  0  0
 22 20  2  0  0  0  0
 23 21  1  0  0  0  0
 23 22  1  0  0  0  0
 23 26  1  0  0  0  0
 25 44  1  0  0  0  0
 25 45  1  0  0  0  0
 25 46  1  0  0  0  0
 27 26  1  0  0  0  0
 27 47  1  0  0  0  0
 28 26  2  0  0  0  0
 28 48  1  0  0  0  0
 29 27  2  0  0  0  0
 29 33  1  0  0  0  0
 30 28  1  0  0  0  0
 30 49  1  0  0  0  0
 31 29  1  0  0  0  0
 31 30  2  0  0  0  0
 31 32  1  0  0  0  0
 32 50  1  0  0  0  0
 32 51  1  0  0  0  0
 32 52  1  0  0  0  0
 33 53  1  0  0  0  0
 33 54  1  0  0  0  0
 33 55  1  0  0  0  0
M  END
>  <DRUGBANK_ID>
DB06210

>  <COMMON_NAME>
Eltrombopag

>  <CAS_NUMBER>
496775-61-2

>  <UNII>
S56D65XJ9G

>  <SYNONYMS>
Eltrombopag; Eltrombopagum

$$$$
