
 OpenBabel10282417072D

 18 18  0  0  0  0  0  0  0  0999 V2000
    0.7226   -0.1353    0.0000 O   0  0  0  0  0  0  0  0  0  0  0  0
   -0.6122   -0.1352    0.0000 O   0  0  0  0  0  0  0  0  0  0  0  0
   -0.3573   -0.9199    0.0000 C   0  0  0  0  0  0  0  0  0  0  0  0
    0.4677   -0.9199    0.0000 C   0  0  0  0  0  0  0  0  0  0  0  0
   -0.8424   -1.5872    0.0000 O   0  0  0  0  0  0  0  0  0  0  0  0
    0.0552    0.3496    0.0000 Pt  0  0  0  0  0  0  0  0  0  0  0  0
    0.7697    1.5872    0.0000 H   0  0  0  0  0  0  0  0  0  0  0  0
    1.4842    0.3496    0.0000 H   0  0  0  0  0  0  0  0  0  0  0  0
    0.7697    0.7621    0.0000 N   0  0  0  0  0  0  0  0  0  0  0  0
    1.1822    1.4766    0.0000 H   0  0  0  0  0  0  0  0  0  0  0  0
   -0.6592    1.5872    0.0000 H   0  0  0  0  0  0  0  0  0  0  0  0
   -1.3737    0.3496    0.0000 H   0  0  0  0  0  0  0  0  0  0  0  0
   -0.6592    0.7621    0.0000 N   0  0  0  0  0  0  0  0  0  0  0  0
   -1.4842    0.7621    0.0000 H   0  0  0  0  0  0  0  0  0  0  0  0
    1.0966   -1.7855    0.0000 H   0  0  0  0  0  0  0  0  0  0  0  0
    1.5245   -0.7525    0.0000 H   0  0  0  0  0  0  0  0  0  0  0  0
    0.3096    1.6724    0.0000 H   0  0  0  0  0  0  0  0  0  0  0  0
   -1.6656    0.5959    0.0000 H   0  0  0  0  0  0  0  0  0  0  0  0
  1  6  1  0  0  0  0
  2  3  1  0  0  0  0
  3  4  1  0  0  0  0
  3  5  2  0  0  0  0
  4  1  1  0  0  0  0
  4 15  1  0  0  0  0
  4 16  1  0  0  0  0
  6  2  1  0  0  0  0
  6 13  1  0  0  0  0
  6  9  1  0  0  0  0
  9  7  1  0  0  0  0
  9  8  1  0  0  0  0
  9 10  1  0  0  0  0
  9 17  1  0  0  0  0
 13 11  1  0  0  0  0
 13 12  1  0  0  0  0
 13 14  1  0  0  0  0
 13 18  1  0  0  0  0
M  END
>  <DRUGBANK_ID>
DB13145

>  <COMMON_NAME>
Nedaplatin

>  <CAS_NUMBER>
95734-82-0

>  <UNII>
8UQ3W6JXAN

>  <SYNONYMS>
(glycolato-O,O')diammineplatinum(II); CDGP; cis-Diammine (glycolato)platinum; cis-diammine(glycolato)platinum; cis-Diammine(glycolato)platinum(II); Nedaplatin

$$$$
