
 OpenBabel10282417072D

 86 86  0  0  1  0  0  0  0  0999 V2000
   -0.7145  -10.3125    0.0000 C   0  0  0  0  0  0  0  0  0  0  0  0
    0.0000  -10.7250    0.0000 C   0  0  0  0  0  0  0  0  0  0  0  0
    0.7145  -10.3125    0.0000 C   0  0  0  0  0  0  0  0  0  0  0  0
    0.7145   -9.4875    0.0000 C   0  0  0  0  0  0  0  0  0  0  0  0
    1.4289   -9.0750    0.0000 C   0  0  1  0  0  0  0  0  0  0  0  0
    1.4289   -8.2500    0.0000 C   0  0  0  0  0  0  0  0  0  0  0  0
    2.1434   -7.8375    0.0000 C   0  0  0  0  0  0  0  0  0  0  0  0
    2.1434   -7.0125    0.0000 C   0  0  0  0  0  0  0  0  0  0  0  0
    1.4289   -6.6000    0.0000 N   0  0  0  0  0  0  0  0  0  0  0  0
    0.7145   -7.0125    0.0000 C   0  0  0  0  0  0  0  0  0  0  0  0
    0.7145   -7.8375    0.0000 O   0  0  0  0  0  0  0  0  0  0  0  0
    0.0000   -6.6000    0.0000 C   0  0  2  0  0  0  0  0  0  0  0  0
    0.0000   -5.7750    0.0000 C   0  0  0  0  0  0  0  0  0  0  0  0
    0.8250   -5.7750    0.0000 C   0  0  0  0  0  0  0  0  0  0  0  0
   -0.8250   -5.7750    0.0000 C   0  0  0  0  0  0  0  0  0  0  0  0
    0.0000   -4.9500    0.0000 C   0  0  0  0  0  0  0  0  0  0  0  0
   -0.7145   -7.0125    0.0000 N   0  0  0  0  0  0  0  0  0  0  0  0
   -1.4289   -6.6000    0.0000 C   0  0  0  0  0  0  0  0  0  0  0  0
   -1.4289   -5.7750    0.0000 O   0  0  0  0  0  0  0  0  0  0  0  0
   -2.1434   -7.0125    0.0000 C   0  0  0  0  0  0  0  0  0  0  0  0
   -2.8579   -6.6000    0.0000 C   0  0  0  0  0  0  0  0  0  0  0  0
   -2.8579   -5.7750    0.0000 C   0  0  0  0  0  0  0  0  0  0  0  0
   -3.5724   -5.3625    0.0000 C   0  0  0  0  0  0  0  0  0  0  0  0
   -4.2868   -5.7750    0.0000 C   0  0  0  0  0  0  0  0  0  0  0  0
   -5.0013   -5.3625    0.0000 C   0  0  0  0  0  0  0  0  0  0  0  0
   -5.7158   -5.7750    0.0000 C   0  0  2  0  0  0  0  0  0  0  0  0
   -5.7158   -6.6000    0.0000 C   0  0  0  0  0  0  0  0  0  0  0  0
   -6.4302   -5.3625    0.0000 C   0  0  2  0  0  0  0  0  0  0  0  0
   -7.1447   -5.7750    0.0000 C   0  0  0  0  0  0  0  0  0  0  0  0
   -7.8592   -5.3625    0.0000 C   0  0  0  0  0  0  0  0  0  0  0  0
   -7.8592   -4.5375    0.0000 C   0  0  0  0  0  0  0  0  0  0  0  0
   -7.1447   -4.1250    0.0000 C   0  0  0  0  0  0  0  0  0  0  0  0
   -7.1447   -3.3000    0.0000 O   0  0  0  0  0  0  0  0  0  0  0  0
   -6.4302   -4.5375    0.0000 O   0  0  0  0  0  0  0  0  0  0  0  0
   -8.5737   -4.1250    0.0000 O   0  0  0  0  0  0  0  0  0  0  0  0
   -9.2881   -4.5375    0.0000 C   0  0  0  0  0  0  0  0  0  0  0  0
   -4.2868   -6.6000    0.0000 C   0  0  0  0  0  0  0  0  0  0  0  0
    2.1434   -9.4875    0.0000 O   0  0  0  0  0  0  0  0  0  0  0  0
    2.8579   -9.0750    0.0000 C   0  0  0  0  0  0  0  0  0  0  0  0
    2.8579   -8.2500    0.0000 O   0  0  0  0  0  0  0  0  0  0  0  0
    3.5724   -9.4875    0.0000 N   0  0  0  0  0  0  0  0  0  0  0  0
   -0.7145   -9.2425    0.0000 H   0  0  0  0  0  0  0  0  0  0  0  0
   -1.6411  -10.8475    0.0000 H   0  0  0  0  0  0  0  0  0  0  0  0
   -1.6412   -9.7775    0.0000 H   0  0  0  0  0  0  0  0  0  0  0  0
    0.0000  -11.7570    0.0000 H   0  0  0  0  0  0  0  0  0  0  0  0
    1.6082  -10.8285    0.0000 H   0  0  0  0  0  0  0  0  0  0  0  0
   -0.2122   -8.9525    0.0000 H   0  0  0  0  0  0  0  0  0  0  0  0
    0.7145   -8.4175    0.0000 H   0  0  0  0  0  0  0  0  0  0  0  0
    1.4289  -10.1450    0.0000 H   0  0  0  0  0  0  0  0  0  0  0  0
    0.5023   -7.7150    0.0000 H   0  0  0  0  0  0  0  0  0  0  0  0
    1.4289   -7.1800    0.0000 H   0  0  0  0  0  0  0  0  0  0  0  0
    3.0371   -8.3535    0.0000 H   0  0  0  0  0  0  0  0  0  0  0  0
    3.0371   -6.4965    0.0000 H   0  0  0  0  0  0  0  0  0  0  0  0
    1.4289   -5.6155    0.0000 H   0  0  0  0  0  0  0  0  0  0  0  0
    0.0000   -7.6700    0.0000 H   0  0  0  0  0  0  0  0  0  0  0  0
    1.3600   -6.7016    0.0000 H   0  0  0  0  0  0  0  0  0  0  0  0
    1.3600   -4.8484    0.0000 H   0  0  0  0  0  0  0  0  0  0  0  0
    1.8950   -5.7750    0.0000 H   0  0  0  0  0  0  0  0  0  0  0  0
   -1.3600   -4.8484    0.0000 H   0  0  0  0  0  0  0  0  0  0  0  0
   -1.3600   -6.7016    0.0000 H   0  0  0  0  0  0  0  0  0  0  0  0
   -1.8950   -5.7750    0.0000 H   0  0  0  0  0  0  0  0  0  0  0  0
    0.9266   -4.4150    0.0000 H   0  0  0  0  0  0  0  0  0  0  0  0
   -0.9266   -4.4150    0.0000 H   0  0  0  0  0  0  0  0  0  0  0  0
    0.0000   -3.8800    0.0000 H   0  0  0  0  0  0  0  0  0  0  0  0
   -0.7145   -7.9970    0.0000 H   0  0  0  0  0  0  0  0  0  0  0  0
   -2.1434   -8.0445    0.0000 H   0  0  0  0  0  0  0  0  0  0  0  0
   -3.7516   -7.1160    0.0000 H   0  0  0  0  0  0  0  0  0  0  0  0
   -1.9642   -5.2590    0.0000 H   0  0  0  0  0  0  0  0  0  0  0  0
   -3.5724   -4.3305    0.0000 H   0  0  0  0  0  0  0  0  0  0  0  0
   -5.0013   -4.3305    0.0000 H   0  0  0  0  0  0  0  0  0  0  0  0
   -5.7158   -4.7050    0.0000 H   0  0  0  0  0  0  0  0  0  0  0  0
   -6.6424   -7.1350    0.0000 H   0  0  0  0  0  0  0  0  0  0  0  0
   -4.7892   -7.1350    0.0000 H   0  0  0  0  0  0  0  0  0  0  0  0
   -5.7158   -7.6700    0.0000 H   0  0  0  0  0  0  0  0  0  0  0  0
   -6.4302   -6.4325    0.0000 H   0  0  0  0  0  0  0  0  0  0  0  0
   -7.1447   -6.8450    0.0000 H   0  0  0  0  0  0  0  0  0  0  0  0
   -8.0713   -6.3100    0.0000 H   0  0  0  0  0  0  0  0  0  0  0  0
   -8.7529   -5.8785    0.0000 H   0  0  0  0  0  0  0  0  0  0  0  0
  -10.2148   -4.0025    0.0000 H   0  0  0  0  0  0  0  0  0  0  0  0
   -9.2881   -5.6075    0.0000 H   0  0  0  0  0  0  0  0  0  0  0  0
  -10.2147   -5.0725    0.0000 H   0  0  0  0  0  0  0  0  0  0  0  0
   -5.2134   -7.1350    0.0000 H   0  0  0  0  0  0  0  0  0  0  0  0
   -3.3602   -7.1350    0.0000 H   0  0  0  0  0  0  0  0  0  0  0  0
   -4.2868   -7.6700    0.0000 H   0  0  0  0  0  0  0  0  0  0  0  0
    3.5724  -10.4720    0.0000 H   0  0  0  0  0  0  0  0  0  0  0  0
    4.4250   -8.9952    0.0000 H   0  0  0  0  0  0  0  0  0  0  0  0
  1  2  1  0  0  0  0
  1 42  1  0  0  0  0
  1 43  1  0  0  0  0
  1 44  1  0  0  0  0
  2  3  2  0  0  0  0
  2 45  1  0  0  0  0
  3  4  1  0  0  0  0
  3 46  1  0  0  0  0
  4  5  1  0  0  0  0
  4 47  1  0  0  0  0
  4 48  1  0  0  0  0
  5  6  1  0  0  0  0
  5 38  1  0  0  0  0
  5 49  1  6  0  0  0
  6  7  1  0  0  0  0
  6 50  1  0  0  0  0
  6 51  1  0  0  0  0
  7  8  2  0  0  0  0
  7 52  1  0  0  0  0
  8  9  1  0  0  0  0
  8 53  1  0  0  0  0
  9 10  1  0  0  0  0
  9 54  1  0  0  0  0
 10 11  2  0  0  0  0
 10 12  1  0  0  0  0
 12 13  1  0  0  0  0
 12 17  1  0  0  0  0
 12 55  1  6  0  0  0
 13 14  1  0  0  0  0
 13 15  1  0  0  0  0
 13 16  1  0  0  0  0
 14 56  1  0  0  0  0
 14 57  1  0  0  0  0
 14 58  1  0  0  0  0
 15 59  1  0  0  0  0
 15 60  1  0  0  0  0
 15 61  1  0  0  0  0
 16 62  1  0  0  0  0
 16 63  1  0  0  0  0
 16 64  1  0  0  0  0
 17 18  1  0  0  0  0
 17 65  1  0  0  0  0
 18 19  2  0  0  0  0
 18 20  1  0  0  0  0
 20 21  2  0  0  0  0
 20 66  1  0  0  0  0
 21 22  1  0  0  0  0
 21 67  1  0  0  0  0
 22 23  2  0  0  0  0
 22 68  1  0  0  0  0
 23 24  1  0  0  0  0
 23 69  1  0  0  0  0
 24 25  2  0  0  0  0
 24 37  1  0  0  0  0
 25 26  1  0  0  0  0
 25 70  1  0  0  0  0
 26 27  1  0  0  0  0
 26 71  1  1  0  0  0
 27 72  1  0  0  0  0
 27 73  1  0  0  0  0
 27 74  1  0  0  0  0
 28 26  1  0  0  0  0
 28 29  1  0  0  0  0
 28 34  1  0  0  0  0
 28 75  1  1  0  0  0
 29 30  1  0  0  0  0
 29 76  1  0  0  0  0
 29 77  1  0  0  0  0
 30 31  2  0  0  0  0
 30 78  1  0  0  0  0
 31 32  1  0  0  0  0
 31 35  1  0  0  0  0
 32 33  2  0  0  0  0
 32 34  1  0  0  0  0
 35 36  1  0  0  0  0
 36 79  1  0  0  0  0
 36 80  1  0  0  0  0
 36 81  1  0  0  0  0
 37 82  1  0  0  0  0
 37 83  1  0  0  0  0
 37 84  1  0  0  0  0
 38 39  1  0  0  0  0
 39 40  2  0  0  0  0
 39 41  1  0  0  0  0
 41 85  1  0  0  0  0
 41 86  1  0  0  0  0
M  END
>  <DRUGBANK_ID>
DB13137

>  <COMMON_NAME>
PM-060184

>  <CAS_NUMBER>
960210-99-5

>  <UNII>
52Y8L60CR7

$$$$
