
 OpenBabel10282417072D

 56 58  0  0  0  0  0  0  0  0999 V2000
   -0.7642   -0.2490    0.0000 C   0  0  3  0  0  0  0  0  0  0  0  0
    2.0798    0.5779    0.0000 N   0  3  0  0  0  0  0  0  0  0  0  0
    0.6577   -0.2490    0.0000 N   0  0  0  0  0  0  0  0  0  0  0  0
   -0.0531   -0.6650    0.0000 C   0  0  0  0  0  0  0  0  0  0  0  0
   -1.4752   -0.6698    0.0000 C   0  0  0  0  0  0  0  0  0  0  0  0
   -1.1801    0.4618    0.0000 C   0  0  0  0  0  0  0  0  0  0  0  0
    1.3591    0.9842    0.0000 C   0  0  0  0  0  0  0  0  0  0  0  0
    2.0701   -0.2490    0.0000 C   0  0  0  0  0  0  0  0  0  0  0  0
   -0.3676    0.4618    0.0000 O   0  0  0  0  0  0  0  0  0  0  0  0
    0.6481    0.5683    0.0000 C   0  0  0  0  0  0  0  0  0  0  0  0
    1.3687   -0.6554    0.0000 C   0  0  0  0  0  0  0  0  0  0  0  0
    2.8972    0.5779    0.0000 C   0  0  0  0  0  0  0  0  0  0  0  0
    2.4764    1.2889    0.0000 C   0  0  0  0  0  0  0  0  0  0  0  0
   -2.1862   -0.2587    0.0000 C   0  0  0  0  0  0  0  0  0  0  0  0
   -1.4752   -1.4970    0.0000 C   0  0  0  0  0  0  0  0  0  0  0  0
   -0.7642    1.1874    0.0000 C   0  0  0  0  0  0  0  0  0  0  0  0
   -2.0121    0.4618    0.0000 C   0  0  0  0  0  0  0  0  0  0  0  0
   -2.1862   -1.9032    0.0000 C   0  0  0  0  0  0  0  0  0  0  0  0
   -2.8972   -0.6698    0.0000 C   0  0  0  0  0  0  0  0  0  0  0  0
   -1.1801    1.9032    0.0000 C   0  0  0  0  0  0  0  0  0  0  0  0
   -2.4280    1.1874    0.0000 C   0  0  0  0  0  0  0  0  0  0  0  0
   -2.0121    1.9032    0.0000 C   0  0  0  0  0  0  0  0  0  0  0  0
   -2.8972   -1.4970    0.0000 C   0  0  0  0  0  0  0  0  0  0  0  0
   -0.0530   -1.7350    0.0000 H   0  0  0  0  0  0  0  0  0  0  0  0
   -0.9813   -1.1974    0.0000 H   0  0  0  0  0  0  0  0  0  0  0  0
   -1.7166    1.3876    0.0000 H   0  0  0  0  0  0  0  0  0  0  0  0
    1.3506    2.0542    0.0000 H   0  0  0  0  0  0  0  0  0  0  0  0
    2.2808    1.5276    0.0000 H   0  0  0  0  0  0  0  0  0  0  0  0
    2.9940   -0.7887    0.0000 H   0  0  0  0  0  0  0  0  0  0  0  0
    2.0682   -1.3190    0.0000 H   0  0  0  0  0  0  0  0  0  0  0  0
    0.6023    0.4760    0.0000 H   0  0  0  0  0  0  0  0  0  0  0  0
   -0.2832    1.0952    0.0000 H   0  0  0  0  0  0  0  0  0  0  0  0
   -0.2730    0.0238    0.0000 H   0  0  0  0  0  0  0  0  0  0  0  0
    1.3718   -1.7254    0.0000 H   0  0  0  0  0  0  0  0  0  0  0  0
    0.4440   -1.1938    0.0000 H   0  0  0  0  0  0  0  0  0  0  0  0
    3.4322   -0.3487    0.0000 H   0  0  0  0  0  0  0  0  0  0  0  0
    3.4322    1.5045    0.0000 H   0  0  0  0  0  0  0  0  0  0  0  0
    3.9672    0.5779    0.0000 H   0  0  0  0  0  0  0  0  0  0  0  0
    3.5463    1.3047    0.0000 H   0  0  0  0  0  0  0  0  0  0  0  0
    1.9278    2.2075    0.0000 H   0  0  0  0  0  0  0  0  0  0  0  0
    2.9976    2.2234    0.0000 H   0  0  0  0  0  0  0  0  0  0  0  0
   -2.1862    0.7733    0.0000 H   0  0  0  0  0  0  0  0  0  0  0  0
   -0.5826   -2.0150    0.0000 H   0  0  0  0  0  0  0  0  0  0  0  0
    0.3058    1.1905    0.0000 H   0  0  0  0  0  0  0  0  0  0  0  0
   -0.2318    2.1156    0.0000 H   0  0  0  0  0  0  0  0  0  0  0  0
   -2.5486   -0.4640    0.0000 H   0  0  0  0  0  0  0  0  0  0  0  0
   -3.0821    0.4643    0.0000 H   0  0  0  0  0  0  0  0  0  0  0  0
   -2.1862   -2.9352    0.0000 H   0  0  0  0  0  0  0  0  0  0  0  0
   -3.7911   -0.1541    0.0000 H   0  0  0  0  0  0  0  0  0  0  0  0
   -0.6464    2.8306    0.0000 H   0  0  0  0  0  0  0  0  0  0  0  0
   -1.7157    2.8295    0.0000 H   0  0  0  0  0  0  0  0  0  0  0  0
   -3.4980    1.1905    0.0000 H   0  0  0  0  0  0  0  0  0  0  0  0
   -2.9604    2.1156    0.0000 H   0  0  0  0  0  0  0  0  0  0  0  0
   -2.5458    2.8306    0.0000 H   0  0  0  0  0  0  0  0  0  0  0  0
   -1.4765    2.8295    0.0000 H   0  0  0  0  0  0  0  0  0  0  0  0
   -3.7898   -2.0150    0.0000 H   0  0  0  0  0  0  0  0  0  0  0  0
  2  8  1  0  0  0  0
  3  4  1  0  0  0  0
  4  1  1  0  0  0  0
  4 24  1  0  0  0  0
  4 25  1  0  0  0  0
  5  1  1  0  0  0  0
  6  1  1  0  0  0  0
  6 26  1  0  0  0  0
  7 10  1  0  0  0  0
  7  2  1  0  0  0  0
  7 27  1  0  0  0  0
  7 28  1  0  0  0  0
  8 11  1  0  0  0  0
  8 29  1  0  0  0  0
  8 30  1  0  0  0  0
  9  1  1  0  0  0  0
  9 31  1  0  0  0  0
 10  3  1  0  0  0  0
 10 32  1  0  0  0  0
 10 33  1  0  0  0  0
 11  3  1  0  0  0  0
 11 34  1  0  0  0  0
 11 35  1  0  0  0  0
 12  2  1  0  0  0  0
 12 36  1  0  0  0  0
 12 37  1  0  0  0  0
 12 38  1  0  0  0  0
 13  2  1  0  0  0  0
 13 39  1  0  0  0  0
 13 40  1  0  0  0  0
 13 41  1  0  0  0  0
 14  5  2  0  0  0  0
 14 42  1  0  0  0  0
 15  5  1  0  0  0  0
 15 43  1  0  0  0  0
 16  6  1  0  0  0  0
 16 44  1  0  0  0  0
 16 45  1  0  0  0  0
 17  6  1  0  0  0  0
 17 46  1  0  0  0  0
 17 47  1  0  0  0  0
 18 15  2  0  0  0  0
 18 48  1  0  0  0  0
 19 14  1  0  0  0  0
 19 23  2  0  0  0  0
 19 49  1  0  0  0  0
 20 16  1  0  0  0  0
 20 22  1  0  0  0  0
 20 50  1  0  0  0  0
 20 51  1  0  0  0  0
 21 17  1  0  0  0  0
 21 52  1  0  0  0  0
 21 53  1  0  0  0  0
 22 21  1  0  0  0  0
 22 54  1  0  0  0  0
 22 55  1  0  0  0  0
 23 18  1  0  0  0  0
 23 56  1  0  0  0  0
M  CHG  1   2   1
M  END
>  <DRUGBANK_ID>
DB06787

>  <COMMON_NAME>
Hexocyclium

>  <CAS_NUMBER>
6004-98-4

>  <UNII>
LL3147PI1T

$$$$
