
 OpenBabel10282417072D

 45 44  0  0  0  0  0  0  0  0999 V2000
    1.5395   -5.1414    0.0000 O   0  0  0  0  0  0  0  0  0  0  0  0
    2.2539   -5.5539    0.0000 C   0  0  0  0  0  0  0  0  0  0  0  0
    2.9684   -5.1414    0.0000 C   0  0  0  0  0  0  0  0  0  0  0  0
    3.3809   -5.8559    0.0000 C   0  0  0  0  0  0  0  0  0  0  0  0
    4.2059   -5.8559    0.0000 O   0  0  0  0  0  0  0  0  0  0  0  0
    2.5559   -4.4270    0.0000 C   0  0  0  0  0  0  0  0  0  0  0  0
    1.7309   -4.4270    0.0000 O   0  0  0  0  0  0  0  0  0  0  0  0
    3.6829   -4.7289    0.0000 N   0  0  0  0  0  0  0  0  0  0  0  0
    4.3974   -5.1414    0.0000 C   0  0  0  0  0  0  0  0  0  0  0  0
    5.1118   -4.7289    0.0000 C   0  0  0  0  0  0  0  0  0  0  0  0
    5.8263   -5.1414    0.0000 C   0  0  0  0  0  0  0  0  0  0  0  0
    6.5408   -4.7289    0.0000 N   0  0  0  0  0  0  0  0  0  0  0  0
    7.2552   -5.1414    0.0000 C   0  0  0  0  0  0  0  0  0  0  0  0
    7.9697   -5.5539    0.0000 C   0  0  0  0  0  0  0  0  0  0  0  0
    8.6842   -5.1414    0.0000 O   0  0  0  0  0  0  0  0  0  0  0  0
    6.8427   -5.8559    0.0000 C   0  0  0  0  0  0  0  0  0  0  0  0
    7.2552   -6.5704    0.0000 O   0  0  0  0  0  0  0  0  0  0  0  0
    7.6677   -4.4270    0.0000 C   0  0  0  0  0  0  0  0  0  0  0  0
    8.4927   -4.4270    0.0000 O   0  0  0  0  0  0  0  0  0  0  0  0
    1.5395   -4.1714    0.0000 H   0  0  0  0  0  0  0  0  0  0  0  0
    2.2539   -6.6239    0.0000 H   0  0  0  0  0  0  0  0  0  0  0  0
    3.1805   -6.0889    0.0000 H   0  0  0  0  0  0  0  0  0  0  0  0
    2.8459   -6.7825    0.0000 H   0  0  0  0  0  0  0  0  0  0  0  0
    3.9159   -6.7825    0.0000 H   0  0  0  0  0  0  0  0  0  0  0  0
    4.6909   -6.6959    0.0000 H   0  0  0  0  0  0  0  0  0  0  0  0
    3.0909   -3.5003    0.0000 H   0  0  0  0  0  0  0  0  0  0  0  0
    2.0209   -3.5004    0.0000 H   0  0  0  0  0  0  0  0  0  0  0  0
    1.2459   -3.5870    0.0000 H   0  0  0  0  0  0  0  0  0  0  0  0
    3.6829   -3.7089    0.0000 H   0  0  0  0  0  0  0  0  0  0  0  0
    4.3974   -6.2114    0.0000 H   0  0  0  0  0  0  0  0  0  0  0  0
    5.3241   -5.6764    0.0000 H   0  0  0  0  0  0  0  0  0  0  0  0
    5.1118   -3.6589    0.0000 H   0  0  0  0  0  0  0  0  0  0  0  0
    6.0384   -4.1939    0.0000 H   0  0  0  0  0  0  0  0  0  0  0  0
    5.8263   -6.2114    0.0000 H   0  0  0  0  0  0  0  0  0  0  0  0
    6.7529   -5.6764    0.0000 H   0  0  0  0  0  0  0  0  0  0  0  0
    6.5408   -3.7089    0.0000 H   0  0  0  0  0  0  0  0  0  0  0  0
    7.9697   -6.6239    0.0000 H   0  0  0  0  0  0  0  0  0  0  0  0
    8.8963   -6.0889    0.0000 H   0  0  0  0  0  0  0  0  0  0  0  0
    9.5242   -5.6264    0.0000 H   0  0  0  0  0  0  0  0  0  0  0  0
    5.7727   -5.8559    0.0000 H   0  0  0  0  0  0  0  0  0  0  0  0
    6.3077   -6.7825    0.0000 H   0  0  0  0  0  0  0  0  0  0  0  0
    6.7702   -7.4104    0.0000 H   0  0  0  0  0  0  0  0  0  0  0  0
    7.1327   -3.5003    0.0000 H   0  0  0  0  0  0  0  0  0  0  0  0
    8.2027   -3.5004    0.0000 H   0  0  0  0  0  0  0  0  0  0  0  0
    8.9777   -5.2670    0.0000 H   0  0  0  0  0  0  0  0  0  0  0  0
  1  2  1  0  0  0  0
  1 20  1  0  0  0  0
  2  3  1  0  0  0  0
  2 21  1  0  0  0  0
  2 22  1  0  0  0  0
  3  4  1  0  0  0  0
  3  6  1  0  0  0  0
  3  8  1  0  0  0  0
  4  5  1  0  0  0  0
  4 23  1  0  0  0  0
  4 24  1  0  0  0  0
  5 25  1  0  0  0  0
  6  7  1  0  0  0  0
  6 26  1  0  0  0  0
  6 27  1  0  0  0  0
  7 28  1  0  0  0  0
  8  9  1  0  0  0  0
  8 29  1  0  0  0  0
  9 10  1  0  0  0  0
  9 30  1  0  0  0  0
  9 31  1  0  0  0  0
 10 11  1  0  0  0  0
 10 32  1  0  0  0  0
 10 33  1  0  0  0  0
 11 12  1  0  0  0  0
 11 34  1  0  0  0  0
 11 35  1  0  0  0  0
 12 13  1  0  0  0  0
 12 36  1  0  0  0  0
 13 14  1  0  0  0  0
 13 16  1  0  0  0  0
 13 18  1  0  0  0  0
 14 15  1  0  0  0  0
 14 37  1  0  0  0  0
 14 38  1  0  0  0  0
 15 39  1  0  0  0  0
 16 17  1  0  0  0  0
 16 40  1  0  0  0  0
 16 41  1  0  0  0  0
 17 42  1  0  0  0  0
 18 19  1  0  0  0  0
 18 43  1  0  0  0  0
 18 44  1  0  0  0  0
 19 45  1  0  0  0  0
M  END
>  <DRUGBANK_ID>
DB02676

>  <SECONDARY_ACCESSION_NUMBERS>
EXPT00612

>  <COMMON_NAME>
2-[3-(2-Hydroxy-1,1-Dihydroxymethyl-Ethylamino)-Propylamino]-2-Hydroxymethyl-Propane-1,3-Diol

>  <UNII>
N5YD0CS4DO

$$$$
