472
 OpenBabel10282417072D

 40 41  0  0  1  0  0  0  0  0999 V2000
    4.3974    2.6813    0.0000 F   0  0  0  0  0  0  0  0  0  0  0  0
    6.0475    2.6813    0.0000 F   0  0  0  0  0  0  0  0  0  0  0  0
    5.2224    3.5063    0.0000 F   0  0  0  0  0  0  0  0  0  0  0  0
    5.2224   -0.6188    0.0000 O   0  0  0  0  0  0  0  0  0  0  0  0
    2.3645   -0.6188    0.0000 N   0  0  0  0  0  0  0  0  0  0  0  0
    4.5080   -1.0313    0.0000 C   0  0  3  0  0  0  0  0  0  0  0  0
    3.7935   -0.6188    0.0000 C   0  0  0  0  0  0  0  0  0  0  0  0
    4.5080   -1.8563    0.0000 C   0  0  0  0  0  0  0  0  0  0  0  0
    3.0791   -1.0313    0.0000 C   0  0  0  0  0  0  0  0  0  0  0  0
    5.2224   -2.2688    0.0000 C   0  0  0  0  0  0  0  0  0  0  0  0
    3.7935   -2.2688    0.0000 C   0  0  0  0  0  0  0  0  0  0  0  0
    5.2224    0.2063    0.0000 C   0  0  0  0  0  0  0  0  0  0  0  0
    5.2224   -3.0938    0.0000 C   0  0  0  0  0  0  0  0  0  0  0  0
    3.7935   -3.0938    0.0000 C   0  0  0  0  0  0  0  0  0  0  0  0
    5.9370    0.6188    0.0000 C   0  0  0  0  0  0  0  0  0  0  0  0
    4.5080    0.6188    0.0000 C   0  0  0  0  0  0  0  0  0  0  0  0
    5.2224    1.8563    0.0000 C   0  0  0  0  0  0  0  0  0  0  0  0
    4.5080   -3.5063    0.0000 C   0  0  0  0  0  0  0  0  0  0  0  0
    1.6500   -1.0313    0.0000 C   0  0  0  0  0  0  0  0  0  0  0  0
    5.9370    1.4438    0.0000 C   0  0  0  0  0  0  0  0  0  0  0  0
    4.5080    1.4438    0.0000 C   0  0  0  0  0  0  0  0  0  0  0  0
    5.2224    2.6813    0.0000 C   0  0  0  0  0  0  0  0  0  0  0  0
    2.3645    0.4012    0.0000 H   0  0  0  0  0  0  0  0  0  0  0  0
    4.5080    0.0387    0.0000 H   0  0  0  0  0  0  0  0  0  0  0  0
    3.7935    0.4512    0.0000 H   0  0  0  0  0  0  0  0  0  0  0  0
    2.8668   -0.0838    0.0000 H   0  0  0  0  0  0  0  0  0  0  0  0
    3.0792   -2.1013    0.0000 H   0  0  0  0  0  0  0  0  0  0  0  0
    4.0058   -1.5663    0.0000 H   0  0  0  0  0  0  0  0  0  0  0  0
    6.1161   -1.7528    0.0000 H   0  0  0  0  0  0  0  0  0  0  0  0
    2.8998   -1.7528    0.0000 H   0  0  0  0  0  0  0  0  0  0  0  0
    6.1161   -3.6098    0.0000 H   0  0  0  0  0  0  0  0  0  0  0  0
    2.8998   -3.6098    0.0000 H   0  0  0  0  0  0  0  0  0  0  0  0
    6.8307    0.1028    0.0000 H   0  0  0  0  0  0  0  0  0  0  0  0
    3.6143    0.1028    0.0000 H   0  0  0  0  0  0  0  0  0  0  0  0
    4.5080   -4.5383    0.0000 H   0  0  0  0  0  0  0  0  0  0  0  0
    0.7234   -0.4963    0.0000 H   0  0  0  0  0  0  0  0  0  0  0  0
    1.6500   -2.1013    0.0000 H   0  0  0  0  0  0  0  0  0  0  0  0
    0.7233   -1.5663    0.0000 H   0  0  0  0  0  0  0  0  0  0  0  0
    6.8307    1.9598    0.0000 H   0  0  0  0  0  0  0  0  0  0  0  0
    3.6143    1.9598    0.0000 H   0  0  0  0  0  0  0  0  0  0  0  0
  1 22  1  0  0  0  0
  2 22  1  0  0  0  0
  3 22  1  0  0  0  0
  4  6  1  0  0  0  0
  4 12  1  0  0  0  0
  5  9  1  0  0  0  0
  5 19  1  0  0  0  0
  5 23  1  0  0  0  0
  6  7  1  0  0  0  0
  6  8  1  0  0  0  0
  6 24  1  0  0  0  0
  7  9  1  0  0  0  0
  7 25  1  0  0  0  0
  7 26  1  0  0  0  0
  8 10  2  0  0  0  0
  8 11  1  0  0  0  0
  9 27  1  0  0  0  0
  9 28  1  0  0  0  0
 10 13  1  0  0  0  0
 10 29  1  0  0  0  0
 11 14  2  0  0  0  0
 11 30  1  0  0  0  0
 12 15  2  0  0  0  0
 12 16  1  0  0  0  0
 13 18  2  0  0  0  0
 13 31  1  0  0  0  0
 14 18  1  0  0  0  0
 14 32  1  0  0  0  0
 15 20  1  0  0  0  0
 15 33  1  0  0  0  0
 16 21  2  0  0  0  0
 16 34  1  0  0  0  0
 17 20  2  0  0  0  0
 17 21  1  0  0  0  0
 17 22  1  0  0  0  0
 18 35  1  0  0  0  0
 19 36  1  0  0  0  0
 19 37  1  0  0  0  0
 19 38  1  0  0  0  0
 20 39  1  0  0  0  0
 21 40  1  0  0  0  0
M  END
>  <DRUGBANK_ID>
DB00472

>  <SECONDARY_ACCESSION_NUMBERS>
APRD00530

>  <COMMON_NAME>
Fluoxetine

>  <CAS_NUMBER>
54910-89-3

>  <UNII>
01K63SUP8D

>  <SYNONYMS>
(+-)-N-Methyl-3-phenyl-3-((alpha,alpha,alpha-trifluoro-P-tolyl)oxy)propylamine; (+-)-N-Methyl-gamma-(4-(trifluoromethyl)phenoxy)benzenepropanamine; Fluoxetin; Fluoxetina; Fluoxetine; Fluox√©tine; Fluoxetinum

$$$$
