C28
 OpenBabel10282417072D

 58 60  0  0  0  0  0  0  0  0999 V2000
    3.6552   -2.2338    0.0000 C   0  0  0  0  0  0  0  0  0  0  0  0
    2.9408   -0.9963    0.0000 C   0  0  0  0  0  0  0  0  0  0  0  0
    2.2263   -1.4088    0.0000 C   0  0  0  0  0  0  0  0  0  0  0  0
    2.2263   -2.2338    0.0000 C   0  0  0  0  0  0  0  0  0  0  0  0
    2.9408   -2.6463    0.0000 C   0  0  0  0  0  0  0  0  0  0  0  0
    3.6552   -1.4088    0.0000 C   0  0  0  0  0  0  0  0  0  0  0  0
    1.5118   -0.9963    0.0000 C   0  0  2  0  0  0  0  0  0  0  0  0
    4.3697   -2.6463    0.0000 F   0  0  0  0  0  0  0  0  0  0  0  0
    0.7973   -1.4088    0.0000 N   0  0  0  0  0  0  0  0  0  0  0  0
    1.5118   -0.1713    0.0000 C   0  0  0  0  0  0  0  0  0  0  0  0
    0.0829   -0.9963    0.0000 C   0  0  2  0  0  0  0  0  0  0  0  0
    0.0829   -0.1713    0.0000 C   0  0  0  0  0  0  0  0  0  0  0  0
   -0.6316   -1.4088    0.0000 C   0  0  0  0  0  0  0  0  0  0  0  0
   -1.3461   -0.9963    0.0000 S   0  0  0  0  0  0  0  0  0  0  0  0
   -2.0605   -0.5838    0.0000 N   0  0  0  0  0  0  0  0  0  0  0  0
   -0.6316    0.2412    0.0000 N   0  0  0  0  0  0  0  0  0  0  0  0
    0.7973    0.2412    0.0000 O   0  0  0  0  0  0  0  0  0  0  0  0
   -0.6316    1.0662    0.0000 C   0  0  0  0  0  0  0  0  0  0  0  0
   -0.3494    1.8414    0.0000 C   0  0  0  0  0  0  0  0  0  0  0  0
    0.1809    1.2094    0.0000 C   0  0  0  0  0  0  0  0  0  0  0  0
   -0.9336   -0.2819    0.0000 O   0  0  0  0  0  0  0  0  0  0  0  0
    1.5118    0.6537    0.0000 F   0  0  0  0  0  0  0  0  0  0  0  0
    2.3368   -0.1713    0.0000 F   0  0  0  0  0  0  0  0  0  0  0  0
    0.6868   -0.1713    0.0000 F   0  0  0  0  0  0  0  0  0  0  0  0
   -1.7586   -1.7108    0.0000 O   0  0  0  0  0  0  0  0  0  0  0  0
   -2.7750   -0.9963    0.0000 C   0  0  0  0  0  0  0  0  0  0  0  0
   -3.4895   -0.5838    0.0000 C   0  0  0  0  0  0  0  0  0  0  0  0
   -3.4895    0.2412    0.0000 O   0  0  0  0  0  0  0  0  0  0  0  0
   -2.7750    0.6537    0.0000 C   0  0  0  0  0  0  0  0  0  0  0  0
   -2.0605    0.2412    0.0000 C   0  0  0  0  0  0  0  0  0  0  0  0
   -1.7262    1.9847    0.0000 N   0  0  0  0  0  0  0  0  0  0  0  0
   -1.4441    1.2094    0.0000 C   0  0  0  0  0  0  0  0  0  0  0  0
    1.5118   -1.5803    0.0000 H   0  0  0  0  0  0  0  0  0  0  0  0
    0.5886   -0.7044    0.0000 H   0  0  0  0  0  0  0  0  0  0  0  0
    2.9408    0.0357    0.0000 H   0  0  0  0  0  0  0  0  0  0  0  0
    1.3326   -2.7498    0.0000 H   0  0  0  0  0  0  0  0  0  0  0  0
    2.9408   -3.6783    0.0000 H   0  0  0  0  0  0  0  0  0  0  0  0
    4.5489   -0.8928    0.0000 H   0  0  0  0  0  0  0  0  0  0  0  0
    0.7973   -2.4288    0.0000 H   0  0  0  0  0  0  0  0  0  0  0  0
   -0.6316   -2.4788    0.0000 H   0  0  0  0  0  0  0  0  0  0  0  0
   -1.5582   -1.9438    0.0000 H   0  0  0  0  0  0  0  0  0  0  0  0
   -1.4842   -0.2511    0.0000 H   0  0  0  0  0  0  0  0  0  0  0  0
   -0.5352    2.8952    0.0000 H   0  0  0  0  0  0  0  0  0  0  0  0
    0.6204    2.2936    0.0000 H   0  0  0  0  0  0  0  0  0  0  0  0
    1.1864    0.8434    0.0000 H   0  0  0  0  0  0  0  0  0  0  0  0
    0.7947    2.0859    0.0000 H   0  0  0  0  0  0  0  0  0  0  0  0
   -2.7750   -2.0663    0.0000 H   0  0  0  0  0  0  0  0  0  0  0  0
   -3.7016   -1.5313    0.0000 H   0  0  0  0  0  0  0  0  0  0  0  0
   -4.4161   -1.1188    0.0000 H   0  0  0  0  0  0  0  0  0  0  0  0
   -4.4161   -0.0488    0.0000 H   0  0  0  0  0  0  0  0  0  0  0  0
   -2.7750    1.7237    0.0000 H   0  0  0  0  0  0  0  0  0  0  0  0
   -1.8484    1.1887    0.0000 H   0  0  0  0  0  0  0  0  0  0  0  0
   -1.1339    0.7762    0.0000 H   0  0  0  0  0  0  0  0  0  0  0  0
   -2.0605    1.3112    0.0000 H   0  0  0  0  0  0  0  0  0  0  0  0
   -1.0705    2.7660    0.0000 H   0  0  0  0  0  0  0  0  0  0  0  0
   -2.7307    2.1619    0.0000 H   0  0  0  0  0  0  0  0  0  0  0  0
   -2.1319    0.3897    0.0000 H   0  0  0  0  0  0  0  0  0  0  0  0
   -2.4978    1.3953    0.0000 H   0  0  0  0  0  0  0  0  0  0  0  0
  1  5  1  0  0  0  0
  1  6  2  0  0  0  0
  1  8  1  0  0  0  0
  2  3  2  0  0  0  0
  2  6  1  0  0  0  0
  2 35  1  0  0  0  0
  3  4  1  0  0  0  0
  3  7  1  0  0  0  0
  4  5  2  0  0  0  0
  4 36  1  0  0  0  0
  5 37  1  0  0  0  0
  6 38  1  0  0  0  0
  7  9  1  0  0  0  0
  7 10  1  0  0  0  0
  7 33  1  1  0  0  0
  9 39  1  0  0  0  0
 10 22  1  0  0  0  0
 10 23  1  0  0  0  0
 10 24  1  0  0  0  0
 11  9  1  0  0  0  0
 11 12  1  0  0  0  0
 11 13  1  0  0  0  0
 11 34  1  6  0  0  0
 12 16  1  0  0  0  0
 12 17  2  0  0  0  0
 13 14  1  0  0  0  0
 13 40  1  0  0  0  0
 13 41  1  0  0  0  0
 14 15  1  0  0  0  0
 14 21  2  0  0  0  0
 14 25  2  0  0  0  0
 15 26  1  0  0  0  0
 15 30  1  0  0  0  0
 16 18  1  0  0  0  0
 16 42  1  0  0  0  0
 18 19  1  0  0  0  0
 18 20  1  0  0  0  0
 18 32  1  0  0  0  0
 19 20  1  0  0  0  0
 19 43  1  0  0  0  0
 19 44  1  0  0  0  0
 20 45  1  0  0  0  0
 20 46  1  0  0  0  0
 26 27  1  0  0  0  0
 26 47  1  0  0  0  0
 26 48  1  0  0  0  0
 27 28  1  0  0  0  0
 27 49  1  0  0  0  0
 27 50  1  0  0  0  0
 28 29  1  0  0  0  0
 29 30  1  0  0  0  0
 29 51  1  0  0  0  0
 29 52  1  0  0  0  0
 30 53  1  0  0  0  0
 30 54  1  0  0  0  0
 31 32  1  0  0  0  0
 31 55  1  0  0  0  0
 31 56  1  0  0  0  0
 32 57  1  0  0  0  0
 32 58  1  0  0  0  0
M  END
>  <DRUGBANK_ID>
DB07520

>  <COMMON_NAME>
N-[1-(AMINOMETHYL)CYCLOPROPYL]-3-(MORPHOLIN-4-YLSULFONYL)-N~2~-[(1S)-2,2,2-TRIFLUORO-1-(4-FLUOROPHENYL)ETHYL]-L-ALANINAMIDE

$$$$
