C52
 OpenBabel10282417072D

 44 47  0  0  0  0  0  0  0  0999 V2000
    1.2569   -0.7587    0.0000 C   0  0  0  0  0  0  0  0  0  0  0  0
    1.9714   -0.3462    0.0000 C   0  0  0  0  0  0  0  0  0  0  0  0
    2.6858   -0.7587    0.0000 C   0  0  0  0  0  0  0  0  0  0  0  0
    3.4003   -0.3462    0.0000 N   0  0  0  0  0  0  0  0  0  0  0  0
    3.4003    0.4788    0.0000 C   0  0  0  0  0  0  0  0  0  0  0  0
    4.1148    0.8913    0.0000 N   0  0  0  0  0  0  0  0  0  0  0  0
    2.6858    0.8913    0.0000 N   0  0  0  0  0  0  0  0  0  0  0  0
    1.9714    0.4788    0.0000 C   0  0  0  0  0  0  0  0  0  0  0  0
    1.2569    0.8913    0.0000 C   0  0  0  0  0  0  0  0  0  0  0  0
    0.5424    0.4788    0.0000 C   0  0  0  0  0  0  0  0  0  0  0  0
    0.5424   -0.3462    0.0000 C   0  0  0  0  0  0  0  0  0  0  0  0
   -0.1720   -0.7587    0.0000 C   0  0  0  0  0  0  0  0  0  0  0  0
   -0.8865   -0.3462    0.0000 C   0  0  0  0  0  0  0  0  0  0  0  0
   -0.8865    0.4788    0.0000 O   0  0  0  0  0  0  0  0  0  0  0  0
   -0.1720   -1.5837    0.0000 C   0  0  0  0  0  0  0  0  0  0  0  0
    0.5424   -1.9962    0.0000 C   0  0  0  0  0  0  0  0  0  0  0  0
   -0.8865   -1.9962    0.0000 C   0  0  0  0  0  0  0  0  0  0  0  0
   -1.6010   -1.5837    0.0000 C   0  0  0  0  0  0  0  0  0  0  0  0
   -1.6010   -0.7587    0.0000 N   0  0  0  0  0  0  0  0  0  0  0  0
   -2.3155   -0.3462    0.0000 C   0  0  0  0  0  0  0  0  0  0  0  0
   -2.3155    0.4788    0.0000 C   0  0  0  0  0  0  0  0  0  0  0  0
   -3.0299   -0.7587    0.0000 C   0  0  0  0  0  0  0  0  0  0  0  0
   -3.7444   -0.3462    0.0000 C   0  0  0  0  0  0  0  0  0  0  0  0
   -3.7444    0.4788    0.0000 C   0  0  0  0  0  0  0  0  0  0  0  0
   -3.0299    0.8913    0.0000 C   0  0  0  0  0  0  0  0  0  0  0  0
   -3.0299    1.7163    0.0000 C   0  0  0  0  0  0  0  0  0  0  0  0
   -3.0299    2.5413    0.0000 F   0  0  0  0  0  0  0  0  0  0  0  0
   -3.8549    1.7163    0.0000 F   0  0  0  0  0  0  0  0  0  0  0  0
   -2.2049    1.7163    0.0000 F   0  0  0  0  0  0  0  0  0  0  0  0
    1.2569   -1.7907    0.0000 H   0  0  0  0  0  0  0  0  0  0  0  0
    2.6858   -1.7907    0.0000 H   0  0  0  0  0  0  0  0  0  0  0  0
    4.9674    0.3990    0.0000 H   0  0  0  0  0  0  0  0  0  0  0  0
    4.1148    1.8758    0.0000 H   0  0  0  0  0  0  0  0  0  0  0  0
    1.2569    1.9233    0.0000 H   0  0  0  0  0  0  0  0  0  0  0  0
   -0.3513    0.9948    0.0000 H   0  0  0  0  0  0  0  0  0  0  0  0
    0.5424   -3.0662    0.0000 H   0  0  0  0  0  0  0  0  0  0  0  0
    1.4691   -1.4612    0.0000 H   0  0  0  0  0  0  0  0  0  0  0  0
    1.4690   -2.5312    0.0000 H   0  0  0  0  0  0  0  0  0  0  0  0
   -0.8865   -3.0282    0.0000 H   0  0  0  0  0  0  0  0  0  0  0  0
   -2.4947   -2.0997    0.0000 H   0  0  0  0  0  0  0  0  0  0  0  0
   -1.4218    0.9948    0.0000 H   0  0  0  0  0  0  0  0  0  0  0  0
   -3.0299   -1.7907    0.0000 H   0  0  0  0  0  0  0  0  0  0  0  0
   -4.6381   -0.8622    0.0000 H   0  0  0  0  0  0  0  0  0  0  0  0
   -4.6381    0.9948    0.0000 H   0  0  0  0  0  0  0  0  0  0  0  0
  1  2  1  0  0  0  0
  1 30  1  0  0  0  0
  2  8  2  0  0  0  0
  2  3  1  0  0  0  0
  3  4  2  0  0  0  0
  3 31  1  0  0  0  0
  4  5  1  0  0  0  0
  5  6  1  0  0  0  0
  6 32  1  0  0  0  0
  6 33  1  0  0  0  0
  7  5  2  0  0  0  0
  8  7  1  0  0  0  0
  9  8  1  0  0  0  0
  9 34  1  0  0  0  0
 10  9  2  0  0  0  0
 10 35  1  0  0  0  0
 11  1  2  0  0  0  0
 11 10  1  0  0  0  0
 12 11  1  0  0  0  0
 12 15  2  0  0  0  0
 13 12  1  0  0  0  0
 14 13  2  0  0  0  0
 15 16  1  0  0  0  0
 16 36  1  0  0  0  0
 16 37  1  0  0  0  0
 16 38  1  0  0  0  0
 17 15  1  0  0  0  0
 17 39  1  0  0  0  0
 18 17  2  0  0  0  0
 18 40  1  0  0  0  0
 19 13  1  0  0  0  0
 19 18  1  0  0  0  0
 20 19  1  0  0  0  0
 21 20  2  0  0  0  0
 21 41  1  0  0  0  0
 22 20  1  0  0  0  0
 22 42  1  0  0  0  0
 23 22  2  0  0  0  0
 23 43  1  0  0  0  0
 24 23  1  0  0  0  0
 24 25  2  0  0  0  0
 24 44  1  0  0  0  0
 25 21  1  0  0  0  0
 26 25  1  0  0  0  0
 26 29  1  0  0  0  0
 27 26  1  0  0  0  0
 28 26  1  0  0  0  0
M  END
>  <DRUGBANK_ID>
DB07528

>  <COMMON_NAME>
3-(2-aminoquinazolin-6-yl)-4-methyl-1-[3-(trifluoromethyl)phenyl]pyridin-2(1H)-one

$$$$
