969
 OpenBabel10282417072D

 40 43  0  0  0  0  0  0  0  0999 V2000
    4.2709   -1.6687    0.0000 O   0  0  0  0  0  0  0  0  0  0  0  0
    5.3327   -0.7530    0.0000 N   0  0  0  0  0  0  0  0  0  0  0  0
    3.5859    0.9221    0.0000 N   0  0  0  0  0  0  0  0  0  0  0  0
    7.2223   -1.7142    0.0000 N   0  0  0  0  0  0  0  0  0  0  0  0
    7.7481   -0.5454    0.0000 N   0  0  0  0  0  0  0  0  0  0  0  0
    4.2266    0.4565    0.0000 C   0  0  0  0  0  0  0  0  0  0  0  0
    5.0309    0.6405    0.0000 C   0  0  0  0  0  0  0  0  0  0  0  0
    3.9819   -0.2967    0.0000 C   0  0  0  0  0  0  0  0  0  0  0  0
    5.5876    0.0317    0.0000 C   0  0  0  0  0  0  0  0  0  0  0  0
    3.1899   -0.2967    0.0000 C   0  0  0  0  0  0  0  0  0  0  0  0
    2.9450    0.4565    0.0000 C   0  0  0  0  0  0  0  0  0  0  0  0
    4.5243   -0.9183    0.0000 C   0  0  0  0  0  0  0  0  0  0  0  0
    5.8604   -1.3436    0.0000 C   0  0  0  0  0  0  0  0  0  0  0  0
    3.5859    1.7142    0.0000 C   0  0  0  0  0  0  0  0  0  0  0  0
    2.6473   -0.9183    0.0000 C   0  0  0  0  0  0  0  0  0  0  0  0
    2.1408    0.6405    0.0000 C   0  0  0  0  0  0  0  0  0  0  0  0
    6.6357   -1.1819    0.0000 C   0  0  0  0  0  0  0  0  0  0  0  0
    1.8391   -0.7530    0.0000 C   0  0  0  0  0  0  0  0  0  0  0  0
    1.5841    0.0317    0.0000 C   0  0  0  0  0  0  0  0  0  0  0  0
    6.9607   -0.4596    0.0000 C   0  0  0  0  0  0  0  0  0  0  0  0
    6.5673    0.2279    0.0000 C   0  0  0  0  0  0  0  0  0  0  0  0
    7.9098   -1.3208    0.0000 C   0  0  0  0  0  0  0  0  0  0  0  0
    8.4097    0.1837    0.0000 H   0  0  0  0  0  0  0  0  0  0  0  0
    5.3497    1.6619    0.0000 H   0  0  0  0  0  0  0  0  0  0  0  0
    6.0753    0.8730    0.0000 H   0  0  0  0  0  0  0  0  0  0  0  0
    6.6333    0.2582    0.0000 H   0  0  0  0  0  0  0  0  0  0  0  0
    5.9124    1.0512    0.0000 H   0  0  0  0  0  0  0  0  0  0  0  0
    5.5259   -2.3600    0.0000 H   0  0  0  0  0  0  0  0  0  0  0  0
    6.5733   -2.1415    0.0000 H   0  0  0  0  0  0  0  0  0  0  0  0
    4.5125    2.2492    0.0000 H   0  0  0  0  0  0  0  0  0  0  0  0
    2.6593    2.2492    0.0000 H   0  0  0  0  0  0  0  0  0  0  0  0
    3.5859    2.7842    0.0000 H   0  0  0  0  0  0  0  0  0  0  0  0
    2.9775   -1.8960    0.0000 H   0  0  0  0  0  0  0  0  0  0  0  0
    1.8333    1.6256    0.0000 H   0  0  0  0  0  0  0  0  0  0  0  0
    1.1515   -1.5226    0.0000 H   0  0  0  0  0  0  0  0  0  0  0  0
    0.5755    0.2501    0.0000 H   0  0  0  0  0  0  0  0  0  0  0  0
    7.1059    1.1525    0.0000 H   0  0  0  0  0  0  0  0  0  0  0  0
    5.4973    0.2320    0.0000 H   0  0  0  0  0  0  0  0  0  0  0  0
    6.0359    1.1566    0.0000 H   0  0  0  0  0  0  0  0  0  0  0  0
    8.8510   -1.7442    0.0000 H   0  0  0  0  0  0  0  0  0  0  0  0
  1 12  2  0  0  0  0
  2  9  1  0  0  0  0
  2 12  1  0  0  0  0
  2 13  1  0  0  0  0
  3  6  1  0  0  0  0
  3 11  1  0  0  0  0
  3 14  1  0  0  0  0
  4 17  1  0  0  0  0
  4 22  2  0  0  0  0
  5 20  1  0  0  0  0
  5 22  1  0  0  0  0
  5 23  1  0  0  0  0
  6  7  1  0  0  0  0
  6  8  2  0  0  0  0
  7  9  1  0  0  0  0
  7 24  1  0  0  0  0
  7 25  1  0  0  0  0
  8 10  1  0  0  0  0
  8 12  1  0  0  0  0
  9 26  1  0  0  0  0
  9 27  1  0  0  0  0
 10 11  1  0  0  0  0
 10 15  2  0  0  0  0
 11 16  2  0  0  0  0
 13 17  1  0  0  0  0
 13 28  1  0  0  0  0
 13 29  1  0  0  0  0
 14 30  1  0  0  0  0
 14 31  1  0  0  0  0
 14 32  1  0  0  0  0
 15 18  1  0  0  0  0
 15 33  1  0  0  0  0
 16 19  1  0  0  0  0
 16 34  1  0  0  0  0
 17 20  2  0  0  0  0
 18 19  2  0  0  0  0
 18 35  1  0  0  0  0
 19 36  1  0  0  0  0
 20 21  1  0  0  0  0
 21 37  1  0  0  0  0
 21 38  1  0  0  0  0
 21 39  1  0  0  0  0
 22 40  1  0  0  0  0
M  END
>  <DRUGBANK_ID>
DB00969

>  <SECONDARY_ACCESSION_NUMBERS>
APRD00580

>  <COMMON_NAME>
Alosetron

>  <CAS_NUMBER>
122852-42-0

>  <UNII>
13Z9HTH115

>  <SYNONYMS>
2,3,4,5-Tetrahydro-5-methyl-2-((5-methyl-1H-imidazol-4-yl)methyl)-1H-pyrido(4,3-b)indol-1-one; Alosetron

$$$$
