ODE
 OpenBabel10282417072D

 55 58  0  0  0  0  0  0  0  0999 V2000
   -1.1673    1.9576    0.0000 C   0  0  0  0  0  0  0  0  0  0  0  0
   -1.7812    2.5087    0.0000 C   0  0  0  0  0  0  0  0  0  0  0  0
   -2.5655    2.2527    0.0000 C   0  0  0  0  0  0  0  0  0  0  0  0
   -3.1794    2.8038    0.0000 O   0  0  0  0  0  0  0  0  0  0  0  0
   -2.7359    1.4455    0.0000 C   0  0  0  0  0  0  0  0  0  0  0  0
   -2.1220    0.8943    0.0000 C   0  0  0  0  0  0  0  0  0  0  0  0
   -1.3377    1.1504    0.0000 C   0  0  0  0  0  0  0  0  0  0  0  0
   -0.7238    0.5992    0.0000 C   0  0  0  0  0  0  0  0  0  0  0  0
   -0.0835    1.0494    0.0000 C   0  0  2  0  0  0  0  0  0  0  0  0
   -0.2435    1.8648    0.0000 O   0  0  0  0  0  0  0  0  0  0  0  0
    0.7120    0.5841    0.0000 C   0  0  1  0  0  0  0  0  0  0  0  0
    1.5001    0.8282    0.0000 C   0  0  0  0  0  0  0  0  0  0  0  0
    1.6827    1.6327    0.0000 O   0  0  0  0  0  0  0  0  0  0  0  0
    2.1055    0.2677    0.0000 O   0  0  0  0  0  0  0  0  0  0  0  0
    2.8935    0.5118    0.0000 C   0  0  0  0  0  0  0  0  0  0  0  0
    3.4989   -0.0486    0.0000 C   0  0  0  0  0  0  0  0  0  0  0  0
    0.4169   -0.0413    0.0000 C   0  0  1  0  0  0  0  0  0  0  0  0
    0.6845   -0.8216    0.0000 C   0  0  0  0  0  0  0  0  0  0  0  0
    0.1425   -1.4436    0.0000 O   0  0  0  0  0  0  0  0  0  0  0  0
    1.4942   -0.9801    0.0000 O   0  0  0  0  0  0  0  0  0  0  0  0
    1.7618   -1.7604    0.0000 C   0  0  0  0  0  0  0  0  0  0  0  0
    2.5714   -1.9189    0.0000 C   0  0  0  0  0  0  0  0  0  0  0  0
   -0.3136    0.3290    0.0000 C   0  0  1  0  0  0  0  0  0  0  0  0
   -1.0891   -0.0613    0.0000 C   0  0  0  0  0  0  0  0  0  0  0  0
   -1.6837   -0.6332    0.0000 C   0  0  0  0  0  0  0  0  0  0  0  0
   -2.4763   -0.4042    0.0000 C   0  0  0  0  0  0  0  0  0  0  0  0
   -3.0709   -0.9761    0.0000 C   0  0  0  0  0  0  0  0  0  0  0  0
   -2.8729   -1.7770    0.0000 C   0  0  0  0  0  0  0  0  0  0  0  0
   -3.4675   -2.3489    0.0000 O   0  0  0  0  0  0  0  0  0  0  0  0
   -2.0803   -2.0060    0.0000 C   0  0  0  0  0  0  0  0  0  0  0  0
   -1.4857   -1.4341    0.0000 C   0  0  0  0  0  0  0  0  0  0  0  0
    0.0931    1.6060    0.0000 H   0  0  0  0  0  0  0  0  0  0  0  0
    0.7787    1.1642    0.0000 H   0  0  0  0  0  0  0  0  0  0  0  0
    0.9999   -0.0735    0.0000 H   0  0  0  0  0  0  0  0  0  0  0  0
   -0.3145   -0.2549    0.0000 H   0  0  0  0  0  0  0  0  0  0  0  0
   -0.1863    2.2779    0.0000 H   0  0  0  0  0  0  0  0  0  0  0  0
   -1.5681    3.5185    0.0000 H   0  0  0  0  0  0  0  0  0  0  0  0
   -2.9860    3.7206    0.0000 H   0  0  0  0  0  0  0  0  0  0  0  0
   -3.7169    1.1252    0.0000 H   0  0  0  0  0  0  0  0  0  0  0  0
   -2.3351   -0.1155    0.0000 H   0  0  0  0  0  0  0  0  0  0  0  0
    3.1304    1.5553    0.0000 H   0  0  0  0  0  0  0  0  0  0  0  0
    3.9156    0.8284    0.0000 H   0  0  0  0  0  0  0  0  0  0  0  0
    3.2620   -1.0921    0.0000 H   0  0  0  0  0  0  0  0  0  0  0  0
    4.5210    0.2680    0.0000 H   0  0  0  0  0  0  0  0  0  0  0  0
    4.2841   -0.7755    0.0000 H   0  0  0  0  0  0  0  0  0  0  0  0
    1.0588   -2.5670    0.0000 H   0  0  0  0  0  0  0  0  0  0  0  0
    2.1088   -2.7726    0.0000 H   0  0  0  0  0  0  0  0  0  0  0  0
    2.9184   -2.9311    0.0000 H   0  0  0  0  0  0  0  0  0  0  0  0
    3.2745   -1.1123    0.0000 H   0  0  0  0  0  0  0  0  0  0  0  0
    3.6215   -2.1245    0.0000 H   0  0  0  0  0  0  0  0  0  0  0  0
   -2.7240    0.5976    0.0000 H   0  0  0  0  0  0  0  0  0  0  0  0
   -4.0624   -0.6897    0.0000 H   0  0  0  0  0  0  0  0  0  0  0  0
   -4.3677   -2.0888    0.0000 H   0  0  0  0  0  0  0  0  0  0  0  0
   -1.8326   -3.0078    0.0000 H   0  0  0  0  0  0  0  0  0  0  0  0
   -0.4942   -1.7205    0.0000 H   0  0  0  0  0  0  0  0  0  0  0  0
  1  7  2  0  0  0  0
  1  2  1  0  0  0  0
  1 36  1  0  0  0  0
  2  3  2  0  0  0  0
  2 37  1  0  0  0  0
  3  5  1  0  0  0  0
  3  4  1  0  0  0  0
  4 38  1  0  0  0  0
  5  6  2  0  0  0  0
  5 39  1  0  0  0  0
  6  7  1  0  0  0  0
  6 40  1  0  0  0  0
  7  8  1  0  0  0  0
  8  9  1  0  0  0  0
  8 24  2  0  0  0  0
  9 10  1  0  0  0  0
  9 11  1  0  0  0  0
  9 32  1  1  0  0  0
 10 23  1  0  0  0  0
 11 17  1  0  0  0  0
 11 12  1  0  0  0  0
 11 33  1  6  0  0  0
 12 14  1  0  0  0  0
 12 13  2  0  0  0  0
 14 15  1  0  0  0  0
 15 16  1  0  0  0  0
 15 41  1  0  0  0  0
 15 42  1  0  0  0  0
 16 43  1  0  0  0  0
 16 44  1  0  0  0  0
 16 45  1  0  0  0  0
 17 18  1  0  0  0  0
 17 23  1  0  0  0  0
 17 34  1  6  0  0  0
 18 20  1  0  0  0  0
 18 19  2  0  0  0  0
 20 21  1  0  0  0  0
 21 22  1  0  0  0  0
 21 46  1  0  0  0  0
 21 47  1  0  0  0  0
 22 48  1  0  0  0  0
 22 49  1  0  0  0  0
 22 50  1  0  0  0  0
 23 24  1  0  0  0  0
 23 35  1  6  0  0  0
 24 25  1  0  0  0  0
 25 31  2  0  0  0  0
 25 26  1  0  0  0  0
 26 27  2  0  0  0  0
 26 51  1  0  0  0  0
 27 28  1  0  0  0  0
 27 52  1  0  0  0  0
 28 30  2  0  0  0  0
 28 29  1  0  0  0  0
 29 53  1  0  0  0  0
 30 31  1  0  0  0  0
 30 54  1  0  0  0  0
 31 55  1  0  0  0  0
M  END
>  <DRUGBANK_ID>
DB08320

>  <COMMON_NAME>
DIETHYL (1R,2S,3R,4S)-5,6-BIS(4-HYDROXYPHENYL)-7-OXABICYCLO[2.2.1]HEPT-5-ENE-2,3-DICARBOXYLATE

$$$$
