
 OpenBabel10282417073D

 81 84  0  0  0  0  0  0  0  0999 V2000
    0.4956   -1.6242    0.9915 O   0  0  0  0  0  0  0  0  0  0  0  0
   -0.2220   -1.4565    0.8698 C   0  0  0  0  0  0  0  0  0  0  0  0
   -0.5232   -0.7005    0.7342 N   0  0  0  0  0  0  0  0  0  0  0  0
   -1.3661   -0.7640    0.6238 C   0  0  0  0  0  0  0  0  0  0  0  0
   -0.8753   -2.0222    0.8481 C   0  0  0  0  0  0  0  0  0  0  0  0
   -1.5776   -1.6002    0.7013 C   0  0  0  0  0  0  0  0  0  0  0  0
   -0.8066   -2.9349    0.9704 C   0  0  0  0  0  0  0  0  0  0  0  0
   -2.4255   -1.9586    0.6283 C   0  0  0  0  0  0  0  0  0  0  0  0
   -1.8982   -0.1274    0.4705 C   0  0  0  0  0  0  0  0  0  0  0  0
   -1.5895    0.6721    0.3291 C   0  0  0  0  0  0  0  0  0  0  0  0
   -0.8033    0.8720    0.2531 N   0  0  0  0  0  0  0  0  0  0  0  0
   -0.7374    1.6799    0.1246 C   0  0  0  0  0  0  0  0  0  0  0  0
   -2.0669    1.3924    0.2454 C   0  0  0  0  0  0  0  0  0  0  0  0
   -1.5366    2.0214    0.1216 C   0  0  0  0  0  0  0  0  0  0  0  0
   -2.9874    1.4499    0.2894 C   0  0  0  0  0  0  0  0  0  0  0  0
   -1.7554    2.9101   -0.0009 C   0  0  0  0  0  0  0  0  0  0  0  0
   -0.0036    2.1143    0.0154 C   0  0  0  0  0  0  0  0  0  0  0  0
    0.7379    1.6914   -0.0556 C   0  0  0  0  0  0  0  0  0  0  0  0
    0.8280    0.8541   -0.1200 N   0  0  0  0  0  0  0  0  0  0  0  0
    1.6466    0.6791   -0.1775 C   0  0  0  0  0  0  0  0  0  0  0  0
    1.5191    2.0433   -0.0737 C   0  0  0  0  0  0  0  0  0  0  0  0
    2.0810    1.4143   -0.1458 C   0  0  0  0  0  0  0  0  0  0  0  0
    1.7129    2.9446   -0.0199 C   0  0  0  0  0  0  0  0  0  0  0  0
    2.9988    1.5066   -0.1882 C   0  0  0  0  0  0  0  0  0  0  0  0
    1.9921   -0.1109   -0.2524 C   0  0  0  0  0  0  0  0  0  0  0  0
    1.5129   -0.7590   -0.5029 C   0  0  0  0  0  0  0  0  0  0  0  0
    0.7113   -0.7119   -0.7845 N   0  0  0  0  0  0  0  0  0  0  0  0
    0.4554   -1.4743   -0.9685 C   0  0  0  0  0  0  0  0  0  0  0  0
    1.7506   -1.5940   -0.5252 C   0  0  0  0  0  0  0  0  0  0  0  0
    1.1024   -2.0296   -0.8078 C   0  0  0  0  0  0  0  0  0  0  0  0
    2.5718   -1.9352   -0.2766 C   0  0  0  0  0  0  0  0  0  0  0  0
    1.0749   -2.9446   -0.9293 C   0  0  0  0  0  0  0  0  0  0  0  0
   -0.2199   -1.6561   -1.2292 O   0  0  0  0  0  0  0  0  0  0  0  0
   -2.8313   -1.9758    1.4732 C   0  0  0  0  0  0  0  0  0  0  0  0
   -3.3491    1.3345   -0.5677 C   0  0  0  0  0  0  0  0  0  0  0  0
   -4.2696    1.3920   -0.5236 C   0  0  0  0  0  0  0  0  0  0  0  0
   -4.7200    1.3089   -1.2068 O   0  0  0  0  0  0  0  0  0  0  0  0
   -4.6023    1.5130    0.1265 O   0  0  0  0  0  0  0  0  0  0  0  0
    3.3559    1.4783    0.6781 C   0  0  0  0  0  0  0  0  0  0  0  0
    4.2737    1.5705    0.6358 C   0  0  0  0  0  0  0  0  0  0  0  0
    4.7200    1.5637    1.3266 O   0  0  0  0  0  0  0  0  0  0  0  0
    4.6078    1.6506   -0.0199 O   0  0  0  0  0  0  0  0  0  0  0  0
    3.1426   -1.9489   -1.0202 C   0  0  0  0  0  0  0  0  0  0  0  0
   -0.2067   -0.1978    0.7163 H   0  0  0  0  0  0  0  0  0  0  0  0
    0.3864    0.4564   -0.1239 H   0  0  0  0  0  0  0  0  0  0  0  0
    0.3898   -0.2148   -0.8375 H   0  0  0  0  0  0  0  0  0  0  0  0
    0.2170   -3.1959    1.1405 H   0  0  0  0  0  0  0  0  0  0  0  0
   -1.1629   -3.4396    0.0968 H   0  0  0  0  0  0  0  0  0  0  0  0
   -1.3943   -3.2267    1.8156 H   0  0  0  0  0  0  0  0  0  0  0  0
   -2.3597   -2.9550    0.2439 H   0  0  0  0  0  0  0  0  0  0  0  0
   -3.0106   -1.3579   -0.0362 H   0  0  0  0  0  0  0  0  0  0  0  0
   -2.9157   -0.2986    0.4510 H   0  0  0  0  0  0  0  0  0  0  0  0
   -3.2670    2.4108    0.6681 H   0  0  0  0  0  0  0  0  0  0  0  0
   -3.3616    0.6873    0.9400 H   0  0  0  0  0  0  0  0  0  0  0  0
   -0.8613    3.4822   -0.1358 H   0  0  0  0  0  0  0  0  0  0  0  0
   -2.2825    3.2693    0.8582 H   0  0  0  0  0  0  0  0  0  0  0  0
   -2.3759    3.0085   -0.8670 H   0  0  0  0  0  0  0  0  0  0  0  0
   -0.0161    3.1452   -0.0301 H   0  0  0  0  0  0  0  0  0  0  0  0
    0.8027    3.5007    0.0643 H   0  0  0  0  0  0  0  0  0  0  0  0
    2.2371    3.2499   -0.9013 H   0  0  0  0  0  0  0  0  0  0  0  0
    2.3234    3.1275    0.8396 H   0  0  0  0  0  0  0  0  0  0  0  0
    3.2424    2.4435   -0.6440 H   0  0  0  0  0  0  0  0  0  0  0  0
    3.4111    0.7090   -0.7703 H   0  0  0  0  0  0  0  0  0  0  0  0
    2.9899   -0.2605   -0.0354 H   0  0  0  0  0  0  0  0  0  0  0  0
    2.4466   -2.9306    0.0953 H   0  0  0  0  0  0  0  0  0  0  0  0
    2.9971   -1.3195    0.4882 H   0  0  0  0  0  0  0  0  0  0  0  0
    0.1130   -3.2259   -1.3041 H   0  0  0  0  0  0  0  0  0  0  0  0
    1.2504   -3.4340    0.0059 H   0  0  0  0  0  0  0  0  0  0  0  0
    1.8295   -3.2341   -1.6305 H   0  0  0  0  0  0  0  0  0  0  0  0
   -2.2462   -2.5765    2.1377 H   0  0  0  0  0  0  0  0  0  0  0  0
   -3.8138   -2.3911    1.3886 H   0  0  0  0  0  0  0  0  0  0  0  0
   -2.8971   -0.9794    1.8576 H   0  0  0  0  0  0  0  0  0  0  0  0
   -3.0695    0.3736   -0.9464 H   0  0  0  0  0  0  0  0  0  0  0  0
   -2.9749    2.0970   -1.2184 H   0  0  0  0  0  0  0  0  0  0  0  0
   -4.2990    1.1557   -2.0298 H   0  0  0  0  0  0  0  0  0  0  0  0
    3.1122    0.5414    1.1339 H   0  0  0  0  0  0  0  0  0  0  0  0
    2.9437    2.2760    1.2601 H   0  0  0  0  0  0  0  0  0  0  0  0
    4.2971    1.4623    2.1566 H   0  0  0  0  0  0  0  0  0  0  0  0
    2.7173   -2.5646   -1.7850 H   0  0  0  0  0  0  0  0  0  0  0  0
    4.0942   -2.3443   -0.7321 H   0  0  0  0  0  0  0  0  0  0  0  0
    3.2678   -0.9535   -1.3921 H   0  0  0  0  0  0  0  0  0  0  0  0
  1  2  2  0  0  0  0
  2  3  1  0  0  0  0
  2  5  1  0  0  0  0
  3  4  1  0  0  0  0
  3 44  1  0  0  0  0
  4  6  1  0  0  0  0
  4  9  2  0  0  0  0
  5  6  2  0  0  0  0
  5  7  1  0  0  0  0
  6  8  1  0  0  0  0
  7 47  1  0  0  0  0
  7 48  1  0  0  0  0
  7 49  1  0  0  0  0
  8 34  1  0  0  0  0
  8 50  1  0  0  0  0
  8 51  1  0  0  0  0
  9 10  1  0  0  0  0
  9 52  1  0  0  0  0
 10 11  2  0  0  0  0
 10 13  1  0  0  0  0
 11 12  1  0  0  0  0
 12 14  1  0  0  0  0
 12 17  2  0  0  0  0
 13 14  2  0  0  0  0
 13 15  1  0  0  0  0
 14 16  1  0  0  0  0
 15 35  1  0  0  0  0
 15 53  1  0  0  0  0
 15 54  1  0  0  0  0
 16 55  1  0  0  0  0
 16 56  1  0  0  0  0
 16 57  1  0  0  0  0
 17 18  1  0  0  0  0
 17 58  1  0  0  0  0
 18 19  1  0  0  0  0
 18 21  2  0  0  0  0
 19 20  1  0  0  0  0
 19 45  1  0  0  0  0
 20 22  2  0  0  0  0
 20 25  1  0  0  0  0
 21 22  1  0  0  0  0
 21 23  1  0  0  0  0
 22 24  1  0  0  0  0
 23 59  1  0  0  0  0
 23 60  1  0  0  0  0
 23 61  1  0  0  0  0
 24 39  1  0  0  0  0
 24 62  1  0  0  0  0
 24 63  1  0  0  0  0
 25 26  2  0  0  0  0
 25 64  1  0  0  0  0
 26 27  1  0  0  0  0
 26 29  1  0  0  0  0
 27 28  1  0  0  0  0
 27 46  1  0  0  0  0
 28 30  1  0  0  0  0
 28 33  2  0  0  0  0
 29 30  2  0  0  0  0
 29 31  1  0  0  0  0
 30 32  1  0  0  0  0
 31 43  1  0  0  0  0
 31 65  1  0  0  0  0
 31 66  1  0  0  0  0
 32 67  1  0  0  0  0
 32 68  1  0  0  0  0
 32 69  1  0  0  0  0
 34 70  1  0  0  0  0
 34 71  1  0  0  0  0
 34 72  1  0  0  0  0
 35 36  1  0  0  0  0
 35 73  1  0  0  0  0
 35 74  1  0  0  0  0
 36 37  1  0  0  0  0
 36 38  2  0  0  0  0
 37 75  1  0  0  0  0
 39 40  1  0  0  0  0
 39 76  1  0  0  0  0
 39 77  1  0  0  0  0
 40 41  1  0  0  0  0
 40 42  2  0  0  0  0
 41 78  1  0  0  0  0
 43 79  1  0  0  0  0
 43 80  1  0  0  0  0
 43 81  1  0  0  0  0
M  END
>  <DRUGBANK_ID>
DB04363

>  <SECONDARY_ACCESSION_NUMBERS>
EXPT02129

>  <COMMON_NAME>
Mesobiliverdin IV alpha

$$$$
