1511
 OpenBabel10282417072D

 30 32  0  0  0  0  0  0  0  0999 V2000
    2.5466   -2.3592    0.0000 Cl  0  0  0  0  0  0  0  0  0  0  0  0
    3.6079   -1.4649    0.0000 Cl  0  0  0  0  0  0  0  0  0  0  0  0
    2.3402    2.3592    0.0000 O   0  0  0  0  0  0  0  0  0  0  0  0
    2.1838    0.9709    0.0000 N   0  0  0  0  0  0  0  0  0  0  0  0
    4.0374    0.9709    0.0000 N   0  0  0  0  0  0  0  0  0  0  0  0
    3.1106   -0.1914    0.0000 C   0  0  0  0  0  0  0  0  0  0  0  0
    3.8539    0.1666    0.0000 C   0  0  0  0  0  0  0  0  0  0  0  0
    2.3673    0.1666    0.0000 C   0  0  0  0  0  0  0  0  0  0  0  0
    4.4988   -0.3478    0.0000 C   0  0  0  0  0  0  0  0  0  0  0  0
    3.1880   -1.0472    0.0000 C   0  0  0  0  0  0  0  0  0  0  0  0
    3.5230    1.6159    0.0000 C   0  0  0  0  0  0  0  0  0  0  0  0
    1.6499   -0.3065    0.0000 C   0  0  0  0  0  0  0  0  0  0  0  0
    2.6981    1.6159    0.0000 C   0  0  0  0  0  0  0  0  0  0  0  0
    2.4818   -1.5367    0.0000 C   0  0  0  0  0  0  0  0  0  0  0  0
    1.7075   -1.1639    0.0000 C   0  0  0  0  0  0  0  0  0  0  0  0
    4.3759   -1.1635    0.0000 C   0  0  0  0  0  0  0  0  0  0  0  0
    5.2668   -0.0464    0.0000 C   0  0  0  0  0  0  0  0  0  0  0  0
    5.0209   -1.6779    0.0000 C   0  0  0  0  0  0  0  0  0  0  0  0
    5.9118   -0.5607    0.0000 C   0  0  0  0  0  0  0  0  0  0  0  0
    5.7888   -1.3765    0.0000 C   0  0  0  0  0  0  0  0  0  0  0  0
    1.2240    1.1900    0.0000 H   0  0  0  0  0  0  0  0  0  0  0  0
    4.1229   -1.4842    0.0000 H   0  0  0  0  0  0  0  0  0  0  0  0
    3.9872    2.5799    0.0000 H   0  0  0  0  0  0  0  0  0  0  0  0
    2.9537    2.5219    0.0000 H   0  0  0  0  0  0  0  0  0  0  0  0
    0.7253    0.1520    0.0000 H   0  0  0  0  0  0  0  0  0  0  0  0
    0.8526   -1.7420    0.0000 H   0  0  0  0  0  0  0  0  0  0  0  0
    5.4206    0.9741    0.0000 H   0  0  0  0  0  0  0  0  0  0  0  0
    4.8671   -2.6984    0.0000 H   0  0  0  0  0  0  0  0  0  0  0  0
    6.8725   -0.1837    0.0000 H   0  0  0  0  0  0  0  0  0  0  0  0
    6.5956   -2.0200    0.0000 H   0  0  0  0  0  0  0  0  0  0  0  0
  1 14  1  0  0  0  0
  2 16  1  0  0  0  0
  3 13  2  0  0  0  0
  4  8  1  0  0  0  0
  4 13  1  0  0  0  0
  4 21  1  0  0  0  0
  5  7  2  0  0  0  0
  5 11  1  0  0  0  0
  6  7  1  0  0  0  0
  6  8  2  0  0  0  0
  6 10  1  0  0  0  0
  7  9  1  0  0  0  0
  8 12  1  0  0  0  0
  9 16  1  0  0  0  0
  9 17  2  0  0  0  0
 10 14  2  0  0  0  0
 10 22  1  0  0  0  0
 11 13  1  0  0  0  0
 11 23  1  0  0  0  0
 11 24  1  0  0  0  0
 12 15  2  0  0  0  0
 12 25  1  0  0  0  0
 14 15  1  0  0  0  0
 15 26  1  0  0  0  0
 16 18  2  0  0  0  0
 17 19  1  0  0  0  0
 17 27  1  0  0  0  0
 18 20  1  0  0  0  0
 18 28  1  0  0  0  0
 19 20  2  0  0  0  0
 19 29  1  0  0  0  0
 20 30  1  0  0  0  0
M  END
>  <DRUGBANK_ID>
DB01511

>  <COMMON_NAME>
Delorazepam

>  <CAS_NUMBER>
2894-67-9

>  <UNII>
O91W32476G

>  <SYNONYMS>
Chlordesmethyldiazepam; Clordesmetildiazepam; Delorazepam; Delorazepamum

$$$$
