
 OpenBabel10282417072D

 24 26  0  0  0  0  0  0  0  0999 V2000
   -0.1485   -1.5745    0.0000 C   0  0  0  0  0  0  0  0  0  0  0  0
   -0.1485   -0.7495    0.0000 N   0  0  0  0  0  0  0  0  0  0  0  0
    0.5188   -0.2646    0.0000 C   0  0  0  0  0  0  0  0  0  0  0  0
    0.2639    0.5199    0.0000 C   0  0  0  0  0  0  0  0  0  0  0  0
    0.8160    1.1330    0.0000 C   0  0  0  0  0  0  0  0  0  0  0  0
    1.6229    0.9614    0.0000 C   0  0  0  0  0  0  0  0  0  0  0  0
    2.1750    1.5745    0.0000 F   0  0  0  0  0  0  0  0  0  0  0  0
    1.8778    0.1768    0.0000 C   0  0  0  0  0  0  0  0  0  0  0  0
    1.3258   -0.4362    0.0000 C   0  0  0  0  0  0  0  0  0  0  0  0
   -0.5610    0.5199    0.0000 C   0  0  0  0  0  0  0  0  0  0  0  0
   -0.8160   -0.2646    0.0000 C   0  0  0  0  0  0  0  0  0  0  0  0
   -1.6229   -0.4362    0.0000 C   0  0  0  0  0  0  0  0  0  0  0  0
   -2.1750    0.1768    0.0000 N   0  0  0  0  0  0  0  0  0  0  0  0
   -1.9200    0.9614    0.0000 C   0  0  0  0  0  0  0  0  0  0  0  0
   -1.1130    1.1330    0.0000 C   0  0  0  0  0  0  0  0  0  0  0  0
   -1.0751   -2.1095    0.0000 H   0  0  0  0  0  0  0  0  0  0  0  0
    0.7781   -2.1095    0.0000 H   0  0  0  0  0  0  0  0  0  0  0  0
   -0.1485   -2.6445    0.0000 H   0  0  0  0  0  0  0  0  0  0  0  0
    0.4972    2.1145    0.0000 H   0  0  0  0  0  0  0  0  0  0  0  0
    2.8872   -0.0378    0.0000 H   0  0  0  0  0  0  0  0  0  0  0  0
    1.6446   -1.4177    0.0000 H   0  0  0  0  0  0  0  0  0  0  0  0
   -1.9417   -1.4177    0.0000 H   0  0  0  0  0  0  0  0  0  0  0  0
   -2.6105    1.7283    0.0000 H   0  0  0  0  0  0  0  0  0  0  0  0
   -0.7941    2.1145    0.0000 H   0  0  0  0  0  0  0  0  0  0  0  0
  1  2  1  0  0  0  0
  1 16  1  0  0  0  0
  1 17  1  0  0  0  0
  1 18  1  0  0  0  0
  2  3  1  0  0  0  0
  2 11  1  0  0  0  0
  3  4  2  0  0  0  0
  3  9  1  0  0  0  0
  4  5  1  0  0  0  0
  4 10  1  0  0  0  0
  5  6  2  0  0  0  0
  5 19  1  0  0  0  0
  6  7  1  0  0  0  0
  6  8  1  0  0  0  0
  8  9  2  0  0  0  0
  8 20  1  0  0  0  0
  9 21  1  0  0  0  0
 10 11  2  0  0  0  0
 10 15  1  0  0  0  0
 11 12  1  0  0  0  0
 12 13  2  0  0  0  0
 12 22  1  0  0  0  0
 13 14  1  0  0  0  0
 14 15  2  0  0  0  0
 14 23  1  0  0  0  0
 15 24  1  0  0  0  0
M  END
>  <DRUGBANK_ID>
DB18118

>  <COMMON_NAME>
6-fluoro-9-methyl-9H-pyrido(3,4-B)-indole

>  <UNII>
KT2RT2HH65

>  <SYNONYMS>
6-fluoro-9-methyl-9H-pyrido[3,4-b]-indole

$$$$
