
 OpenBabel10282417072D

 59 60  0  0  1  0  0  0  0  0999 V2000
    0.1265   -4.0888    0.0000 C   0  0  0  0  0  0  0  0  0  0  0  0
    0.4621   -3.3351    0.0000 C   0  0  1  0  0  0  0  0  0  0  0  0
    1.2826   -3.2489    0.0000 O   0  0  0  0  0  0  0  0  0  0  0  0
   -0.0228   -2.6677    0.0000 C   0  0  2  0  0  0  0  0  0  0  0  0
   -0.8433   -2.7539    0.0000 N   0  0  0  0  0  0  0  0  0  0  0  0
    0.3127   -1.9140    0.0000 C   0  0  0  0  0  0  0  0  0  0  0  0
    1.1332   -1.8278    0.0000 O   0  0  0  0  0  0  0  0  0  0  0  0
   -0.1722   -1.2466    0.0000 N   0  0  0  0  0  0  0  0  0  0  0  0
   -0.9972   -1.2466    0.0000 C   0  0  0  0  0  0  0  0  0  0  0  0
   -1.2521   -0.4619    0.0000 C   0  0  0  0  0  0  0  0  0  0  0  0
   -0.5847    0.0230    0.0000 C   0  0  0  0  0  0  0  0  0  0  0  0
    0.0827   -0.4619    0.0000 C   0  0  1  0  0  0  0  0  0  0  0  0
    0.8674   -0.2070    0.0000 C   0  0  0  0  0  0  0  0  0  0  0  0
    1.4805   -0.7590    0.0000 O   0  0  0  0  0  0  0  0  0  0  0  0
    1.0389    0.6000    0.0000 N   0  0  0  0  0  0  0  0  0  0  0  0
    0.4869    1.2131    0.0000 C   0  0  0  0  0  0  0  0  0  0  0  0
    0.8994    1.9275    0.0000 C   0  0  0  0  0  0  0  0  0  0  0  0
    1.7063    1.7560    0.0000 C   0  0  0  0  0  0  0  0  0  0  0  0
    1.7926    0.9355    0.0000 C   0  0  1  0  0  0  0  0  0  0  0  0
    2.5070    0.5230    0.0000 C   0  0  0  0  0  0  0  0  0  0  0  0
    3.2215    0.9355    0.0000 O   0  0  0  0  0  0  0  0  0  0  0  0
    2.5070   -0.3020    0.0000 N   0  0  0  0  0  0  0  0  0  0  0  0
    3.2215   -0.7145    0.0000 C   0  0  1  0  0  0  0  0  0  0  0  0
    3.2215   -1.5395    0.0000 C   0  0  1  0  0  0  0  0  0  0  0  0
    3.9360   -1.9520    0.0000 C   0  0  0  0  0  0  0  0  0  0  0  0
    2.5070   -1.9520    0.0000 O   0  0  0  0  0  0  0  0  0  0  0  0
    3.9360   -0.3020    0.0000 C   0  0  0  0  0  0  0  0  0  0  0  0
    3.9360    0.5230    0.0000 O   0  0  0  0  0  0  0  0  0  0  0  0
    4.6505   -0.7145    0.0000 O   0  0  0  0  0  0  0  0  0  0  0  0
   -0.9376   -4.2006    0.0000 H   0  0  0  0  0  0  0  0  0  0  0  0
    0.7554   -4.9545    0.0000 H   0  0  0  0  0  0  0  0  0  0  0  0
   -0.3087   -5.0663    0.0000 H   0  0  0  0  0  0  0  0  0  0  0  0
    1.0910   -4.2008    0.0000 H   0  0  0  0  0  0  0  0  0  0  0  0
    1.8527   -4.0337    0.0000 H   0  0  0  0  0  0  0  0  0  0  0  0
   -0.4580   -3.6452    0.0000 H   0  0  0  0  0  0  0  0  0  0  0  0
   -1.4428   -1.9287    0.0000 H   0  0  0  0  0  0  0  0  0  0  0  0
   -1.2582   -3.6857    0.0000 H   0  0  0  0  0  0  0  0  0  0  0  0
   -1.6262   -2.1122    0.0000 H   0  0  0  0  0  0  0  0  0  0  0  0
   -2.0540   -1.0792    0.0000 H   0  0  0  0  0  0  0  0  0  0  0  0
   -2.2697   -0.1312    0.0000 H   0  0  0  0  0  0  0  0  0  0  0  0
   -1.4195    0.5949    0.0000 H   0  0  0  0  0  0  0  0  0  0  0  0
   -0.5847    1.0930    0.0000 H   0  0  0  0  0  0  0  0  0  0  0  0
    0.3687    0.5088    0.0000 H   0  0  0  0  0  0  0  0  0  0  0  0
    0.2501    0.5949    0.0000 H   0  0  0  0  0  0  0  0  0  0  0  0
   -0.5772    1.1013    0.0000 H   0  0  0  0  0  0  0  0  0  0  0  0
   -0.0958    2.1105    0.0000 H   0  0  0  0  0  0  0  0  0  0  0  0
    0.4642    2.9050    0.0000 H   0  0  0  0  0  0  0  0  0  0  0  0
    1.5728    2.7590    0.0000 H   0  0  0  0  0  0  0  0  0  0  0  0
    2.5014    2.4720    0.0000 H   0  0  0  0  0  0  0  0  0  0  0  0
    2.7053    1.3726    0.0000 H   0  0  0  0  0  0  0  0  0  0  0  0
    2.6900    1.5183    0.0000 H   0  0  0  0  0  0  0  0  0  0  0  0
    1.6544   -0.7943    0.0000 H   0  0  0  0  0  0  0  0  0  0  0  0
    2.2949   -1.2495    0.0000 H   0  0  0  0  0  0  0  0  0  0  0  0
    2.2949   -1.0045    0.0000 H   0  0  0  0  0  0  0  0  0  0  0  0
    3.9360   -3.0220    0.0000 H   0  0  0  0  0  0  0  0  0  0  0  0
    4.8626   -1.4170    0.0000 H   0  0  0  0  0  0  0  0  0  0  0  0
    4.8627   -2.4870    0.0000 H   0  0  0  0  0  0  0  0  0  0  0  0
    1.6670   -1.4670    0.0000 H   0  0  0  0  0  0  0  0  0  0  0  0
    4.7475    0.9915    0.0000 H   0  0  0  0  0  0  0  0  0  0  0  0
  1 30  1  0  0  0  0
  1 31  1  0  0  0  0
  1 32  1  0  0  0  0
  2  1  1  0  0  0  0
  2  3  1  0  0  0  0
  2  4  1  0  0  0  0
  2 33  1  1  0  0  0
  3 34  1  0  0  0  0
  4  5  1  0  0  0  0
  4  6  1  0  0  0  0
  4 35  1  1  0  0  0
  5 36  1  0  0  0  0
  5 37  1  0  0  0  0
  6  7  2  0  0  0  0
  6  8  1  0  0  0  0
  8  9  1  0  0  0  0
  9 10  1  0  0  0  0
  9 38  1  0  0  0  0
  9 39  1  0  0  0  0
 10 11  1  0  0  0  0
 10 40  1  0  0  0  0
 10 41  1  0  0  0  0
 11 42  1  0  0  0  0
 11 43  1  0  0  0  0
 12 11  1  0  0  0  0
 12  8  1  0  0  0  0
 12 13  1  0  0  0  0
 12 44  1  6  0  0  0
 13 14  2  0  0  0  0
 13 15  1  0  0  0  0
 15 16  1  0  0  0  0
 16 17  1  0  0  0  0
 16 45  1  0  0  0  0
 16 46  1  0  0  0  0
 17 18  1  0  0  0  0
 17 47  1  0  0  0  0
 17 48  1  0  0  0  0
 18 49  1  0  0  0  0
 18 50  1  0  0  0  0
 19 18  1  0  0  0  0
 19 15  1  0  0  0  0
 19 20  1  0  0  0  0
 19 51  1  6  0  0  0
 20 21  2  0  0  0  0
 20 22  1  0  0  0  0
 22 52  1  0  0  0  0
 23 22  1  0  0  0  0
 23 24  1  0  0  0  0
 23 27  1  0  0  0  0
 23 53  1  1  0  0  0
 24 25  1  0  0  0  0
 24 26  1  0  0  0  0
 24 54  1  6  0  0  0
 25 55  1  0  0  0  0
 25 56  1  0  0  0  0
 25 57  1  0  0  0  0
 26 58  1  0  0  0  0
 27 28  1  0  0  0  0
 27 29  2  0  0  0  0
 28 59  1  0  0  0  0
M  END
>  <DRUGBANK_ID>
DB16953

>  <COMMON_NAME>
NT 13

>  <CAS_NUMBER>
117928-93-5

>  <UNII>
A98MYD1EUX

>  <SYNONYMS>
L-threonyl-l-prolyl-l-prolyl-l-threonine

$$$$
