
 OpenBabel10282417072D

 38 37  0  0  1  0  0  0  0  0999 V2000
    4.3876    0.9096    0.0000 C   0  0  0  0  0  0  0  0  0  0  0  0
    5.0432    1.4103    0.0000 C   0  0  0  0  0  0  0  0  0  0  0  0
    5.8047    1.0928    0.0000 O   0  0  0  0  0  0  0  0  0  0  0  0
    6.4604    1.5936    0.0000 P   0  0  0  0  0  0  0  0  0  0  0  0
    6.9611    0.9379    0.0000 O   0  0  0  0  0  0  0  0  0  0  0  0
    5.9596    2.2492    0.0000 O   0  0  0  0  0  0  0  0  0  0  0  0
    5.1414    2.1434    0.0000 C   0  0  0  0  0  0  0  0  0  0  0  0
    4.6407    2.7991    0.0000 C   0  0  0  0  0  0  0  0  0  0  0  0
    7.1160    2.0943    0.0000 C   0  0  1  0  0  0  0  0  0  0  0  0
    7.0102    2.9125    0.0000 C   0  0  0  0  0  0  0  0  0  0  0  0
    7.8775    1.7769    0.0000 N   0  0  0  0  0  0  0  0  0  0  0  0
    8.5332    2.2776    0.0000 C   0  0  0  0  0  0  0  0  0  0  0  0
    8.4273    3.0958    0.0000 O   0  0  0  0  0  0  0  0  0  0  0  0
    9.2946    1.9601    0.0000 N   0  0  0  0  0  0  0  0  0  0  0  0
    9.9503    2.4609    0.0000 C   0  0  0  0  0  0  0  0  0  0  0  0
   10.7118    2.1434    0.0000 C   0  0  0  0  0  0  0  0  0  0  0  0
   11.3674    2.6441    0.0000 Cl  0  0  0  0  0  0  0  0  0  0  0  0
    9.4005    1.1419    0.0000 N   0  0  0  0  0  0  0  0  0  0  0  0
   10.1619    0.8245    0.0000 O   0  0  0  0  0  0  0  0  0  0  0  0
    3.4000    1.3213    0.0000 H   0  0  0  0  0  0  0  0  0  0  0  0
    4.5249   -0.1516    0.0000 H   0  0  0  0  0  0  0  0  0  0  0  0
    3.5372    0.2602    0.0000 H   0  0  0  0  0  0  0  0  0  0  0  0
    4.9060    2.4715    0.0000 H   0  0  0  0  0  0  0  0  0  0  0  0
    5.8936    2.0597    0.0000 H   0  0  0  0  0  0  0  0  0  0  0  0
    4.7296    1.1558    0.0000 H   0  0  0  0  0  0  0  0  0  0  0  0
    4.0802    2.0062    0.0000 H   0  0  0  0  0  0  0  0  0  0  0  0
    5.0525    3.7867    0.0000 H   0  0  0  0  0  0  0  0  0  0  0  0
    3.5795    2.6619    0.0000 H   0  0  0  0  0  0  0  0  0  0  0  0
    3.9913    3.6495    0.0000 H   0  0  0  0  0  0  0  0  0  0  0  0
    6.1284    2.5060    0.0000 H   0  0  0  0  0  0  0  0  0  0  0  0
    7.8606    3.5619    0.0000 H   0  0  0  0  0  0  0  0  0  0  0  0
    6.0226    3.3242    0.0000 H   0  0  0  0  0  0  0  0  0  0  0  0
    6.8730    3.9737    0.0000 H   0  0  0  0  0  0  0  0  0  0  0  0
    8.0038    0.8005    0.0000 H   0  0  0  0  0  0  0  0  0  0  0  0
    9.8131    3.5221    0.0000 H   0  0  0  0  0  0  0  0  0  0  0  0
   10.8007    3.1103    0.0000 H   0  0  0  0  0  0  0  0  0  0  0  0
   10.8490    1.0822    0.0000 H   0  0  0  0  0  0  0  0  0  0  0  0
   11.6994    1.7317    0.0000 H   0  0  0  0  0  0  0  0  0  0  0  0
  1  2  1  0  0  0  0
  1 20  1  0  0  0  0
  1 21  1  0  0  0  0
  1 22  1  0  0  0  0
  2  3  1  0  0  0  0
  2 23  1  0  0  0  0
  2 24  1  0  0  0  0
  3  4  1  0  0  0  0
  4  5  2  0  0  0  0
  4  6  1  0  0  0  0
  4  9  1  0  0  0  0
  6  7  1  0  0  0  0
  7  8  1  0  0  0  0
  7 25  1  0  0  0  0
  7 26  1  0  0  0  0
  8 27  1  0  0  0  0
  8 28  1  0  0  0  0
  8 29  1  0  0  0  0
  9 10  1  0  0  0  0
  9 11  1  0  0  0  0
  9 30  1  6  0  0  0
 10 31  1  0  0  0  0
 10 32  1  0  0  0  0
 10 33  1  0  0  0  0
 11 12  1  0  0  0  0
 11 34  1  0  0  0  0
 12 13  2  0  0  0  0
 12 14  1  0  0  0  0
 14 15  1  0  0  0  0
 14 18  1  0  0  0  0
 15 16  1  0  0  0  0
 15 35  1  0  0  0  0
 15 36  1  0  0  0  0
 16 17  1  0  0  0  0
 16 37  1  0  0  0  0
 16 38  1  0  0  0  0
 18 19  2  0  0  0  0
M  END
>  <DRUGBANK_ID>
DB04106

>  <SECONDARY_ACCESSION_NUMBERS>
EXPT03300

>  <COMMON_NAME>
Fotemustine

>  <CAS_NUMBER>
92118-27-9

>  <UNII>
GQ7JL9P5I2

>  <SYNONYMS>
(+-)-Diethyl (1-(3-(2-chloroethyl)-3-nitrosoureido)ethyl)phosphonate; Diethyl-1-(3-(2-chloroethyl)-3-nitrosoureido)ethylphosphonate; Fotemustina; Fotemustine; Fotemustinum; Mustoforan

$$$$
