GNF
 OpenBabel10282417072D

 64 67  0  0  0  0  0  0  0  0999 V2000
    0.1403    1.4384    0.0000 O   0  0  0  0  0  0  0  0  0  0  0  0
   -0.1298    0.6589    0.0000 C   0  0  0  0  0  0  0  0  0  0  0  0
   -0.9399    0.5029    0.0000 C   0  0  1  0  0  0  0  0  0  0  0  0
   -1.4800    1.1266    0.0000 N   0  0  0  0  0  0  0  0  0  0  0  0
   -2.2901    0.9707    0.0000 C   0  0  0  0  0  0  0  0  0  0  0  0
   -2.6402    0.2236    0.0000 O   0  0  0  0  0  0  0  0  0  0  0  0
   -3.4588    0.3257    0.0000 C   0  0  0  0  0  0  0  0  0  0  0  0
   -4.0825   -0.2144    0.0000 C   0  0  0  0  0  0  0  0  0  0  0  0
   -4.8620    0.0556    0.0000 C   0  0  0  0  0  0  0  0  0  0  0  0
   -5.0179    0.8658    0.0000 C   0  0  0  0  0  0  0  0  0  0  0  0
   -4.3943    1.4059    0.0000 C   0  0  0  0  0  0  0  0  0  0  0  0
   -3.6147    1.1358    0.0000 C   0  0  0  0  0  0  0  0  0  0  0  0
   -2.8924    1.5344    0.0000 N   0  0  0  0  0  0  0  0  0  0  0  0
   -1.2099   -0.2766    0.0000 C   0  0  0  0  0  0  0  0  0  0  0  0
   -0.6698   -0.9003    0.0000 C   0  0  0  0  0  0  0  0  0  0  0  0
    0.1403   -0.7443    0.0000 C   0  0  0  0  0  0  0  0  0  0  0  0
    0.6804   -1.3680    0.0000 C   0  0  0  0  0  0  0  0  0  0  0  0
    0.4103   -2.1475    0.0000 C   0  0  0  0  0  0  0  0  0  0  0  0
   -0.3998   -2.3034    0.0000 C   0  0  0  0  0  0  0  0  0  0  0  0
   -0.9399   -1.6798    0.0000 C   0  0  0  0  0  0  0  0  0  0  0  0
    0.4103    0.0352    0.0000 N   0  0  0  0  0  0  0  0  0  0  0  0
    1.2205    0.1911    0.0000 C   0  0  0  0  0  0  0  0  0  0  0  0
    1.7606   -0.4325    0.0000 C   0  0  0  0  0  0  0  0  0  0  0  0
    2.5707   -0.2766    0.0000 N   0  0  0  0  0  0  0  0  0  0  0  0
    2.8407    0.5029    0.0000 C   0  0  0  0  0  0  0  0  0  0  0  0
    2.3006    1.1266    0.0000 C   0  0  0  0  0  0  0  0  0  0  0  0
    2.5707    1.9061    0.0000 C   0  0  0  0  0  0  0  0  0  0  0  0
    3.6509    0.6589    0.0000 C   0  0  0  0  0  0  0  0  0  0  0  0
    3.9209    1.4384    0.0000 C   0  0  0  0  0  0  0  0  0  0  0  0
    3.3808    2.0620    0.0000 C   0  0  0  0  0  0  0  0  0  0  0  0
    3.6509    2.8416    0.0000 O   0  0  0  0  0  0  0  0  0  0  0  0
    3.1108    3.4652    0.0000 C   0  0  0  0  0  0  0  0  0  0  0  0
   -0.7488    1.0547    0.0000 H   0  0  0  0  0  0  0  0  0  0  0  0
   -1.1577    2.0569    0.0000 H   0  0  0  0  0  0  0  0  0  0  0  0
   -3.8875   -1.2278    0.0000 H   0  0  0  0  0  0  0  0  0  0  0  0
   -5.6421   -0.6200    0.0000 H   0  0  0  0  0  0  0  0  0  0  0  0
   -5.9931    1.2036    0.0000 H   0  0  0  0  0  0  0  0  0  0  0  0
   -4.5893    2.4193    0.0000 H   0  0  0  0  0  0  0  0  0  0  0  0
   -2.2606   -0.4788    0.0000 H   0  0  0  0  0  0  0  0  0  0  0  0
   -1.5602   -1.2876    0.0000 H   0  0  0  0  0  0  0  0  0  0  0  0
    0.0307   -1.7091    0.0000 H   0  0  0  0  0  0  0  0  0  0  0  0
    0.4905    0.2668    0.0000 H   0  0  0  0  0  0  0  0  0  0  0  0
    1.1910   -0.5421    0.0000 H   0  0  0  0  0  0  0  0  0  0  0  0
    1.7311   -1.1659    0.0000 H   0  0  0  0  0  0  0  0  0  0  0  0
    1.3808   -2.1769    0.0000 H   0  0  0  0  0  0  0  0  0  0  0  0
    1.1107   -2.9564    0.0000 H   0  0  0  0  0  0  0  0  0  0  0  0
    0.0600   -3.1585    0.0000 H   0  0  0  0  0  0  0  0  0  0  0  0
   -0.7500   -3.3145    0.0000 H   0  0  0  0  0  0  0  0  0  0  0  0
   -1.4505   -2.5056    0.0000 H   0  0  0  0  0  0  0  0  0  0  0  0
   -1.9906   -1.8820    0.0000 H   0  0  0  0  0  0  0  0  0  0  0  0
   -1.2901   -2.6909    0.0000 H   0  0  0  0  0  0  0  0  0  0  0  0
    0.0880   -0.8951    0.0000 H   0  0  0  0  0  0  0  0  0  0  0  0
    1.5707    1.2022    0.0000 H   0  0  0  0  0  0  0  0  0  0  0  0
    2.2712    0.3933    0.0000 H   0  0  0  0  0  0  0  0  0  0  0  0
    1.4104   -1.4436    0.0000 H   0  0  0  0  0  0  0  0  0  0  0  0
    2.4611   -1.2413    0.0000 H   0  0  0  0  0  0  0  0  0  0  0  0
    3.2152   -1.0208    0.0000 H   0  0  0  0  0  0  0  0  0  0  0  0
    1.2872    0.9316    0.0000 H   0  0  0  0  0  0  0  0  0  0  0  0
    1.8951    2.6862    0.0000 H   0  0  0  0  0  0  0  0  0  0  0  0
    4.3266   -0.1212    0.0000 H   0  0  0  0  0  0  0  0  0  0  0  0
    4.9343    1.6335    0.0000 H   0  0  0  0  0  0  0  0  0  0  0  0
    3.4610    4.4763    0.0000 H   0  0  0  0  0  0  0  0  0  0  0  0
    2.0601    3.2629    0.0000 H   0  0  0  0  0  0  0  0  0  0  0  0
    2.4103    4.2740    0.0000 H   0  0  0  0  0  0  0  0  0  0  0  0
  1  2  2  0  0  0  0
  2  3  1  0  0  0  0
  2 21  1  0  0  0  0
  3  4  1  0  0  0  0
  3 14  1  0  0  0  0
  3 33  1  1  0  0  0
  4  5  1  0  0  0  0
  4 34  1  0  0  0  0
  5  6  1  0  0  0  0
  5 13  2  0  0  0  0
  6  7  1  0  0  0  0
  7  8  2  0  0  0  0
  7 12  1  0  0  0  0
  8  9  1  0  0  0  0
  8 35  1  0  0  0  0
  9 10  2  0  0  0  0
  9 36  1  0  0  0  0
 10 11  1  0  0  0  0
 10 37  1  0  0  0  0
 11 12  2  0  0  0  0
 11 38  1  0  0  0  0
 12 13  1  0  0  0  0
 14 15  1  0  0  0  0
 14 39  1  0  0  0  0
 14 40  1  0  0  0  0
 15 16  1  0  0  0  0
 15 20  1  0  0  0  0
 15 41  1  0  0  0  0
 16 17  1  0  0  0  0
 16 42  1  0  0  0  0
 16 43  1  0  0  0  0
 17 18  1  0  0  0  0
 17 44  1  0  0  0  0
 17 45  1  0  0  0  0
 18 19  1  0  0  0  0
 18 46  1  0  0  0  0
 18 47  1  0  0  0  0
 19 20  1  0  0  0  0
 19 48  1  0  0  0  0
 19 49  1  0  0  0  0
 20 50  1  0  0  0  0
 20 51  1  0  0  0  0
 21 22  1  0  0  0  0
 21 52  1  0  0  0  0
 22 23  1  0  0  0  0
 22 53  1  0  0  0  0
 22 54  1  0  0  0  0
 23 24  1  0  0  0  0
 23 55  1  0  0  0  0
 23 56  1  0  0  0  0
 24 25  1  0  0  0  0
 24 57  1  0  0  0  0
 25 26  1  0  0  0  0
 25 28  2  0  0  0  0
 26 27  2  0  0  0  0
 26 58  1  0  0  0  0
 27 30  1  0  0  0  0
 27 59  1  0  0  0  0
 28 29  1  0  0  0  0
 28 60  1  0  0  0  0
 29 30  2  0  0  0  0
 29 61  1  0  0  0  0
 30 31  1  0  0  0  0
 31 32  1  0  0  0  0
 32 62  1  0  0  0  0
 32 63  1  0  0  0  0
 32 64  1  0  0  0  0
M  END
>  <DRUGBANK_ID>
DB07839

>  <COMMON_NAME>
N~2~-1,3-BENZOXAZOL-2-YL-3-CYCLOHEXYL-N-{2-[(4-METHOXYPHENYL)AMINO]ETHYL}-L-ALANINAMIDE

$$$$
