
 OpenBabel10282417072D

 33 32  0  0  0  0  0  0  0  0999 V2000
   -2.1805    1.2964    0.0000 O   0  0  0  0  0  0  0  0  0  0  0  0
   -1.4660    1.7089    0.0000 C   0  0  0  0  0  0  0  0  0  0  0  0
   -0.7516    1.2964    0.0000 C   0  0  0  0  0  0  0  0  0  0  0  0
   -0.0371    1.7089    0.0000 C   0  0  2  0  0  0  0  0  0  0  0  0
    0.6774    1.2964    0.0000 C   0  0  0  0  0  0  0  0  0  0  0  0
    1.3918    1.7089    0.0000 N   0  0  0  0  0  0  0  0  0  0  0  0
    2.1063    1.2964    0.0000 C   0  0  0  0  0  0  0  0  0  0  0  0
    2.8208    1.7089    0.0000 C   0  0  0  0  0  0  0  0  0  0  0  0
    3.5353    1.2964    0.0000 C   0  0  0  0  0  0  0  0  0  0  0  0
    4.2497    1.7089    0.0000 O   0  0  0  0  0  0  0  0  0  0  0  0
    0.6774    0.4714    0.0000 O   0  0  0  0  0  0  0  0  0  0  0  0
   -0.0371    2.5339    0.0000 O   0  0  0  0  0  0  0  0  0  0  0  0
   -1.1641    0.5820    0.0000 C   0  0  0  0  0  0  0  0  0  0  0  0
   -0.3391    0.5820    0.0000 C   0  0  0  0  0  0  0  0  0  0  0  0
   -3.0205    1.7814    0.0000 H   0  0  0  0  0  0  0  0  0  0  0  0
   -1.4660    2.7789    0.0000 H   0  0  0  0  0  0  0  0  0  0  0  0
   -0.5393    2.2439    0.0000 H   0  0  0  0  0  0  0  0  0  0  0  0
   -0.9637    2.2439    0.0000 H   0  0  0  0  0  0  0  0  0  0  0  0
    1.3918    2.6934    0.0000 H   0  0  0  0  0  0  0  0  0  0  0  0
    2.1063    0.2264    0.0000 H   0  0  0  0  0  0  0  0  0  0  0  0
    3.0329    0.7614    0.0000 H   0  0  0  0  0  0  0  0  0  0  0  0
    2.8208    2.7789    0.0000 H   0  0  0  0  0  0  0  0  0  0  0  0
    3.7474    2.2439    0.0000 H   0  0  0  0  0  0  0  0  0  0  0  0
    3.5353    0.2264    0.0000 H   0  0  0  0  0  0  0  0  0  0  0  0
    4.4620    0.7614    0.0000 H   0  0  0  0  0  0  0  0  0  0  0  0
    5.0898    1.2239    0.0000 H   0  0  0  0  0  0  0  0  0  0  0  0
    0.8029    3.0189    0.0000 H   0  0  0  0  0  0  0  0  0  0  0  0
   -2.2341    0.5820    0.0000 H   0  0  0  0  0  0  0  0  0  0  0  0
   -0.6291   -0.3447    0.0000 H   0  0  0  0  0  0  0  0  0  0  0  0
   -1.6991   -0.3446    0.0000 H   0  0  0  0  0  0  0  0  0  0  0  0
   -0.8741   -0.3447    0.0000 H   0  0  0  0  0  0  0  0  0  0  0  0
    0.7309    0.5820    0.0000 H   0  0  0  0  0  0  0  0  0  0  0  0
    0.1959   -0.3446    0.0000 H   0  0  0  0  0  0  0  0  0  0  0  0
  1  2  1  0  0  0  0
  1 15  1  0  0  0  0
  2  3  1  0  0  0  0
  2 16  1  0  0  0  0
  2 17  1  0  0  0  0
  3  4  1  0  0  0  0
  3 13  1  0  0  0  0
  3 14  1  0  0  0  0
  4  5  1  0  0  0  0
  4 12  1  0  0  0  0
  4 18  1  6  0  0  0
  5  6  1  0  0  0  0
  5 11  2  0  0  0  0
  6  7  1  0  0  0  0
  6 19  1  0  0  0  0
  7  8  1  0  0  0  0
  7 20  1  0  0  0  0
  7 21  1  0  0  0  0
  8  9  1  0  0  0  0
  8 22  1  0  0  0  0
  8 23  1  0  0  0  0
  9 10  1  0  0  0  0
  9 24  1  0  0  0  0
  9 25  1  0  0  0  0
 10 26  1  0  0  0  0
 12 27  1  0  0  0  0
 13 28  1  0  0  0  0
 13 29  1  0  0  0  0
 13 30  1  0  0  0  0
 14 31  1  0  0  0  0
 14 32  1  0  0  0  0
 14 33  1  0  0  0  0
M  END
>  <DRUGBANK_ID>
DB09357

>  <COMMON_NAME>
Dexpanthenol

>  <CAS_NUMBER>
81-13-0

>  <UNII>
1O6C93RI7Z

>  <SYNONYMS>
(+)-Panthenol; (2R)-2,4-dihydroxy-N-(3-hydroxypropyl)-3,3-dimethylbutanamide; Bepanthen; Bepanthene; Bepantol; D-panthenol; D-panthenol 50; D-Pantothenol; D-Pantothenyl alcohol; D(+)-Panthenol; Dexpantenol; Dexpanthenol; Dexpanthenolum; Pantol; Pantothenyl alcohol; Provitamin B

$$$$
