
 OpenBabel10282417072D

 60 64  0  0  1  0  0  0  0  0999 V2000
    2.0701    1.1104    0.0000 C   0  0  0  0  0  0  0  0  0  0  0  0
    1.3556    0.6979    0.0000 C   0  0  0  0  0  0  0  0  0  0  0  0
    0.6411    1.1104    0.0000 C   0  0  0  0  0  0  0  0  0  0  0  0
    0.6411    1.9354    0.0000 C   0  0  0  0  0  0  0  0  0  0  0  0
    1.3556    2.3479    0.0000 C   0  0  0  0  0  0  0  0  0  0  0  0
    2.0701    1.9354    0.0000 C   0  0  0  0  0  0  0  0  0  0  0  0
    1.3556    3.1729    0.0000 O   0  0  0  0  0  0  0  0  0  0  0  0
    2.0701    3.5854    0.0000 C   0  0  0  0  0  0  0  0  0  0  0  0
    2.0701    4.4104    0.0000 C   0  0  0  0  0  0  0  0  0  0  0  0
    1.3556    4.8229    0.0000 C   0  0  0  0  0  0  0  0  0  0  0  0
    1.3556    5.6479    0.0000 C   0  0  0  0  0  0  0  0  0  0  0  0
    2.0701    6.0604    0.0000 C   0  0  0  0  0  0  0  0  0  0  0  0
    2.7845    5.6479    0.0000 C   0  0  0  0  0  0  0  0  0  0  0  0
    2.7845    4.8229    0.0000 C   0  0  0  0  0  0  0  0  0  0  0  0
    2.0701    6.8854    0.0000 C   0  0  0  0  0  0  0  0  0  0  0  0
    2.7845    7.2979    0.0000 N   0  0  0  0  0  0  0  0  0  0  0  0
    2.7845    8.1229    0.0000 C   0  0  0  0  0  0  0  0  0  0  0  0
    3.4990    8.5354    0.0000 C   0  0  0  0  0  0  0  0  0  0  0  0
    4.2135    8.1229    0.0000 O   0  0  0  0  0  0  0  0  0  0  0  0
    4.2135    7.2979    0.0000 C   0  0  0  0  0  0  0  0  0  0  0  0
    3.4990    6.8854    0.0000 C   0  0  0  0  0  0  0  0  0  0  0  0
   -0.1435    2.1904    0.0000 C   0  0  0  0  0  0  0  0  0  0  0  0
   -0.6284    1.5229    0.0000 N   0  0  0  0  0  0  0  0  0  0  0  0
   -0.1435    0.8555    0.0000 C   0  0  0  0  0  0  0  0  0  0  0  0
   -0.3984    0.0709    0.0000 O   0  0  0  0  0  0  0  0  0  0  0  0
   -1.4534    1.5229    0.0000 C   0  0  1  0  0  0  0  0  0  0  0  0
   -1.8659    0.8085    0.0000 C   0  0  0  0  0  0  0  0  0  0  0  0
   -2.6909    0.8085    0.0000 C   0  0  0  0  0  0  0  0  0  0  0  0
   -3.1034    1.5229    0.0000 C   0  0  0  0  0  0  0  0  0  0  0  0
   -3.9284    1.5229    0.0000 O   0  0  0  0  0  0  0  0  0  0  0  0
   -2.6909    2.2374    0.0000 N   0  0  0  0  0  0  0  0  0  0  0  0
   -1.8659    2.2374    0.0000 C   0  0  0  0  0  0  0  0  0  0  0  0
   -1.4534    2.9519    0.0000 O   0  0  0  0  0  0  0  0  0  0  0  0
    2.9638    0.5944    0.0000 H   0  0  0  0  0  0  0  0  0  0  0  0
    1.3556   -0.3341    0.0000 H   0  0  0  0  0  0  0  0  0  0  0  0
    2.9638    2.4514    0.0000 H   0  0  0  0  0  0  0  0  0  0  0  0
    2.9967    3.0504    0.0000 H   0  0  0  0  0  0  0  0  0  0  0  0
    2.9967    4.1204    0.0000 H   0  0  0  0  0  0  0  0  0  0  0  0
    0.4619    4.3069    0.0000 H   0  0  0  0  0  0  0  0  0  0  0  0
    0.4619    6.1639    0.0000 H   0  0  0  0  0  0  0  0  0  0  0  0
    3.6782    6.1639    0.0000 H   0  0  0  0  0  0  0  0  0  0  0  0
    3.6782    4.3069    0.0000 H   0  0  0  0  0  0  0  0  0  0  0  0
    1.1434    7.4204    0.0000 H   0  0  0  0  0  0  0  0  0  0  0  0
    2.0701    7.9554    0.0000 H   0  0  0  0  0  0  0  0  0  0  0  0
    1.8579    8.6579    0.0000 H   0  0  0  0  0  0  0  0  0  0  0  0
    2.7845    9.1929    0.0000 H   0  0  0  0  0  0  0  0  0  0  0  0
    3.4990    9.6054    0.0000 H   0  0  0  0  0  0  0  0  0  0  0  0
    4.4256    9.0704    0.0000 H   0  0  0  0  0  0  0  0  0  0  0  0
    5.1401    6.7629    0.0000 H   0  0  0  0  0  0  0  0  0  0  0  0
    4.2135    6.2279    0.0000 H   0  0  0  0  0  0  0  0  0  0  0  0
    3.4990    5.8154    0.0000 H   0  0  0  0  0  0  0  0  0  0  0  0
    2.5724    6.3504    0.0000 H   0  0  0  0  0  0  0  0  0  0  0  0
   -0.4741    3.2080    0.0000 H   0  0  0  0  0  0  0  0  0  0  0  0
   -1.2003    2.3578    0.0000 H   0  0  0  0  0  0  0  0  0  0  0  0
   -0.9184    0.5962    0.0000 H   0  0  0  0  0  0  0  0  0  0  0  0
   -1.3309   -0.1182    0.0000 H   0  0  0  0  0  0  0  0  0  0  0  0
   -2.4009   -0.1181    0.0000 H   0  0  0  0  0  0  0  0  0  0  0  0
   -3.2259   -0.1182    0.0000 H   0  0  0  0  0  0  0  0  0  0  0  0
   -3.7609    0.8085    0.0000 H   0  0  0  0  0  0  0  0  0  0  0  0
   -3.1832    3.0900    0.0000 H   0  0  0  0  0  0  0  0  0  0  0  0
  1  2  2  0  0  0  0
  1  6  1  0  0  0  0
  1 34  1  0  0  0  0
  2  3  1  0  0  0  0
  2 35  1  0  0  0  0
  3  4  2  0  0  0  0
  3 24  1  0  0  0  0
  4  5  1  0  0  0  0
  4 22  1  0  0  0  0
  5  6  2  0  0  0  0
  5  7  1  0  0  0  0
  6 36  1  0  0  0  0
  7  8  1  0  0  0  0
  8  9  1  0  0  0  0
  8 37  1  0  0  0  0
  8 38  1  0  0  0  0
  9 10  2  0  0  0  0
  9 14  1  0  0  0  0
 10 11  1  0  0  0  0
 10 39  1  0  0  0  0
 11 12  2  0  0  0  0
 11 40  1  0  0  0  0
 12 13  1  0  0  0  0
 12 15  1  0  0  0  0
 13 14  2  0  0  0  0
 13 41  1  0  0  0  0
 14 42  1  0  0  0  0
 15 16  1  0  0  0  0
 15 43  1  0  0  0  0
 15 44  1  0  0  0  0
 16 17  1  0  0  0  0
 16 21  1  0  0  0  0
 17 18  1  0  0  0  0
 17 45  1  0  0  0  0
 17 46  1  0  0  0  0
 18 19  1  0  0  0  0
 18 47  1  0  0  0  0
 18 48  1  0  0  0  0
 19 20  1  0  0  0  0
 20 21  1  0  0  0  0
 20 49  1  0  0  0  0
 20 50  1  0  0  0  0
 21 51  1  0  0  0  0
 21 52  1  0  0  0  0
 22 23  1  0  0  0  0
 22 53  1  0  0  0  0
 22 54  1  0  0  0  0
 23 24  1  0  0  0  0
 24 25  2  0  0  0  0
 26 23  1  0  0  0  0
 26 27  1  0  0  0  0
 26 32  1  0  0  0  0
 26 55  1  6  0  0  0
 27 28  1  0  0  0  0
 27 56  1  0  0  0  0
 27 57  1  0  0  0  0
 28 29  1  0  0  0  0
 28 58  1  0  0  0  0
 28 59  1  0  0  0  0
 29 30  2  0  0  0  0
 29 31  1  0  0  0  0
 31 32  1  0  0  0  0
 31 60  1  0  0  0  0
 32 33  2  0  0  0  0
M  END
>  <DRUGBANK_ID>
DB12101

>  <COMMON_NAME>
Iberdomide

>  <CAS_NUMBER>
1323403-33-3

>  <UNII>
8V66F27X44

>  <SYNONYMS>
(S)-3-(4-((4-(Morpholinomethyl)benzyl)oxy)-1-oxoisoindolin-2-yl)piperidine-2,6-dione; 2,6-Piperidinedione, 3-(1,3-dihydro-4-((4-(4-morpholinylmethyl)phenyl)methoxy)-1-oxo-2H-isoindol-2-yl)-, (3S)-

$$$$
