TF3
 OpenBabel10282417072D

 50 51  0  0  0  0  0  0  0  0999 V2000
    0.2814   -0.3225    0.0000 C   0  0  0  0  0  0  0  0  0  0  0  0
    0.9958    0.0900    0.0000 C   0  0  0  0  0  0  0  0  0  0  0  0
    0.2814   -1.1475    0.0000 C   0  0  0  0  0  0  0  0  0  0  0  0
   -0.4331    0.0900    0.0000 O   0  0  0  0  0  0  0  0  0  0  0  0
    1.7103   -0.3225    0.0000 C   0  0  0  0  0  0  0  0  0  0  0  0
    0.9958    0.9150    0.0000 Cl  0  0  0  0  0  0  0  0  0  0  0  0
    0.9958   -1.5600    0.0000 C   0  0  0  0  0  0  0  0  0  0  0  0
   -1.1476   -0.3225    0.0000 C   0  0  0  0  0  0  0  0  0  0  0  0
    1.7103   -1.1475    0.0000 C   0  0  0  0  0  0  0  0  0  0  0  0
   -1.8620    0.0900    0.0000 C   0  0  0  0  0  0  0  0  0  0  0  0
    2.4248   -1.5600    0.0000 C   0  0  0  0  0  0  0  0  0  0  0  0
   -2.5765   -0.3225    0.0000 C   0  0  0  0  0  0  0  0  0  0  0  0
   -1.8620    0.9150    0.0000 C   0  0  0  0  0  0  0  0  0  0  0  0
    3.1392   -1.1475    0.0000 C   0  0  0  0  0  0  0  0  0  0  0  0
   -3.2910    0.0900    0.0000 C   0  0  0  0  0  0  0  0  0  0  0  0
   -2.5765    1.3275    0.0000 C   0  0  0  0  0  0  0  0  0  0  0  0
    3.8537   -1.5600    0.0000 N   0  0  0  0  0  0  0  0  0  0  0  0
    3.1392   -0.3225    0.0000 O   0  0  0  0  0  0  0  0  0  0  0  0
   -3.2910    0.9150    0.0000 C   0  0  0  0  0  0  0  0  0  0  0  0
    4.5682   -1.1475    0.0000 C   0  0  0  0  0  0  0  0  0  0  0  0
   -4.0055    1.3275    0.0000 C   0  0  0  0  0  0  0  0  0  0  0  0
    5.2827   -1.5600    0.0000 C   0  0  0  0  0  0  0  0  0  0  0  0
   -4.0055    2.1525    0.0000 C   0  0  0  0  0  0  0  0  0  0  0  0
   -4.7199    0.9150    0.0000 C   0  0  0  0  0  0  0  0  0  0  0  0
    5.9971   -1.1475    0.0000 N   0  0  0  0  0  0  0  0  0  0  0  0
   -0.6123   -1.6635    0.0000 H   0  0  0  0  0  0  0  0  0  0  0  0
    2.6040    0.1935    0.0000 H   0  0  0  0  0  0  0  0  0  0  0  0
    0.9958   -2.5920    0.0000 H   0  0  0  0  0  0  0  0  0  0  0  0
   -1.1476   -1.3925    0.0000 H   0  0  0  0  0  0  0  0  0  0  0  0
   -2.0743   -0.8575    0.0000 H   0  0  0  0  0  0  0  0  0  0  0  0
    2.4248   -2.6300    0.0000 H   0  0  0  0  0  0  0  0  0  0  0  0
    3.3515   -2.0950    0.0000 H   0  0  0  0  0  0  0  0  0  0  0  0
   -2.5765   -1.3545    0.0000 H   0  0  0  0  0  0  0  0  0  0  0  0
   -0.9683    1.4310    0.0000 H   0  0  0  0  0  0  0  0  0  0  0  0
   -4.1847   -0.4260    0.0000 H   0  0  0  0  0  0  0  0  0  0  0  0
   -2.5765    2.3595    0.0000 H   0  0  0  0  0  0  0  0  0  0  0  0
    3.8537   -2.5445    0.0000 H   0  0  0  0  0  0  0  0  0  0  0  0
    4.5682   -0.0775    0.0000 H   0  0  0  0  0  0  0  0  0  0  0  0
    5.4948   -0.6125    0.0000 H   0  0  0  0  0  0  0  0  0  0  0  0
   -4.9322    1.8625    0.0000 H   0  0  0  0  0  0  0  0  0  0  0  0
    5.2827   -2.6300    0.0000 H   0  0  0  0  0  0  0  0  0  0  0  0
    6.2094   -2.0950    0.0000 H   0  0  0  0  0  0  0  0  0  0  0  0
   -3.0789    2.6875    0.0000 H   0  0  0  0  0  0  0  0  0  0  0  0
   -4.9321    2.6875    0.0000 H   0  0  0  0  0  0  0  0  0  0  0  0
   -4.0055    3.2225    0.0000 H   0  0  0  0  0  0  0  0  0  0  0  0
   -5.6466    1.4500    0.0000 H   0  0  0  0  0  0  0  0  0  0  0  0
   -4.7199   -0.1550    0.0000 H   0  0  0  0  0  0  0  0  0  0  0  0
   -5.6465    0.3800    0.0000 H   0  0  0  0  0  0  0  0  0  0  0  0
    6.8805   -1.6575    0.0000 H   0  0  0  0  0  0  0  0  0  0  0  0
    5.9971   -0.1275    0.0000 H   0  0  0  0  0  0  0  0  0  0  0  0
  1  2  2  0  0  0  0
  1  3  1  0  0  0  0
  1  4  1  0  0  0  0
  2  5  1  0  0  0  0
  2  6  1  0  0  0  0
  3  7  2  0  0  0  0
  3 26  1  0  0  0  0
  4  8  1  0  0  0  0
  5  9  2  0  0  0  0
  5 27  1  0  0  0  0
  7  9  1  0  0  0  0
  7 28  1  0  0  0  0
  8 10  1  0  0  0  0
  8 29  1  0  0  0  0
  8 30  1  0  0  0  0
  9 11  1  0  0  0  0
 10 12  2  0  0  0  0
 10 13  1  0  0  0  0
 11 14  1  0  0  0  0
 11 31  1  0  0  0  0
 11 32  1  0  0  0  0
 12 15  1  0  0  0  0
 12 33  1  0  0  0  0
 13 16  2  0  0  0  0
 13 34  1  0  0  0  0
 14 17  1  0  0  0  0
 14 18  2  0  0  0  0
 15 19  2  0  0  0  0
 15 35  1  0  0  0  0
 16 19  1  0  0  0  0
 16 36  1  0  0  0  0
 17 20  1  0  0  0  0
 17 37  1  0  0  0  0
 19 21  1  0  0  0  0
 20 22  1  0  0  0  0
 20 38  1  0  0  0  0
 20 39  1  0  0  0  0
 21 23  1  0  0  0  0
 21 24  1  0  0  0  0
 21 40  1  0  0  0  0
 22 25  1  0  0  0  0
 22 41  1  0  0  0  0
 22 42  1  0  0  0  0
 23 43  1  0  0  0  0
 23 44  1  0  0  0  0
 23 45  1  0  0  0  0
 24 46  1  0  0  0  0
 24 47  1  0  0  0  0
 24 48  1  0  0  0  0
 25 49  1  0  0  0  0
 25 50  1  0  0  0  0
M  END
>  <DRUGBANK_ID>
DB08610

>  <COMMON_NAME>
N-(2-AMINOETHYL)-2-{3-CHLORO-4-[(4-ISOPROPYLBENZYL)OXY]PHENYL} ACETAMIDE

$$$$
