
 OpenBabel10282417072D

 16 15  0  0  1  0  0  0  0  0999 V2000
   -0.4903   -4.1950    0.0000 O   0  0  0  0  0  0  0  0  0  0  0  0
   -0.4903   -3.3700    0.0000 C   0  0  0  0  0  0  0  0  0  0  0  0
   -1.2048   -2.9575    0.0000 C   0  0  0  0  0  0  0  0  0  0  0  0
   -1.9193   -3.3700    0.0000 C   0  0  0  0  0  0  0  0  0  0  0  0
   -2.6337   -2.9575    0.0000 C   0  0  0  0  0  0  0  0  0  0  0  0
   -2.6337   -2.1325    0.0000 O   0  0  0  0  0  0  0  0  0  0  0  0
    0.2241   -2.9575    0.0000 C   0  0  0  0  0  0  0  0  0  0  0  0
    0.2241   -2.1325    0.0000 O   0  0  0  0  0  0  0  0  0  0  0  0
    0.9385   -3.3701    0.0000 O   0  0  0  0  0  0  0  0  0  0  0  0
   -3.3481   -3.3700    0.0000 O   0  0  0  0  0  0  0  0  0  0  0  0
   -1.2048   -1.8875    0.0000 H   0  0  0  0  0  0  0  0  0  0  0  0
   -2.1314   -2.4225    0.0000 H   0  0  0  0  0  0  0  0  0  0  0  0
   -1.9193   -4.4400    0.0000 H   0  0  0  0  0  0  0  0  0  0  0  0
   -2.8460   -3.9050    0.0000 H   0  0  0  0  0  0  0  0  0  0  0  0
    0.9384   -4.3071    0.0000 H   0  0  0  0  0  0  0  0  0  0  0  0
   -4.1596   -2.9015    0.0000 H   0  0  0  0  0  0  0  0  0  0  0  0
  2  3  1  0  0  0  0
  2  7  1  0  0  0  0
  2  1  2  0  0  0  0
  3  4  1  0  0  0  0
  3 11  1  0  0  0  0
  3 12  1  0  0  0  0
  4  5  1  0  0  0  0
  4 13  1  0  0  0  0
  4 14  1  0  0  0  0
  5  6  2  0  0  0  0
  5 10  1  0  0  0  0
  7  8  2  0  0  0  0
  7  9  1  0  0  0  0
  9 15  1  0  0  0  0
 10 16  1  0  0  0  0
M  END
>  <DRUGBANK_ID>
DB08845

>  <SECONDARY_ACCESSION_NUMBERS>
DB02926; DB03806; EXPT00137

>  <COMMON_NAME>
Oxogluric acid

>  <CAS_NUMBER>
328-50-7

>  <UNII>
8ID597Z82X

>  <SYNONYMS>
2-Ketoglutaric acid; 2-oxoglutaric acid; 2-oxopentanedioic acid; alpha-Ketoglutaric acid; Ketoglutaric acid; Oxoglurate; Î±-Ketoglutarate

$$$$
