
 OpenBabel10282417072D

 32 32  0  0  0  0  0  0  0  0999 V2000
    2.5006   -2.4750    0.0000 C   0  0  0  0  0  0  0  0  0  0  0  0
    1.0717   -2.4750    0.0000 C   0  0  0  0  0  0  0  0  0  0  0  0
   -0.3572    1.6500    0.0000 C   0  0  0  0  0  0  0  0  0  0  0  0
   -1.0717    1.2375    0.0000 C   0  0  0  0  0  0  0  0  0  0  0  0
    1.7861    1.2375    0.0000 C   0  0  0  0  0  0  0  0  0  0  0  0
    1.7861   -1.2375    0.0000 C   0  0  0  0  0  0  0  0  0  0  0  0
    0.3572    1.2375    0.0000 C   0  0  0  0  0  0  0  0  0  0  0  0
    1.0717    1.6500    0.0000 C   0  0  0  0  0  0  0  0  0  0  0  0
    1.7861    0.4125    0.0000 C   0  0  0  0  0  0  0  0  0  0  0  0
   -1.7861    1.6500    0.0000 C   0  0  0  0  0  0  0  0  0  0  0  0
    0.3572    0.4125    0.0000 C   0  0  0  0  0  0  0  0  0  0  0  0
    1.0717    0.0000    0.0000 C   0  0  0  0  0  0  0  0  0  0  0  0
    1.0717    2.4750    0.0000 I   0  0  0  0  0  0  0  0  0  0  0  0
    2.5006    0.0000    0.0000 I   0  0  0  0  0  0  0  0  0  0  0  0
   -0.3572    0.0000    0.0000 I   0  0  0  0  0  0  0  0  0  0  0  0
    1.0717   -0.8250    0.0000 N   0  0  0  0  0  0  0  0  0  0  0  0
    1.7861   -2.0625    0.0000 N   0  0  0  0  0  0  0  0  0  0  0  0
   -2.5006    1.2375    0.0000 O   0  0  0  0  0  0  0  0  0  0  0  0
   -1.7861    2.4750    0.0000 O   0  0  0  0  0  0  0  0  0  0  0  0
    2.5006   -3.5450    0.0000 H   0  0  0  0  0  0  0  0  0  0  0  0
    3.4272   -1.9400    0.0000 H   0  0  0  0  0  0  0  0  0  0  0  0
    3.4273   -3.0100    0.0000 H   0  0  0  0  0  0  0  0  0  0  0  0
    0.1450   -1.9400    0.0000 H   0  0  0  0  0  0  0  0  0  0  0  0
    1.0717   -3.5450    0.0000 H   0  0  0  0  0  0  0  0  0  0  0  0
    0.1451   -3.0100    0.0000 H   0  0  0  0  0  0  0  0  0  0  0  0
   -0.3572    2.7200    0.0000 H   0  0  0  0  0  0  0  0  0  0  0  0
    0.5695    2.1850    0.0000 H   0  0  0  0  0  0  0  0  0  0  0  0
   -1.0717    0.1675    0.0000 H   0  0  0  0  0  0  0  0  0  0  0  0
   -1.9984    0.7025    0.0000 H   0  0  0  0  0  0  0  0  0  0  0  0
    2.6798    1.7535    0.0000 H   0  0  0  0  0  0  0  0  0  0  0  0
    2.6798   -0.7215    0.0000 H   0  0  0  0  0  0  0  0  0  0  0  0
   -0.9746    2.9435    0.0000 H   0  0  0  0  0  0  0  0  0  0  0  0
  1 20  1  0  0  0  0
  1 21  1  0  0  0  0
  1 22  1  0  0  0  0
  2 23  1  0  0  0  0
  2 24  1  0  0  0  0
  2 25  1  0  0  0  0
  3 26  1  0  0  0  0
  3 27  1  0  0  0  0
  4  3  1  0  0  0  0
  4 28  1  0  0  0  0
  4 29  1  0  0  0  0
  5 30  1  0  0  0  0
  6 31  1  0  0  0  0
  7  3  1  0  0  0  0
  8  5  2  0  0  0  0
  8  7  1  0  0  0  0
  9  5  1  0  0  0  0
 10  4  1  0  0  0  0
 11  7  2  0  0  0  0
 12  9  2  0  0  0  0
 12 11  1  0  0  0  0
 13  8  1  0  0  0  0
 14  9  1  0  0  0  0
 15 11  1  0  0  0  0
 16  6  2  3  0  0  0
 16 12  1  0  0  0  0
 17  1  1  0  0  0  0
 17  2  1  0  0  0  0
 17  6  1  0  0  0  0
 18 10  2  0  0  0  0
 19 10  1  0  0  0  0
 19 32  1  0  0  0  0
M  END
>  <DRUGBANK_ID>
DB09333

>  <COMMON_NAME>
Iopodic acid

>  <CAS_NUMBER>
5587-89-3

>  <UNII>
F604ZKI910

>  <SYNONYMS>
Ipodate

$$$$
