
 OpenBabel10282417072D

 33 33  0  0  0  0  0  0  0  0999 V2000
    5.0013   -0.4125    0.0000 C   0  0  0  0  0  0  0  0  0  0  0  0
    5.7158   -0.8250    0.0000 C   0  0  0  0  0  0  0  0  0  0  0  0
    6.4302   -0.4125    0.0000 C   0  0  0  0  0  0  0  0  0  0  0  0
   12.8605   -0.8250    0.0000 C   0  0  0  0  0  0  0  0  0  0  0  0
   12.1460   -0.4125    0.0000 C   0  0  0  0  0  0  0  0  0  0  0  0
   12.8605   -1.6500    0.0000 C   0  0  0  0  0  0  0  0  0  0  0  0
    7.1447   -0.8250    0.0000 C   0  0  0  0  0  0  0  0  0  0  0  0
    8.5737   -0.8250    0.0000 C   0  0  0  0  0  0  0  0  0  0  0  0
    9.2881   -0.4125    0.0000 C   0  0  0  0  0  0  0  0  0  0  0  0
   11.4315   -1.6500    0.0000 C   0  0  0  0  0  0  0  0  0  0  0  0
   11.4315   -0.8250    0.0000 C   0  0  0  0  0  0  0  0  0  0  0  0
   10.7171   -0.4125    0.0000 C   0  0  0  0  0  0  0  0  0  0  0  0
   12.1460   -2.0625    0.0000 N   0  0  0  0  0  0  0  0  0  0  0  0
   10.7171    0.4125    0.0000 O   0  0  0  0  0  0  0  0  0  0  0  0
    7.8592   -0.4125    0.0000 O   0  0  0  0  0  0  0  0  0  0  0  0
   10.0026   -0.8250    0.0000 O   0  0  0  0  0  0  0  0  0  0  0  0
    5.0013    0.6575    0.0000 H   0  0  0  0  0  0  0  0  0  0  0  0
    4.0747   -0.9475    0.0000 H   0  0  0  0  0  0  0  0  0  0  0  0
    4.0746    0.1225    0.0000 H   0  0  0  0  0  0  0  0  0  0  0  0
    5.7158   -1.8950    0.0000 H   0  0  0  0  0  0  0  0  0  0  0  0
    6.6425   -1.3600    0.0000 H   0  0  0  0  0  0  0  0  0  0  0  0
    6.4302    0.6575    0.0000 H   0  0  0  0  0  0  0  0  0  0  0  0
    7.3568    0.1225    0.0000 H   0  0  0  0  0  0  0  0  0  0  0  0
   13.7542   -0.3090    0.0000 H   0  0  0  0  0  0  0  0  0  0  0  0
   12.1460    0.6195    0.0000 H   0  0  0  0  0  0  0  0  0  0  0  0
   13.7542   -2.1660    0.0000 H   0  0  0  0  0  0  0  0  0  0  0  0
    7.1447   -1.8950    0.0000 H   0  0  0  0  0  0  0  0  0  0  0  0
    8.0713   -1.3600    0.0000 H   0  0  0  0  0  0  0  0  0  0  0  0
    8.5737   -1.8950    0.0000 H   0  0  0  0  0  0  0  0  0  0  0  0
    7.6471   -1.3600    0.0000 H   0  0  0  0  0  0  0  0  0  0  0  0
    9.2881    0.6575    0.0000 H   0  0  0  0  0  0  0  0  0  0  0  0
   10.2147    0.1225    0.0000 H   0  0  0  0  0  0  0  0  0  0  0  0
   10.5378   -2.1660    0.0000 H   0  0  0  0  0  0  0  0  0  0  0  0
  1 17  1  0  0  0  0
  1 18  1  0  0  0  0
  1 19  1  0  0  0  0
  2  1  1  0  0  0  0
  2 20  1  0  0  0  0
  2 21  1  0  0  0  0
  3  2  1  0  0  0  0
  3 22  1  0  0  0  0
  3 23  1  0  0  0  0
  4 24  1  0  0  0  0
  5  4  2  0  0  0  0
  5 25  1  0  0  0  0
  6  4  1  0  0  0  0
  6 26  1  0  0  0  0
  7  3  1  0  0  0  0
  7 27  1  0  0  0  0
  7 28  1  0  0  0  0
  8 29  1  0  0  0  0
  8 30  1  0  0  0  0
  9  8  1  0  0  0  0
  9 31  1  0  0  0  0
  9 32  1  0  0  0  0
 10 33  1  0  0  0  0
 11  5  1  0  0  0  0
 11 10  2  0  0  0  0
 12 11  1  0  0  0  0
 13  6  2  0  0  0  0
 13 10  1  0  0  0  0
 14 12  2  0  0  0  0
 15  7  1  0  0  0  0
 15  8  1  0  0  0  0
 16  9  1  0  0  0  0
 16 12  1  0  0  0  0
M  END
>  <DRUGBANK_ID>
DB12911

>  <COMMON_NAME>
Nicoboxil

>  <CAS_NUMBER>
13912-80-6

>  <UNII>
GSD5B9US0W

>  <SYNONYMS>
beta-Butoxyethyl nicotinate; Nicoboxil

$$$$
