
 OpenBabel10282417072D

  1  0  0  0  0  0  0  0  0  0999 V2000
    0.0000    0.0000    0.0000 Na  0  3  0  0  0  0  0  0  0  0  0  0
M  CHG  1   1   1
M  END
>  <DRUGBANK_ID>
DB14516

>  <COMMON_NAME>
Sodium cation

>  <CAS_NUMBER>
17341-25-2

>  <UNII>
LYR4M0NH37

>  <SYNONYMS>
Sodium (ion); Sodium ion; sodium(1+)

$$$$
