BZN
 OpenBabel10282417072D

 61 63  0  0  0  0  0  0  0  0999 V2000
    0.8038   -0.4054    0.0000 C   0  0  0  0  0  0  0  0  0  0  0  0
    0.0501   -0.0698    0.0000 C   0  0  1  0  0  0  0  0  0  0  0  0
    0.1363    0.7507    0.0000 C   0  0  2  0  0  0  0  0  0  0  0  0
    0.9433    0.9222    0.0000 C   0  0  0  0  0  0  0  0  0  0  0  0
   -0.4768    1.3027    0.0000 C   0  0  0  0  0  0  0  0  0  0  0  0
    1.3558    0.2077    0.0000 N   0  0  0  0  0  0  0  0  0  0  0  0
   -0.6644   -0.4823    0.0000 C   0  0  0  0  0  0  0  0  0  0  0  0
   -0.6644   -1.3073    0.0000 N   0  0  0  0  0  0  0  0  0  0  0  0
   -1.3789   -1.7198    0.0000 C   0  0  0  0  0  0  0  0  0  0  0  0
   -1.3789   -2.5448    0.0000 C   0  0  0  0  0  0  0  0  0  0  0  0
   -0.6644   -2.9573    0.0000 C   0  0  0  0  0  0  0  0  0  0  0  0
   -2.0933   -2.9573    0.0000 C   0  0  0  0  0  0  0  0  0  0  0  0
    0.0501   -1.7198    0.0000 S   0  0  0  0  0  0  0  0  0  0  0  0
   -0.3624   -2.4343    0.0000 O   0  0  0  0  0  0  0  0  0  0  0  0
    0.4626   -1.0054    0.0000 O   0  0  0  0  0  0  0  0  0  0  0  0
    0.7646   -2.1323    0.0000 C   0  0  0  0  0  0  0  0  0  0  0  0
    1.4790   -1.7198    0.0000 C   0  0  0  0  0  0  0  0  0  0  0  0
    2.1935   -2.1323    0.0000 C   0  0  0  0  0  0  0  0  0  0  0  0
    2.1935   -2.9573    0.0000 C   0  0  0  0  0  0  0  0  0  0  0  0
    1.4790   -3.3698    0.0000 C   0  0  0  0  0  0  0  0  0  0  0  0
    0.7646   -2.9573    0.0000 C   0  0  0  0  0  0  0  0  0  0  0  0
   -0.3053    2.1097    0.0000 O   0  0  0  0  0  0  0  0  0  0  0  0
   -0.9183    2.6617    0.0000 C   0  0  0  0  0  0  0  0  0  0  0  0
   -0.7468    3.4687    0.0000 C   0  0  0  0  0  0  0  0  0  0  0  0
   -1.3599    4.0207    0.0000 C   0  0  0  0  0  0  0  0  0  0  0  0
   -1.1884    4.8277    0.0000 C   0  0  0  0  0  0  0  0  0  0  0  0
   -0.4038    5.0826    0.0000 C   0  0  0  0  0  0  0  0  0  0  0  0
    0.2093    4.5306    0.0000 C   0  0  0  0  0  0  0  0  0  0  0  0
    0.0378    3.7236    0.0000 C   0  0  0  0  0  0  0  0  0  0  0  0
    0.0806   -0.6530    0.0000 H   0  0  0  0  0  0  0  0  0  0  0  0
   -0.4088    0.5414    0.0000 H   0  0  0  0  0  0  0  0  0  0  0  0
    1.0263   -1.4520    0.0000 H   0  0  0  0  0  0  0  0  0  0  0  0
    1.8373   -0.6823    0.0000 H   0  0  0  0  0  0  0  0  0  0  0  0
    1.3785    1.8997    0.0000 H   0  0  0  0  0  0  0  0  0  0  0  0
    2.0118    0.9782    0.0000 H   0  0  0  0  0  0  0  0  0  0  0  0
   -1.4944    0.9720    0.0000 H   0  0  0  0  0  0  0  0  0  0  0  0
   -1.2720    2.0186    0.0000 H   0  0  0  0  0  0  0  0  0  0  0  0
    2.3702    0.1011    0.0000 H   0  0  0  0  0  0  0  0  0  0  0  0
   -1.5910    0.0527    0.0000 H   0  0  0  0  0  0  0  0  0  0  0  0
   -1.5910   -1.0173    0.0000 H   0  0  0  0  0  0  0  0  0  0  0  0
   -2.3055   -1.1848    0.0000 H   0  0  0  0  0  0  0  0  0  0  0  0
   -2.3055   -2.2548    0.0000 H   0  0  0  0  0  0  0  0  0  0  0  0
   -1.3789   -3.6148    0.0000 H   0  0  0  0  0  0  0  0  0  0  0  0
   -0.6644   -4.0273    0.0000 H   0  0  0  0  0  0  0  0  0  0  0  0
    0.2622   -2.4223    0.0000 H   0  0  0  0  0  0  0  0  0  0  0  0
    0.2623   -3.4923    0.0000 H   0  0  0  0  0  0  0  0  0  0  0  0
   -3.0200   -2.4223    0.0000 H   0  0  0  0  0  0  0  0  0  0  0  0
   -2.0933   -4.0273    0.0000 H   0  0  0  0  0  0  0  0  0  0  0  0
   -3.0199   -3.4923    0.0000 H   0  0  0  0  0  0  0  0  0  0  0  0
    1.4790   -0.6878    0.0000 H   0  0  0  0  0  0  0  0  0  0  0  0
    3.0872   -1.6163    0.0000 H   0  0  0  0  0  0  0  0  0  0  0  0
    3.0872   -3.4733    0.0000 H   0  0  0  0  0  0  0  0  0  0  0  0
    1.4790   -4.4018    0.0000 H   0  0  0  0  0  0  0  0  0  0  0  0
   -0.1291   -3.4733    0.0000 H   0  0  0  0  0  0  0  0  0  0  0  0
   -1.9359    2.3311    0.0000 H   0  0  0  0  0  0  0  0  0  0  0  0
   -1.7135    3.3777    0.0000 H   0  0  0  0  0  0  0  0  0  0  0  0
   -2.3414    3.7018    0.0000 H   0  0  0  0  0  0  0  0  0  0  0  0
   -1.9553    5.5182    0.0000 H   0  0  0  0  0  0  0  0  0  0  0  0
   -0.1892    6.0920    0.0000 H   0  0  0  0  0  0  0  0  0  0  0  0
    1.1908    4.8495    0.0000 H   0  0  0  0  0  0  0  0  0  0  0  0
    0.8047    3.0331    0.0000 H   0  0  0  0  0  0  0  0  0  0  0  0
  1  2  1  0  0  0  0
  1  6  1  0  0  0  0
  1 32  1  0  0  0  0
  1 33  1  0  0  0  0
  2  3  1  0  0  0  0
  2  7  1  0  0  0  0
  2 30  1  1  0  0  0
  3  4  1  0  0  0  0
  3  5  1  0  0  0  0
  3 31  1  6  0  0  0
  4  6  1  0  0  0  0
  4 34  1  0  0  0  0
  4 35  1  0  0  0  0
  5 22  1  0  0  0  0
  5 36  1  0  0  0  0
  5 37  1  0  0  0  0
  6 38  1  0  0  0  0
  7  8  1  0  0  0  0
  7 39  1  0  0  0  0
  7 40  1  0  0  0  0
  8  9  1  0  0  0  0
  8 13  1  0  0  0  0
  9 10  1  0  0  0  0
  9 41  1  0  0  0  0
  9 42  1  0  0  0  0
 10 11  1  0  0  0  0
 10 12  1  0  0  0  0
 10 43  1  0  0  0  0
 11 44  1  0  0  0  0
 11 45  1  0  0  0  0
 11 46  1  0  0  0  0
 12 47  1  0  0  0  0
 12 48  1  0  0  0  0
 12 49  1  0  0  0  0
 13 14  2  0  0  0  0
 13 15  2  0  0  0  0
 13 16  1  0  0  0  0
 16 17  2  0  0  0  0
 16 21  1  0  0  0  0
 17 18  1  0  0  0  0
 17 50  1  0  0  0  0
 18 19  2  0  0  0  0
 18 51  1  0  0  0  0
 19 20  1  0  0  0  0
 19 52  1  0  0  0  0
 20 21  2  0  0  0  0
 20 53  1  0  0  0  0
 21 54  1  0  0  0  0
 22 23  1  0  0  0  0
 23 24  1  0  0  0  0
 23 55  1  0  0  0  0
 23 56  1  0  0  0  0
 24 25  2  0  0  0  0
 24 29  1  0  0  0  0
 25 26  1  0  0  0  0
 25 57  1  0  0  0  0
 26 27  2  0  0  0  0
 26 58  1  0  0  0  0
 27 28  1  0  0  0  0
 27 59  1  0  0  0  0
 28 29  2  0  0  0  0
 28 60  1  0  0  0  0
 29 61  1  0  0  0  0
M  END
>  <DRUGBANK_ID>
DB07505

>  <COMMON_NAME>
N-({(3R,4R)-4-[(benzyloxy)methyl]pyrrolidin-3-yl}methyl)-N-(2-methylpropyl)benzenesulfonamide

$$$$
