
 OpenBabel10282417072D

 58 60  0  0  1  0  0  0  0  0999 V2000
    0.0000   -4.9500    0.0000 O   0  0  0  0  0  0  0  0  0  0  0  0
   -0.7145   -5.3625    0.0000 C   0  0  0  0  0  0  0  0  0  0  0  0
   -1.4289   -4.9500    0.0000 O   0  0  0  0  0  0  0  0  0  0  0  0
   -0.7145   -6.1875    0.0000 C   0  0  1  0  0  0  0  0  0  0  0  0
   -1.4289   -6.6000    0.0000 N   0  0  0  0  0  0  0  0  0  0  0  0
   -2.1434   -6.1875    0.0000 C   0  0  0  0  0  0  0  0  0  0  0  0
   -2.1434   -5.3625    0.0000 O   0  0  0  0  0  0  0  0  0  0  0  0
   -2.8579   -6.6000    0.0000 C   0  0  0  0  0  0  0  0  0  0  0  0
   -2.8579   -7.4250    0.0000 C   0  0  0  0  0  0  0  0  0  0  0  0
   -3.5724   -7.8375    0.0000 C   0  0  0  0  0  0  0  0  0  0  0  0
   -4.2868   -7.4250    0.0000 C   0  0  0  0  0  0  0  0  0  0  0  0
   -4.2868   -6.6000    0.0000 C   0  0  0  0  0  0  0  0  0  0  0  0
   -3.5724   -6.1875    0.0000 C   0  0  0  0  0  0  0  0  0  0  0  0
   -5.0013   -7.8375    0.0000 C   0  0  3  0  0  0  0  0  0  0  0  0
   -5.0013   -8.6625    0.0000 C   0  0  0  0  0  0  0  0  0  0  0  0
   -5.7158   -9.0750    0.0000 C   0  0  0  0  0  0  0  0  0  0  0  0
   -6.4302   -9.4875    0.0000 C   0  0  0  0  0  0  0  0  0  0  0  0
   -5.7158   -7.4250    0.0000 C   0  0  0  0  0  0  0  0  0  0  0  0
   -6.4302   -7.8375    0.0000 C   0  0  0  0  0  0  0  0  0  0  0  0
   -7.1447   -7.4250    0.0000 N   0  0  0  0  0  0  0  0  0  0  0  0
   -7.8592   -7.8375    0.0000 C   0  0  0  0  0  0  0  0  0  0  0  0
   -7.8592   -8.6625    0.0000 C   0  0  0  0  0  0  0  0  0  0  0  0
   -7.1447   -9.0750    0.0000 N   0  0  0  0  0  0  0  0  0  0  0  0
   -6.4302   -8.6625    0.0000 C   0  0  0  0  0  0  0  0  0  0  0  0
   -8.5737   -9.0750    0.0000 N   0  0  0  0  0  0  0  0  0  0  0  0
   -9.2881   -8.6625    0.0000 C   0  0  0  0  0  0  0  0  0  0  0  0
   -9.2881   -7.8375    0.0000 N   0  0  0  0  0  0  0  0  0  0  0  0
   -8.5737   -7.4250    0.0000 C   0  0  0  0  0  0  0  0  0  0  0  0
   -8.5737   -6.6000    0.0000 N   0  0  0  0  0  0  0  0  0  0  0  0
  -10.0026   -9.0750    0.0000 N   0  0  0  0  0  0  0  0  0  0  0  0
    0.0000   -6.6000    0.0000 C   0  0  0  0  0  0  0  0  0  0  0  0
    0.7145   -6.1875    0.0000 C   0  0  0  0  0  0  0  0  0  0  0  0
    1.4289   -6.6000    0.0000 C   0  0  0  0  0  0  0  0  0  0  0  0
    2.1434   -6.1875    0.0000 O   0  0  0  0  0  0  0  0  0  0  0  0
    1.4289   -7.4250    0.0000 O   0  0  0  0  0  0  0  0  0  0  0  0
   -1.4289   -4.0130    0.0000 H   0  0  0  0  0  0  0  0  0  0  0  0
   -1.6412   -5.6525    0.0000 H   0  0  0  0  0  0  0  0  0  0  0  0
   -1.4289   -7.5845    0.0000 H   0  0  0  0  0  0  0  0  0  0  0  0
   -1.9642   -7.9410    0.0000 H   0  0  0  0  0  0  0  0  0  0  0  0
   -3.5724   -8.8695    0.0000 H   0  0  0  0  0  0  0  0  0  0  0  0
   -5.1805   -6.0840    0.0000 H   0  0  0  0  0  0  0  0  0  0  0  0
   -3.5724   -5.1555    0.0000 H   0  0  0  0  0  0  0  0  0  0  0  0
   -4.0747   -8.3725    0.0000 H   0  0  0  0  0  0  0  0  0  0  0  0
   -4.0747   -9.1975    0.0000 H   0  0  0  0  0  0  0  0  0  0  0  0
   -5.0013   -9.7325    0.0000 H   0  0  0  0  0  0  0  0  0  0  0  0
   -7.2910   -9.9845    0.0000 H   0  0  0  0  0  0  0  0  0  0  0  0
   -5.7158   -6.3550    0.0000 H   0  0  0  0  0  0  0  0  0  0  0  0
   -6.6425   -6.8900    0.0000 H   0  0  0  0  0  0  0  0  0  0  0  0
   -5.5365   -9.1785    0.0000 H   0  0  0  0  0  0  0  0  0  0  0  0
   -7.7211   -6.1077    0.0000 H   0  0  0  0  0  0  0  0  0  0  0  0
   -9.4263   -6.1077    0.0000 H   0  0  0  0  0  0  0  0  0  0  0  0
  -10.8552   -8.5827    0.0000 H   0  0  0  0  0  0  0  0  0  0  0  0
  -10.0026  -10.0595    0.0000 H   0  0  0  0  0  0  0  0  0  0  0  0
    0.0000   -7.6700    0.0000 H   0  0  0  0  0  0  0  0  0  0  0  0
    0.9266   -7.1350    0.0000 H   0  0  0  0  0  0  0  0  0  0  0  0
    0.7145   -5.1175    0.0000 H   0  0  0  0  0  0  0  0  0  0  0  0
    1.6412   -5.6525    0.0000 H   0  0  0  0  0  0  0  0  0  0  0  0
    0.6174   -7.8935    0.0000 H   0  0  0  0  0  0  0  0  0  0  0  0
  1  2  2  0  0  0  0
  2  3  1  0  0  0  0
  2  4  1  0  0  0  0
  3 36  1  0  0  0  0
  4  5  1  0  0  0  0
  4 31  1  0  0  0  0
  4 37  1  1  0  0  0
  5  6  1  0  0  0  0
  5 38  1  0  0  0  0
  6  7  2  0  0  0  0
  6  8  1  0  0  0  0
  8  9  2  0  0  0  0
  8 13  1  0  0  0  0
  9 10  1  0  0  0  0
  9 39  1  0  0  0  0
 10 11  2  0  0  0  0
 10 40  1  0  0  0  0
 11 12  1  0  0  0  0
 11 14  1  0  0  0  0
 12 13  2  0  0  0  0
 12 41  1  0  0  0  0
 13 42  1  0  0  0  0
 14 15  1  0  0  0  0
 14 18  1  0  0  0  0
 14 43  1  0  0  0  0
 15 16  1  0  0  0  0
 15 44  1  0  0  0  0
 15 45  1  0  0  0  0
 16 17  3  0  0  0  0
 17 46  1  0  0  0  0
 18 19  1  0  0  0  0
 18 47  1  0  0  0  0
 18 48  1  0  0  0  0
 19 20  1  0  0  0  0
 19 24  2  0  0  0  0
 20 21  2  0  0  0  0
 21 22  1  0  0  0  0
 21 28  1  0  0  0  0
 22 23  2  0  0  0  0
 22 25  1  0  0  0  0
 23 24  1  0  0  0  0
 24 49  1  0  0  0  0
 25 26  2  0  0  0  0
 26 27  1  0  0  0  0
 26 30  1  0  0  0  0
 27 28  2  0  0  0  0
 28 29  1  0  0  0  0
 29 50  1  0  0  0  0
 29 51  1  0  0  0  0
 30 52  1  0  0  0  0
 30 53  1  0  0  0  0
 31 32  1  0  0  0  0
 31 54  1  0  0  0  0
 31 55  1  0  0  0  0
 32 33  1  0  0  0  0
 32 56  1  0  0  0  0
 32 57  1  0  0  0  0
 33 34  2  0  0  0  0
 33 35  1  0  0  0  0
 35 58  1  0  0  0  0
M  END
>  <DRUGBANK_ID>
DB06813

>  <SECONDARY_ACCESSION_NUMBERS>
DB05527

>  <COMMON_NAME>
Pralatrexate

>  <CAS_NUMBER>
146464-95-1

>  <UNII>
A8Q8I19Q20

>  <SYNONYMS>
(2S)-2-((4-((1RS)-1-((2,4-Diaminopteridin-6-yl)methyl)but-3-ynyl)benzoyl)amino)pentanedioic acid; (2S)-2-({4-[1-(2,4-diaminopteridin-6-yl)pent-4-yn-2-yl]benzoyl}amino)pentanedioic acid; 10-Propargyl-10-deazaaminopterin; N-(4-(1-((2,4-Diamino-6-pteridinyl)methyl)-3-butynyl)benzoyl)-L-glutamic acid; PDX; Pralatrexate; Pralatrexato; Pralatrexatum

$$$$
