
 OpenBabel10282417072D

 39 40  0  0  0  0  0  0  0  0999 V2000
    0.7529   -2.2084    0.0000 P   0  0  1  0  0  0  0  0  0  0  0  0
    2.0585   -2.7896    0.0000 P   0  0  0  0  0  0  0  0  0  0  0  0
   -0.7824   -0.1749    0.0000 O   0  0  0  0  0  0  0  0  0  0  0  0
   -2.3474   -1.6271    0.0000 O   0  0  0  0  0  0  0  0  0  0  0  0
    0.2680   -1.5409    0.0000 O   0  0  0  0  0  0  0  0  0  0  0  0
   -2.8790    1.1350    0.0000 O   0  0  0  0  0  0  0  0  0  0  0  0
    1.4204   -1.7234    0.0000 O   0  0  0  0  0  0  0  0  0  0  0  0
    0.0854   -2.6933    0.0000 O   0  0  0  0  0  0  0  0  0  0  0  0
   -1.4499    3.6101    0.0000 O   0  0  0  0  0  0  0  0  0  0  0  0
    2.1447   -3.6101    0.0000 O   0  0  0  0  0  0  0  0  0  0  0  0
    2.8790   -2.7033    0.0000 O   0  0  0  0  0  0  0  0  0  0  0  0
    1.9722   -1.9690    0.0000 O   0  0  0  0  0  0  0  0  0  0  0  0
   -1.4499    1.1350    0.0000 N   0  0  0  0  0  0  0  0  0  0  0  0
   -2.1645    2.3726    0.0000 N   0  0  0  0  0  0  0  0  0  0  0  0
    1.2379   -2.8758    0.0000 N   0  0  0  0  0  0  0  0  0  0  0  0
   -1.8624   -0.9597    0.0000 C   0  0  2  0  0  0  0  0  0  0  0  0
   -1.0374   -0.9597    0.0000 C   0  0  1  0  0  0  0  0  0  0  0  0
   -2.1174   -0.1749    0.0000 C   0  0  0  0  0  0  0  0  0  0  0  0
   -1.4499    0.3099    0.0000 C   0  0  1  0  0  0  0  0  0  0  0  0
   -0.5525   -1.6271    0.0000 C   0  0  0  0  0  0  0  0  0  0  0  0
   -2.1645    1.5475    0.0000 C   0  0  0  0  0  0  0  0  0  0  0  0
   -0.7354    1.5475    0.0000 C   0  0  0  0  0  0  0  0  0  0  0  0
   -0.7354    2.3726    0.0000 C   0  0  0  0  0  0  0  0  0  0  0  0
   -1.4499    2.7851    0.0000 C   0  0  0  0  0  0  0  0  0  0  0  0
   -2.6074    2.6283    0.0000 H   0  0  0  0  0  0  0  0  0  0  0  0
    1.0299   -3.3431    0.0000 H   0  0  0  0  0  0  0  0  0  0  0  0
   -3.3121   -1.5256    0.0000 H   0  0  0  0  0  0  0  0  0  0  0  0
    2.3066   -2.1179    0.0000 H   0  0  0  0  0  0  0  0  0  0  0  0
    1.3599   -4.1802    0.0000 H   0  0  0  0  0  0  0  0  0  0  0  0
    3.4492   -3.4880    0.0000 H   0  0  0  0  0  0  0  0  0  0  0  0
   -1.3767   -1.9131    0.0000 H   0  0  0  0  0  0  0  0  0  0  0  0
    0.0194   -0.7923    0.0000 H   0  0  0  0  0  0  0  0  0  0  0  0
   -3.1350    0.1558    0.0000 H   0  0  0  0  0  0  0  0  0  0  0  0
   -2.2847    0.8819    0.0000 H   0  0  0  0  0  0  0  0  0  0  0  0
   -0.4966    0.7957    0.0000 H   0  0  0  0  0  0  0  0  0  0  0  0
   -0.9877   -2.6046    0.0000 H   0  0  0  0  0  0  0  0  0  0  0  0
   -1.6166   -1.7389    0.0000 H   0  0  0  0  0  0  0  0  0  0  0  0
    0.1583    1.0315    0.0000 H   0  0  0  0  0  0  0  0  0  0  0  0
    0.1583    2.8886    0.0000 H   0  0  0  0  0  0  0  0  0  0  0  0
  1  5  1  0  0  0  0
  1  7  1  0  0  0  0
  1  8  2  1  0  0  0
  1 15  1  0  0  0  0
  2 10  1  0  0  0  0
  2 11  1  0  0  0  0
  2 12  2  0  0  0  0
  2 15  1  0  0  0  0
  3 17  1  0  0  0  0
  3 19  1  0  0  0  0
  4 27  1  0  0  0  0
  5 20  1  0  0  0  0
  6 21  2  0  0  0  0
  7 28  1  0  0  0  0
  9 24  2  0  0  0  0
 10 29  1  0  0  0  0
 11 30  1  0  0  0  0
 13 21  1  0  0  0  0
 13 22  1  0  0  0  0
 14 21  1  0  0  0  0
 14 24  1  0  0  0  0
 14 25  1  0  0  0  0
 15 26  1  0  0  0  0
 16  4  1  0  0  0  0
 16 17  1  0  0  0  0
 16 18  1  0  0  0  0
 16 31  1  6  0  0  0
 17 20  1  0  0  0  0
 17 32  1  1  0  0  0
 18 19  1  0  0  0  0
 18 33  1  0  0  0  0
 18 34  1  0  0  0  0
 19 13  1  0  0  0  0
 19 35  1  1  0  0  0
 20 36  1  0  0  0  0
 20 37  1  0  0  0  0
 22 23  2  0  0  0  0
 22 38  1  0  0  0  0
 23 24  1  0  0  0  0
 23 39  1  0  0  0  0
M  END
>  <DRUGBANK_ID>
DB03641

>  <SECONDARY_ACCESSION_NUMBERS>
EXPT01298

>  <COMMON_NAME>
2'-deoxyuridine 5'-alpha,beta-imido-diphosphate

>  <SYNONYMS>
2'-Deoxy-5'-O-[(R)-hydroxy(phosphonoamino)phosphoryl]uridine

$$$$
