CCB
 OpenBabel10282417072D

 29 30  0  0  0  0  0  0  0  0999 V2000
    0.7488    0.1438    0.0000 N   0  0  0  0  0  0  0  0  0  0  0  0
    1.4633    0.5563    0.0000 C   0  0  0  0  0  0  0  0  0  0  0  0
    2.1777    0.1438    0.0000 O   0  0  0  0  0  0  0  0  0  0  0  0
    0.0343    0.5563    0.0000 C   0  0  0  0  0  0  0  0  0  0  0  0
    0.7488   -0.6812    0.0000 C   0  0  0  0  0  0  0  0  0  0  0  0
   -0.7194    0.2207    0.0000 C   0  0  0  0  0  0  0  0  0  0  0  0
   -1.2714    0.8338    0.0000 C   0  0  0  0  0  0  0  0  0  0  0  0
   -0.8589    1.5483    0.0000 C   0  0  0  0  0  0  0  0  0  0  0  0
   -0.0519    1.3768    0.0000 C   0  0  0  0  0  0  0  0  0  0  0  0
    1.3321   -1.2646    0.0000 C   0  0  0  0  0  0  0  0  0  0  0  0
    0.7488   -1.8479    0.0000 C   0  0  0  0  0  0  0  0  0  0  0  0
    0.1654   -1.2646    0.0000 C   0  0  0  0  0  0  0  0  0  0  0  0
    1.4633    1.5883    0.0000 H   0  0  0  0  0  0  0  0  0  0  0  0
   -0.8923    1.0913    0.0000 H   0  0  0  0  0  0  0  0  0  0  0  0
    0.7488   -1.7512    0.0000 H   0  0  0  0  0  0  0  0  0  0  0  0
   -0.9419   -0.8259    0.0000 H   0  0  0  0  0  0  0  0  0  0  0  0
   -1.7529   -0.0562    0.0000 H   0  0  0  0  0  0  0  0  0  0  0  0
   -2.3355    0.7220    0.0000 H   0  0  0  0  0  0  0  0  0  0  0  0
   -1.8542    1.7312    0.0000 H   0  0  0  0  0  0  0  0  0  0  0  0
   -1.2941    2.5258    0.0000 H   0  0  0  0  0  0  0  0  0  0  0  0
   -0.1856    2.3799    0.0000 H   0  0  0  0  0  0  0  0  0  0  0  0
    0.7433    2.0928    0.0000 H   0  0  0  0  0  0  0  0  0  0  0  0
   -0.3289    2.4103    0.0000 H   0  0  0  0  0  0  0  0  0  0  0  0
    2.4021   -1.2646    0.0000 H   0  0  0  0  0  0  0  0  0  0  0  0
    1.7416   -2.2532    0.0000 H   0  0  0  0  0  0  0  0  0  0  0  0
    0.7488   -2.9179    0.0000 H   0  0  0  0  0  0  0  0  0  0  0  0
   -0.2397   -2.2574    0.0000 H   0  0  0  0  0  0  0  0  0  0  0  0
   -0.9046   -1.2646    0.0000 H   0  0  0  0  0  0  0  0  0  0  0  0
   -0.2440   -2.2532    0.0000 H   0  0  0  0  0  0  0  0  0  0  0  0
  1  2  1  0  0  0  0
  1  4  1  0  0  0  0
  1  5  1  0  0  0  0
  2  3  2  0  0  0  0
  2 13  1  0  0  0  0
  4  6  1  0  0  0  0
  4  9  1  0  0  0  0
  4 14  1  0  0  0  0
  5 10  1  0  0  0  0
  5 12  1  0  0  0  0
  5 15  1  0  0  0  0
  6  7  1  0  0  0  0
  6 16  1  0  0  0  0
  6 17  1  0  0  0  0
  7  8  1  0  0  0  0
  7 18  1  0  0  0  0
  7 19  1  0  0  0  0
  8  9  1  0  0  0  0
  8 20  1  0  0  0  0
  8 21  1  0  0  0  0
  9 22  1  0  0  0  0
  9 23  1  0  0  0  0
 10 11  1  0  0  0  0
 10 24  1  0  0  0  0
 10 25  1  0  0  0  0
 11 12  1  0  0  0  0
 11 26  1  0  0  0  0
 11 27  1  0  0  0  0
 12 28  1  0  0  0  0
 12 29  1  0  0  0  0
M  END
>  <DRUGBANK_ID>
DB04065

>  <SECONDARY_ACCESSION_NUMBERS>
EXPT00857

>  <COMMON_NAME>
N-Cyclopentyl-N-Cyclobutylformamide

$$$$
