
 OpenBabel10282417072D

 24 24  0  0  0  0  0  0  0  0999 V2000
   -0.2136    0.2759    0.0000 C   0  0  0  0  0  0  0  0  0  0  0  0
    0.6111    0.2932    0.0000 S   0  0  0  0  0  0  0  0  0  0  0  0
   -0.6111   -0.4469    0.0000 C   0  0  0  0  0  0  0  0  0  0  0  0
   -0.6410    0.9816    0.0000 C   0  0  0  0  0  0  0  0  0  0  0  0
    1.4359    0.3105    0.0000 N   0  0  0  0  0  0  0  0  0  0  0  0
    0.5938    1.1180    0.0000 O   0  0  0  0  0  0  0  0  0  0  0  0
    0.6284   -0.5315    0.0000 O   0  0  0  0  0  0  0  0  0  0  0  0
   -1.4359   -0.4641    0.0000 C   0  0  0  0  0  0  0  0  0  0  0  0
   -1.4658    0.9643    0.0000 C   0  0  0  0  0  0  0  0  0  0  0  0
    1.8633   -0.3950    0.0000 C   0  0  0  0  0  0  0  0  0  0  0  0
   -1.8633    0.2414    0.0000 C   0  0  0  0  0  0  0  0  0  0  0  0
    2.6881   -0.3777    0.0000 N   0  0  0  0  0  0  0  0  0  0  0  0
    1.4658   -1.1180    0.0000 N   0  0  0  0  0  0  0  0  0  0  0  0
   -2.6881    0.2241    0.0000 N   0  0  0  0  0  0  0  0  0  0  0  0
   -0.0766   -1.3297    0.0000 H   0  0  0  0  0  0  0  0  0  0  0  0
   -0.1438    1.8860    0.0000 H   0  0  0  0  0  0  0  0  0  0  0  0
    1.9101    1.1733    0.0000 H   0  0  0  0  0  0  0  0  0  0  0  0
   -1.9330   -1.3685    0.0000 H   0  0  0  0  0  0  0  0  0  0  0  0
   -2.0004    1.8471    0.0000 H   0  0  0  0  0  0  0  0  0  0  0  0
    3.1981   -1.2198    0.0000 H   0  0  0  0  0  0  0  0  0  0  0  0
    3.1624    0.4850    0.0000 H   0  0  0  0  0  0  0  0  0  0  0  0
    0.4815   -1.1386    0.0000 H   0  0  0  0  0  0  0  0  0  0  0  0
   -3.1981    1.0662    0.0000 H   0  0  0  0  0  0  0  0  0  0  0  0
   -3.1624   -0.6386    0.0000 H   0  0  0  0  0  0  0  0  0  0  0  0
  1  2  1  0  0  0  0
  1  3  1  0  0  0  0
  1  4  2  0  0  0  0
  2  5  1  0  0  0  0
  2  6  2  0  0  0  0
  2  7  2  0  0  0  0
  3  8  2  0  0  0  0
  3 15  1  0  0  0  0
  4  9  1  0  0  0  0
  4 16  1  0  0  0  0
  5 10  1  0  0  0  0
  5 17  1  0  0  0  0
  8 11  1  0  0  0  0
  8 18  1  0  0  0  0
  9 11  2  0  0  0  0
  9 19  1  0  0  0  0
 10 12  1  0  0  0  0
 10 13  2  0  0  0  0
 11 14  1  0  0  0  0
 12 20  1  0  0  0  0
 12 21  1  0  0  0  0
 13 22  1  0  0  0  0
 14 23  1  0  0  0  0
 14 24  1  0  0  0  0
M  END
>  <DRUGBANK_ID>
DB13726

>  <COMMON_NAME>
Sulfaguanidine

>  <CAS_NUMBER>
57-67-0

>  <UNII>
15XQ8043FN

>  <SYNONYMS>
Sulfaguanidina; Sulfaguanidine; Sulfaguanidinum

$$$$
