185
 OpenBabel10282417072D

 45 47  0  0  0  0  0  0  0  0999 V2000
    1.5962   -0.6024    0.0000 C   0  0  0  0  0  0  0  0  0  0  0  0
    1.5962    0.2226    0.0000 O   0  0  0  0  0  0  0  0  0  0  0  0
    2.3106   -1.0149    0.0000 C   0  0  0  0  0  0  0  0  0  0  0  0
    3.0251   -0.6024    0.0000 C   0  0  0  0  0  0  0  0  0  0  0  0
    2.3106   -1.8399    0.0000 C   0  0  0  0  0  0  0  0  0  0  0  0
    1.5962   -2.2524    0.0000 C   0  0  0  0  0  0  0  0  0  0  0  0
    0.8817   -1.8399    0.0000 C   0  0  0  0  0  0  0  0  0  0  0  0
    0.8817   -1.0149    0.0000 C   0  0  0  0  0  0  0  0  0  0  0  0
    0.1672   -0.6024    0.0000 C   0  0  0  0  0  0  0  0  0  0  0  0
    0.8817    0.6351    0.0000 C   0  0  0  0  0  0  0  0  0  0  0  0
    0.1672    0.2226    0.0000 N   0  0  0  0  0  0  0  0  0  0  0  0
   -0.5472    0.6351    0.0000 C   0  0  0  0  0  0  0  0  0  0  0  0
   -1.2617    0.2226    0.0000 N   0  0  0  0  0  0  0  0  0  0  0  0
   -0.5472    1.4601    0.0000 N   0  0  0  0  0  0  0  0  0  0  0  0
    0.1672    1.8726    0.0000 C   0  0  0  0  0  0  0  0  0  0  0  0
    0.1672    2.6976    0.0000 C   0  0  0  0  0  0  0  0  0  0  0  0
    0.8817    1.4601    0.0000 C   0  0  0  0  0  0  0  0  0  0  0  0
   -1.9762    0.6351    0.0000 C   0  0  0  0  0  0  0  0  0  0  0  0
   -2.6906    0.2226    0.0000 C   0  0  0  0  0  0  0  0  0  0  0  0
   -3.4051    0.6351    0.0000 C   0  0  0  0  0  0  0  0  0  0  0  0
   -3.4051    1.4601    0.0000 C   0  0  0  0  0  0  0  0  0  0  0  0
   -2.6906    1.8726    0.0000 C   0  0  0  0  0  0  0  0  0  0  0  0
   -1.9762    1.4601    0.0000 C   0  0  0  0  0  0  0  0  0  0  0  0
   -4.1196    1.8726    0.0000 C   0  0  0  0  0  0  0  0  0  0  0  0
   -4.8341    2.2851    0.0000 N   0  0  0  0  0  0  0  0  0  0  0  0
    1.5962   -3.0774    0.0000 C   0  0  0  0  0  0  0  0  0  0  0  0
    1.5962   -3.9024    0.0000 N   0  0  0  0  0  0  0  0  0  0  0  0
    0.8817    3.1101    0.0000 O   0  0  0  0  0  0  0  0  0  0  0  0
    1.5962    1.8726    0.0000 Br  0  0  0  0  0  0  0  0  0  0  0  0
    3.9517   -1.1374    0.0000 H   0  0  0  0  0  0  0  0  0  0  0  0
    3.0251    0.4676    0.0000 H   0  0  0  0  0  0  0  0  0  0  0  0
    3.9518   -0.0674    0.0000 H   0  0  0  0  0  0  0  0  0  0  0  0
    3.2043   -2.3559    0.0000 H   0  0  0  0  0  0  0  0  0  0  0  0
   -0.0120   -2.3559    0.0000 H   0  0  0  0  0  0  0  0  0  0  0  0
    0.1672    0.4676    0.0000 H   0  0  0  0  0  0  0  0  0  0  0  0
   -0.7594   -1.1374    0.0000 H   0  0  0  0  0  0  0  0  0  0  0  0
   -0.7595   -0.0674    0.0000 H   0  0  0  0  0  0  0  0  0  0  0  0
   -1.2617   -0.7619    0.0000 H   0  0  0  0  0  0  0  0  0  0  0  0
   -0.7594    3.2326    0.0000 H   0  0  0  0  0  0  0  0  0  0  0  0
    0.1672    3.7676    0.0000 H   0  0  0  0  0  0  0  0  0  0  0  0
   -2.6906   -0.8094    0.0000 H   0  0  0  0  0  0  0  0  0  0  0  0
   -4.2988    0.1191    0.0000 H   0  0  0  0  0  0  0  0  0  0  0  0
   -2.6906    2.9046    0.0000 H   0  0  0  0  0  0  0  0  0  0  0  0
   -1.0825    1.9761    0.0000 H   0  0  0  0  0  0  0  0  0  0  0  0
    1.7217    2.6251    0.0000 H   0  0  0  0  0  0  0  0  0  0  0  0
  1  2  1  0  0  0  0
  1  3  1  0  0  0  0
  1  8  2  0  0  0  0
  2 10  1  0  0  0  0
  3  4  1  0  0  0  0
  3  5  2  0  0  0  0
  4 30  1  0  0  0  0
  4 31  1  0  0  0  0
  4 32  1  0  0  0  0
  5  6  1  0  0  0  0
  5 33  1  0  0  0  0
  6  7  2  0  0  0  0
  6 26  1  0  0  0  0
  7  8  1  0  0  0  0
  7 34  1  0  0  0  0
  8  9  1  0  0  0  0
  9 35  1  0  0  0  0
  9 36  1  0  0  0  0
  9 37  1  0  0  0  0
 10 11  1  0  0  0  0
 10 17  2  0  0  0  0
 11 12  2  0  0  0  0
 12 13  1  0  0  0  0
 12 14  1  0  0  0  0
 13 18  1  0  0  0  0
 13 38  1  0  0  0  0
 14 15  2  0  0  0  0
 15 16  1  0  0  0  0
 15 17  1  0  0  0  0
 16 28  1  0  0  0  0
 16 39  1  0  0  0  0
 16 40  1  0  0  0  0
 17 29  1  0  0  0  0
 18 19  1  0  0  0  0
 18 23  2  0  0  0  0
 19 20  2  0  0  0  0
 19 41  1  0  0  0  0
 20 21  1  0  0  0  0
 20 42  1  0  0  0  0
 21 22  2  0  0  0  0
 21 24  1  0  0  0  0
 22 23  1  0  0  0  0
 22 43  1  0  0  0  0
 23 44  1  0  0  0  0
 24 25  3  0  0  0  0
 26 27  3  0  0  0  0
 28 45  1  0  0  0  0
M  END
>  <DRUGBANK_ID>
DB06874

>  <COMMON_NAME>
(6-[4-(AMINOMETHYL)-2,6-DIMETHYLPHENOXY]-2-{[4-(AMINOMETHYL)PHENYL]AMINO}-5-BROMOPYRIMIDIN-4-YL)METHANOL

$$$$
