4TZ
 OpenBabel10282417072D

 40 42  0  0  0  0  0  0  0  0999 V2000
    3.0136   -1.7836    0.0000 S   0  0  0  0  0  0  0  0  0  0  0  0
    3.0136   -2.6086    0.0000 O   0  0  0  0  0  0  0  0  0  0  0  0
    3.8386   -1.7836    0.0000 O   0  0  0  0  0  0  0  0  0  0  0  0
    3.0136   -0.9586    0.0000 O   0  0  0  0  0  0  0  0  0  0  0  0
    2.1886   -1.7836    0.0000 N   0  0  0  0  0  0  0  0  0  0  0  0
   -0.5588    0.2789    0.0000 N   0  0  0  0  0  0  0  0  0  0  0  0
   -0.5588   -0.5461    0.0000 N   0  0  0  0  0  0  0  0  0  0  0  0
   -0.1463   -1.8156    0.0000 N   0  0  0  0  0  0  0  0  0  0  0  0
   -0.9713   -1.8156    0.0000 N   0  0  0  0  0  0  0  0  0  0  0  0
   -4.1311    2.3414    0.0000 N   0  0  0  0  0  0  0  0  0  0  0  0
    0.1087   -1.0310    0.0000 C   0  0  0  0  0  0  0  0  0  0  0  0
   -1.2262   -1.0310    0.0000 C   0  0  0  0  0  0  0  0  0  0  0  0
   -1.2732    0.6914    0.0000 C   0  0  0  0  0  0  0  0  0  0  0  0
   -1.9877    0.2789    0.0000 C   0  0  0  0  0  0  0  0  0  0  0  0
   -2.7022    0.6914    0.0000 C   0  0  0  0  0  0  0  0  0  0  0  0
   -2.7022    1.5164    0.0000 C   0  0  0  0  0  0  0  0  0  0  0  0
   -1.9877    1.9289    0.0000 C   0  0  0  0  0  0  0  0  0  0  0  0
   -1.2732    1.5164    0.0000 C   0  0  0  0  0  0  0  0  0  0  0  0
   -3.4166    1.9289    0.0000 C   0  0  0  0  0  0  0  0  0  0  0  0
    0.1557    0.6914    0.0000 C   0  0  0  0  0  0  0  0  0  0  0  0
    0.8702    0.2789    0.0000 C   0  0  0  0  0  0  0  0  0  0  0  0
    1.5847    0.6914    0.0000 C   0  0  0  0  0  0  0  0  0  0  0  0
    2.2991    0.2789    0.0000 C   0  0  0  0  0  0  0  0  0  0  0  0
    2.2991   -0.5461    0.0000 C   0  0  0  0  0  0  0  0  0  0  0  0
    1.5847   -0.9586    0.0000 C   0  0  0  0  0  0  0  0  0  0  0  0
    0.8702   -0.5461    0.0000 C   0  0  0  0  0  0  0  0  0  0  0  0
    1.6786   -0.9003    0.0000 H   0  0  0  0  0  0  0  0  0  0  0  0
    1.6786   -2.6669    0.0000 H   0  0  0  0  0  0  0  0  0  0  0  0
    1.0902   -0.7121    0.0000 H   0  0  0  0  0  0  0  0  0  0  0  0
   -2.2077   -0.7121    0.0000 H   0  0  0  0  0  0  0  0  0  0  0  0
   -1.9877   -0.7531    0.0000 H   0  0  0  0  0  0  0  0  0  0  0  0
   -3.5959    0.1754    0.0000 H   0  0  0  0  0  0  0  0  0  0  0  0
   -1.9877    2.9609    0.0000 H   0  0  0  0  0  0  0  0  0  0  0  0
   -0.3795    2.0324    0.0000 H   0  0  0  0  0  0  0  0  0  0  0  0
    0.1557    1.7614    0.0000 H   0  0  0  0  0  0  0  0  0  0  0  0
    1.0823    1.2264    0.0000 H   0  0  0  0  0  0  0  0  0  0  0  0
    1.5847    1.7234    0.0000 H   0  0  0  0  0  0  0  0  0  0  0  0
    3.1928    0.7949    0.0000 H   0  0  0  0  0  0  0  0  0  0  0  0
    1.5847   -1.9906    0.0000 H   0  0  0  0  0  0  0  0  0  0  0  0
   -0.0235   -1.0621    0.0000 H   0  0  0  0  0  0  0  0  0  0  0  0
  1  2  2  0  0  0  0
  1  3  2  0  0  0  0
  1  4  1  0  0  0  0
  1  5  1  0  0  0  0
  4 24  1  0  0  0  0
  5 27  1  0  0  0  0
  5 28  1  0  0  0  0
  6  7  1  0  0  0  0
  6 13  1  0  0  0  0
  6 20  1  0  0  0  0
  7 11  1  0  0  0  0
  7 12  1  0  0  0  0
  8  9  1  0  0  0  0
  8 11  2  0  0  0  0
  9 12  2  0  0  0  0
 10 19  3  0  0  0  0
 11 29  1  0  0  0  0
 12 30  1  0  0  0  0
 13 14  2  0  0  0  0
 13 18  1  0  0  0  0
 14 15  1  0  0  0  0
 14 31  1  0  0  0  0
 15 16  2  0  0  0  0
 15 32  1  0  0  0  0
 16 17  1  0  0  0  0
 16 19  1  0  0  0  0
 17 18  2  0  0  0  0
 17 33  1  0  0  0  0
 18 34  1  0  0  0  0
 20 21  1  0  0  0  0
 20 35  1  0  0  0  0
 20 36  1  0  0  0  0
 21 22  2  0  0  0  0
 21 26  1  0  0  0  0
 22 23  1  0  0  0  0
 22 37  1  0  0  0  0
 23 24  2  0  0  0  0
 23 38  1  0  0  0  0
 24 25  1  0  0  0  0
 25 26  2  0  0  0  0
 25 39  1  0  0  0  0
 26 40  1  0  0  0  0
M  END
>  <DRUGBANK_ID>
DB04601

>  <COMMON_NAME>
4-[(4-O-SULFAMOYLBENZYL)(4-CYANOPHENYL)AMINO]-4H-[1,2,4]-TRIAZOLE

$$$$
