
 OpenBabel10282417072D

 56 58  0  0  0  0  0  0  0  0999 V2000
   -4.3935    1.5884    0.0000 F   0  0  0  0  0  0  0  0  0  0  0  0
   -3.6791    2.0009    0.0000 C   0  0  0  0  0  0  0  0  0  0  0  0
   -3.2666    1.2864    0.0000 F   0  0  0  0  0  0  0  0  0  0  0  0
   -4.0916    2.7154    0.0000 F   0  0  0  0  0  0  0  0  0  0  0  0
   -2.9646    2.4134    0.0000 C   0  0  0  0  0  0  0  0  0  0  0  0
   -2.2501    2.0009    0.0000 O   0  0  0  0  0  0  0  0  0  0  0  0
   -1.5356    2.4134    0.0000 C   0  0  0  0  0  0  0  0  0  0  0  0
   -1.5356    3.2384    0.0000 O   0  0  0  0  0  0  0  0  0  0  0  0
   -0.8212    2.0009    0.0000 N   0  0  0  0  0  0  0  0  0  0  0  0
   -0.1067    2.4134    0.0000 C   0  0  0  0  0  0  0  0  0  0  0  0
    0.6078    2.0009    0.0000 C   0  0  0  0  0  0  0  0  0  0  0  0
    0.6078    1.1759    0.0000 N   0  0  0  0  0  0  0  0  0  0  0  0
    1.3222    0.7634    0.0000 C   0  0  0  0  0  0  0  0  0  0  0  0
    2.0367    1.1759    0.0000 C   0  0  0  0  0  0  0  0  0  0  0  0
    2.0367    2.0009    0.0000 C   0  0  0  0  0  0  0  0  0  0  0  0
    2.7512    2.4134    0.0000 C   0  0  0  0  0  0  0  0  0  0  0  0
    3.4656    2.0009    0.0000 C   0  0  0  0  0  0  0  0  0  0  0  0
    3.4656    1.1759    0.0000 C   0  0  0  0  0  0  0  0  0  0  0  0
    2.7512    0.7634    0.0000 C   0  0  0  0  0  0  0  0  0  0  0  0
    2.7512   -0.0616    0.0000 N   0  0  0  0  0  0  0  0  0  0  0  0
    3.4186   -0.5465    0.0000 C   0  0  0  0  0  0  0  0  0  0  0  0
    3.1637   -1.3312    0.0000 C   0  0  0  0  0  0  0  0  0  0  0  0
    2.3387   -1.3312    0.0000 C   0  0  0  0  0  0  0  0  0  0  0  0
    2.0837   -0.5465    0.0000 C   0  0  0  0  0  0  0  0  0  0  0  0
    4.1801    2.4134    0.0000 C   0  0  0  0  0  0  0  0  0  0  0  0
    4.8946    2.8259    0.0000 F   0  0  0  0  0  0  0  0  0  0  0  0
    4.5926    1.6989    0.0000 F   0  0  0  0  0  0  0  0  0  0  0  0
    3.7676    3.1279    0.0000 F   0  0  0  0  0  0  0  0  0  0  0  0
   -0.1067    0.7634    0.0000 C   0  0  0  0  0  0  0  0  0  0  0  0
   -0.8212    1.1759    0.0000 C   0  0  0  0  0  0  0  0  0  0  0  0
   -2.9646    3.2384    0.0000 C   0  0  0  0  0  0  0  0  0  0  0  0
   -2.9646    4.0634    0.0000 F   0  0  0  0  0  0  0  0  0  0  0  0
   -2.1396    3.2384    0.0000 F   0  0  0  0  0  0  0  0  0  0  0  0
   -3.7896    3.2384    0.0000 F   0  0  0  0  0  0  0  0  0  0  0  0
   -2.0380    2.9484    0.0000 H   0  0  0  0  0  0  0  0  0  0  0  0
   -0.1067    3.4834    0.0000 H   0  0  0  0  0  0  0  0  0  0  0  0
    0.8199    2.9484    0.0000 H   0  0  0  0  0  0  0  0  0  0  0  0
    1.5344    2.5359    0.0000 H   0  0  0  0  0  0  0  0  0  0  0  0
    1.5344    1.4659    0.0000 H   0  0  0  0  0  0  0  0  0  0  0  0
    1.3222   -0.3066    0.0000 H   0  0  0  0  0  0  0  0  0  0  0  0
    2.2488    0.2284    0.0000 H   0  0  0  0  0  0  0  0  0  0  0  0
    1.1430    2.5169    0.0000 H   0  0  0  0  0  0  0  0  0  0  0  0
    2.7512    3.4454    0.0000 H   0  0  0  0  0  0  0  0  0  0  0  0
    4.3593    0.6599    0.0000 H   0  0  0  0  0  0  0  0  0  0  0  0
    4.4362   -0.2158    0.0000 H   0  0  0  0  0  0  0  0  0  0  0  0
    4.1752   -1.3031    0.0000 H   0  0  0  0  0  0  0  0  0  0  0  0
    3.7927   -2.1968    0.0000 H   0  0  0  0  0  0  0  0  0  0  0  0
    2.6779   -2.2846    0.0000 H   0  0  0  0  0  0  0  0  0  0  0  0
    1.7098   -2.1969    0.0000 H   0  0  0  0  0  0  0  0  0  0  0  0
    1.2819   -1.1638    0.0000 H   0  0  0  0  0  0  0  0  0  0  0  0
    1.0661   -0.2158    0.0000 H   0  0  0  0  0  0  0  0  0  0  0  0
    1.9164    0.5103    0.0000 H   0  0  0  0  0  0  0  0  0  0  0  0
   -0.1067   -0.3066    0.0000 H   0  0  0  0  0  0  0  0  0  0  0  0
   -1.0333    0.2284    0.0000 H   0  0  0  0  0  0  0  0  0  0  0  0
   -1.7478    0.6409    0.0000 H   0  0  0  0  0  0  0  0  0  0  0  0
   -1.7478    1.7109    0.0000 H   0  0  0  0  0  0  0  0  0  0  0  0
  1  2  1  0  0  0  0
  2  3  1  0  0  0  0
  2  4  1  0  0  0  0
  2  5  1  0  0  0  0
  5  6  1  0  0  0  0
  5 31  1  0  0  0  0
  5 35  1  0  0  0  0
  6  7  1  0  0  0  0
  7  8  2  0  0  0  0
  7  9  1  0  0  0  0
  9 10  1  0  0  0  0
  9 30  1  0  0  0  0
 10 11  1  0  0  0  0
 10 36  1  0  0  0  0
 10 37  1  0  0  0  0
 11 12  1  0  0  0  0
 11 38  1  0  0  0  0
 11 39  1  0  0  0  0
 12 13  1  0  0  0  0
 12 29  1  0  0  0  0
 13 14  1  0  0  0  0
 13 40  1  0  0  0  0
 13 41  1  0  0  0  0
 14 15  2  0  0  0  0
 14 19  1  0  0  0  0
 15 16  1  0  0  0  0
 15 42  1  0  0  0  0
 16 17  2  0  0  0  0
 16 43  1  0  0  0  0
 17 18  1  0  0  0  0
 17 25  1  0  0  0  0
 18 19  2  0  0  0  0
 18 44  1  0  0  0  0
 19 20  1  0  0  0  0
 20 21  1  0  0  0  0
 20 24  1  0  0  0  0
 21 22  1  0  0  0  0
 21 45  1  0  0  0  0
 21 46  1  0  0  0  0
 22 23  1  0  0  0  0
 22 47  1  0  0  0  0
 22 48  1  0  0  0  0
 23 24  1  0  0  0  0
 23 49  1  0  0  0  0
 23 50  1  0  0  0  0
 24 51  1  0  0  0  0
 24 52  1  0  0  0  0
 25 26  1  0  0  0  0
 25 27  1  0  0  0  0
 25 28  1  0  0  0  0
 29 30  1  0  0  0  0
 29 53  1  0  0  0  0
 29 54  1  0  0  0  0
 30 55  1  0  0  0  0
 30 56  1  0  0  0  0
 31 32  1  0  0  0  0
 31 33  1  0  0  0  0
 31 34  1  0  0  0  0
M  END
>  <DRUGBANK_ID>
DB16036

>  <COMMON_NAME>
ABX-1431

>  <CAS_NUMBER>
1446817-84-0

>  <UNII>
FB39E94UXK

$$$$
