6C3
 OpenBabel10282417072D

 37 40  0  0  0  0  0  0  0  0999 V2000
   -1.9886   -4.2400    0.0000 C   0  0  0  0  0  0  0  0  0  0  0  0
   -1.9886   -3.4150    0.0000 C   0  0  0  0  0  0  0  0  0  0  0  0
   -2.7031   -3.0025    0.0000 C   0  0  0  0  0  0  0  0  0  0  0  0
   -1.2742   -3.0025    0.0000 C   0  0  0  0  0  0  0  0  0  0  0  0
   -0.5597   -3.4150    0.0000 C   0  0  0  0  0  0  0  0  0  0  0  0
   -0.5597   -4.2400    0.0000 C   0  0  0  0  0  0  0  0  0  0  0  0
   -1.9886   -1.7650    0.0000 C   0  0  0  0  0  0  0  0  0  0  0  0
   -1.9886   -0.9400    0.0000 C   0  0  0  0  0  0  0  0  0  0  0  0
   -1.2742   -0.5275    0.0000 C   0  0  0  0  0  0  0  0  0  0  0  0
   -0.5597   -0.9400    0.0000 C   0  0  0  0  0  0  0  0  0  0  0  0
   -0.5597   -1.7650    0.0000 C   0  0  0  0  0  0  0  0  0  0  0  0
   -1.2742   -2.1775    0.0000 C   0  0  0  0  0  0  0  0  0  0  0  0
    0.9084   -3.3381    0.0000 C   0  0  0  0  0  0  0  0  0  0  0  0
    2.2810   -2.8112    0.0000 C   0  0  0  0  0  0  0  0  0  0  0  0
   -3.4176   -3.4150    0.0000 C   0  0  0  0  0  0  0  0  0  0  0  0
   -3.4176   -4.2400    0.0000 C   0  0  0  0  0  0  0  0  0  0  0  0
   -2.7031   -4.6525    0.0000 C   0  0  0  0  0  0  0  0  0  0  0  0
   -1.2742   -4.6525    0.0000 N   0  0  0  0  0  0  0  0  0  0  0  0
   -4.1321   -3.0025    0.0000 Cl  0  0  0  0  0  0  0  0  0  0  0  0
    0.1548   -4.6525    0.0000 O   0  0  0  0  0  0  0  0  0  0  0  0
    0.1548   -3.0025    0.0000 C   0  0  0  0  0  0  0  0  0  0  0  0
    0.2410   -2.1821    0.0000 O   0  0  0  0  0  0  0  0  0  0  0  0
    1.0480   -2.0105    0.0000 N   0  0  0  0  0  0  0  0  0  0  0  0
    1.4605   -2.7250    0.0000 C   0  0  0  0  0  0  0  0  0  0  0  0
   -2.7031   -1.9705    0.0000 H   0  0  0  0  0  0  0  0  0  0  0  0
   -2.8823   -2.2810    0.0000 H   0  0  0  0  0  0  0  0  0  0  0  0
   -2.8823   -0.4240    0.0000 H   0  0  0  0  0  0  0  0  0  0  0  0
   -1.2742    0.5045    0.0000 H   0  0  0  0  0  0  0  0  0  0  0  0
    0.3340   -0.4240    0.0000 H   0  0  0  0  0  0  0  0  0  0  0  0
    0.3340   -2.2810    0.0000 H   0  0  0  0  0  0  0  0  0  0  0  0
    1.1229   -4.3476    0.0000 H   0  0  0  0  0  0  0  0  0  0  0  0
    2.7163   -3.7887    0.0000 H   0  0  0  0  0  0  0  0  0  0  0  0
    2.9099   -1.9455    0.0000 H   0  0  0  0  0  0  0  0  0  0  0  0
    3.3451   -2.9230    0.0000 H   0  0  0  0  0  0  0  0  0  0  0  0
   -4.3113   -4.7560    0.0000 H   0  0  0  0  0  0  0  0  0  0  0  0
   -2.7031   -5.6845    0.0000 H   0  0  0  0  0  0  0  0  0  0  0  0
   -1.2742   -5.6370    0.0000 H   0  0  0  0  0  0  0  0  0  0  0  0
  1  2  2  0  0  0  0
  1 17  1  0  0  0  0
  1 18  1  0  0  0  0
  2  3  1  0  0  0  0
  2  4  1  0  0  0  0
  3 15  2  0  0  0  0
  3 25  1  0  0  0  0
  4 12  1  0  0  0  0
  4  5  2  0  0  0  0
  5 21  1  0  0  0  0
  5  6  1  0  0  0  0
  6 18  1  0  0  0  0
  6 20  2  0  0  0  0
  7  8  2  0  0  0  0
  7 12  1  0  0  0  0
  7 26  1  0  0  0  0
  8  9  1  0  0  0  0
  8 27  1  0  0  0  0
  9 10  2  0  0  0  0
  9 28  1  0  0  0  0
 10 11  1  0  0  0  0
 10 29  1  0  0  0  0
 11 12  2  0  0  0  0
 11 30  1  0  0  0  0
 13 21  2  0  0  0  0
 13 24  1  0  0  0  0
 13 31  1  0  0  0  0
 14 24  1  0  0  0  0
 14 32  1  0  0  0  0
 14 33  1  0  0  0  0
 14 34  1  0  0  0  0
 15 19  1  0  0  0  0
 15 16  1  0  0  0  0
 16 17  2  0  0  0  0
 16 35  1  0  0  0  0
 17 36  1  0  0  0  0
 18 37  1  0  0  0  0
 21 22  1  0  0  0  0
 22 23  1  0  0  0  0
 23 24  2  0  0  0  0
M  END
>  <DRUGBANK_ID>
DB07202

>  <COMMON_NAME>
6-CHLORO-3-(3-METHYLISOXAZOL-5-YL)-4-PHENYLQUINOLIN-2(1H)-ONE

$$$$
