
 OpenBabel10282417072D

 21 22  0  0  0  0  0  0  0  0999 V2000
    1.4046    0.4126    0.0000 N   0  0  0  0  0  0  0  0  0  0  0  0
    0.6900    0.8251    0.0000 C   0  0  0  0  0  0  0  0  0  0  0  0
   -0.0243    0.4126    0.0000 C   0  0  0  0  0  0  0  0  0  0  0  0
   -0.0243   -0.4124    0.0000 C   0  0  0  0  0  0  0  0  0  0  0  0
    0.6900   -0.8251    0.0000 N   0  0  0  0  0  0  0  0  0  0  0  0
    1.4046   -0.4124    0.0000 C   0  0  0  0  0  0  0  0  0  0  0  0
   -0.8092    0.6675    0.0000 N   0  0  0  0  0  0  0  0  0  0  0  0
   -1.2942    0.0000    0.0000 C   0  0  0  0  0  0  0  0  0  0  0  0
   -0.8092   -0.6675    0.0000 N   0  0  0  0  0  0  0  0  0  0  0  0
    0.6900   -1.6502    0.0000 C   0  0  0  0  0  0  0  0  0  0  0  0
    2.1192    0.8251    0.0000 C   0  0  0  0  0  0  0  0  0  0  0  0
    2.1192   -0.8251    0.0000 O   0  0  0  0  0  0  0  0  0  0  0  0
    0.6900    1.6502    0.0000 O   0  0  0  0  0  0  0  0  0  0  0  0
   -2.1192    0.0000    0.0000 Cl  0  0  0  0  0  0  0  0  0  0  0  0
   -1.1135    1.6038    0.0000 H   0  0  0  0  0  0  0  0  0  0  0  0
   -0.2366   -2.1852    0.0000 H   0  0  0  0  0  0  0  0  0  0  0  0
    1.6166   -2.1852    0.0000 H   0  0  0  0  0  0  0  0  0  0  0  0
    0.6900   -2.7202    0.0000 H   0  0  0  0  0  0  0  0  0  0  0  0
    3.0458    0.2900    0.0000 H   0  0  0  0  0  0  0  0  0  0  0  0
    2.1193    1.8951    0.0000 H   0  0  0  0  0  0  0  0  0  0  0  0
    3.0459    1.3600    0.0000 H   0  0  0  0  0  0  0  0  0  0  0  0
  2  1  1  0  0  0  0
  2  3  1  0  0  0  0
  2 13  2  0  0  0  0
  3  4  2  0  0  0  0
  3  7  1  0  0  0  0
  4  5  1  0  0  0  0
  4  9  1  0  0  0  0
  6  1  1  0  0  0  0
  6  5  1  0  0  0  0
  6 12  2  0  0  0  0
  7 15  1  0  0  0  0
  8  7  1  0  0  0  0
  8  9  2  0  0  0  0
  8 14  1  0  0  0  0
 10  5  1  0  0  0  0
 10 16  1  0  0  0  0
 10 17  1  0  0  0  0
 10 18  1  0  0  0  0
 11  1  1  0  0  0  0
 11 19  1  0  0  0  0
 11 20  1  0  0  0  0
 11 21  1  0  0  0  0
M  END
>  <DRUGBANK_ID>
DB14132

>  <COMMON_NAME>
8-chlorotheophylline

>  <CAS_NUMBER>
85-18-7

>  <UNII>
GE2UA340FM

>  <SYNONYMS>
1,3-dimethyl-8-chloroxanthine; 8-chloro-1,3-dimethyl-3,7-dihydro-1H-purine-2,6-dione; Chlorotheophylline; Chlortheophylline

$$$$
