
 OpenBabel10282417072D

 38 39  0  0  0  0  0  0  0  0999 V2000
    1.7441    0.5786    0.0000 C   0  0  0  0  0  0  0  0  0  0  0  0
    1.7441   -0.2469    0.0000 C   0  0  0  0  0  0  0  0  0  0  0  0
    1.0247    0.9927    0.0000 C   0  0  0  0  0  0  0  0  0  0  0  0
    2.4476    0.9848    0.0000 O   0  0  0  0  0  0  0  0  0  0  0  0
    2.4476   -0.6637    0.0000 C   0  0  0  0  0  0  0  0  0  0  0  0
    1.0353   -0.6690    0.0000 C   0  0  0  0  0  0  0  0  0  0  0  0
    0.3318    0.5786    0.0000 C   0  0  0  0  0  0  0  0  0  0  0  0
    3.1671    0.5786    0.0000 C   0  0  0  0  0  0  0  0  0  0  0  0
    3.1511   -0.2548    0.0000 C   0  0  0  0  0  0  0  0  0  0  0  0
    2.4582   -1.4919    0.0000 C   0  0  0  0  0  0  0  0  0  0  0  0
    0.3184   -0.2548    0.0000 C   0  0  0  0  0  0  0  0  0  0  0  0
   -0.3902    0.9927    0.0000 O   0  0  0  0  0  0  0  0  0  0  0  0
    3.8839    0.9848    0.0000 O   0  0  0  0  0  0  0  0  0  0  0  0
    3.8732   -0.6690    0.0000 Cl  0  0  0  0  0  0  0  0  0  0  0  0
   -1.0778    0.5627    0.0000 P   0  0  0  0  0  0  0  0  0  0  0  0
   -1.6591    1.1389    0.0000 O   0  0  0  0  0  0  0  0  0  0  0  0
   -1.6938    0.0291    0.0000 O   0  0  0  0  0  0  0  0  0  0  0  0
   -0.6159   -0.0663    0.0000 O   0  0  0  0  0  0  0  0  0  0  0  0
   -2.4502    0.9238    0.0000 C   0  0  0  0  0  0  0  0  0  0  0  0
   -2.4901    0.2919    0.0000 C   0  0  0  0  0  0  0  0  0  0  0  0
   -3.0396    1.4919    0.0000 C   0  0  0  0  0  0  0  0  0  0  0  0
   -3.1033   -0.2469    0.0000 C   0  0  0  0  0  0  0  0  0  0  0  0
   -3.8494    1.2849    0.0000 Cl  0  0  0  0  0  0  0  0  0  0  0  0
   -3.8839    0.0291    0.0000 Cl  0  0  0  0  0  0  0  0  0  0  0  0
    1.0162    2.0247    0.0000 H   0  0  0  0  0  0  0  0  0  0  0  0
    1.0421   -1.7010    0.0000 H   0  0  0  0  0  0  0  0  0  0  0  0
    1.5385   -2.0387    0.0000 H   0  0  0  0  0  0  0  0  0  0  0  0
    3.3916   -2.0150    0.0000 H   0  0  0  0  0  0  0  0  0  0  0  0
    2.4719   -2.5618    0.0000 H   0  0  0  0  0  0  0  0  0  0  0  0
   -0.5795   -0.7635    0.0000 H   0  0  0  0  0  0  0  0  0  0  0  0
   -2.7157   -0.1127    0.0000 H   0  0  0  0  0  0  0  0  0  0  0  0
   -3.4796    0.6317    0.0000 H   0  0  0  0  0  0  0  0  0  0  0  0
   -2.7038    1.3403    0.0000 H   0  0  0  0  0  0  0  0  0  0  0  0
   -3.5043    0.6330    0.0000 H   0  0  0  0  0  0  0  0  0  0  0  0
   -2.7662    2.5264    0.0000 H   0  0  0  0  0  0  0  0  0  0  0  0
   -3.7931    2.2516    0.0000 H   0  0  0  0  0  0  0  0  0  0  0  0
   -2.9007   -1.2975    0.0000 H   0  0  0  0  0  0  0  0  0  0  0  0
   -3.9142   -0.9450    0.0000 H   0  0  0  0  0  0  0  0  0  0  0  0
  1  2  2  0  0  0  0
  1  3  1  0  0  0  0
  1  4  1  0  0  0  0
  2  5  1  0  0  0  0
  2  6  1  0  0  0  0
  3  7  2  0  0  0  0
  3 25  1  0  0  0  0
  4  8  1  0  0  0  0
  5  9  2  0  0  0  0
  5 10  1  0  0  0  0
  6 11  2  0  0  0  0
  6 26  1  0  0  0  0
  7 12  1  0  0  0  0
  7 11  1  0  0  0  0
  8 13  2  0  0  0  0
  8  9  1  0  0  0  0
  9 14  1  0  0  0  0
 10 27  1  0  0  0  0
 10 28  1  0  0  0  0
 10 29  1  0  0  0  0
 11 30  1  0  0  0  0
 12 15  1  0  0  0  0
 15 16  1  0  0  0  0
 15 17  1  0  0  0  0
 15 18  2  0  0  0  0
 16 19  1  0  0  0  0
 17 20  1  0  0  0  0
 19 21  1  0  0  0  0
 19 31  1  0  0  0  0
 19 32  1  0  0  0  0
 20 22  1  0  0  0  0
 20 33  1  0  0  0  0
 20 34  1  0  0  0  0
 21 23  1  0  0  0  0
 21 35  1  0  0  0  0
 21 36  1  0  0  0  0
 22 24  1  0  0  0  0
 22 37  1  0  0  0  0
 22 38  1  0  0  0  0
M  END
>  <DRUGBANK_ID>
DB11419

>  <COMMON_NAME>
Haloxon

>  <CAS_NUMBER>
321-55-1

>  <UNII>
T8KXA37068

>  <SYNONYMS>
Haloxon; Haloxona; Haloxone; Haloxonum

$$$$
