
 OpenBabel10282417072D

 25 24  0  0  0  0  0  0  0  0999 V2000
    0.4124   -0.8250    0.0000 C   0  0  0  0  0  0  0  0  0  0  0  0
    1.1269   -0.4124    0.0000 O   0  0  0  0  0  0  0  0  0  0  0  0
    0.4124   -1.6500    0.0000 O   0  0  0  0  0  0  0  0  0  0  0  0
   -0.3019   -0.4124    0.0000 C   0  0  1  0  0  0  0  0  0  0  0  0
   -0.7145   -1.1269    0.0000 N   0  0  0  0  0  0  0  0  0  0  0  0
   -0.3019    0.4126    0.0000 C   0  0  0  0  0  0  0  0  0  0  0  0
    0.4124    0.8250    0.0000 C   0  0  0  0  0  0  0  0  0  0  0  0
    0.4124    1.6500    0.0000 C   0  0  0  0  0  0  0  0  0  0  0  0
    1.1269    0.4126    0.0000 C   0  0  0  0  0  0  0  0  0  0  0  0
   -1.1269   -0.4124    0.0000 C   0  0  0  0  0  0  0  0  0  0  0  0
    1.9384   -0.8808    0.0000 H   0  0  0  0  0  0  0  0  0  0  0  0
   -1.7345   -1.1268    0.0000 H   0  0  0  0  0  0  0  0  0  0  0  0
   -0.2046   -2.0103    0.0000 H   0  0  0  0  0  0  0  0  0  0  0  0
   -1.2285    0.9476    0.0000 H   0  0  0  0  0  0  0  0  0  0  0  0
   -0.3019    1.4826    0.0000 H   0  0  0  0  0  0  0  0  0  0  0  0
    1.3390    1.3601    0.0000 H   0  0  0  0  0  0  0  0  0  0  0  0
    1.3390    2.1850    0.0000 H   0  0  0  0  0  0  0  0  0  0  0  0
   -0.5142    2.1850    0.0000 H   0  0  0  0  0  0  0  0  0  0  0  0
    0.4124    2.7200    0.0000 H   0  0  0  0  0  0  0  0  0  0  0  0
    1.1270   -0.6574    0.0000 H   0  0  0  0  0  0  0  0  0  0  0  0
    2.0535    0.9477    0.0000 H   0  0  0  0  0  0  0  0  0  0  0  0
    2.0536   -0.1223    0.0000 H   0  0  0  0  0  0  0  0  0  0  0  0
   -1.6619    0.5142    0.0000 H   0  0  0  0  0  0  0  0  0  0  0  0
   -1.6619   -1.3390    0.0000 H   0  0  0  0  0  0  0  0  0  0  0  0
   -2.1969   -0.4124    0.0000 H   0  0  0  0  0  0  0  0  0  0  0  0
  2  1  1  0  0  0  0
  2 11  1  0  0  0  0
  3  1  2  0  0  0  0
  4  1  1  6  0  0  0
  4  5  1  0  0  0  0
  4 10  1  0  0  0  0
  5 12  1  0  0  0  0
  5 13  1  0  0  0  0
  6  4  1  0  0  0  0
  6 14  1  0  0  0  0
  6 15  1  0  0  0  0
  7  6  1  0  0  0  0
  7 16  1  0  0  0  0
  8  7  1  0  0  0  0
  8 17  1  0  0  0  0
  8 18  1  0  0  0  0
  8 19  1  0  0  0  0
  9  7  1  0  0  0  0
  9 20  1  0  0  0  0
  9 21  1  0  0  0  0
  9 22  1  0  0  0  0
 10 23  1  0  0  0  0
 10 24  1  0  0  0  0
 10 25  1  0  0  0  0
M  END
>  <DRUGBANK_ID>
DB04063

>  <SECONDARY_ACCESSION_NUMBERS>
EXPT00130

>  <COMMON_NAME>
alpha-Methylleucine

>  <CAS_NUMBER>
105743-53-1

>  <UNII>
83ASW57LTZ

>  <SYNONYMS>
(S)-2-Methylleucine; 2-Methyl-L-leucine

$$$$
