388
 OpenBabel10282417072D

 36 37  0  0  0  0  0  0  0  0999 V2000
    2.8586   -1.6997    0.0000 C   0  0  0  0  0  0  0  0  0  0  0  0
    2.1441   -1.2872    0.0000 N   0  0  0  0  0  0  0  0  0  0  0  0
    2.1441   -0.4622    0.0000 C   0  0  0  0  0  0  0  0  0  0  0  0
    2.8586   -0.0497    0.0000 O   0  0  0  0  0  0  0  0  0  0  0  0
    2.8586   -2.5247    0.0000 C   0  0  0  0  0  0  0  0  0  0  0  0
    3.5731   -2.9372    0.0000 C   0  0  0  0  0  0  0  0  0  0  0  0
    4.2876   -2.5247    0.0000 F   0  0  0  0  0  0  0  0  0  0  0  0
    3.5731   -3.7622    0.0000 C   0  0  0  0  0  0  0  0  0  0  0  0
    2.8586   -4.1747    0.0000 C   0  0  0  0  0  0  0  0  0  0  0  0
    2.8586   -4.9997    0.0000 Br  0  0  0  0  0  0  0  0  0  0  0  0
    2.1441   -3.7622    0.0000 C   0  0  0  0  0  0  0  0  0  0  0  0
    2.1441   -2.9372    0.0000 C   0  0  0  0  0  0  0  0  0  0  0  0
    1.4297   -0.0497    0.0000 C   0  0  0  0  0  0  0  0  0  0  0  0
    0.7152   -0.4622    0.0000 C   0  0  0  0  0  0  0  0  0  0  0  0
    0.0007   -0.0497    0.0000 C   0  0  0  0  0  0  0  0  0  0  0  0
    0.0007    0.7753    0.0000 C   0  0  0  0  0  0  0  0  0  0  0  0
   -0.7137    1.1878    0.0000 Cl  0  0  0  0  0  0  0  0  0  0  0  0
    0.7152    1.1878    0.0000 C   0  0  0  0  0  0  0  0  0  0  0  0
    1.4297    0.7753    0.0000 C   0  0  0  0  0  0  0  0  0  0  0  0
    2.1441    1.1878    0.0000 O   0  0  0  0  0  0  0  0  0  0  0  0
    2.1441    2.0128    0.0000 C   0  0  0  0  0  0  0  0  0  0  0  0
    2.8586    2.4253    0.0000 C   0  0  0  0  0  0  0  0  0  0  0  0
    2.8586    3.2503    0.0000 O   0  0  0  0  0  0  0  0  0  0  0  0
    3.5731    2.0128    0.0000 O   0  0  0  0  0  0  0  0  0  0  0  0
    3.7852   -1.1647    0.0000 H   0  0  0  0  0  0  0  0  0  0  0  0
    2.8586   -0.6297    0.0000 H   0  0  0  0  0  0  0  0  0  0  0  0
    1.2915   -1.7795    0.0000 H   0  0  0  0  0  0  0  0  0  0  0  0
    4.4668   -4.2782    0.0000 H   0  0  0  0  0  0  0  0  0  0  0  0
    1.2504   -4.2782    0.0000 H   0  0  0  0  0  0  0  0  0  0  0  0
    1.2504   -2.4212    0.0000 H   0  0  0  0  0  0  0  0  0  0  0  0
    0.7152   -1.4942    0.0000 H   0  0  0  0  0  0  0  0  0  0  0  0
   -0.8930   -0.5657    0.0000 H   0  0  0  0  0  0  0  0  0  0  0  0
    0.7152    2.2198    0.0000 H   0  0  0  0  0  0  0  0  0  0  0  0
    1.2175    2.5478    0.0000 H   0  0  0  0  0  0  0  0  0  0  0  0
    2.1441    3.0828    0.0000 H   0  0  0  0  0  0  0  0  0  0  0  0
    3.5731    1.0758    0.0000 H   0  0  0  0  0  0  0  0  0  0  0  0
  1  5  1  0  0  0  0
  1  2  1  0  0  0  0
  1 25  1  0  0  0  0
  1 26  1  0  0  0  0
  2  3  1  0  0  0  0
  2 27  1  0  0  0  0
  3  4  2  0  0  0  0
  3 13  1  0  0  0  0
  5  6  2  0  0  0  0
  5 12  1  0  0  0  0
  6  8  1  0  0  0  0
  6  7  1  0  0  0  0
  8  9  2  0  0  0  0
  8 28  1  0  0  0  0
  9 10  1  0  0  0  0
  9 11  1  0  0  0  0
 11 12  2  0  0  0  0
 11 29  1  0  0  0  0
 12 30  1  0  0  0  0
 13 14  2  0  0  0  0
 13 19  1  0  0  0  0
 14 15  1  0  0  0  0
 14 31  1  0  0  0  0
 15 16  2  0  0  0  0
 15 32  1  0  0  0  0
 16 18  1  0  0  0  0
 16 17  1  0  0  0  0
 18 19  2  0  0  0  0
 18 33  1  0  0  0  0
 19 20  1  0  0  0  0
 20 21  1  0  0  0  0
 21 22  1  0  0  0  0
 21 34  1  0  0  0  0
 21 35  1  0  0  0  0
 22 23  2  0  0  0  0
 22 24  1  0  0  0  0
 24 36  1  0  0  0  0
M  END
>  <DRUGBANK_ID>
DB07028

>  <COMMON_NAME>
(2-{[(4-BROMO-2-FLUOROBENZYL)AMINO]CARBONYL}-5-CHLOROPHENOXY)ACETIC ACID

$$$$
