
 OpenBabel10282417072D

 65 68  0  0  1  0  0  0  0  0999 V2000
   -4.4201    1.7092    0.0000 C   0  0  0  0  0  0  0  0  0  0  0  0
   -4.1500    0.9297    0.0000 C   0  0  0  0  0  0  0  0  0  0  0  0
   -3.3705    1.1997    0.0000 C   0  0  0  0  0  0  0  0  0  0  0  0
   -3.8800    0.1501    0.0000 C   0  0  0  0  0  0  0  0  0  0  0  0
   -3.0698   -0.0058    0.0000 O   0  0  0  0  0  0  0  0  0  0  0  0
   -4.4201   -0.4735    0.0000 N   0  0  0  0  0  0  0  0  0  0  0  0
   -4.1500   -1.2531    0.0000 C   0  0  2  0  0  0  0  0  0  0  0  0
   -4.6901   -1.8767    0.0000 C   0  0  0  0  0  0  0  0  0  0  0  0
   -5.5002   -1.7208    0.0000 C   0  0  0  0  0  0  0  0  0  0  0  0
   -5.8503   -0.9738    0.0000 C   0  0  0  0  0  0  0  0  0  0  0  0
   -6.6690   -1.0758    0.0000 N   0  0  0  0  0  0  0  0  0  0  0  0
   -6.8249   -1.8860    0.0000 C   0  0  0  0  0  0  0  0  0  0  0  0
   -6.1026   -2.2846    0.0000 C   0  0  0  0  0  0  0  0  0  0  0  0
   -6.0866   -3.1094    0.0000 C   0  0  0  0  0  0  0  0  0  0  0  0
   -6.7930   -3.5357    0.0000 C   0  0  0  0  0  0  0  0  0  0  0  0
   -7.5153   -3.1370    0.0000 C   0  0  0  0  0  0  0  0  0  0  0  0
   -7.5312   -2.3122    0.0000 C   0  0  0  0  0  0  0  0  0  0  0  0
   -3.3399   -1.4090    0.0000 C   0  0  0  0  0  0  0  0  0  0  0  0
   -3.0698   -2.1886    0.0000 O   0  0  0  0  0  0  0  0  0  0  0  0
   -2.7998   -0.7854    0.0000 N   0  0  0  0  0  0  0  0  0  0  0  0
   -1.9897   -0.9413    0.0000 C   0  0  2  0  0  0  0  0  0  0  0  0
   -1.4496   -0.3176    0.0000 C   0  0  0  0  0  0  0  0  0  0  0  0
   -0.6394   -0.4735    0.0000 C   0  0  0  0  0  0  0  0  0  0  0  0
   -0.2894   -1.2206    0.0000 C   0  0  0  0  0  0  0  0  0  0  0  0
    0.5293   -1.1185    0.0000 N   0  0  0  0  0  0  0  0  0  0  0  0
    0.6852   -0.3084    0.0000 C   0  0  0  0  0  0  0  0  0  0  0  0
   -0.0371    0.0902    0.0000 C   0  0  0  0  0  0  0  0  0  0  0  0
   -0.0531    0.9151    0.0000 C   0  0  0  0  0  0  0  0  0  0  0  0
    0.6533    1.3413    0.0000 C   0  0  0  0  0  0  0  0  0  0  0  0
    1.3756    0.9427    0.0000 C   0  0  0  0  0  0  0  0  0  0  0  0
    1.3916    0.1178    0.0000 C   0  0  0  0  0  0  0  0  0  0  0  0
   -1.7196   -1.7208    0.0000 N   0  0  0  0  0  0  0  0  0  0  0  0
   -0.9095   -1.8767    0.0000 C   0  0  0  0  0  0  0  0  0  0  0  0
   -0.6394   -2.6563    0.0000 O   0  0  0  0  0  0  0  0  0  0  0  0
   -4.9296    0.6596    0.0000 N   0  0  0  0  0  0  0  0  0  0  0  0
   -3.7197    2.5181    0.0000 H   0  0  0  0  0  0  0  0  0  0  0  0
   -5.4708    1.9113    0.0000 H   0  0  0  0  0  0  0  0  0  0  0  0
   -4.7704    2.7202    0.0000 H   0  0  0  0  0  0  0  0  0  0  0  0
   -2.5617    0.4992    0.0000 H   0  0  0  0  0  0  0  0  0  0  0  0
   -3.1683    2.2504    0.0000 H   0  0  0  0  0  0  0  0  0  0  0  0
   -2.3594    1.5499    0.0000 H   0  0  0  0  0  0  0  0  0  0  0  0
   -5.3869   -0.2874    0.0000 H   0  0  0  0  0  0  0  0  0  0  0  0
   -5.2007   -1.0509    0.0000 H   0  0  0  0  0  0  0  0  0  0  0  0
   -4.3399   -2.8878    0.0000 H   0  0  0  0  0  0  0  0  0  0  0  0
   -5.3906   -2.6855    0.0000 H   0  0  0  0  0  0  0  0  0  0  0  0
   -5.3517   -0.0703    0.0000 H   0  0  0  0  0  0  0  0  0  0  0  0
   -7.3417   -0.3570    0.0000 H   0  0  0  0  0  0  0  0  0  0  0  0
   -5.1830   -3.6080    0.0000 H   0  0  0  0  0  0  0  0  0  0  0  0
   -6.7731   -4.5675    0.0000 H   0  0  0  0  0  0  0  0  0  0  0  0
   -8.3989   -3.6701    0.0000 H   0  0  0  0  0  0  0  0  0  0  0  0
   -8.4347   -1.8135    0.0000 H   0  0  0  0  0  0  0  0  0  0  0  0
   -3.1220    0.1449    0.0000 H   0  0  0  0  0  0  0  0  0  0  0  0
   -2.3400    0.0697    0.0000 H   0  0  0  0  0  0  0  0  0  0  0  0
   -1.7999    0.6934    0.0000 H   0  0  0  0  0  0  0  0  0  0  0  0
   -0.7491    0.4913    0.0000 H   0  0  0  0  0  0  0  0  0  0  0  0
   -0.7881   -2.1241    0.0000 H   0  0  0  0  0  0  0  0  0  0  0  0
    1.2021   -1.8373    0.0000 H   0  0  0  0  0  0  0  0  0  0  0  0
   -0.9566    1.4137    0.0000 H   0  0  0  0  0  0  0  0  0  0  0  0
    0.6334    2.3731    0.0000 H   0  0  0  0  0  0  0  0  0  0  0  0
    2.2592    1.4759    0.0000 H   0  0  0  0  0  0  0  0  0  0  0  0
    2.2951   -0.3808    0.0000 H   0  0  0  0  0  0  0  0  0  0  0  0
   -2.3641   -2.4650    0.0000 H   0  0  0  0  0  0  0  0  0  0  0  0
   -0.2339   -1.0966    0.0000 H   0  0  0  0  0  0  0  0  0  0  0  0
   -5.7007    1.3273    0.0000 H   0  0  0  0  0  0  0  0  0  0  0  0
   -5.1223   -0.3420    0.0000 H   0  0  0  0  0  0  0  0  0  0  0  0
  1  2  1  0  0  0  0
  1 36  1  0  0  0  0
  1 37  1  0  0  0  0
  1 38  1  0  0  0  0
  2  3  1  0  0  0  0
  2  4  1  0  0  0  0
  2 35  1  0  0  0  0
  3 39  1  0  0  0  0
  3 40  1  0  0  0  0
  3 41  1  0  0  0  0
  4  5  2  0  0  0  0
  4  6  1  0  0  0  0
  6 42  1  0  0  0  0
  7  6  1  0  0  0  0
  7  8  1  0  0  0  0
  7 18  1  0  0  0  0
  7 43  1  6  0  0  0
  8  9  1  0  0  0  0
  8 44  1  0  0  0  0
  8 45  1  0  0  0  0
  9 10  2  0  0  0  0
  9 13  1  0  0  0  0
 10 11  1  0  0  0  0
 10 46  1  0  0  0  0
 11 12  1  0  0  0  0
 11 47  1  0  0  0  0
 12 13  1  0  0  0  0
 12 17  2  0  0  0  0
 13 14  2  0  0  0  0
 14 15  1  0  0  0  0
 14 48  1  0  0  0  0
 15 16  2  0  0  0  0
 15 49  1  0  0  0  0
 16 17  1  0  0  0  0
 16 50  1  0  0  0  0
 17 51  1  0  0  0  0
 18 19  2  0  0  0  0
 18 20  1  0  0  0  0
 20 52  1  0  0  0  0
 21 20  1  0  0  0  0
 21 22  1  0  0  0  0
 21 32  1  0  0  0  0
 21 53  1  1  0  0  0
 22 23  1  0  0  0  0
 22 54  1  0  0  0  0
 22 55  1  0  0  0  0
 23 24  2  0  0  0  0
 23 27  1  0  0  0  0
 24 25  1  0  0  0  0
 24 56  1  0  0  0  0
 25 26  1  0  0  0  0
 25 57  1  0  0  0  0
 26 27  1  0  0  0  0
 26 31  2  0  0  0  0
 27 28  2  0  0  0  0
 28 29  1  0  0  0  0
 28 58  1  0  0  0  0
 29 30  2  0  0  0  0
 29 59  1  0  0  0  0
 30 31  1  0  0  0  0
 30 60  1  0  0  0  0
 31 61  1  0  0  0  0
 32 33  1  0  0  0  0
 32 62  1  0  0  0  0
 33 34  2  0  0  0  0
 33 63  1  0  0  0  0
 35 64  1  0  0  0  0
 35 65  1  0  0  0  0
M  END
>  <DRUGBANK_ID>
DB13074

>  <SECONDARY_ACCESSION_NUMBERS>
DB06066; DB05917

>  <COMMON_NAME>
Macimorelin

>  <CAS_NUMBER>
381231-18-1

>  <UNII>
8680B21W73

>  <SYNONYMS>
Macimorelin

$$$$
