395
 OpenBabel10282417072D

 42 41  0  0  1  0  0  0  0  0999 V2000
    6.3799   -0.4529    0.0000 O   0  0  0  0  0  0  0  0  0  0  0  0
    3.5220   -0.4529    0.0000 O   0  0  0  0  0  0  0  0  0  0  0  0
    7.0944    0.7846    0.0000 O   0  0  0  0  0  0  0  0  0  0  0  0
    2.8075   -1.6905    0.0000 O   0  0  0  0  0  0  0  0  0  0  0  0
    7.8089   -0.4529    0.0000 N   0  0  0  0  0  0  0  0  0  0  0  0
    2.0930   -0.4529    0.0000 N   0  0  0  0  0  0  0  0  0  0  0  0
    4.9509   -0.4529    0.0000 C   0  0  3  0  0  0  0  0  0  0  0  0
    4.5384    0.2615    0.0000 C   0  0  0  0  0  0  0  0  0  0  0  0
    5.6655   -0.0404    0.0000 C   0  0  0  0  0  0  0  0  0  0  0  0
    4.2365   -0.8654    0.0000 C   0  0  0  0  0  0  0  0  0  0  0  0
    5.3634   -1.1675    0.0000 C   0  0  0  0  0  0  0  0  0  0  0  0
    4.9509    0.9760    0.0000 C   0  0  0  0  0  0  0  0  0  0  0  0
    4.5384    1.6905    0.0000 C   0  0  0  0  0  0  0  0  0  0  0  0
    7.0944   -0.0404    0.0000 C   0  0  0  0  0  0  0  0  0  0  0  0
    8.5234   -0.0404    0.0000 C   0  0  0  0  0  0  0  0  0  0  0  0
    2.8075   -0.8654    0.0000 C   0  0  0  0  0  0  0  0  0  0  0  0
    8.5234    0.7846    0.0000 C   0  0  0  0  0  0  0  0  0  0  0  0
    9.2379   -0.4529    0.0000 C   0  0  0  0  0  0  0  0  0  0  0  0
    7.8089   -1.4374    0.0000 H   0  0  0  0  0  0  0  0  0  0  0  0
    2.0930    0.5316    0.0000 H   0  0  0  0  0  0  0  0  0  0  0  0
    1.2404   -0.9452    0.0000 H   0  0  0  0  0  0  0  0  0  0  0  0
    3.4684    0.2615    0.0000 H   0  0  0  0  0  0  0  0  0  0  0  0
    4.0034    1.1881    0.0000 H   0  0  0  0  0  0  0  0  0  0  0  0
    5.6656    1.0296    0.0000 H   0  0  0  0  0  0  0  0  0  0  0  0
    4.7389    0.4947    0.0000 H   0  0  0  0  0  0  0  0  0  0  0  0
    4.2365   -1.9354    0.0000 H   0  0  0  0  0  0  0  0  0  0  0  0
    5.1632   -1.4004    0.0000 H   0  0  0  0  0  0  0  0  0  0  0  0
    4.8283   -2.0941    0.0000 H   0  0  0  0  0  0  0  0  0  0  0  0
    6.4334   -1.1676    0.0000 H   0  0  0  0  0  0  0  0  0  0  0  0
    5.8983   -2.0942    0.0000 H   0  0  0  0  0  0  0  0  0  0  0  0
    6.0209    0.9760    0.0000 H   0  0  0  0  0  0  0  0  0  0  0  0
    5.4859    1.9026    0.0000 H   0  0  0  0  0  0  0  0  0  0  0  0
    5.0734    2.6171    0.0000 H   0  0  0  0  0  0  0  0  0  0  0  0
    3.4684    1.6905    0.0000 H   0  0  0  0  0  0  0  0  0  0  0  0
    4.0034    2.6172    0.0000 H   0  0  0  0  0  0  0  0  0  0  0  0
    9.4500    0.4946    0.0000 H   0  0  0  0  0  0  0  0  0  0  0  0
    9.4500    1.3196    0.0000 H   0  0  0  0  0  0  0  0  0  0  0  0
    7.5968    1.3196    0.0000 H   0  0  0  0  0  0  0  0  0  0  0  0
    8.5234    1.8546    0.0000 H   0  0  0  0  0  0  0  0  0  0  0  0
    9.2379   -1.5229    0.0000 H   0  0  0  0  0  0  0  0  0  0  0  0
   10.1645    0.0821    0.0000 H   0  0  0  0  0  0  0  0  0  0  0  0
   10.1646   -0.9879    0.0000 H   0  0  0  0  0  0  0  0  0  0  0  0
  1  9  1  0  0  0  0
  1 14  1  0  0  0  0
  2 10  1  0  0  0  0
  2 16  1  0  0  0  0
  3 14  2  0  0  0  0
  4 16  2  0  0  0  0
  5 14  1  0  0  0  0
  5 15  1  0  0  0  0
  5 19  1  0  0  0  0
  6 16  1  0  0  0  0
  6 20  1  0  0  0  0
  6 21  1  0  0  0  0
  7  8  1  0  0  0  0
  7  9  1  0  0  0  0
  7 10  1  0  0  0  0
  7 11  1  0  0  0  0
  8 12  1  0  0  0  0
  8 22  1  0  0  0  0
  8 23  1  0  0  0  0
  9 24  1  0  0  0  0
  9 25  1  0  0  0  0
 10 26  1  0  0  0  0
 10 27  1  0  0  0  0
 11 28  1  0  0  0  0
 11 29  1  0  0  0  0
 11 30  1  0  0  0  0
 12 13  1  0  0  0  0
 12 31  1  0  0  0  0
 12 32  1  0  0  0  0
 13 33  1  0  0  0  0
 13 34  1  0  0  0  0
 13 35  1  0  0  0  0
 15 17  1  0  0  0  0
 15 18  1  0  0  0  0
 15 36  1  0  0  0  0
 17 37  1  0  0  0  0
 17 38  1  0  0  0  0
 17 39  1  0  0  0  0
 18 40  1  0  0  0  0
 18 41  1  0  0  0  0
 18 42  1  0  0  0  0
M  END
>  <DRUGBANK_ID>
DB00395

>  <SECONDARY_ACCESSION_NUMBERS>
APRD00417

>  <COMMON_NAME>
Carisoprodol

>  <CAS_NUMBER>
78-44-4

>  <UNII>
21925K482H

>  <SYNONYMS>
(Â±)-2-methyl-2-propyl-1,3-propanediol carbamate isopropylcarbamate; (1-methylethyl)carbamic acid 2-(((aminocarbonyl)oxy)methyl)-2-methylpentyl ester; (RS)-2-{[(aminocarbonyl)oxy]methyl}-2-methylpentyl isopropylcarbamate; 2-methyl-2-propyl-1,3-propanediol carbamate isopropylcarbamate; 2-methyl-2-propyltrimethylene carbamate isopropylcarbamate; carbamic acid 2-isopropylcarbamoyloxymethyl-2-methyl-pentyl ester; Carisoprodol; Carisoprodolo; Carisoprodolum; Isobamate; Isomeprobamate; Isopropyl meprobamate; Isopropylmeprobamate; N-isopropy-2-methyl-2-propyl-1,3-propanediol dicarbamate

$$$$
