
 OpenBabel10282417072D

 41 42  0  0  0  0  0  0  0  0999 V2000
   -0.0252    1.9231    0.0000 C   0  0  0  0  0  0  0  0  0  0  0  0
    0.6892    1.5106    0.0000 C   0  0  0  0  0  0  0  0  0  0  0  0
   -0.0252    0.2731    0.0000 C   0  0  0  0  0  0  0  0  0  0  0  0
    0.6892    0.6856    0.0000 C   0  0  0  0  0  0  0  0  0  0  0  0
   -0.7397    1.5106    0.0000 C   0  0  0  0  0  0  0  0  0  0  0  0
   -0.7397    0.6856    0.0000 C   0  0  0  0  0  0  0  0  0  0  0  0
    1.9586    1.0981    0.0000 C   0  0  0  0  0  0  0  0  0  0  0  0
    1.4738    1.7655    0.0000 N   0  0  0  0  0  0  0  0  0  0  0  0
    1.4737    0.4307    0.0000 C   0  0  0  0  0  0  0  0  0  0  0  0
   -1.4541    0.2732    0.0000 C   0  0  0  0  0  0  0  0  0  0  0  0
   -2.8830    0.2732    0.0000 N   0  0  0  0  0  0  0  0  0  0  0  0
   -3.5975    0.6857    0.0000 C   0  0  0  0  0  0  0  0  0  0  0  0
    2.5357   -0.5255    0.0000 C   0  0  0  0  0  0  0  0  0  0  0  0
    2.2385   -1.9231    0.0000 C   0  0  0  0  0  0  0  0  0  0  0  0
    2.7905   -1.3101    0.0000 N   0  0  0  0  0  0  0  0  0  0  0  0
    3.5975   -1.4815    0.0000 C   0  0  0  0  0  0  0  0  0  0  0  0
    1.7286   -0.3539    0.0000 C   0  0  0  0  0  0  0  0  0  0  0  0
   -2.1686    0.6857    0.0000 S   0  0  0  0  0  0  0  0  0  0  0  0
   -2.5810    1.4001    0.0000 O   0  0  0  0  0  0  0  0  0  0  0  0
   -1.7561    1.4001    0.0000 O   0  0  0  0  0  0  0  0  0  0  0  0
   -0.0252    2.9551    0.0000 H   0  0  0  0  0  0  0  0  0  0  0  0
   -0.0252   -0.7589    0.0000 H   0  0  0  0  0  0  0  0  0  0  0  0
   -1.6334    2.0266    0.0000 H   0  0  0  0  0  0  0  0  0  0  0  0
    2.9906    1.0980    0.0000 H   0  0  0  0  0  0  0  0  0  0  0  0
    1.7781    2.7018    0.0000 H   0  0  0  0  0  0  0  0  0  0  0  0
   -1.4541   -0.7968    0.0000 H   0  0  0  0  0  0  0  0  0  0  0  0
   -2.3807   -0.2618    0.0000 H   0  0  0  0  0  0  0  0  0  0  0  0
   -2.8830   -0.7468    0.0000 H   0  0  0  0  0  0  0  0  0  0  0  0
   -3.5975    1.7557    0.0000 H   0  0  0  0  0  0  0  0  0  0  0  0
   -4.5241    0.1507    0.0000 H   0  0  0  0  0  0  0  0  0  0  0  0
   -4.5242    1.2207    0.0000 H   0  0  0  0  0  0  0  0  0  0  0  0
    3.2518    0.2696    0.0000 H   0  0  0  0  0  0  0  0  0  0  0  0
    3.5823   -0.7481    0.0000 H   0  0  0  0  0  0  0  0  0  0  0  0
    1.1919   -1.7006    0.0000 H   0  0  0  0  0  0  0  0  0  0  0  0
    2.5691   -2.9407    0.0000 H   0  0  0  0  0  0  0  0  0  0  0  0
    1.5225   -2.7182    0.0000 H   0  0  0  0  0  0  0  0  0  0  0  0
    3.9283   -2.4991    0.0000 H   0  0  0  0  0  0  0  0  0  0  0  0
    4.3133   -0.6862    0.0000 H   0  0  0  0  0  0  0  0  0  0  0  0
    4.6442   -1.7038    0.0000 H   0  0  0  0  0  0  0  0  0  0  0  0
    1.0126   -1.1490    0.0000 H   0  0  0  0  0  0  0  0  0  0  0  0
    2.0592   -1.3715    0.0000 H   0  0  0  0  0  0  0  0  0  0  0  0
  1  2  2  0  0  0  0
  1 21  1  0  0  0  0
  2  8  1  0  0  0  0
  3  4  2  0  0  0  0
  3  6  1  0  0  0  0
  3 22  1  0  0  0  0
  4  2  1  0  0  0  0
  5  1  1  0  0  0  0
  5 23  1  0  0  0  0
  6  5  2  0  0  0  0
  6 10  1  0  0  0  0
  7 24  1  0  0  0  0
  8  7  1  0  0  0  0
  8 25  1  0  0  0  0
  9  4  1  0  0  0  0
  9  7  2  0  0  0  0
  9 17  1  0  0  0  0
 10 18  1  0  0  0  0
 10 26  1  0  0  0  0
 10 27  1  0  0  0  0
 11 12  1  0  0  0  0
 11 28  1  0  0  0  0
 12 29  1  0  0  0  0
 12 30  1  0  0  0  0
 12 31  1  0  0  0  0
 13 15  1  0  0  0  0
 13 32  1  0  0  0  0
 13 33  1  0  0  0  0
 14 34  1  0  0  0  0
 14 35  1  0  0  0  0
 14 36  1  0  0  0  0
 15 14  1  0  0  0  0
 15 16  1  0  0  0  0
 16 37  1  0  0  0  0
 16 38  1  0  0  0  0
 16 39  1  0  0  0  0
 17 13  1  0  0  0  0
 17 40  1  0  0  0  0
 17 41  1  0  0  0  0
 18 11  1  0  0  0  0
 18 19  2  0  0  0  0
 18 20  2  0  0  0  0
M  END
>  <DRUGBANK_ID>
DB00669

>  <SECONDARY_ACCESSION_NUMBERS>
APRD00379

>  <COMMON_NAME>
Sumatriptan

>  <CAS_NUMBER>
103628-46-2

>  <UNII>
8R78F6L9VO

>  <SYNONYMS>
(3-[2-(dimethylamino)ethyl]-1H-indol-5-yl)-N-methylmethanesulfonamide; 1-[3-(2-dimethylaminoethyl)-1H-indol-5-yl]-N-methyl-methanesulfonamide; 3-(2-(dimethylamino)ethyl)-N-methyl-1H-indole-5-methanesulfonamide; 3-[2-(dimethylamino)ethyl]-N-methylindole-5-methanesulfonamide; Sumatriptan; Sumatript√°n; Sumatriptanum

$$$$
