
 OpenBabel10282417072D

 43 43  0  0  0  0  0  0  0  0999 V2000
   -3.5724   -1.2375    0.0000 C   0  0  0  0  0  0  0  0  0  0  0  0
   -2.8579   -1.6500    0.0000 C   0  0  0  0  0  0  0  0  0  0  0  0
   -2.1434   -1.2375    0.0000 N   0  0  0  0  0  0  0  0  0  0  0  0
   -2.1434   -0.4125    0.0000 C   0  0  0  0  0  0  0  0  0  0  0  0
   -1.4289   -0.0000    0.0000 C   0  0  0  0  0  0  0  0  0  0  0  0
   -1.4289   -1.6500    0.0000 C   0  0  0  0  0  0  0  0  0  0  0  0
   -0.7145   -1.2375    0.0000 C   0  0  0  0  0  0  0  0  0  0  0  0
    0.0000   -1.6500    0.0000 N   0  0  0  0  0  0  0  0  0  0  0  0
    0.7145   -1.2375    0.0000 C   0  0  0  0  0  0  0  0  0  0  0  0
    1.4289   -1.6500    0.0000 O   0  0  0  0  0  0  0  0  0  0  0  0
    0.7145   -0.4125    0.0000 C   0  0  0  0  0  0  0  0  0  0  0  0
    0.0000   -0.0000    0.0000 C   0  0  0  0  0  0  0  0  0  0  0  0
    0.0000    0.8250    0.0000 C   0  0  0  0  0  0  0  0  0  0  0  0
    0.7145    1.2375    0.0000 C   0  0  0  0  0  0  0  0  0  0  0  0
    0.7145    2.0625    0.0000 N   0  0  0  0  0  0  0  0  0  0  0  0
    1.4289    2.4750    0.0000 C   0  0  0  0  0  0  0  0  0  0  0  0
    1.4289    3.3000    0.0000 C   0  0  0  0  0  0  0  0  0  0  0  0
    2.1434    2.0625    0.0000 O   0  0  0  0  0  0  0  0  0  0  0  0
    1.4289    0.8250    0.0000 C   0  0  0  0  0  0  0  0  0  0  0  0
    1.4289   -0.0000    0.0000 C   0  0  0  0  0  0  0  0  0  0  0  0
   -3.5724   -0.1675    0.0000 H   0  0  0  0  0  0  0  0  0  0  0  0
   -4.4990   -1.7725    0.0000 H   0  0  0  0  0  0  0  0  0  0  0  0
   -4.4991   -0.7025    0.0000 H   0  0  0  0  0  0  0  0  0  0  0  0
   -2.8579   -2.7200    0.0000 H   0  0  0  0  0  0  0  0  0  0  0  0
   -1.9313   -2.1850    0.0000 H   0  0  0  0  0  0  0  0  0  0  0  0
   -3.0700    0.1225    0.0000 H   0  0  0  0  0  0  0  0  0  0  0  0
   -2.1434    0.6575    0.0000 H   0  0  0  0  0  0  0  0  0  0  0  0
   -0.5023   -0.5350    0.0000 H   0  0  0  0  0  0  0  0  0  0  0  0
   -1.4289    1.0700    0.0000 H   0  0  0  0  0  0  0  0  0  0  0  0
   -0.5022    0.5350    0.0000 H   0  0  0  0  0  0  0  0  0  0  0  0
   -1.4289   -2.7200    0.0000 H   0  0  0  0  0  0  0  0  0  0  0  0
   -0.5022   -2.1850    0.0000 H   0  0  0  0  0  0  0  0  0  0  0  0
   -0.7145   -0.1675    0.0000 H   0  0  0  0  0  0  0  0  0  0  0  0
    0.2121   -0.7025    0.0000 H   0  0  0  0  0  0  0  0  0  0  0  0
    0.0000   -2.6345    0.0000 H   0  0  0  0  0  0  0  0  0  0  0  0
   -0.8937   -0.5160    0.0000 H   0  0  0  0  0  0  0  0  0  0  0  0
   -0.8937    1.3410    0.0000 H   0  0  0  0  0  0  0  0  0  0  0  0
   -0.1381    2.5547    0.0000 H   0  0  0  0  0  0  0  0  0  0  0  0
    2.3555    3.8350    0.0000 H   0  0  0  0  0  0  0  0  0  0  0  0
    0.5023    3.8350    0.0000 H   0  0  0  0  0  0  0  0  0  0  0  0
    1.4289    4.3700    0.0000 H   0  0  0  0  0  0  0  0  0  0  0  0
    2.3226    1.3410    0.0000 H   0  0  0  0  0  0  0  0  0  0  0  0
    2.3226   -0.5160    0.0000 H   0  0  0  0  0  0  0  0  0  0  0  0
  1  2  1  0  0  0  0
  1 21  1  0  0  0  0
  1 22  1  0  0  0  0
  1 23  1  0  0  0  0
  2  3  1  0  0  0  0
  2 24  1  0  0  0  0
  2 25  1  0  0  0  0
  3  4  1  0  0  0  0
  3  6  1  0  0  0  0
  4  5  1  0  0  0  0
  4 26  1  0  0  0  0
  4 27  1  0  0  0  0
  5 28  1  0  0  0  0
  5 29  1  0  0  0  0
  5 30  1  0  0  0  0
  6  7  1  0  0  0  0
  6 31  1  0  0  0  0
  6 32  1  0  0  0  0
  7  8  1  0  0  0  0
  7 33  1  0  0  0  0
  7 34  1  0  0  0  0
  8  9  1  0  0  0  0
  8 35  1  0  0  0  0
  9 10  2  0  0  0  0
  9 11  1  0  0  0  0
 11 12  2  0  0  0  0
 11 20  1  0  0  0  0
 12 13  1  0  0  0  0
 12 36  1  0  0  0  0
 13 14  2  0  0  0  0
 13 37  1  0  0  0  0
 14 15  1  0  0  0  0
 14 19  1  0  0  0  0
 15 16  1  0  0  0  0
 15 38  1  0  0  0  0
 16 17  1  0  0  0  0
 16 18  2  0  0  0  0
 17 39  1  0  0  0  0
 17 40  1  0  0  0  0
 17 41  1  0  0  0  0
 19 20  2  0  0  0  0
 19 42  1  0  0  0  0
 20 43  1  0  0  0  0
M  END
>  <DRUGBANK_ID>
DB17602

>  <COMMON_NAME>
Acecainide

>  <CAS_NUMBER>
32795-44-1

>  <UNII>
910Q707V6F

>  <SYNONYMS>
4'-((2-(diethylamino)ethyl)carbamoyl)acetanilide; Acetylprocainamide; Acetylprocainamide, n-; Benzamide, 4-(acetylamino)-n-(2-(diethylamino)ethyl)-; N-acetyl-procainamide; N-acetylnovocainamide; N-acetylprocainamide; N-acetylprocaine amide

$$$$
