ESI
 OpenBabel10282417072D

 21 22  0  0  0  0  0  0  0  0999 V2000
   -0.8071    0.0999    0.0000 C   0  0  0  0  0  0  0  0  0  0  0  0
    0.0179    0.0999    0.0000 C   0  0  0  0  0  0  0  0  0  0  0  0
   -1.2196    0.8144    0.0000 N   0  0  0  0  0  0  0  0  0  0  0  0
   -1.2196   -0.6145    0.0000 N   0  3  0  0  0  0  0  0  0  0  0  0
    0.5029   -0.5675    0.0000 S   0  0  0  0  0  0  0  0  0  0  0  0
    1.2875   -0.3126    0.0000 C   0  0  0  0  0  0  0  0  0  0  0  0
    1.2875    0.5124    0.0000 C   0  0  0  0  0  0  0  0  0  0  0  0
    0.5029    0.7674    0.0000 C   0  0  0  0  0  0  0  0  0  0  0  0
    2.0019   -0.7251    0.0000 C   0  0  0  0  0  0  0  0  0  0  0  0
    2.7164   -0.3126    0.0000 C   0  0  0  0  0  0  0  0  0  0  0  0
    2.7164    0.5124    0.0000 C   0  0  0  0  0  0  0  0  0  0  0  0
    2.0019    0.9249    0.0000 C   0  0  0  0  0  0  0  0  0  0  0  0
    2.0019    1.7499    0.0000 I   0  0  0  0  0  0  0  0  0  0  0  0
   -0.7273    1.6670    0.0000 H   0  0  0  0  0  0  0  0  0  0  0  0
   -2.2041    0.8144    0.0000 H   0  0  0  0  0  0  0  0  0  0  0  0
   -2.2041   -0.6145    0.0000 H   0  0  0  0  0  0  0  0  0  0  0  0
   -0.7274   -1.4671    0.0000 H   0  0  0  0  0  0  0  0  0  0  0  0
    0.1840    1.7489    0.0000 H   0  0  0  0  0  0  0  0  0  0  0  0
    2.0019   -1.7571    0.0000 H   0  0  0  0  0  0  0  0  0  0  0  0
    3.6101   -0.8286    0.0000 H   0  0  0  0  0  0  0  0  0  0  0  0
    3.6101    1.0284    0.0000 H   0  0  0  0  0  0  0  0  0  0  0  0
  1  2  1  0  0  0  0
  1  3  1  0  0  0  0
  1  4  2  0  0  0  0
  2  5  1  0  0  0  0
  2  8  2  0  0  0  0
  3 14  1  0  0  0  0
  3 15  1  0  0  0  0
  4 16  1  0  0  0  0
  4 17  1  0  0  0  0
  5  6  1  0  0  0  0
  6  7  2  0  0  0  0
  6  9  1  0  0  0  0
  7  8  1  0  0  0  0
  7 12  1  0  0  0  0
  8 18  1  0  0  0  0
  9 10  2  0  0  0  0
  9 19  1  0  0  0  0
 10 11  1  0  0  0  0
 10 20  1  0  0  0  0
 11 12  2  0  0  0  0
 11 21  1  0  0  0  0
 12 13  1  0  0  0  0
M  CHG  1   4   1
M  END
>  <DRUGBANK_ID>
DB03136

>  <SECONDARY_ACCESSION_NUMBERS>
EXPT01360

>  <COMMON_NAME>
4-Iodobenzo[B]Thiophene-2-Carboxamidine

$$$$
