6OC
 OpenBabel10282417072D

 52 51  0  0  0  0  0  0  0  0999 V2000
   -1.0981    3.8276    0.0000 C   0  0  0  0  0  0  0  0  0  0  0  0
   -1.8126    3.4151    0.0000 C   0  0  0  0  0  0  0  0  0  0  0  0
   -1.8126    2.5901    0.0000 C   0  0  0  0  0  0  0  0  0  0  0  0
   -2.5271    2.1776    0.0000 C   0  0  0  0  0  0  0  0  0  0  0  0
   -2.5271    1.3526    0.0000 C   0  0  0  0  0  0  0  0  0  0  0  0
   -3.2415    0.9401    0.0000 C   0  0  0  0  0  0  0  0  0  0  0  0
   -3.2415    0.1151    0.0000 C   0  0  0  0  0  0  0  0  0  0  0  0
   -2.5271   -0.2974    0.0000 C   0  0  0  0  0  0  0  0  0  0  0  0
   -2.5271   -1.1224    0.0000 C   0  0  0  0  0  0  0  0  0  0  0  0
   -1.8126   -1.5349    0.0000 C   0  0  0  0  0  0  0  0  0  0  0  0
   -1.0981   -1.1224    0.0000 C   0  0  1  0  0  0  0  0  0  0  0  0
   -0.3836   -1.5349    0.0000 C   0  0  0  0  0  0  0  0  0  0  0  0
    0.3308   -1.1224    0.0000 C   0  0  0  0  0  0  0  0  0  0  0  0
    0.3308   -0.2974    0.0000 O   0  0  0  0  0  0  0  0  0  0  0  0
    1.0453   -1.5349    0.0000 C   0  0  0  0  0  0  0  0  0  0  0  0
    1.7598   -1.1224    0.0000 C   0  0  0  0  0  0  0  0  0  0  0  0
    2.4742   -1.5349    0.0000 C   0  0  0  0  0  0  0  0  0  0  0  0
    3.1887   -1.1224    0.0000 C   0  0  0  0  0  0  0  0  0  0  0  0
    3.9032   -1.5349    0.0000 C   0  0  0  0  0  0  0  0  0  0  0  0
    4.6177   -1.1224    0.0000 O   0  0  0  0  0  0  0  0  0  0  0  0
    3.9032   -2.3599    0.0000 O   0  0  0  0  0  0  0  0  0  0  0  0
   -1.0981   -0.2974    0.0000 O   0  0  0  0  0  0  0  0  0  0  0  0
   -1.0981   -1.7063    0.0000 H   0  0  0  0  0  0  0  0  0  0  0  0
   -0.1715    3.2926    0.0000 H   0  0  0  0  0  0  0  0  0  0  0  0
   -1.0981    4.8976    0.0000 H   0  0  0  0  0  0  0  0  0  0  0  0
   -0.1714    4.3626    0.0000 H   0  0  0  0  0  0  0  0  0  0  0  0
   -2.7392    3.9501    0.0000 H   0  0  0  0  0  0  0  0  0  0  0  0
   -2.7392    2.8801    0.0000 H   0  0  0  0  0  0  0  0  0  0  0  0
   -0.8860    2.0551    0.0000 H   0  0  0  0  0  0  0  0  0  0  0  0
   -1.8126    1.5201    0.0000 H   0  0  0  0  0  0  0  0  0  0  0  0
   -3.4537    2.7126    0.0000 H   0  0  0  0  0  0  0  0  0  0  0  0
   -3.4537    1.6426    0.0000 H   0  0  0  0  0  0  0  0  0  0  0  0
   -1.6004    0.8176    0.0000 H   0  0  0  0  0  0  0  0  0  0  0  0
   -2.5271    0.2826    0.0000 H   0  0  0  0  0  0  0  0  0  0  0  0
   -4.1352    1.4561    0.0000 H   0  0  0  0  0  0  0  0  0  0  0  0
   -4.1352   -0.4009    0.0000 H   0  0  0  0  0  0  0  0  0  0  0  0
   -1.6004    0.2376    0.0000 H   0  0  0  0  0  0  0  0  0  0  0  0
   -1.6005   -0.8324    0.0000 H   0  0  0  0  0  0  0  0  0  0  0  0
   -3.4208   -1.6384    0.0000 H   0  0  0  0  0  0  0  0  0  0  0  0
   -1.8126   -2.5669    0.0000 H   0  0  0  0  0  0  0  0  0  0  0  0
   -0.3836   -2.6049    0.0000 H   0  0  0  0  0  0  0  0  0  0  0  0
    0.5431   -2.0699    0.0000 H   0  0  0  0  0  0  0  0  0  0  0  0
    1.0453   -2.6049    0.0000 H   0  0  0  0  0  0  0  0  0  0  0  0
    1.9719   -2.0699    0.0000 H   0  0  0  0  0  0  0  0  0  0  0  0
    1.7598   -0.0524    0.0000 H   0  0  0  0  0  0  0  0  0  0  0  0
    2.6865   -0.5874    0.0000 H   0  0  0  0  0  0  0  0  0  0  0  0
    2.4742   -2.6049    0.0000 H   0  0  0  0  0  0  0  0  0  0  0  0
    3.4008   -2.0699    0.0000 H   0  0  0  0  0  0  0  0  0  0  0  0
    3.1887   -0.0524    0.0000 H   0  0  0  0  0  0  0  0  0  0  0  0
    4.1153   -0.5874    0.0000 H   0  0  0  0  0  0  0  0  0  0  0  0
    3.0917   -2.8284    0.0000 H   0  0  0  0  0  0  0  0  0  0  0  0
   -0.2581    0.1876    0.0000 H   0  0  0  0  0  0  0  0  0  0  0  0
  1  2  1  0  0  0  0
  1 24  1  0  0  0  0
  1 25  1  0  0  0  0
  1 26  1  0  0  0  0
  2  3  1  0  0  0  0
  2 27  1  0  0  0  0
  2 28  1  0  0  0  0
  3  4  1  0  0  0  0
  3 29  1  0  0  0  0
  3 30  1  0  0  0  0
  4  5  1  0  0  0  0
  4 31  1  0  0  0  0
  4 32  1  0  0  0  0
  5  6  1  0  0  0  0
  5 33  1  0  0  0  0
  5 34  1  0  0  0  0
  6  7  2  0  0  0  0
  6 35  1  0  0  0  0
  7  8  1  0  0  0  0
  7 36  1  0  0  0  0
  8  9  1  0  0  0  0
  8 37  1  0  0  0  0
  8 38  1  0  0  0  0
  9 10  2  0  0  0  0
  9 39  1  0  0  0  0
 10 11  1  0  0  0  0
 10 40  1  0  0  0  0
 11 12  1  0  0  0  0
 11 23  1  1  0  0  0
 11 22  1  0  0  0  0
 12 13  1  0  0  0  0
 12 41  1  0  0  0  0
 12 42  1  0  0  0  0
 13 14  2  0  0  0  0
 13 15  1  0  0  0  0
 15 16  1  0  0  0  0
 15 43  1  0  0  0  0
 15 44  1  0  0  0  0
 16 17  1  0  0  0  0
 16 45  1  0  0  0  0
 16 46  1  0  0  0  0
 17 18  1  0  0  0  0
 17 47  1  0  0  0  0
 17 48  1  0  0  0  0
 18 19  1  0  0  0  0
 18 49  1  0  0  0  0
 18 50  1  0  0  0  0
 19 20  2  0  0  0  0
 19 21  1  0  0  0  0
 21 51  1  0  0  0  0
 22 52  1  0  0  0  0
M  END
>  <DRUGBANK_ID>
DB07209

>  <COMMON_NAME>
(8R,9Z,12Z)-8-hydroxy-6-oxooctadeca-9,12-dienoic acid

$$$$
