
 OpenBabel10282417072D

 43 44  0  0  0  0  0  0  0  0999 V2000
    1.4262   -0.0012    0.0000 C   0  0  0  0  0  0  0  0  0  0  0  0
    0.6878    0.3956    0.0000 C   0  0  0  0  0  0  0  0  0  0  0  0
    1.4262   -0.8262    0.0000 C   0  0  0  0  0  0  0  0  0  0  0  0
    2.1575    0.4124    0.0000 C   0  0  0  0  0  0  0  0  0  0  0  0
   -0.0048   -0.0012    0.0000 C   0  0  0  0  0  0  0  0  0  0  0  0
    0.6878   -1.2255    0.0000 C   0  0  0  0  0  0  0  0  0  0  0  0
    2.8574   -0.0012    0.0000 O   0  0  0  0  0  0  0  0  0  0  0  0
    2.1575    1.2399    0.0000 O   0  0  0  0  0  0  0  0  0  0  0  0
   -0.0048   -0.8262    0.0000 C   0  0  0  0  0  0  0  0  0  0  0  0
    3.5645    0.3956    0.0000 C   0  0  0  0  0  0  0  0  0  0  0  0
   -0.7216   -1.2399    0.0000 N   0  0  0  0  0  0  0  0  0  0  0  0
    4.2813   -0.0229    0.0000 C   0  0  0  0  0  0  0  0  0  0  0  0
   -1.4287   -0.8094    0.0000 C   0  0  0  0  0  0  0  0  0  0  0  0
   -2.1478   -1.2014    0.0000 C   0  0  0  0  0  0  0  0  0  0  0  0
   -1.4143    0.0083    0.0000 O   0  0  0  0  0  0  0  0  0  0  0  0
   -2.8406   -0.7805    0.0000 N   0  0  0  0  0  0  0  0  0  0  0  0
   -3.5743   -1.1797    0.0000 C   0  0  0  0  0  0  0  0  0  0  0  0
   -2.8406    0.0204    0.0000 C   0  0  0  0  0  0  0  0  0  0  0  0
   -4.2813   -0.7805    0.0000 C   0  0  0  0  0  0  0  0  0  0  0  0
   -3.5405    0.4341    0.0000 C   0  0  0  0  0  0  0  0  0  0  0  0
   -4.2813    0.0516    0.0000 C   0  0  0  0  0  0  0  0  0  0  0  0
    0.6738    1.4275    0.0000 H   0  0  0  0  0  0  0  0  0  0  0  0
    2.3127   -1.3546    0.0000 H   0  0  0  0  0  0  0  0  0  0  0  0
   -0.8977    0.5163    0.0000 H   0  0  0  0  0  0  0  0  0  0  0  0
    0.6737   -2.2574    0.0000 H   0  0  0  0  0  0  0  0  0  0  0  0
    3.5736    1.4656    0.0000 H   0  0  0  0  0  0  0  0  0  0  0  0
    4.4947    0.9244    0.0000 H   0  0  0  0  0  0  0  0  0  0  0  0
   -0.7331   -2.2243    0.0000 H   0  0  0  0  0  0  0  0  0  0  0  0
    4.2761   -1.0929    0.0000 H   0  0  0  0  0  0  0  0  0  0  0  0
    5.2105    0.5076    0.0000 H   0  0  0  0  0  0  0  0  0  0  0  0
    5.2053   -0.5624    0.0000 H   0  0  0  0  0  0  0  0  0  0  0  0
   -2.1729   -2.2711    0.0000 H   0  0  0  0  0  0  0  0  0  0  0  0
   -3.0864   -1.7151    0.0000 H   0  0  0  0  0  0  0  0  0  0  0  0
   -3.5827   -2.2497    0.0000 H   0  0  0  0  0  0  0  0  0  0  0  0
   -4.5005   -1.7155    0.0000 H   0  0  0  0  0  0  0  0  0  0  0  0
   -1.9112    0.5506    0.0000 H   0  0  0  0  0  0  0  0  0  0  0  0
   -2.8324    1.0904    0.0000 H   0  0  0  0  0  0  0  0  0  0  0  0
   -5.2054   -1.3199    0.0000 H   0  0  0  0  0  0  0  0  0  0  0  0
   -5.2092   -0.2477    0.0000 H   0  0  0  0  0  0  0  0  0  0  0  0
   -3.5099    1.5037    0.0000 H   0  0  0  0  0  0  0  0  0  0  0  0
   -4.4463    1.0037    0.0000 H   0  0  0  0  0  0  0  0  0  0  0  0
   -5.1951    0.6082    0.0000 H   0  0  0  0  0  0  0  0  0  0  0  0
   -4.2436    1.1209    0.0000 H   0  0  0  0  0  0  0  0  0  0  0  0
  1  2  1  0  0  0  0
  1  3  2  0  0  0  0
  1  4  1  0  0  0  0
  2  5  2  0  0  0  0
  2 22  1  0  0  0  0
  3  6  1  0  0  0  0
  3 23  1  0  0  0  0
  4  7  1  0  0  0  0
  4  8  2  0  0  0  0
  5  9  1  0  0  0  0
  5 24  1  0  0  0  0
  6  9  2  0  0  0  0
  6 25  1  0  0  0  0
  7 10  1  0  0  0  0
  9 11  1  0  0  0  0
 10 12  1  0  0  0  0
 10 26  1  0  0  0  0
 10 27  1  0  0  0  0
 11 13  1  0  0  0  0
 11 28  1  0  0  0  0
 12 29  1  0  0  0  0
 12 30  1  0  0  0  0
 12 31  1  0  0  0  0
 13 14  1  0  0  0  0
 13 15  2  0  0  0  0
 14 16  1  0  0  0  0
 14 32  1  0  0  0  0
 14 33  1  0  0  0  0
 16 17  1  0  0  0  0
 16 18  1  0  0  0  0
 17 19  1  0  0  0  0
 17 34  1  0  0  0  0
 17 35  1  0  0  0  0
 18 20  1  0  0  0  0
 18 36  1  0  0  0  0
 18 37  1  0  0  0  0
 19 21  1  0  0  0  0
 19 38  1  0  0  0  0
 19 39  1  0  0  0  0
 20 21  1  0  0  0  0
 20 40  1  0  0  0  0
 20 41  1  0  0  0  0
 21 42  1  0  0  0  0
 21 43  1  0  0  0  0
M  END
>  <DRUGBANK_ID>
DB16527

>  <COMMON_NAME>
Ethyl piperidinoacetylaminobenzoate

>  <CAS_NUMBER>
41653-21-8

>  <UNII>
6M452G7O1F

>  <SYNONYMS>
EPAB; Ethyl p-(piperidinoacetylamino)benzoate; Ethyl piperidinoacetylaminobenzoate; Sulcain; Sulcaine

$$$$
