
 OpenBabel10282417072D

 43 42  0  0  0  0  0  0  0  0999 V2000
   -3.3509    0.3927    0.0000 O   0  0  0  0  0  0  0  0  0  0  0  0
   -3.3509   -0.4323    0.0000 C   0  0  0  0  0  0  0  0  0  0  0  0
   -2.6388   -0.8407    0.0000 C   0  0  0  0  0  0  0  0  0  0  0  0
   -2.6388    0.8094    0.0000 C   0  0  0  0  0  0  0  0  0  0  0  0
   -1.9268    0.3927    0.0000 C   0  0  0  0  0  0  0  0  0  0  0  0
   -1.9303   -0.4323    0.0000 C   0  0  0  0  0  0  0  0  0  0  0  0
   -1.2214   -0.8456    0.0000 O   0  0  0  0  0  0  0  0  0  0  0  0
   -1.2144    0.8045    0.0000 O   0  5  0  0  0  0  0  0  0  0  0  0
   -2.6467    1.6345    0.0000 C   0  0  0  0  0  0  0  0  0  0  0  0
    0.2077   -0.0156    0.0000 Fe  0  1  0  0  0  0  0  0  0  0  0  0
    2.6443    2.6735    0.0000 O   0  0  0  0  0  0  0  0  0  0  0  0
    1.9352    3.0957    0.0000 C   0  0  0  0  0  0  0  0  0  0  0  0
    1.2201    2.6927    0.0000 C   0  0  0  0  0  0  0  0  0  0  0  0
    2.6379    1.8486    0.0000 C   0  0  0  0  0  0  0  0  0  0  0  0
    1.9156    1.4498    0.0000 C   0  0  0  0  0  0  0  0  0  0  0  0
    1.2085    1.8750    0.0000 C   0  0  0  0  0  0  0  0  0  0  0  0
    0.4908    1.4773    0.0000 O   0  0  0  0  0  0  0  0  0  0  0  0
    1.9051    0.6272    0.0000 O   0  5  0  0  0  0  0  0  0  0  0  0
    3.3509    1.4332    0.0000 C   0  0  0  0  0  0  0  0  0  0  0  0
    1.4765   -3.0957    0.0000 O   0  0  0  0  0  0  0  0  0  0  0  0
    2.1998   -2.6988    0.0000 C   0  0  0  0  0  0  0  0  0  0  0  0
    2.2152   -1.8780    0.0000 C   0  0  0  0  0  0  0  0  0  0  0  0
    0.7687   -2.6719    0.0000 C   0  0  0  0  0  0  0  0  0  0  0  0
    0.7914   -1.8473    0.0000 C   0  0  0  0  0  0  0  0  0  0  0  0
    1.5163   -1.4534    0.0000 C   0  0  0  0  0  0  0  0  0  0  0  0
    1.5375   -0.6330    0.0000 O   0  0  0  0  0  0  0  0  0  0  0  0
    0.0876   -1.4209    0.0000 O   0  5  0  0  0  0  0  0  0  0  0  0
    0.0491   -3.0758    0.0000 C   0  0  0  0  0  0  0  0  0  0  0  0
   -4.2439   -0.9496    0.0000 H   0  0  0  0  0  0  0  0  0  0  0  0
   -2.6377   -1.8727    0.0000 H   0  0  0  0  0  0  0  0  0  0  0  0
   -1.7252    2.1783    0.0000 H   0  0  0  0  0  0  0  0  0  0  0  0
   -3.5784    2.1606    0.0000 H   0  0  0  0  0  0  0  0  0  0  0  0
   -2.6569    2.7045    0.0000 H   0  0  0  0  0  0  0  0  0  0  0  0
    1.9475    4.1276    0.0000 H   0  0  0  0  0  0  0  0  0  0  0  0
    0.3328    3.2196    0.0000 H   0  0  0  0  0  0  0  0  0  0  0  0
    3.3467    0.3632    0.0000 H   0  0  0  0  0  0  0  0  0  0  0  0
    4.2796    1.9645    0.0000 H   0  0  0  0  0  0  0  0  0  0  0  0
    4.2754    0.8946    0.0000 H   0  0  0  0  0  0  0  0  0  0  0  0
    3.0829   -3.2328    0.0000 H   0  0  0  0  0  0  0  0  0  0  0  0
    3.1194   -1.3805    0.0000 H   0  0  0  0  0  0  0  0  0  0  0  0
   -0.8710   -2.5296    0.0000 H   0  0  0  0  0  0  0  0  0  0  0  0
    0.0361   -4.1457    0.0000 H   0  0  0  0  0  0  0  0  0  0  0  0
   -0.8840   -3.5995    0.0000 H   0  0  0  0  0  0  0  0  0  0  0  0
  1  4  1  0  0  0  0
  1  2  1  0  0  0  0
  2  3  2  0  0  0  0
  2 29  1  0  0  0  0
  3  6  1  0  0  0  0
  3 30  1  0  0  0  0
  4  9  1  0  0  0  0
  5  4  2  0  0  0  0
  5  6  1  0  0  0  0
  5  8  1  0  0  0  0
  6  7  2  0  0  0  0
  9 31  1  0  0  0  0
  9 32  1  0  0  0  0
  9 33  1  0  0  0  0
 11 14  1  0  0  0  0
 11 12  1  0  0  0  0
 12 13  2  0  0  0  0
 12 34  1  0  0  0  0
 13 16  1  0  0  0  0
 13 35  1  0  0  0  0
 14 19  1  0  0  0  0
 15 14  2  0  0  0  0
 15 16  1  0  0  0  0
 15 18  1  0  0  0  0
 16 17  2  0  0  0  0
 19 36  1  0  0  0  0
 19 37  1  0  0  0  0
 19 38  1  0  0  0  0
 20 21  1  0  0  0  0
 20 23  1  0  0  0  0
 21 22  2  0  0  0  0
 21 39  1  0  0  0  0
 22 25  1  0  0  0  0
 22 40  1  0  0  0  0
 23 28  1  0  0  0  0
 24 23  2  0  0  0  0
 24 25  1  0  0  0  0
 24 27  1  0  0  0  0
 25 26  2  0  0  0  0
 28 41  1  0  0  0  0
 28 42  1  0  0  0  0
 28 43  1  0  0  0  0
M  CHG  4   8  -1  10   3  18  -1  27  -1
M  END
>  <DRUGBANK_ID>
DB15598

>  <COMMON_NAME>
Ferric maltol

>  <CAS_NUMBER>
33725-54-1

>  <UNII>
MA10QYF1Z0

>  <SYNONYMS>
Ferric maltol; Iron (III) maltol

$$$$
