
 OpenBabel10282417072D

  3  0  0  0  0  0  0  0  0  0999 V2000
   -0.4125    0.0000    0.0000 Co  0  2  0  0  0  0  0  0  0  0  0  0
    0.4125   -0.8250    0.0000 Cl  0  5  0  0  0  0  0  0  0  0  0  0
    0.4125    0.8250    0.0000 Cl  0  5  0  0  0  0  0  0  0  0  0  0
M  CHG  3   1   2   2  -1   3  -1
M  END
>  <DRUGBANK_ID>
DB14206

>  <COMMON_NAME>
Cobalt chloride

>  <CAS_NUMBER>
7646-79-9

>  <UNII>
EVS87XF13W

>  <SYNONYMS>
Cobalt dichloride; cobalt muriate; cobalt(2+) chloride; Cobalt(II) chloride; cobaltous chloride; cobaltous chloride anhydrous; cobaltous dichloride; dichlorocobalt; Kobalt chlori; Kobalt(II)-chlorid; Kobaltdichlorid

$$$$
