
 OpenBabel10282417072D

 92 96  0  0  0  0  0  0  0  0999 V2000
   -0.6275   -1.3727    0.0000 C   0  0  0  0  0  0  0  0  0  0  0  0
   -0.4259   -1.8899    0.0000 C   0  0  0  0  0  0  0  0  0  0  0  0
   -1.4070   -1.1941    0.0000 C   0  0  0  0  0  0  0  0  0  0  0  0
   -0.0874   -0.7757    0.0000 N   0  0  0  0  0  0  0  0  0  0  0  0
    0.2471   -1.8860    0.0000 C   0  0  0  0  0  0  0  0  0  0  0  0
   -0.8898   -2.5744    0.0000 C   0  0  0  0  0  0  0  0  0  0  0  0
   -1.6504   -0.4297    0.0000 C   0  0  0  0  0  0  0  0  0  0  0  0
    0.5248   -1.3271    0.0000 C   0  0  0  0  0  0  0  0  0  0  0  0
    0.6845   -2.5857    0.0000 C   0  0  0  0  0  0  0  0  0  0  0  0
   -0.5286   -3.3196    0.0000 C   0  0  0  0  0  0  0  0  0  0  0  0
   -2.2892   -0.1749    0.0000 C   0  0  0  0  0  0  0  0  0  0  0  0
   -1.1104    0.1559    0.0000 N   0  0  0  0  0  0  0  0  0  0  0  0
    1.4374   -1.1141    0.0000 C   0  0  0  0  0  0  0  0  0  0  0  0
   -0.9925   -4.0041    0.0000 C   0  0  0  0  0  0  0  0  0  0  0  0
   -2.3271    0.4525    0.0000 C   0  0  0  0  0  0  0  0  0  0  0  0
   -2.9622   -0.6579    0.0000 C   0  0  0  0  0  0  0  0  0  0  0  0
   -1.7302    0.7187    0.0000 C   0  0  0  0  0  0  0  0  0  0  0  0
    1.5401   -0.2966    0.0000 C   0  0  0  0  0  0  0  0  0  0  0  0
   -1.8138   -3.9433    0.0000 O   0  0  0  0  0  0  0  0  0  0  0  0
   -0.6275   -4.7457    0.0000 O   0  0  0  0  0  0  0  0  0  0  0  0
   -3.0307    0.8822    0.0000 C   0  0  0  0  0  0  0  0  0  0  0  0
   -3.7152   -0.3156    0.0000 C   0  0  0  0  0  0  0  0  0  0  0  0
   -1.5552    1.5249    0.0000 C   0  0  0  0  0  0  0  0  0  0  0  0
    2.0458   -0.0380    0.0000 C   0  0  0  0  0  0  0  0  0  0  0  0
    0.9126    0.2738    0.0000 N   0  0  0  0  0  0  0  0  0  0  0  0
   -4.3882   -0.7985    0.0000 C   0  0  0  0  0  0  0  0  0  0  0  0
   -0.7606    1.7834    0.0000 C   0  0  0  0  0  0  0  0  0  0  0  0
    2.0420    0.6540    0.0000 C   0  0  0  0  0  0  0  0  0  0  0  0
    2.7493   -0.4715    0.0000 C   0  0  0  0  0  0  0  0  0  0  0  0
    1.4564    0.8860    0.0000 C   0  0  0  0  0  0  0  0  0  0  0  0
   -5.1373   -0.4563    0.0000 O   0  0  0  0  0  0  0  0  0  0  0  0
   -4.3007   -1.6199    0.0000 O   0  0  0  0  0  0  0  0  0  0  0  0
   -0.1445    1.2244    0.0000 N   0  0  0  0  0  0  0  0  0  0  0  0
   -0.5932    2.4147    0.0000 C   0  0  0  0  0  0  0  0  0  0  0  0
    2.7265    1.1180    0.0000 C   0  0  0  0  0  0  0  0  0  0  0  0
    3.4756   -0.0798    0.0000 C   0  0  0  0  0  0  0  0  0  0  0  0
    1.1978    1.6655    0.0000 C   0  0  0  0  0  0  0  0  0  0  0  0
    0.3993    1.8290    0.0000 C   0  0  0  0  0  0  0  0  0  0  0  0
    0.2547    2.3576    0.0000 C   0  0  0  0  0  0  0  0  0  0  0  0
   -1.0762    3.0877    0.0000 C   0  0  0  0  0  0  0  0  0  0  0  0
    4.1829   -0.5133    0.0000 C   0  0  0  0  0  0  0  0  0  0  0  0
    0.7757    2.9964    0.0000 C   0  0  0  0  0  0  0  0  0  0  0  0
    4.1563   -1.3385    0.0000 O   0  0  0  0  0  0  0  0  0  0  0  0
    4.9091   -0.1140    0.0000 O   0  0  0  0  0  0  0  0  0  0  0  0
    1.5933    2.8634    0.0000 C   0  0  0  0  0  0  0  0  0  0  0  0
    2.1142    3.5060    0.0000 C   0  0  0  0  0  0  0  0  0  0  0  0
    2.9318    3.3691    0.0000 O   0  0  0  0  0  0  0  0  0  0  0  0
    1.8214    4.2779    0.0000 O   0  0  0  0  0  0  0  0  0  0  0  0
   -2.1315   -1.9815    0.0000 H   0  0  0  0  0  0  0  0  0  0  0  0
   -2.4517   -0.9629    0.0000 H   0  0  0  0  0  0  0  0  0  0  0  0
   -0.1377    0.2075    0.0000 H   0  0  0  0  0  0  0  0  0  0  0  0
   -1.9570   -2.4973    0.0000 H   0  0  0  0  0  0  0  0  0  0  0  0
   -1.4903   -3.4600    0.0000 H   0  0  0  0  0  0  0  0  0  0  0  0
    0.1823   -3.5305    0.0000 H   0  0  0  0  0  0  0  0  0  0  0  0
    1.7538   -2.5482    0.0000 H   0  0  0  0  0  0  0  0  0  0  0  0
    1.2517   -3.4930    0.0000 H   0  0  0  0  0  0  0  0  0  0  0  0
    0.5386   -3.3967    0.0000 H   0  0  0  0  0  0  0  0  0  0  0  0
   -0.0617   -4.2824    0.0000 H   0  0  0  0  0  0  0  0  0  0  0  0
   -0.1269    0.1995    0.0000 H   0  0  0  0  0  0  0  0  0  0  0  0
    2.2324   -1.8302    0.0000 H   0  0  0  0  0  0  0  0  0  0  0  0
    2.4402   -0.7409    0.0000 H   0  0  0  0  0  0  0  0  0  0  0  0
   -2.8576   -1.7228    0.0000 H   0  0  0  0  0  0  0  0  0  0  0  0
   -3.8324   -1.2805    0.0000 H   0  0  0  0  0  0  0  0  0  0  0  0
   -2.2211   -3.0995    0.0000 H   0  0  0  0  0  0  0  0  0  0  0  0
   -3.0043    1.9519    0.0000 H   0  0  0  0  0  0  0  0  0  0  0  0
   -3.9703    0.3702    0.0000 H   0  0  0  0  0  0  0  0  0  0  0  0
   -3.9439    1.4399    0.0000 H   0  0  0  0  0  0  0  0  0  0  0  0
   -3.8198    0.7493    0.0000 H   0  0  0  0  0  0  0  0  0  0  0  0
   -4.6899    0.1258    0.0000 H   0  0  0  0  0  0  0  0  0  0  0  0
   -2.3489    2.2424    0.0000 H   0  0  0  0  0  0  0  0  0  0  0  0
   -1.3319    2.5713    0.0000 H   0  0  0  0  0  0  0  0  0  0  0  0
   -0.0705    0.2213    0.0000 H   0  0  0  0  0  0  0  0  0  0  0  0
    2.7185   -1.5411    0.0000 H   0  0  0  0  0  0  0  0  0  0  0  0
    3.6601   -1.0331    0.0000 H   0  0  0  0  0  0  0  0  0  0  0  0
   -5.2263    0.4765    0.0000 H   0  0  0  0  0  0  0  0  0  0  0  0
   -0.0946    0.2412    0.0000 H   0  0  0  0  0  0  0  0  0  0  0  0
    3.6893    0.6512    0.0000 H   0  0  0  0  0  0  0  0  0  0  0  0
    2.6494    2.1852    0.0000 H   0  0  0  0  0  0  0  0  0  0  0  0
    3.6122    1.7184    0.0000 H   0  0  0  0  0  0  0  0  0  0  0  0
    3.5052    0.9898    0.0000 H   0  0  0  0  0  0  0  0  0  0  0  0
    4.4163    0.4300    0.0000 H   0  0  0  0  0  0  0  0  0  0  0  0
    1.9083    2.4655    0.0000 H   0  0  0  0  0  0  0  0  0  0  0  0
    0.8599    2.6807    0.0000 H   0  0  0  0  0  0  0  0  0  0  0  0
   -0.6353    4.0626    0.0000 H   0  0  0  0  0  0  0  0  0  0  0  0
   -2.1410    2.9821    0.0000 H   0  0  0  0  0  0  0  0  0  0  0  0
   -1.7001    3.9570    0.0000 H   0  0  0  0  0  0  0  0  0  0  0  0
    0.3961    3.9968    0.0000 H   0  0  0  0  0  0  0  0  0  0  0  0
    1.4524    3.8252    0.0000 H   0  0  0  0  0  0  0  0  0  0  0  0
    3.3302   -1.7806    0.0000 H   0  0  0  0  0  0  0  0  0  0  0  0
    1.9744    1.8636    0.0000 H   0  0  0  0  0  0  0  0  0  0  0  0
    2.6499    2.6945    0.0000 H   0  0  0  0  0  0  0  0  0  0  0  0
    3.2599    2.4914    0.0000 H   0  0  0  0  0  0  0  0  0  0  0  0
  1  2  2  0  0  0  0
  1  3  1  0  0  0  0
  1  4  1  0  0  0  0
  2  5  1  0  0  0  0
  2  6  1  0  0  0  0
  3  7  1  0  0  0  0
  3 49  1  0  0  0  0
  3 50  1  0  0  0  0
  4  8  1  0  0  0  0
  4 51  1  0  0  0  0
  5  9  1  0  0  0  0
  5  8  2  0  0  0  0
  6 10  1  0  0  0  0
  6 52  1  0  0  0  0
  6 53  1  0  0  0  0
  7 11  2  0  0  0  0
  7 12  1  0  0  0  0
  8 13  1  0  0  0  0
  9 54  1  0  0  0  0
  9 55  1  0  0  0  0
  9 56  1  0  0  0  0
 10 14  1  0  0  0  0
 10 57  1  0  0  0  0
 10 58  1  0  0  0  0
 11 15  1  0  0  0  0
 11 16  1  0  0  0  0
 12 17  1  0  0  0  0
 12 59  1  0  0  0  0
 13 18  1  0  0  0  0
 13 60  1  0  0  0  0
 13 61  1  0  0  0  0
 14 19  1  0  0  0  0
 14 20  2  0  0  0  0
 15 21  1  0  0  0  0
 15 17  2  0  0  0  0
 16 22  1  0  0  0  0
 16 62  1  0  0  0  0
 16 63  1  0  0  0  0
 17 23  1  0  0  0  0
 18 24  2  0  0  0  0
 18 25  1  0  0  0  0
 19 64  1  0  0  0  0
 21 65  1  0  0  0  0
 21 66  1  0  0  0  0
 21 67  1  0  0  0  0
 22 26  1  0  0  0  0
 22 68  1  0  0  0  0
 22 69  1  0  0  0  0
 23 27  1  0  0  0  0
 23 70  1  0  0  0  0
 23 71  1  0  0  0  0
 24 28  1  0  0  0  0
 24 29  1  0  0  0  0
 25 30  1  0  0  0  0
 25 72  1  0  0  0  0
 26 31  1  0  0  0  0
 26 32  2  0  0  0  0
 27 33  1  0  0  0  0
 27 34  2  0  0  0  0
 28 35  1  0  0  0  0
 28 30  2  0  0  0  0
 29 36  1  0  0  0  0
 29 73  1  0  0  0  0
 29 74  1  0  0  0  0
 30 37  1  0  0  0  0
 31 75  1  0  0  0  0
 33 38  1  0  0  0  0
 33 76  1  0  0  0  0
 34 39  1  0  0  0  0
 34 40  1  0  0  0  0
 35 77  1  0  0  0  0
 35 78  1  0  0  0  0
 35 79  1  0  0  0  0
 36 41  1  0  0  0  0
 36 80  1  0  0  0  0
 36 81  1  0  0  0  0
 37 38  1  0  0  0  0
 37 82  1  0  0  0  0
 37 83  1  0  0  0  0
 38 39  2  0  0  0  0
 39 42  1  0  0  0  0
 40 84  1  0  0  0  0
 40 85  1  0  0  0  0
 40 86  1  0  0  0  0
 41 43  1  0  0  0  0
 41 44  2  0  0  0  0
 42 45  1  0  0  0  0
 42 87  1  0  0  0  0
 42 88  1  0  0  0  0
 43 89  1  0  0  0  0
 45 46  1  0  0  0  0
 45 90  1  0  0  0  0
 45 91  1  0  0  0  0
 46 47  1  0  0  0  0
 46 48  2  0  0  0  0
 47 92  1  0  0  0  0
M  END
>  <DRUGBANK_ID>
DB04461

>  <SECONDARY_ACCESSION_NUMBERS>
EXPT00993

>  <COMMON_NAME>
Coproporphyrinogen III

>  <CAS_NUMBER>
2624-63-7

>  <SYNONYMS>
3,8,13,17-tetramethyl-5,10,15,20,22,24-hexahydroporphyrin-2,7,12,18-tetrapropionic acid; 5,10,15,20,22,24-hexahydro-3,8,13,17-tetramethyl-21H,23H-porphine-2,7,12,18-tetrapropanoic acid

$$$$
