FSP
 OpenBabel10282417072D

 61 63  0  0  0  0  0  0  0  0999 V2000
    2.7401   -2.6670    0.0000 C   0  0  0  0  0  0  0  0  0  0  0  0
    2.0256   -2.2545    0.0000 C   0  0  0  0  0  0  0  0  0  0  0  0
    2.0256   -1.4295    0.0000 C   0  0  0  0  0  0  0  0  0  0  0  0
    1.3112   -1.0170    0.0000 C   0  0  0  0  0  0  0  0  0  0  0  0
    1.3112   -0.1920    0.0000 C   0  0  2  0  0  0  0  0  0  0  0  0
    0.5967    0.2205    0.0000 N   0  0  0  0  0  0  0  0  0  0  0  0
   -0.1178   -0.1920    0.0000 C   0  0  0  0  0  0  0  0  0  0  0  0
   -0.1178   -1.0170    0.0000 O   0  0  0  0  0  0  0  0  0  0  0  0
   -0.8322    0.2205    0.0000 O   0  0  0  0  0  0  0  0  0  0  0  0
   -1.5467   -0.1920    0.0000 C   0  0  0  0  0  0  0  0  0  0  0  0
   -2.2612    0.2205    0.0000 C   0  0  0  0  0  0  0  0  0  0  0  0
   -1.8487    0.9350    0.0000 C   0  0  0  0  0  0  0  0  0  0  0  0
   -2.2612    1.6494    0.0000 C   0  0  0  0  0  0  0  0  0  0  0  0
   -3.0862    1.6494    0.0000 C   0  0  0  0  0  0  0  0  0  0  0  0
   -3.4987    2.3639    0.0000 C   0  0  0  0  0  0  0  0  0  0  0  0
   -3.0862    3.0784    0.0000 C   0  0  0  0  0  0  0  0  0  0  0  0
   -3.4987    3.7928    0.0000 F   0  0  0  0  0  0  0  0  0  0  0  0
   -2.2612    3.0784    0.0000 C   0  0  0  0  0  0  0  0  0  0  0  0
   -1.8487    2.3639    0.0000 C   0  0  0  0  0  0  0  0  0  0  0  0
   -2.6737   -0.4940    0.0000 C   0  0  0  0  0  0  0  0  0  0  0  0
   -3.3881   -0.0815    0.0000 C   0  0  0  0  0  0  0  0  0  0  0  0
   -2.9756    0.6330    0.0000 C   0  0  0  0  0  0  0  0  0  0  0  0
    2.7401   -0.1920    0.0000 C   0  0  0  0  0  0  0  0  0  0  0  0
    2.7401   -1.0170    0.0000 O   0  0  0  0  0  0  0  0  0  0  0  0
    3.4546    0.2205    0.0000 N   0  0  0  0  0  0  0  0  0  0  0  0
    4.1691   -0.1920    0.0000 C   0  0  0  0  0  0  0  0  0  0  0  0
    4.9227    0.1435    0.0000 C   0  0  0  0  0  0  0  0  0  0  0  0
    5.4748   -0.4695    0.0000 C   0  0  0  0  0  0  0  0  0  0  0  0
    5.0623   -1.1840    0.0000 N   0  0  0  0  0  0  0  0  0  0  0  0
    4.2553   -1.0125    0.0000 N   0  0  0  0  0  0  0  0  0  0  0  0
    2.0256    0.2205    0.0000 C   0  0  0  0  0  0  0  0  0  0  0  0
    2.0256    1.0455    0.0000 O   0  0  0  0  0  0  0  0  0  0  0  0
    0.8055   -0.4840    0.0000 H   0  0  0  0  0  0  0  0  0  0  0  0
    2.7401   -3.7370    0.0000 H   0  0  0  0  0  0  0  0  0  0  0  0
    3.6667   -2.1320    0.0000 H   0  0  0  0  0  0  0  0  0  0  0  0
    3.6668   -3.2020    0.0000 H   0  0  0  0  0  0  0  0  0  0  0  0
    1.0990   -2.7895    0.0000 H   0  0  0  0  0  0  0  0  0  0  0  0
    1.0990   -1.7195    0.0000 H   0  0  0  0  0  0  0  0  0  0  0  0
    2.9523   -0.8945    0.0000 H   0  0  0  0  0  0  0  0  0  0  0  0
    2.0256   -0.3595    0.0000 H   0  0  0  0  0  0  0  0  0  0  0  0
    0.3845   -1.5520    0.0000 H   0  0  0  0  0  0  0  0  0  0  0  0
    0.3846   -0.4820    0.0000 H   0  0  0  0  0  0  0  0  0  0  0  0
    0.5967    1.2050    0.0000 H   0  0  0  0  0  0  0  0  0  0  0  0
   -1.5467   -1.2620    0.0000 H   0  0  0  0  0  0  0  0  0  0  0  0
   -2.4733   -0.7270    0.0000 H   0  0  0  0  0  0  0  0  0  0  0  0
   -0.7787    0.9350    0.0000 H   0  0  0  0  0  0  0  0  0  0  0  0
   -1.3137    1.8617    0.0000 H   0  0  0  0  0  0  0  0  0  0  0  0
   -3.6022    0.7557    0.0000 H   0  0  0  0  0  0  0  0  0  0  0  0
   -4.5307    2.3639    0.0000 H   0  0  0  0  0  0  0  0  0  0  0  0
   -1.7452    3.9721    0.0000 H   0  0  0  0  0  0  0  0  0  0  0  0
   -0.8167    2.3639    0.0000 H   0  0  0  0  0  0  0  0  0  0  0  0
   -2.3968   -1.5275    0.0000 H   0  0  0  0  0  0  0  0  0  0  0  0
   -3.5226   -1.1454    0.0000 H   0  0  0  0  0  0  0  0  0  0  0  0
   -4.4216   -0.3584    0.0000 H   0  0  0  0  0  0  0  0  0  0  0  0
   -4.0395    0.7674    0.0000 H   0  0  0  0  0  0  0  0  0  0  0  0
   -3.2525    1.6665    0.0000 H   0  0  0  0  0  0  0  0  0  0  0  0
   -4.0364    0.7727    0.0000 H   0  0  0  0  0  0  0  0  0  0  0  0
    3.4546    1.2050    0.0000 H   0  0  0  0  0  0  0  0  0  0  0  0
    5.1372    1.1530    0.0000 H   0  0  0  0  0  0  0  0  0  0  0  0
    6.5011   -0.3615    0.0000 H   0  0  0  0  0  0  0  0  0  0  0  0
    3.5237   -1.6713    0.0000 H   0  0  0  0  0  0  0  0  0  0  0  0
  1  2  1  0  0  0  0
  1 34  1  0  0  0  0
  1 35  1  0  0  0  0
  1 36  1  0  0  0  0
  2  3  1  0  0  0  0
  2 37  1  0  0  0  0
  2 38  1  0  0  0  0
  3  4  1  0  0  0  0
  3 39  1  0  0  0  0
  3 40  1  0  0  0  0
  4  5  1  0  0  0  0
  4 41  1  0  0  0  0
  4 42  1  0  0  0  0
  5  6  1  0  0  0  0
  5 31  1  0  0  0  0
  5 33  1  1  0  0  0
  6  7  1  0  0  0  0
  6 43  1  0  0  0  0
  7  8  2  0  0  0  0
  7  9  1  0  0  0  0
  9 10  1  0  0  0  0
 10 11  1  0  0  0  0
 10 44  1  0  0  0  0
 10 45  1  0  0  0  0
 11 12  1  0  0  0  0
 11 20  1  0  0  0  0
 11 22  1  0  0  0  0
 12 13  1  0  0  0  0
 12 46  1  0  0  0  0
 12 47  1  0  0  0  0
 13 14  2  0  0  0  0
 13 19  1  0  0  0  0
 14 15  1  0  0  0  0
 14 48  1  0  0  0  0
 15 16  2  0  0  0  0
 15 49  1  0  0  0  0
 16 17  1  0  0  0  0
 16 18  1  0  0  0  0
 18 19  2  0  0  0  0
 18 50  1  0  0  0  0
 19 51  1  0  0  0  0
 20 21  1  0  0  0  0
 20 52  1  0  0  0  0
 20 53  1  0  0  0  0
 21 22  1  0  0  0  0
 21 54  1  0  0  0  0
 21 55  1  0  0  0  0
 22 56  1  0  0  0  0
 22 57  1  0  0  0  0
 23 24  2  0  0  0  0
 23 25  1  0  0  0  0
 23 31  1  0  0  0  0
 25 26  1  0  0  0  0
 25 58  1  0  0  0  0
 26 27  2  0  0  0  0
 26 30  1  0  0  0  0
 27 28  1  0  0  0  0
 27 59  1  0  0  0  0
 28 29  2  0  0  0  0
 28 60  1  0  0  0  0
 29 30  1  0  0  0  0
 30 61  1  0  0  0  0
 31 32  2  0  0  0  0
M  END
>  <DRUGBANK_ID>
DB01858

>  <SECONDARY_ACCESSION_NUMBERS>
EXPT01501

>  <COMMON_NAME>
[1-(4-Fluorobenzyl)Cyclobutyl]Methyl (1s)-1-[Oxo(1h-Pyrazol-5-Ylamino)Acetyl]Pentylcarbamate

$$$$
