
 OpenBabel10282417072D

 78 81  0  0  0  0  0  0  0  0999 V2000
    0.3820   -0.5384    0.0000 O   0  0  0  0  0  0  0  0  0  0  0  0
    0.3571    2.3570    0.0000 O   0  0  0  0  0  0  0  0  0  0  0  0
    0.1138    3.1453    0.0000 O   0  0  0  0  0  0  0  0  0  0  0  0
   -4.4689    3.4585    0.0000 O   0  0  0  0  0  0  0  0  0  0  0  0
   -3.1034    3.8796    0.0000 O   0  0  0  0  0  0  0  0  0  0  0  0
   -6.1523    1.6441    0.0000 O   0  0  0  0  0  0  0  0  0  0  0  0
   -5.1048    0.6721    0.0000 O   0  0  0  0  0  0  0  0  0  0  0  0
    1.7703   -0.3820    0.0000 N   0  0  0  0  0  0  0  0  0  0  0  0
    0.0391    0.9638    0.0000 N   0  0  0  0  0  0  0  0  0  0  0  0
   -1.2515    2.7241    0.0000 N   0  0  0  0  0  0  0  0  0  0  0  0
    0.8434    0.7802    0.0000 C   0  0  1  0  0  0  0  0  0  0  0  0
    1.3578    1.4252    0.0000 C   0  0  0  0  0  0  0  0  0  0  0  0
    2.1828    1.4252    0.0000 C   0  0  0  0  0  0  0  0  0  0  0  0
    2.6972    0.7802    0.0000 C   0  0  0  0  0  0  0  0  0  0  0  0
    2.5136   -0.0240    0.0000 C   0  0  0  0  0  0  0  0  0  0  0  0
    1.0270   -0.0240    0.0000 C   0  0  0  0  0  0  0  0  0  0  0  0
    1.7703   -1.2070    0.0000 C   0  0  0  0  0  0  0  0  0  0  0  0
   -1.0083    1.9357    0.0000 C   0  0  2  0  0  0  0  0  0  0  0  0
   -0.2040    1.7522    0.0000 C   0  0  0  0  0  0  0  0  0  0  0  0
    2.4848   -1.6195    0.0000 C   0  0  0  0  0  0  0  0  0  0  0  0
   -1.5695    1.3310    0.0000 C   0  0  0  0  0  0  0  0  0  0  0  0
   -2.3738    1.5146    0.0000 C   0  0  0  0  0  0  0  0  0  0  0  0
    2.4848   -2.4445    0.0000 C   0  0  0  0  0  0  0  0  0  0  0  0
    3.1992   -1.2070    0.0000 C   0  0  0  0  0  0  0  0  0  0  0  0
    3.1992   -2.8570    0.0000 C   0  0  0  0  0  0  0  0  0  0  0  0
    3.9138   -1.6195    0.0000 C   0  0  0  0  0  0  0  0  0  0  0  0
   -2.6170    2.3029    0.0000 C   0  0  0  0  0  0  0  0  0  0  0  0
    3.9138   -2.4445    0.0000 C   0  0  0  0  0  0  0  0  0  0  0  0
   -2.9350    0.9097    0.0000 C   0  0  0  0  0  0  0  0  0  0  0  0
   -0.6904    3.3288    0.0000 C   0  0  0  0  0  0  0  0  0  0  0  0
   -3.4213    2.4865    0.0000 C   0  0  0  0  0  0  0  0  0  0  0  0
   -3.9825    1.8817    0.0000 C   0  0  0  0  0  0  0  0  0  0  0  0
   -3.7393    1.0934    0.0000 C   0  0  0  0  0  0  0  0  0  0  0  0
    4.6282   -2.8570    0.0000 C   0  0  0  0  0  0  0  0  0  0  0  0
   -4.7868    2.0653    0.0000 C   0  0  0  0  0  0  0  0  0  0  0  0
   -0.9335    4.1172    0.0000 C   0  0  0  0  0  0  0  0  0  0  0  0
   -3.6645    3.2749    0.0000 C   0  0  0  0  0  0  0  0  0  0  0  0
    4.6282   -3.6820    0.0000 C   0  0  0  0  0  0  0  0  0  0  0  0
    5.3427   -2.4445    0.0000 C   0  0  0  0  0  0  0  0  0  0  0  0
   -5.3480    1.4605    0.0000 C   0  0  0  0  0  0  0  0  0  0  0  0
    5.3427   -4.0945    0.0000 C   0  0  0  0  0  0  0  0  0  0  0  0
    6.0572   -2.8570    0.0000 C   0  0  0  0  0  0  0  0  0  0  0  0
    6.0572   -3.6820    0.0000 C   0  0  0  0  0  0  0  0  0  0  0  0
   -4.7451    4.3539    0.0000 H   0  0  0  0  0  0  0  0  0  0  0  0
   -6.4285    2.5395    0.0000 H   0  0  0  0  0  0  0  0  0  0  0  0
   -0.6306    0.2422    0.0000 H   0  0  0  0  0  0  0  0  0  0  0  0
   -2.2113    2.9432    0.0000 H   0  0  0  0  0  0  0  0  0  0  0  0
    0.4900    1.7902    0.0000 H   0  0  0  0  0  0  0  0  0  0  0  0
    0.8936    2.3892    0.0000 H   0  0  0  0  0  0  0  0  0  0  0  0
    1.9271    2.3312    0.0000 H   0  0  0  0  0  0  0  0  0  0  0  0
    2.6470    2.3892    0.0000 H   0  0  0  0  0  0  0  0  0  0  0  0
    3.2461    1.5450    0.0000 H   0  0  0  0  0  0  0  0  0  0  0  0
    3.7404    1.0183    0.0000 H   0  0  0  0  0  0  0  0  0  0  0  0
    3.4538    0.0236    0.0000 H   0  0  0  0  0  0  0  0  0  0  0  0
    3.3502   -0.6911    0.0000 H   0  0  0  0  0  0  0  0  0  0  0  0
    3.5236    0.3294    0.0000 H   0  0  0  0  0  0  0  0  0  0  0  0
    0.8437   -1.7420    0.0000 H   0  0  0  0  0  0  0  0  0  0  0  0
    1.7703   -2.2770    0.0000 H   0  0  0  0  0  0  0  0  0  0  0  0
   -0.2806    2.7201    0.0000 H   0  0  0  0  0  0  0  0  0  0  0  0
   -1.2542    0.3085    0.0000 H   0  0  0  0  0  0  0  0  0  0  0  0
   -2.2973    0.5467    0.0000 H   0  0  0  0  0  0  0  0  0  0  0  0
    1.5911   -2.9605    0.0000 H   0  0  0  0  0  0  0  0  0  0  0  0
    3.1991   -0.1750    0.0000 H   0  0  0  0  0  0  0  0  0  0  0  0
    3.1991   -3.8890    0.0000 H   0  0  0  0  0  0  0  0  0  0  0  0
    4.8075   -1.1035    0.0000 H   0  0  0  0  0  0  0  0  0  0  0  0
   -1.9151    3.0594    0.0000 H   0  0  0  0  0  0  0  0  0  0  0  0
   -2.6309   -0.0765    0.0000 H   0  0  0  0  0  0  0  0  0  0  0  0
   -4.4413    0.3369    0.0000 H   0  0  0  0  0  0  0  0  0  0  0  0
   -5.1022    3.0878    0.0000 H   0  0  0  0  0  0  0  0  0  0  0  0
   -5.8300    2.3034    0.0000 H   0  0  0  0  0  0  0  0  0  0  0  0
   -0.2056    4.9015    0.0000 H   0  0  0  0  0  0  0  0  0  0  0  0
   -1.9766    4.3554    0.0000 H   0  0  0  0  0  0  0  0  0  0  0  0
   -1.2488    5.1397    0.0000 H   0  0  0  0  0  0  0  0  0  0  0  0
    3.7345   -4.1980    0.0000 H   0  0  0  0  0  0  0  0  0  0  0  0
    5.3427   -1.4125    0.0000 H   0  0  0  0  0  0  0  0  0  0  0  0
    5.3427   -5.1265    0.0000 H   0  0  0  0  0  0  0  0  0  0  0  0
    6.9509   -2.3410    0.0000 H   0  0  0  0  0  0  0  0  0  0  0  0
    6.9509   -4.1980    0.0000 H   0  0  0  0  0  0  0  0  0  0  0  0
  1 16  2  0  0  0  0
  2 19  2  0  0  0  0
  3 30  2  0  0  0  0
  4 37  1  0  0  0  0
  4 44  1  0  0  0  0
  5 37  2  0  0  0  0
  6 40  1  0  0  0  0
  6 45  1  0  0  0  0
  7 40  2  0  0  0  0
  8 15  1  0  0  0  0
  8 16  1  0  0  0  0
  8 17  1  0  0  0  0
  9 19  1  0  0  0  0
  9 46  1  0  0  0  0
 10 30  1  0  0  0  0
 10 47  1  0  0  0  0
 11  9  1  0  0  0  0
 11 12  1  0  0  0  0
 11 16  1  0  0  0  0
 11 48  1  6  0  0  0
 12 13  1  0  0  0  0
 12 49  1  0  0  0  0
 12 50  1  0  0  0  0
 13 14  1  0  0  0  0
 13 51  1  0  0  0  0
 13 52  1  0  0  0  0
 14 15  1  0  0  0  0
 14 53  1  0  0  0  0
 14 54  1  0  0  0  0
 15 55  1  0  0  0  0
 15 56  1  0  0  0  0
 17 20  1  0  0  0  0
 17 57  1  0  0  0  0
 17 58  1  0  0  0  0
 18 10  1  0  0  0  0
 18 19  1  0  0  0  0
 18 21  1  0  0  0  0
 18 59  1  1  0  0  0
 20 23  2  0  0  0  0
 20 24  1  0  0  0  0
 21 22  1  0  0  0  0
 21 60  1  0  0  0  0
 21 61  1  0  0  0  0
 22 27  2  0  0  0  0
 22 29  1  0  0  0  0
 23 25  1  0  0  0  0
 23 62  1  0  0  0  0
 24 26  2  0  0  0  0
 24 63  1  0  0  0  0
 25 28  2  0  0  0  0
 25 64  1  0  0  0  0
 26 28  1  0  0  0  0
 26 65  1  0  0  0  0
 27 31  1  0  0  0  0
 27 66  1  0  0  0  0
 28 34  1  0  0  0  0
 29 33  2  0  0  0  0
 29 67  1  0  0  0  0
 30 36  1  0  0  0  0
 31 32  2  0  0  0  0
 31 37  1  0  0  0  0
 32 33  1  0  0  0  0
 32 35  1  0  0  0  0
 33 68  1  0  0  0  0
 34 38  2  0  0  0  0
 34 39  1  0  0  0  0
 35 40  1  0  0  0  0
 35 69  1  0  0  0  0
 35 70  1  0  0  0  0
 36 71  1  0  0  0  0
 36 72  1  0  0  0  0
 36 73  1  0  0  0  0
 38 41  1  0  0  0  0
 38 74  1  0  0  0  0
 39 42  2  0  0  0  0
 39 75  1  0  0  0  0
 41 43  2  0  0  0  0
 41 76  1  0  0  0  0
 42 43  1  0  0  0  0
 42 77  1  0  0  0  0
 43 78  1  0  0  0  0
M  END
>  <DRUGBANK_ID>
DB03712

>  <SECONDARY_ACCESSION_NUMBERS>
EXPT00326

>  <COMMON_NAME>
RU85053

>  <SYNONYMS>
5-[(2S)-2-Acetamido-3-oxo-3-[[(3S)-2-oxo-1-[(4-phenylphenyl)methyl]azepan-3-yl]amino]propyl]-2-(carboxymethyl)benzoic acid

$$$$
