LEH
 OpenBabel10282417072D

 64 64  0  0  0  0  0  0  0  0999 V2000
   -2.5814    0.6941    0.0000 O   0  0  0  0  0  0  0  0  0  0  0  0
   -2.5814   -0.1310    0.0000 C   0  0  0  0  0  0  0  0  0  0  0  0
   -3.2959   -0.5435    0.0000 N   0  0  0  0  0  0  0  0  0  0  0  0
   -4.0105   -0.1310    0.0000 C   0  0  1  0  0  0  0  0  0  0  0  0
   -4.7250   -0.5435    0.0000 C   0  0  0  0  0  0  0  0  0  0  0  0
   -5.4395   -0.1310    0.0000 C   0  0  0  0  0  0  0  0  0  0  0  0
   -6.1541   -0.5435    0.0000 C   0  0  0  0  0  0  0  0  0  0  0  0
   -5.4395    0.6941    0.0000 C   0  0  0  0  0  0  0  0  0  0  0  0
   -4.0105    0.6941    0.0000 C   0  0  0  0  0  0  0  0  0  0  0  0
   -4.7250    1.1066    0.0000 O   0  0  0  0  0  0  0  0  0  0  0  0
   -3.2959    1.1066    0.0000 O   0  0  0  0  0  0  0  0  0  0  0  0
   -1.8669   -0.5435    0.0000 C   0  0  0  0  0  0  0  0  0  0  0  0
   -1.1524   -0.1310    0.0000 C   0  0  0  0  0  0  0  0  0  0  0  0
   -0.4378   -0.5435    0.0000 C   0  0  0  0  0  0  0  0  0  0  0  0
    0.2766   -0.1310    0.0000 C   0  0  0  0  0  0  0  0  0  0  0  0
    0.9912   -0.5435    0.0000 C   0  0  0  0  0  0  0  0  0  0  0  0
    1.7057   -0.1310    0.0000 C   0  0  0  0  0  0  0  0  0  0  0  0
    2.4203   -0.5435    0.0000 C   0  0  0  0  0  0  0  0  0  0  0  0
    3.1347   -0.1310    0.0000 C   0  0  0  0  0  0  0  0  0  0  0  0
    3.8493   -0.5435    0.0000 C   0  0  0  0  0  0  0  0  0  0  0  0
    4.5638   -0.1310    0.0000 C   0  0  0  0  0  0  0  0  0  0  0  0
    5.2783   -0.5435    0.0000 C   0  0  0  0  0  0  0  0  0  0  0  0
    5.9928   -0.1310    0.0000 N   0  0  0  0  0  0  0  0  0  0  0  0
    6.7466   -0.4666    0.0000 C   0  0  0  0  0  0  0  0  0  0  0  0
    7.2986    0.1465    0.0000 C   0  0  0  0  0  0  0  0  0  0  0  0
    6.8861    0.8611    0.0000 N   0  0  0  0  0  0  0  0  0  0  0  0
    6.0792    0.6896    0.0000 C   0  0  0  0  0  0  0  0  0  0  0  0
   -3.5048    0.1609    0.0000 H   0  0  0  0  0  0  0  0  0  0  0  0
   -3.2959   -1.5280    0.0000 H   0  0  0  0  0  0  0  0  0  0  0  0
   -4.7250   -1.6135    0.0000 H   0  0  0  0  0  0  0  0  0  0  0  0
   -5.6516   -1.0785    0.0000 H   0  0  0  0  0  0  0  0  0  0  0  0
   -6.3661    0.4040    0.0000 H   0  0  0  0  0  0  0  0  0  0  0  0
   -7.0807   -0.0084    0.0000 H   0  0  0  0  0  0  0  0  0  0  0  0
   -6.1542   -1.6135    0.0000 H   0  0  0  0  0  0  0  0  0  0  0  0
   -7.0808   -1.0784    0.0000 H   0  0  0  0  0  0  0  0  0  0  0  0
   -4.5129    1.2291    0.0000 H   0  0  0  0  0  0  0  0  0  0  0  0
   -6.3661    1.2291    0.0000 H   0  0  0  0  0  0  0  0  0  0  0  0
   -5.4395    1.7641    0.0000 H   0  0  0  0  0  0  0  0  0  0  0  0
   -4.7250    2.0436    0.0000 H   0  0  0  0  0  0  0  0  0  0  0  0
   -1.8669   -1.6135    0.0000 H   0  0  0  0  0  0  0  0  0  0  0  0
   -0.9403   -1.0785    0.0000 H   0  0  0  0  0  0  0  0  0  0  0  0
   -1.1524    0.9390    0.0000 H   0  0  0  0  0  0  0  0  0  0  0  0
   -0.2258    0.4041    0.0000 H   0  0  0  0  0  0  0  0  0  0  0  0
   -0.4377   -1.6135    0.0000 H   0  0  0  0  0  0  0  0  0  0  0  0
    0.4889   -1.0785    0.0000 H   0  0  0  0  0  0  0  0  0  0  0  0
    0.2765    0.9390    0.0000 H   0  0  0  0  0  0  0  0  0  0  0  0
    1.2032    0.4041    0.0000 H   0  0  0  0  0  0  0  0  0  0  0  0
    0.9912   -1.6135    0.0000 H   0  0  0  0  0  0  0  0  0  0  0  0
    1.9179   -1.0785    0.0000 H   0  0  0  0  0  0  0  0  0  0  0  0
    1.7057    0.9390    0.0000 H   0  0  0  0  0  0  0  0  0  0  0  0
    2.6323    0.4041    0.0000 H   0  0  0  0  0  0  0  0  0  0  0  0
    2.4204   -1.6135    0.0000 H   0  0  0  0  0  0  0  0  0  0  0  0
    3.3470   -1.0785    0.0000 H   0  0  0  0  0  0  0  0  0  0  0  0
    3.1346    0.9390    0.0000 H   0  0  0  0  0  0  0  0  0  0  0  0
    4.0613    0.4041    0.0000 H   0  0  0  0  0  0  0  0  0  0  0  0
    3.8493   -1.6135    0.0000 H   0  0  0  0  0  0  0  0  0  0  0  0
    4.7760   -1.0785    0.0000 H   0  0  0  0  0  0  0  0  0  0  0  0
    4.5638    0.9390    0.0000 H   0  0  0  0  0  0  0  0  0  0  0  0
    5.4904    0.4040    0.0000 H   0  0  0  0  0  0  0  0  0  0  0  0
    5.2783   -1.6135    0.0000 H   0  0  0  0  0  0  0  0  0  0  0  0
    6.2049   -1.0785    0.0000 H   0  0  0  0  0  0  0  0  0  0  0  0
    6.9612   -1.4760    0.0000 H   0  0  0  0  0  0  0  0  0  0  0  0
    8.3249    0.0386    0.0000 H   0  0  0  0  0  0  0  0  0  0  0  0
    5.3123    1.3802    0.0000 H   0  0  0  0  0  0  0  0  0  0  0  0
  1  2  2  0  0  0  0
  2  3  1  0  0  0  0
  2 12  1  0  0  0  0
  3 29  1  0  0  0  0
  4  3  1  0  0  0  0
  4  9  1  0  0  0  0
  4 28  1  6  0  0  0
  5  4  1  0  0  0  0
  5 30  1  0  0  0  0
  5 31  1  0  0  0  0
  6  5  1  0  0  0  0
  6  7  1  0  0  0  0
  6 32  1  0  0  0  0
  7 33  1  0  0  0  0
  7 34  1  0  0  0  0
  7 35  1  0  0  0  0
  8  6  1  0  0  0  0
  8 36  1  0  0  0  0
  8 37  1  0  0  0  0
  8 38  1  0  0  0  0
  9 10  1  0  0  0  0
 10 39  1  0  0  0  0
 11  9  2  0  0  0  0
 12 13  1  0  0  0  0
 12 40  1  0  0  0  0
 12 41  1  0  0  0  0
 13 42  1  0  0  0  0
 13 43  1  0  0  0  0
 14 13  1  0  0  0  0
 14 44  1  0  0  0  0
 14 45  1  0  0  0  0
 15 14  1  0  0  0  0
 15 16  1  0  0  0  0
 15 46  1  0  0  0  0
 15 47  1  0  0  0  0
 16 48  1  0  0  0  0
 16 49  1  0  0  0  0
 17 16  1  0  0  0  0
 17 18  1  0  0  0  0
 17 50  1  0  0  0  0
 17 51  1  0  0  0  0
 18 19  1  0  0  0  0
 18 52  1  0  0  0  0
 18 53  1  0  0  0  0
 19 20  1  0  0  0  0
 19 54  1  0  0  0  0
 19 55  1  0  0  0  0
 20 21  1  0  0  0  0
 20 56  1  0  0  0  0
 20 57  1  0  0  0  0
 21 22  1  0  0  0  0
 21 58  1  0  0  0  0
 21 59  1  0  0  0  0
 22 23  1  0  0  0  0
 22 60  1  0  0  0  0
 22 61  1  0  0  0  0
 23 27  1  0  0  0  0
 24 23  1  0  0  0  0
 24 25  2  0  0  0  0
 24 62  1  0  0  0  0
 25 26  1  0  0  0  0
 25 63  1  0  0  0  0
 27 26  2  0  0  0  0
 27 64  1  0  0  0  0
M  END
>  <DRUGBANK_ID>
DB08086

>  <COMMON_NAME>
N-[12-(1H-imidazol-1-yl)dodecanoyl]-L-leucine

$$$$
