
 OpenBabel10282417072D

 31 30  0  0  1  0  0  0  0  0999 V2000
    4.5080    2.2688    0.0000 Cl  0  0  0  0  0  0  0  0  0  0  0  0
    4.5080   -0.2063    0.0000 S   0  0  0  0  0  0  0  0  0  0  0  0
    2.3645    0.2063    0.0000 S   0  0  0  0  0  0  0  0  0  0  0  0
    4.9205    0.5082    0.0000 O   0  0  0  0  0  0  0  0  0  0  0  0
    4.0955   -0.9207    0.0000 O   0  0  0  0  0  0  0  0  0  0  0  0
    1.9520   -0.5082    0.0000 O   0  0  0  0  0  0  0  0  0  0  0  0
    2.7770    0.9207    0.0000 O   0  0  0  0  0  0  0  0  0  0  0  0
    3.7935   -1.4438    0.0000 O   0  0  0  0  0  0  0  0  0  0  0  0
    3.7935    0.2063    0.0000 N   0  0  0  0  0  0  0  0  0  0  0  0
    3.0791   -0.2063    0.0000 N   0  0  0  0  0  0  0  0  0  0  0  0
    2.3645   -1.4438    0.0000 N   0  0  0  0  0  0  0  0  0  0  0  0
    3.7935    1.0313    0.0000 C   0  0  0  0  0  0  0  0  0  0  0  0
    5.2224   -0.6188    0.0000 C   0  0  0  0  0  0  0  0  0  0  0  0
    4.5080    1.4438    0.0000 C   0  0  0  0  0  0  0  0  0  0  0  0
    3.0791   -1.0313    0.0000 C   0  0  0  0  0  0  0  0  0  0  0  0
    1.6500    0.6188    0.0000 C   0  0  0  0  0  0  0  0  0  0  0  0
    2.3645   -2.2688    0.0000 C   0  0  0  0  0  0  0  0  0  0  0  0
    1.5119   -0.9515    0.0000 H   0  0  0  0  0  0  0  0  0  0  0  0
    2.8669    1.5663    0.0000 H   0  0  0  0  0  0  0  0  0  0  0  0
    3.7935    2.1013    0.0000 H   0  0  0  0  0  0  0  0  0  0  0  0
    5.2224   -1.6888    0.0000 H   0  0  0  0  0  0  0  0  0  0  0  0
    6.1491   -0.0838    0.0000 H   0  0  0  0  0  0  0  0  0  0  0  0
    6.1490   -1.1538    0.0000 H   0  0  0  0  0  0  0  0  0  0  0  0
    5.4346    0.9088    0.0000 H   0  0  0  0  0  0  0  0  0  0  0  0
    4.5080    0.3738    0.0000 H   0  0  0  0  0  0  0  0  0  0  0  0
    1.6500    1.6888    0.0000 H   0  0  0  0  0  0  0  0  0  0  0  0
    0.7234    0.0838    0.0000 H   0  0  0  0  0  0  0  0  0  0  0  0
    0.7233    1.1538    0.0000 H   0  0  0  0  0  0  0  0  0  0  0  0
    1.4379   -2.8038    0.0000 H   0  0  0  0  0  0  0  0  0  0  0  0
    3.2911   -2.8038    0.0000 H   0  0  0  0  0  0  0  0  0  0  0  0
    2.3645   -3.3388    0.0000 H   0  0  0  0  0  0  0  0  0  0  0  0
  1 14  1  0  0  0  0
  2  4  2  0  0  0  0
  2  5  2  0  0  0  0
  2  9  1  0  0  0  0
  2 13  1  0  0  0  0
  3  6  2  0  0  0  0
  3  7  2  0  0  0  0
  3 10  1  0  0  0  0
  3 16  1  0  0  0  0
  8 15  2  0  0  0  0
  9 10  1  0  0  0  0
  9 12  1  0  0  0  0
 10 15  1  0  0  0  0
 11 15  1  0  0  0  0
 11 17  1  0  0  0  0
 11 18  1  0  0  0  0
 12 14  1  0  0  0  0
 12 19  1  0  0  0  0
 12 20  1  0  0  0  0
 13 21  1  0  0  0  0
 13 22  1  0  0  0  0
 13 23  1  0  0  0  0
 14 24  1  0  0  0  0
 14 25  1  0  0  0  0
 16 26  1  0  0  0  0
 16 27  1  0  0  0  0
 16 28  1  0  0  0  0
 17 29  1  0  0  0  0
 17 30  1  0  0  0  0
 17 31  1  0  0  0  0
M  END
>  <DRUGBANK_ID>
DB05817

>  <SECONDARY_ACCESSION_NUMBERS>
DB12324

>  <COMMON_NAME>
Laromustine

>  <CAS_NUMBER>
173424-77-6

>  <UNII>
14J2G0U3NQ

>  <SYNONYMS>
Cloretazine; Laromustine; Onrigin

$$$$
