
 OpenBabel10282417072D

 75 78  0  0  1  0  0  0  0  0999 V2000
   -5.9471    9.0388    0.0000 C   0  0  0  0  0  0  0  0  0  0  0  0
   -5.3060    9.5580    0.0000 C   0  0  0  0  0  0  0  0  0  0  0  0
   -4.6648   10.0772    0.0000 C   0  0  0  0  0  0  0  0  0  0  0  0
   -5.8251   10.1991    0.0000 C   0  0  0  0  0  0  0  0  0  0  0  0
   -5.5295   10.9693    0.0000 O   0  0  0  0  0  0  0  0  0  0  0  0
   -6.6400   10.0701    0.0000 O   0  0  0  0  0  0  0  0  0  0  0  0
   -4.7868    8.9168    0.0000 O   0  0  0  0  0  0  0  0  0  0  0  0
   -5.0824    8.1466    0.0000 N   0  0  0  0  0  0  0  0  0  0  0  0
   -4.5632    7.5055    0.0000 C   0  0  0  0  0  0  0  0  0  0  0  0
   -4.8589    6.7353    0.0000 C   0  0  0  0  0  0  0  0  0  0  0  0
   -4.4096    6.0434    0.0000 N   0  0  0  0  0  0  0  0  0  0  0  0
   -4.9288    5.4022    0.0000 C   0  0  0  0  0  0  0  0  0  0  0  0
   -5.6990    5.6979    0.0000 S   0  0  0  0  0  0  0  0  0  0  0  0
   -5.6558    6.5217    0.0000 N   0  0  0  0  0  0  0  0  0  0  0  0
   -4.7152    4.6053    0.0000 N   0  0  0  0  0  0  0  0  0  0  0  0
   -3.7484    7.6345    0.0000 C   0  0  0  0  0  0  0  0  0  0  0  0
   -3.4527    8.4047    0.0000 O   0  0  0  0  0  0  0  0  0  0  0  0
   -3.2292    6.9934    0.0000 N   0  0  0  0  0  0  0  0  0  0  0  0
   -2.4144    7.1224    0.0000 C   0  0  1  0  0  0  0  0  0  0  0  0
   -1.7469    6.6375    0.0000 C   0  0  2  0  0  0  0  0  0  0  0  0
   -1.2620    7.3050    0.0000 N   0  0  0  0  0  0  0  0  0  0  0  0
   -1.9294    7.7899    0.0000 C   0  0  0  0  0  0  0  0  0  0  0  0
   -2.0585    8.6047    0.0000 O   0  0  0  0  0  0  0  0  0  0  0  0
   -0.4415    7.2187    0.0000 C   0  0  0  0  0  0  0  0  0  0  0  0
   -0.1060    6.4651    0.0000 C   0  0  0  0  0  0  0  0  0  0  0  0
   -0.5909    5.7976    0.0000 C   0  0  0  0  0  0  0  0  0  0  0  0
   -1.4114    5.8838    0.0000 S   0  0  0  0  0  0  0  0  0  0  0  0
    0.7144    6.3788    0.0000 C   0  0  0  0  0  0  0  0  0  0  0  0
    1.0500    5.6251    0.0000 N   0  3  0  0  0  0  0  0  0  0  0  0
    1.8570    5.4536    0.0000 C   0  0  0  0  0  0  0  0  0  0  0  0
    1.9432    4.6331    0.0000 C   0  0  0  0  0  0  0  0  0  0  0  0
    1.1895    4.2976    0.0000 C   0  0  0  0  0  0  0  0  0  0  0  0
    0.6375    4.9107    0.0000 N   0  0  0  0  0  0  0  0  0  0  0  0
   -0.1829    4.8244    0.0000 C   0  0  0  0  0  0  0  0  0  0  0  0
    1.0180    3.4906    0.0000 N   0  0  0  0  0  0  0  0  0  0  0  0
    2.6577    4.2206    0.0000 N   0  0  0  0  0  0  0  0  0  0  0  0
    3.3721    4.6331    0.0000 C   0  0  0  0  0  0  0  0  0  0  0  0
    3.3721    5.4581    0.0000 O   0  0  0  0  0  0  0  0  0  0  0  0
    4.0866    4.2206    0.0000 N   0  0  0  0  0  0  0  0  0  0  0  0
    4.8011    4.6331    0.0000 C   0  0  0  0  0  0  0  0  0  0  0  0
    5.5155    4.2206    0.0000 C   0  0  0  0  0  0  0  0  0  0  0  0
    6.2300    4.6331    0.0000 N   0  0  0  0  0  0  0  0  0  0  0  0
    0.0433    7.8862    0.0000 C   0  0  0  0  0  0  0  0  0  0  0  0
    0.8638    7.7999    0.0000 O   0  0  0  0  0  0  0  0  0  0  0  0
   -0.2922    8.6398    0.0000 O   0  5  0  0  0  0  0  0  0  0  0  0
   -6.9460    9.4222    0.0000 H   0  0  0  0  0  0  0  0  0  0  0  0
   -5.7797    7.9820    0.0000 H   0  0  0  0  0  0  0  0  0  0  0  0
   -6.7786    8.3654    0.0000 H   0  0  0  0  0  0  0  0  0  0  0  0
   -3.6659    9.6937    0.0000 H   0  0  0  0  0  0  0  0  0  0  0  0
   -4.8322   11.1340    0.0000 H   0  0  0  0  0  0  0  0  0  0  0  0
   -3.8332   10.7505    0.0000 H   0  0  0  0  0  0  0  0  0  0  0  0
   -7.2296   10.7983    0.0000 H   0  0  0  0  0  0  0  0  0  0  0  0
   -5.4113    3.9091    0.0000 H   0  0  0  0  0  0  0  0  0  0  0  0
   -3.7642    4.3506    0.0000 H   0  0  0  0  0  0  0  0  0  0  0  0
   -3.5820    6.0743    0.0000 H   0  0  0  0  0  0  0  0  0  0  0  0
   -2.6642    6.0820    0.0000 H   0  0  0  0  0  0  0  0  0  0  0  0
   -1.9144    7.6943    0.0000 H   0  0  0  0  0  0  0  0  0  0  0  0
   -0.1556    4.8201    0.0000 H   0  0  0  0  0  0  0  0  0  0  0  0
   -1.2198    4.9319    0.0000 H   0  0  0  0  0  0  0  0  0  0  0  0
    1.3434    7.2444    0.0000 H   0  0  0  0  0  0  0  0  0  0  0  0
    1.7785    6.2670    0.0000 H   0  0  0  0  0  0  0  0  0  0  0  0
    2.6239    6.1441    0.0000 H   0  0  0  0  0  0  0  0  0  0  0  0
   -0.8119    5.6900    0.0000 H   0  0  0  0  0  0  0  0  0  0  0  0
   -0.6180    3.8469    0.0000 H   0  0  0  0  0  0  0  0  0  0  0  0
   -1.2470    4.7125    0.0000 H   0  0  0  0  0  0  0  0  0  0  0  0
    0.0817    3.1863    0.0000 H   0  0  0  0  0  0  0  0  0  0  0  0
    1.7497    2.8319    0.0000 H   0  0  0  0  0  0  0  0  0  0  0  0
    2.6577    3.2361    0.0000 H   0  0  0  0  0  0  0  0  0  0  0  0
    4.0866    3.2361    0.0000 H   0  0  0  0  0  0  0  0  0  0  0  0
    4.8011    5.7031    0.0000 H   0  0  0  0  0  0  0  0  0  0  0  0
    5.7278    5.1681    0.0000 H   0  0  0  0  0  0  0  0  0  0  0  0
    5.5155    3.1506    0.0000 H   0  0  0  0  0  0  0  0  0  0  0  0
    6.4421    3.6856    0.0000 H   0  0  0  0  0  0  0  0  0  0  0  0
    7.1133    4.1231    0.0000 H   0  0  0  0  0  0  0  0  0  0  0  0
    6.2300    5.6531    0.0000 H   0  0  0  0  0  0  0  0  0  0  0  0
  1  2  1  0  0  0  0
  1 46  1  0  0  0  0
  1 47  1  0  0  0  0
  1 48  1  0  0  0  0
  2  3  1  0  0  0  0
  2  4  1  0  0  0  0
  2  7  1  0  0  0  0
  3 49  1  0  0  0  0
  3 50  1  0  0  0  0
  3 51  1  0  0  0  0
  4  5  2  0  0  0  0
  4  6  1  0  0  0  0
  6 52  1  0  0  0  0
  7  8  1  0  0  0  0
  8  9  2  0  0  0  0
  9 10  1  0  0  0  0
  9 16  1  0  0  0  0
 10 11  1  0  0  0  0
 10 14  2  0  0  0  0
 11 12  2  0  0  0  0
 12 13  1  0  0  0  0
 12 15  1  0  0  0  0
 13 14  1  0  0  0  0
 15 53  1  0  0  0  0
 15 54  1  0  0  0  0
 16 17  2  0  0  0  0
 16 18  1  0  0  0  0
 18 55  1  0  0  0  0
 19 18  1  0  0  0  0
 19 20  1  0  0  0  0
 19 22  1  0  0  0  0
 19 56  1  1  0  0  0
 20 21  1  0  0  0  0
 20 27  1  0  0  0  0
 20 57  1  1  0  0  0
 21 22  1  0  0  0  0
 21 24  1  0  0  0  0
 22 23  2  0  0  0  0
 24 25  2  0  0  0  0
 24 43  1  0  0  0  0
 25 26  1  0  0  0  0
 25 28  1  0  0  0  0
 26 27  1  0  0  0  0
 26 58  1  0  0  0  0
 26 59  1  0  0  0  0
 28 29  1  0  0  0  0
 28 60  1  0  0  0  0
 28 61  1  0  0  0  0
 29 30  2  0  0  0  0
 29 33  1  0  0  0  0
 30 31  1  0  0  0  0
 30 62  1  0  0  0  0
 31 32  2  0  0  0  0
 31 36  1  0  0  0  0
 32 33  1  0  0  0  0
 32 35  1  0  0  0  0
 33 34  1  0  0  0  0
 34 63  1  0  0  0  0
 34 64  1  0  0  0  0
 34 65  1  0  0  0  0
 35 66  1  0  0  0  0
 35 67  1  0  0  0  0
 36 37  1  0  0  0  0
 36 68  1  0  0  0  0
 37 38  2  0  0  0  0
 37 39  1  0  0  0  0
 39 40  1  0  0  0  0
 39 69  1  0  0  0  0
 40 41  1  0  0  0  0
 40 70  1  0  0  0  0
 40 71  1  0  0  0  0
 41 42  1  0  0  0  0
 41 72  1  0  0  0  0
 41 73  1  0  0  0  0
 42 74  1  0  0  0  0
 42 75  1  0  0  0  0
 43 44  2  0  0  0  0
 43 45  1  0  0  0  0
M  CHG  2  29   1  45  -1
M  END
>  <DRUGBANK_ID>
DB09050

>  <COMMON_NAME>
Ceftolozane

>  <CAS_NUMBER>
689293-68-3

>  <UNII>
37A4IES95Q

>  <SYNONYMS>
(6R,7R)-3-([3-Amino-4-(2-aminoethylcarbamoylamino)-2-methylpyrazol-1-ium-1-yl]methyl)-7-([(2Z)-2-(5-amino-1,2,4-thiadiazol-3-yl)-2-(2-carboxypropan-2-yloxyimino)acetyl]amino)-8-oxo-5-thia-1-azabicyclo[4.2.0]oct-2-ene-2-carboxylate; Ceftolozane; ceftolozano

$$$$
