
 OpenBabel10282417072D

 48 49  0  0  0  0  0  0  0  0999 V2000
   -2.3278   -3.3133    0.0000 C   0  0  0  0  0  0  0  0  0  0  0  0
    2.6735   -1.2508    0.0000 C   0  0  0  0  0  0  0  0  0  0  0  0
   -1.6133   -3.7258    0.0000 C   0  0  0  0  0  0  0  0  0  0  0  0
    3.3880   -0.8383    0.0000 C   0  0  0  0  0  0  0  0  0  0  0  0
   -2.3278   -2.4883    0.0000 C   0  0  0  0  0  0  0  0  0  0  0  0
    1.9590   -0.8383    0.0000 C   0  0  0  0  0  0  0  0  0  0  0  0
   -0.8989   -3.3133    0.0000 C   0  0  0  0  0  0  0  0  0  0  0  0
    3.3880   -0.0133    0.0000 C   0  0  0  0  0  0  0  0  0  0  0  0
   -1.6133    1.2242    0.0000 C   0  0  0  0  0  0  0  0  0  0  0  0
   -0.8989    2.4617    0.0000 C   0  0  0  0  0  0  0  0  0  0  0  0
   -1.6133    0.3992    0.0000 C   0  0  0  0  0  0  0  0  0  0  0  0
   -0.1844    2.8742    0.0000 C   0  0  0  0  0  0  0  0  0  0  0  0
   -0.1844    1.2242    0.0000 C   0  0  0  0  0  0  0  0  0  0  0  0
   -1.6133   -1.2508    0.0000 C   0  0  0  0  0  0  0  0  0  0  0  0
    1.2446    0.3992    0.0000 C   0  0  0  0  0  0  0  0  0  0  0  0
   -0.8989    1.6367    0.0000 C   0  0  0  0  0  0  0  0  0  0  0  0
   -1.6133   -2.0758    0.0000 C   0  0  0  0  0  0  0  0  0  0  0  0
    1.9590   -0.0133    0.0000 C   0  0  0  0  0  0  0  0  0  0  0  0
   -0.8989   -0.0133    0.0000 C   0  0  0  0  0  0  0  0  0  0  0  0
   -0.1844    0.3992    0.0000 C   0  0  0  0  0  0  0  0  0  0  0  0
   -0.8989   -2.4883    0.0000 C   0  0  0  0  0  0  0  0  0  0  0  0
    2.6735    0.3992    0.0000 C   0  0  0  0  0  0  0  0  0  0  0  0
   -0.1844    3.6992    0.0000 C   0  0  0  0  0  0  0  0  0  0  0  0
   -0.8989   -0.8383    0.0000 N   0  0  0  0  0  0  0  0  0  0  0  0
    0.5301   -0.0133    0.0000 N   0  0  0  0  0  0  0  0  0  0  0  0
   -0.1844   -2.0758    0.0000 O   0  5  0  0  0  0  0  0  0  0  0  0
    2.6735    1.2242    0.0000 O   0  5  0  0  0  0  0  0  0  0  0  0
   -0.8989    4.1117    0.0000 O   0  0  0  0  0  0  0  0  0  0  0  0
    0.5301    4.1117    0.0000 O   0  0  0  0  0  0  0  0  0  0  0  0
    5.7451    0.0000    0.0000 Fe  0  0  0  0  0  0  0  0  0  0  0  0
   -2.3278   -0.8383    0.0000 H   0  0  0  0  0  0  0  0  0  0  0  0
    1.2446    1.2242    0.0000 H   0  0  0  0  0  0  0  0  0  0  0  0
   -3.2215   -3.8293    0.0000 H   0  0  0  0  0  0  0  0  0  0  0  0
    2.6735   -2.2828    0.0000 H   0  0  0  0  0  0  0  0  0  0  0  0
   -1.6133   -4.7578    0.0000 H   0  0  0  0  0  0  0  0  0  0  0  0
    4.2817   -1.3543    0.0000 H   0  0  0  0  0  0  0  0  0  0  0  0
   -3.2215   -1.9723    0.0000 H   0  0  0  0  0  0  0  0  0  0  0  0
    1.0653   -1.3543    0.0000 H   0  0  0  0  0  0  0  0  0  0  0  0
   -0.0052   -3.8293    0.0000 H   0  0  0  0  0  0  0  0  0  0  0  0
    4.2817    0.5027    0.0000 H   0  0  0  0  0  0  0  0  0  0  0  0
   -2.5070    1.7402    0.0000 H   0  0  0  0  0  0  0  0  0  0  0  0
   -1.8255    2.9967    0.0000 H   0  0  0  0  0  0  0  0  0  0  0  0
   -1.8255    1.9267    0.0000 H   0  0  0  0  0  0  0  0  0  0  0  0
   -2.5070   -0.1168    0.0000 H   0  0  0  0  0  0  0  0  0  0  0  0
    0.7422    2.3392    0.0000 H   0  0  0  0  0  0  0  0  0  0  0  0
    0.7422    3.4092    0.0000 H   0  0  0  0  0  0  0  0  0  0  0  0
    0.7093    1.7402    0.0000 H   0  0  0  0  0  0  0  0  0  0  0  0
    1.3416    3.6432    0.0000 H   0  0  0  0  0  0  0  0  0  0  0  0
  1 33  1  0  0  0  0
  2 34  1  0  0  0  0
  3  1  2  0  0  0  0
  3 35  1  0  0  0  0
  4  2  2  0  0  0  0
  4 36  1  0  0  0  0
  5  1  1  0  0  0  0
  5 37  1  0  0  0  0
  6  2  1  0  0  0  0
  6 38  1  0  0  0  0
  7  3  1  0  0  0  0
  7 39  1  0  0  0  0
  8  4  1  0  0  0  0
  8 40  1  0  0  0  0
  9 41  1  0  0  0  0
 10 42  1  0  0  0  0
 10 43  1  0  0  0  0
 11  9  2  0  0  0  0
 11 44  1  0  0  0  0
 12 10  1  0  0  0  0
 12 45  1  0  0  0  0
 12 46  1  0  0  0  0
 13 47  1  0  0  0  0
 16  9  1  0  0  0  0
 16 10  1  0  0  0  0
 16 13  2  0  0  0  0
 17  5  2  0  0  0  0
 17 14  1  0  0  0  0
 18  6  2  0  0  0  0
 18 15  1  0  0  0  0
 19 11  1  0  0  0  0
 20 13  1  0  0  0  0
 20 19  2  0  0  0  0
 21  7  2  0  0  0  0
 21 17  1  0  0  0  0
 22  8  2  0  0  0  0
 22 18  1  0  0  0  0
 23 12  1  0  0  0  0
 24 14  2  0  0  0  0
 24 19  1  0  0  0  0
 25 15  2  0  0  0  0
 25 20  1  0  0  0  0
 26 21  1  0  0  0  0
 27 22  1  0  0  0  0
 28 23  2  0  0  0  0
 29 23  1  0  0  0  0
 29 48  1  0  0  0  0
 31 14  1  0  0  0  0
 32 15  1  0  0  0  0
M  CHG  3  26  -1  27  -1  30   4
M  END
>  <DRUGBANK_ID>
DB04809

>  <COMMON_NAME>
SALOPHEN-10-PROPIONATE IRON CHELATE

$$$$
