
 OpenBabel10282417072D

199208  0  0  0  0  0  0  0  0999 V2000
    7.4457    3.2867    0.0000 C   0  0  0  0  0  0  0  0  0  0  0  0
    5.0701    3.4416    0.0000 C   0  0  0  0  0  0  0  0  0  0  0  0
    8.2361    4.1305    0.0000 C   0  0  0  0  0  0  0  0  0  0  0  0
   18.9347    4.8906    0.0000 C   0  0  0  0  0  0  0  0  0  0  0  0
   12.5194   -0.4083    0.0000 C   0  0  0  0  0  0  0  0  0  0  0  0
   18.0783    7.7393    0.0000 C   0  0  0  0  0  0  0  0  0  0  0  0
    9.4273    0.4356    0.0000 C   0  0  0  0  0  0  0  0  0  0  0  0
   14.4373    2.1547    0.0000 C   0  0  0  0  0  0  0  0  0  0  0  0
    6.7894    5.5199    0.0000 C   0  0  0  0  0  0  0  0  0  0  0  0
    8.8692    0.5434    0.0000 C   0  0  0  0  0  0  0  0  0  0  0  0
   11.3095    6.6677    0.0000 C   0  0  0  0  0  0  0  0  0  0  0  0
    5.0031    8.8166    0.0000 C   0  0  0  0  0  0  0  0  0  0  0  0
    6.9426    9.1903    0.0000 C   0  0  0  0  0  0  0  0  0  0  0  0
    8.2286    3.0265    0.0000 C   0  0  0  0  0  0  0  0  0  0  0  0
    5.7951    3.0479    0.0000 C   0  0  0  0  0  0  0  0  0  0  0  0
    8.1514    5.0021    0.0000 C   0  0  0  0  0  0  0  0  0  0  0  0
    8.6901    4.3828    0.0000 C   0  0  0  0  0  0  0  0  0  0  0  0
   13.7874    4.5451    0.0000 C   0  0  0  0  0  0  0  0  0  0  0  0
   13.1924    4.1484    0.0000 C   0  0  0  0  0  0  0  0  0  0  0  0
    8.1666    7.1905    0.0000 C   0  0  0  0  0  0  0  0  0  0  0  0
   13.0654    6.5136    0.0000 C   0  0  0  0  0  0  0  0  0  0  0  0
   15.1270    6.9453    0.0000 C   0  0  0  0  0  0  0  0  0  0  0  0
    5.1819    5.2087    0.0000 C   0  0  0  0  0  0  0  0  0  0  0  0
    8.4489    9.8034    0.0000 C   0  0  0  0  0  0  0  0  0  0  0  0
   11.7741    2.2714    0.0000 C   0  0  0  0  0  0  0  0  0  0  0  0
    8.8454    3.5743    0.0000 C   0  0  3  0  0  0  0  0  0  0  0  0
   19.3393    5.6096    0.0000 C   0  0  0  0  0  0  0  0  0  0  0  0
   12.1207    0.3139    0.0000 C   0  0  0  0  0  0  0  0  0  0  0  0
   17.6737    7.0203    0.0000 C   0  0  0  0  0  0  0  0  0  0  0  0
   10.1725    0.7897    0.0000 C   0  0  3  0  0  0  0  0  0  0  0  0
   13.6155    2.2268    0.0000 C   0  0  3  0  0  0  0  0  0  0  0  0
    7.0769    6.2932    0.0000 C   0  0  3  0  0  0  0  0  0  0  0  0
    8.2443    1.0821    0.0000 C   0  0  3  0  0  0  0  0  0  0  0  0
   11.0638    7.4552    0.0000 C   0  0  3  0  0  0  0  0  0  0  0  0
    5.7798    9.0947    0.0000 C   0  0  3  0  0  0  0  0  0  0  0  0
    8.4155    5.7869    0.0000 C   0  0  0  0  0  0  0  0  0  0  0  0
    7.8903    6.4308    0.0000 C   0  0  0  0  0  0  0  0  0  0  0  0
    6.4985    3.4789    0.0000 C   0  0  0  0  0  0  0  0  0  0  0  0
    9.5090    4.5520    0.0000 C   0  0  3  0  0  0  0  0  0  0  0  0
   13.6922    5.3646    0.0000 C   0  0  0  0  0  0  0  0  0  0  0  0
    8.9998    7.3317    0.0000 C   0  0  0  0  0  0  0  0  0  0  0  0
   12.3650    6.0567    0.0000 C   0  0  0  0  0  0  0  0  0  0  0  0
   15.6192    6.2832    0.0000 C   0  0  0  0  0  0  0  0  0  0  0  0
    9.0509    9.2113    0.0000 C   0  0  0  0  0  0  0  0  0  0  0  0
    5.9161    5.6330    0.0000 C   0  0  3  0  0  0  0  0  0  0  0  0
   10.9587    2.5198    0.0000 C   0  0  0  0  0  0  0  0  0  0  0  0
    9.6283    3.3141    0.0000 C   0  0  3  0  0  0  0  0  0  0  0  0
    8.3983    1.8926    0.0000 C   0  0  3  0  0  0  0  0  0  0  0  0
   11.4693    8.1710    0.0000 C   0  0  3  0  0  0  0  0  0  0  0  0
    9.2461    5.9407    0.0000 C   0  0  0  0  0  0  0  0  0  0  0  0
    9.7975    5.3270    0.0000 C   0  0  3  0  0  0  0  0  0  0  0  0
   12.2728    5.1996    0.0000 C   0  0  3  0  0  0  0  0  0  0  0  0
    7.0382    8.0275    0.0000 C   0  0  3  0  0  0  0  0  0  0  0  0
   20.1643    5.6186    0.0000 C   0  0  0  0  0  0  0  0  0  0  0  0
   18.0940    6.3104    0.0000 C   0  0  0  0  0  0  0  0  0  0  0  0
   12.8724    0.7523    0.0000 C   0  0  0  0  0  0  0  0  0  0  0  0
   10.5695    0.0406    0.0000 C   0  0  0  0  0  0  0  0  0  0  0  0
   13.4949    3.1133    0.0000 C   0  0  0  0  0  0  0  0  0  0  0  0
   16.4441    6.2923    0.0000 C   0  0  0  0  0  0  0  0  0  0  0  0
    9.9688    9.1328    0.0000 C   0  0  0  0  0  0  0  0  0  0  0  0
   10.1737    2.1466    0.0000 C   0  0  0  0  0  0  0  0  0  0  0  0
    6.1598    6.4927    0.0000 C   0  0  0  0  0  0  0  0  0  0  0  0
    9.5956    2.4651    0.0000 C   0  0  0  0  0  0  0  0  0  0  0  0
    7.6086    2.2197    0.0000 C   0  0  0  0  0  0  0  0  0  0  0  0
    6.1205    4.2271    0.0000 C   0  0  0  0  0  0  0  0  0  0  0  0
   14.3543    5.8568    0.0000 C   0  0  0  0  0  0  0  0  0  0  0  0
   12.0274    7.4359    0.0000 C   0  0  0  0  0  0  0  0  0  0  0  0
    7.6673    8.6490    0.0000 C   0  0  0  0  0  0  0  0  0  0  0  0
    9.5438    7.9329    0.0000 C   0  0  0  0  0  0  0  0  0  0  0  0
   11.8280    3.6611    0.0000 C   0  0  0  0  0  0  0  0  0  0  0  0
    6.4090    8.5611    0.0000 C   0  0  3  0  0  0  0  0  0  0  0  0
   12.3680    4.3801    0.0000 C   0  0  3  0  0  0  0  0  0  0  0  0
   20.5689    6.3376    0.0000 N   0  0  0  0  0  0  0  0  0  0  0  0
   18.9190    6.3195    0.0000 N   0  0  0  0  0  0  0  0  0  0  0  0
   11.3811   -0.0719    0.0000 N   0  0  0  0  0  0  0  0  0  0  0  0
   13.3605    1.4316    0.0000 N   0  0  0  0  0  0  0  0  0  0  0  0
   16.8488    7.0112    0.0000 N   0  0  0  0  0  0  0  0  0  0  0  0
    9.8390    1.5791    0.0000 N   0  0  0  0  0  0  0  0  0  0  0  0
   10.0967    3.9936    0.0000 N   0  0  0  0  0  0  0  0  0  0  0  0
    9.5208    6.7081    0.0000 N   0  0  0  0  0  0  0  0  0  0  0  0
   12.9349    5.6918    0.0000 N   0  0  0  0  0  0  0  0  0  0  0  0
    7.0042    2.7876    0.0000 N   0  0  0  0  0  0  0  0  0  0  0  0
   11.7640    6.6395    0.0000 N   0  0  0  0  0  0  0  0  0  0  0  0
    6.4801    4.9943    0.0000 N   0  0  0  0  0  0  0  0  0  0  0  0
   15.1416    5.6105    0.0000 N   0  0  0  0  0  0  0  0  0  0  0  0
    8.5221    8.5255    0.0000 N   0  0  0  0  0  0  0  0  0  0  0  0
   11.0180    3.3636    0.0000 N   0  0  0  0  0  0  0  0  0  0  0  0
    9.2615    1.9074    0.0000 N   0  0  0  0  0  0  0  0  0  0  0  0
   10.7911    8.7769    0.0000 N   0  0  0  0  0  0  0  0  0  0  0  0
    6.5243    7.3004    0.0000 N   0  0  0  0  0  0  0  0  0  0  0  0
   13.1475    3.8394    0.0000 N   0  0  0  0  0  0  0  0  0  0  0  0
    6.5510    6.9288    0.0000 O   0  0  0  0  0  0  0  0  0  0  0  0
    7.4654    0.8102    0.0000 O   0  0  0  0  0  0  0  0  0  0  0  0
    5.9273    9.9064    0.0000 O   0  0  0  0  0  0  0  0  0  0  0  0
   10.6080    5.4810    0.0000 O   0  0  0  0  0  0  0  0  0  0  0  0
   20.5846    4.9087    0.0000 O   0  0  0  0  0  0  0  0  0  0  0  0
   17.6894    5.5915    0.0000 O   0  0  0  0  0  0  0  0  0  0  0  0
   13.4273    0.1418    0.0000 O   0  0  0  0  0  0  0  0  0  0  0  0
   10.0965   -0.6353    0.0000 O   0  0  0  0  0  0  0  0  0  0  0  0
   14.2853    3.3498    0.0000 O   0  0  0  0  0  0  0  0  0  0  0  0
   16.8645    5.5824    0.0000 O   0  0  0  0  0  0  0  0  0  0  0  0
   10.1704    9.9328    0.0000 O   0  0  0  0  0  0  0  0  0  0  0  0
   10.4567    1.3716    0.0000 O   0  0  0  0  0  0  0  0  0  0  0  0
    5.3848    6.7756    0.0000 O   0  0  0  0  0  0  0  0  0  0  0  0
    8.7761    2.3706    0.0000 O   0  0  0  0  0  0  0  0  0  0  0  0
    7.1609    1.5267    0.0000 O   0  0  0  0  0  0  0  0  0  0  0  0
    9.2677    8.7103    0.0000 O   0  0  0  0  0  0  0  0  0  0  0  0
    5.8754    7.9319    0.0000 O   0  0  0  0  0  0  0  0  0  0  0  0
   10.3244    7.8128    0.0000 O   0  0  0  0  0  0  0  0  0  0  0  0
    5.2940    4.3782    0.0000 S   0  0  0  0  0  0  0  0  0  0  0  0
   14.3452    6.6818    0.0000 S   0  0  0  0  0  0  0  0  0  0  0  0
   12.8663    7.3402    0.0000 S   0  0  0  0  0  0  0  0  0  0  0  0
    7.6709    9.5036    0.0000 S   0  0  0  0  0  0  0  0  0  0  0  0
   12.2495    2.9166    0.0000 S   0  0  0  0  0  0  0  0  0  0  0  0
    5.8166    2.2232    0.0000 H   0  0  0  0  0  0  0  0  0  0  0  0
    7.2303    4.3348    0.0000 H   0  0  0  0  0  0  0  0  0  0  0  0
    6.6457    2.5761    0.0000 H   0  0  0  0  0  0  0  0  0  0  0  0
    6.4303    3.6242    0.0000 H   0  0  0  0  0  0  0  0  0  0  0  0
    5.0422    4.5112    0.0000 H   0  0  0  0  0  0  0  0  0  0  0  0
    4.1577    2.8826    0.0000 H   0  0  0  0  0  0  0  0  0  0  0  0
    4.1298    3.9522    0.0000 H   0  0  0  0  0  0  0  0  0  0  0  0
    8.4657    5.1756    0.0000 H   0  0  0  0  0  0  0  0  0  0  0  0
    7.2162    3.8068    0.0000 H   0  0  0  0  0  0  0  0  0  0  0  0
    7.4458    4.8519    0.0000 H   0  0  0  0  0  0  0  0  0  0  0  0
   17.9028    4.8792    0.0000 H   0  0  0  0  0  0  0  0  0  0  0  0
   19.4605    4.0026    0.0000 H   0  0  0  0  0  0  0  0  0  0  0  0
   11.9864   -1.2920    0.0000 H   0  0  0  0  0  0  0  0  0  0  0  0
   13.5512   -0.4281    0.0000 H   0  0  0  0  0  0  0  0  0  0  0  0
   19.1102    7.7507    0.0000 H   0  0  0  0  0  0  0  0  0  0  0  0
   17.5525    8.6273    0.0000 H   0  0  0  0  0  0  0  0  0  0  0  0
    8.5464    1.0429    0.0000 H   0  0  0  0  0  0  0  0  0  0  0  0
    9.3418   -0.6310    0.0000 H   0  0  0  0  0  0  0  0  0  0  0  0
    8.4609   -0.0236    0.0000 H   0  0  0  0  0  0  0  0  0  0  0  0
   14.8893    1.1848    0.0000 H   0  0  0  0  0  0  0  0  0  0  0  0
   15.0512    3.0310    0.0000 H   0  0  0  0  0  0  0  0  0  0  0  0
   15.5032    2.0612    0.0000 H   0  0  0  0  0  0  0  0  0  0  0  0
    5.7344    5.3414    0.0000 H   0  0  0  0  0  0  0  0  0  0  0  0
    7.4715    4.6955    0.0000 H   0  0  0  0  0  0  0  0  0  0  0  0
    6.4165    4.5170    0.0000 H   0  0  0  0  0  0  0  0  0  0  0  0
    8.6694   -0.5078    0.0000 H   0  0  0  0  0  0  0  0  0  0  0  0
    9.8795    0.8959    0.0000 H   0  0  0  0  0  0  0  0  0  0  0  0
    9.6796   -0.1552    0.0000 H   0  0  0  0  0  0  0  0  0  0  0  0
   10.5843    5.8810    0.0000 H   0  0  0  0  0  0  0  0  0  0  0  0
   12.3534    6.4330    0.0000 H   0  0  0  0  0  0  0  0  0  0  0  0
   11.6282    5.6463    0.0000 H   0  0  0  0  0  0  0  0  0  0  0  0
    4.1870    9.5087    0.0000 H   0  0  0  0  0  0  0  0  0  0  0  0
    4.8118    7.7638    0.0000 H   0  0  0  0  0  0  0  0  0  0  0  0
    3.9957    8.4559    0.0000 H   0  0  0  0  0  0  0  0  0  0  0  0
    7.9954    8.9990    0.0000 H   0  0  0  0  0  0  0  0  0  0  0  0
    6.5819   10.1977    0.0000 H   0  0  0  0  0  0  0  0  0  0  0  0
    7.6347   10.0064    0.0000 H   0  0  0  0  0  0  0  0  0  0  0  0
    8.4440    1.9784    0.0000 H   0  0  0  0  0  0  0  0  0  0  0  0
    9.2440    2.6889    0.0000 H   0  0  0  0  0  0  0  0  0  0  0  0
    7.1391    4.8015    0.0000 H   0  0  0  0  0  0  0  0  0  0  0  0
    8.3600    3.4050    0.0000 H   0  0  0  0  0  0  0  0  0  0  0  0
   14.7584    4.0956    0.0000 H   0  0  0  0  0  0  0  0  0  0  0  0
   14.6542    5.1724    0.0000 H   0  0  0  0  0  0  0  0  0  0  0  0
   13.3597    3.0916    0.0000 H   0  0  0  0  0  0  0  0  0  0  0  0
   12.3929    3.4373    0.0000 H   0  0  0  0  0  0  0  0  0  0  0  0
    7.5058    7.9832    0.0000 H   0  0  0  0  0  0  0  0  0  0  0  0
   14.0245    6.1325    0.0000 H   0  0  0  0  0  0  0  0  0  0  0  0
   15.4352    7.9302    0.0000 H   0  0  0  0  0  0  0  0  0  0  0  0
    4.2214    5.6802    0.0000 H   0  0  0  0  0  0  0  0  0  0  0  0
    4.3137    4.5832    0.0000 H   0  0  0  0  0  0  0  0  0  0  0  0
    8.6586   10.8139    0.0000 H   0  0  0  0  0  0  0  0  0  0  0  0
   12.0988    1.2918    0.0000 H   0  0  0  0  0  0  0  0  0  0  0  0
    7.7754    3.5816    0.0000 H   0  0  0  0  0  0  0  0  0  0  0  0
    9.8360   -0.2260    0.0000 H   0  0  0  0  0  0  0  0  0  0  0  0
   14.3538    3.0012    0.0000 H   0  0  0  0  0  0  0  0  0  0  0  0
    7.7590    5.4688    0.0000 H   0  0  0  0  0  0  0  0  0  0  0  0
    9.2545    1.4347    0.0000 H   0  0  0  0  0  0  0  0  0  0  0  0
   12.1277    7.3415    0.0000 H   0  0  0  0  0  0  0  0  0  0  0  0
    5.5885    8.0419    0.0000 H   0  0  0  0  0  0  0  0  0  0  0  0
    8.8123    5.3641    0.0000 H   0  0  0  0  0  0  0  0  0  0  0  0
    5.0718    6.2903    0.0000 H   0  0  0  0  0  0  0  0  0  0  0  0
    8.7487    2.7049    0.0000 H   0  0  0  0  0  0  0  0  0  0  0  0
    7.4568    1.3842    0.0000 H   0  0  0  0  0  0  0  0  0  0  0  0
   11.5409    7.1034    0.0000 H   0  0  0  0  0  0  0  0  0  0  0  0
    8.7463    5.1272    0.0000 H   0  0  0  0  0  0  0  0  0  0  0  0
   13.3428    5.2041    0.0000 H   0  0  0  0  0  0  0  0  0  0  0  0
    6.9976    9.0967    0.0000 H   0  0  0  0  0  0  0  0  0  0  0  0
   21.5533    6.3485    0.0000 H   0  0  0  0  0  0  0  0  0  0  0  0
   11.1112    4.0992    0.0000 H   0  0  0  0  0  0  0  0  0  0  0  0
    6.8890    7.8380    0.0000 H   0  0  0  0  0  0  0  0  0  0  0  0
    6.7306    1.4435    0.0000 H   0  0  0  0  0  0  0  0  0  0  0  0
    6.8405   10.2334    0.0000 H   0  0  0  0  0  0  0  0  0  0  0  0
   11.2413    4.7463    0.0000 H   0  0  0  0  0  0  0  0  0  0  0  0
   20.1250    4.0921    0.0000 H   0  0  0  0  0  0  0  0  0  0  0  0
   16.7525    5.5812    0.0000 H   0  0  0  0  0  0  0  0  0  0  0  0
   13.1419   -0.7507    0.0000 H   0  0  0  0  0  0  0  0  0  0  0  0
    9.1630   -0.5539    0.0000 H   0  0  0  0  0  0  0  0  0  0  0  0
   14.9668    2.7067    0.0000 H   0  0  0  0  0  0  0  0  0  0  0  0
   16.4050    4.7658    0.0000 H   0  0  0  0  0  0  0  0  0  0  0  0
   11.0717   10.1888    0.0000 H   0  0  0  0  0  0  0  0  0  0  0  0
    9.8552    0.6532    0.0000 H   0  0  0  0  0  0  0  0  0  0  0  0
    5.2230    7.6985    0.0000 H   0  0  0  0  0  0  0  0  0  0  0  0
    8.2177    3.1231    0.0000 H   0  0  0  0  0  0  0  0  0  0  0  0
    6.2251    1.5735    0.0000 H   0  0  0  0  0  0  0  0  0  0  0  0
    4.9210    8.1053    0.0000 H   0  0  0  0  0  0  0  0  0  0  0  0
  1116  1  0  0  0  0
  1117  1  0  0  0  0
  1118  1  0  0  0  0
  2119  1  0  0  0  0
  2120  1  0  0  0  0
  2121  1  0  0  0  0
  3122  1  0  0  0  0
  3123  1  0  0  0  0
  3124  1  0  0  0  0
  4125  1  0  0  0  0
  4126  1  0  0  0  0
  5127  1  0  0  0  0
  5128  1  0  0  0  0
  6129  1  0  0  0  0
  6130  1  0  0  0  0
  7131  1  0  0  0  0
  7132  1  0  0  0  0
  7133  1  0  0  0  0
  8134  1  0  0  0  0
  8135  1  0  0  0  0
  8136  1  0  0  0  0
  9137  1  0  0  0  0
  9138  1  0  0  0  0
  9139  1  0  0  0  0
 10140  1  0  0  0  0
 10141  1  0  0  0  0
 10142  1  0  0  0  0
 11143  1  0  0  0  0
 11144  1  0  0  0  0
 11145  1  0  0  0  0
 12146  1  0  0  0  0
 12147  1  0  0  0  0
 12148  1  0  0  0  0
 13149  1  0  0  0  0
 13150  1  0  0  0  0
 13151  1  0  0  0  0
 14  1  1  0  0  0  0
 14152  1  0  0  0  0
 14153  1  0  0  0  0
 15  2  1  0  0  0  0
 16154  1  0  0  0  0
 17 16  2  0  0  0  0
 17155  1  0  0  0  0
 18156  1  0  0  0  0
 18157  1  0  0  0  0
 19 18  1  0  0  0  0
 19158  1  0  0  0  0
 19159  1  0  0  0  0
 20160  1  0  0  0  0
 21161  1  0  0  0  0
 22162  1  0  0  0  0
 23163  1  0  0  0  0
 23164  1  0  0  0  0
 24165  1  0  0  0  0
 25166  1  0  0  0  0
 26  3  1  0  0  0  0
 26 14  1  0  0  0  0
 26167  1  0  0  0  0
 27  4  2  0  0  0  0
 28  5  2  0  0  0  0
 29  6  2  0  0  0  0
 30  7  1  0  0  0  0
 30168  1  0  0  0  0
 31  8  1  0  0  0  0
 31169  1  0  0  0  0
 32  9  1  0  0  0  0
 32170  1  0  0  0  0
 33 10  1  0  0  0  0
 33171  1  0  0  0  0
 34 11  1  0  0  0  0
 34172  1  0  0  0  0
 35 12  1  0  0  0  0
 35173  1  0  0  0  0
 36 16  1  0  0  0  0
 37 20  2  0  0  0  0
 37 32  1  0  0  0  0
 37 36  1  0  0  0  0
 38 15  2  0  0  0  0
 39 17  1  0  0  0  0
 39174  1  0  0  0  0
 40 18  1  0  0  0  0
 41 20  1  0  0  0  0
 42 21  2  0  0  0  0
 43 22  2  0  0  0  0
 44 24  2  0  0  0  0
 45 23  1  0  0  0  0
 45175  1  0  0  0  0
 46 25  2  0  0  0  0
 47 26  1  0  0  0  0
 47176  1  0  0  0  0
 48 33  1  0  0  0  0
 48177  1  0  0  0  0
 49 34  1  0  0  0  0
 49178  1  0  0  0  0
 50 36  2  0  0  0  0
 51 39  1  0  0  0  0
 51 50  1  0  0  0  0
 51179  1  0  0  0  0
 52 42  1  0  0  0  0
 52180  1  0  0  0  0
 53181  1  0  0  0  0
 54 27  1  0  0  0  0
 55 29  1  0  0  0  0
 56 28  1  0  0  0  0
 57 30  1  0  0  0  0
 58 31  1  0  0  0  0
 59 43  1  0  0  0  0
 60 44  1  0  0  0  0
 61 46  1  0  0  0  0
 62 45  1  0  0  0  0
 63 47  1  0  0  0  0
 64 48  1  0  0  0  0
 65 38  1  0  0  0  0
 66 40  1  0  0  0  0
 67 49  1  0  0  0  0
 68 53  1  0  0  0  0
 69 41  1  0  0  0  0
 71 13  1  0  0  0  0
 71 35  1  0  0  0  0
 71 53  1  0  0  0  0
 72 19  1  0  0  0  0
 72 52  1  0  0  0  0
 72 70  1  0  0  0  0
 73 54  2  0  0  0  0
 73182  1  0  0  0  0
 74 27  1  0  0  0  0
 74 55  2  3  0  0  0
 75 28  1  0  0  0  0
 75 57  2  3  0  0  0
 76 31  1  0  0  0  0
 76 56  2  3  0  0  0
 77 29  1  0  0  0  0
 77 59  2  3  0  0  0
 78 30  1  0  0  0  0
 78 63  2  3  0  0  0
 79 39  1  0  0  0  0
 79 47  1  0  0  0  0
 79183  1  0  0  0  0
 80 41  2  0  0  0  0
 80 50  1  0  0  0  0
 81 40  2  0  0  0  0
 81 52  1  0  0  0  0
 82 38  1  0  0  0  0
 82 64  2  3  0  0  0
 83 42  1  0  0  0  0
 83 67  2  0  0  0  0
 84 45  1  0  0  0  0
 84 65  2  0  0  0  0
 85 43  1  0  0  0  0
 85 66  2  0  0  0  0
 86 44  1  0  0  0  0
 86 68  2  0  0  0  0
 87 46  1  0  0  0  0
 87 70  2  0  0  0  0
 88 48  1  0  0  0  0
 88 61  2  3  0  0  0
 89 49  1  0  0  0  0
 89 60  2  3  0  0  0
 90 53  1  0  0  0  0
 90 62  2  3  0  0  0
 91 58  2  3  0  0  0
 91 72  1  0  0  0  0
 92 32  1  0  0  0  0
 92184  1  0  0  0  0
 93 33  1  0  0  0  0
 93185  1  0  0  0  0
 94 35  1  0  0  0  0
 94186  1  0  0  0  0
 95 51  1  0  0  0  0
 95187  1  0  0  0  0
 96 54  1  0  0  0  0
 96188  1  0  0  0  0
 97 55  1  0  0  0  0
 97189  1  0  0  0  0
 98 56  1  0  0  0  0
 98190  1  0  0  0  0
 99 57  1  0  0  0  0
 99191  1  0  0  0  0
100 58  1  0  0  0  0
100192  1  0  0  0  0
101 59  1  0  0  0  0
101193  1  0  0  0  0
102 60  1  0  0  0  0
102194  1  0  0  0  0
103 61  1  0  0  0  0
103195  1  0  0  0  0
104 62  1  0  0  0  0
104196  1  0  0  0  0
105 63  1  0  0  0  0
105197  1  0  0  0  0
106 64  1  0  0  0  0
106198  1  0  0  0  0
107 69  2  0  0  0  0
108 71  1  0  0  0  0
108199  1  0  0  0  0
109 34  1  0  0  0  0
109 69  1  0  0  0  0
110 23  1  0  0  0  0
110 65  1  0  0  0  0
111 22  1  0  0  0  0
111 66  1  0  0  0  0
112 21  1  0  0  0  0
112 67  1  0  0  0  0
113 24  1  0  0  0  0
113 68  1  0  0  0  0
114 25  1  0  0  0  0
114 70  1  0  0  0  0
115 15  1  0  0  0  0
M  END
>  <DRUGBANK_ID>
DB11467

>  <COMMON_NAME>
Thiostrepton

>  <UNII>
HR4S203Y18

>  <SYNONYMS>
Thiostrepton

$$$$
