
 OpenBabel10282417072D

105112  0  0  1  0  0  0  0  0999 V2000
    1.5167    1.2650    0.0000 C   0  0  0  0  0  0  0  0  0  0  0  0
    1.6353    0.4486    0.0000 C   0  0  1  0  0  0  0  0  0  0  0  0
    0.8109    0.4160    0.0000 C   0  0  0  0  0  0  0  0  0  0  0  0
    0.3705    1.1136    0.0000 C   0  0  0  0  0  0  0  0  0  0  0  0
   -0.4539    1.0810    0.0000 O   0  0  0  0  0  0  0  0  0  0  0  0
    0.7545    1.8438    0.0000 O   0  0  0  0  0  0  0  0  0  0  0  0
    2.4348    0.6519    0.0000 C   0  0  0  0  0  0  0  0  0  0  0  0
    2.9554    1.5893    0.0000 C   0  0  0  0  0  0  0  0  0  0  0  0
    3.6697    2.0020    0.0000 C   0  0  0  0  0  0  0  0  0  0  0  0
    3.9753    2.7684    0.0000 C   0  0  0  0  0  0  0  0  0  0  0  0
    3.5348    3.4660    0.0000 C   0  0  0  0  0  0  0  0  0  0  0  0
    2.7105    3.4334    0.0000 C   0  0  0  0  0  0  0  0  0  0  0  0
    2.2701    4.1310    0.0000 C   0  0  0  0  0  0  0  0  0  0  0  0
    1.4457    4.0984    0.0000 O   0  0  0  0  0  0  0  0  0  0  0  0
    2.6540    4.8612    0.0000 O   0  0  0  0  0  0  0  0  0  0  0  0
    4.7985    2.7146    0.0000 C   0  0  2  0  0  0  0  0  0  0  0  0
    4.7659    3.5390    0.0000 C   0  0  0  0  0  0  0  0  0  0  0  0
    5.6149    2.8332    0.0000 C   0  0  0  0  0  0  0  0  0  0  0  0
    5.9205    3.5995    0.0000 C   0  0  0  0  0  0  0  0  0  0  0  0
    5.4095    4.2473    0.0000 O   0  0  0  0  0  0  0  0  0  0  0  0
    6.7369    3.7181    0.0000 O   0  0  0  0  0  0  0  0  0  0  0  0
    5.0018    1.9151    0.0000 C   0  0  0  0  0  0  0  0  0  0  0  0
    5.9392    1.3945    0.0000 C   0  0  0  0  0  0  0  0  0  0  0  0
    6.3519    0.6802    0.0000 C   0  0  0  0  0  0  0  0  0  0  0  0
    7.1183    0.3746    0.0000 C   0  0  0  0  0  0  0  0  0  0  0  0
    7.8159    0.8150    0.0000 C   0  0  0  0  0  0  0  0  0  0  0  0
    7.7833    1.6394    0.0000 C   0  0  0  0  0  0  0  0  0  0  0  0
    7.0531    2.0233    0.0000 O   0  0  0  0  0  0  0  0  0  0  0  0
    8.4809    2.0798    0.0000 O   0  0  0  0  0  0  0  0  0  0  0  0
    7.0645   -0.4486    0.0000 C   0  0  0  0  0  0  0  0  0  0  0  0
    7.6989   -0.9760    0.0000 C   0  0  0  0  0  0  0  0  0  0  0  0
    8.4729   -0.6903    0.0000 C   0  0  0  0  0  0  0  0  0  0  0  0
    9.1073   -1.2176    0.0000 C   0  0  0  0  0  0  0  0  0  0  0  0
    9.8812   -0.9319    0.0000 O   0  0  0  0  0  0  0  0  0  0  0  0
    8.9678   -2.0308    0.0000 O   0  0  0  0  0  0  0  0  0  0  0  0
    6.2649   -0.6519    0.0000 C   0  0  0  0  0  0  0  0  0  0  0  0
    5.7444   -1.5893    0.0000 C   0  0  0  0  0  0  0  0  0  0  0  0
    5.0300   -2.0020    0.0000 C   0  0  0  0  0  0  0  0  0  0  0  0
    4.3956   -1.4746    0.0000 N   0  0  0  0  0  0  0  0  0  0  0  0
    3.6980   -1.9151    0.0000 C   0  0  0  0  0  0  0  0  0  0  0  0
    2.7605   -1.3945    0.0000 C   0  0  0  0  0  0  0  0  0  0  0  0
    2.3479   -0.6802    0.0000 C   0  0  0  0  0  0  0  0  0  0  0  0
    2.8752   -0.0457    0.0000 N   0  0  0  0  0  0  0  0  0  0  0  0
    4.3499    0.0000    0.0000 Fe  0  0  1  0  0  0  0  0  0  0  0  0
    4.3042    1.4746    0.0000 N   0  0  0  0  0  0  0  0  0  0  0  0
    5.8245    0.0457    0.0000 N   0  0  0  0  0  0  0  0  0  0  0  0
    1.5815   -0.3746    0.0000 C   0  0  0  0  0  0  0  0  0  0  0  0
    0.8839   -0.8150    0.0000 C   0  0  0  0  0  0  0  0  0  0  0  0
    0.1537   -0.4311    0.0000 C   0  0  0  0  0  0  0  0  0  0  0  0
   -0.5439   -0.8715    0.0000 C   0  0  0  0  0  0  0  0  0  0  0  0
   -0.5113   -1.6958    0.0000 O   0  0  0  0  0  0  0  0  0  0  0  0
   -1.2741   -0.4875    0.0000 O   0  0  0  0  0  0  0  0  0  0  0  0
    3.9013   -2.7146    0.0000 C   0  0  0  0  0  0  0  0  0  0  0  0
    3.3739   -3.3490    0.0000 C   0  0  0  0  0  0  0  0  0  0  0  0
    3.6596   -4.1230    0.0000 C   0  0  0  0  0  0  0  0  0  0  0  0
    4.4727   -4.2625    0.0000 O   0  0  0  0  0  0  0  0  0  0  0  0
    3.1322   -4.7574    0.0000 O   0  0  0  0  0  0  0  0  0  0  0  0
    4.7245   -2.7684    0.0000 C   0  0  0  0  0  0  0  0  0  0  0  0
    5.1649   -3.4660    0.0000 C   0  0  0  0  0  0  0  0  0  0  0  0
    5.9893   -3.4334    0.0000 C   0  0  0  0  0  0  0  0  0  0  0  0
    6.3732   -2.7032    0.0000 C   0  0  0  0  0  0  0  0  0  0  0  0
    5.9328   -2.0056    0.0000 O   0  0  0  0  0  0  0  0  0  0  0  0
    7.1976   -2.6706    0.0000 O   0  0  0  0  0  0  0  0  0  0  0  0
    2.3568    1.9277    0.0000 H   0  0  0  0  0  0  0  0  0  0  0  0
    0.5228    1.6612    0.0000 H   0  0  0  0  0  0  0  0  0  0  0  0
    1.3629    2.3239    0.0000 H   0  0  0  0  0  0  0  0  0  0  0  0
    0.3129   -0.5311    0.0000 H   0  0  0  0  0  0  0  0  0  0  0  0
   -0.2583    0.3737    0.0000 H   0  0  0  0  0  0  0  0  0  0  0  0
   -0.9541    1.8733    0.0000 H   0  0  0  0  0  0  0  0  0  0  0  0
    2.2195    2.3128    0.0000 H   0  0  0  0  0  0  0  0  0  0  0  0
    4.0327    4.4131    0.0000 H   0  0  0  0  0  0  0  0  0  0  0  0
    2.9636    4.3708    0.0000 H   0  0  0  0  0  0  0  0  0  0  0  0
    2.2125    2.4863    0.0000 H   0  0  0  0  0  0  0  0  0  0  0  0
    1.6413    3.3911    0.0000 H   0  0  0  0  0  0  0  0  0  0  0  0
    0.9455    4.8907    0.0000 H   0  0  0  0  0  0  0  0  0  0  0  0
    5.6707    4.1102    0.0000 H   0  0  0  0  0  0  0  0  0  0  0  0
    3.8188    4.0370    0.0000 H   0  0  0  0  0  0  0  0  0  0  0  0
    4.7236    4.6082    0.0000 H   0  0  0  0  0  0  0  0  0  0  0  0
    6.2775    1.9930    0.0000 H   0  0  0  0  0  0  0  0  0  0  0  0
    6.6738    2.9869    0.0000 H   0  0  0  0  0  0  0  0  0  0  0  0
    5.7565    5.1177    0.0000 H   0  0  0  0  0  0  0  0  0  0  0  0
    6.6627    2.1304    0.0000 H   0  0  0  0  0  0  0  0  0  0  0  0
    8.7630    0.3170    0.0000 H   0  0  0  0  0  0  0  0  0  0  0  0
    8.7207    1.3862    0.0000 H   0  0  0  0  0  0  0  0  0  0  0  0
    7.0160    2.9596    0.0000 H   0  0  0  0  0  0  0  0  0  0  0  0
    7.5179   -2.0306    0.0000 H   0  0  0  0  0  0  0  0  0  0  0  0
    8.5217   -1.6600    0.0000 H   0  0  0  0  0  0  0  0  0  0  0  0
    8.6539    0.3643    0.0000 H   0  0  0  0  0  0  0  0  0  0  0  0
    9.4767   -0.3197    0.0000 H   0  0  0  0  0  0  0  0  0  0  0  0
   10.6017   -1.5309    0.0000 H   0  0  0  0  0  0  0  0  0  0  0  0
    6.4803   -2.3128    0.0000 H   0  0  0  0  0  0  0  0  0  0  0  0
    2.0370   -2.1304    0.0000 H   0  0  0  0  0  0  0  0  0  0  0  0
    0.9262   -1.8842    0.0000 H   0  0  0  0  0  0  0  0  0  0  0  0
   -0.0209   -1.3862    0.0000 H   0  0  0  0  0  0  0  0  0  0  0  0
    0.1114    0.6381    0.0000 H   0  0  0  0  0  0  0  0  0  0  0  0
   -0.7934    0.0669    0.0000 H   0  0  0  0  0  0  0  0  0  0  0  0
   -1.3036   -2.1960    0.0000 H   0  0  0  0  0  0  0  0  0  0  0  0
    2.3193   -3.1680    0.0000 H   0  0  0  0  0  0  0  0  0  0  0  0
    2.6899   -4.1718    0.0000 H   0  0  0  0  0  0  0  0  0  0  0  0
    4.7972   -5.1415    0.0000 H   0  0  0  0  0  0  0  0  0  0  0  0
    4.6669   -4.4131    0.0000 H   0  0  0  0  0  0  0  0  0  0  0  0
    5.7361   -4.3708    0.0000 H   0  0  0  0  0  0  0  0  0  0  0  0
    6.5605   -4.3382    0.0000 H   0  0  0  0  0  0  0  0  0  0  0  0
    7.0585   -3.3911    0.0000 H   0  0  0  0  0  0  0  0  0  0  0  0
    6.3689   -1.1763    0.0000 H   0  0  0  0  0  0  0  0  0  0  0  0
  1 64  1  0  0  0  0
  1 65  1  0  0  0  0
  1 66  1  0  0  0  0
  2  1  1  1  0  0  0
  2  3  1  0  0  0  0
  2  7  1  0  0  0  0
  2 47  1  0  0  0  0
  3  4  1  0  0  0  0
  3 67  1  0  0  0  0
  3 68  1  0  0  0  0
  4  5  1  0  0  0  0
  4  6  2  0  0  0  0
  5 69  1  0  0  0  0
  7  8  2  0  0  0  0
  8  9  1  0  0  0  0
  8 70  1  0  0  0  0
  9 10  2  0  0  0  0
  9 45  1  0  0  0  0
 10 11  1  0  0  0  0
 10 16  1  0  0  0  0
 11 12  1  0  0  0  0
 11 71  1  0  0  0  0
 11 72  1  0  0  0  0
 12 13  1  0  0  0  0
 12 73  1  0  0  0  0
 12 74  1  0  0  0  0
 13 14  1  0  0  0  0
 13 15  2  0  0  0  0
 14 75  1  0  0  0  0
 16 17  1  1  0  0  0
 16 18  1  0  0  0  0
 16 22  1  0  0  0  0
 17 76  1  0  0  0  0
 17 77  1  0  0  0  0
 17 78  1  0  0  0  0
 18 19  1  0  0  0  0
 18 79  1  0  0  0  0
 18 80  1  0  0  0  0
 19 20  1  0  0  0  0
 19 21  2  0  0  0  0
 20 81  1  0  0  0  0
 22 23  2  0  0  0  0
 23 24  1  0  0  0  0
 23 82  1  0  0  0  0
 24 25  2  0  0  0  0
 24 46  1  0  0  0  0
 25 26  1  0  0  0  0
 25 30  1  0  0  0  0
 26 27  1  0  0  0  0
 26 83  1  0  0  0  0
 26 84  1  0  0  0  0
 27 28  1  0  0  0  0
 27 29  2  0  0  0  0
 28 85  1  0  0  0  0
 30 31  1  0  0  0  0
 30 36  2  0  0  0  0
 31 32  1  0  0  0  0
 31 86  1  0  0  0  0
 31 87  1  0  0  0  0
 32 33  1  0  0  0  0
 32 88  1  0  0  0  0
 32 89  1  0  0  0  0
 33 34  1  0  0  0  0
 33 35  2  0  0  0  0
 34 90  1  0  0  0  0
 36 37  1  0  0  0  0
 36 46  1  0  0  0  0
 37 38  2  0  0  0  0
 37 91  1  0  0  0  0
 38 39  1  0  0  0  0
 38 58  1  0  0  0  0
 39 40  1  0  0  0  0
 40 41  2  0  0  0  0
 40 53  1  0  0  0  0
 41 42  1  0  0  0  0
 41 92  1  0  0  0  0
 42 43  1  0  0  0  0
 42 47  2  0  0  0  0
 43  7  1  0  0  0  0
 44 43  1  6  0  0  0
 44 39  1  0  0  0  0
 44 45  1  0  0  0  0
 44 46  1  0  0  0  0
 45 22  1  0  0  0  0
 47 48  1  0  0  0  0
 48 49  1  0  0  0  0
 48 93  1  0  0  0  0
 48 94  1  0  0  0  0
 49 50  1  0  0  0  0
 49 95  1  0  0  0  0
 49 96  1  0  0  0  0
 50 51  1  0  0  0  0
 50 52  2  0  0  0  0
 51 97  1  0  0  0  0
 53 54  1  0  0  0  0
 53 58  2  0  0  0  0
 54 55  1  0  0  0  0
 54 98  1  0  0  0  0
 54 99  1  0  0  0  0
 55 56  1  0  0  0  0
 55 57  2  0  0  0  0
 56100  1  0  0  0  0
 58 59  1  0  0  0  0
 59 60  1  0  0  0  0
 59101  1  0  0  0  0
 59102  1  0  0  0  0
 60 61  1  0  0  0  0
 60103  1  0  0  0  0
 60104  1  0  0  0  0
 61 62  1  0  0  0  0
 61 63  2  0  0  0  0
 62105  1  0  0  0  0
M  END
>  <DRUGBANK_ID>
DB02832

>  <SECONDARY_ACCESSION_NUMBERS>
EXPT02954

>  <COMMON_NAME>
Siroheme

>  <CAS_NUMBER>
52553-42-1

$$$$
