VZZ
 OpenBabel10282417072D

 39 38  0  0  0  0  0  0  0  0999 V2000
   -4.3064    0.3438    0.0000 O   0  0  0  0  0  0  0  0  0  0  0  0
   -3.5919   -0.0687    0.0000 C   0  0  0  0  0  0  0  0  0  0  0  0
   -3.5919   -0.8938    0.0000 O   0  0  0  0  0  0  0  0  0  0  0  0
   -2.8773    0.3438    0.0000 C   0  0  0  0  0  0  0  0  0  0  0  0
   -2.1628   -0.0687    0.0000 C   0  0  0  0  0  0  0  0  0  0  0  0
   -1.4483    0.3438    0.0000 C   0  0  0  0  0  0  0  0  0  0  0  0
   -0.7338   -0.0687    0.0000 C   0  0  0  0  0  0  0  0  0  0  0  0
   -0.0192    0.3438    0.0000 C   0  0  0  0  0  0  0  0  0  0  0  0
    0.6953   -0.0687    0.0000 C   0  0  0  0  0  0  0  0  0  0  0  0
    1.4098    0.3438    0.0000 C   0  0  0  0  0  0  0  0  0  0  0  0
    2.1244   -0.0687    0.0000 C   0  0  0  0  0  0  0  0  0  0  0  0
    2.8389    0.3438    0.0000 C   0  0  0  0  0  0  0  0  0  0  0  0
    3.5534   -0.0687    0.0000 C   0  0  0  0  0  0  0  0  0  0  0  0
    4.2679    0.3438    0.0000 O   0  0  0  0  0  0  0  0  0  0  0  0
    4.9825   -0.0687    0.0000 C   0  0  0  0  0  0  0  0  0  0  0  0
    5.6969    0.3438    0.0000 O   0  0  0  0  0  0  0  0  0  0  0  0
    4.9825   -0.8938    0.0000 S   0  0  0  0  0  0  0  0  0  0  0  0
   -4.4034   -1.3623    0.0000 H   0  0  0  0  0  0  0  0  0  0  0  0
   -2.8773    1.4138    0.0000 H   0  0  0  0  0  0  0  0  0  0  0  0
   -1.9506    0.8788    0.0000 H   0  0  0  0  0  0  0  0  0  0  0  0
   -2.1628   -1.1387    0.0000 H   0  0  0  0  0  0  0  0  0  0  0  0
   -1.2362   -0.6037    0.0000 H   0  0  0  0  0  0  0  0  0  0  0  0
   -1.4483    1.4138    0.0000 H   0  0  0  0  0  0  0  0  0  0  0  0
   -0.5217    0.8788    0.0000 H   0  0  0  0  0  0  0  0  0  0  0  0
   -0.7338   -1.1387    0.0000 H   0  0  0  0  0  0  0  0  0  0  0  0
    0.1928   -0.6038    0.0000 H   0  0  0  0  0  0  0  0  0  0  0  0
   -0.0192    1.4138    0.0000 H   0  0  0  0  0  0  0  0  0  0  0  0
    0.9075    0.8788    0.0000 H   0  0  0  0  0  0  0  0  0  0  0  0
    0.6953   -1.1387    0.0000 H   0  0  0  0  0  0  0  0  0  0  0  0
    1.6219   -0.6037    0.0000 H   0  0  0  0  0  0  0  0  0  0  0  0
    1.4098    1.4138    0.0000 H   0  0  0  0  0  0  0  0  0  0  0  0
    2.3364    0.8789    0.0000 H   0  0  0  0  0  0  0  0  0  0  0  0
    2.1244   -1.1387    0.0000 H   0  0  0  0  0  0  0  0  0  0  0  0
    3.0511   -0.6037    0.0000 H   0  0  0  0  0  0  0  0  0  0  0  0
    2.8389    1.4138    0.0000 H   0  0  0  0  0  0  0  0  0  0  0  0
    3.7655    0.8788    0.0000 H   0  0  0  0  0  0  0  0  0  0  0  0
    3.5534   -1.1387    0.0000 H   0  0  0  0  0  0  0  0  0  0  0  0
    4.4800   -0.6037    0.0000 H   0  0  0  0  0  0  0  0  0  0  0  0
    3.8047   -1.5738    0.0000 H   0  0  0  0  0  0  0  0  0  0  0  0
  1  2  2  0  0  0  0
  2  3  1  0  0  0  0
  2  4  1  0  0  0  0
  3 18  1  0  0  0  0
  4  5  1  0  0  0  0
  4 19  1  0  0  0  0
  4 20  1  0  0  0  0
  5  6  1  0  0  0  0
  5 21  1  0  0  0  0
  5 22  1  0  0  0  0
  6  7  1  0  0  0  0
  6 23  1  0  0  0  0
  6 24  1  0  0  0  0
  7  8  1  0  0  0  0
  7 25  1  0  0  0  0
  7 26  1  0  0  0  0
  8  9  1  0  0  0  0
  8 27  1  0  0  0  0
  8 28  1  0  0  0  0
  9 10  1  0  0  0  0
  9 29  1  0  0  0  0
  9 30  1  0  0  0  0
 10 11  1  0  0  0  0
 10 31  1  0  0  0  0
 10 32  1  0  0  0  0
 11 12  1  0  0  0  0
 11 33  1  0  0  0  0
 11 34  1  0  0  0  0
 12 13  1  0  0  0  0
 12 35  1  0  0  0  0
 12 36  1  0  0  0  0
 13 14  1  0  0  0  0
 13 37  1  0  0  0  0
 13 38  1  0  0  0  0
 14 15  1  0  0  0  0
 15 16  2  0  0  0  0
 15 17  1  0  0  0  0
 17 39  1  0  0  0  0
M  END
>  <DRUGBANK_ID>
DB08712

>  <COMMON_NAME>
11-[(MERCAPTOCARBONYL)OXY]UNDECANOIC ACID

$$$$
