
 OpenBabel10282417072D

 16 15  0  0  0  0  0  0  0  0999 V2000
   -0.1914    0.7145    0.0000 N   0  0  0  0  0  0  0  0  0  0  0  0
    0.5230    1.1270    0.0000 C   0  0  0  0  0  0  0  0  0  0  0  0
    1.2375    0.7145    0.0000 C   0  0  0  0  0  0  0  0  0  0  0  0
    1.9520    1.1270    0.0000 C   0  0  0  0  0  0  0  0  0  0  0  0
    2.6664    0.7145    0.0000 C   0  0  0  0  0  0  0  0  0  0  0  0
    3.3809    1.1270    0.0000 O   0  0  0  0  0  0  0  0  0  0  0  0
    2.6664   -0.1105    0.0000 O   0  0  0  0  0  0  0  0  0  0  0  0
   -1.0748    1.2245    0.0000 H   0  0  0  0  0  0  0  0  0  0  0  0
   -0.1914   -0.3055    0.0000 H   0  0  0  0  0  0  0  0  0  0  0  0
    0.5230    2.1970    0.0000 H   0  0  0  0  0  0  0  0  0  0  0  0
    1.4496    1.6620    0.0000 H   0  0  0  0  0  0  0  0  0  0  0  0
    1.2375   -0.3555    0.0000 H   0  0  0  0  0  0  0  0  0  0  0  0
    2.1641    0.1795    0.0000 H   0  0  0  0  0  0  0  0  0  0  0  0
    1.9520    2.1970    0.0000 H   0  0  0  0  0  0  0  0  0  0  0  0
    2.8787    1.6620    0.0000 H   0  0  0  0  0  0  0  0  0  0  0  0
    4.1924    0.6585    0.0000 H   0  0  0  0  0  0  0  0  0  0  0  0
  1  2  1  0  0  0  0
  1  8  1  0  0  0  0
  1  9  1  0  0  0  0
  2  3  1  0  0  0  0
  2 10  1  0  0  0  0
  2 11  1  0  0  0  0
  3  4  1  0  0  0  0
  3 12  1  0  0  0  0
  3 13  1  0  0  0  0
  4  5  1  0  0  0  0
  4 14  1  0  0  0  0
  4 15  1  0  0  0  0
  5  6  1  0  0  0  0
  5  7  2  0  0  0  0
  6 16  1  0  0  0  0
M  END
>  <DRUGBANK_ID>
DB02530

>  <SECONDARY_ACCESSION_NUMBERS>
EXPT00402; DB08850

>  <COMMON_NAME>
gamma-Aminobutyric acid

>  <CAS_NUMBER>
56-12-2

>  <UNII>
2ACZ6IPC6I

>  <SYNONYMS>
4-aminobutanoic acid; 4-aminobutyric acid; 4Abu; GABA; gamma-Aminobutyric acid; piperidic acid; piperidinic acid; γ-amino-n-butyric acid; γ-aminobutanoic acid; γ-Aminobuttersäure; γ-aminobutyric acid; ω-aminobutyric acid

$$$$
