
 OpenBabel10282417072D

 58 57  0  0  0  0  0  0  0  0999 V2000
   -0.3572    1.6499    0.0000 C   0  0  0  0  0  0  0  0  0  0  0  0
   -1.0717    2.0625    0.0000 C   0  0  0  0  0  0  0  0  0  0  0  0
   -1.7862    1.6499    0.0000 C   0  0  0  0  0  0  0  0  0  0  0  0
   -2.5007    2.0625    0.0000 C   0  0  0  0  0  0  0  0  0  0  0  0
   -3.2149    1.6499    0.0000 C   0  0  0  0  0  0  0  0  0  0  0  0
   -3.2149    0.8250    0.0000 C   0  0  0  0  0  0  0  0  0  0  0  0
   -3.9294    0.4125    0.0000 C   0  0  0  0  0  0  0  0  0  0  0  0
   -3.9294   -0.4125    0.0000 C   0  0  0  0  0  0  0  0  0  0  0  0
   -3.2149   -0.8249    0.0000 C   0  0  0  0  0  0  0  0  0  0  0  0
   -3.2149   -1.6499    0.0000 C   0  0  0  0  0  0  0  0  0  0  0  0
   -2.5007   -2.0625    0.0000 C   0  0  0  0  0  0  0  0  0  0  0  0
   -1.7862   -1.6499    0.0000 C   0  0  0  0  0  0  0  0  0  0  0  0
   -1.0717   -2.0625    0.0000 C   0  0  0  0  0  0  0  0  0  0  0  0
   -0.3572   -1.6499    0.0000 C   0  0  0  0  0  0  0  0  0  0  0  0
   -0.3572   -0.8249    0.0000 C   0  0  0  0  0  0  0  0  0  0  0  0
    0.3572   -0.4125    0.0000 C   0  0  0  0  0  0  0  0  0  0  0  0
    1.0716   -0.8249    0.0000 C   0  0  0  0  0  0  0  0  0  0  0  0
   -0.3572    0.8250    0.0000 C   0  0  0  0  0  0  0  0  0  0  0  0
    0.3572    0.4125    0.0000 C   0  0  0  0  0  0  0  0  0  0  0  0
    1.7861    0.4125    0.0000 O   0  0  0  0  0  0  0  0  0  0  0  0
    2.5006   -0.8249    0.0000 O   0  0  0  0  0  0  0  0  0  0  0  0
    1.7861   -0.4125    0.0000 C   0  0  0  0  0  0  0  0  0  0  0  0
    3.2150   -0.4125    0.0000 C   0  0  0  0  0  0  0  0  0  0  0  0
    3.9294   -0.8249    0.0000 C   0  0  0  0  0  0  0  0  0  0  0  0
    0.5366    2.1659    0.0000 H   0  0  0  0  0  0  0  0  0  0  0  0
   -1.0717    3.0945    0.0000 H   0  0  0  0  0  0  0  0  0  0  0  0
   -1.7862    0.5799    0.0000 H   0  0  0  0  0  0  0  0  0  0  0  0
   -2.7129    1.1149    0.0000 H   0  0  0  0  0  0  0  0  0  0  0  0
   -2.5008    3.0945    0.0000 H   0  0  0  0  0  0  0  0  0  0  0  0
   -4.1087    2.1658    0.0000 H   0  0  0  0  0  0  0  0  0  0  0  0
   -2.2883    0.2900    0.0000 H   0  0  0  0  0  0  0  0  0  0  0  0
   -3.2149   -0.2450    0.0000 H   0  0  0  0  0  0  0  0  0  0  0  0
   -4.8231    0.9285    0.0000 H   0  0  0  0  0  0  0  0  0  0  0  0
   -4.8231   -0.9286    0.0000 H   0  0  0  0  0  0  0  0  0  0  0  0
   -2.2883   -0.2898    0.0000 H   0  0  0  0  0  0  0  0  0  0  0  0
   -2.2882   -1.3599    0.0000 H   0  0  0  0  0  0  0  0  0  0  0  0
   -4.1087   -2.1658    0.0000 H   0  0  0  0  0  0  0  0  0  0  0  0
   -2.5008   -3.0945    0.0000 H   0  0  0  0  0  0  0  0  0  0  0  0
   -1.7862   -0.5799    0.0000 H   0  0  0  0  0  0  0  0  0  0  0  0
   -0.8595   -1.1149    0.0000 H   0  0  0  0  0  0  0  0  0  0  0  0
   -1.0717   -3.0945    0.0000 H   0  0  0  0  0  0  0  0  0  0  0  0
    0.5366   -2.1659    0.0000 H   0  0  0  0  0  0  0  0  0  0  0  0
   -1.2838   -0.2899    0.0000 H   0  0  0  0  0  0  0  0  0  0  0  0
   -0.3572    0.2451    0.0000 H   0  0  0  0  0  0  0  0  0  0  0  0
    0.3572    0.6575    0.0000 H   0  0  0  0  0  0  0  0  0  0  0  0
    1.2838    0.1225    0.0000 H   0  0  0  0  0  0  0  0  0  0  0  0
    1.0716   -1.8949    0.0000 H   0  0  0  0  0  0  0  0  0  0  0  0
    1.9982   -1.3600    0.0000 H   0  0  0  0  0  0  0  0  0  0  0  0
   -1.2839    0.2900    0.0000 H   0  0  0  0  0  0  0  0  0  0  0  0
   -0.3572   -0.2450    0.0000 H   0  0  0  0  0  0  0  0  0  0  0  0
    0.3572   -0.6575    0.0000 H   0  0  0  0  0  0  0  0  0  0  0  0
    1.2839    0.9475    0.0000 H   0  0  0  0  0  0  0  0  0  0  0  0
    1.2838   -0.1225    0.0000 H   0  0  0  0  0  0  0  0  0  0  0  0
    3.2150    0.6575    0.0000 H   0  0  0  0  0  0  0  0  0  0  0  0
    4.1416    0.1225    0.0000 H   0  0  0  0  0  0  0  0  0  0  0  0
    3.9295   -1.8949    0.0000 H   0  0  0  0  0  0  0  0  0  0  0  0
    4.8560   -0.2898    0.0000 H   0  0  0  0  0  0  0  0  0  0  0  0
    4.8561   -1.3598    0.0000 H   0  0  0  0  0  0  0  0  0  0  0  0
  1  2  2  0  0  0  0
  1 25  1  0  0  0  0
  2  3  1  0  0  0  0
  2 26  1  0  0  0  0
  3  4  1  0  0  0  0
  3 27  1  0  0  0  0
  3 28  1  0  0  0  0
  4  5  2  0  0  0  0
  4 29  1  0  0  0  0
  5  6  1  0  0  0  0
  5 30  1  0  0  0  0
  6  7  1  0  0  0  0
  6 31  1  0  0  0  0
  6 32  1  0  0  0  0
  7  8  2  0  0  0  0
  7 33  1  0  0  0  0
  8  9  1  0  0  0  0
  8 34  1  0  0  0  0
  9 10  1  0  0  0  0
  9 35  1  0  0  0  0
  9 36  1  0  0  0  0
 10 11  2  0  0  0  0
 10 37  1  0  0  0  0
 11 12  1  0  0  0  0
 11 38  1  0  0  0  0
 12 13  1  0  0  0  0
 12 39  1  0  0  0  0
 12 40  1  0  0  0  0
 13 14  2  0  0  0  0
 13 41  1  0  0  0  0
 14 15  1  0  0  0  0
 14 42  1  0  0  0  0
 15 16  1  0  0  0  0
 15 43  1  0  0  0  0
 15 44  1  0  0  0  0
 16 17  1  0  0  0  0
 16 45  1  0  0  0  0
 16 46  1  0  0  0  0
 17 22  1  0  0  0  0
 17 47  1  0  0  0  0
 17 48  1  0  0  0  0
 18  1  1  0  0  0  0
 18 19  1  0  0  0  0
 18 49  1  0  0  0  0
 18 50  1  0  0  0  0
 19 51  1  0  0  0  0
 19 52  1  0  0  0  0
 19 53  1  0  0  0  0
 21 23  1  0  0  0  0
 22 20  2  0  0  0  0
 22 21  1  0  0  0  0
 23 24  1  0  0  0  0
 23 54  1  0  0  0  0
 23 55  1  0  0  0  0
 24 56  1  0  0  0  0
 24 57  1  0  0  0  0
 24 58  1  0  0  0  0
M  END
>  <DRUGBANK_ID>
DB08887

>  <SECONDARY_ACCESSION_NUMBERS>
DB06291

>  <COMMON_NAME>
Icosapent ethyl

>  <CAS_NUMBER>
86227-47-6

>  <UNII>
6GC8A4PAYH

>  <SYNONYMS>
(all-Z)-5,8,11,14,17-Eicosapentaenoic acid ethyl ester; all-cis-ethyl 5,8,11,14,17-icosapentaenoate; cis-Eicosapentaenoic acid ethyl ester; E-EPA; Eicosapentaenoic acid ethyl ester; ethyl (5Z,8Z,11Z,14Z,17Z)-eicosa-5,8,11,14,17-pentaenoate; ethyl (5Z,8Z,11Z,14Z,17Z)-eicosapentaenoate; ethyl (5Z,8Z,11Z,14Z,17Z)-icosapentaenoate; Ethyl (all cis)-5,8,11,14,17-icosapentaenoate; Ethyl all-cis-5,8,11,14,17-icosapentaenoate; Ethyl eicosapentaenoate; Ethyl icosapentate ; ethyl-eicosapentaenoic acid; Ethyl-EPA; Icosapent ethyl; Timnodonic acid ethyl ester

$$$$
