
 OpenBabel10282417072D

175180  0  0  0  0  0  0  0  0999 V2000
    7.9684   -0.5856    0.0000 C   0  0  1  0  0  0  0  0  0  0  0  0
    7.1318   -0.5856    0.0000 N   0  0  0  0  0  0  0  0  0  0  0  0
    6.8809   -1.3803    0.0000 C   0  0  0  0  0  0  0  0  0  0  0  0
    7.5501   -1.8823    0.0000 C   0  0  0  0  0  0  0  0  0  0  0  0
    8.2194   -1.3803    0.0000 C   0  0  0  0  0  0  0  0  0  0  0  0
    8.4286    0.0836    0.0000 C   0  0  0  0  0  0  0  0  0  0  0  0
    9.2651    0.0836    0.0000 N   0  0  0  0  0  0  0  0  0  0  0  0
    8.0939    0.8365    0.0000 O   0  0  0  0  0  0  0  0  0  0  0  0
   -2.7816    2.8025    0.0000 C   0  0  0  0  0  0  0  0  0  0  0  0
   -3.1998    3.5136    0.0000 C   0  0  0  0  0  0  0  0  0  0  0  0
   -4.0364    3.5136    0.0000 C   0  0  0  0  0  0  0  0  0  0  0  0
   -4.4547    2.8025    0.0000 C   0  0  0  0  0  0  0  0  0  0  0  0
   -3.1998    2.0914    0.0000 C   0  0  0  0  0  0  0  0  0  0  0  0
   -4.0364    2.0914    0.0000 C   0  0  0  0  0  0  0  0  0  0  0  0
   -4.2874    1.2966    0.0000 C   0  0  0  0  0  0  0  0  0  0  0  0
   -3.6181    0.8365    0.0000 C   0  0  0  0  0  0  0  0  0  0  0  0
   -2.9489    1.2966    0.0000 N   0  0  0  0  0  0  0  0  0  0  0  0
    5.7097   -1.7150    0.0000 C   0  0  0  0  0  0  0  0  0  0  0  0
   -4.2874   -0.6274    0.0000 C   0  0  0  0  0  0  0  0  0  0  0  0
   -3.5763   -0.2091    0.0000 N   0  0  0  0  0  0  0  0  0  0  0  0
   -2.8652   -0.6274    0.0000 C   0  0  2  0  0  0  0  0  0  0  0  0
   -2.1541   -0.2091    0.0000 C   0  0  0  0  0  0  0  0  0  0  0  0
   -1.4430   -0.6274    0.0000 N   0  0  0  0  0  0  0  0  0  0  0  0
   -0.7319   -0.2091    0.0000 C   0  0  2  0  0  0  0  0  0  0  0  0
   -0.0208   -0.6274    0.0000 C   0  0  0  0  0  0  0  0  0  0  0  0
    0.6902   -0.2091    0.0000 N   0  0  0  0  0  0  0  0  0  0  0  0
    1.4013   -0.6274    0.0000 C   0  0  1  0  0  0  0  0  0  0  0  0
    2.1124   -0.2091    0.0000 C   0  0  0  0  0  0  0  0  0  0  0  0
    2.8653   -0.6274    0.0000 N   0  0  0  0  0  0  0  0  0  0  0  0
    3.5764   -0.2091    0.0000 C   0  0  2  0  0  0  0  0  0  0  0  0
    4.2875   -0.6274    0.0000 C   0  0  0  0  0  0  0  0  0  0  0  0
    4.9986   -0.2091    0.0000 N   0  0  0  0  0  0  0  0  0  0  0  0
    5.7097   -0.6274    0.0000 C   0  0  2  0  0  0  0  0  0  0  0  0
    6.4208   -0.2091    0.0000 C   0  0  0  0  0  0  0  0  0  0  0  0
   -2.1541    0.5855    0.0000 O   0  0  0  0  0  0  0  0  0  0  0  0
   -0.7319    0.7947    0.0000 C   0  0  0  0  0  0  0  0  0  0  0  0
   -0.0208    1.2130    0.0000 C   0  0  0  0  0  0  0  0  0  0  0  0
    0.6902    0.8365    0.0000 C   0  0  0  0  0  0  0  0  0  0  0  0
    1.4013    1.2130    0.0000 C   0  0  0  0  0  0  0  0  0  0  0  0
    1.4013    2.0495    0.0000 C   0  0  0  0  0  0  0  0  0  0  0  0
    0.6902    2.4678    0.0000 C   0  0  0  0  0  0  0  0  0  0  0  0
   -0.0208    2.0495    0.0000 C   0  0  0  0  0  0  0  0  0  0  0  0
    2.1124    2.4678    0.0000 O   0  0  0  0  0  0  0  0  0  0  0  0
   -0.0208   -1.4640    0.0000 O   0  0  0  0  0  0  0  0  0  0  0  0
    1.4013   -1.4640    0.0000 C   0  0  0  0  0  0  0  0  0  0  0  0
    2.1124    0.6274    0.0000 O   0  0  0  0  0  0  0  0  0  0  0  0
    3.6666    0.6465    0.0000 C   0  0  0  0  0  0  0  0  0  0  0  0
    4.3777    1.0648    0.0000 C   0  0  0  0  0  0  0  0  0  0  0  0
    4.3777    1.8595    0.0000 C   0  0  0  0  0  0  0  0  0  0  0  0
    5.0888    0.6465    0.0000 C   0  0  0  0  0  0  0  0  0  0  0  0
    6.4208    0.6274    0.0000 O   0  0  0  0  0  0  0  0  0  0  0  0
    4.2875   -1.4222    0.0000 O   0  0  0  0  0  0  0  0  0  0  0  0
   -4.9985   -0.2091    0.0000 C   0  0  1  0  0  0  0  0  0  0  0  0
   -5.7096   -0.6274    0.0000 N   0  0  0  0  0  0  0  0  0  0  0  0
   -6.4207   -0.2091    0.0000 C   0  0  0  0  0  0  0  0  0  0  0  0
   -7.1318   -0.6274    0.0000 C   0  0  1  0  0  0  0  0  0  0  0  0
   -7.8428   -0.2091    0.0000 N   0  0  0  0  0  0  0  0  0  0  0  0
   -8.5539   -0.6274    0.0000 C   0  0  0  0  0  0  0  0  0  0  0  0
   -4.2874   -1.4640    0.0000 O   0  0  0  0  0  0  0  0  0  0  0  0
   -4.9985    0.8365    0.0000 C   0  0  0  0  0  0  0  0  0  0  0  0
   -6.4207    0.5855    0.0000 O   0  0  0  0  0  0  0  0  0  0  0  0
   -7.1318   -1.4640    0.0000 C   0  0  0  0  0  0  0  0  0  0  0  0
   -6.4207   -1.8823    0.0000 C   0  0  0  0  0  0  0  0  0  0  0  0
   -6.4207   -2.7189    0.0000 N   0  0  0  0  0  0  0  0  0  0  0  0
   -5.6677   -2.9698    0.0000 C   0  0  0  0  0  0  0  0  0  0  0  0
   -5.1658   -2.3424    0.0000 N   0  0  0  0  0  0  0  0  0  0  0  0
   -5.6259   -1.6313    0.0000 C   0  0  0  0  0  0  0  0  0  0  0  0
   -8.5539   -1.4640    0.0000 O   0  0  0  0  0  0  0  0  0  0  0  0
   -2.8652   -1.4640    0.0000 C   0  0  0  0  0  0  0  0  0  0  0  0
   -2.1541   -1.8823    0.0000 O   0  0  0  0  0  0  0  0  0  0  0  0
    0.6902   -1.8405    0.0000 O   0  0  0  0  0  0  0  0  0  0  0  0
    0.6902   -2.6770    0.0000 C   0  0  0  0  0  0  0  0  0  0  0  0
    0.6902   -3.5136    0.0000 C   0  0  0  0  0  0  0  0  0  0  0  0
    9.7253    0.7528    0.0000 C   0  0  0  0  0  0  0  0  0  0  0  0
   10.5618    0.7528    0.0000 C   0  0  0  0  0  0  0  0  0  0  0  0
   -9.2651   -0.2091    0.0000 C   0  0  1  0  0  0  0  0  0  0  0  0
   -9.2651    0.5855    0.0000 N   0  0  0  0  0  0  0  0  0  0  0  0
  -10.0598    0.8365    0.0000 C   0  0  0  0  0  0  0  0  0  0  0  0
  -10.5618    0.1672    0.0000 C   0  0  0  0  0  0  0  0  0  0  0  0
  -10.0598   -0.5019    0.0000 C   0  0  0  0  0  0  0  0  0  0  0  0
  -10.3107    1.6313    0.0000 O   0  0  0  0  0  0  0  0  0  0  0  0
   -0.1045   -2.6770    0.0000 C   0  0  0  0  0  0  0  0  0  0  0  0
    1.5267   -2.6352    0.0000 C   0  0  0  0  0  0  0  0  0  0  0  0
    6.4208   -2.1333    0.0000 C   0  0  0  0  0  0  0  0  0  0  0  0
    6.4208   -2.9698    0.0000 C   0  0  0  0  0  0  0  0  0  0  0  0
    5.7097   -3.3463    0.0000 N   0  0  0  0  0  0  0  0  0  0  0  0
    4.9986   -2.8862    0.0000 C   0  0  0  0  0  0  0  0  0  0  0  0
    4.2875   -3.2627    0.0000 N   0  0  0  0  0  0  0  0  0  0  0  0
    4.9986   -2.0496    0.0000 N   0  0  0  0  0  0  0  0  0  0  0  0
    7.4703    0.3614    0.0000 H   0  0  0  0  0  0  0  0  0  0  0  0
    5.8621   -1.7074    0.0000 H   0  0  0  0  0  0  0  0  0  0  0  0
    6.7036   -2.4355    0.0000 H   0  0  0  0  0  0  0  0  0  0  0  0
    7.5501   -2.9523    0.0000 H   0  0  0  0  0  0  0  0  0  0  0  0
    8.5071   -2.3608    0.0000 H   0  0  0  0  0  0  0  0  0  0  0  0
    9.2382   -1.7074    0.0000 H   0  0  0  0  0  0  0  0  0  0  0  0
    8.9778   -0.6255    0.0000 H   0  0  0  0  0  0  0  0  0  0  0  0
    9.7234   -0.7877    0.0000 H   0  0  0  0  0  0  0  0  0  0  0  0
   -1.7496    2.8025    0.0000 H   0  0  0  0  0  0  0  0  0  0  0  0
   -2.6874    4.4094    0.0000 H   0  0  0  0  0  0  0  0  0  0  0  0
   -4.5488    4.4094    0.0000 H   0  0  0  0  0  0  0  0  0  0  0  0
   -5.4867    2.8025    0.0000 H   0  0  0  0  0  0  0  0  0  0  0  0
   -3.6181   -0.1955    0.0000 H   0  0  0  0  0  0  0  0  0  0  0  0
   -2.0180    0.9763    0.0000 H   0  0  0  0  0  0  0  0  0  0  0  0
    4.7809   -2.2462    0.0000 H   0  0  0  0  0  0  0  0  0  0  0  0
    5.7032   -2.7850    0.0000 H   0  0  0  0  0  0  0  0  0  0  0  0
   -3.5763    0.7754    0.0000 H   0  0  0  0  0  0  0  0  0  0  0  0
   -3.7940   -1.1586    0.0000 H   0  0  0  0  0  0  0  0  0  0  0  0
   -1.4430   -1.6119    0.0000 H   0  0  0  0  0  0  0  0  0  0  0  0
   -1.6607    0.3221    0.0000 H   0  0  0  0  0  0  0  0  0  0  0  0
    0.6902    0.7754    0.0000 H   0  0  0  0  0  0  0  0  0  0  0  0
    0.4725   -1.1586    0.0000 H   0  0  0  0  0  0  0  0  0  0  0  0
    2.8774   -1.6118    0.0000 H   0  0  0  0  0  0  0  0  0  0  0  0
    2.6768    0.3702    0.0000 H   0  0  0  0  0  0  0  0  0  0  0  0
    4.9986    0.7754    0.0000 H   0  0  0  0  0  0  0  0  0  0  0  0
    4.7809   -1.1586    0.0000 H   0  0  0  0  0  0  0  0  0  0  0  0
   -1.6607    1.3259    0.0000 H   0  0  0  0  0  0  0  0  0  0  0  0
   -0.7384    1.8647    0.0000 H   0  0  0  0  0  0  0  0  0  0  0  0
    0.6902   -0.1955    0.0000 H   0  0  0  0  0  0  0  0  0  0  0  0
    2.2854    0.6807    0.0000 H   0  0  0  0  0  0  0  0  0  0  0  0
    0.6902    3.4998    0.0000 H   0  0  0  0  0  0  0  0  0  0  0  0
   -0.9166    2.5618    0.0000 H   0  0  0  0  0  0  0  0  0  0  0  0
    2.9276    2.0059    0.0000 H   0  0  0  0  0  0  0  0  0  0  0  0
    2.3180   -2.0159    0.0000 H   0  0  0  0  0  0  0  0  0  0  0  0
    1.3719   -2.5336    0.0000 H   0  0  0  0  0  0  0  0  0  0  0  0
    2.7670    1.2258    0.0000 H   0  0  0  0  0  0  0  0  0  0  0  0
    3.6882    1.7163    0.0000 H   0  0  0  0  0  0  0  0  0  0  0  0
    5.3065    1.5960    0.0000 H   0  0  0  0  0  0  0  0  0  0  0  0
    5.3043    2.3945    0.0000 H   0  0  0  0  0  0  0  0  0  0  0  0
    3.4511    2.3945    0.0000 H   0  0  0  0  0  0  0  0  0  0  0  0
    4.3777    2.9295    0.0000 H   0  0  0  0  0  0  0  0  0  0  0  0
    5.0801   -0.4235    0.0000 H   0  0  0  0  0  0  0  0  0  0  0  0
    6.0198    1.1739    0.0000 H   0  0  0  0  0  0  0  0  0  0  0  0
    6.0111    0.1040    0.0000 H   0  0  0  0  0  0  0  0  0  0  0  0
   -4.0697    0.3221    0.0000 H   0  0  0  0  0  0  0  0  0  0  0  0
   -5.7096   -1.6119    0.0000 H   0  0  0  0  0  0  0  0  0  0  0  0
   -6.2030   -1.1586    0.0000 H   0  0  0  0  0  0  0  0  0  0  0  0
   -7.8428    0.7754    0.0000 H   0  0  0  0  0  0  0  0  0  0  0  0
   -5.9384    1.3478    0.0000 H   0  0  0  0  0  0  0  0  0  0  0  0
   -5.0392    1.9057    0.0000 H   0  0  0  0  0  0  0  0  0  0  0  0
   -8.0606   -1.9952    0.0000 H   0  0  0  0  0  0  0  0  0  0  0  0
   -7.1383   -2.5340    0.0000 H   0  0  0  0  0  0  0  0  0  0  0  0
   -7.2193   -3.2946    0.0000 H   0  0  0  0  0  0  0  0  0  0  0  0
   -5.3753   -3.9595    0.0000 H   0  0  0  0  0  0  0  0  0  0  0  0
   -5.2766   -0.6602    0.0000 H   0  0  0  0  0  0  0  0  0  0  0  0
   -3.7940   -1.9952    0.0000 H   0  0  0  0  0  0  0  0  0  0  0  0
   -2.8717   -2.5340    0.0000 H   0  0  0  0  0  0  0  0  0  0  0  0
   -2.1620   -2.8523    0.0000 H   0  0  0  0  0  0  0  0  0  0  0  0
   -0.2364   -4.0486    0.0000 H   0  0  0  0  0  0  0  0  0  0  0  0
    1.6168   -4.0486    0.0000 H   0  0  0  0  0  0  0  0  0  0  0  0
    0.6902   -4.5836    0.0000 H   0  0  0  0  0  0  0  0  0  0  0  0
    9.2272    1.6998    0.0000 H   0  0  0  0  0  0  0  0  0  0  0  0
   10.2785    1.6687    0.0000 H   0  0  0  0  0  0  0  0  0  0  0  0
   11.0968   -0.1738    0.0000 H   0  0  0  0  0  0  0  0  0  0  0  0
   11.0968    1.6794    0.0000 H   0  0  0  0  0  0  0  0  0  0  0  0
   11.6318    0.7528    0.0000 H   0  0  0  0  0  0  0  0  0  0  0  0
   -9.3606   -1.2748    0.0000 H   0  0  0  0  0  0  0  0  0  0  0  0
   -8.4710    1.1674    0.0000 H   0  0  0  0  0  0  0  0  0  0  0  0
  -11.6318    0.1671    0.0000 H   0  0  0  0  0  0  0  0  0  0  0  0
  -11.0402   -0.7899    0.0000 H   0  0  0  0  0  0  0  0  0  0  0  0
  -10.3628   -1.5281    0.0000 H   0  0  0  0  0  0  0  0  0  0  0  0
   -9.2787   -1.2331    0.0000 H   0  0  0  0  0  0  0  0  0  0  0  0
   -0.6395   -1.7504    0.0000 H   0  0  0  0  0  0  0  0  0  0  0  0
   -0.6395   -3.6036    0.0000 H   0  0  0  0  0  0  0  0  0  0  0  0
   -1.1745   -2.6770    0.0000 H   0  0  0  0  0  0  0  0  0  0  0  0
    2.1073   -3.5340    0.0000 H   0  0  0  0  0  0  0  0  0  0  0  0
    2.0148   -1.6830    0.0000 H   0  0  0  0  0  0  0  0  0  0  0  0
    2.5954   -2.5818    0.0000 H   0  0  0  0  0  0  0  0  0  0  0  0
    7.3496   -1.6021    0.0000 H   0  0  0  0  0  0  0  0  0  0  0  0
    7.3464   -2.6702    0.0000 H   0  0  0  0  0  0  0  0  0  0  0  0
    7.3375   -3.5217    0.0000 H   0  0  0  0  0  0  0  0  0  0  0  0
    6.3914   -4.0394    0.0000 H   0  0  0  0  0  0  0  0  0  0  0  0
    5.6667   -4.3299    0.0000 H   0  0  0  0  0  0  0  0  0  0  0  0
    3.4535   -2.7395    0.0000 H   0  0  0  0  0  0  0  0  0  0  0  0
    4.2514   -4.2465    0.0000 H   0  0  0  0  0  0  0  0  0  0  0  0
    5.8512   -1.5573    0.0000 H   0  0  0  0  0  0  0  0  0  0  0  0
  1  2  1  0  0  0  0
  1  6  1  0  0  0  0
  1 90  1  1  0  0  0
  2  3  1  0  0  0  0
  3  4  1  0  0  0  0
  3 91  1  0  0  0  0
  3 92  1  0  0  0  0
  4  5  1  0  0  0  0
  4 93  1  0  0  0  0
  4 94  1  0  0  0  0
  5  1  1  0  0  0  0
  5 95  1  0  0  0  0
  5 96  1  0  0  0  0
  6  8  2  0  0  0  0
  6  7  1  0  0  0  0
  7 74  1  0  0  0  0
  7 97  1  0  0  0  0
  9 10  2  0  0  0  0
  9 98  1  0  0  0  0
 10 11  1  0  0  0  0
 10 99  1  0  0  0  0
 11 12  2  0  0  0  0
 11100  1  0  0  0  0
 12 14  1  0  0  0  0
 12101  1  0  0  0  0
 13  9  1  0  0  0  0
 13 14  2  0  0  0  0
 14 15  1  0  0  0  0
 15 16  2  0  0  0  0
 16 17  1  0  0  0  0
 16102  1  0  0  0  0
 17 13  1  0  0  0  0
 17103  1  0  0  0  0
 18 84  1  0  0  0  0
 18104  1  0  0  0  0
 18105  1  0  0  0  0
 19 20  1  0  0  0  0
 19 53  1  0  0  0  0
 19 59  2  0  0  0  0
 20 21  1  0  0  0  0
 20106  1  0  0  0  0
 21 22  1  0  0  0  0
 21 69  1  0  0  0  0
 21107  1  1  0  0  0
 22 23  1  0  0  0  0
 22 35  2  0  0  0  0
 23 24  1  0  0  0  0
 23108  1  0  0  0  0
 24 25  1  0  0  0  0
 24 36  1  0  0  0  0
 24109  1  6  0  0  0
 25 44  2  0  0  0  0
 25 26  1  0  0  0  0
 26 27  1  0  0  0  0
 26110  1  0  0  0  0
 27 45  1  0  0  0  0
 27 28  1  0  0  0  0
 27111  1  6  0  0  0
 28 46  2  0  0  0  0
 28 29  1  0  0  0  0
 29 30  1  0  0  0  0
 29112  1  0  0  0  0
 30 47  1  0  0  0  0
 30 31  1  0  0  0  0
 30113  1  6  0  0  0
 31 52  2  0  0  0  0
 31 32  1  0  0  0  0
 32 33  1  0  0  0  0
 32114  1  0  0  0  0
 33 18  1  0  0  0  0
 33 34  1  0  0  0  0
 33115  1  1  0  0  0
 34 51  2  0  0  0  0
 34  2  1  0  0  0  0
 36 37  1  0  0  0  0
 36116  1  0  0  0  0
 36117  1  0  0  0  0
 37 38  2  0  0  0  0
 38 39  1  0  0  0  0
 38118  1  0  0  0  0
 39 40  2  0  0  0  0
 39119  1  0  0  0  0
 40 41  1  0  0  0  0
 40 43  1  0  0  0  0
 41 42  2  0  0  0  0
 41120  1  0  0  0  0
 42 37  1  0  0  0  0
 42121  1  0  0  0  0
 43122  1  0  0  0  0
 45 71  1  0  0  0  0
 45123  1  0  0  0  0
 45124  1  0  0  0  0
 47 48  1  0  0  0  0
 47125  1  0  0  0  0
 47126  1  0  0  0  0
 48 49  1  0  0  0  0
 48 50  1  0  0  0  0
 48127  1  0  0  0  0
 49128  1  0  0  0  0
 49129  1  0  0  0  0
 49130  1  0  0  0  0
 50131  1  0  0  0  0
 50132  1  0  0  0  0
 50133  1  0  0  0  0
 53 54  1  0  0  0  0
 53 60  1  0  0  0  0
 53134  1  6  0  0  0
 54 55  1  0  0  0  0
 54135  1  0  0  0  0
 55 56  1  0  0  0  0
 55 61  2  0  0  0  0
 56 57  1  0  0  0  0
 56 62  1  0  0  0  0
 56136  1  1  0  0  0
 57 58  1  0  0  0  0
 57137  1  0  0  0  0
 58 68  2  0  0  0  0
 60 15  1  0  0  0  0
 60138  1  0  0  0  0
 60139  1  0  0  0  0
 62 63  1  0  0  0  0
 62140  1  0  0  0  0
 62141  1  0  0  0  0
 63 64  1  0  0  0  0
 64 65  1  0  0  0  0
 64142  1  0  0  0  0
 65 66  2  0  0  0  0
 65143  1  0  0  0  0
 66 67  1  0  0  0  0
 67 63  2  0  0  0  0
 67144  1  0  0  0  0
 69 70  1  0  0  0  0
 69145  1  0  0  0  0
 69146  1  0  0  0  0
 70147  1  0  0  0  0
 71 72  1  0  0  0  0
 72 73  1  0  0  0  0
 72 82  1  0  0  0  0
 72 83  1  0  0  0  0
 73148  1  0  0  0  0
 73149  1  0  0  0  0
 73150  1  0  0  0  0
 74 75  1  0  0  0  0
 74151  1  0  0  0  0
 74152  1  0  0  0  0
 75153  1  0  0  0  0
 75154  1  0  0  0  0
 75155  1  0  0  0  0
 76 58  1  0  0  0  0
 76 77  1  0  0  0  0
 76 80  1  0  0  0  0
 76156  1  1  0  0  0
 77 78  1  0  0  0  0
 77157  1  0  0  0  0
 78 79  1  0  0  0  0
 78 81  2  0  0  0  0
 79 80  1  0  0  0  0
 79158  1  0  0  0  0
 79159  1  0  0  0  0
 80160  1  0  0  0  0
 80161  1  0  0  0  0
 82162  1  0  0  0  0
 82163  1  0  0  0  0
 82164  1  0  0  0  0
 83165  1  0  0  0  0
 83166  1  0  0  0  0
 83167  1  0  0  0  0
 84 85  1  0  0  0  0
 84168  1  0  0  0  0
 84169  1  0  0  0  0
 85 86  1  0  0  0  0
 85170  1  0  0  0  0
 85171  1  0  0  0  0
 86 87  1  0  0  0  0
 86172  1  0  0  0  0
 87 88  1  0  0  0  0
 87 89  2  0  0  0  0
 88173  1  0  0  0  0
 88174  1  0  0  0  0
 89175  1  0  0  0  0
M  END
>  <DRUGBANK_ID>
DB06719

>  <COMMON_NAME>
Buserelin

>  <CAS_NUMBER>
57982-77-1

>  <UNII>
PXW8U3YXDV

>  <SYNONYMS>
Buserelin; Buserelina; Busereline; Buserelinum; Etilamide; Tiloryth

$$$$
