Q22
 OpenBabel10282417072D

 48 52  0  0  0  0  0  0  0  0999 V2000
    0.0134    1.9624    0.0000 C   0  0  0  0  0  0  0  0  0  0  0  0
    0.7279    2.3749    0.0000 N   0  0  0  0  0  0  0  0  0  0  0  0
    1.4423    1.9624    0.0000 C   0  0  0  0  0  0  0  0  0  0  0  0
    2.1568    2.3749    0.0000 N   0  0  0  0  0  0  0  0  0  0  0  0
    2.8713    1.9624    0.0000 C   0  0  0  0  0  0  0  0  0  0  0  0
    3.5857    2.3749    0.0000 N   0  0  0  0  0  0  0  0  0  0  0  0
    2.8713    1.1374    0.0000 N   0  0  0  0  0  0  0  0  0  0  0  0
    2.1568    0.7249    0.0000 C   0  0  0  0  0  0  0  0  0  0  0  0
    2.1568   -0.1001    0.0000 N   0  0  0  0  0  0  0  0  0  0  0  0
    1.4423    1.1374    0.0000 C   0  0  0  0  0  0  0  0  0  0  0  0
    0.7279    0.7249    0.0000 N   0  0  0  0  0  0  0  0  0  0  0  0
    0.0134    1.1374    0.0000 C   0  0  0  0  0  0  0  0  0  0  0  0
   -0.7011    0.7249    0.0000 C   0  0  0  0  0  0  0  0  0  0  0  0
   -0.7011   -0.1001    0.0000 N   0  0  0  0  0  0  0  0  0  0  0  0
    0.0422   -0.4581    0.0000 C   0  0  1  0  0  0  0  0  0  0  0  0
    0.6470    0.1031    0.0000 C   0  0  0  0  0  0  0  0  0  0  0  0
    1.4353   -0.1401    0.0000 C   0  0  0  0  0  0  0  0  0  0  0  0
    1.6189   -0.9444    0.0000 C   0  0  0  0  0  0  0  0  0  0  0  0
    1.0141   -1.5056    0.0000 C   0  0  0  0  0  0  0  0  0  0  0  0
    0.2258   -1.2624    0.0000 C   0  0  0  0  0  0  0  0  0  0  0  0
   -0.2886   -1.9074    0.0000 C   0  0  0  0  0  0  0  0  0  0  0  0
   -1.1136   -1.9074    0.0000 C   0  0  0  0  0  0  0  0  0  0  0  0
   -1.6280   -1.2624    0.0000 C   0  0  0  0  0  0  0  0  0  0  0  0
   -2.4163   -1.5056    0.0000 C   0  0  0  0  0  0  0  0  0  0  0  0
   -1.4444   -0.4581    0.0000 C   0  0  0  0  0  0  0  0  0  0  0  0
   -2.0491    0.1031    0.0000 C   0  0  0  0  0  0  0  0  0  0  0  0
   -2.8375   -0.1401    0.0000 C   0  0  0  0  0  0  0  0  0  0  0  0
   -3.0211   -0.9444    0.0000 C   0  0  0  0  0  0  0  0  0  0  0  0
   -3.8094   -1.1876    0.0000 O   0  0  0  0  0  0  0  0  0  0  0  0
   -0.0448    0.1193    0.0000 H   0  0  0  0  0  0  0  0  0  0  0  0
   -0.8803    2.4784    0.0000 H   0  0  0  0  0  0  0  0  0  0  0  0
    4.4383    1.8827    0.0000 H   0  0  0  0  0  0  0  0  0  0  0  0
    3.5857    3.3594    0.0000 H   0  0  0  0  0  0  0  0  0  0  0  0
    1.3042   -0.5924    0.0000 H   0  0  0  0  0  0  0  0  0  0  0  0
    3.0094   -0.5923    0.0000 H   0  0  0  0  0  0  0  0  0  0  0  0
   -1.6277    1.2599    0.0000 H   0  0  0  0  0  0  0  0  0  0  0  0
   -1.6277    0.1899    0.0000 H   0  0  0  0  0  0  0  0  0  0  0  0
    0.4174    1.1092    0.0000 H   0  0  0  0  0  0  0  0  0  0  0  0
    2.1918    0.5618    0.0000 H   0  0  0  0  0  0  0  0  0  0  0  0
    2.6414   -1.2598    0.0000 H   0  0  0  0  0  0  0  0  0  0  0  0
    1.8570   -1.9876    0.0000 H   0  0  0  0  0  0  0  0  0  0  0  0
    1.2437   -2.5117    0.0000 H   0  0  0  0  0  0  0  0  0  0  0  0
    0.1592   -2.8372    0.0000 H   0  0  0  0  0  0  0  0  0  0  0  0
   -1.5614   -2.8372    0.0000 H   0  0  0  0  0  0  0  0  0  0  0  0
   -2.6459   -2.5117    0.0000 H   0  0  0  0  0  0  0  0  0  0  0  0
   -1.8194    1.1092    0.0000 H   0  0  0  0  0  0  0  0  0  0  0  0
   -3.5940    0.5618    0.0000 H   0  0  0  0  0  0  0  0  0  0  0  0
   -4.4963   -0.5503    0.0000 H   0  0  0  0  0  0  0  0  0  0  0  0
  1  2  2  0  0  0  0
  1 12  1  0  0  0  0
  1 31  1  0  0  0  0
  2  3  1  0  0  0  0
  3  4  2  0  0  0  0
  3 10  1  0  0  0  0
  4  5  1  0  0  0  0
  5  6  1  0  0  0  0
  5  7  2  0  0  0  0
  6 32  1  0  0  0  0
  6 33  1  0  0  0  0
  7  8  1  0  0  0  0
  8  9  1  0  0  0  0
  8 10  2  0  0  0  0
  9 34  1  0  0  0  0
  9 35  1  0  0  0  0
 10 11  1  0  0  0  0
 11 12  2  0  0  0  0
 12 13  1  0  0  0  0
 13 14  1  0  0  0  0
 13 36  1  0  0  0  0
 13 37  1  0  0  0  0
 14 15  1  0  0  0  0
 14 25  1  0  0  0  0
 15 16  1  0  0  0  0
 15 20  1  0  0  0  0
 15 30  1  6  0  0  0
 16 17  2  0  0  0  0
 16 38  1  0  0  0  0
 17 18  1  0  0  0  0
 17 39  1  0  0  0  0
 18 19  1  0  0  0  0
 18 40  1  0  0  0  0
 18 41  1  0  0  0  0
 19 20  2  0  0  0  0
 19 42  1  0  0  0  0
 20 21  1  0  0  0  0
 21 22  2  0  0  0  0
 21 43  1  0  0  0  0
 22 23  1  0  0  0  0
 22 44  1  0  0  0  0
 23 24  2  0  0  0  0
 23 25  1  0  0  0  0
 24 28  1  0  0  0  0
 24 45  1  0  0  0  0
 25 26  2  0  0  0  0
 26 27  1  0  0  0  0
 26 46  1  0  0  0  0
 27 28  2  0  0  0  0
 27 47  1  0  0  0  0
 28 29  1  0  0  0  0
 29 48  1  0  0  0  0
M  END
>  <DRUGBANK_ID>
DB08448

>  <COMMON_NAME>
(4aS)-5-[(2,4-diaminopteridin-6-yl)methyl]-4a,5-dihydro-2H-dibenzo[b,f]azepin-8-ol

$$$$
