PTB
 OpenBabel10282417072D

 33 34  0  0  0  0  0  0  0  0999 V2000
   -1.2088    1.2560    0.0000 N   0  0  0  0  0  0  0  0  0  0  0  0
   -1.4637    0.4714    0.0000 C   0  0  2  0  0  0  0  0  0  0  0  0
   -0.9788   -0.1961    0.0000 C   0  0  0  0  0  0  0  0  0  0  0  0
   -1.3144   -0.9497    0.0000 O   0  0  0  0  0  0  0  0  0  0  0  0
   -2.2887    0.4714    0.0000 C   0  0  0  0  0  0  0  0  0  0  0  0
   -2.5437    1.2560    0.0000 C   0  0  0  0  0  0  0  0  0  0  0  0
   -1.8762    1.7409    0.0000 C   0  0  0  0  0  0  0  0  0  0  0  0
   -0.1583   -0.1098    0.0000 C   0  0  0  0  0  0  0  0  0  0  0  0
    0.2542    0.6047    0.0000 N   0  0  0  0  0  0  0  0  0  0  0  0
    1.0611    0.4331    0.0000 N   0  0  0  0  0  0  0  0  0  0  0  0
    1.1474   -0.3874    0.0000 C   0  0  0  0  0  0  0  0  0  0  0  0
    0.3937   -0.7229    0.0000 O   0  0  0  0  0  0  0  0  0  0  0  0
    1.8618   -0.7999    0.0000 C   0  0  0  0  0  0  0  0  0  0  0  0
    2.5763   -1.2124    0.0000 C   0  0  0  0  0  0  0  0  0  0  0  0
    1.4493   -1.5143    0.0000 C   0  0  0  0  0  0  0  0  0  0  0  0
    2.2743   -0.0854    0.0000 C   0  0  0  0  0  0  0  0  0  0  0  0
   -0.8870    0.5627    0.0000 H   0  0  0  0  0  0  0  0  0  0  0  0
   -0.2387    1.5712    0.0000 H   0  0  0  0  0  0  0  0  0  0  0  0
   -2.9176   -0.3943    0.0000 H   0  0  0  0  0  0  0  0  0  0  0  0
   -3.3455    0.6387    0.0000 H   0  0  0  0  0  0  0  0  0  0  0  0
   -3.5613    1.5866    0.0000 H   0  0  0  0  0  0  0  0  0  0  0  0
   -2.7111    2.3128    0.0000 H   0  0  0  0  0  0  0  0  0  0  0  0
   -1.8762    2.8109    0.0000 H   0  0  0  0  0  0  0  0  0  0  0  0
   -2.8296    2.2267    0.0000 H   0  0  0  0  0  0  0  0  0  0  0  0
    2.5763   -2.2824    0.0000 H   0  0  0  0  0  0  0  0  0  0  0  0
    3.5029   -0.6774    0.0000 H   0  0  0  0  0  0  0  0  0  0  0  0
    3.5030   -1.7474    0.0000 H   0  0  0  0  0  0  0  0  0  0  0  0
    0.3793   -1.5143    0.0000 H   0  0  0  0  0  0  0  0  0  0  0  0
    1.9843   -2.4410    0.0000 H   0  0  0  0  0  0  0  0  0  0  0  0
    0.9143   -2.4409    0.0000 H   0  0  0  0  0  0  0  0  0  0  0  0
    3.3443   -0.0854    0.0000 H   0  0  0  0  0  0  0  0  0  0  0  0
    1.7393    0.8412    0.0000 H   0  0  0  0  0  0  0  0  0  0  0  0
    2.8093    0.8413    0.0000 H   0  0  0  0  0  0  0  0  0  0  0  0
  1  2  1  0  0  0  0
  1  7  1  0  0  0  0
  1 18  1  0  0  0  0
  2  3  1  0  0  0  0
  2  5  1  0  0  0  0
  2 17  1  1  0  0  0
  3  4  2  0  0  0  0
  3  8  1  0  0  0  0
  5  6  1  0  0  0  0
  5 19  1  0  0  0  0
  5 20  1  0  0  0  0
  6  7  1  0  0  0  0
  6 21  1  0  0  0  0
  6 22  1  0  0  0  0
  7 23  1  0  0  0  0
  7 24  1  0  0  0  0
  8  9  2  0  0  0  0
  8 12  1  0  0  0  0
  9 10  1  0  0  0  0
 10 11  2  0  0  0  0
 11 12  1  0  0  0  0
 11 13  1  0  0  0  0
 13 14  1  0  0  0  0
 13 15  1  0  0  0  0
 13 16  1  0  0  0  0
 14 25  1  0  0  0  0
 14 26  1  0  0  0  0
 14 27  1  0  0  0  0
 15 28  1  0  0  0  0
 15 29  1  0  0  0  0
 15 30  1  0  0  0  0
 16 31  1  0  0  0  0
 16 32  1  0  0  0  0
 16 33  1  0  0  0  0
M  END
>  <DRUGBANK_ID>
DB03833

>  <SECONDARY_ACCESSION_NUMBERS>
EXPT02680

>  <COMMON_NAME>
2-Prolyl-5-Tert-Butyl-[1,3,4]Oxadiazole

$$$$
