
 OpenBabel10282417072D

 36 37  0  0  0  0  0  0  0  0999 V2000
    2.1496   -2.0905    0.0000 S   0  0  0  0  0  0  0  0  0  0  0  0
    0.8147   -3.0604    0.0000 S   0  0  0  0  0  0  0  0  0  0  0  0
    1.4822   -2.5755    0.0000 P   0  0  3  0  0  0  0  0  0  0  0  0
   -0.0532   -0.5421    0.0000 O   0  0  0  0  0  0  0  0  0  0  0  0
   -1.6181   -1.9942    0.0000 O   0  0  0  0  0  0  0  0  0  0  0  0
    0.9972   -1.9079    0.0000 O   0  0  0  0  0  0  0  0  0  0  0  0
   -2.1496    0.7678    0.0000 O   0  0  0  0  0  0  0  0  0  0  0  0
   -0.7206    3.2428    0.0000 O   0  0  0  0  0  0  0  0  0  0  0  0
    1.9670   -3.2428    0.0000 O   0  0  0  0  0  0  0  0  0  0  0  0
   -0.7206    0.7678    0.0000 N   0  0  0  0  0  0  0  0  0  0  0  0
   -1.4352    2.0053    0.0000 N   0  0  0  0  0  0  0  0  0  0  0  0
   -1.1331   -1.3267    0.0000 C   0  0  2  0  0  0  0  0  0  0  0  0
   -0.3081   -1.3267    0.0000 C   0  0  1  0  0  0  0  0  0  0  0  0
   -1.3881   -0.5421    0.0000 C   0  0  0  0  0  0  0  0  0  0  0  0
   -0.7206   -0.0571    0.0000 C   0  0  1  0  0  0  0  0  0  0  0  0
    0.1767   -1.9942    0.0000 C   0  0  0  0  0  0  0  0  0  0  0  0
   -0.0061    1.1803    0.0000 C   0  0  0  0  0  0  0  0  0  0  0  0
   -1.4352    1.1803    0.0000 C   0  0  0  0  0  0  0  0  0  0  0  0
   -0.0061    2.0053    0.0000 C   0  0  0  0  0  0  0  0  0  0  0  0
   -0.7206    2.4179    0.0000 C   0  0  0  0  0  0  0  0  0  0  0  0
    0.7083    2.4179    0.0000 C   0  0  0  0  0  0  0  0  0  0  0  0
   -1.8781    2.2611    0.0000 H   0  0  0  0  0  0  0  0  0  0  0  0
    3.3921   -2.6435    0.0000 H   0  0  0  0  0  0  0  0  0  0  0  0
   -2.5828   -1.8928    0.0000 H   0  0  0  0  0  0  0  0  0  0  0  0
    1.5724   -4.1289    0.0000 H   0  0  0  0  0  0  0  0  0  0  0  0
   -0.6473   -2.2801    0.0000 H   0  0  0  0  0  0  0  0  0  0  0  0
    0.7487   -1.1594    0.0000 H   0  0  0  0  0  0  0  0  0  0  0  0
   -2.4057   -0.2115    0.0000 H   0  0  0  0  0  0  0  0  0  0  0  0
   -1.5555    0.5147    0.0000 H   0  0  0  0  0  0  0  0  0  0  0  0
    0.2328    0.4286    0.0000 H   0  0  0  0  0  0  0  0  0  0  0  0
   -0.2586   -2.9717    0.0000 H   0  0  0  0  0  0  0  0  0  0  0  0
   -0.8875   -2.1059    0.0000 H   0  0  0  0  0  0  0  0  0  0  0  0
    0.8876    0.6643    0.0000 H   0  0  0  0  0  0  0  0  0  0  0  0
    1.6350    1.8830    0.0000 H   0  0  0  0  0  0  0  0  0  0  0  0
    0.7081    3.4879    0.0000 H   0  0  0  0  0  0  0  0  0  0  0  0
    1.6349    2.9530    0.0000 H   0  0  0  0  0  0  0  0  0  0  0  0
  1  3  1  0  0  0  0
  1 23  1  0  0  0  0
  2  3  2  0  0  0  0
  3  6  1  0  0  0  0
  3  9  1  0  0  0  0
  4 13  1  0  0  0  0
  4 15  1  0  0  0  0
  5 24  1  0  0  0  0
  6 16  1  0  0  0  0
  7 18  2  0  0  0  0
  8 20  2  0  0  0  0
  9 25  1  0  0  0  0
 10 17  1  0  0  0  0
 10 18  1  0  0  0  0
 11 18  1  0  0  0  0
 11 20  1  0  0  0  0
 11 22  1  0  0  0  0
 12  5  1  0  0  0  0
 12 13  1  0  0  0  0
 12 14  1  0  0  0  0
 12 26  1  6  0  0  0
 13 16  1  0  0  0  0
 13 27  1  1  0  0  0
 14 15  1  0  0  0  0
 14 28  1  0  0  0  0
 14 29  1  0  0  0  0
 15 10  1  0  0  0  0
 15 30  1  1  0  0  0
 16 31  1  0  0  0  0
 16 32  1  0  0  0  0
 17 19  2  0  0  0  0
 17 33  1  0  0  0  0
 19 20  1  0  0  0  0
 19 21  1  0  0  0  0
 21 34  1  0  0  0  0
 21 35  1  0  0  0  0
 21 36  1  0  0  0  0
M  END
>  <DRUGBANK_ID>
DB02980

>  <SECONDARY_ACCESSION_NUMBERS>
EXPT03057

>  <COMMON_NAME>
Thymidine-5'-(dithio)phosphate

$$$$
