
 OpenBabel10282417072D

108112  0  0  0  0  0  0  0  0999 V2000
    3.9638    4.0755    0.0000 S   0  0  0  0  0  0  0  0  0  0  0  0
    1.1059   -5.8245    0.0000 S   0  0  0  0  0  0  0  0  0  0  0  0
    2.5793   -7.1512    0.0000 Na  0  3  0  0  0  0  0  0  0  0  0  0
    3.9638    4.9005    0.0000 O   0  5  0  0  0  0  0  0  0  0  0  0
    4.7888    4.0755    0.0000 O   0  0  0  0  0  0  0  0  0  0  0  0
    3.1388    4.0755    0.0000 O   0  0  0  0  0  0  0  0  0  0  0  0
    1.8204   -6.2370    0.0000 O   0  5  0  0  0  0  0  0  0  0  0  0
    0.6934   -6.5389    0.0000 O   0  0  0  0  0  0  0  0  0  0  0  0
    1.5184   -5.1100    0.0000 O   0  0  0  0  0  0  0  0  0  0  0  0
   -3.8953    5.3130    0.0000 O   0  0  0  0  0  0  0  0  0  0  0  0
    1.8204    2.0130    0.0000 N   0  0  0  0  0  0  0  0  0  0  0  0
   -1.0374   -2.9370    0.0000 N   0  3  0  0  0  0  0  0  0  0  0  0
   -3.8953    2.0130    0.0000 N   0  0  0  0  0  0  0  0  0  0  0  0
   -1.0374    0.3630    0.0000 C   0  0  0  0  0  0  0  0  0  0  0  0
   -0.3229    0.7755    0.0000 C   0  0  0  0  0  0  0  0  0  0  0  0
   -1.0374   -0.4620    0.0000 C   0  0  0  0  0  0  0  0  0  0  0  0
    1.1059    1.6005    0.0000 C   0  0  0  0  0  0  0  0  0  0  0  0
   -1.0374   -2.1120    0.0000 C   0  0  0  0  0  0  0  0  0  0  0  0
   -0.3229    1.6005    0.0000 C   0  0  0  0  0  0  0  0  0  0  0  0
   -1.7519   -0.8745    0.0000 C   0  0  0  0  0  0  0  0  0  0  0  0
    0.3915    2.0130    0.0000 C   0  0  0  0  0  0  0  0  0  0  0  0
   -1.7519    0.7755    0.0000 C   0  0  0  0  0  0  0  0  0  0  0  0
   -1.7519   -1.6995    0.0000 C   0  0  0  0  0  0  0  0  0  0  0  0
    2.5349    1.6005    0.0000 C   0  0  0  0  0  0  0  0  0  0  0  0
   -0.3229   -3.3495    0.0000 C   0  0  0  0  0  0  0  0  0  0  0  0
    0.3915    0.3630    0.0000 C   0  0  0  0  0  0  0  0  0  0  0  0
   -0.3229   -0.8745    0.0000 C   0  0  0  0  0  0  0  0  0  0  0  0
    1.1059    0.7755    0.0000 C   0  0  0  0  0  0  0  0  0  0  0  0
   -0.3229   -1.6995    0.0000 C   0  0  0  0  0  0  0  0  0  0  0  0
    1.8204    2.8380    0.0000 C   0  0  0  0  0  0  0  0  0  0  0  0
   -1.7519   -3.3495    0.0000 C   0  0  0  0  0  0  0  0  0  0  0  0
    3.2493    2.0130    0.0000 C   0  0  0  0  0  0  0  0  0  0  0  0
   -1.0374    2.0130    0.0000 C   0  0  0  0  0  0  0  0  0  0  0  0
   -2.4663   -0.4620    0.0000 C   0  0  0  0  0  0  0  0  0  0  0  0
   -0.3229   -4.1745    0.0000 C   0  0  0  0  0  0  0  0  0  0  0  0
   -2.4663    0.3630    0.0000 C   0  0  0  0  0  0  0  0  0  0  0  0
   -1.7519    1.6005    0.0000 C   0  0  0  0  0  0  0  0  0  0  0  0
    1.1059    3.2505    0.0000 C   0  0  0  0  0  0  0  0  0  0  0  0
   -2.4663   -2.9370    0.0000 C   0  0  0  0  0  0  0  0  0  0  0  0
    3.2493    2.8380    0.0000 C   0  0  0  0  0  0  0  0  0  0  0  0
   -3.1809    0.7755    0.0000 C   0  0  0  0  0  0  0  0  0  0  0  0
   -2.4663    2.0130    0.0000 C   0  0  0  0  0  0  0  0  0  0  0  0
    0.3915   -4.5870    0.0000 C   0  0  0  0  0  0  0  0  0  0  0  0
   -3.1809    1.6005    0.0000 C   0  0  0  0  0  0  0  0  0  0  0  0
    3.9638    1.6005    0.0000 C   0  0  0  0  0  0  0  0  0  0  0  0
   -1.0374   -4.5870    0.0000 C   0  0  0  0  0  0  0  0  0  0  0  0
    3.9638    3.2505    0.0000 C   0  0  0  0  0  0  0  0  0  0  0  0
    0.3915   -5.4120    0.0000 C   0  0  0  0  0  0  0  0  0  0  0  0
    4.6782    2.0130    0.0000 C   0  0  0  0  0  0  0  0  0  0  0  0
   -1.0374   -5.4120    0.0000 C   0  0  0  0  0  0  0  0  0  0  0  0
    4.6782    2.8380    0.0000 C   0  0  0  0  0  0  0  0  0  0  0  0
   -0.3229   -5.8245    0.0000 C   0  0  0  0  0  0  0  0  0  0  0  0
   -3.8953    2.8380    0.0000 C   0  0  0  0  0  0  0  0  0  0  0  0
   -4.6098    3.2505    0.0000 C   0  0  0  0  0  0  0  0  0  0  0  0
   -3.1809    3.2505    0.0000 C   0  0  0  0  0  0  0  0  0  0  0  0
   -4.6098    4.0755    0.0000 C   0  0  0  0  0  0  0  0  0  0  0  0
   -3.1809    4.0755    0.0000 C   0  0  0  0  0  0  0  0  0  0  0  0
   -3.8953    4.4880    0.0000 C   0  0  0  0  0  0  0  0  0  0  0  0
   -4.6098    5.7255    0.0000 C   0  0  0  0  0  0  0  0  0  0  0  0
   -4.6098    6.5505    0.0000 C   0  0  0  0  0  0  0  0  0  0  0  0
   -4.7479    1.5208    0.0000 H   0  0  0  0  0  0  0  0  0  0  0  0
    0.3915    3.0450    0.0000 H   0  0  0  0  0  0  0  0  0  0  0  0
   -2.6456   -2.2155    0.0000 H   0  0  0  0  0  0  0  0  0  0  0  0
    2.5349    0.5305    0.0000 H   0  0  0  0  0  0  0  0  0  0  0  0
    3.4616    1.0655    0.0000 H   0  0  0  0  0  0  0  0  0  0  0  0
    0.6037   -2.8145    0.0000 H   0  0  0  0  0  0  0  0  0  0  0  0
    0.6037   -3.8845    0.0000 H   0  0  0  0  0  0  0  0  0  0  0  0
    0.3915   -0.6690    0.0000 H   0  0  0  0  0  0  0  0  0  0  0  0
    0.5708   -0.3585    0.0000 H   0  0  0  0  0  0  0  0  0  0  0  0
    1.9996    0.2595    0.0000 H   0  0  0  0  0  0  0  0  0  0  0  0
    0.5708   -2.2155    0.0000 H   0  0  0  0  0  0  0  0  0  0  0  0
    2.7470    3.3730    0.0000 H   0  0  0  0  0  0  0  0  0  0  0  0
    1.8204    3.9080    0.0000 H   0  0  0  0  0  0  0  0  0  0  0  0
   -1.7519   -4.4195    0.0000 H   0  0  0  0  0  0  0  0  0  0  0  0
   -2.6786   -3.8845    0.0000 H   0  0  0  0  0  0  0  0  0  0  0  0
   -1.0374    3.0830    0.0000 H   0  0  0  0  0  0  0  0  0  0  0  0
   -1.9640    1.4780    0.0000 H   0  0  0  0  0  0  0  0  0  0  0  0
   -1.9641    2.5480    0.0000 H   0  0  0  0  0  0  0  0  0  0  0  0
   -2.4663    0.6080    0.0000 H   0  0  0  0  0  0  0  0  0  0  0  0
   -3.3930   -0.9970    0.0000 H   0  0  0  0  0  0  0  0  0  0  0  0
   -3.3929    0.0730    0.0000 H   0  0  0  0  0  0  0  0  0  0  0  0
   -2.4662   -0.6690    0.0000 H   0  0  0  0  0  0  0  0  0  0  0  0
   -0.8582    2.1165    0.0000 H   0  0  0  0  0  0  0  0  0  0  0  0
    1.1059    4.3205    0.0000 H   0  0  0  0  0  0  0  0  0  0  0  0
    0.1793    2.7155    0.0000 H   0  0  0  0  0  0  0  0  0  0  0  0
    0.1792    3.7855    0.0000 H   0  0  0  0  0  0  0  0  0  0  0  0
   -2.4663   -1.8670    0.0000 H   0  0  0  0  0  0  0  0  0  0  0  0
   -3.3930   -3.4720    0.0000 H   0  0  0  0  0  0  0  0  0  0  0  0
   -3.3929   -2.4020    0.0000 H   0  0  0  0  0  0  0  0  0  0  0  0
    2.3556    3.3540    0.0000 H   0  0  0  0  0  0  0  0  0  0  0  0
   -4.0746    0.2595    0.0000 H   0  0  0  0  0  0  0  0  0  0  0  0
   -2.4662    3.0450    0.0000 H   0  0  0  0  0  0  0  0  0  0  0  0
    1.2852   -4.0710    0.0000 H   0  0  0  0  0  0  0  0  0  0  0  0
    3.9638    0.5685    0.0000 H   0  0  0  0  0  0  0  0  0  0  0  0
   -1.9311   -4.0710    0.0000 H   0  0  0  0  0  0  0  0  0  0  0  0
    5.5719    1.4970    0.0000 H   0  0  0  0  0  0  0  0  0  0  0  0
   -1.9311   -5.9280    0.0000 H   0  0  0  0  0  0  0  0  0  0  0  0
    5.5719    3.3540    0.0000 H   0  0  0  0  0  0  0  0  0  0  0  0
   -0.3229   -6.8565    0.0000 H   0  0  0  0  0  0  0  0  0  0  0  0
   -5.5035    2.7345    0.0000 H   0  0  0  0  0  0  0  0  0  0  0  0
   -2.2872    2.7345    0.0000 H   0  0  0  0  0  0  0  0  0  0  0  0
   -5.5035    4.5915    0.0000 H   0  0  0  0  0  0  0  0  0  0  0  0
   -2.2872    4.5915    0.0000 H   0  0  0  0  0  0  0  0  0  0  0  0
   -5.5364    5.1905    0.0000 H   0  0  0  0  0  0  0  0  0  0  0  0
   -5.5364    6.2605    0.0000 H   0  0  0  0  0  0  0  0  0  0  0  0
   -3.6832    7.0855    0.0000 H   0  0  0  0  0  0  0  0  0  0  0  0
   -5.5364    7.0855    0.0000 H   0  0  0  0  0  0  0  0  0  0  0  0
   -4.6098    7.6205    0.0000 H   0  0  0  0  0  0  0  0  0  0  0  0
  1  4  1  0  0  0  0
  1  5  2  0  0  0  0
  1  6  2  0  0  0  0
  1 47  1  0  0  0  0
  2  7  1  0  0  0  0
  2  8  2  0  0  0  0
  2  9  2  0  0  0  0
  2 48  1  0  0  0  0
 10 58  1  0  0  0  0
 10 59  1  0  0  0  0
 11 17  1  0  0  0  0
 11 24  1  0  0  0  0
 11 30  1  0  0  0  0
 12 18  2  0  0  0  0
 12 25  1  0  0  0  0
 12 31  1  0  0  0  0
 13 44  1  0  0  0  0
 13 53  1  0  0  0  0
 13 61  1  0  0  0  0
 14 15  1  0  0  0  0
 14 16  2  0  0  0  0
 14 22  1  0  0  0  0
 15 19  2  0  0  0  0
 15 26  1  0  0  0  0
 16 20  1  0  0  0  0
 16 27  1  0  0  0  0
 17 21  2  0  0  0  0
 17 28  1  0  0  0  0
 18 23  1  0  0  0  0
 18 29  1  0  0  0  0
 19 21  1  0  0  0  0
 19 33  1  0  0  0  0
 20 23  2  0  0  0  0
 20 34  1  0  0  0  0
 21 62  1  0  0  0  0
 22 36  2  0  0  0  0
 22 37  1  0  0  0  0
 23 63  1  0  0  0  0
 24 32  1  0  0  0  0
 24 64  1  0  0  0  0
 24 65  1  0  0  0  0
 25 35  1  0  0  0  0
 25 66  1  0  0  0  0
 25 67  1  0  0  0  0
 26 28  2  0  0  0  0
 26 68  1  0  0  0  0
 27 29  2  0  0  0  0
 27 69  1  0  0  0  0
 28 70  1  0  0  0  0
 29 71  1  0  0  0  0
 30 38  1  0  0  0  0
 30 72  1  0  0  0  0
 30 73  1  0  0  0  0
 31 39  1  0  0  0  0
 31 74  1  0  0  0  0
 31 75  1  0  0  0  0
 32 40  2  0  0  0  0
 32 45  1  0  0  0  0
 33 76  1  0  0  0  0
 33 77  1  0  0  0  0
 33 78  1  0  0  0  0
 34 79  1  0  0  0  0
 34 80  1  0  0  0  0
 34 81  1  0  0  0  0
 35 43  2  0  0  0  0
 35 46  1  0  0  0  0
 36 41  1  0  0  0  0
 36 82  1  0  0  0  0
 37 42  2  0  0  0  0
 37 83  1  0  0  0  0
 38 84  1  0  0  0  0
 38 85  1  0  0  0  0
 38 86  1  0  0  0  0
 39 87  1  0  0  0  0
 39 88  1  0  0  0  0
 39 89  1  0  0  0  0
 40 47  1  0  0  0  0
 40 90  1  0  0  0  0
 41 44  2  0  0  0  0
 41 91  1  0  0  0  0
 42 44  1  0  0  0  0
 42 92  1  0  0  0  0
 43 48  1  0  0  0  0
 43 93  1  0  0  0  0
 45 49  2  0  0  0  0
 45 94  1  0  0  0  0
 46 50  2  0  0  0  0
 46 95  1  0  0  0  0
 47 51  2  0  0  0  0
 48 52  2  0  0  0  0
 49 51  1  0  0  0  0
 49 96  1  0  0  0  0
 50 52  1  0  0  0  0
 50 97  1  0  0  0  0
 51 98  1  0  0  0  0
 52 99  1  0  0  0  0
 53 54  2  0  0  0  0
 53 55  1  0  0  0  0
 54 56  1  0  0  0  0
 54100  1  0  0  0  0
 55 57  2  0  0  0  0
 55101  1  0  0  0  0
 56 58  2  0  0  0  0
 56102  1  0  0  0  0
 57 58  1  0  0  0  0
 57103  1  0  0  0  0
 59 60  1  0  0  0  0
 59104  1  0  0  0  0
 59105  1  0  0  0  0
 60106  1  0  0  0  0
 60107  1  0  0  0  0
 60108  1  0  0  0  0
M  CHG  4   3   1   4  -1   7  -1  12   1
M  END
>  <DRUGBANK_ID>
DB15594

>  <COMMON_NAME>
Brilliant blue G

>  <CAS_NUMBER>
6104-58-1

>  <UNII>
M1ZRX790SI

>  <SYNONYMS>
Acid Blue 90; Brilliant blue G; C.I. Acid Blue 90; Coomassie Brilliant Blue G

$$$$
