RE2
 OpenBabel10282417072D

 31 32  0  0  0  0  0  0  0  0999 V2000
   -1.7998    1.4238    0.0000 C   0  0  0  0  0  0  0  0  0  0  0  0
   -2.5143    1.0113    0.0000 C   0  0  0  0  0  0  0  0  0  0  0  0
   -2.5143    0.1863    0.0000 C   0  0  0  0  0  0  0  0  0  0  0  0
    0.3436    0.1863    0.0000 C   0  0  0  0  0  0  0  0  0  0  0  0
   -0.3709   -0.2262    0.0000 C   0  0  0  0  0  0  0  0  0  0  0  0
   -1.7998   -0.2262    0.0000 C   0  0  0  0  0  0  0  0  0  0  0  0
   -1.0853    0.1863    0.0000 C   0  0  0  0  0  0  0  0  0  0  0  0
   -1.0853    1.0113    0.0000 C   0  0  0  0  0  0  0  0  0  0  0  0
   -3.2288   -0.2262    0.0000 O   0  0  0  0  0  0  0  0  0  0  0  0
   -1.7998    2.2488    0.0000 O   0  0  0  0  0  0  0  0  0  0  0  0
    1.0581   -0.2262    0.0000 C   0  0  0  0  0  0  0  0  0  0  0  0
    1.7725    0.1863    0.0000 C   0  0  0  0  0  0  0  0  0  0  0  0
    2.4870   -0.2262    0.0000 C   0  0  0  0  0  0  0  0  0  0  0  0
    2.4870   -1.0512    0.0000 C   0  0  0  0  0  0  0  0  0  0  0  0
    3.2015   -1.4637    0.0000 O   0  0  0  0  0  0  0  0  0  0  0  0
    1.7725   -1.4637    0.0000 C   0  0  0  0  0  0  0  0  0  0  0  0
    1.0581   -1.0512    0.0000 C   0  0  0  0  0  0  0  0  0  0  0  0
   -3.4080    1.5273    0.0000 H   0  0  0  0  0  0  0  0  0  0  0  0
    0.3436    1.2563    0.0000 H   0  0  0  0  0  0  0  0  0  0  0  0
   -0.5830    0.7213    0.0000 H   0  0  0  0  0  0  0  0  0  0  0  0
   -0.3709   -1.2962    0.0000 H   0  0  0  0  0  0  0  0  0  0  0  0
   -1.2976   -0.7612    0.0000 H   0  0  0  0  0  0  0  0  0  0  0  0
   -1.7998   -1.2582    0.0000 H   0  0  0  0  0  0  0  0  0  0  0  0
   -0.1916    1.5273    0.0000 H   0  0  0  0  0  0  0  0  0  0  0  0
   -4.0403    0.2423    0.0000 H   0  0  0  0  0  0  0  0  0  0  0  0
   -0.9883    2.7173    0.0000 H   0  0  0  0  0  0  0  0  0  0  0  0
    1.7725    1.2183    0.0000 H   0  0  0  0  0  0  0  0  0  0  0  0
    3.3807    0.2898    0.0000 H   0  0  0  0  0  0  0  0  0  0  0  0
    3.2015   -2.4007    0.0000 H   0  0  0  0  0  0  0  0  0  0  0  0
    1.7725   -2.4957    0.0000 H   0  0  0  0  0  0  0  0  0  0  0  0
    0.1644   -1.5672    0.0000 H   0  0  0  0  0  0  0  0  0  0  0  0
  1  8  1  0  0  0  0
  2  1  2  0  0  0  0
  2  3  1  0  0  0  0
  2 18  1  0  0  0  0
  3  6  2  0  0  0  0
  4 11  1  0  0  0  0
  4 19  1  0  0  0  0
  4 20  1  0  0  0  0
  5  4  1  0  0  0  0
  5 21  1  0  0  0  0
  5 22  1  0  0  0  0
  6  7  1  0  0  0  0
  6 23  1  0  0  0  0
  7  5  1  0  0  0  0
  8  7  2  0  0  0  0
  8 24  1  0  0  0  0
  9  3  1  0  0  0  0
  9 25  1  0  0  0  0
 10  1  1  0  0  0  0
 10 26  1  0  0  0  0
 11 12  1  0  0  0  0
 12 13  2  0  0  0  0
 12 27  1  0  0  0  0
 13 28  1  0  0  0  0
 14 13  1  0  0  0  0
 14 15  1  0  0  0  0
 15 29  1  0  0  0  0
 16 14  2  0  0  0  0
 16 30  1  0  0  0  0
 17 11  2  0  0  0  0
 17 16  1  0  0  0  0
 17 31  1  0  0  0  0
M  END
>  <DRUGBANK_ID>
DB08466

>  <COMMON_NAME>
5-[2-(4-hydroxyphenyl)ethyl]benzene-1,3-diol

>  <UNII>
CBY43AY0TT

$$$$
