
 OpenBabel10282417072D

 44 44  0  0  0  0  0  0  0  0999 V2000
    0.3500   -0.8249    0.0000 O   0  0  0  0  0  0  0  0  0  0  0  0
   -0.3749   -1.2498    0.0000 C   0  0  0  0  0  0  0  0  0  0  0  0
   -0.3749   -2.0749    0.0000 C   0  0  0  0  0  0  0  0  0  0  0  0
   -1.1000   -2.4999    0.0000 C   0  0  0  0  0  0  0  0  0  0  0  0
   -1.0749   -0.8249    0.0000 C   0  0  0  0  0  0  0  0  0  0  0  0
   -1.8249   -1.2498    0.0000 C   0  0  0  0  0  0  0  0  0  0  0  0
   -0.3749    1.2500    0.0000 C   0  0  2  0  0  0  0  0  0  0  0  0
   -0.3749    0.4251    0.0000 C   0  0  2  0  0  0  0  0  0  0  0  0
    0.3749    0.0000    0.0000 C   0  0  1  0  0  0  0  0  0  0  0  0
    1.0749    0.4251    0.0000 C   0  0  0  0  0  0  0  0  0  0  0  0
    1.0749    1.2500    0.0000 C   0  0  0  0  0  0  0  0  0  0  0  0
    0.3749    1.6750    0.0000 C   0  0  0  0  0  0  0  0  0  0  0  0
    1.7999    1.6750    0.0000 C   0  0  0  0  0  0  0  0  0  0  0  0
    2.5250    1.2500    0.0000 O   0  0  0  0  0  0  0  0  0  0  0  0
    1.7999    2.4999    0.0000 O   0  0  0  0  0  0  0  0  0  0  0  0
   -1.0749    1.6750    0.0000 N   0  0  0  0  0  0  0  0  0  0  0  0
   -1.0749    0.0000    0.0000 N   0  0  0  0  0  0  0  0  0  0  0  0
   -1.8249    0.4251    0.0000 C   0  0  0  0  0  0  0  0  0  0  0  0
   -2.5250    0.0000    0.0000 C   0  0  0  0  0  0  0  0  0  0  0  0
   -1.8249    1.2500    0.0000 O   0  0  0  0  0  0  0  0  0  0  0  0
   -1.3074   -1.7746    0.0000 H   0  0  0  0  0  0  0  0  0  0  0  0
    0.5535   -2.6069    0.0000 H   0  0  0  0  0  0  0  0  0  0  0  0
   -0.3696   -3.1449    0.0000 H   0  0  0  0  0  0  0  0  0  0  0  0
   -2.0301   -1.9710    0.0000 H   0  0  0  0  0  0  0  0  0  0  0  0
   -1.0930   -3.5699    0.0000 H   0  0  0  0  0  0  0  0  0  0  0  0
   -2.0231   -3.0410    0.0000 H   0  0  0  0  0  0  0  0  0  0  0  0
   -1.0588    0.2450    0.0000 H   0  0  0  0  0  0  0  0  0  0  0  0
   -1.9953   -0.2792    0.0000 H   0  0  0  0  0  0  0  0  0  0  0  0
   -2.7472   -0.7073    0.0000 H   0  0  0  0  0  0  0  0  0  0  0  0
   -1.8336   -2.3198    0.0000 H   0  0  0  0  0  0  0  0  0  0  0  0
   -2.7559   -1.7772    0.0000 H   0  0  0  0  0  0  0  0  0  0  0  0
   -1.3074    0.7253    0.0000 H   0  0  0  0  0  0  0  0  0  0  0  0
   -1.3074    0.9498    0.0000 H   0  0  0  0  0  0  0  0  0  0  0  0
   -0.5577   -0.5246    0.0000 H   0  0  0  0  0  0  0  0  0  0  0  0
    1.9743   -0.0810    0.0000 H   0  0  0  0  0  0  0  0  0  0  0  0
    0.3909    2.7449    0.0000 H   0  0  0  0  0  0  0  0  0  0  0  0
    1.3113    2.1927    0.0000 H   0  0  0  0  0  0  0  0  0  0  0  0
    2.5189    0.3130    0.0000 H   0  0  0  0  0  0  0  0  0  0  0  0
   -1.0524    2.6948    0.0000 H   0  0  0  0  0  0  0  0  0  0  0  0
   -1.9693    1.1846    0.0000 H   0  0  0  0  0  0  0  0  0  0  0  0
   -1.0601   -0.9844    0.0000 H   0  0  0  0  0  0  0  0  0  0  0  0
   -3.4632    0.5144    0.0000 H   0  0  0  0  0  0  0  0  0  0  0  0
   -2.5014   -1.0697    0.0000 H   0  0  0  0  0  0  0  0  0  0  0  0
   -3.4396   -0.5553    0.0000 H   0  0  0  0  0  0  0  0  0  0  0  0
  2  1  1  0  0  0  0
  2 21  1  0  0  0  0
  3  2  1  0  0  0  0
  3 22  1  0  0  0  0
  3 23  1  0  0  0  0
  4  3  1  0  0  0  0
  4 24  1  0  0  0  0
  4 25  1  0  0  0  0
  4 26  1  0  0  0  0
  5  2  1  0  0  0  0
  5 27  1  0  0  0  0
  5 28  1  0  0  0  0
  6  5  1  0  0  0  0
  6 29  1  0  0  0  0
  6 30  1  0  0  0  0
  6 31  1  0  0  0  0
  7 16  1  0  0  0  0
  7 32  1  6  0  0  0
  8  7  1  0  0  0  0
  8 17  1  0  0  0  0
  8 33  1  1  0  0  0
  9  1  1  0  0  0  0
  9  8  1  0  0  0  0
  9 34  1  6  0  0  0
 10  9  1  0  0  0  0
 10 35  1  0  0  0  0
 11 10  2  0  0  0  0
 12  7  1  0  0  0  0
 12 11  1  0  0  0  0
 12 36  1  0  0  0  0
 12 37  1  0  0  0  0
 13 11  1  0  0  0  0
 14 13  1  0  0  0  0
 14 38  1  0  0  0  0
 15 13  2  0  0  0  0
 16 39  1  0  0  0  0
 16 40  1  0  0  0  0
 17 41  1  0  0  0  0
 18 17  1  0  0  0  0
 19 18  1  0  0  0  0
 19 42  1  0  0  0  0
 19 43  1  0  0  0  0
 19 44  1  0  0  0  0
 20 18  2  0  0  0  0
M  END
>  <DRUGBANK_ID>
DB02600

>  <SECONDARY_ACCESSION_NUMBERS>
EXPT01528

>  <COMMON_NAME>
Oseltamivir acid

>  <CAS_NUMBER>
187227-45-8

>  <UNII>
K6106LV5Q8

>  <SYNONYMS>
Oseltamivir carboxylate; Oseltamivir free acid

$$$$
