
 OpenBabel10282417072D

 51 52  0  0  0  0  0  0  0  0999 V2000
   -2.3988   -0.3390    0.0000 Br  0  0  0  0  0  0  0  0  0  0  0  0
    0.8930    1.1079    0.0000 O   0  0  0  0  0  0  0  0  0  0  0  0
   -0.1543    2.0798    0.0000 O   0  0  0  0  0  0  0  0  0  0  0  0
    2.3062   -1.6307    0.0000 N   0  0  0  0  0  0  0  0  0  0  0  0
    2.7186    0.1763    0.0000 N   0  0  0  0  0  0  0  0  0  0  0  0
    0.5751   -0.2850    0.0000 N   0  0  0  0  0  0  0  0  0  0  0  0
   -2.8851    1.2375    0.0000 N   0  0  0  0  0  0  0  0  0  0  0  0
    1.3793   -0.4685    0.0000 C   0  0  1  0  0  0  0  0  0  0  0  0
    1.5629   -1.2728    0.0000 C   0  0  0  0  0  0  0  0  0  0  0  0
    1.8937    0.1763    0.0000 C   0  0  0  0  0  0  0  0  0  0  0  0
    3.0494   -1.2728    0.0000 C   0  0  0  0  0  0  0  0  0  0  0  0
    3.2330   -0.4685    0.0000 C   0  0  0  0  0  0  0  0  0  0  0  0
    2.3062   -2.4557    0.0000 C   0  0  0  0  0  0  0  0  0  0  0  0
    3.0766    0.9196    0.0000 C   0  0  0  0  0  0  0  0  0  0  0  0
    3.0206   -2.8682    0.0000 C   0  0  0  0  0  0  0  0  0  0  0  0
    0.3319    0.5033    0.0000 C   0  0  0  0  0  0  0  0  0  0  0  0
   -0.4723    0.6868    0.0000 C   0  0  0  0  0  0  0  0  0  0  0  0
   -0.7155    1.4751    0.0000 C   0  0  0  0  0  0  0  0  0  0  0  0
   -1.0334    0.0821    0.0000 C   0  0  0  0  0  0  0  0  0  0  0  0
   -1.5197    1.6587    0.0000 C   0  0  0  0  0  0  0  0  0  0  0  0
   -1.8377    0.2657    0.0000 C   0  0  0  0  0  0  0  0  0  0  0  0
   -2.0809    1.0540    0.0000 C   0  0  0  0  0  0  0  0  0  0  0  0
   -0.3975    2.8682    0.0000 C   0  0  0  0  0  0  0  0  0  0  0  0
   -3.1282    2.0258    0.0000 C   0  0  0  0  0  0  0  0  0  0  0  0
    0.2272   -0.6599    0.0000 H   0  0  0  0  0  0  0  0  0  0  0  0
   -3.2330    0.8626    0.0000 H   0  0  0  0  0  0  0  0  0  0  0  0
    0.6227   -1.2251    0.0000 H   0  0  0  0  0  0  0  0  0  0  0  0
    0.7264   -1.9400    0.0000 H   0  0  0  0  0  0  0  0  0  0  0  0
    0.5529   -0.9194    0.0000 H   0  0  0  0  0  0  0  0  0  0  0  0
    1.4295    1.1404    0.0000 H   0  0  0  0  0  0  0  0  0  0  0  0
    0.8304    0.2962    0.0000 H   0  0  0  0  0  0  0  0  0  0  0  0
    3.8859   -1.9399    0.0000 H   0  0  0  0  0  0  0  0  0  0  0  0
    4.0594   -0.9194    0.0000 H   0  0  0  0  0  0  0  0  0  0  0  0
    4.2762   -0.2303    0.0000 H   0  0  0  0  0  0  0  0  0  0  0  0
    3.9896   -1.2251    0.0000 H   0  0  0  0  0  0  0  0  0  0  0  0
    1.3795   -2.9907    0.0000 H   0  0  0  0  0  0  0  0  0  0  0  0
    2.3062   -3.5257    0.0000 H   0  0  0  0  0  0  0  0  0  0  0  0
    4.1436    0.9995    0.0000 H   0  0  0  0  0  0  0  0  0  0  0  0
    2.4739    1.8037    0.0000 H   0  0  0  0  0  0  0  0  0  0  0  0
    3.5409    1.8836    0.0000 H   0  0  0  0  0  0  0  0  0  0  0  0
    3.0206   -3.9382    0.0000 H   0  0  0  0  0  0  0  0  0  0  0  0
    3.9473   -2.3332    0.0000 H   0  0  0  0  0  0  0  0  0  0  0  0
    3.9472   -3.4032    0.0000 H   0  0  0  0  0  0  0  0  0  0  0  0
   -0.7292   -0.9041    0.0000 H   0  0  0  0  0  0  0  0  0  0  0  0
   -1.8238    2.6449    0.0000 H   0  0  0  0  0  0  0  0  0  0  0  0
    0.3303    3.6526    0.0000 H   0  0  0  0  0  0  0  0  0  0  0  0
   -1.4407    3.1063    0.0000 H   0  0  0  0  0  0  0  0  0  0  0  0
   -0.7129    3.8907    0.0000 H   0  0  0  0  0  0  0  0  0  0  0  0
   -2.4004    2.8101    0.0000 H   0  0  0  0  0  0  0  0  0  0  0  0
   -4.1714    2.2640    0.0000 H   0  0  0  0  0  0  0  0  0  0  0  0
   -3.4435    3.0483    0.0000 H   0  0  0  0  0  0  0  0  0  0  0  0
  1 21  1  0  0  0  0
  2 16  2  0  0  0  0
  3 18  1  0  0  0  0
  3 23  1  0  0  0  0
  4  9  1  0  0  0  0
  4 11  1  0  0  0  0
  4 13  1  0  0  0  0
  5 10  1  0  0  0  0
  5 12  1  0  0  0  0
  5 14  1  0  0  0  0
  6 16  1  0  0  0  0
  6 25  1  0  0  0  0
  7 22  1  0  0  0  0
  7 24  1  0  0  0  0
  7 26  1  0  0  0  0
  8  6  1  0  0  0  0
  8  9  1  0  0  0  0
  8 10  1  0  0  0  0
  8 27  1  1  0  0  0
  9 28  1  0  0  0  0
  9 29  1  0  0  0  0
 10 30  1  0  0  0  0
 10 31  1  0  0  0  0
 11 12  1  0  0  0  0
 11 32  1  0  0  0  0
 11 33  1  0  0  0  0
 12 34  1  0  0  0  0
 12 35  1  0  0  0  0
 13 15  1  0  0  0  0
 13 36  1  0  0  0  0
 13 37  1  0  0  0  0
 14 38  1  0  0  0  0
 14 39  1  0  0  0  0
 14 40  1  0  0  0  0
 15 41  1  0  0  0  0
 15 42  1  0  0  0  0
 15 43  1  0  0  0  0
 16 17  1  0  0  0  0
 17 18  1  0  0  0  0
 17 19  2  0  0  0  0
 18 20  2  0  0  0  0
 19 21  1  0  0  0  0
 19 44  1  0  0  0  0
 20 22  1  0  0  0  0
 20 45  1  0  0  0  0
 21 22  2  0  0  0  0
 23 46  1  0  0  0  0
 23 47  1  0  0  0  0
 23 48  1  0  0  0  0
 24 49  1  0  0  0  0
 24 50  1  0  0  0  0
 24 51  1  0  0  0  0
M  END
>  <DRUGBANK_ID>
DB09207

>  <COMMON_NAME>
AS-8112

$$$$
