
 OpenBabel10282417072D

 61 64  0  0  0  0  0  0  0  0999 V2000
   -1.0900   -1.3902    0.0000 Cl  0  0  0  0  0  0  0  0  0  0  0  0
   -1.0900   -3.0411    0.0000 F   0  0  0  0  0  0  0  0  0  0  0  0
   -1.8009    0.6714    0.0000 O   0  0  0  0  0  0  0  0  0  0  0  0
    0.3476    2.1959    0.0000 O   0  0  0  0  0  0  0  0  0  0  0  0
   -3.9495   -2.2117    0.0000 O   0  0  0  0  0  0  0  0  0  0  0  0
    2.5040    1.7693    0.0000 O   0  0  0  0  0  0  0  0  0  0  0  0
    3.1911    3.0411    0.0000 O   0  0  0  0  0  0  0  0  0  0  0  0
   -0.3712   -0.9794    0.0000 C   0  0  2  0  0  0  0  0  0  0  0  0
   -1.0900   -0.5608    0.0000 C   0  0  2  0  0  0  0  0  0  0  0  0
    0.3396   -0.5608    0.0000 C   0  0  1  0  0  0  0  0  0  0  0  0
    0.3396    0.2606    0.0000 C   0  0  1  0  0  0  0  0  0  0  0  0
   -1.8009   -0.9794    0.0000 C   0  0  2  0  0  0  0  0  0  0  0  0
   -1.0900    0.2606    0.0000 C   0  0  2  0  0  0  0  0  0  0  0  0
    1.0584    0.6714    0.0000 C   0  0  2  0  0  0  0  0  0  0  0  0
   -0.3712    0.6714    0.0000 C   0  0  0  0  0  0  0  0  0  0  0  0
   -0.3712   -1.8009    0.0000 C   0  0  0  0  0  0  0  0  0  0  0  0
   -1.8009   -1.8009    0.0000 C   0  0  0  0  0  0  0  0  0  0  0  0
    1.7693   -0.5608    0.0000 C   0  0  0  0  0  0  0  0  0  0  0  0
    1.7693    0.2606    0.0000 C   0  0  1  0  0  0  0  0  0  0  0  0
   -1.0900   -2.2117    0.0000 C   0  0  1  0  0  0  0  0  0  0  0  0
   -2.5197   -0.5608    0.0000 C   0  0  0  0  0  0  0  0  0  0  0  0
    0.3001    1.0900    0.0000 C   0  0  0  0  0  0  0  0  0  0  0  0
    1.0584    1.7851    0.0000 C   0  0  0  0  0  0  0  0  0  0  0  0
   -1.8009   -0.1500    0.0000 C   0  0  0  0  0  0  0  0  0  0  0  0
   -2.5197   -2.2117    0.0000 C   0  0  0  0  0  0  0  0  0  0  0  0
   -3.2306   -0.9794    0.0000 C   0  0  0  0  0  0  0  0  0  0  0  0
   -3.2306   -1.8009    0.0000 C   0  0  0  0  0  0  0  0  0  0  0  0
    2.4882    0.6793    0.0000 C   0  0  0  0  0  0  0  0  0  0  0  0
    1.7772    2.1880    0.0000 C   0  0  0  0  0  0  0  0  0  0  0  0
    3.2306    2.1880    0.0000 C   0  0  0  0  0  0  0  0  0  0  0  0
    3.9495    1.7693    0.0000 C   0  0  0  0  0  0  0  0  0  0  0  0
   -0.3712   -0.1500    0.0000 H   0  0  0  0  0  0  0  0  0  0  0  0
    0.3396   -1.3902    0.0000 H   0  0  0  0  0  0  0  0  0  0  0  0
   -1.8005    1.6414    0.0000 H   0  0  0  0  0  0  0  0  0  0  0  0
   -2.0167   -0.2742    0.0000 H   0  0  0  0  0  0  0  0  0  0  0  0
    0.1329    1.2084    0.0000 H   0  0  0  0  0  0  0  0  0  0  0  0
   -0.3686    1.7414    0.0000 H   0  0  0  0  0  0  0  0  0  0  0  0
   -1.2960    1.2096    0.0000 H   0  0  0  0  0  0  0  0  0  0  0  0
    0.5543   -2.3379    0.0000 H   0  0  0  0  0  0  0  0  0  0  0  0
   -0.3747   -2.8709    0.0000 H   0  0  0  0  0  0  0  0  0  0  0  0
    2.5259   -1.3174    0.0000 H   0  0  0  0  0  0  0  0  0  0  0  0
    2.7579   -0.1513    0.0000 H   0  0  0  0  0  0  0  0  0  0  0  0
    1.7675    1.3306    0.0000 H   0  0  0  0  0  0  0  0  0  0  0  0
   -0.1645   -2.7487    0.0000 H   0  0  0  0  0  0  0  0  0  0  0  0
   -2.5222    0.4712    0.0000 H   0  0  0  0  0  0  0  0  0  0  0  0
    1.2002    1.6685    0.0000 H   0  0  0  0  0  0  0  0  0  0  0  0
   -0.6509    1.5803    0.0000 H   0  0  0  0  0  0  0  0  0  0  0  0
    0.2492    2.1588    0.0000 H   0  0  0  0  0  0  0  0  0  0  0  0
   -0.8743    0.3850    0.0000 H   0  0  0  0  0  0  0  0  0  0  0  0
   -2.7275    0.3850    0.0000 H   0  0  0  0  0  0  0  0  0  0  0  0
   -1.8009    0.9200    0.0000 H   0  0  0  0  0  0  0  0  0  0  0  0
   -2.5222   -3.2437    0.0000 H   0  0  0  0  0  0  0  0  0  0  0  0
   -4.1265   -0.4672    0.0000 H   0  0  0  0  0  0  0  0  0  0  0  0
    3.4169    0.1478    0.0000 H   0  0  0  0  0  0  0  0  0  0  0  0
    2.4841    1.7493    0.0000 H   0  0  0  0  0  0  0  0  0  0  0  0
    3.4128    1.2178    0.0000 H   0  0  0  0  0  0  0  0  0  0  0  0
    1.7835    3.2580    0.0000 H   0  0  0  0  0  0  0  0  0  0  0  0
    0.8556    2.7316    0.0000 H   0  0  0  0  0  0  0  0  0  0  0  0
    3.9454    0.6993    0.0000 H   0  0  0  0  0  0  0  0  0  0  0  0
    4.8782    2.3008    0.0000 H   0  0  0  0  0  0  0  0  0  0  0  0
    4.8741    1.2308    0.0000 H   0  0  0  0  0  0  0  0  0  0  0  0
  3 34  1  0  0  0  0
  4 23  2  0  0  0  0
  5 27  2  0  0  0  0
  6 29  1  0  0  0  0
  6 30  1  0  0  0  0
  7 30  2  0  0  0  0
  8  9  1  0  0  0  0
  8 10  1  0  0  0  0
  8 16  1  0  0  0  0
  8 32  1  1  0  0  0
  9  1  1  6  0  0  0
  9 12  1  0  0  0  0
  9 13  1  0  0  0  0
 10 11  1  0  0  0  0
 10 18  1  0  0  0  0
 10 33  1  6  0  0  0
 11 14  1  0  0  0  0
 11 15  1  0  0  0  0
 11 22  1  1  0  0  0
 12 17  1  0  0  0  0
 12 21  1  0  0  0  0
 12 24  1  1  0  0  0
 13  3  1  0  0  0  0
 13 15  1  0  0  0  0
 13 35  1  6  0  0  0
 14 19  1  0  0  0  0
 14 23  1  0  0  0  0
 14 36  1  6  0  0  0
 15 37  1  0  0  0  0
 15 38  1  0  0  0  0
 16 20  1  0  0  0  0
 16 39  1  0  0  0  0
 16 40  1  0  0  0  0
 17 20  1  0  0  0  0
 17 25  2  0  0  0  0
 18 19  1  0  0  0  0
 18 41  1  0  0  0  0
 18 42  1  0  0  0  0
 19 28  1  0  0  0  0
 19 43  1  1  0  0  0
 20  2  1  0  0  0  0
 20 44  1  1  0  0  0
 21 26  2  0  0  0  0
 21 45  1  0  0  0  0
 22 46  1  0  0  0  0
 22 47  1  0  0  0  0
 22 48  1  0  0  0  0
 23 29  1  0  0  0  0
 24 49  1  0  0  0  0
 24 50  1  0  0  0  0
 24 51  1  0  0  0  0
 25 27  1  0  0  0  0
 25 52  1  0  0  0  0
 26 27  1  0  0  0  0
 26 53  1  0  0  0  0
 28 54  1  0  0  0  0
 28 55  1  0  0  0  0
 28 56  1  0  0  0  0
 29 57  1  0  0  0  0
 29 58  1  0  0  0  0
 30 31  1  0  0  0  0
 31 59  1  0  0  0  0
 31 60  1  0  0  0  0
 31 61  1  0  0  0  0
M  END
>  <DRUGBANK_ID>
DB14652

>  <SECONDARY_ACCESSION_NUMBERS>
DBSALT000939

>  <COMMON_NAME>
Clocortolone acetate

>  <CAS_NUMBER>
4258-85-9

>  <UNII>
85061HTR8T

>  <SYNONYMS>
Clocortolone acetate

$$$$
