
 OpenBabel10282417072D

 67 68  0  0  0  0  0  0  0  0999 V2000
   -3.7540    1.6276    0.0000 C   0  0  1  0  0  0  0  0  0  0  0  0
   -4.2389    0.9601    0.0000 C   0  0  0  0  0  0  0  0  0  0  0  0
   -3.7540    0.2927    0.0000 C   0  0  2  0  0  0  0  0  0  0  0  0
   -2.9694    0.5477    0.0000 C   0  0  1  0  0  0  0  0  0  0  0  0
   -2.9694    1.3726    0.0000 C   0  0  1  0  0  0  0  0  0  0  0  0
   -4.0089    2.4122    0.0000 O   0  0  0  0  0  0  0  0  0  0  0  0
   -4.0089   -0.4918    0.0000 O   0  0  0  0  0  0  0  0  0  0  0  0
   -2.3019    1.8575    0.0000 C   0  0  0  0  0  0  0  0  0  0  0  0
   -2.3019    0.0627    0.0000 C   0  0  0  0  0  0  0  0  0  0  0  0
   -1.5874    1.4450    0.0000 C   0  0  0  0  0  0  0  0  0  0  0  0
   -0.7624    1.4450    0.0000 C   0  0  0  0  0  0  0  0  0  0  0  0
   -0.0480    1.8575    0.0000 C   0  0  0  0  0  0  0  0  0  0  0  0
    0.6664    1.4450    0.0000 C   0  0  0  0  0  0  0  0  0  0  0  0
    1.3809    1.8575    0.0000 C   0  0  0  0  0  0  0  0  0  0  0  0
    2.0953    1.4450    0.0000 C   0  0  0  0  0  0  0  0  0  0  0  0
    2.8099    1.8575    0.0000 N   0  0  0  0  0  0  0  0  0  0  0  0
    3.5244    1.4450    0.0000 C   0  0  0  0  0  0  0  0  0  0  0  0
    4.2389    1.8575    0.0000 C   0  0  0  0  0  0  0  0  0  0  0  0
   -1.5874    0.4752    0.0000 C   0  0  0  0  0  0  0  0  0  0  0  0
   -0.8730    0.0627    0.0000 C   0  0  2  0  0  0  0  0  0  0  0  0
   -0.1585    0.4752    0.0000 C   0  0  0  0  0  0  0  0  0  0  0  0
    0.5559    0.0627    0.0000 C   0  0  0  0  0  0  0  0  0  0  0  0
    0.5559   -0.7622    0.0000 C   0  0  0  0  0  0  0  0  0  0  0  0
   -0.1585   -1.1747    0.0000 C   0  0  0  0  0  0  0  0  0  0  0  0
   -0.1585   -1.9997    0.0000 C   0  0  0  0  0  0  0  0  0  0  0  0
    0.5559   -2.4122    0.0000 C   0  0  0  0  0  0  0  0  0  0  0  0
    1.2703   -1.9997    0.0000 C   0  0  0  0  0  0  0  0  0  0  0  0
    1.2703   -1.1747    0.0000 C   0  0  0  0  0  0  0  0  0  0  0  0
    2.0953    0.6200    0.0000 O   0  0  0  0  0  0  0  0  0  0  0  0
   -0.8730   -0.7622    0.0000 O   0  0  0  0  0  0  0  0  0  0  0  0
   -4.8108    1.7950    0.0000 H   0  0  0  0  0  0  0  0  0  0  0  0
   -5.3089    0.9601    0.0000 H   0  0  0  0  0  0  0  0  0  0  0  0
   -4.7247    0.0067    0.0000 H   0  0  0  0  0  0  0  0  0  0  0  0
   -4.8108    0.1253    0.0000 H   0  0  0  0  0  0  0  0  0  0  0  0
   -3.1368   -0.5091    0.0000 H   0  0  0  0  0  0  0  0  0  0  0  0
   -3.1367    2.4294    0.0000 H   0  0  0  0  0  0  0  0  0  0  0  0
   -3.3598    3.1330    0.0000 H   0  0  0  0  0  0  0  0  0  0  0  0
   -4.9577   -0.6935    0.0000 H   0  0  0  0  0  0  0  0  0  0  0  0
   -2.3579    2.9260    0.0000 H   0  0  0  0  0  0  0  0  0  0  0  0
   -1.3896    2.4166    0.0000 H   0  0  0  0  0  0  0  0  0  0  0  0
   -2.3559   -0.9679    0.0000 H   0  0  0  0  0  0  0  0  0  0  0  0
   -1.8545    0.4482    0.0000 H   0  0  0  0  0  0  0  0  0  0  0  0
   -0.4953    0.4482    0.0000 H   0  0  0  0  0  0  0  0  0  0  0  0
   -0.0480    2.9275    0.0000 H   0  0  0  0  0  0  0  0  0  0  0  0
    0.8787    2.3925    0.0000 H   0  0  0  0  0  0  0  0  0  0  0  0
    0.6664    0.3750    0.0000 H   0  0  0  0  0  0  0  0  0  0  0  0
    1.5930    0.9100    0.0000 H   0  0  0  0  0  0  0  0  0  0  0  0
    1.3809    2.9275    0.0000 H   0  0  0  0  0  0  0  0  0  0  0  0
    2.3076    2.3925    0.0000 H   0  0  0  0  0  0  0  0  0  0  0  0
    2.8099    2.8420    0.0000 H   0  0  0  0  0  0  0  0  0  0  0  0
    3.5244    0.3750    0.0000 H   0  0  0  0  0  0  0  0  0  0  0  0
    4.4510    0.9100    0.0000 H   0  0  0  0  0  0  0  0  0  0  0  0
    5.1655    1.3225    0.0000 H   0  0  0  0  0  0  0  0  0  0  0  0
    4.2389    2.9275    0.0000 H   0  0  0  0  0  0  0  0  0  0  0  0
    5.1656    2.3925    0.0000 H   0  0  0  0  0  0  0  0  0  0  0  0
   -1.5874    1.5072    0.0000 H   0  0  0  0  0  0  0  0  0  0  0  0
   -1.7997   -0.4723    0.0000 H   0  0  0  0  0  0  0  0  0  0  0  0
   -0.1585    1.5452    0.0000 H   0  0  0  0  0  0  0  0  0  0  0  0
    0.7682    1.0102    0.0000 H   0  0  0  0  0  0  0  0  0  0  0  0
    1.4826    0.5977    0.0000 H   0  0  0  0  0  0  0  0  0  0  0  0
    1.4825   -0.4723    0.0000 H   0  0  0  0  0  0  0  0  0  0  0  0
   -1.0522   -0.6587    0.0000 H   0  0  0  0  0  0  0  0  0  0  0  0
   -1.0522   -2.5157    0.0000 H   0  0  0  0  0  0  0  0  0  0  0  0
    0.5559   -3.4442    0.0000 H   0  0  0  0  0  0  0  0  0  0  0  0
    2.1640   -2.5157    0.0000 H   0  0  0  0  0  0  0  0  0  0  0  0
    2.1640   -0.6587    0.0000 H   0  0  0  0  0  0  0  0  0  0  0  0
   -1.7130   -1.2472    0.0000 H   0  0  0  0  0  0  0  0  0  0  0  0
  1  2  1  0  0  0  0
  1  5  1  0  0  0  0
  1  6  1  0  0  0  0
  1 31  1  1  0  0  0
  2  3  1  0  0  0  0
  2 32  1  0  0  0  0
  2 33  1  0  0  0  0
  3  4  1  0  0  0  0
  3  7  1  0  0  0  0
  3 34  1  1  0  0  0
  4  5  1  0  0  0  0
  4  9  1  0  0  0  0
  4 35  1  6  0  0  0
  5  8  1  0  0  0  0
  5 36  1  1  0  0  0
  6 37  1  0  0  0  0
  7 38  1  0  0  0  0
  8 10  1  0  0  0  0
  8 39  1  0  0  0  0
  8 40  1  0  0  0  0
  9 19  2  0  0  0  0
  9 41  1  0  0  0  0
 10 11  2  0  0  0  0
 10 42  1  0  0  0  0
 11 12  1  0  0  0  0
 11 43  1  0  0  0  0
 12 13  1  0  0  0  0
 12 44  1  0  0  0  0
 12 45  1  0  0  0  0
 13 14  1  0  0  0  0
 13 46  1  0  0  0  0
 13 47  1  0  0  0  0
 14 15  1  0  0  0  0
 14 48  1  0  0  0  0
 14 49  1  0  0  0  0
 15 16  1  0  0  0  0
 15 29  2  0  0  0  0
 16 17  1  0  0  0  0
 16 50  1  0  0  0  0
 17 18  1  0  0  0  0
 17 51  1  0  0  0  0
 17 52  1  0  0  0  0
 18 53  1  0  0  0  0
 18 54  1  0  0  0  0
 18 55  1  0  0  0  0
 19 20  1  0  0  0  0
 19 56  1  0  0  0  0
 20 21  1  0  0  0  0
 20 30  1  0  0  0  0
 20 57  1  1  0  0  0
 21 22  1  0  0  0  0
 21 58  1  0  0  0  0
 21 59  1  0  0  0  0
 22 23  1  0  0  0  0
 22 60  1  0  0  0  0
 22 61  1  0  0  0  0
 23 24  2  0  0  0  0
 23 28  1  0  0  0  0
 24 25  1  0  0  0  0
 24 62  1  0  0  0  0
 25 26  2  0  0  0  0
 25 63  1  0  0  0  0
 26 27  1  0  0  0  0
 26 64  1  0  0  0  0
 27 28  2  0  0  0  0
 27 65  1  0  0  0  0
 28 66  1  0  0  0  0
 30 67  1  0  0  0  0
M  END
>  <DRUGBANK_ID>
DB00905

>  <SECONDARY_ACCESSION_NUMBERS>
APRD00826; DB06863

>  <COMMON_NAME>
Bimatoprost

>  <CAS_NUMBER>
155206-00-1

>  <UNII>
QXS94885MZ

>  <SYNONYMS>
(Z)-7-((1R,2R,3R,5S)-3,5-Dihydroxy-2-((1E,3S)-3-hydroxy-5-phenyl-1-pentenyl)cyclopentyl)-N-ethyl-5-heptenamide; Bimatoprost; Bimatoprostum

$$$$
