ABJ
 OpenBabel10282417072D

 35 37  0  0  0  0  0  0  0  0999 V2000
   24.2880    9.7719    0.0000 C   0  0  0  0  0  0  0  0  0  0  0  0
   23.7360    9.1588    0.0000 C   0  0  0  0  0  0  0  0  0  0  0  0
   22.9290    9.3303    0.0000 C   0  0  0  0  0  0  0  0  0  0  0  0
   23.9909    8.3742    0.0000 N   0  0  0  0  0  0  0  0  0  0  0  0
   23.5060    7.7067    0.0000 N   0  0  0  0  0  0  0  0  0  0  0  0
   24.7756    8.1192    0.0000 C   0  0  0  0  0  0  0  0  0  0  0  0
   25.4900    8.5317    0.0000 N   0  0  0  0  0  0  0  0  0  0  0  0
   26.2045    8.1192    0.0000 C   0  0  0  0  0  0  0  0  0  0  0  0
   26.2045    7.2942    0.0000 N   0  0  0  0  0  0  0  0  0  0  0  0
   25.4900    6.8817    0.0000 C   0  0  0  0  0  0  0  0  0  0  0  0
   25.4900    6.0567    0.0000 N   0  0  0  0  0  0  0  0  0  0  0  0
   24.7756    7.2942    0.0000 C   0  0  0  0  0  0  0  0  0  0  0  0
   23.9909    7.0393    0.0000 C   0  0  0  0  0  0  0  0  0  0  0  0
   23.7360    6.2547    0.0000 C   0  0  0  0  0  0  0  0  0  0  0  0
   24.2880    5.6416    0.0000 C   0  0  0  0  0  0  0  0  0  0  0  0
   22.9290    6.0831    0.0000 C   0  0  0  0  0  0  0  0  0  0  0  0
   22.6741    5.2985    0.0000 C   0  0  0  0  0  0  0  0  0  0  0  0
   23.2261    4.6854    0.0000 C   0  0  0  0  0  0  0  0  0  0  0  0
   24.0331    4.8570    0.0000 C   0  0  0  0  0  0  0  0  0  0  0  0
   24.5851    4.2439    0.0000 O   0  0  0  0  0  0  0  0  0  0  0  0
   25.3346    9.5495    0.0000 H   0  0  0  0  0  0  0  0  0  0  0  0
   23.9573   10.7895    0.0000 H   0  0  0  0  0  0  0  0  0  0  0  0
   25.0039   10.5671    0.0000 H   0  0  0  0  0  0  0  0  0  0  0  0
   23.0200    8.3636    0.0000 H   0  0  0  0  0  0  0  0  0  0  0  0
   22.5983   10.3479    0.0000 H   0  0  0  0  0  0  0  0  0  0  0  0
   22.2131    8.5351    0.0000 H   0  0  0  0  0  0  0  0  0  0  0  0
   21.8824    9.5527    0.0000 H   0  0  0  0  0  0  0  0  0  0  0  0
   27.0982    8.6352    0.0000 H   0  0  0  0  0  0  0  0  0  0  0  0
   24.6374    5.5644    0.0000 H   0  0  0  0  0  0  0  0  0  0  0  0
   26.3426    5.5644    0.0000 H   0  0  0  0  0  0  0  0  0  0  0  0
   25.2974    5.8562    0.0000 H   0  0  0  0  0  0  0  0  0  0  0  0
   22.2384    6.8500    0.0000 H   0  0  0  0  0  0  0  0  0  0  0  0
   21.6647    5.0839    0.0000 H   0  0  0  0  0  0  0  0  0  0  0  0
   22.9072    3.7039    0.0000 H   0  0  0  0  0  0  0  0  0  0  0  0
   24.2955    3.3528    0.0000 H   0  0  0  0  0  0  0  0  0  0  0  0
  1 21  1  0  0  0  0
  1 22  1  0  0  0  0
  1 23  1  0  0  0  0
  2  1  1  0  0  0  0
  2  4  1  0  0  0  0
  2 24  1  0  0  0  0
  3  2  1  0  0  0  0
  3 25  1  0  0  0  0
  3 26  1  0  0  0  0
  3 27  1  0  0  0  0
  4  5  1  0  0  0  0
  4  6  1  0  0  0  0
  5 13  2  0  0  0  0
  6  7  1  0  0  0  0
  6 12  2  0  0  0  0
  7  8  2  0  0  0  0
  8  9  1  0  0  0  0
  8 28  1  0  0  0  0
  9 10  2  0  0  0  0
 10 11  1  0  0  0  0
 10 12  1  0  0  0  0
 11 29  1  0  0  0  0
 11 30  1  0  0  0  0
 12 13  1  0  0  0  0
 13 14  1  0  0  0  0
 14 15  1  0  0  0  0
 14 16  2  0  0  0  0
 15 19  2  0  0  0  0
 15 31  1  0  0  0  0
 16 17  1  0  0  0  0
 16 32  1  0  0  0  0
 17 18  2  0  0  0  0
 17 33  1  0  0  0  0
 18 19  1  0  0  0  0
 18 34  1  0  0  0  0
 19 20  1  0  0  0  0
 20 35  1  0  0  0  0
M  END
>  <DRUGBANK_ID>
DB07335

>  <COMMON_NAME>
3-[4-AMINO-1-(1-METHYLETHYL)-1H-PYRAZOLO[3,4-D]PYRIMIDIN-3-YL]PHENOL

>  <UNII>
E6993R9V55

$$$$
