
 OpenBabel10282417072D

 37 41  0  0  0  0  0  0  0  0999 V2000
    0.6975    3.0222    0.0000 C   0  0  0  0  0  0  0  0  0  0  0  0
    1.5129    3.1481    0.0000 N   0  0  0  0  0  0  0  0  0  0  0  0
    1.8833    2.2674    0.0000 C   0  0  3  0  0  0  0  0  0  0  0  0
    2.6502    2.5715    0.0000 C   0  0  0  0  0  0  0  0  0  0  0  0
    3.2135    1.9688    0.0000 C   0  0  0  0  0  0  0  0  0  0  0  0
    4.0171    2.1552    0.0000 C   0  0  0  0  0  0  0  0  0  0  0  0
    4.2575    2.9444    0.0000 C   0  0  0  0  0  0  0  0  0  0  0  0
    3.6942    3.5472    0.0000 C   0  0  0  0  0  0  0  0  0  0  0  0
    2.8906    3.3607    0.0000 C   0  0  0  0  0  0  0  0  0  0  0  0
    2.4234    4.0407    0.0000 C   0  0  0  0  0  0  0  0  0  0  0  0
    2.8333    4.7567    0.0000 O   0  0  0  0  0  0  0  0  0  0  0  0
    1.6005    4.0994    0.0000 C   0  0  3  0  0  0  0  0  0  0  0  0
    1.0415    3.4927    0.0000 C   0  0  0  0  0  0  0  0  0  0  0  0
    1.1674    2.6773    0.0000 C   0  0  0  0  0  0  0  0  0  0  0  0
    0.5242    2.1607    0.0000 C   0  0  0  0  0  0  0  0  0  0  0  0
    0.6501    1.3453    0.0000 O   0  0  0  0  0  0  0  0  0  0  0  0
   -0.2448    2.4593    0.0000 C   0  0  0  0  0  0  0  0  0  0  0  0
   -0.8880    1.9426    0.0000 C   0  0  0  0  0  0  0  0  0  0  0  0
   -1.6571    2.2413    0.0000 C   0  0  0  0  0  0  0  0  0  0  0  0
   -1.7829    3.0566    0.0000 C   0  0  0  0  0  0  0  0  0  0  0  0
   -1.1398    3.5733    0.0000 C   0  0  0  0  0  0  0  0  0  0  0  0
   -0.3707    3.2747    0.0000 C   0  0  0  0  0  0  0  0  0  0  0  0
    0.2725    3.7913    0.0000 C   0  0  0  0  0  0  0  0  0  0  0  0
    0.1466    4.6067    0.0000 O   0  0  0  0  0  0  0  0  0  0  0  0
    0.0274    3.8564    0.0000 H   0  0  0  0  0  0  0  0  0  0  0  0
    0.3102    2.0248    0.0000 H   0  0  0  0  0  0  0  0  0  0  0  0
   -0.3600    2.8589    0.0000 H   0  0  0  0  0  0  0  0  0  0  0  0
    2.2976    3.2539    0.0000 H   0  0  0  0  0  0  0  0  0  0  0  0
    2.9128    0.9816    0.0000 H   0  0  0  0  0  0  0  0  0  0  0  0
    4.7217    1.4012    0.0000 H   0  0  0  0  0  0  0  0  0  0  0  0
    5.2628    3.1776    0.0000 H   0  0  0  0  0  0  0  0  0  0  0  0
    3.9948    4.5344    0.0000 H   0  0  0  0  0  0  0  0  0  0  0  0
    2.2930    3.2837    0.0000 H   0  0  0  0  0  0  0  0  0  0  0  0
   -0.7306    0.9227    0.0000 H   0  0  0  0  0  0  0  0  0  0  0  0
   -2.4617    1.5950    0.0000 H   0  0  0  0  0  0  0  0  0  0  0  0
   -2.7449    3.4302    0.0000 H   0  0  0  0  0  0  0  0  0  0  0  0
   -1.2973    4.5932    0.0000 H   0  0  0  0  0  0  0  0  0  0  0  0
  1  2  1  0  0  0  0
  1 25  1  0  0  0  0
  1 26  1  0  0  0  0
  1 27  1  0  0  0  0
  2  3  1  0  0  0  0
  2 12  1  0  0  0  0
  3  4  1  0  0  0  0
  3 14  1  0  0  0  0
  3 28  1  0  0  0  0
  4  5  2  0  0  0  0
  4  9  1  0  0  0  0
  5  6  1  0  0  0  0
  5 29  1  0  0  0  0
  6  7  2  0  0  0  0
  6 30  1  0  0  0  0
  7  8  1  0  0  0  0
  7 31  1  0  0  0  0
  8  9  2  0  0  0  0
  8 32  1  0  0  0  0
  9 10  1  0  0  0  0
 10 11  2  0  0  0  0
 10 12  1  0  0  0  0
 12 13  1  0  0  0  0
 12 33  1  0  0  0  0
 13 14  2  0  0  0  0
 13 23  1  0  0  0  0
 14 15  1  0  0  0  0
 15 16  2  0  0  0  0
 15 17  1  0  0  0  0
 17 18  2  0  0  0  0
 17 22  1  0  0  0  0
 18 19  1  0  0  0  0
 18 34  1  0  0  0  0
 19 20  2  0  0  0  0
 19 35  1  0  0  0  0
 20 21  1  0  0  0  0
 20 36  1  0  0  0  0
 21 22  2  0  0  0  0
 21 37  1  0  0  0  0
 22 23  1  0  0  0  0
 23 24  2  0  0  0  0
M  END
>  <DRUGBANK_ID>
DB12467

>  <COMMON_NAME>
TU-100

>  <CAS_NUMBER>
1310907-71-1

>  <UNII>
N3KQ8A1E0X

$$$$
