
 OpenBabel10282417072D

 28 30  0  0  0  0  0  0  0  0999 V2000
    2.1701   -0.3717    0.0000 C   0  0  0  0  0  0  0  0  0  0  0  0
    2.6890    0.2343    0.0000 N   0  0  0  0  0  0  0  0  0  0  0  0
    2.4494    0.9967    0.0000 C   0  0  0  0  0  0  0  0  0  0  0  0
    1.6712    1.1323    0.0000 C   0  0  0  0  0  0  0  0  0  0  0  0
   -0.2672    1.1519    0.0000 C   0  0  0  0  0  0  0  0  0  0  0  0
   -1.0505    0.9717    0.0000 C   0  0  0  0  0  0  0  0  0  0  0  0
   -1.2978    0.1754    0.0000 C   0  0  0  0  0  0  0  0  0  0  0  0
   -0.7577   -0.4287    0.0000 C   0  0  0  0  0  0  0  0  0  0  0  0
    0.7101   -0.6859    0.0000 N   0  0  0  0  0  0  0  0  0  0  0  0
    0.0776   -0.2515    0.0000 C   0  0  0  0  0  0  0  0  0  0  0  0
    1.3958   -0.2240    0.0000 C   0  0  0  0  0  0  0  0  0  0  0  0
    0.3248    0.5447    0.0000 C   0  0  0  0  0  0  0  0  0  0  0  0
    1.0921    0.5447    0.0000 C   0  0  0  0  0  0  0  0  0  0  0  0
    2.4436   -1.1519    0.0000 C   0  0  0  0  0  0  0  0  0  0  0  0
   -2.1056   -0.0005    0.0000 O   0  0  0  0  0  0  0  0  0  0  0  0
   -2.6890    0.5829    0.0000 C   0  0  0  0  0  0  0  0  0  0  0  0
    3.1294    1.7730    0.0000 H   0  0  0  0  0  0  0  0  0  0  0  0
    1.3563    2.1151    0.0000 H   0  0  0  0  0  0  0  0  0  0  0  0
    0.0239    2.1420    0.0000 H   0  0  0  0  0  0  0  0  0  0  0  0
   -1.7524    1.7283    0.0000 H   0  0  0  0  0  0  0  0  0  0  0  0
   -1.0785   -1.4096    0.0000 H   0  0  0  0  0  0  0  0  0  0  0  0
    0.7057   -1.6704    0.0000 H   0  0  0  0  0  0  0  0  0  0  0  0
    1.7461   -1.9633    0.0000 H   0  0  0  0  0  0  0  0  0  0  0  0
    3.4951   -1.3502    0.0000 H   0  0  0  0  0  0  0  0  0  0  0  0
    2.7976   -2.1617    0.0000 H   0  0  0  0  0  0  0  0  0  0  0  0
   -2.4121    1.6164    0.0000 H   0  0  0  0  0  0  0  0  0  0  0  0
   -3.7225    0.3060    0.0000 H   0  0  0  0  0  0  0  0  0  0  0  0
   -3.4456    1.3395    0.0000 H   0  0  0  0  0  0  0  0  0  0  0  0
  1 11  1  0  0  0  0
  1 14  1  0  0  0  0
  2  1  2  0  0  0  0
  2  3  1  0  0  0  0
  3  4  2  0  0  0  0
  3 17  1  0  0  0  0
  4 13  1  0  0  0  0
  4 18  1  0  0  0  0
  5 12  1  0  0  0  0
  5 19  1  0  0  0  0
  6  5  2  0  0  0  0
  6 20  1  0  0  0  0
  7  8  2  0  0  0  0
  7  6  1  0  0  0  0
  7 15  1  0  0  0  0
  8 10  1  0  0  0  0
  8 21  1  0  0  0  0
  9 22  1  0  0  0  0
 10  9  1  0  0  0  0
 11  9  1  0  0  0  0
 12 10  2  0  0  0  0
 13 11  2  0  0  0  0
 13 12  1  0  0  0  0
 14 23  1  0  0  0  0
 14 24  1  0  0  0  0
 14 25  1  0  0  0  0
 15 16  1  0  0  0  0
 16 26  1  0  0  0  0
 16 27  1  0  0  0  0
 16 28  1  0  0  0  0
M  END
>  <DRUGBANK_ID>
DB07919

>  <COMMON_NAME>
Harmine

>  <CAS_NUMBER>
442-51-3

>  <UNII>
4FHH5G48T7

>  <SYNONYMS>
Banisterine; Leucoharmine; Telepathine; Yageine; Yajeine

$$$$
