
 OpenBabel10282417072D

 65 69  0  0  0  0  0  0  0  0999 V2000
    3.1252    0.7886    0.0000 C   0  0  0  0  0  0  0  0  0  0  0  0
    3.8386    0.3906    0.0000 N   0  0  0  0  0  0  0  0  0  0  0  0
   -0.3833    0.4052    0.0000 C   0  0  1  0  0  0  0  0  0  0  0  0
   -0.1261   -0.3955    0.0000 C   0  0  2  0  0  0  0  0  0  0  0  0
   -0.9948   -0.2645    0.0000 C   0  0  2  0  0  0  0  0  0  0  0  0
    3.1252    1.6427    0.0000 C   0  0  0  0  0  0  0  0  0  0  0  0
    4.5665    1.6427    0.0000 C   0  0  0  0  0  0  0  0  0  0  0  0
    2.3973    0.3906    0.0000 N   0  0  0  0  0  0  0  0  0  0  0  0
    0.9269    0.3906    0.0000 N   0  0  0  0  0  0  0  0  0  0  0  0
    3.8386    2.0552    0.0000 C   0  0  0  0  0  0  0  0  0  0  0  0
    4.5665    0.7886    0.0000 C   0  0  0  0  0  0  0  0  0  0  0  0
    1.6403    0.7886    0.0000 C   0  0  0  0  0  0  0  0  0  0  0  0
   -1.7372   -0.6817    0.0000 N   0  0  0  0  0  0  0  0  0  0  0  0
    0.2717    0.8710    0.0000 C   0  0  0  0  0  0  0  0  0  0  0  0
    0.6891   -0.3955    0.0000 C   0  0  0  0  0  0  0  0  0  0  0  0
    3.8386   -0.4682    0.0000 C   0  0  0  0  0  0  0  0  0  0  0  0
    2.3973    2.0552    0.0000 C   0  0  0  0  0  0  0  0  0  0  0  0
   -2.4409   -0.2645    0.0000 C   0  0  0  0  0  0  0  0  0  0  0  0
    5.2945    2.0552    0.0000 C   0  0  0  0  0  0  0  0  0  0  0  0
    1.6403    1.6427    0.0000 C   0  0  0  0  0  0  0  0  0  0  0  0
   -4.6053   -0.6817    0.0000 C   0  0  0  0  0  0  0  0  0  0  0  0
   -3.8919   -0.2645    0.0000 N   0  0  0  0  0  0  0  0  0  0  0  0
    4.5083   -0.8759    0.0000 C   0  0  0  0  0  0  0  0  0  0  0  0
   -3.1543   -0.6817    0.0000 C   0  0  1  0  0  0  0  0  0  0  0  0
    4.5083   -1.7009    0.0000 C   0  0  0  0  0  0  0  0  0  0  0  0
    3.1252   -0.8759    0.0000 C   0  0  0  0  0  0  0  0  0  0  0  0
    3.8386    2.9141    0.0000 O   0  0  0  0  0  0  0  0  0  0  0  0
   -2.4409    0.5557    0.0000 O   0  0  0  0  0  0  0  0  0  0  0  0
   -4.6053   -1.4874    0.0000 O   0  0  0  0  0  0  0  0  0  0  0  0
    5.2945    2.8850    0.0000 O   0  0  0  0  0  0  0  0  0  0  0  0
   -5.2751   -0.2645    0.0000 C   0  0  1  0  0  0  0  0  0  0  0  0
    3.8386   -2.0940    0.0000 C   0  0  0  0  0  0  0  0  0  0  0  0
    0.9269    2.0552    0.0000 F   0  0  0  0  0  0  0  0  0  0  0  0
    5.2217   -0.4682    0.0000 F   0  0  0  0  0  0  0  0  0  0  0  0
    6.0029    1.6427    0.0000 O   0  0  0  0  0  0  0  0  0  0  0  0
    3.1252   -1.7009    0.0000 C   0  0  0  0  0  0  0  0  0  0  0  0
   -6.0029   -0.6817    0.0000 N   0  0  0  0  0  0  0  0  0  0  0  0
    3.8386   -2.9141    0.0000 F   0  0  0  0  0  0  0  0  0  0  0  0
   -3.1543   -1.4874    0.0000 C   0  0  0  0  0  0  0  0  0  0  0  0
   -5.2751    0.5557    0.0000 C   0  0  0  0  0  0  0  0  0  0  0  0
   -0.6308    1.1768    0.0000 H   0  0  0  0  0  0  0  0  0  0  0  0
    0.0922   -1.1525    0.0000 H   0  0  0  0  0  0  0  0  0  0  0  0
   -1.6604    0.5733    0.0000 H   0  0  0  0  0  0  0  0  0  0  0  0
    5.4542    0.2623    0.0000 H   0  0  0  0  0  0  0  0  0  0  0  0
   -1.7486   -1.6661    0.0000 H   0  0  0  0  0  0  0  0  0  0  0  0
    0.2795    1.9410    0.0000 H   0  0  0  0  0  0  0  0  0  0  0  0
    1.2279    1.3512    0.0000 H   0  0  0  0  0  0  0  0  0  0  0  0
    1.3268   -1.2547    0.0000 H   0  0  0  0  0  0  0  0  0  0  0  0
    1.7432   -0.2120    0.0000 H   0  0  0  0  0  0  0  0  0  0  0  0
    2.4059    3.0872    0.0000 H   0  0  0  0  0  0  0  0  0  0  0  0
   -3.8990    0.7200    0.0000 H   0  0  0  0  0  0  0  0  0  0  0  0
   -4.0786   -1.2208    0.0000 H   0  0  0  0  0  0  0  0  0  0  0  0
    5.4039   -2.2137    0.0000 H   0  0  0  0  0  0  0  0  0  0  0  0
    2.2326   -0.3579    0.0000 H   0  0  0  0  0  0  0  0  0  0  0  0
   -4.3396    0.2549    0.0000 H   0  0  0  0  0  0  0  0  0  0  0  0
    5.9994    0.7057    0.0000 H   0  0  0  0  0  0  0  0  0  0  0  0
    2.2367   -2.2258    0.0000 H   0  0  0  0  0  0  0  0  0  0  0  0
   -6.8847   -0.1690    0.0000 H   0  0  0  0  0  0  0  0  0  0  0  0
   -6.0061   -1.7017    0.0000 H   0  0  0  0  0  0  0  0  0  0  0  0
   -4.0809   -2.0224    0.0000 H   0  0  0  0  0  0  0  0  0  0  0  0
   -2.2277   -2.0224    0.0000 H   0  0  0  0  0  0  0  0  0  0  0  0
   -3.1543   -2.5574    0.0000 H   0  0  0  0  0  0  0  0  0  0  0  0
   -4.3485    1.0907    0.0000 H   0  0  0  0  0  0  0  0  0  0  0  0
   -6.2017    1.0907    0.0000 H   0  0  0  0  0  0  0  0  0  0  0  0
   -5.2751    1.6257    0.0000 H   0  0  0  0  0  0  0  0  0  0  0  0
  2  1  1  0  0  0  0
  3 14  1  0  0  0  0
  3 41  1  6  0  0  0
  3  4  1  0  0  0  0
  4 15  1  0  0  0  0
  4 42  1  6  0  0  0
  4  5  1  0  0  0  0
  5  3  1  0  0  0  0
  5 13  1  0  0  0  0
  5 43  1  1  0  0  0
  6  1  2  0  0  0  0
  7 10  1  0  0  0  0
  8  1  1  0  0  0  0
  9 12  1  0  0  0  0
 10  6  1  0  0  0  0
 11  2  1  0  0  0  0
 11  7  2  0  0  0  0
 11 44  1  0  0  0  0
 12  8  2  0  0  0  0
 12 20  1  0  0  0  0
 13 45  1  0  0  0  0
 14  9  1  0  0  0  0
 14 46  1  0  0  0  0
 14 47  1  0  0  0  0
 15  9  1  0  0  0  0
 15 48  1  0  0  0  0
 15 49  1  0  0  0  0
 16  2  1  0  0  0  0
 17  6  1  0  0  0  0
 17 50  1  0  0  0  0
 18 13  1  0  0  0  0
 19  7  1  0  0  0  0
 20 17  2  0  0  0  0
 21 22  1  0  0  0  0
 22 24  1  0  0  0  0
 22 51  1  0  0  0  0
 23 16  1  0  0  0  0
 24 18  1  0  0  0  0
 24 39  1  0  0  0  0
 24 52  1  1  0  0  0
 25 23  2  0  0  0  0
 25 32  1  0  0  0  0
 25 53  1  0  0  0  0
 26 16  2  0  0  0  0
 26 54  1  0  0  0  0
 27 10  2  0  0  0  0
 28 18  2  0  0  0  0
 29 21  2  0  0  0  0
 30 19  2  0  0  0  0
 31 21  1  0  0  0  0
 31 40  1  0  0  0  0
 31 55  1  6  0  0  0
 32 36  2  0  0  0  0
 33 20  1  0  0  0  0
 34 23  1  0  0  0  0
 35 19  1  0  0  0  0
 35 56  1  0  0  0  0
 36 26  1  0  0  0  0
 36 57  1  0  0  0  0
 37 31  1  0  0  0  0
 37 58  1  0  0  0  0
 37 59  1  0  0  0  0
 38 32  1  0  0  0  0
 39 60  1  0  0  0  0
 39 61  1  0  0  0  0
 39 62  1  0  0  0  0
 40 63  1  0  0  0  0
 40 64  1  0  0  0  0
 40 65  1  0  0  0  0
M  END
>  <DRUGBANK_ID>
DB09335

>  <COMMON_NAME>
Alatrofloxacin

>  <CAS_NUMBER>
146961-76-4

>  <UNII>
7QVV6I50DT

>  <SYNONYMS>
Alatrofloxacin

$$$$
