
 OpenBabel10282417072D

 61 65  0  0  0  0  0  0  0  0999 V2000
   -2.0962    0.8250    0.0000 C   0  0  0  0  0  0  0  0  0  0  0  0
   -2.0962    0.0000    0.0000 N   0  0  0  0  0  0  0  0  0  0  0  0
   -1.3818   -0.4114    0.0000 C   0  0  0  0  0  0  0  0  0  0  0  0
   -1.3818   -1.2364    0.0000 C   0  0  0  0  0  0  0  0  0  0  0  0
   -0.6652   -1.6500    0.0000 C   0  0  0  0  0  0  0  0  0  0  0  0
    0.0471   -1.2364    0.0000 C   0  0  0  0  0  0  0  0  0  0  0  0
    0.0471   -0.4114    0.0000 C   0  0  0  0  0  0  0  0  0  0  0  0
   -0.6652    0.0000    0.0000 C   0  0  0  0  0  0  0  0  0  0  0  0
    0.7615   -1.6500    0.0000 C   0  0  0  0  0  0  0  0  0  0  0  0
    1.4760   -1.2364    0.0000 C   0  0  1  0  0  0  0  0  0  0  0  0
    2.1290   -1.7420    0.0000 N   0  0  0  0  0  0  0  0  0  0  0  0
    2.8128   -1.2364    0.0000 C   0  0  2  0  0  0  0  0  0  0  0  0
    2.5753   -0.4646    0.0000 C   0  0  0  0  0  0  0  0  0  0  0  0
    1.7441   -0.4646    0.0000 C   0  0  0  0  0  0  0  0  0  0  0  0
    3.5272   -1.6500    0.0000 C   0  0  2  0  0  0  0  0  0  0  0  0
    3.5272   -2.4750    0.0000 O   0  0  0  0  0  0  0  0  0  0  0  0
    4.2416   -1.2364    0.0000 C   0  0  0  0  0  0  0  0  0  0  0  0
    4.2416   -0.4114    0.0000 C   0  0  0  0  0  0  0  0  0  0  0  0
    4.9582    0.0000    0.0000 C   0  0  0  0  0  0  0  0  0  0  0  0
    5.6706   -0.4114    0.0000 C   0  0  0  0  0  0  0  0  0  0  0  0
    5.6706   -1.2364    0.0000 C   0  0  0  0  0  0  0  0  0  0  0  0
    4.9582   -1.6500    0.0000 C   0  0  0  0  0  0  0  0  0  0  0  0
    3.4535   -0.7164    0.0000 H   0  0  0  0  0  0  0  0  0  0  0  0
   -1.3818    1.2385    0.0000 O   0  0  0  0  0  0  0  0  0  0  0  0
   -2.8107    1.2385    0.0000 C   0  0  1  0  0  0  0  0  0  0  0  0
   -4.2416    1.2385    0.0000 N   0  0  0  0  0  0  0  0  0  0  0  0
   -4.2416    2.0635    0.0000 C   0  0  0  0  0  0  0  0  0  0  0  0
   -3.5251    2.4750    0.0000 C   0  0  0  0  0  0  0  0  0  0  0  0
   -2.8107    2.0635    0.0000 C   0  0  0  0  0  0  0  0  0  0  0  0
   -4.9540    2.4750    0.0000 N   0  0  0  0  0  0  0  0  0  0  0  0
   -5.6706    2.0635    0.0000 C   0  0  0  0  0  0  0  0  0  0  0  0
   -5.6706    1.2385    0.0000 C   0  0  0  0  0  0  0  0  0  0  0  0
   -4.9540    0.8250    0.0000 C   0  0  0  0  0  0  0  0  0  0  0  0
   -4.9540    0.0000    0.0000 O   0  0  0  0  0  0  0  0  0  0  0  0
   -2.9485   -0.4927    0.0000 H   0  0  0  0  0  0  0  0  0  0  0  0
   -2.2755   -1.7525    0.0000 H   0  0  0  0  0  0  0  0  0  0  0  0
   -0.6639   -2.6820    0.0000 H   0  0  0  0  0  0  0  0  0  0  0  0
    0.9409    0.1045    0.0000 H   0  0  0  0  0  0  0  0  0  0  0  0
   -0.6639    1.0320    0.0000 H   0  0  0  0  0  0  0  0  0  0  0  0
    0.7615   -2.7200    0.0000 H   0  0  0  0  0  0  0  0  0  0  0  0
    1.6884   -2.1845    0.0000 H   0  0  0  0  0  0  0  0  0  0  0  0
    1.4043   -2.3040    0.0000 H   0  0  0  0  0  0  0  0  0  0  0  0
    2.1177   -2.7619    0.0000 H   0  0  0  0  0  0  0  0  0  0  0  0
    3.2110    0.3961    0.0000 H   0  0  0  0  0  0  0  0  0  0  0  0
    2.0933    0.4907    0.0000 H   0  0  0  0  0  0  0  0  0  0  0  0
    1.1239    0.4073    0.0000 H   0  0  0  0  0  0  0  0  0  0  0  0
    2.2347    0.4863    0.0000 H   0  0  0  0  0  0  0  0  0  0  0  0
    2.6002   -2.1844    0.0000 H   0  0  0  0  0  0  0  0  0  0  0  0
    2.6872   -2.9600    0.0000 H   0  0  0  0  0  0  0  0  0  0  0  0
    3.3485    0.1057    0.0000 H   0  0  0  0  0  0  0  0  0  0  0  0
    4.9595    1.0320    0.0000 H   0  0  0  0  0  0  0  0  0  0  0  0
    6.5644    0.1046    0.0000 H   0  0  0  0  0  0  0  0  0  0  0  0
    6.5650   -1.7513    0.0000 H   0  0  0  0  0  0  0  0  0  0  0  0
    4.9595   -2.6820    0.0000 H   0  0  0  0  0  0  0  0  0  0  0  0
   -3.0882    0.2051    0.0000 H   0  0  0  0  0  0  0  0  0  0  0  0
   -3.5244    3.5450    0.0000 H   0  0  0  0  0  0  0  0  0  0  0  0
   -2.5986    3.0102    0.0000 H   0  0  0  0  0  0  0  0  0  0  0  0
   -1.8843    2.5990    0.0000 H   0  0  0  0  0  0  0  0  0  0  0  0
   -2.8115    3.1335    0.0000 H   0  0  0  0  0  0  0  0  0  0  0  0
   -6.5637    2.5805    0.0000 H   0  0  0  0  0  0  0  0  0  0  0  0
   -6.5643    0.7224    0.0000 H   0  0  0  0  0  0  0  0  0  0  0  0
  1  2  1  0  0  0  0
  1 24  2  0  0  0  0
  2  3  1  0  0  0  0
  2 35  1  0  0  0  0
  3  4  2  0  0  0  0
  3  8  1  0  0  0  0
  4  5  1  0  0  0  0
  4 36  1  0  0  0  0
  5  6  2  0  0  0  0
  5 37  1  0  0  0  0
  6  9  1  0  0  0  0
  7  6  1  0  0  0  0
  7 38  1  0  0  0  0
  8  7  2  0  0  0  0
  8 39  1  0  0  0  0
  9 40  1  0  0  0  0
  9 41  1  0  0  0  0
 10  9  1  0  0  0  0
 10 11  1  0  0  0  0
 10 14  1  0  0  0  0
 10 42  1  1  0  0  0
 11 12  1  0  0  0  0
 11 43  1  0  0  0  0
 12 13  1  0  0  0  0
 12 15  1  0  0  0  0
 12 23  1  1  0  0  0
 13 44  1  0  0  0  0
 13 45  1  0  0  0  0
 14 13  1  0  0  0  0
 14 46  1  0  0  0  0
 14 47  1  0  0  0  0
 15 16  1  0  0  0  0
 15 17  1  0  0  0  0
 15 48  1  6  0  0  0
 16 49  1  0  0  0  0
 17 18  2  0  0  0  0
 17 22  1  0  0  0  0
 18 19  1  0  0  0  0
 18 50  1  0  0  0  0
 19 20  2  0  0  0  0
 19 51  1  0  0  0  0
 20 52  1  0  0  0  0
 21 20  1  0  0  0  0
 21 53  1  0  0  0  0
 22 21  2  0  0  0  0
 22 54  1  0  0  0  0
 25  1  1  0  0  0  0
 25 26  1  0  0  0  0
 25 29  1  0  0  0  0
 25 55  1  6  0  0  0
 26 27  1  0  0  0  0
 26 33  1  0  0  0  0
 27 28  1  0  0  0  0
 27 30  2  0  0  0  0
 28 56  1  0  0  0  0
 28 57  1  0  0  0  0
 29 28  1  0  0  0  0
 29 58  1  0  0  0  0
 29 59  1  0  0  0  0
 30 31  1  0  0  0  0
 31 60  1  0  0  0  0
 32 31  2  0  0  0  0
 32 61  1  0  0  0  0
 33 32  1  0  0  0  0
 33 34  2  0  0  0  0
M  END
>  <DRUGBANK_ID>
DB14895

>  <COMMON_NAME>
Vibegron

>  <CAS_NUMBER>
1190389-15-1

>  <UNII>
M5TSE03W5U

>  <SYNONYMS>
Vibégron; Vibegrón; Vibegron; Vibegronum

$$$$
