
 OpenBabel10282417072D

 31 32  0  0  0  0  0  0  0  0999 V2000
   -0.5893    0.9429    0.0000 C   0  0  0  0  0  0  0  0  0  0  0  0
   -1.3038    0.5304    0.0000 C   0  0  2  0  0  0  0  0  0  0  0  0
   -1.3038   -0.2947    0.0000 C   0  0  0  0  0  0  0  0  0  0  0  0
   -0.5893   -0.7072    0.0000 C   0  0  0  0  0  0  0  0  0  0  0  0
    0.1252   -0.2947    0.0000 C   0  0  0  0  0  0  0  0  0  0  0  0
    0.1252    0.5304    0.0000 C   0  0  0  0  0  0  0  0  0  0  0  0
    0.9098    0.7853    0.0000 S   0  0  0  0  0  0  0  0  0  0  0  0
    0.9098   -0.5496    0.0000 N   0  0  0  0  0  0  0  0  0  0  0  0
    1.3947    0.1178    0.0000 C   0  0  0  0  0  0  0  0  0  0  0  0
   -2.0182    0.9429    0.0000 N   0  0  0  0  0  0  0  0  0  0  0  0
    2.2197    0.1178    0.0000 N   0  0  0  0  0  0  0  0  0  0  0  0
   -2.7327    0.5304    0.0000 C   0  0  0  0  0  0  0  0  0  0  0  0
   -3.4472    0.9429    0.0000 C   0  0  0  0  0  0  0  0  0  0  0  0
   -4.1616    0.5304    0.0000 C   0  0  0  0  0  0  0  0  0  0  0  0
   -0.5893    2.0129    0.0000 H   0  0  0  0  0  0  0  0  0  0  0  0
    0.3373    1.4779    0.0000 H   0  0  0  0  0  0  0  0  0  0  0  0
   -1.3038    1.6004    0.0000 H   0  0  0  0  0  0  0  0  0  0  0  0
   -2.2304   -0.8297    0.0000 H   0  0  0  0  0  0  0  0  0  0  0  0
   -1.3038   -1.3647    0.0000 H   0  0  0  0  0  0  0  0  0  0  0  0
   -0.5893   -1.7772    0.0000 H   0  0  0  0  0  0  0  0  0  0  0  0
    0.3373   -1.2422    0.0000 H   0  0  0  0  0  0  0  0  0  0  0  0
   -2.0182    1.9629    0.0000 H   0  0  0  0  0  0  0  0  0  0  0  0
    2.7120   -0.7348    0.0000 H   0  0  0  0  0  0  0  0  0  0  0  0
    2.7119    0.9704    0.0000 H   0  0  0  0  0  0  0  0  0  0  0  0
   -2.7327   -0.5396    0.0000 H   0  0  0  0  0  0  0  0  0  0  0  0
   -3.6593   -0.0046    0.0000 H   0  0  0  0  0  0  0  0  0  0  0  0
   -3.4472    2.0129    0.0000 H   0  0  0  0  0  0  0  0  0  0  0  0
   -4.3739    1.4779    0.0000 H   0  0  0  0  0  0  0  0  0  0  0  0
   -5.0883    1.0654    0.0000 H   0  0  0  0  0  0  0  0  0  0  0  0
   -4.1616   -0.5396    0.0000 H   0  0  0  0  0  0  0  0  0  0  0  0
   -5.0882   -0.0046    0.0000 H   0  0  0  0  0  0  0  0  0  0  0  0
  1  2  1  0  0  0  0
  1  6  1  0  0  0  0
  1 15  1  0  0  0  0
  1 16  1  0  0  0  0
  2  3  1  0  0  0  0
  2 10  1  0  0  0  0
  2 17  1  1  0  0  0
  3  4  1  0  0  0  0
  3 18  1  0  0  0  0
  3 19  1  0  0  0  0
  4  5  1  0  0  0  0
  4 20  1  0  0  0  0
  4 21  1  0  0  0  0
  5  8  1  0  0  0  0
  6  5  2  0  0  0  0
  7  6  1  0  0  0  0
  7  9  1  0  0  0  0
  8  9  2  0  0  0  0
  9 11  1  0  0  0  0
 10 12  1  0  0  0  0
 10 22  1  0  0  0  0
 11 23  1  0  0  0  0
 11 24  1  0  0  0  0
 12 13  1  0  0  0  0
 12 25  1  0  0  0  0
 12 26  1  0  0  0  0
 13 14  1  0  0  0  0
 13 27  1  0  0  0  0
 13 28  1  0  0  0  0
 14 29  1  0  0  0  0
 14 30  1  0  0  0  0
 14 31  1  0  0  0  0
M  END
>  <DRUGBANK_ID>
DB00413

>  <SECONDARY_ACCESSION_NUMBERS>
APRD00156

>  <COMMON_NAME>
Pramipexole

>  <CAS_NUMBER>
104632-26-0

>  <UNII>
83619PEU5T

>  <SYNONYMS>
(-)-Pramipexole; (S)-N  6-propyl-4,5,6,7-tetrahydro-1,3-benzothiazole-2,6-diamine; Pramipexol; Pramipexole; Pramipexolum

$$$$
