
 OpenBabel10282417072D

 58 62  0  0  1  0  0  0  0  0999 V2000
    3.3190    0.3417    0.0000 C   0  0  0  0  0  0  0  0  0  0  0  0
    8.4558    6.1992    0.0000 C   0  0  0  0  0  0  0  0  0  0  0  0
    9.6209    6.1382    0.0000 C   0  0  0  0  0  0  0  0  0  0  0  0
    8.3947    5.0341    0.0000 C   0  0  0  0  0  0  0  0  0  0  0  0
    4.1360    0.4565    0.0000 C   0  0  0  0  0  0  0  0  0  0  0  0
   10.1540    2.1776    0.0000 C   0  0  0  0  0  0  0  0  0  0  0  0
    9.8991    1.3930    0.0000 C   0  0  0  0  0  0  0  0  0  0  0  0
    9.6020    2.7907    0.0000 C   0  0  0  0  0  0  0  0  0  0  0  0
    9.0921    1.2215    0.0000 C   0  0  0  0  0  0  0  0  0  0  0  0
    5.8040    1.6630    0.0000 C   0  0  0  0  0  0  0  0  0  0  0  0
    8.4979    4.0169    0.0000 C   0  0  0  0  0  0  0  0  0  0  0  0
    6.7686    3.5457    0.0000 C   0  0  0  0  0  0  0  0  0  0  0  0
    3.9351    2.7907    0.0000 C   0  0  0  0  0  0  0  0  0  0  0  0
    8.7950    2.6192    0.0000 C   0  0  0  0  0  0  0  0  0  0  0  0
    8.2430    3.2323    0.0000 C   0  0  0  0  0  0  0  0  0  0  0  0
    7.4360    3.0607    0.0000 C   0  0  0  0  0  0  0  0  0  0  0  0
    4.7421    2.6192    0.0000 C   0  0  0  0  0  0  0  0  0  0  0  0
    4.9971    1.8346    0.0000 C   0  0  0  0  0  0  0  0  0  0  0  0
    8.5401    1.8346    0.0000 C   0  0  0  0  0  0  0  0  0  0  0  0
    6.3561    2.2761    0.0000 C   0  0  0  0  0  0  0  0  0  0  0  0
    7.1811    2.2761    0.0000 C   0  0  0  0  0  0  0  0  0  0  0  0
    5.2941    3.2323    0.0000 C   0  0  0  0  0  0  0  0  0  0  0  0
    3.6380    1.3930    0.0000 C   0  0  0  0  0  0  0  0  0  0  0  0
    9.0078    5.5861    0.0000 C   0  0  0  0  0  0  0  0  0  0  0  0
    4.4450    1.2215    0.0000 C   0  0  2  0  0  0  0  0  0  0  0  0
    9.3049    4.1884    0.0000 N   0  0  0  0  0  0  0  0  0  0  0  0
    7.7331    1.6630    0.0000 N   0  0  0  0  0  0  0  0  0  0  0  0
    6.1011    3.0607    0.0000 N   0  0  0  0  0  0  0  0  0  0  0  0
    5.0392    4.0169    0.0000 O   0  0  0  0  0  0  0  0  0  0  0  0
    3.0860    0.7799    0.0000 O   0  0  0  0  0  0  0  0  0  0  0  0
    5.1447    0.7843    0.0000 O   0  0  0  0  0  0  0  0  0  0  0  0
    3.3831    2.1776    0.0000 O   0  0  0  0  0  0  0  0  0  0  0  0
    9.5598    4.9730    0.0000 O   0  0  0  0  0  0  0  0  0  0  0  0
    7.9459    4.6300    0.0000 H   0  0  0  0  0  0  0  0  0  0  0  0
    2.6603    1.1849    0.0000 H   0  0  0  0  0  0  0  0  0  0  0  0
    2.9181   -0.6504    0.0000 H   0  0  0  0  0  0  0  0  0  0  0  0
    2.2594    0.1928    0.0000 H   0  0  0  0  0  0  0  0  0  0  0  0
    8.7865    7.2168    0.0000 H   0  0  0  0  0  0  0  0  0  0  0  0
    7.4092    5.9768    0.0000 H   0  0  0  0  0  0  0  0  0  0  0  0
    7.7399    6.9944    0.0000 H   0  0  0  0  0  0  0  0  0  0  0  0
   10.6385    5.8076    0.0000 H   0  0  0  0  0  0  0  0  0  0  0  0
    9.3984    7.1848    0.0000 H   0  0  0  0  0  0  0  0  0  0  0  0
   10.4160    6.8542    0.0000 H   0  0  0  0  0  0  0  0  0  0  0  0
    7.3771    5.3648    0.0000 H   0  0  0  0  0  0  0  0  0  0  0  0
    8.6171    3.9875    0.0000 H   0  0  0  0  0  0  0  0  0  0  0  0
    7.5995    4.3182    0.0000 H   0  0  0  0  0  0  0  0  0  0  0  0
    4.7948   -0.3867    0.0000 H   0  0  0  0  0  0  0  0  0  0  0  0
    5.1956    0.6055    0.0000 H   0  0  0  0  0  0  0  0  0  0  0  0
   11.1634    2.3922    0.0000 H   0  0  0  0  0  0  0  0  0  0  0  0
   10.5896    0.6261    0.0000 H   0  0  0  0  0  0  0  0  0  0  0  0
    9.9209    3.7722    0.0000 H   0  0  0  0  0  0  0  0  0  0  0  0
    8.7732    0.2400    0.0000 H   0  0  0  0  0  0  0  0  0  0  0  0
    6.1228    0.6815    0.0000 H   0  0  0  0  0  0  0  0  0  0  0  0
    6.7686    4.6157    0.0000 H   0  0  0  0  0  0  0  0  0  0  0  0
    5.8152    4.0315    0.0000 H   0  0  0  0  0  0  0  0  0  0  0  0
    3.6044    3.8083    0.0000 H   0  0  0  0  0  0  0  0  0  0  0  0
    2.8885    3.0131    0.0000 H   0  0  0  0  0  0  0  0  0  0  0  0
    5.1109   -0.1851    0.0000 H   0  0  0  0  0  0  0  0  0  0  0  0
  1 35  1  0  0  0  0
  1 36  1  0  0  0  0
  1 37  1  0  0  0  0
  2 38  1  0  0  0  0
  2 39  1  0  0  0  0
  2 40  1  0  0  0  0
  3 41  1  0  0  0  0
  3 42  1  0  0  0  0
  3 43  1  0  0  0  0
  4 44  1  0  0  0  0
  4 45  1  0  0  0  0
  4 46  1  0  0  0  0
  5  1  1  0  0  0  0
  5 47  1  0  0  0  0
  5 48  1  0  0  0  0
  6 49  1  0  0  0  0
  7  6  2  0  0  0  0
  7 50  1  0  0  0  0
  8  6  1  0  0  0  0
  8 51  1  0  0  0  0
  9  7  1  0  0  0  0
  9 52  1  0  0  0  0
 10 53  1  0  0  0  0
 12 54  1  0  0  0  0
 12 55  1  0  0  0  0
 13 56  1  0  0  0  0
 13 57  1  0  0  0  0
 14  8  2  0  0  0  0
 15 11  1  0  0  0  0
 15 14  1  0  0  0  0
 16 12  1  0  0  0  0
 16 15  2  0  0  0  0
 17 13  1  0  0  0  0
 18 10  1  0  0  0  0
 18 17  2  0  0  0  0
 19  9  2  0  0  0  0
 19 14  1  0  0  0  0
 20 10  2  0  0  0  0
 21 16  1  0  0  0  0
 21 20  1  0  0  0  0
 22 17  1  0  0  0  0
 24  2  1  0  0  0  0
 24  3  1  0  0  0  0
 24  4  1  0  0  0  0
 25  5  1  0  0  0  0
 25 18  1  0  0  0  0
 25 23  1  0  0  0  0
 25 31  1  6  0  0  0
 26 11  2  0  0  0  0
 27 19  1  0  0  0  0
 27 21  2  0  0  0  0
 28 12  1  0  0  0  0
 28 20  1  0  0  0  0
 28 22  1  0  0  0  0
 29 22  2  0  0  0  0
 30 23  2  0  0  0  0
 31 58  1  0  0  0  0
 32 13  1  0  0  0  0
 32 23  1  0  0  0  0
 33 24  1  0  0  0  0
 33 26  1  0  0  0  0
 34 11  1  0  0  0  0
M  END
>  <DRUGBANK_ID>
DB06721

>  <COMMON_NAME>
Gimatecan

>  <CAS_NUMBER>
292618-32-7

>  <UNII>
7KKS9R192F

>  <SYNONYMS>
(4S)-11-[(E)-(tert-butoxyimino)methyl]-4-ethyl-4-hydroxy-1H-pyrano[3',4':6,7]indolizino[1,2-b]quinoline-3,14(4H,12H)-dione; (4S)-4-ethyl-4-hydroxy-3,14-dioxo-3,4,12,14-tetrahydro-1-H-pyrano[3',4':6,7]-indolizino-[1,2-b]-quinoline-11-carbaldehyde O-(tert-butyl)-(E)-oxime; 1H-Pyrano[3',4':6,7]indolizino[1,2-b]quinoline-11-carboxaldehyde, 4-ethyl-3,4,12,14-tetrahydro-4-hydroxy-3,14-dioxo-, 11-[O-(1,1-dimethylethyl)oxime], (4S)-; Gimatecan

$$$$
