JT5
 OpenBabel10282417072D

 42 43  0  0  0  0  0  0  0  0999 V2000
    2.1741    2.1815    0.0000 C   0  0  0  0  0  0  0  0  0  0  0  0
    1.7616    1.4671    0.0000 C   0  0  0  0  0  0  0  0  0  0  0  0
    0.5241    2.1815    0.0000 C   0  0  0  0  0  0  0  0  0  0  0  0
    2.9991    2.1815    0.0000 N   0  0  0  0  0  0  0  0  0  0  0  0
    3.4116    2.8960    0.0000 O   0  0  0  0  0  0  0  0  0  0  0  0
    1.7616    2.8960    0.0000 O   0  0  0  0  0  0  0  0  0  0  0  0
    0.9366    1.4671    0.0000 N   0  0  0  0  0  0  0  0  0  0  0  0
    0.5241    0.7526    0.0000 S   0  0  0  0  0  0  0  0  0  0  0  0
   -0.3009    2.1815    0.0000 C   0  0  0  0  0  0  0  0  0  0  0  0
   -0.7134    2.8960    0.0000 O   0  0  0  0  0  0  0  0  0  0  0  0
   -0.1904    1.1651    0.0000 O   0  0  0  0  0  0  0  0  0  0  0  0
    0.1116    0.0381    0.0000 C   0  0  0  0  0  0  0  0  0  0  0  0
    1.2385    0.3401    0.0000 O   0  0  0  0  0  0  0  0  0  0  0  0
   -0.7134    0.0381    0.0000 C   0  0  0  0  0  0  0  0  0  0  0  0
   -1.1259   -0.6764    0.0000 C   0  0  0  0  0  0  0  0  0  0  0  0
   -0.7134   -1.3908    0.0000 C   0  0  0  0  0  0  0  0  0  0  0  0
    0.1116   -1.3908    0.0000 C   0  0  0  0  0  0  0  0  0  0  0  0
    0.5241   -0.6764    0.0000 C   0  0  0  0  0  0  0  0  0  0  0  0
   -1.1259   -2.1053    0.0000 C   0  0  0  0  0  0  0  0  0  0  0  0
   -1.9509   -2.1053    0.0000 C   0  0  0  0  0  0  0  0  0  0  0  0
   -2.3634   -2.8198    0.0000 C   0  0  0  0  0  0  0  0  0  0  0  0
   -1.9509   -3.5342    0.0000 C   0  0  0  0  0  0  0  0  0  0  0  0
   -1.1259   -3.5342    0.0000 C   0  0  0  0  0  0  0  0  0  0  0  0
   -0.7134   -2.8198    0.0000 C   0  0  0  0  0  0  0  0  0  0  0  0
    2.2966    0.5404    0.0000 H   0  0  0  0  0  0  0  0  0  0  0  0
    1.2266    0.5405    0.0000 H   0  0  0  0  0  0  0  0  0  0  0  0
    1.0591    3.1082    0.0000 H   0  0  0  0  0  0  0  0  0  0  0  0
   -0.0109    3.1081    0.0000 H   0  0  0  0  0  0  0  0  0  0  0  0
    3.4914    1.3289    0.0000 H   0  0  0  0  0  0  0  0  0  0  0  0
    4.3816    2.8960    0.0000 H   0  0  0  0  0  0  0  0  0  0  0  0
   -0.8359    1.2549    0.0000 H   0  0  0  0  0  0  0  0  0  0  0  0
   -1.3709    2.1815    0.0000 H   0  0  0  0  0  0  0  0  0  0  0  0
   -0.2284    3.7360    0.0000 H   0  0  0  0  0  0  0  0  0  0  0  0
   -1.2294    0.9318    0.0000 H   0  0  0  0  0  0  0  0  0  0  0  0
   -2.1579   -0.6764    0.0000 H   0  0  0  0  0  0  0  0  0  0  0  0
    0.6276   -2.2845    0.0000 H   0  0  0  0  0  0  0  0  0  0  0  0
    1.5561   -0.6764    0.0000 H   0  0  0  0  0  0  0  0  0  0  0  0
   -2.4669   -1.2116    0.0000 H   0  0  0  0  0  0  0  0  0  0  0  0
   -3.3954   -2.8198    0.0000 H   0  0  0  0  0  0  0  0  0  0  0  0
   -2.4669   -4.4279    0.0000 H   0  0  0  0  0  0  0  0  0  0  0  0
   -0.6099   -4.4279    0.0000 H   0  0  0  0  0  0  0  0  0  0  0  0
    0.3186   -2.8198    0.0000 H   0  0  0  0  0  0  0  0  0  0  0  0
  1  2  1  0  0  0  0
  2  7  1  0  0  0  0
  2 25  1  0  0  0  0
  2 26  1  0  0  0  0
  3 27  1  0  0  0  0
  3 28  1  0  0  0  0
  4  1  1  0  0  0  0
  4 29  1  0  0  0  0
  5  4  1  0  0  0  0
  5 30  1  0  0  0  0
  6  1  2  0  0  0  0
  7  3  1  0  0  0  0
  8 13  2  0  0  0  0
  8  7  1  0  0  0  0
  8 11  2  0  0  0  0
  9  3  1  0  0  0  0
  9 10  1  0  0  0  0
  9 31  1  0  0  0  0
  9 32  1  0  0  0  0
 10 33  1  0  0  0  0
 12  8  1  0  0  0  0
 14 12  1  0  0  0  0
 14 34  1  0  0  0  0
 15 14  2  0  0  0  0
 15 35  1  0  0  0  0
 16 17  2  0  0  0  0
 16 15  1  0  0  0  0
 17 18  1  0  0  0  0
 17 36  1  0  0  0  0
 18 12  2  0  0  0  0
 18 37  1  0  0  0  0
 19 16  1  0  0  0  0
 20 19  2  0  0  0  0
 20 38  1  0  0  0  0
 21 20  1  0  0  0  0
 21 39  1  0  0  0  0
 22 21  2  0  0  0  0
 22 23  1  0  0  0  0
 22 40  1  0  0  0  0
 23 24  2  0  0  0  0
 23 41  1  0  0  0  0
 24 19  1  0  0  0  0
 24 42  1  0  0  0  0
M  END
>  <DRUGBANK_ID>
DB08029

>  <COMMON_NAME>
N~2~-(biphenyl-4-ylsulfonyl)-N-hydroxy-N~2~-(2-hydroxyethyl)glycinamide

$$$$
