2475
 OpenBabel10282417072D

 40 40  0  0  1  0  0  0  0  0999 V2000
    1.6500   -1.3885    0.0000 Cl  0  0  0  0  0  0  0  0  0  0  0  0
    3.0790    1.0865    0.0000 O   0  0  0  0  0  0  0  0  0  0  0  0
    3.0790   -0.5635    0.0000 O   0  0  0  0  0  0  0  0  0  0  0  0
    4.5080    1.9116    0.0000 N   0  0  0  0  0  0  0  0  0  0  0  0
    5.2224    2.3241    0.0000 C   0  0  0  0  0  0  0  0  0  0  0  0
    4.5080    1.0865    0.0000 C   0  0  0  0  0  0  0  0  0  0  0  0
    3.7935    0.6740    0.0000 C   0  0  3  0  0  0  0  0  0  0  0  0
    5.9370    2.7366    0.0000 C   0  0  0  0  0  0  0  0  0  0  0  0
    4.8099    3.0385    0.0000 C   0  0  0  0  0  0  0  0  0  0  0  0
    5.6350    1.6096    0.0000 C   0  0  0  0  0  0  0  0  0  0  0  0
    3.7935   -0.1510    0.0000 C   0  0  0  0  0  0  0  0  0  0  0  0
    3.0790   -1.3885    0.0000 C   0  0  0  0  0  0  0  0  0  0  0  0
    3.7935   -1.8010    0.0000 C   0  0  0  0  0  0  0  0  0  0  0  0
    2.3645   -1.8010    0.0000 C   0  0  0  0  0  0  0  0  0  0  0  0
    3.7935   -2.6260    0.0000 C   0  0  0  0  0  0  0  0  0  0  0  0
    3.0790   -3.0385    0.0000 C   0  0  0  0  0  0  0  0  0  0  0  0
    2.3645   -2.6260    0.0000 C   0  0  0  0  0  0  0  0  0  0  0  0
    4.5080   -3.0385    0.0000 C   0  0  0  0  0  0  0  0  0  0  0  0
    3.0790    2.0565    0.0000 H   0  0  0  0  0  0  0  0  0  0  0  0
    3.6246    2.4216    0.0000 H   0  0  0  0  0  0  0  0  0  0  0  0
    5.4346    0.5515    0.0000 H   0  0  0  0  0  0  0  0  0  0  0  0
    4.5080    0.0165    0.0000 H   0  0  0  0  0  0  0  0  0  0  0  0
    3.7935    1.7440    0.0000 H   0  0  0  0  0  0  0  0  0  0  0  0
    6.8636    2.2015    0.0000 H   0  0  0  0  0  0  0  0  0  0  0  0
    5.9371    3.8066    0.0000 H   0  0  0  0  0  0  0  0  0  0  0  0
    6.8637    3.2715    0.0000 H   0  0  0  0  0  0  0  0  0  0  0  0
    5.3449    3.9652    0.0000 H   0  0  0  0  0  0  0  0  0  0  0  0
    3.7399    3.0385    0.0000 H   0  0  0  0  0  0  0  0  0  0  0  0
    4.2749    3.9651    0.0000 H   0  0  0  0  0  0  0  0  0  0  0  0
    5.1001    0.6829    0.0000 H   0  0  0  0  0  0  0  0  0  0  0  0
    6.7050    1.6097    0.0000 H   0  0  0  0  0  0  0  0  0  0  0  0
    6.1701    0.6830    0.0000 H   0  0  0  0  0  0  0  0  0  0  0  0
    4.7201   -0.6860    0.0000 H   0  0  0  0  0  0  0  0  0  0  0  0
    4.7201    0.3840    0.0000 H   0  0  0  0  0  0  0  0  0  0  0  0
    4.6872   -1.2850    0.0000 H   0  0  0  0  0  0  0  0  0  0  0  0
    3.0790   -4.0705    0.0000 H   0  0  0  0  0  0  0  0  0  0  0  0
    1.4708   -3.1420    0.0000 H   0  0  0  0  0  0  0  0  0  0  0  0
    4.5080   -4.1085    0.0000 H   0  0  0  0  0  0  0  0  0  0  0  0
    5.4346   -2.5035    0.0000 H   0  0  0  0  0  0  0  0  0  0  0  0
    5.4347   -3.5735    0.0000 H   0  0  0  0  0  0  0  0  0  0  0  0
  1 14  1  0  0  0  0
  2  7  1  0  0  0  0
  2 19  1  0  0  0  0
  3 11  1  0  0  0  0
  3 12  1  0  0  0  0
  4  5  1  0  0  0  0
  4  6  1  0  0  0  0
  4 20  1  0  0  0  0
  5  8  1  0  0  0  0
  5  9  1  0  0  0  0
  5 10  1  0  0  0  0
  6  7  1  0  0  0  0
  6 21  1  0  0  0  0
  6 22  1  0  0  0  0
  7 11  1  0  0  0  0
  7 23  1  0  0  0  0
  8 24  1  0  0  0  0
  8 25  1  0  0  0  0
  8 26  1  0  0  0  0
  9 27  1  0  0  0  0
  9 28  1  0  0  0  0
  9 29  1  0  0  0  0
 10 30  1  0  0  0  0
 10 31  1  0  0  0  0
 10 32  1  0  0  0  0
 11 33  1  0  0  0  0
 11 34  1  0  0  0  0
 12 13  1  0  0  0  0
 12 14  2  0  0  0  0
 13 15  2  0  0  0  0
 13 35  1  0  0  0  0
 14 17  1  0  0  0  0
 15 16  1  0  0  0  0
 15 18  1  0  0  0  0
 16 17  2  0  0  0  0
 16 36  1  0  0  0  0
 17 37  1  0  0  0  0
 18 38  1  0  0  0  0
 18 39  1  0  0  0  0
 18 40  1  0  0  0  0
M  END
>  <DRUGBANK_ID>
DB08808

>  <COMMON_NAME>
Bupranolol

>  <CAS_NUMBER>
14556-46-8

>  <UNII>
858YGI5PIT

>  <SYNONYMS>
Bupranolol; Bupranololum

$$$$
