MD7
 OpenBabel10282417072D

 39 41  0  0  0  0  0  0  0  0999 V2000
    3.3170    2.1498    0.0000 C   0  0  0  0  0  0  0  0  0  0  0  0
    3.7295    1.4354    0.0000 C   0  0  0  0  0  0  0  0  0  0  0  0
    2.9045    1.4354    0.0000 C   0  0  0  0  0  0  0  0  0  0  0  0
    2.1900    1.0229    0.0000 C   0  0  0  0  0  0  0  0  0  0  0  0
    2.1900    0.1979    0.0000 O   0  0  0  0  0  0  0  0  0  0  0  0
    1.4755    1.4354    0.0000 C   0  0  0  0  0  0  0  0  0  0  0  0
    1.4755    2.2604    0.0000 C   0  0  0  0  0  0  0  0  0  0  0  0
    1.4755    3.0854    0.0000 N   0  0  0  0  0  0  0  0  0  0  0  0
    0.7610    1.0229    0.0000 C   0  0  0  0  0  0  0  0  0  0  0  0
    0.0466    1.4354    0.0000 O   0  0  0  0  0  0  0  0  0  0  0  0
    0.7610    0.1979    0.0000 N   0  0  0  0  0  0  0  0  0  0  0  0
    0.0466   -0.2146    0.0000 C   0  0  0  0  0  0  0  0  0  0  0  0
    0.0466   -1.0396    0.0000 C   0  0  0  0  0  0  0  0  0  0  0  0
   -0.6679   -1.4521    0.0000 C   0  0  0  0  0  0  0  0  0  0  0  0
   -0.6679    0.1979    0.0000 C   0  0  0  0  0  0  0  0  0  0  0  0
   -1.3824   -0.2146    0.0000 C   0  0  0  0  0  0  0  0  0  0  0  0
   -1.3824   -1.0396    0.0000 C   0  0  0  0  0  0  0  0  0  0  0  0
   -2.0968   -1.4521    0.0000 C   0  0  0  0  0  0  0  0  0  0  0  0
   -2.0968   -2.2771    0.0000 C   0  0  0  0  0  0  0  0  0  0  0  0
   -2.8113   -2.6896    0.0000 C   0  0  0  0  0  0  0  0  0  0  0  0
   -3.5258   -2.2771    0.0000 C   0  0  0  0  0  0  0  0  0  0  0  0
   -3.5258   -1.4521    0.0000 C   0  0  0  0  0  0  0  0  0  0  0  0
   -2.8113   -1.0396    0.0000 C   0  0  0  0  0  0  0  0  0  0  0  0
    3.3170    3.2198    0.0000 H   0  0  0  0  0  0  0  0  0  0  0  0
    2.2835    2.4268    0.0000 H   0  0  0  0  0  0  0  0  0  0  0  0
    4.6562    0.9004    0.0000 H   0  0  0  0  0  0  0  0  0  0  0  0
    3.4526    0.4019    0.0000 H   0  0  0  0  0  0  0  0  0  0  0  0
    3.1814    0.4019    0.0000 H   0  0  0  0  0  0  0  0  0  0  0  0
    1.3785   -0.2706    0.0000 H   0  0  0  0  0  0  0  0  0  0  0  0
    1.6136   -0.2943    0.0000 H   0  0  0  0  0  0  0  0  0  0  0  0
    0.9403   -1.5556    0.0000 H   0  0  0  0  0  0  0  0  0  0  0  0
   -0.6679   -2.4841    0.0000 H   0  0  0  0  0  0  0  0  0  0  0  0
   -0.6679    1.2299    0.0000 H   0  0  0  0  0  0  0  0  0  0  0  0
   -2.2761    0.3014    0.0000 H   0  0  0  0  0  0  0  0  0  0  0  0
   -1.2031   -2.7931    0.0000 H   0  0  0  0  0  0  0  0  0  0  0  0
   -2.8113   -3.7216    0.0000 H   0  0  0  0  0  0  0  0  0  0  0  0
   -4.4195   -2.7931    0.0000 H   0  0  0  0  0  0  0  0  0  0  0  0
   -4.4195   -0.9361    0.0000 H   0  0  0  0  0  0  0  0  0  0  0  0
   -2.8113   -0.0076    0.0000 H   0  0  0  0  0  0  0  0  0  0  0  0
  1  2  1  0  0  0  0
  1  3  1  0  0  0  0
  1 24  1  0  0  0  0
  1 25  1  0  0  0  0
  2  3  1  0  0  0  0
  2 26  1  0  0  0  0
  2 27  1  0  0  0  0
  3  4  1  0  0  0  0
  3 28  1  0  0  0  0
  4  5  1  0  0  0  0
  4  6  2  0  0  0  0
  5 29  1  0  0  0  0
  6  7  1  0  0  0  0
  6  9  1  0  0  0  0
  7  8  3  0  0  0  0
  9 10  2  0  0  0  0
  9 11  1  0  0  0  0
 11 12  1  0  0  0  0
 11 30  1  0  0  0  0
 12 13  2  0  0  0  0
 12 15  1  0  0  0  0
 13 14  1  0  0  0  0
 13 31  1  0  0  0  0
 14 17  2  0  0  0  0
 14 32  1  0  0  0  0
 15 16  2  0  0  0  0
 15 33  1  0  0  0  0
 16 17  1  0  0  0  0
 16 34  1  0  0  0  0
 17 18  1  0  0  0  0
 18 19  2  0  0  0  0
 18 23  1  0  0  0  0
 19 20  1  0  0  0  0
 19 35  1  0  0  0  0
 20 21  2  0  0  0  0
 20 36  1  0  0  0  0
 21 22  1  0  0  0  0
 21 37  1  0  0  0  0
 22 23  2  0  0  0  0
 22 38  1  0  0  0  0
 23 39  1  0  0  0  0
M  END
>  <DRUGBANK_ID>
DB08169

>  <COMMON_NAME>
(2Z)-N-biphenyl-4-yl-2-cyano-3-cyclopropyl-3-hydroxyprop-2-enamide

$$$$
