
 OpenBabel10282417072D

 71 72  0  0  1  0  0  0  0  0999 V2000
   -3.9970    1.4936    0.0000 C   0  0  0  0  0  0  0  0  0  0  0  0
   -3.4450    0.8806    0.0000 C   0  0  0  0  0  0  0  0  0  0  0  0
   -2.6380    1.0521    0.0000 N   0  0  0  0  0  0  0  0  0  0  0  0
   -2.0860    0.4390    0.0000 C   0  0  0  0  0  0  0  0  0  0  0  0
   -1.2790    0.6105    0.0000 C   0  0  0  0  0  0  0  0  0  0  0  0
   -0.7270   -0.0026    0.0000 S   0  0  0  0  0  0  0  0  0  0  0  0
   -1.3401   -0.5546    0.0000 O   0  0  0  0  0  0  0  0  0  0  0  0
   -0.1139    0.5495    0.0000 O   0  0  0  0  0  0  0  0  0  0  0  0
   -0.1749   -0.6157    0.0000 N   0  0  0  0  0  0  0  0  0  0  0  0
    0.6320   -0.4441    0.0000 C   0  0  0  0  0  0  0  0  0  0  0  0
    1.1841   -1.0572    0.0000 C   0  0  2  0  0  0  0  0  0  0  0  0
    1.8515   -1.5422    0.0000 N   0  0  0  0  0  0  0  0  0  0  0  0
    1.5966   -2.3268    0.0000 N   0  0  0  0  0  0  0  0  0  0  0  0
    0.7716   -2.3268    0.0000 C   0  0  0  0  0  0  0  0  0  0  0  0
    0.5166   -1.5422    0.0000 S   0  0  0  0  0  0  0  0  0  0  0  0
    0.2866   -2.9942    0.0000 N   0  0  0  0  0  0  0  0  0  0  0  0
    0.6222   -3.7479    0.0000 C   0  0  0  0  0  0  0  0  0  0  0  0
    0.1373   -4.4153    0.0000 O   0  0  0  0  0  0  0  0  0  0  0  0
    1.4427   -3.8341    0.0000 C   0  0  0  0  0  0  0  0  0  0  0  0
    2.2632   -3.9204    0.0000 C   0  0  0  0  0  0  0  0  0  0  0  0
    1.3564   -4.6546    0.0000 C   0  0  0  0  0  0  0  0  0  0  0  0
    1.5289   -3.0137    0.0000 C   0  0  0  0  0  0  0  0  0  0  0  0
    2.6361   -1.2872    0.0000 C   0  0  0  0  0  0  0  0  0  0  0  0
    3.0486   -0.5728    0.0000 O   0  0  0  0  0  0  0  0  0  0  0  0
    3.2492   -1.8393    0.0000 C   0  0  0  0  0  0  0  0  0  0  0  0
    2.6972   -2.4524    0.0000 C   0  0  0  0  0  0  0  0  0  0  0  0
    3.8012   -1.2262    0.0000 C   0  0  0  0  0  0  0  0  0  0  0  0
    3.8623   -2.3913    0.0000 C   0  0  0  0  0  0  0  0  0  0  0  0
    1.7361   -0.4441    0.0000 C   0  0  0  0  0  0  0  0  0  0  0  0
    1.4812    0.3405    0.0000 C   0  0  0  0  0  0  0  0  0  0  0  0
    2.0332    0.9536    0.0000 C   0  0  0  0  0  0  0  0  0  0  0  0
    2.8402    0.7820    0.0000 C   0  0  0  0  0  0  0  0  0  0  0  0
    3.0951   -0.0026    0.0000 C   0  0  0  0  0  0  0  0  0  0  0  0
    2.5431   -0.6157    0.0000 C   0  0  0  0  0  0  0  0  0  0  0  0
   -3.6664    2.5112    0.0000 H   0  0  0  0  0  0  0  0  0  0  0  0
   -5.0436    1.2711    0.0000 H   0  0  0  0  0  0  0  0  0  0  0  0
   -4.7130    2.2887    0.0000 H   0  0  0  0  0  0  0  0  0  0  0  0
   -3.7756   -0.1370    0.0000 H   0  0  0  0  0  0  0  0  0  0  0  0
   -2.7290    0.0854    0.0000 H   0  0  0  0  0  0  0  0  0  0  0  0
   -2.3228    2.0222    0.0000 H   0  0  0  0  0  0  0  0  0  0  0  0
   -2.4167   -0.5786    0.0000 H   0  0  0  0  0  0  0  0  0  0  0  0
   -1.3701   -0.3562    0.0000 H   0  0  0  0  0  0  0  0  0  0  0  0
   -0.9483    1.6281    0.0000 H   0  0  0  0  0  0  0  0  0  0  0  0
   -0.2324    0.8329    0.0000 H   0  0  0  0  0  0  0  0  0  0  0  0
   -0.4900   -1.5858    0.0000 H   0  0  0  0  0  0  0  0  0  0  0  0
    0.9626    0.5736    0.0000 H   0  0  0  0  0  0  0  0  0  0  0  0
    1.6786   -0.2216    0.0000 H   0  0  0  0  0  0  0  0  0  0  0  0
   -0.6925   -2.8913    0.0000 H   0  0  0  0  0  0  0  0  0  0  0  0
    2.6983   -4.8979    0.0000 H   0  0  0  0  0  0  0  0  0  0  0  0
    2.8922   -3.0548    0.0000 H   0  0  0  0  0  0  0  0  0  0  0  0
    3.3273   -4.0323    0.0000 H   0  0  0  0  0  0  0  0  0  0  0  0
    0.3789   -5.0897    0.0000 H   0  0  0  0  0  0  0  0  0  0  0  0
    2.2220   -5.2836    0.0000 H   0  0  0  0  0  0  0  0  0  0  0  0
    1.2445   -5.7187    0.0000 H   0  0  0  0  0  0  0  0  0  0  0  0
    2.5064   -2.5785    0.0000 H   0  0  0  0  0  0  0  0  0  0  0  0
    0.6632   -2.3848    0.0000 H   0  0  0  0  0  0  0  0  0  0  0  0
    1.6407   -1.9496    0.0000 H   0  0  0  0  0  0  0  0  0  0  0  0
    1.6506   -2.2300    0.0000 H   0  0  0  0  0  0  0  0  0  0  0  0
    3.0279   -3.4700    0.0000 H   0  0  0  0  0  0  0  0  0  0  0  0
    1.9813   -3.2476    0.0000 H   0  0  0  0  0  0  0  0  0  0  0  0
    4.8478   -1.4486    0.0000 H   0  0  0  0  0  0  0  0  0  0  0  0
    3.4705   -0.2086    0.0000 H   0  0  0  0  0  0  0  0  0  0  0  0
    4.5171   -0.4310    0.0000 H   0  0  0  0  0  0  0  0  0  0  0  0
    3.6399   -3.4379    0.0000 H   0  0  0  0  0  0  0  0  0  0  0  0
    4.8799   -2.0606    0.0000 H   0  0  0  0  0  0  0  0  0  0  0  0
    4.6575   -3.1072    0.0000 H   0  0  0  0  0  0  0  0  0  0  0  0
    0.4718    0.5551    0.0000 H   0  0  0  0  0  0  0  0  0  0  0  0
    1.7143    1.9351    0.0000 H   0  0  0  0  0  0  0  0  0  0  0  0
    3.5308    1.5489    0.0000 H   0  0  0  0  0  0  0  0  0  0  0  0
    4.1045   -0.2172    0.0000 H   0  0  0  0  0  0  0  0  0  0  0  0
    2.8620   -1.5972    0.0000 H   0  0  0  0  0  0  0  0  0  0  0  0
  1  2  1  0  0  0  0
  1 35  1  0  0  0  0
  1 36  1  0  0  0  0
  1 37  1  0  0  0  0
  2  3  1  0  0  0  0
  2 38  1  0  0  0  0
  2 39  1  0  0  0  0
  3  4  1  0  0  0  0
  3 40  1  0  0  0  0
  4  5  1  0  0  0  0
  4 41  1  0  0  0  0
  4 42  1  0  0  0  0
  5  6  1  0  0  0  0
  5 43  1  0  0  0  0
  5 44  1  0  0  0  0
  6  7  2  0  0  0  0
  6  8  2  0  0  0  0
  6  9  1  0  0  0  0
  9 10  1  0  0  0  0
  9 45  1  0  0  0  0
 10 46  1  0  0  0  0
 10 47  1  0  0  0  0
 11 10  1  6  0  0  0
 11 12  1  0  0  0  0
 11 15  1  0  0  0  0
 11 29  1  0  0  0  0
 12 13  1  0  0  0  0
 12 23  1  0  0  0  0
 13 14  2  0  0  0  0
 14 15  1  0  0  0  0
 14 16  1  0  0  0  0
 16 17  1  0  0  0  0
 16 48  1  0  0  0  0
 17 18  2  0  0  0  0
 17 19  1  0  0  0  0
 19 20  1  0  0  0  0
 19 21  1  0  0  0  0
 19 22  1  0  0  0  0
 20 49  1  0  0  0  0
 20 50  1  0  0  0  0
 20 51  1  0  0  0  0
 21 52  1  0  0  0  0
 21 53  1  0  0  0  0
 21 54  1  0  0  0  0
 22 55  1  0  0  0  0
 22 56  1  0  0  0  0
 22 57  1  0  0  0  0
 23 24  2  0  0  0  0
 23 25  1  0  0  0  0
 25 26  1  0  0  0  0
 25 27  1  0  0  0  0
 25 28  1  0  0  0  0
 26 58  1  0  0  0  0
 26 59  1  0  0  0  0
 26 60  1  0  0  0  0
 27 61  1  0  0  0  0
 27 62  1  0  0  0  0
 27 63  1  0  0  0  0
 28 64  1  0  0  0  0
 28 65  1  0  0  0  0
 28 66  1  0  0  0  0
 29 30  2  0  0  0  0
 29 34  1  0  0  0  0
 30 31  1  0  0  0  0
 30 67  1  0  0  0  0
 31 32  2  0  0  0  0
 31 68  1  0  0  0  0
 32 33  1  0  0  0  0
 32 69  1  0  0  0  0
 33 34  2  0  0  0  0
 33 70  1  0  0  0  0
 34 71  1  0  0  0  0
M  END
>  <DRUGBANK_ID>
DB11861

>  <COMMON_NAME>
Litronesib

>  <CAS_NUMBER>
910634-41-2

>  <UNII>
6611F8KYCV

>  <SYNONYMS>
Litronesib

$$$$
