
 OpenBabel10282417072D

 50 54  0  0  0  0  0  0  0  0999 V2000
   -1.7458   -0.3561    0.0000 C   0  0  0  0  0  0  0  0  0  0  0  0
   -0.9208   -0.3561    0.0000 C   0  0  0  0  0  0  0  0  0  0  0  0
   -2.1583    0.3563    0.0000 C   0  0  0  0  0  0  0  0  0  0  0  0
   -2.1583   -1.0728    0.0000 C   0  0  0  0  0  0  0  0  0  0  0  0
   -2.9833    0.3563    0.0000 C   0  0  0  0  0  0  0  0  0  0  0  0
   -0.4374   -1.0270    0.0000 N   0  0  0  0  0  0  0  0  0  0  0  0
   -2.9833   -1.0728    0.0000 N   0  0  0  0  0  0  0  0  0  0  0  0
   -0.4374    0.3104    0.0000 N   0  0  0  0  0  0  0  0  0  0  0  0
   -3.3958   -0.3561    0.0000 C   0  0  0  0  0  0  0  0  0  0  0  0
    0.3458    0.0563    0.0000 C   0  0  0  0  0  0  0  0  0  0  0  0
    2.4916    0.4688    0.0000 N   0  0  0  0  0  0  0  0  0  0  0  0
    0.3458   -0.7686    0.0000 C   0  0  0  0  0  0  0  0  0  0  0  0
    1.0625    0.4688    0.0000 C   0  0  0  0  0  0  0  0  0  0  0  0
    1.7750    0.0563    0.0000 C   0  0  0  0  0  0  0  0  0  0  0  0
    3.9208    1.2938    0.0000 N   0  0  0  0  0  0  0  0  0  0  0  0
   -3.3958    1.0729    0.0000 C   0  0  0  0  0  0  0  0  0  0  0  0
   -1.7458   -1.7854    0.0000 O   0  0  0  0  0  0  0  0  0  0  0  0
   -1.7458    1.0729    0.0000 N   0  0  0  0  0  0  0  0  0  0  0  0
    3.2041    0.0563    0.0000 C   0  0  0  0  0  0  0  0  0  0  0  0
    2.4916    1.2938    0.0000 C   0  0  0  0  0  0  0  0  0  0  0  0
    1.0625   -1.1812    0.0000 C   0  0  0  0  0  0  0  0  0  0  0  0
    1.7750   -0.7686    0.0000 C   0  0  0  0  0  0  0  0  0  0  0  0
    3.2041    1.7063    0.0000 C   0  0  0  0  0  0  0  0  0  0  0  0
    3.9208    0.4688    0.0000 C   0  0  0  0  0  0  0  0  0  0  0  0
   -2.9833    1.7854    0.0000 F   0  0  0  0  0  0  0  0  0  0  0  0
   -4.2208   -0.3561    0.0000 C   0  0  0  0  0  0  0  0  0  0  0  0
    4.6333    1.7063    0.0000 C   0  0  0  0  0  0  0  0  0  0  0  0
   -4.6333    0.3563    0.0000 C   0  0  0  0  0  0  0  0  0  0  0  0
   -4.2208    1.0729    0.0000 C   0  0  0  0  0  0  0  0  0  0  0  0
   -3.4761   -1.9251    0.0000 H   0  0  0  0  0  0  0  0  0  0  0  0
   -0.7422    1.2465    0.0000 H   0  0  0  0  0  0  0  0  0  0  0  0
    1.0638    1.5008    0.0000 H   0  0  0  0  0  0  0  0  0  0  0  0
   -0.7613    1.0742    0.0000 H   0  0  0  0  0  0  0  0  0  0  0  0
   -2.2391    1.9249    0.0000 H   0  0  0  0  0  0  0  0  0  0  0  0
    3.2027   -1.0137    0.0000 H   0  0  0  0  0  0  0  0  0  0  0  0
    4.1300   -0.4799    0.0000 H   0  0  0  0  0  0  0  0  0  0  0  0
    1.5646    1.8282    0.0000 H   0  0  0  0  0  0  0  0  0  0  0  0
    2.4906    2.3638    0.0000 H   0  0  0  0  0  0  0  0  0  0  0  0
    1.0638   -2.2132    0.0000 H   0  0  0  0  0  0  0  0  0  0  0  0
    2.6691   -1.2840    0.0000 H   0  0  0  0  0  0  0  0  0  0  0  0
    3.2027    2.7763    0.0000 H   0  0  0  0  0  0  0  0  0  0  0  0
    2.2768    2.2402    0.0000 H   0  0  0  0  0  0  0  0  0  0  0  0
    4.8471   -0.0668    0.0000 H   0  0  0  0  0  0  0  0  0  0  0  0
    4.8476    1.0035    0.0000 H   0  0  0  0  0  0  0  0  0  0  0  0
   -4.7362   -1.2502    0.0000 H   0  0  0  0  0  0  0  0  0  0  0  0
    5.5606    1.1724    0.0000 H   0  0  0  0  0  0  0  0  0  0  0  0
    4.6320    2.7763    0.0000 H   0  0  0  0  0  0  0  0  0  0  0  0
    5.5593    2.2424    0.0000 H   0  0  0  0  0  0  0  0  0  0  0  0
   -5.6653    0.3550    0.0000 H   0  0  0  0  0  0  0  0  0  0  0  0
   -4.7374    1.9663    0.0000 H   0  0  0  0  0  0  0  0  0  0  0  0
  2  1  1  0  0  0  0
  3  1  2  0  0  0  0
  4  1  1  0  0  0  0
  5  3  1  0  0  0  0
  6  2  2  0  0  0  0
  7  4  1  0  0  0  0
  7  9  1  0  0  0  0
  7 30  1  0  0  0  0
  8  2  1  0  0  0  0
  8 31  1  0  0  0  0
  9  5  2  0  0  0  0
 10  8  1  0  0  0  0
 10 12  1  0  0  0  0
 11 14  1  0  0  0  0
 12  6  1  0  0  0  0
 13 10  2  0  0  0  0
 13 32  1  0  0  0  0
 14 13  1  0  0  0  0
 15 23  1  0  0  0  0
 16  5  1  0  0  0  0
 17  4  2  0  0  0  0
 18  3  1  0  0  0  0
 18 33  1  0  0  0  0
 18 34  1  0  0  0  0
 19 11  1  0  0  0  0
 19 35  1  0  0  0  0
 19 36  1  0  0  0  0
 20 11  1  0  0  0  0
 20 37  1  0  0  0  0
 20 38  1  0  0  0  0
 21 12  2  0  0  0  0
 21 39  1  0  0  0  0
 22 21  1  0  0  0  0
 22 14  2  0  0  0  0
 22 40  1  0  0  0  0
 23 20  1  0  0  0  0
 23 41  1  0  0  0  0
 23 42  1  0  0  0  0
 24 19  1  0  0  0  0
 24 15  1  0  0  0  0
 24 43  1  0  0  0  0
 24 44  1  0  0  0  0
 25 16  1  0  0  0  0
 26  9  1  0  0  0  0
 26 45  1  0  0  0  0
 27 15  1  0  0  0  0
 27 46  1  0  0  0  0
 27 47  1  0  0  0  0
 27 48  1  0  0  0  0
 28 29  1  0  0  0  0
 28 26  2  0  0  0  0
 28 49  1  0  0  0  0
 29 16  2  0  0  0  0
 29 50  1  0  0  0  0
M  END
>  <DRUGBANK_ID>
DB05928

>  <COMMON_NAME>
Dovitinib

>  <CAS_NUMBER>
405169-16-6

>  <UNII>
I35H55G906

>  <SYNONYMS>
Dovitinib

$$$$
