972
 OpenBabel10282417072D

 51 54  0  0  1  0  0  0  0  0999 V2000
    2.0447   -3.0338    0.0000 Cl  0  0  0  0  0  0  0  0  0  0  0  0
    4.9026    1.9162    0.0000 O   0  0  0  0  0  0  0  0  0  0  0  0
    2.1147    2.3521    0.0000 N   0  0  0  0  0  0  0  0  0  0  0  0
    4.1881    0.6787    0.0000 N   0  0  0  0  0  0  0  0  0  0  0  0
    4.1881   -0.1463    0.0000 N   0  0  0  0  0  0  0  0  0  0  0  0
    3.4737    1.0912    0.0000 C   0  0  3  0  0  0  0  0  0  0  0  0
    2.7920    0.6265    0.0000 C   0  0  0  0  0  0  0  0  0  0  0  0
    3.5353    1.9139    0.0000 C   0  0  0  0  0  0  0  0  0  0  0  0
    2.0037    0.8696    0.0000 C   0  0  0  0  0  0  0  0  0  0  0  0
    2.9306    2.4751    0.0000 C   0  0  0  0  0  0  0  0  0  0  0  0
    1.7022    1.6376    0.0000 C   0  0  0  0  0  0  0  0  0  0  0  0
    4.9026    1.0912    0.0000 C   0  0  0  0  0  0  0  0  0  0  0  0
    1.6500    3.0338    0.0000 C   0  0  0  0  0  0  0  0  0  0  0  0
    5.6170    0.6787    0.0000 C   0  0  0  0  0  0  0  0  0  0  0  0
    4.9026   -0.5588    0.0000 C   0  0  0  0  0  0  0  0  0  0  0  0
    5.6170   -0.1463    0.0000 C   0  0  0  0  0  0  0  0  0  0  0  0
    4.9026   -1.3838    0.0000 C   0  0  0  0  0  0  0  0  0  0  0  0
    6.3546    1.1199    0.0000 C   0  0  0  0  0  0  0  0  0  0  0  0
    6.3546   -0.5873    0.0000 C   0  0  0  0  0  0  0  0  0  0  0  0
    4.1881   -1.7963    0.0000 C   0  0  0  0  0  0  0  0  0  0  0  0
    7.1021    0.6959    0.0000 C   0  0  0  0  0  0  0  0  0  0  0  0
    7.1021   -0.1634    0.0000 C   0  0  0  0  0  0  0  0  0  0  0  0
    4.1881   -2.6213    0.0000 C   0  0  0  0  0  0  0  0  0  0  0  0
    3.4737   -1.3838    0.0000 C   0  0  0  0  0  0  0  0  0  0  0  0
    3.4737   -3.0338    0.0000 C   0  0  0  0  0  0  0  0  0  0  0  0
    2.7591   -1.7963    0.0000 C   0  0  0  0  0  0  0  0  0  0  0  0
    2.7591   -2.6213    0.0000 C   0  0  0  0  0  0  0  0  0  0  0  0
    3.5136    0.0219    0.0000 H   0  0  0  0  0  0  0  0  0  0  0  0
    2.9515   -0.4315    0.0000 H   0  0  0  0  0  0  0  0  0  0  0  0
    1.9810   -0.0715    0.0000 H   0  0  0  0  0  0  0  0  0  0  0  0
    4.5313    2.3048    0.0000 H   0  0  0  0  0  0  0  0  0  0  0  0
    3.7343    2.9652    0.0000 H   0  0  0  0  0  0  0  0  0  0  0  0
    1.2760    0.0852    0.0000 H   0  0  0  0  0  0  0  0  0  0  0  0
    0.9523    1.0684    0.0000 H   0  0  0  0  0  0  0  0  0  0  0  0
    3.2460    3.4976    0.0000 H   0  0  0  0  0  0  0  0  0  0  0  0
    3.9642    2.7520    0.0000 H   0  0  0  0  0  0  0  0  0  0  0  0
    0.6352    1.7175    0.0000 H   0  0  0  0  0  0  0  0  0  0  0  0
    1.0669    0.7766    0.0000 H   0  0  0  0  0  0  0  0  0  0  0  0
    2.1143    3.9978    0.0000 H   0  0  0  0  0  0  0  0  0  0  0  0
    0.5830    2.9539    0.0000 H   0  0  0  0  0  0  0  0  0  0  0  0
    1.0473    3.9179    0.0000 H   0  0  0  0  0  0  0  0  0  0  0  0
    5.8292   -1.9188    0.0000 H   0  0  0  0  0  0  0  0  0  0  0  0
    4.9026   -2.4538    0.0000 H   0  0  0  0  0  0  0  0  0  0  0  0
    6.3427    2.1518    0.0000 H   0  0  0  0  0  0  0  0  0  0  0  0
    6.3427   -1.6192    0.0000 H   0  0  0  0  0  0  0  0  0  0  0  0
    7.9939    1.2153    0.0000 H   0  0  0  0  0  0  0  0  0  0  0  0
    7.9938   -0.6829    0.0000 H   0  0  0  0  0  0  0  0  0  0  0  0
    5.0818   -3.1373    0.0000 H   0  0  0  0  0  0  0  0  0  0  0  0
    3.4738   -0.3518    0.0000 H   0  0  0  0  0  0  0  0  0  0  0  0
    3.4738   -4.0658    0.0000 H   0  0  0  0  0  0  0  0  0  0  0  0
    1.8654   -1.2803    0.0000 H   0  0  0  0  0  0  0  0  0  0  0  0
  1 27  1  0  0  0  0
  2 12  2  0  0  0  0
  3 10  1  0  0  0  0
  3 11  1  0  0  0  0
  3 13  1  0  0  0  0
  4  5  1  0  0  0  0
  4  6  1  0  0  0  0
  4 12  1  0  0  0  0
  5 15  2  0  0  0  0
  6  7  1  0  0  0  0
  6  8  1  0  0  0  0
  6 28  1  0  0  0  0
  7  9  1  0  0  0  0
  7 29  1  0  0  0  0
  7 30  1  0  0  0  0
  8 10  1  0  0  0  0
  8 31  1  0  0  0  0
  8 32  1  0  0  0  0
  9 11  1  0  0  0  0
  9 33  1  0  0  0  0
  9 34  1  0  0  0  0
 10 35  1  0  0  0  0
 10 36  1  0  0  0  0
 11 37  1  0  0  0  0
 11 38  1  0  0  0  0
 12 14  1  0  0  0  0
 13 39  1  0  0  0  0
 13 40  1  0  0  0  0
 13 41  1  0  0  0  0
 14 16  1  0  0  0  0
 14 18  2  0  0  0  0
 15 16  1  0  0  0  0
 15 17  1  0  0  0  0
 16 19  2  0  0  0  0
 17 20  1  0  0  0  0
 17 42  1  0  0  0  0
 17 43  1  0  0  0  0
 18 21  1  0  0  0  0
 18 44  1  0  0  0  0
 19 22  1  0  0  0  0
 19 45  1  0  0  0  0
 20 23  2  0  0  0  0
 20 24  1  0  0  0  0
 21 22  2  0  0  0  0
 21 46  1  0  0  0  0
 22 47  1  0  0  0  0
 23 25  1  0  0  0  0
 23 48  1  0  0  0  0
 24 26  2  0  0  0  0
 24 49  1  0  0  0  0
 25 27  2  0  0  0  0
 25 50  1  0  0  0  0
 26 27  1  0  0  0  0
 26 51  1  0  0  0  0
M  END
>  <DRUGBANK_ID>
DB00972

>  <SECONDARY_ACCESSION_NUMBERS>
APRD00813

>  <COMMON_NAME>
Azelastine

>  <CAS_NUMBER>
58581-89-8

>  <UNII>
ZQI909440X

>  <SYNONYMS>
4-(p-Chlorobenzyl)-2-(hexahydro-1-methyl-1H-azepin-4-yl)-1-(2H)-phthalazinone; Azelastina; Azelastine; Az√©lastine; Azelastinum

$$$$
