S79
 OpenBabel10282417072D

 43 47  0  0  0  0  0  0  0  0999 V2000
   -4.5852   -1.4641    0.0000 N   0  0  0  0  0  0  0  0  0  0  0  0
   -3.8708   -1.0516    0.0000 C   0  0  0  0  0  0  0  0  0  0  0  0
   -3.1563   -1.4641    0.0000 N   0  0  0  0  0  0  0  0  0  0  0  0
   -2.4418   -1.0516    0.0000 C   0  0  0  0  0  0  0  0  0  0  0  0
   -1.7273   -1.4641    0.0000 C   0  0  0  0  0  0  0  0  0  0  0  0
   -1.0129   -1.0516    0.0000 C   0  0  0  0  0  0  0  0  0  0  0  0
   -0.2283   -1.3066    0.0000 N   0  0  0  0  0  0  0  0  0  0  0  0
    0.2567   -0.6391    0.0000 C   0  0  0  0  0  0  0  0  0  0  0  0
    1.0817   -0.6391    0.0000 N   0  0  0  0  0  0  0  0  0  0  0  0
    1.4942    0.0754    0.0000 C   0  0  0  0  0  0  0  0  0  0  0  0
    2.3192    0.0754    0.0000 C   0  0  0  0  0  0  0  0  0  0  0  0
    2.7317    0.7898    0.0000 C   0  0  0  0  0  0  0  0  0  0  0  0
    2.3192    1.5043    0.0000 C   0  0  0  0  0  0  0  0  0  0  0  0
    2.7317    2.2188    0.0000 C   0  0  0  0  0  0  0  0  0  0  0  0
    3.5567    2.2188    0.0000 C   0  0  0  0  0  0  0  0  0  0  0  0
    3.9692    1.5043    0.0000 C   0  0  0  0  0  0  0  0  0  0  0  0
    3.5567    0.7898    0.0000 C   0  0  0  0  0  0  0  0  0  0  0  0
    3.9692    0.0754    0.0000 C   0  0  0  0  0  0  0  0  0  0  0  0
    3.5567   -0.6391    0.0000 C   0  0  0  0  0  0  0  0  0  0  0  0
    2.7317   -0.6391    0.0000 C   0  0  0  0  0  0  0  0  0  0  0  0
   -0.2283    0.0283    0.0000 N   0  0  0  0  0  0  0  0  0  0  0  0
   -1.0129   -0.2266    0.0000 C   0  0  0  0  0  0  0  0  0  0  0  0
   -1.7273    0.1859    0.0000 C   0  0  0  0  0  0  0  0  0  0  0  0
   -2.4418   -0.2266    0.0000 C   0  0  0  0  0  0  0  0  0  0  0  0
   -3.1563    0.1859    0.0000 C   0  0  0  0  0  0  0  0  0  0  0  0
   -3.1563    1.0109    0.0000 O   0  0  0  0  0  0  0  0  0  0  0  0
   -3.8708   -0.2266    0.0000 N   0  0  0  0  0  0  0  0  0  0  0  0
   -5.4378   -0.9719    0.0000 H   0  0  0  0  0  0  0  0  0  0  0  0
   -4.5852   -2.4486    0.0000 H   0  0  0  0  0  0  0  0  0  0  0  0
   -1.7273   -2.4961    0.0000 H   0  0  0  0  0  0  0  0  0  0  0  0
    0.0759   -2.2429    0.0000 H   0  0  0  0  0  0  0  0  0  0  0  0
    1.5740   -1.4917    0.0000 H   0  0  0  0  0  0  0  0  0  0  0  0
    0.9592    1.0020    0.0000 H   0  0  0  0  0  0  0  0  0  0  0  0
    2.0292    1.0020    0.0000 H   0  0  0  0  0  0  0  0  0  0  0  0
    1.2872    1.5043    0.0000 H   0  0  0  0  0  0  0  0  0  0  0  0
    2.2157    3.1125    0.0000 H   0  0  0  0  0  0  0  0  0  0  0  0
    4.0727    3.1125    0.0000 H   0  0  0  0  0  0  0  0  0  0  0  0
    5.0012    1.5043    0.0000 H   0  0  0  0  0  0  0  0  0  0  0  0
    5.0012    0.0754    0.0000 H   0  0  0  0  0  0  0  0  0  0  0  0
    4.0727   -1.5328    0.0000 H   0  0  0  0  0  0  0  0  0  0  0  0
    2.2157   -1.5328    0.0000 H   0  0  0  0  0  0  0  0  0  0  0  0
   -1.7273    1.2179    0.0000 H   0  0  0  0  0  0  0  0  0  0  0  0
   -4.7234    0.2657    0.0000 H   0  0  0  0  0  0  0  0  0  0  0  0
  1 28  1  0  0  0  0
  1 29  1  0  0  0  0
  2 27  1  0  0  0  0
  2  1  1  0  0  0  0
  3  2  2  0  0  0  0
  4 24  1  0  0  0  0
  4  3  1  0  0  0  0
  5  4  2  0  0  0  0
  5 30  1  0  0  0  0
  6 22  2  0  0  0  0
  6  5  1  0  0  0  0
  7  6  1  0  0  0  0
  7 31  1  0  0  0  0
  8  7  1  0  0  0  0
  8 21  2  0  0  0  0
  9  8  1  0  0  0  0
  9 32  1  0  0  0  0
 10  9  1  0  0  0  0
 10 33  1  0  0  0  0
 10 34  1  0  0  0  0
 11 12  1  0  0  0  0
 11 10  1  0  0  0  0
 12 13  2  0  0  0  0
 13 14  1  0  0  0  0
 13 35  1  0  0  0  0
 14 36  1  0  0  0  0
 15 14  2  0  0  0  0
 15 37  1  0  0  0  0
 16 15  1  0  0  0  0
 16 38  1  0  0  0  0
 17 16  2  0  0  0  0
 17 12  1  0  0  0  0
 18 17  1  0  0  0  0
 18 39  1  0  0  0  0
 19 18  2  0  0  0  0
 19 20  1  0  0  0  0
 19 40  1  0  0  0  0
 20 11  2  0  0  0  0
 20 41  1  0  0  0  0
 21 22  1  0  0  0  0
 22 23  1  0  0  0  0
 23 24  2  0  0  0  0
 23 42  1  0  0  0  0
 24 25  1  0  0  0  0
 25 26  2  0  0  0  0
 25 27  1  0  0  0  0
 27 43  1  0  0  0  0
M  END
>  <DRUGBANK_ID>
DB08512

>  <COMMON_NAME>
6-amino-2-[(1-naphthylmethyl)amino]-3,7-dihydro-8H-imidazo[4,5-g]quinazolin-8-one

$$$$
