
 OpenBabel10282417072D

 75 79  0  0  1  0  0  0  0  0999 V2000
    0.7954   -0.1105    0.0000 C   0  0  0  0  0  0  0  0  0  0  0  0
   -0.0296   -5.8263    0.0000 C   0  0  0  0  0  0  0  0  0  0  0  0
    7.3954   -0.1105    0.0000 C   0  0  0  0  0  0  0  0  0  0  0  0
    0.7954   -5.8263    0.0000 C   0  0  0  0  0  0  0  0  0  0  0  0
    6.9829   -2.2539    0.0000 C   0  0  0  0  0  0  0  0  0  0  0  0
    1.2079   -0.8250    0.0000 C   0  0  0  0  0  0  0  0  0  0  0  0
   -0.4421   -2.2539    0.0000 C   0  0  0  0  0  0  0  0  0  0  0  0
    4.5079    0.6039    0.0000 C   0  0  0  0  0  0  0  0  0  0  0  0
   -0.0296   -1.5395    0.0000 C   0  0  0  0  0  0  0  0  0  0  0  0
    3.6829    0.6039    0.0000 C   0  0  0  0  0  0  0  0  0  0  0  0
    2.0329   -2.2539    0.0000 C   0  0  0  0  0  0  0  0  0  0  0  0
    3.2704   -1.5395    0.0000 C   0  0  0  0  0  0  0  0  0  0  0  0
   -0.4421   -3.6829    0.0000 C   0  0  0  0  0  0  0  0  0  0  0  0
    5.7454   -0.1105    0.0000 C   0  0  0  0  0  0  0  0  0  0  0  0
    1.2079   -3.6829    0.0000 C   0  0  0  0  0  0  0  0  0  0  0  0
    4.9204   -1.5395    0.0000 C   0  0  0  0  0  0  0  0  0  0  0  0
    2.4454   -0.1105    0.0000 C   0  0  0  0  0  0  0  0  0  0  0  0
    2.0329   -0.8250    0.0000 C   0  0  1  0  0  0  0  0  0  0  0  0
   -0.0296   -2.9684    0.0000 C   0  0  0  0  0  0  0  0  0  0  0  0
    4.9204   -0.1105    0.0000 C   0  0  0  0  0  0  0  0  0  0  0  0
    2.4454   -1.5395    0.0000 C   0  0  1  0  0  0  0  0  0  0  0  0
    0.7954   -2.9684    0.0000 C   0  0  0  0  0  0  0  0  0  0  0  0
    4.5079   -0.8250    0.0000 C   0  0  0  0  0  0  0  0  0  0  0  0
    1.2079   -2.2539    0.0000 C   0  0  2  0  0  0  0  0  0  0  0  0
    3.6829   -0.8250    0.0000 C   0  0  1  0  0  0  0  0  0  0  0  0
   -0.0296   -4.3974    0.0000 C   0  0  0  0  0  0  0  0  0  0  0  0
    6.1579   -0.8250    0.0000 C   0  0  0  0  0  0  0  0  0  0  0  0
    0.7954   -4.3974    0.0000 C   0  0  0  0  0  0  0  0  0  0  0  0
    5.7454   -1.5395    0.0000 C   0  0  0  0  0  0  0  0  0  0  0  0
    0.7954   -1.5395    0.0000 N   0  0  0  0  0  0  0  0  0  0  0  0
    3.2704   -0.1105    0.0000 N   0  0  3  0  0  0  0  0  0  0  0  0
   -0.4421   -5.1118    0.0000 O   0  0  0  0  0  0  0  0  0  0  0  0
    6.9829   -0.8250    0.0000 O   0  0  0  0  0  0  0  0  0  0  0  0
    1.2079   -5.1118    0.0000 O   0  0  0  0  0  0  0  0  0  0  0  0
    6.1579   -2.2539    0.0000 O   0  0  0  0  0  0  0  0  0  0  0  0
    1.6204   -1.5395    0.0000 H   0  0  0  0  0  0  0  0  0  0  0  0
    2.8579   -2.2539    0.0000 H   0  0  0  0  0  0  0  0  0  0  0  0
    1.6204   -2.9684    0.0000 H   0  0  0  0  0  0  0  0  0  0  0  0
    2.8579   -0.8250    0.0000 H   0  0  0  0  0  0  0  0  0  0  0  0
    1.3304    0.8161    0.0000 H   0  0  0  0  0  0  0  0  0  0  0  0
   -0.2746   -0.1105    0.0000 H   0  0  0  0  0  0  0  0  0  0  0  0
    0.2604    0.8162    0.0000 H   0  0  0  0  0  0  0  0  0  0  0  0
   -0.5646   -6.7529    0.0000 H   0  0  0  0  0  0  0  0  0  0  0  0
    1.0404   -5.8263    0.0000 H   0  0  0  0  0  0  0  0  0  0  0  0
    0.5054   -6.7530    0.0000 H   0  0  0  0  0  0  0  0  0  0  0  0
    8.4654   -0.1105    0.0000 H   0  0  0  0  0  0  0  0  0  0  0  0
    6.8604    0.8161    0.0000 H   0  0  0  0  0  0  0  0  0  0  0  0
    7.9304    0.8162    0.0000 H   0  0  0  0  0  0  0  0  0  0  0  0
   -0.2746   -5.8263    0.0000 H   0  0  0  0  0  0  0  0  0  0  0  0
    1.3304   -6.7529    0.0000 H   0  0  0  0  0  0  0  0  0  0  0  0
    0.2604   -6.7530    0.0000 H   0  0  0  0  0  0  0  0  0  0  0  0
    7.5179   -3.1805    0.0000 H   0  0  0  0  0  0  0  0  0  0  0  0
    7.5179   -1.3273    0.0000 H   0  0  0  0  0  0  0  0  0  0  0  0
    8.0529   -2.2539    0.0000 H   0  0  0  0  0  0  0  0  0  0  0  0
    0.6729   -1.7516    0.0000 H   0  0  0  0  0  0  0  0  0  0  0  0
    1.7429   -1.7516    0.0000 H   0  0  0  0  0  0  0  0  0  0  0  0
   -1.5121   -2.2539    0.0000 H   0  0  0  0  0  0  0  0  0  0  0  0
   -0.9771   -3.1805    0.0000 H   0  0  0  0  0  0  0  0  0  0  0  0
    5.0429    1.5306    0.0000 H   0  0  0  0  0  0  0  0  0  0  0  0
    5.5779    0.6039    0.0000 H   0  0  0  0  0  0  0  0  0  0  0  0
   -0.5646   -0.6128    0.0000 H   0  0  0  0  0  0  0  0  0  0  0  0
    0.5054   -0.6129    0.0000 H   0  0  0  0  0  0  0  0  0  0  0  0
    3.1479    1.5306    0.0000 H   0  0  0  0  0  0  0  0  0  0  0  0
    2.6129    0.6039    0.0000 H   0  0  0  0  0  0  0  0  0  0  0  0
    2.5679   -3.1806    0.0000 H   0  0  0  0  0  0  0  0  0  0  0  0
    1.4979   -3.1805    0.0000 H   0  0  0  0  0  0  0  0  0  0  0  0
    3.8054   -2.4661    0.0000 H   0  0  0  0  0  0  0  0  0  0  0  0
    4.3404   -1.5395    0.0000 H   0  0  0  0  0  0  0  0  0  0  0  0
   -1.4741   -3.6829    0.0000 H   0  0  0  0  0  0  0  0  0  0  0  0
    6.2614    0.7832    0.0000 H   0  0  0  0  0  0  0  0  0  0  0  0
    2.2399   -3.6829    0.0000 H   0  0  0  0  0  0  0  0  0  0  0  0
    4.4044   -2.4332    0.0000 H   0  0  0  0  0  0  0  0  0  0  0  0
    1.9104    0.8161    0.0000 H   0  0  0  0  0  0  0  0  0  0  0  0
    2.9804    0.8161    0.0000 H   0  0  0  0  0  0  0  0  0  0  0  0
    1.3054   -0.6561    0.0000 H   0  0  0  0  0  0  0  0  0  0  0  0
  1 40  1  0  0  0  0
  1 41  1  0  0  0  0
  1 42  1  0  0  0  0
  2 43  1  0  0  0  0
  2 44  1  0  0  0  0
  2 45  1  0  0  0  0
  3 46  1  0  0  0  0
  3 47  1  0  0  0  0
  3 48  1  0  0  0  0
  4 49  1  0  0  0  0
  4 50  1  0  0  0  0
  4 51  1  0  0  0  0
  5 52  1  0  0  0  0
  5 53  1  0  0  0  0
  5 54  1  0  0  0  0
  6  1  1  0  0  0  0
  6 55  1  0  0  0  0
  6 56  1  0  0  0  0
  7 57  1  0  0  0  0
  7 58  1  0  0  0  0
  8 59  1  0  0  0  0
  8 60  1  0  0  0  0
  9  7  1  0  0  0  0
  9 61  1  0  0  0  0
  9 62  1  0  0  0  0
 10  8  1  0  0  0  0
 10 63  1  0  0  0  0
 10 64  1  0  0  0  0
 11 65  1  0  0  0  0
 11 66  1  0  0  0  0
 12 67  1  0  0  0  0
 12 68  1  0  0  0  0
 13 69  1  0  0  0  0
 14 70  1  0  0  0  0
 15 71  1  0  0  0  0
 16 72  1  0  0  0  0
 17 73  1  0  0  0  0
 17 74  1  0  0  0  0
 18  6  1  0  0  0  0
 18 17  1  0  0  0  0
 18 36  1  6  0  0  0
 19  7  1  0  0  0  0
 19 13  2  0  0  0  0
 20  8  1  0  0  0  0
 20 14  2  0  0  0  0
 21 11  1  0  0  0  0
 21 12  1  0  0  0  0
 21 18  1  0  0  0  0
 21 37  1  1  0  0  0
 22 15  2  0  0  0  0
 22 19  1  0  0  0  0
 23 16  2  0  0  0  0
 23 20  1  0  0  0  0
 24 11  1  0  0  0  0
 24 22  1  0  0  0  0
 24 38  1  1  0  0  0
 25 12  1  0  0  0  0
 25 23  1  0  0  0  0
 25 39  1  1  0  0  0
 26 13  1  0  0  0  0
 27 14  1  0  0  0  0
 28 15  1  0  0  0  0
 28 26  2  0  0  0  0
 29 16  1  0  0  0  0
 29 27  2  0  0  0  0
 30  9  1  0  0  0  0
 30 24  1  0  0  0  0
 30 75  1  0  0  0  0
 31 10  1  0  0  0  0
 31 17  1  0  0  0  0
 31 25  1  0  0  0  0
 32  2  1  0  0  0  0
 32 26  1  0  0  0  0
 33  3  1  0  0  0  0
 33 27  1  0  0  0  0
 34  4  1  0  0  0  0
 34 28  1  0  0  0  0
 35  5  1  0  0  0  0
 35 29  1  0  0  0  0
M  END
>  <DRUGBANK_ID>
DB13393

>  <COMMON_NAME>
Emetine

>  <CAS_NUMBER>
483-18-1

>  <UNII>
X8D5EPO80M

$$$$
