
 OpenBabel10282417072D

 41 41  0  0  1  0  0  0  0  0999 V2000
    0.0000    2.4750    0.0000 C   0  0  0  0  0  0  0  0  0  0  0  0
    0.7145    2.0625    0.0000 C   0  0  1  0  0  0  0  0  0  0  0  0
    0.7145    1.2375    0.0000 C   0  0  0  0  0  0  0  0  0  0  0  0
    1.4289    0.8250    0.0000 C   0  0  0  0  0  0  0  0  0  0  0  0
    1.4289   -0.0000    0.0000 C   0  0  0  0  0  0  0  0  0  0  0  0
    0.7145   -0.4125    0.0000 C   0  0  0  0  0  0  0  0  0  0  0  0
    0.0000    0.0000    0.0000 C   0  0  0  0  0  0  0  0  0  0  0  0
    0.0000    0.8250    0.0000 C   0  0  0  0  0  0  0  0  0  0  0  0
    0.7145   -1.2375    0.0000 C   0  0  1  0  0  0  0  0  0  0  0  0
    1.4289   -1.6500    0.0000 C   0  0  0  0  0  0  0  0  0  0  0  0
    1.4289   -2.4750    0.0000 N   0  0  0  0  0  0  0  0  0  0  0  0
    2.1434   -2.8875    0.0000 C   0  0  0  0  0  0  0  0  0  0  0  0
    2.8579   -3.3000    0.0000 C   0  0  0  0  0  0  0  0  0  0  0  0
    1.7309   -3.6020    0.0000 C   0  0  0  0  0  0  0  0  0  0  0  0
    2.5559   -2.1730    0.0000 C   0  0  0  0  0  0  0  0  0  0  0  0
   -0.0000   -1.6500    0.0000 O   0  0  0  0  0  0  0  0  0  0  0  0
    1.4289    2.4750    0.0000 N   0  0  0  0  0  0  0  0  0  0  0  0
   -0.0000    3.5450    0.0000 H   0  0  0  0  0  0  0  0  0  0  0  0
   -0.9266    1.9400    0.0000 H   0  0  0  0  0  0  0  0  0  0  0  0
   -0.9267    3.0100    0.0000 H   0  0  0  0  0  0  0  0  0  0  0  0
    0.7145    3.1325    0.0000 H   0  0  0  0  0  0  0  0  0  0  0  0
    2.3226    1.3410    0.0000 H   0  0  0  0  0  0  0  0  0  0  0  0
    2.3226   -0.5160    0.0000 H   0  0  0  0  0  0  0  0  0  0  0  0
   -0.8937   -0.5160    0.0000 H   0  0  0  0  0  0  0  0  0  0  0  0
   -0.8937    1.3410    0.0000 H   0  0  0  0  0  0  0  0  0  0  0  0
   -0.2121   -0.7025    0.0000 H   0  0  0  0  0  0  0  0  0  0  0  0
    2.3556   -1.1150    0.0000 H   0  0  0  0  0  0  0  0  0  0  0  0
    2.3555   -2.1850    0.0000 H   0  0  0  0  0  0  0  0  0  0  0  0
    0.5456   -2.9850    0.0000 H   0  0  0  0  0  0  0  0  0  0  0  0
    2.8579   -4.3700    0.0000 H   0  0  0  0  0  0  0  0  0  0  0  0
    3.7845   -2.7650    0.0000 H   0  0  0  0  0  0  0  0  0  0  0  0
    3.7846   -3.8350    0.0000 H   0  0  0  0  0  0  0  0  0  0  0  0
    0.6609   -3.6020    0.0000 H   0  0  0  0  0  0  0  0  0  0  0  0
    2.2659   -4.5286    0.0000 H   0  0  0  0  0  0  0  0  0  0  0  0
    1.1959   -4.5287    0.0000 H   0  0  0  0  0  0  0  0  0  0  0  0
    3.6259   -2.1730    0.0000 H   0  0  0  0  0  0  0  0  0  0  0  0
    2.0209   -1.2464    0.0000 H   0  0  0  0  0  0  0  0  0  0  0  0
    3.0909   -1.2463    0.0000 H   0  0  0  0  0  0  0  0  0  0  0  0
   -0.8400   -1.1650    0.0000 H   0  0  0  0  0  0  0  0  0  0  0  0
    2.3123    1.9650    0.0000 H   0  0  0  0  0  0  0  0  0  0  0  0
    1.4289    3.4950    0.0000 H   0  0  0  0  0  0  0  0  0  0  0  0
  1  2  1  0  0  0  0
  1 18  1  0  0  0  0
  1 19  1  0  0  0  0
  1 20  1  0  0  0  0
  2  3  1  0  0  0  0
  2 17  1  0  0  0  0
  2 21  1  1  0  0  0
  3  4  2  0  0  0  0
  3  8  1  0  0  0  0
  4  5  1  0  0  0  0
  4 22  1  0  0  0  0
  5  6  2  0  0  0  0
  5 23  1  0  0  0  0
  6  7  1  0  0  0  0
  6  9  1  0  0  0  0
  7  8  2  0  0  0  0
  7 24  1  0  0  0  0
  8 25  1  0  0  0  0
  9 10  1  0  0  0  0
  9 16  1  0  0  0  0
  9 26  1  6  0  0  0
 10 11  1  0  0  0  0
 10 27  1  0  0  0  0
 10 28  1  0  0  0  0
 11 12  1  0  0  0  0
 11 29  1  0  0  0  0
 12 13  1  0  0  0  0
 12 14  1  0  0  0  0
 12 15  1  0  0  0  0
 13 30  1  0  0  0  0
 13 31  1  0  0  0  0
 13 32  1  0  0  0  0
 14 33  1  0  0  0  0
 14 34  1  0  0  0  0
 14 35  1  0  0  0  0
 15 36  1  0  0  0  0
 15 37  1  0  0  0  0
 15 38  1  0  0  0  0
 16 39  1  0  0  0  0
 17 40  1  0  0  0  0
 17 41  1  0  0  0  0
M  END
>  <DRUGBANK_ID>
DB12763

>  <COMMON_NAME>
MK-1496

>  <CAS_NUMBER>
1037254-47-9

>  <UNII>
CS17H9370C

$$$$
