BLZ
 OpenBabel10282417072D

 51 54  0  0  0  0  0  0  0  0999 V2000
    2.5859   -4.3233    0.0000 C   0  0  0  0  0  0  0  0  0  0  0  0
    1.8715   -4.7358    0.0000 O   0  0  0  0  0  0  0  0  0  0  0  0
    1.1570   -4.3233    0.0000 C   0  0  0  0  0  0  0  0  0  0  0  0
    0.4425   -4.7358    0.0000 C   0  0  0  0  0  0  0  0  0  0  0  0
   -0.2719   -4.3233    0.0000 C   0  0  0  0  0  0  0  0  0  0  0  0
   -1.0566   -4.5782    0.0000 N   0  0  0  0  0  0  0  0  0  0  0  0
   -1.5415   -3.9108    0.0000 C   0  0  0  0  0  0  0  0  0  0  0  0
   -1.0566   -3.2433    0.0000 N   0  0  0  0  0  0  0  0  0  0  0  0
   -1.3115   -2.4587    0.0000 C   0  0  0  0  0  0  0  0  0  0  0  0
   -0.8266   -1.7913    0.0000 C   0  0  0  0  0  0  0  0  0  0  0  0
   -1.3115   -1.1238    0.0000 C   0  0  0  0  0  0  0  0  0  0  0  0
   -1.0566   -0.3392    0.0000 O   0  0  0  0  0  0  0  0  0  0  0  0
   -0.2496   -0.1677    0.0000 C   0  0  2  0  0  0  0  0  0  0  0  0
    0.3024   -0.7808    0.0000 C   0  0  0  0  0  0  0  0  0  0  0  0
    0.0053    0.6169    0.0000 C   0  0  0  0  0  0  0  0  0  0  0  0
   -0.5467    1.2300    0.0000 C   0  0  0  0  0  0  0  0  0  0  0  0
   -0.2917    2.0147    0.0000 C   0  0  0  0  0  0  0  0  0  0  0  0
    0.5152    2.1862    0.0000 C   0  0  0  0  0  0  0  0  0  0  0  0
    1.0673    1.5731    0.0000 C   0  0  0  0  0  0  0  0  0  0  0  0
    0.8123    0.7885    0.0000 C   0  0  0  0  0  0  0  0  0  0  0  0
    1.3644    0.1754    0.0000 Cl  0  0  0  0  0  0  0  0  0  0  0  0
   -2.0961   -1.3788    0.0000 C   0  0  0  0  0  0  0  0  0  0  0  0
   -2.0961   -2.2038    0.0000 S   0  0  0  0  0  0  0  0  0  0  0  0
   -2.7636   -0.8938    0.0000 C   0  0  0  0  0  0  0  0  0  0  0  0
   -3.5172   -1.2294    0.0000 O   0  0  0  0  0  0  0  0  0  0  0  0
   -2.6773   -0.0734    0.0000 N   0  0  0  0  0  0  0  0  0  0  0  0
   -0.2719   -3.4983    0.0000 C   0  0  0  0  0  0  0  0  0  0  0  0
    0.4425   -3.0858    0.0000 C   0  0  0  0  0  0  0  0  0  0  0  0
    1.1570   -3.4983    0.0000 C   0  0  0  0  0  0  0  0  0  0  0  0
    1.8715   -3.0858    0.0000 O   0  0  0  0  0  0  0  0  0  0  0  0
    1.8715   -2.2608    0.0000 C   0  0  0  0  0  0  0  0  0  0  0  0
   -0.6403    0.2663    0.0000 H   0  0  0  0  0  0  0  0  0  0  0  0
    3.5126   -4.8583    0.0000 H   0  0  0  0  0  0  0  0  0  0  0  0
    2.5859   -3.2533    0.0000 H   0  0  0  0  0  0  0  0  0  0  0  0
    3.5125   -3.7883    0.0000 H   0  0  0  0  0  0  0  0  0  0  0  0
    0.4425   -5.7678    0.0000 H   0  0  0  0  0  0  0  0  0  0  0  0
   -2.5735   -3.9108    0.0000 H   0  0  0  0  0  0  0  0  0  0  0  0
    0.2054   -1.7913    0.0000 H   0  0  0  0  0  0  0  0  0  0  0  0
   -0.0283   -1.7984    0.0000 H   0  0  0  0  0  0  0  0  0  0  0  0
    1.3490   -0.5584    0.0000 H   0  0  0  0  0  0  0  0  0  0  0  0
    1.0183   -1.5760    0.0000 H   0  0  0  0  0  0  0  0  0  0  0  0
   -1.5562    1.0155    0.0000 H   0  0  0  0  0  0  0  0  0  0  0  0
   -0.9822    2.7816    0.0000 H   0  0  0  0  0  0  0  0  0  0  0  0
    0.8341    3.1677    0.0000 H   0  0  0  0  0  0  0  0  0  0  0  0
    2.0768    1.7877    0.0000 H   0  0  0  0  0  0  0  0  0  0  0  0
   -1.7779    0.3270    0.0000 H   0  0  0  0  0  0  0  0  0  0  0  0
   -3.4737    0.5053    0.0000 H   0  0  0  0  0  0  0  0  0  0  0  0
    0.4425   -2.0538    0.0000 H   0  0  0  0  0  0  0  0  0  0  0  0
    2.7981   -1.7258    0.0000 H   0  0  0  0  0  0  0  0  0  0  0  0
    0.9449   -1.7258    0.0000 H   0  0  0  0  0  0  0  0  0  0  0  0
    1.8715   -1.1908    0.0000 H   0  0  0  0  0  0  0  0  0  0  0  0
  1  2  1  0  0  0  0
  1 33  1  0  0  0  0
  1 34  1  0  0  0  0
  1 35  1  0  0  0  0
  2  3  1  0  0  0  0
  3  4  1  0  0  0  0
  3 29  2  0  0  0  0
  4  5  2  0  0  0  0
  4 36  1  0  0  0  0
  5  6  1  0  0  0  0
  5 27  1  0  0  0  0
  6  7  2  0  0  0  0
  7  8  1  0  0  0  0
  7 37  1  0  0  0  0
  8 27  1  0  0  0  0
  8  9  1  0  0  0  0
  9 23  1  0  0  0  0
  9 10  2  0  0  0  0
 10 11  1  0  0  0  0
 10 38  1  0  0  0  0
 11 22  2  0  0  0  0
 11 12  1  0  0  0  0
 12 13  1  0  0  0  0
 13 15  1  0  0  0  0
 13 14  1  0  0  0  0
 13 32  1  6  0  0  0
 14 39  1  0  0  0  0
 14 40  1  0  0  0  0
 14 41  1  0  0  0  0
 15 16  2  0  0  0  0
 15 20  1  0  0  0  0
 16 17  1  0  0  0  0
 16 42  1  0  0  0  0
 17 18  2  0  0  0  0
 17 43  1  0  0  0  0
 18 19  1  0  0  0  0
 18 44  1  0  0  0  0
 19 20  2  0  0  0  0
 19 45  1  0  0  0  0
 20 21  1  0  0  0  0
 22 23  1  0  0  0  0
 22 24  1  0  0  0  0
 24 25  2  0  0  0  0
 24 26  1  0  0  0  0
 26 46  1  0  0  0  0
 26 47  1  0  0  0  0
 27 28  2  0  0  0  0
 28 29  1  0  0  0  0
 28 48  1  0  0  0  0
 29 30  1  0  0  0  0
 30 31  1  0  0  0  0
 31 49  1  0  0  0  0
 31 50  1  0  0  0  0
 31 51  1  0  0  0  0
M  END
>  <DRUGBANK_ID>
DB07471

>  <COMMON_NAME>
5-[5,6-BIS(METHYLOXY)-1H-BENZIMIDAZOL-1-YL]-3-{[1-(2-CHLOROPHENYL)ETHYL]OXY}-2-THIOPHENECARBOXAMIDE

$$$$
