
 OpenBabel10282417072D

 43 47  0  0  0  0  0  0  0  0999 V2000
   -1.8685    2.3904    0.0000 C   0  0  0  0  0  0  0  0  0  0  0  0
    4.1254   -2.0710    0.0000 C   0  0  0  0  0  0  0  0  0  0  0  0
    3.1693   -3.1329    0.0000 C   0  0  0  0  0  0  0  0  0  0  0  0
    3.5123   -1.5189    0.0000 C   0  0  0  0  0  0  0  0  0  0  0  0
    2.5562   -2.5809    0.0000 C   0  0  0  0  0  0  0  0  0  0  0  0
    0.1516    0.8754    0.0000 C   0  0  0  0  0  0  0  0  0  0  0  0
   -2.5830    2.8029    0.0000 C   0  0  0  0  0  0  0  0  0  0  0  0
   -0.4003    1.4885    0.0000 C   0  0  0  0  0  0  0  0  0  0  0  0
   -2.5830    1.1529    0.0000 C   0  0  0  0  0  0  0  0  0  0  0  0
    0.0746   -0.5927    0.0000 C   0  0  0  0  0  0  0  0  0  0  0  0
   -1.8685    1.5654    0.0000 C   0  0  0  0  0  0  0  0  0  0  0  0
    3.9539   -2.8779    0.0000 C   0  0  0  0  0  0  0  0  0  0  0  0
    2.7277   -1.7739    0.0000 C   0  0  0  0  0  0  0  0  0  0  0  0
   -0.2608    0.1609    0.0000 C   0  0  0  0  0  0  0  0  0  0  0  0
   -3.2974    2.3904    0.0000 C   0  0  0  0  0  0  0  0  0  0  0  0
   -3.2974    1.5654    0.0000 C   0  0  0  0  0  0  0  0  0  0  0  0
   -1.1540    1.1529    0.0000 C   0  0  0  0  0  0  0  0  0  0  0  0
    0.8951   -0.6789    0.0000 C   0  0  0  0  0  0  0  0  0  0  0  0
   -4.0821    2.6454    0.0000 C   0  0  0  0  0  0  0  0  0  0  0  0
   -4.0821    1.3105    0.0000 C   0  0  0  0  0  0  0  0  0  0  0  0
    1.3076   -1.3934    0.0000 C   0  0  0  0  0  0  0  0  0  0  0  0
    2.2008   -0.4014    0.0000 C   0  0  0  0  0  0  0  0  0  0  0  0
    4.5670   -3.4300    0.0000 Br  0  0  0  0  0  0  0  0  0  0  0  0
    2.9153    0.0110    0.0000 N   0  0  0  0  0  0  0  0  0  0  0  0
   -4.5670    1.9779    0.0000 N   0  0  0  0  0  0  0  0  0  0  0  0
    2.1146   -1.2218    0.0000 N   0  0  0  0  0  0  0  0  0  0  0  0
   -4.3370    3.4300    0.0000 O   0  0  0  0  0  0  0  0  0  0  0  0
   -4.3370    0.5259    0.0000 O   0  0  0  0  0  0  0  0  0  0  0  0
    0.9721   -2.1470    0.0000 O   0  0  0  0  0  0  0  0  0  0  0  0
   -1.0678    0.3324    0.0000 O   0  0  0  0  0  0  0  0  0  0  0  0
    1.4472   -0.0658    0.0000 S   0  0  0  0  0  0  0  0  0  0  0  0
   -0.4102   -1.2601    0.0000 H   0  0  0  0  0  0  0  0  0  0  0  0
    3.6298   -0.4014    0.0000 H   0  0  0  0  0  0  0  0  0  0  0  0
   -0.9748    2.9064    0.0000 H   0  0  0  0  0  0  0  0  0  0  0  0
    5.1069   -1.7521    0.0000 H   0  0  0  0  0  0  0  0  0  0  0  0
    2.9548   -4.1424    0.0000 H   0  0  0  0  0  0  0  0  0  0  0  0
    3.7269   -0.5094    0.0000 H   0  0  0  0  0  0  0  0  0  0  0  0
    1.5747   -2.8998    0.0000 H   0  0  0  0  0  0  0  0  0  0  0  0
    1.1779    0.9833    0.0000 H   0  0  0  0  0  0  0  0  0  0  0  0
   -2.5830    3.8349    0.0000 H   0  0  0  0  0  0  0  0  0  0  0  0
   -0.1857    2.4979    0.0000 H   0  0  0  0  0  0  0  0  0  0  0  0
   -2.5830    0.1209    0.0000 H   0  0  0  0  0  0  0  0  0  0  0  0
   -3.7100    4.1263    0.0000 H   0  0  0  0  0  0  0  0  0  0  0  0
  1 34  1  0  0  0  0
  2 35  1  0  0  0  0
  3 36  1  0  0  0  0
  4  2  1  0  0  0  0
  4 37  1  0  0  0  0
  5  3  2  0  0  0  0
  5 38  1  0  0  0  0
  6 39  1  0  0  0  0
  7  1  2  0  0  0  0
  7 40  1  0  0  0  0
  8  6  1  0  0  0  0
  8 41  1  0  0  0  0
  9 42  1  0  0  0  0
 11  1  1  0  0  0  0
 11  9  2  0  0  0  0
 12  2  2  0  0  0  0
 12  3  1  0  0  0  0
 13  4  2  0  0  0  0
 13  5  1  0  0  0  0
 14  6  2  0  0  0  0
 14 10  1  0  0  0  0
 15  7  1  0  0  0  0
 16  9  1  0  0  0  0
 16 15  2  0  0  0  0
 17  8  2  0  0  0  0
 17 11  1  0  0  0  0
 18 10  2  0  0  0  0
 19 15  1  0  0  0  0
 20 16  1  0  0  0  0
 21 18  1  0  0  0  0
 23 12  1  0  0  0  0
 24 22  2  0  0  0  0
 25 19  2  0  0  0  0
 25 20  1  0  0  0  0
 26 13  1  0  0  0  0
 26 21  1  0  0  0  0
 26 22  1  0  0  0  0
 27 19  1  0  0  0  0
 27 43  1  0  0  0  0
 28 20  2  0  0  0  0
 29 21  2  0  0  0  0
 30 14  1  0  0  0  0
 30 17  1  0  0  0  0
 31 18  1  0  0  0  0
 31 22  1  0  0  0  0
 32 10  1  0  0  0  0
 33 24  1  0  0  0  0
M  END
>  <DRUGBANK_ID>
DB17493

>  <COMMON_NAME>
Bioymifi

>  <CAS_NUMBER>
1420071-30-2

>  <SYNONYMS>
5-(5-((3-(4-bromophenyl)-2-imino-4-oxothiazolidin-5-ylidene)methyl)furan-2-yl)isoindoline-1,3-dione; 5-[5-[(Z)-[3-(4-bromophenyl)-2-imino-4-oxo-1,3-thiazolidin-5-ylidene]methyl]furan-2-yl]isoindole-1,3-dione

$$$$
