BBH
 OpenBabel10282417072D

 50 52  0  0  0  0  0  0  0  0999 V2000
    0.0597   -1.6118    0.0000 C   0  0  0  0  0  0  0  0  0  0  0  0
    0.7741   -2.0243    0.0000 C   0  0  0  0  0  0  0  0  0  0  0  0
    0.7741   -2.8493    0.0000 C   0  0  0  0  0  0  0  0  0  0  0  0
    0.0597   -3.2618    0.0000 C   0  0  0  0  0  0  0  0  0  0  0  0
   -0.6548   -2.8493    0.0000 C   0  0  0  0  0  0  0  0  0  0  0  0
   -0.6548   -2.0243    0.0000 C   0  0  0  0  0  0  0  0  0  0  0  0
    0.0597   -4.0868    0.0000 O   0  0  0  0  0  0  0  0  0  0  0  0
   -0.6548   -4.4993    0.0000 C   0  0  0  0  0  0  0  0  0  0  0  0
    0.0597   -0.7868    0.0000 S   0  0  0  0  0  0  0  0  0  0  0  0
    0.8847   -0.7868    0.0000 O   0  0  0  0  0  0  0  0  0  0  0  0
   -0.7653   -0.7868    0.0000 O   0  0  0  0  0  0  0  0  0  0  0  0
    0.0597    0.0382    0.0000 N   0  0  0  0  0  0  0  0  0  0  0  0
   -0.6548    0.4507    0.0000 C   0  0  2  0  0  0  0  0  0  0  0  0
   -0.6548    1.2757    0.0000 C   0  0  0  0  0  0  0  0  0  0  0  0
    0.0597    1.6882    0.0000 C   0  0  0  0  0  0  0  0  0  0  0  0
    0.7741    1.2757    0.0000 N   0  0  0  0  0  0  0  0  0  0  0  0
    0.7741    0.4507    0.0000 C   0  0  0  0  0  0  0  0  0  0  0  0
    0.0597    2.5132    0.0000 O   0  0  0  0  0  0  0  0  0  0  0  0
   -1.3693    0.0382    0.0000 C   0  0  0  0  0  0  0  0  0  0  0  0
   -1.3693   -0.7868    0.0000 N   0  0  0  0  0  0  0  0  0  0  0  0
   -2.0838   -1.1993    0.0000 O   0  0  0  0  0  0  0  0  0  0  0  0
   -2.0838    0.4507    0.0000 O   0  0  0  0  0  0  0  0  0  0  0  0
    1.4886    1.6882    0.0000 C   0  0  0  0  0  0  0  0  0  0  0  0
    2.2031    3.7507    0.0000 C   0  0  0  0  0  0  0  0  0  0  0  0
    2.2031    2.9257    0.0000 C   0  0  0  0  0  0  0  0  0  0  0  0
    1.4886    2.5132    0.0000 C   0  0  0  0  0  0  0  0  0  0  0  0
    0.7741    2.9257    0.0000 C   0  0  0  0  0  0  0  0  0  0  0  0
    0.7741    3.7507    0.0000 C   0  0  0  0  0  0  0  0  0  0  0  0
    1.4886    4.1632    0.0000 C   0  0  0  0  0  0  0  0  0  0  0  0
   -0.6548   -0.1333    0.0000 H   0  0  0  0  0  0  0  0  0  0  0  0
    1.6678   -1.5083    0.0000 H   0  0  0  0  0  0  0  0  0  0  0  0
    1.6678   -3.3653    0.0000 H   0  0  0  0  0  0  0  0  0  0  0  0
   -1.5485   -3.3653    0.0000 H   0  0  0  0  0  0  0  0  0  0  0  0
   -1.5485   -1.5083    0.0000 H   0  0  0  0  0  0  0  0  0  0  0  0
   -1.5814   -3.9643    0.0000 H   0  0  0  0  0  0  0  0  0  0  0  0
   -0.6548   -5.5693    0.0000 H   0  0  0  0  0  0  0  0  0  0  0  0
   -1.5815   -5.0343    0.0000 H   0  0  0  0  0  0  0  0  0  0  0  0
   -1.5814    1.8107    0.0000 H   0  0  0  0  0  0  0  0  0  0  0  0
   -0.6548    2.3457    0.0000 H   0  0  0  0  0  0  0  0  0  0  0  0
    1.7008   -0.0843    0.0000 H   0  0  0  0  0  0  0  0  0  0  0  0
    1.7007    0.9857    0.0000 H   0  0  0  0  0  0  0  0  0  0  0  0
   -0.5167   -1.2791    0.0000 H   0  0  0  0  0  0  0  0  0  0  0  0
   -2.9238   -0.7143    0.0000 H   0  0  0  0  0  0  0  0  0  0  0  0
    2.4152    1.1532    0.0000 H   0  0  0  0  0  0  0  0  0  0  0  0
    2.4152    2.2232    0.0000 H   0  0  0  0  0  0  0  0  0  0  0  0
    3.0968    4.2667    0.0000 H   0  0  0  0  0  0  0  0  0  0  0  0
    3.0968    2.4097    0.0000 H   0  0  0  0  0  0  0  0  0  0  0  0
   -0.1196    2.4097    0.0000 H   0  0  0  0  0  0  0  0  0  0  0  0
   -0.1196    4.2667    0.0000 H   0  0  0  0  0  0  0  0  0  0  0  0
    1.4886    5.1952    0.0000 H   0  0  0  0  0  0  0  0  0  0  0  0
  1  2  2  0  0  0  0
  1  6  1  0  0  0  0
  1  9  1  0  0  0  0
  2  3  1  0  0  0  0
  2 31  1  0  0  0  0
  3  4  2  0  0  0  0
  3 32  1  0  0  0  0
  4  5  1  0  0  0  0
  4  7  1  0  0  0  0
  5  6  2  0  0  0  0
  5 33  1  0  0  0  0
  6 34  1  0  0  0  0
  7  8  1  0  0  0  0
  8 35  1  0  0  0  0
  8 36  1  0  0  0  0
  8 37  1  0  0  0  0
  9 10  2  0  0  0  0
  9 11  2  0  0  0  0
  9 12  1  0  0  0  0
 12 13  1  0  0  0  0
 12 17  1  0  0  0  0
 13 14  1  0  0  0  0
 13 19  1  0  0  0  0
 13 30  1  6  0  0  0
 14 15  1  0  0  0  0
 14 38  1  0  0  0  0
 14 39  1  0  0  0  0
 15 16  1  0  0  0  0
 15 18  2  0  0  0  0
 16 17  1  0  0  0  0
 16 23  1  0  0  0  0
 17 40  1  0  0  0  0
 17 41  1  0  0  0  0
 19 20  1  0  0  0  0
 19 22  2  0  0  0  0
 20 21  1  0  0  0  0
 20 42  1  0  0  0  0
 21 43  1  0  0  0  0
 23 26  1  0  0  0  0
 23 44  1  0  0  0  0
 23 45  1  0  0  0  0
 24 25  2  0  0  0  0
 24 29  1  0  0  0  0
 24 46  1  0  0  0  0
 25 26  1  0  0  0  0
 25 47  1  0  0  0  0
 26 27  2  0  0  0  0
 27 28  1  0  0  0  0
 27 48  1  0  0  0  0
 28 29  2  0  0  0  0
 28 49  1  0  0  0  0
 29 50  1  0  0  0  0
M  END
>  <DRUGBANK_ID>
DB04140

>  <SECONDARY_ACCESSION_NUMBERS>
EXPT00633

>  <COMMON_NAME>
1-Benzyl-3-(4-Methoxy-Benzenesulfonyl)-6-Oxo-Hexahydro-Pyrimidine-4-Carboxylic Acid Hydroxyamide

$$$$
