
 OpenBabel10282417072D

 32 33  0  0  0  0  0  0  0  0999 V2000
   15.8430  -10.2159    0.0000 C   0  0  0  0  0  0  0  0  0  0  0  0
   15.8224  -11.0426    0.0000 C   0  0  0  0  0  0  0  0  0  0  0  0
   15.1295   -9.8043    0.0000 N   0  0  0  0  0  0  0  0  0  0  0  0
   16.5668   -9.8248    0.0000 C   0  0  0  0  0  0  0  0  0  0  0  0
   16.5291  -11.4713    0.0000 C   0  0  0  0  0  0  0  0  0  0  0  0
   14.4194  -10.2159    0.0000 N   0  0  0  0  0  0  0  0  0  0  0  0
   17.2734  -10.2501    0.0000 C   0  0  0  0  0  0  0  0  0  0  0  0
   17.2941  -11.0734    0.0000 C   0  0  0  0  0  0  0  0  0  0  0  0
   16.5497  -12.2981    0.0000 C   0  0  0  0  0  0  0  0  0  0  0  0
   13.7025   -9.8077    0.0000 C   0  0  0  0  0  0  0  0  0  0  0  0
   17.9595  -11.5056    0.0000 O   0  0  0  0  0  0  0  0  0  0  0  0
   17.2151  -12.7233    0.0000 O   0  0  0  0  0  0  0  0  0  0  0  0
   15.7847  -12.6891    0.0000 O   0  0  0  0  0  0  0  0  0  0  0  0
   13.7025   -8.9810    0.0000 C   0  0  0  0  0  0  0  0  0  0  0  0
   12.9924  -10.2159    0.0000 C   0  0  0  0  0  0  0  0  0  0  0  0
   12.9924   -8.5659    0.0000 C   0  0  0  0  0  0  0  0  0  0  0  0
   12.2755   -9.8077    0.0000 C   0  0  0  0  0  0  0  0  0  0  0  0
   12.2755   -8.9810    0.0000 C   0  0  0  0  0  0  0  0  0  0  0  0
   12.9924   -7.7426    0.0000 C   0  0  0  0  0  0  0  0  0  0  0  0
   11.5585   -8.5659    0.0000 O   0  0  0  0  0  0  0  0  0  0  0  0
   12.2789   -7.3310    0.0000 O   0  0  0  0  0  0  0  0  0  0  0  0
   13.7059   -7.3344    0.0000 O   0  0  0  0  0  0  0  0  0  0  0  0
   14.9169  -11.5376    0.0000 H   0  0  0  0  0  0  0  0  0  0  0  0
   16.5907   -8.7931    0.0000 H   0  0  0  0  0  0  0  0  0  0  0  0
   18.1653   -9.7310    0.0000 H   0  0  0  0  0  0  0  0  0  0  0  0
   17.9104  -12.4413    0.0000 H   0  0  0  0  0  0  0  0  0  0  0  0
   17.1729  -13.6594    0.0000 H   0  0  0  0  0  0  0  0  0  0  0  0
   14.5976   -8.4674    0.0000 H   0  0  0  0  0  0  0  0  0  0  0  0
   12.9945  -11.2479    0.0000 H   0  0  0  0  0  0  0  0  0  0  0  0
   11.3833  -10.3264    0.0000 H   0  0  0  0  0  0  0  0  0  0  0  0
   11.5596   -7.6289    0.0000 H   0  0  0  0  0  0  0  0  0  0  0  0
   12.2786   -6.3940    0.0000 H   0  0  0  0  0  0  0  0  0  0  0  0
  1  2  1  0  0  0  0
  1  3  1  0  0  0  0
  1  4  2  0  0  0  0
  2  5  2  0  0  0  0
  2 23  1  0  0  0  0
  3  6  2  0  0  0  0
  4  7  1  0  0  0  0
  4 24  1  0  0  0  0
  5  8  1  0  0  0  0
  5  9  1  0  0  0  0
  6 10  1  0  0  0  0
  7  8  2  0  0  0  0
  7 25  1  0  0  0  0
  8 11  1  0  0  0  0
  9 12  1  0  0  0  0
  9 13  2  0  0  0  0
 10 14  1  0  0  0  0
 10 15  2  0  0  0  0
 11 26  1  0  0  0  0
 12 27  1  0  0  0  0
 14 16  2  0  0  0  0
 14 28  1  0  0  0  0
 15 17  1  0  0  0  0
 15 29  1  0  0  0  0
 16 18  1  0  0  0  0
 16 19  1  0  0  0  0
 17 18  2  0  0  0  0
 17 30  1  0  0  0  0
 18 20  1  0  0  0  0
 19 21  1  0  0  0  0
 19 22  2  0  0  0  0
 20 31  1  0  0  0  0
 21 32  1  0  0  0  0
M  END
>  <DRUGBANK_ID>
DB01250

>  <COMMON_NAME>
Olsalazine

>  <CAS_NUMBER>
15722-48-2

>  <UNII>
ULS5I8J03O

>  <SYNONYMS>
Olsalazine

$$$$
