397
 OpenBabel10282417072D

 27 29  0  0  0  0  0  0  0  0999 V2000
    2.5142   -0.4999    0.0000 C   0  0  0  0  0  0  0  0  0  0  0  0
    1.7998   -0.9124    0.0000 C   0  0  0  0  0  0  0  0  0  0  0  0
    1.0853   -0.4999    0.0000 C   0  0  0  0  0  0  0  0  0  0  0  0
    1.0853    0.3251    0.0000 C   0  0  0  0  0  0  0  0  0  0  0  0
    1.7998    0.7376    0.0000 C   0  0  0  0  0  0  0  0  0  0  0  0
    2.5142    0.3251    0.0000 C   0  0  0  0  0  0  0  0  0  0  0  0
    0.3007   -0.7548    0.0000 O   0  0  0  0  0  0  0  0  0  0  0  0
   -0.1843   -0.0874    0.0000 C   0  0  0  0  0  0  0  0  0  0  0  0
    0.3007    0.5801    0.0000 C   0  0  0  0  0  0  0  0  0  0  0  0
   -1.0093   -0.0874    0.0000 C   0  0  0  0  0  0  0  0  0  0  0  0
   -1.4218   -0.8018    0.0000 C   0  0  0  0  0  0  0  0  0  0  0  0
   -2.2468   -0.8018    0.0000 C   0  0  0  0  0  0  0  0  0  0  0  0
   -2.6593   -0.0874    0.0000 C   0  0  0  0  0  0  0  0  0  0  0  0
   -2.2468    0.6271    0.0000 C   0  0  0  0  0  0  0  0  0  0  0  0
   -1.4218    0.6271    0.0000 C   0  0  0  0  0  0  0  0  0  0  0  0
    3.2287    0.7376    0.0000 O   0  0  0  0  0  0  0  0  0  0  0  0
   -3.4843   -0.0874    0.0000 O   0  0  0  0  0  0  0  0  0  0  0  0
    3.4079   -1.0159    0.0000 H   0  0  0  0  0  0  0  0  0  0  0  0
    1.7998   -1.9444    0.0000 H   0  0  0  0  0  0  0  0  0  0  0  0
    1.7998    1.7696    0.0000 H   0  0  0  0  0  0  0  0  0  0  0  0
   -0.0182    1.5616    0.0000 H   0  0  0  0  0  0  0  0  0  0  0  0
   -0.9058   -1.6955    0.0000 H   0  0  0  0  0  0  0  0  0  0  0  0
   -2.7628   -1.6955    0.0000 H   0  0  0  0  0  0  0  0  0  0  0  0
   -2.7628    1.5208    0.0000 H   0  0  0  0  0  0  0  0  0  0  0  0
   -0.9058    1.5208    0.0000 H   0  0  0  0  0  0  0  0  0  0  0  0
    4.0402    0.2691    0.0000 H   0  0  0  0  0  0  0  0  0  0  0  0
   -3.9528    0.7241    0.0000 H   0  0  0  0  0  0  0  0  0  0  0  0
  1  2  2  0  0  0  0
  1  6  1  0  0  0  0
  1 18  1  0  0  0  0
  2  3  1  0  0  0  0
  2 19  1  0  0  0  0
  3  4  2  0  0  0  0
  3  7  1  0  0  0  0
  4  5  1  0  0  0  0
  4  9  1  0  0  0  0
  5  6  2  0  0  0  0
  5 20  1  0  0  0  0
  6 16  1  0  0  0  0
  7  8  1  0  0  0  0
  8  9  2  0  0  0  0
  8 10  1  0  0  0  0
  9 21  1  0  0  0  0
 10 11  2  0  0  0  0
 10 15  1  0  0  0  0
 11 12  1  0  0  0  0
 11 22  1  0  0  0  0
 12 13  2  0  0  0  0
 12 23  1  0  0  0  0
 13 14  1  0  0  0  0
 13 17  1  0  0  0  0
 14 15  2  0  0  0  0
 14 24  1  0  0  0  0
 15 25  1  0  0  0  0
 16 26  1  0  0  0  0
 17 27  1  0  0  0  0
M  END
>  <DRUGBANK_ID>
DB07032

>  <COMMON_NAME>
2-(4-HYDROXY-PHENYL)BENZOFURAN-5-OL

$$$$
