32U
 OpenBabel10282417072D

 57 59  0  0  0  0  0  0  0  0999 V2000
   -0.0722   -1.4820    0.0000 N   0  0  0  0  0  0  0  0  0  0  0  0
    0.5953   -0.9970    0.0000 C   0  0  2  0  0  0  0  0  0  0  0  0
    0.5953   -0.1720    0.0000 C   0  0  0  0  0  0  0  0  0  0  0  0
    1.3097    0.2405    0.0000 O   0  0  0  0  0  0  0  0  0  0  0  0
   -0.1192    0.2405    0.0000 N   0  0  0  0  0  0  0  0  0  0  0  0
   -0.1192    1.0655    0.0000 C   0  0  0  0  0  0  0  0  0  0  0  0
    0.5953    1.4780    0.0000 C   0  0  0  0  0  0  0  0  0  0  0  0
    1.3097    1.0655    0.0000 C   0  0  0  0  0  0  0  0  0  0  0  0
    2.0242    1.4780    0.0000 C   0  0  0  0  0  0  0  0  0  0  0  0
    2.0242    2.3030    0.0000 C   0  0  0  0  0  0  0  0  0  0  0  0
    2.7387    2.7155    0.0000 C   0  0  0  0  0  0  0  0  0  0  0  0
    2.7387    3.5405    0.0000 N   0  3  0  0  0  0  0  0  0  0  0  0
    3.4531    2.3030    0.0000 N   0  0  0  0  0  0  0  0  0  0  0  0
    1.3097    2.7155    0.0000 C   0  0  0  0  0  0  0  0  0  0  0  0
    0.5953    2.3030    0.0000 C   0  0  0  0  0  0  0  0  0  0  0  0
    1.2627   -1.4820    0.0000 C   0  0  0  0  0  0  0  0  0  0  0  0
    1.0078   -2.2666    0.0000 C   0  0  0  0  0  0  0  0  0  0  0  0
    0.1828   -2.2666    0.0000 C   0  0  0  0  0  0  0  0  0  0  0  0
   -0.8568   -1.2270    0.0000 C   0  0  0  0  0  0  0  0  0  0  0  0
   -1.4699   -1.7791    0.0000 C   0  0  2  0  0  0  0  0  0  0  0  0
   -1.2984   -2.5860    0.0000 N   0  0  0  0  0  0  0  0  0  0  0  0
   -2.2545   -1.5241    0.0000 C   0  0  0  0  0  0  0  0  0  0  0  0
   -1.0283   -0.4201    0.0000 O   0  0  0  0  0  0  0  0  0  0  0  0
   -2.4260   -0.7172    0.0000 C   0  0  0  0  0  0  0  0  0  0  0  0
   -1.8130   -0.1651    0.0000 C   0  0  0  0  0  0  0  0  0  0  0  0
   -1.9845    0.6418    0.0000 C   0  0  0  0  0  0  0  0  0  0  0  0
   -2.7691    0.8968    0.0000 C   0  0  0  0  0  0  0  0  0  0  0  0
   -3.3822    0.3448    0.0000 C   0  0  0  0  0  0  0  0  0  0  0  0
   -3.2107   -0.4622    0.0000 C   0  0  0  0  0  0  0  0  0  0  0  0
    0.0750   -0.7320    0.0000 H   0  0  0  0  0  0  0  0  0  0  0  0
   -1.5913   -1.2079    0.0000 H   0  0  0  0  0  0  0  0  0  0  0  0
   -0.9718   -0.2518    0.0000 H   0  0  0  0  0  0  0  0  0  0  0  0
   -1.0458    1.6005    0.0000 H   0  0  0  0  0  0  0  0  0  0  0  0
   -0.1192    2.1355    0.0000 H   0  0  0  0  0  0  0  0  0  0  0  0
    1.3097    0.0335    0.0000 H   0  0  0  0  0  0  0  0  0  0  0  0
    2.9179    0.9620    0.0000 H   0  0  0  0  0  0  0  0  0  0  0  0
    3.5913    4.0328    0.0000 H   0  0  0  0  0  0  0  0  0  0  0  0
    1.8861    4.0328    0.0000 H   0  0  0  0  0  0  0  0  0  0  0  0
    3.4531    1.3185    0.0000 H   0  0  0  0  0  0  0  0  0  0  0  0
    4.3057    2.7952    0.0000 H   0  0  0  0  0  0  0  0  0  0  0  0
    1.3097    3.7475    0.0000 H   0  0  0  0  0  0  0  0  0  0  0  0
   -0.2984    2.8190    0.0000 H   0  0  0  0  0  0  0  0  0  0  0  0
    2.2803   -1.1514    0.0000 H   0  0  0  0  0  0  0  0  0  0  0  0
    1.4302   -0.4252    0.0000 H   0  0  0  0  0  0  0  0  0  0  0  0
    1.6367   -3.1322    0.0000 H   0  0  0  0  0  0  0  0  0  0  0  0
    0.5220   -3.2200    0.0000 H   0  0  0  0  0  0  0  0  0  0  0  0
   -0.4461   -3.1323    0.0000 H   0  0  0  0  0  0  0  0  0  0  0  0
   -0.8740   -2.0993    0.0000 H   0  0  0  0  0  0  0  0  0  0  0  0
   -2.0564   -3.2685    0.0000 H   0  0  0  0  0  0  0  0  0  0  0  0
   -0.3283   -2.9012    0.0000 H   0  0  0  0  0  0  0  0  0  0  0  0
   -3.0497   -2.2400    0.0000 H   0  0  0  0  0  0  0  0  0  0  0  0
   -3.2721   -1.1934    0.0000 H   0  0  0  0  0  0  0  0  0  0  0  0
   -0.8315   -0.4839    0.0000 H   0  0  0  0  0  0  0  0  0  0  0  0
   -1.2175    1.3323    0.0000 H   0  0  0  0  0  0  0  0  0  0  0  0
   -2.9836    1.9063    0.0000 H   0  0  0  0  0  0  0  0  0  0  0  0
   -4.3637    0.6637    0.0000 H   0  0  0  0  0  0  0  0  0  0  0  0
   -3.9777   -1.1527    0.0000 H   0  0  0  0  0  0  0  0  0  0  0  0
  1 19  1  0  0  0  0
  2  1  1  0  0  0  0
  2 30  1  1  0  0  0
  2  3  1  0  0  0  0
  3  5  1  0  0  0  0
  4  3  2  0  0  0  0
  5 32  1  0  0  0  0
  6  5  1  0  0  0  0
  6  7  1  0  0  0  0
  6 33  1  0  0  0  0
  6 34  1  0  0  0  0
  7 15  2  0  0  0  0
  7  8  1  0  0  0  0
  8  9  2  0  0  0  0
  8 35  1  0  0  0  0
  9 10  1  0  0  0  0
  9 36  1  0  0  0  0
 10 11  1  0  0  0  0
 11 13  1  0  0  0  0
 11 12  2  0  0  0  0
 12 37  1  0  0  0  0
 12 38  1  0  0  0  0
 13 39  1  0  0  0  0
 13 40  1  0  0  0  0
 14 10  2  0  0  0  0
 14 41  1  0  0  0  0
 15 14  1  0  0  0  0
 15 42  1  0  0  0  0
 16 17  1  0  0  0  0
 16  2  1  0  0  0  0
 16 43  1  0  0  0  0
 16 44  1  0  0  0  0
 17 18  1  0  0  0  0
 17 45  1  0  0  0  0
 17 46  1  0  0  0  0
 18  1  1  0  0  0  0
 18 47  1  0  0  0  0
 18 48  1  0  0  0  0
 19 23  2  0  0  0  0
 19 20  1  0  0  0  0
 20 22  1  0  0  0  0
 20 31  1  1  0  0  0
 20 21  1  0  0  0  0
 21 49  1  0  0  0  0
 21 50  1  0  0  0  0
 22 24  1  0  0  0  0
 22 51  1  0  0  0  0
 22 52  1  0  0  0  0
 24 29  2  0  0  0  0
 25 26  2  0  0  0  0
 25 24  1  0  0  0  0
 25 53  1  0  0  0  0
 26 27  1  0  0  0  0
 26 54  1  0  0  0  0
 27 28  2  0  0  0  0
 27 55  1  0  0  0  0
 28 56  1  0  0  0  0
 29 28  1  0  0  0  0
 29 57  1  0  0  0  0
M  CHG  1  12   1
M  END
>  <DRUGBANK_ID>
DB07005

>  <COMMON_NAME>
D-phenylalanyl-N-{4-[amino(iminio)methyl]benzyl}-L-prolinamide

$$$$
