
 OpenBabel10282417072D
Written by jPsi
 23 22  0  0  0  0  0  0  0  0999 V2000
   51.9245   51.3612    0.0000 C   0  0  1  0  0  0  0  0  0  0  0  0
   51.2096   51.7729    0.0000 C   0  0  1  0  0  0  0  0  0  0  0  0
   50.4947   51.3612    0.0000 C   0  0  0  0  0  0  0  0  0  0  0  0
   49.7795   51.7729    0.0000 C   0  0  0  0  0  0  0  0  0  0  0  0
   49.0646   51.3612    0.0000 O   0  0  0  0  0  0  0  0  0  0  0  0
   51.2096   52.5986    0.0000 O   0  0  0  0  0  0  0  0  0  0  0  0
   52.6394   51.7729    0.0000 C   0  0  1  0  0  0  0  0  0  0  0  0
   53.3546   51.3612    0.0000 C   0  0  0  0  0  0  0  0  0  0  0  0
   54.0695   51.7729    0.0000 O   0  0  0  0  0  0  0  0  0  0  0  0
   52.6394   52.5986    0.0000 O   0  0  0  0  0  0  0  0  0  0  0  0
   51.9245   50.5355    0.0000 O   0  0  0  0  0  0  0  0  0  0  0  0
   50.9981   50.8257    0.0000 H   0  0  0  0  0  0  0  0  0  0  0  0
   52.1360   52.3084    0.0000 H   0  0  0  0  0  0  0  0  0  0  0  0
   50.4948   50.2912    0.0000 H   0  0  0  0  0  0  0  0  0  0  0  0
   49.5684   50.8256    0.0000 H   0  0  0  0  0  0  0  0  0  0  0  0
   49.7794   52.8049    0.0000 H   0  0  0  0  0  0  0  0  0  0  0  0
   52.0496   53.0836    0.0000 H   0  0  0  0  0  0  0  0  0  0  0  0
   51.7130   52.3084    0.0000 H   0  0  0  0  0  0  0  0  0  0  0  0
   53.3547   50.2912    0.0000 H   0  0  0  0  0  0  0  0  0  0  0  0
   54.2810   50.8257    0.0000 H   0  0  0  0  0  0  0  0  0  0  0  0
   54.9090   51.2870    0.0000 H   0  0  0  0  0  0  0  0  0  0  0  0
   53.4794   53.0836    0.0000 H   0  0  0  0  0  0  0  0  0  0  0  0
   51.0845   50.0505    0.0000 H   0  0  0  0  0  0  0  0  0  0  0  0
  1  2  1  0  0  0  0
  1  7  1  0  0  0  0
  1 11  1  0  0  0  0
  1 12  1  6  0  0  0
  2  3  1  0  0  0  0
  2  6  1  0  0  0  0
  2 13  1  6  0  0  0
  3  4  1  0  0  0  0
  3 14  1  0  0  0  0
  3 15  1  0  0  0  0
  4  5  2  0  0  0  0
  4 16  1  0  0  0  0
  6 17  1  0  0  0  0
  7  8  1  0  0  0  0
  7 10  1  0  0  0  0
  7 18  1  1  0  0  0
  8  9  1  0  0  0  0
  8 19  1  0  0  0  0
  8 20  1  0  0  0  0
  9 21  1  0  0  0  0
 10 22  1  0  0  0  0
 11 23  1  0  0  0  0
M  END
>  <DRUGBANK_ID>
DB08831

>  <COMMON_NAME>
2-deoxyglucose

>  <CAS_NUMBER>
154-17-6

>  <UNII>
9G2MP84A8W

>  <SYNONYMS>
2-Deoxy-D-arabino-hexose; 2-deoxy-D-glucose; 2-DG; D-arabino-2-desoxyhexose

$$$$
