
 OpenBabel10282417072D

 73 77  0  0  0  0  0  0  0  0999 V2000
    0.3281   -0.2906    0.0000 C   0  0  2  0  0  0  0  0  0  0  0  0
    0.2869   -1.1158    0.0000 C   0  0  0  0  0  0  0  0  0  0  0  0
   -0.3733    0.1220    0.0000 N   0  0  0  0  0  0  0  0  0  0  0  0
   -0.4146   -1.5285    0.0000 C   0  0  0  0  0  0  0  0  0  0  0  0
    0.9884   -1.5698    0.0000 C   0  0  0  0  0  0  0  0  0  0  0  0
   -1.1161   -0.2493    0.0000 C   0  0  0  0  0  0  0  0  0  0  0  0
   -0.4558   -2.3538    0.0000 C   0  0  0  0  0  0  0  0  0  0  0  0
   -1.1161   -1.1158    0.0000 C   0  0  0  0  0  0  0  0  0  0  0  0
    0.9884   -2.3951    0.0000 C   0  0  0  0  0  0  0  0  0  0  0  0
    0.2456   -2.7665    0.0000 C   0  0  0  0  0  0  0  0  0  0  0  0
    1.6899   -2.8078    0.0000 O   0  0  0  0  0  0  0  0  0  0  0  0
    0.2456   -3.5918    0.0000 O   0  0  0  0  0  0  0  0  0  0  0  0
   -0.4558   -4.0045    0.0000 C   0  0  0  0  0  0  0  0  0  0  0  0
   -3.2215    3.5921    0.0000 C   0  0  0  0  0  0  0  0  0  0  0  0
   -3.2215    2.7671    0.0000 C   0  0  0  0  0  0  0  0  0  0  0  0
   -2.5072    2.3547    0.0000 O   0  0  0  0  0  0  0  0  0  0  0  0
   -1.7928    2.7671    0.0000 C   0  0  0  0  0  0  0  0  0  0  0  0
   -1.7928    3.5921    0.0000 C   0  0  0  0  0  0  0  0  0  0  0  0
   -2.5072    4.0045    0.0000 O   0  0  0  0  0  0  0  0  0  0  0  0
   -1.0783    2.3547    0.0000 C   0  0  0  0  0  0  0  0  0  0  0  0
   -0.3639    2.7671    0.0000 C   0  0  0  0  0  0  0  0  0  0  0  0
   -0.3639    3.5921    0.0000 C   0  0  0  0  0  0  0  0  0  0  0  0
   -1.0783    4.0045    0.0000 C   0  0  0  0  0  0  0  0  0  0  0  0
    0.3505    2.3547    0.0000 C   0  0  1  0  0  0  0  0  0  0  0  0
    1.0649    2.7671    0.0000 N   0  0  3  0  0  0  0  0  0  0  0  0
    1.0649    3.5921    0.0000 C   0  0  0  0  0  0  0  0  0  0  0  0
    0.3505    4.0045    0.0000 C   0  0  0  0  0  0  0  0  0  0  0  0
    0.3505    1.5296    0.0000 C   0  0  0  0  0  0  0  0  0  0  0  0
    1.0649    1.1171    0.0000 C   0  0  0  0  0  0  0  0  0  0  0  0
    1.7793    1.5296    0.0000 C   0  0  0  0  0  0  0  0  0  0  0  0
    1.7793    2.3547    0.0000 C   0  0  0  0  0  0  0  0  0  0  0  0
    1.0649    0.2922    0.0000 C   0  0  0  0  0  0  0  0  0  0  0  0
    2.4938    1.1171    0.0000 C   0  0  0  0  0  0  0  0  0  0  0  0
   -0.3639    1.9421    0.0000 H   0  0  0  0  0  0  0  0  0  0  0  0
    3.2215    1.5375    0.0000 C   0  0  0  0  0  0  0  0  0  0  0  0
    1.6899   -3.6357    0.0000 C   0  0  0  0  0  0  0  0  0  0  0  0
    1.2793   -0.7806    0.0000 H   0  0  0  0  0  0  0  0  0  0  0  0
   -0.3385    1.1414    0.0000 H   0  0  0  0  0  0  0  0  0  0  0  0
    1.8950   -1.0767    0.0000 H   0  0  0  0  0  0  0  0  0  0  0  0
   -2.0263    0.3133    0.0000 H   0  0  0  0  0  0  0  0  0  0  0  0
   -2.0507   -0.7703    0.0000 H   0  0  0  0  0  0  0  0  0  0  0  0
   -1.3642   -2.8436    0.0000 H   0  0  0  0  0  0  0  0  0  0  0  0
   -2.0449   -1.6470    0.0000 H   0  0  0  0  0  0  0  0  0  0  0  0
   -2.0417   -0.5789    0.0000 H   0  0  0  0  0  0  0  0  0  0  0  0
   -1.3868   -3.4772    0.0000 H   0  0  0  0  0  0  0  0  0  0  0  0
   -0.4470   -5.0745    0.0000 H   0  0  0  0  0  0  0  0  0  0  0  0
   -1.3780   -4.5471    0.0000 H   0  0  0  0  0  0  0  0  0  0  0  0
   -4.1481    4.1271    0.0000 H   0  0  0  0  0  0  0  0  0  0  0  0
   -3.2215    2.5221    0.0000 H   0  0  0  0  0  0  0  0  0  0  0  0
   -4.1481    3.0571    0.0000 H   0  0  0  0  0  0  0  0  0  0  0  0
   -3.2215    3.8371    0.0000 H   0  0  0  0  0  0  0  0  0  0  0  0
   -4.1481    2.2321    0.0000 H   0  0  0  0  0  0  0  0  0  0  0  0
   -4.1481    3.3021    0.0000 H   0  0  0  0  0  0  0  0  0  0  0  0
   -1.0783    1.3227    0.0000 H   0  0  0  0  0  0  0  0  0  0  0  0
   -1.0783    5.0365    0.0000 H   0  0  0  0  0  0  0  0  0  0  0  0
    1.9915    4.1271    0.0000 H   0  0  0  0  0  0  0  0  0  0  0  0
    1.0649    4.6621    0.0000 H   0  0  0  0  0  0  0  0  0  0  0  0
    0.3505    5.0745    0.0000 H   0  0  0  0  0  0  0  0  0  0  0  0
   -0.5761    4.5395    0.0000 H   0  0  0  0  0  0  0  0  0  0  0  0
   -0.5762    0.9946    0.0000 H   0  0  0  0  0  0  0  0  0  0  0  0
    0.3505    0.4596    0.0000 H   0  0  0  0  0  0  0  0  0  0  0  0
    2.7059    2.8897    0.0000 H   0  0  0  0  0  0  0  0  0  0  0  0
    1.7793    3.4247    0.0000 H   0  0  0  0  0  0  0  0  0  0  0  0
    2.0280   -0.1740    0.0000 H   0  0  0  0  0  0  0  0  0  0  0  0
    1.1815   -0.7714    0.0000 H   0  0  0  0  0  0  0  0  0  0  0  0
    2.4940    0.0471    0.0000 H   0  0  0  0  0  0  0  0  0  0  0  0
    3.4206    0.5823    0.0000 H   0  0  0  0  0  0  0  0  0  0  0  0
    4.1483    1.0028    0.0000 H   0  0  0  0  0  0  0  0  0  0  0  0
    3.2212    2.6075    0.0000 H   0  0  0  0  0  0  0  0  0  0  0  0
    4.1480    2.0728    0.0000 H   0  0  0  0  0  0  0  0  0  0  0  0
    0.7633   -4.1707    0.0000 H   0  0  0  0  0  0  0  0  0  0  0  0
    2.6165   -4.1707    0.0000 H   0  0  0  0  0  0  0  0  0  0  0  0
    1.6899   -4.7057    0.0000 H   0  0  0  0  0  0  0  0  0  0  0  0
  1  2  1  0  0  0  0
  1  3  1  0  0  0  0
  1 32  1  0  0  0  0
  1 37  1  1  0  0  0
  2  4  2  0  0  0  0
  2  5  1  0  0  0  0
  3  6  1  0  0  0  0
  3 38  1  0  0  0  0
  4  7  1  0  0  0  0
  4  8  1  0  0  0  0
  5  9  2  0  0  0  0
  5 39  1  0  0  0  0
  6  8  1  0  0  0  0
  6 40  1  0  0  0  0
  6 41  1  0  0  0  0
  7 10  2  0  0  0  0
  7 42  1  0  0  0  0
  8 43  1  0  0  0  0
  8 44  1  0  0  0  0
  9 11  1  0  0  0  0
  9 10  1  0  0  0  0
 10 12  1  0  0  0  0
 11 36  1  0  0  0  0
 12 13  1  0  0  0  0
 13 45  1  0  0  0  0
 13 46  1  0  0  0  0
 13 47  1  0  0  0  0
 14 19  1  0  0  0  0
 14 48  1  0  0  0  0
 14 49  1  0  0  0  0
 14 50  1  0  0  0  0
 15 16  1  0  0  0  0
 15 51  1  0  0  0  0
 15 52  1  0  0  0  0
 15 53  1  0  0  0  0
 16 17  1  0  0  0  0
 17 18  1  0  0  0  0
 17 20  2  0  0  0  0
 18 19  1  0  0  0  0
 18 23  2  0  0  0  0
 20 21  1  0  0  0  0
 20 54  1  0  0  0  0
 21 22  2  0  0  0  0
 21 24  1  0  0  0  0
 22 23  1  0  0  0  0
 22 27  1  0  0  0  0
 23 55  1  0  0  0  0
 24 25  1  0  0  0  0
 24 28  1  0  0  0  0
 24 34  1  6  0  0  0
 25 26  1  0  0  0  0
 25 31  1  0  0  0  0
 26 27  1  0  0  0  0
 26 56  1  0  0  0  0
 26 57  1  0  0  0  0
 27 58  1  0  0  0  0
 27 59  1  0  0  0  0
 28 29  1  0  0  0  0
 28 60  1  0  0  0  0
 28 61  1  0  0  0  0
 29 30  2  0  0  0  0
 29 32  1  0  0  0  0
 30 31  1  0  0  0  0
 30 33  1  0  0  0  0
 31 62  1  0  0  0  0
 31 63  1  0  0  0  0
 32 64  1  0  0  0  0
 32 65  1  0  0  0  0
 33 35  1  0  0  0  0
 33 66  1  0  0  0  0
 33 67  1  0  0  0  0
 35 68  1  0  0  0  0
 35 69  1  0  0  0  0
 35 70  1  0  0  0  0
 36 71  1  0  0  0  0
 36 72  1  0  0  0  0
 36 73  1  0  0  0  0
M  END
>  <DRUGBANK_ID>
DB13865

>  <COMMON_NAME>
Dehydroemetine

>  <CAS_NUMBER>
4914-30-1

>  <UNII>
7S79QT1T91

>  <SYNONYMS>
Dehydroemetine

$$$$
