
 OpenBabel10282417072D

 52 55  0  0  0  0  0  0  0  0999 V2000
   -2.7795    1.2918    0.0000 C   0  0  0  0  0  0  0  0  0  0  0  0
   -2.1382    1.9754    0.0000 C   0  0  3  0  0  0  0  0  0  0  0  0
   -1.9750    1.5168    0.0000 C   0  0  3  0  0  0  0  0  0  0  0  0
   -1.4269    1.7128    0.0000 C   0  0  0  0  0  0  0  0  0  0  0  0
   -1.2223    1.2140    0.0000 C   0  0  0  0  0  0  0  0  0  0  0  0
   -0.6790    1.8983    0.0000 C   0  0  3  0  0  0  0  0  0  0  0  0
   -1.9777    2.3693    0.0000 C   0  0  0  0  0  0  0  0  0  0  0  0
   -1.4211    3.0272    0.0000 C   0  0  3  0  0  0  0  0  0  0  0  0
   -2.1427    2.7708    0.0000 C   0  0  0  0  0  0  0  0  0  0  0  0
   -0.6732    2.7172    0.0000 C   0  0  0  0  0  0  0  0  0  0  0  0
    0.1452    1.9309    0.0000 N   0  0  0  0  0  0  0  0  0  0  0  0
    0.5856    1.2333    0.0000 C   0  0  0  0  0  0  0  0  0  0  0  0
    1.4100    1.2659    0.0000 O   0  0  0  0  0  0  0  0  0  0  0  0
    0.2007    0.5016    0.0000 N   0  0  0  0  0  0  0  0  0  0  0  0
    0.6409   -0.1960    0.0000 C   0  0  0  0  0  0  0  0  0  0  0  0
    0.2559   -0.9316    0.0000 C   0  0  0  0  0  0  0  0  0  0  0  0
    0.6926   -1.6273    0.0000 C   0  0  0  0  0  0  0  0  0  0  0  0
    1.5174   -1.5992    0.0000 N   0  0  0  0  0  0  0  0  0  0  0  0
    1.9038   -0.8691    0.0000 C   0  0  0  0  0  0  0  0  0  0  0  0
    1.4653   -0.1672    0.0000 C   0  0  0  0  0  0  0  0  0  0  0  0
    1.9550   -2.2986    0.0000 C   0  0  0  0  0  0  0  0  0  0  0  0
    1.5681   -3.0272    0.0000 C   0  0  0  0  0  0  0  0  0  0  0  0
    2.7795   -2.2693    0.0000 O   0  0  0  0  0  0  0  0  0  0  0  0
   -3.6945    0.7371    0.0000 H   0  0  0  0  0  0  0  0  0  0  0  0
   -2.3541    0.3100    0.0000 H   0  0  0  0  0  0  0  0  0  0  0  0
   -1.8924    0.9340    0.0000 H   0  0  0  0  0  0  0  0  0  0  0  0
   -2.0337    0.4484    0.0000 H   0  0  0  0  0  0  0  0  0  0  0  0
   -1.4860    0.6444    0.0000 H   0  0  0  0  0  0  0  0  0  0  0  0
   -0.6027    1.0305    0.0000 H   0  0  0  0  0  0  0  0  0  0  0  0
   -0.9486    0.1796    0.0000 H   0  0  0  0  0  0  0  0  0  0  0  0
   -0.1750    0.9949    0.0000 H   0  0  0  0  0  0  0  0  0  0  0  0
   -2.9830    2.7357    0.0000 H   0  0  0  0  0  0  0  0  0  0  0  0
   -2.8534    1.7544    0.0000 H   0  0  0  0  0  0  0  0  0  0  0  0
   -1.1690    1.9873    0.0000 H   0  0  0  0  0  0  0  0  0  0  0  0
   -3.0186    3.3854    0.0000 H   0  0  0  0  0  0  0  0  0  0  0  0
   -1.9984    3.8310    0.0000 H   0  0  0  0  0  0  0  0  0  0  0  0
    0.2186    3.3084    0.0000 H   0  0  0  0  0  0  0  0  0  0  0  0
   -0.7760    3.7823    0.0000 H   0  0  0  0  0  0  0  0  0  0  0  0
    0.6034    2.8023    0.0000 H   0  0  0  0  0  0  0  0  0  0  0  0
   -0.7830    0.4629    0.0000 H   0  0  0  0  0  0  0  0  0  0  0  0
    1.2109   -1.1016    0.0000 H   0  0  0  0  0  0  0  0  0  0  0  0
   -0.8133   -0.9735    0.0000 H   0  0  0  0  0  0  0  0  0  0  0  0
   -0.2434   -1.8779    0.0000 H   0  0  0  0  0  0  0  0  0  0  0  0
    0.1908   -2.5724    0.0000 H   0  0  0  0  0  0  0  0  0  0  0  0
    1.2595   -2.5348    0.0000 H   0  0  0  0  0  0  0  0  0  0  0  0
    2.9731   -0.8308    0.0000 H   0  0  0  0  0  0  0  0  0  0  0  0
    2.4057    0.0759    0.0000 H   0  0  0  0  0  0  0  0  0  0  0  0
    1.9677    0.7775    0.0000 H   0  0  0  0  0  0  0  0  0  0  0  0
    2.5347   -0.1299    0.0000 H   0  0  0  0  0  0  0  0  0  0  0  0
    0.4988   -3.0651    0.0000 H   0  0  0  0  0  0  0  0  0  0  0  0
    2.1356   -3.9343    0.0000 H   0  0  0  0  0  0  0  0  0  0  0  0
    1.0663   -3.9722    0.0000 H   0  0  0  0  0  0  0  0  0  0  0  0
  1  2  1  0  0  0  0
  1  3  1  0  0  0  0
  1 24  1  0  0  0  0
  1 25  1  0  0  0  0
  2  4  1  0  0  0  0
  2  9  1  0  0  0  0
  2 26  1  0  0  0  0
  3  5  1  0  0  0  0
  3  7  1  0  0  0  0
  3 27  1  0  0  0  0
  4  6  1  0  0  0  0
  4 28  1  0  0  0  0
  4 29  1  0  0  0  0
  5  6  1  0  0  0  0
  5 30  1  0  0  0  0
  5 31  1  0  0  0  0
  6 11  1  0  0  0  0
  6 10  1  0  0  0  0
  7  8  1  0  0  0  0
  7 32  1  0  0  0  0
  7 33  1  0  0  0  0
  8  9  1  0  0  0  0
  8 34  1  0  0  0  0
  9 35  1  0  0  0  0
  9 36  1  0  0  0  0
 10  8  1  0  0  0  0
 10 37  1  0  0  0  0
 10 38  1  0  0  0  0
 11 12  1  0  0  0  0
 11 39  1  0  0  0  0
 12 13  2  0  0  0  0
 12 14  1  0  0  0  0
 14 15  1  0  0  0  0
 14 40  1  0  0  0  0
 15 16  1  0  0  0  0
 15 20  1  0  0  0  0
 15 41  1  0  0  0  0
 16 17  1  0  0  0  0
 16 42  1  0  0  0  0
 16 43  1  0  0  0  0
 17 18  1  0  0  0  0
 17 44  1  0  0  0  0
 17 45  1  0  0  0  0
 18 19  1  0  0  0  0
 18 21  1  0  0  0  0
 19 20  1  0  0  0  0
 19 46  1  0  0  0  0
 19 47  1  0  0  0  0
 20 48  1  0  0  0  0
 20 49  1  0  0  0  0
 21 22  1  0  0  0  0
 21 23  2  0  0  0  0
 22 50  1  0  0  0  0
 22 51  1  0  0  0  0
 22 52  1  0  0  0  0
M  END
>  <DRUGBANK_ID>
DB06345

>  <COMMON_NAME>
AR-9281

>  <CAS_NUMBER>
913548-29-5

>  <UNII>
4HA03Q8EZ9

>  <SYNONYMS>
APAU

$$$$
