X98
 OpenBabel10282417072D

 61 65  0  0  0  0  0  0  0  0999 V2000
   -0.5006   -1.0110    0.0000 C   0  0  0  0  0  0  0  0  0  0  0  0
    0.2139   -1.4235    0.0000 O   0  0  0  0  0  0  0  0  0  0  0  0
   -0.5006   -0.1860    0.0000 C   0  0  0  0  0  0  0  0  0  0  0  0
    0.2139    0.2265    0.0000 C   0  0  0  0  0  0  0  0  0  0  0  0
    0.2139    1.0515    0.0000 N   0  0  0  0  0  0  0  0  0  0  0  0
   -0.5006    1.4640    0.0000 C   0  0  0  0  0  0  0  0  0  0  0  0
   -0.5006    2.2890    0.0000 C   0  0  0  0  0  0  0  0  0  0  0  0
    0.2139    2.7015    0.0000 N   0  0  0  0  0  0  0  0  0  0  0  0
    0.9284    2.2890    0.0000 C   0  0  0  0  0  0  0  0  0  0  0  0
    1.6428    2.7015    0.0000 C   0  0  0  0  0  0  0  0  0  0  0  0
    2.3573    2.2890    0.0000 C   0  0  0  0  0  0  0  0  0  0  0  0
    2.3573    1.4640    0.0000 C   0  0  0  0  0  0  0  0  0  0  0  0
    1.6428    1.0515    0.0000 C   0  0  0  0  0  0  0  0  0  0  0  0
    0.9284    1.4640    0.0000 C   0  0  0  0  0  0  0  0  0  0  0  0
   -1.2151    1.0515    0.0000 O   0  0  0  0  0  0  0  0  0  0  0  0
   -1.2151    2.7015    0.0000 C   0  0  0  0  0  0  0  0  0  0  0  0
   -1.9295    2.2890    0.0000 C   0  0  0  0  0  0  0  0  0  0  0  0
   -2.6440    2.7015    0.0000 C   0  0  0  0  0  0  0  0  0  0  0  0
   -2.6440    3.5265    0.0000 C   0  0  0  0  0  0  0  0  0  0  0  0
   -1.9295    3.9390    0.0000 C   0  0  0  0  0  0  0  0  0  0  0  0
   -1.2151    3.5265    0.0000 C   0  0  0  0  0  0  0  0  0  0  0  0
   -1.2151   -1.4235    0.0000 N   0  0  0  0  0  0  0  0  0  0  0  0
   -1.3013   -2.2440    0.0000 C   0  0  2  0  0  0  0  0  0  0  0  0
   -0.6882   -2.7960    0.0000 C   0  0  0  0  0  0  0  0  0  0  0  0
   -0.8597   -3.6030    0.0000 O   0  0  0  0  0  0  0  0  0  0  0  0
   -2.1083   -2.4155    0.0000 C   0  0  0  0  0  0  0  0  0  0  0  0
   -2.5208   -1.7011    0.0000 C   0  0  0  0  0  0  0  0  0  0  0  0
   -1.9687   -1.0880    0.0000 C   0  0  0  0  0  0  0  0  0  0  0  0
    0.0964   -2.5411    0.0000 N   0  0  0  0  0  0  0  0  0  0  0  0
    0.3514   -1.7565    0.0000 C   0  0  0  0  0  0  0  0  0  0  0  0
    0.7639   -3.0260    0.0000 C   0  0  0  0  0  0  0  0  0  0  0  0
    1.4313   -2.5411    0.0000 C   0  0  0  0  0  0  0  0  0  0  0  0
    1.1764   -1.7565    0.0000 C   0  0  0  0  0  0  0  0  0  0  0  0
   -0.7561   -2.0347    0.0000 H   0  0  0  0  0  0  0  0  0  0  0  0
   -1.4272    0.3490    0.0000 H   0  0  0  0  0  0  0  0  0  0  0  0
   -0.5006    0.8840    0.0000 H   0  0  0  0  0  0  0  0  0  0  0  0
    1.1405   -0.3085    0.0000 H   0  0  0  0  0  0  0  0  0  0  0  0
    1.1405    0.7615    0.0000 H   0  0  0  0  0  0  0  0  0  0  0  0
    1.6428    3.7335    0.0000 H   0  0  0  0  0  0  0  0  0  0  0  0
    3.2510    2.8050    0.0000 H   0  0  0  0  0  0  0  0  0  0  0  0
    3.2510    0.9480    0.0000 H   0  0  0  0  0  0  0  0  0  0  0  0
    1.6428    0.0195    0.0000 H   0  0  0  0  0  0  0  0  0  0  0  0
   -1.9295    1.2570    0.0000 H   0  0  0  0  0  0  0  0  0  0  0  0
   -3.5377    2.1855    0.0000 H   0  0  0  0  0  0  0  0  0  0  0  0
   -3.5377    4.0425    0.0000 H   0  0  0  0  0  0  0  0  0  0  0  0
   -1.9295    4.9710    0.0000 H   0  0  0  0  0  0  0  0  0  0  0  0
   -0.3214    4.0425    0.0000 H   0  0  0  0  0  0  0  0  0  0  0  0
   -2.5435   -3.3930    0.0000 H   0  0  0  0  0  0  0  0  0  0  0  0
   -3.1768   -2.4715    0.0000 H   0  0  0  0  0  0  0  0  0  0  0  0
   -3.5849   -1.5892    0.0000 H   0  0  0  0  0  0  0  0  0  0  0  0
   -2.9042   -0.7022    0.0000 H   0  0  0  0  0  0  0  0  0  0  0  0
   -2.1912   -0.0414    0.0000 H   0  0  0  0  0  0  0  0  0  0  0  0
   -3.0022   -0.8110    0.0000 H   0  0  0  0  0  0  0  0  0  0  0  0
   -0.2775   -0.8908    0.0000 H   0  0  0  0  0  0  0  0  0  0  0  0
    0.8372   -0.8031    0.0000 H   0  0  0  0  0  0  0  0  0  0  0  0
    0.7639   -4.0960    0.0000 H   0  0  0  0  0  0  0  0  0  0  0  0
    1.7173   -3.5118    0.0000 H   0  0  0  0  0  0  0  0  0  0  0  0
    2.4489   -2.8718    0.0000 H   0  0  0  0  0  0  0  0  0  0  0  0
    2.1879   -1.7845    0.0000 H   0  0  0  0  0  0  0  0  0  0  0  0
    1.8053   -0.8909    0.0000 H   0  0  0  0  0  0  0  0  0  0  0  0
    2.2332   -1.9239    0.0000 H   0  0  0  0  0  0  0  0  0  0  0  0
  1  2  2  0  0  0  0
  1  3  1  0  0  0  0
  1 22  1  0  0  0  0
  3  4  1  0  0  0  0
  3 35  1  0  0  0  0
  3 36  1  0  0  0  0
  4  5  1  0  0  0  0
  4 37  1  0  0  0  0
  4 38  1  0  0  0  0
  5  6  1  0  0  0  0
  5 14  1  0  0  0  0
  6  7  1  0  0  0  0
  6 15  2  0  0  0  0
  7  8  2  0  0  0  0
  7 16  1  0  0  0  0
  8  9  1  0  0  0  0
  9 10  2  0  0  0  0
  9 14  1  0  0  0  0
 10 11  1  0  0  0  0
 10 39  1  0  0  0  0
 11 12  2  0  0  0  0
 11 40  1  0  0  0  0
 12 13  1  0  0  0  0
 12 41  1  0  0  0  0
 13 14  2  0  0  0  0
 13 42  1  0  0  0  0
 16 17  2  0  0  0  0
 16 21  1  0  0  0  0
 17 18  1  0  0  0  0
 17 43  1  0  0  0  0
 18 19  2  0  0  0  0
 18 44  1  0  0  0  0
 19 20  1  0  0  0  0
 19 45  1  0  0  0  0
 20 21  2  0  0  0  0
 20 46  1  0  0  0  0
 21 47  1  0  0  0  0
 22 23  1  0  0  0  0
 22 28  1  0  0  0  0
 23 24  1  0  0  0  0
 23 26  1  0  0  0  0
 23 34  1  1  0  0  0
 24 25  2  0  0  0  0
 24 29  1  0  0  0  0
 26 27  1  0  0  0  0
 26 48  1  0  0  0  0
 26 49  1  0  0  0  0
 27 28  1  0  0  0  0
 27 50  1  0  0  0  0
 27 51  1  0  0  0  0
 28 52  1  0  0  0  0
 28 53  1  0  0  0  0
 29 30  1  0  0  0  0
 29 31  1  0  0  0  0
 30 33  1  0  0  0  0
 30 54  1  0  0  0  0
 30 55  1  0  0  0  0
 31 32  1  0  0  0  0
 31 56  1  0  0  0  0
 31 57  1  0  0  0  0
 32 33  1  0  0  0  0
 32 58  1  0  0  0  0
 32 59  1  0  0  0  0
 33 60  1  0  0  0  0
 33 61  1  0  0  0  0
M  END
>  <DRUGBANK_ID>
DB08738

>  <COMMON_NAME>
1-{3-oxo-3-[(2S)-2-(pyrrolidin-1-ylcarbonyl)pyrrolidin-1-yl]propyl}-3-phenylquinoxalin-2(1H)-one

$$$$
