1348
 OpenBabel10282417072D

 61 63  0  0  1  0  0  0  0  0999 V2000
    6.6536   -1.7767    0.0000 S   0  0  0  0  0  0  0  0  0  0  0  0
    7.9885   -1.7767    0.0000 S   0  0  0  0  0  0  0  0  0  0  0  0
    6.7592    1.3989    0.0000 O   0  0  0  0  0  0  0  0  0  0  0  0
    9.0390    0.5590    0.0000 O   0  0  0  0  0  0  0  0  0  0  0  0
    7.8829    1.3989    0.0000 O   0  0  0  0  0  0  0  0  0  0  0  0
    2.9922    1.7214    0.0000 O   0  0  0  0  0  0  0  0  0  0  0  0
    4.1483    2.5613    0.0000 O   0  0  0  0  0  0  0  0  0  0  0  0
    6.9086   -0.0222    0.0000 N   0  0  0  0  0  0  0  0  0  0  0  0
    5.1182    1.2265    0.0000 N   0  0  0  0  0  0  0  0  0  0  0  0
    7.3211   -1.2918    0.0000 C   0  0  0  0  0  0  0  0  0  0  0  0
    7.9885   -0.8069    0.0000 C   0  0  0  0  0  0  0  0  0  0  0  0
    7.7336   -0.0222    0.0000 C   0  0  1  0  0  0  0  0  0  0  0  0
    6.6536   -0.8069    0.0000 C   0  0  0  0  0  0  0  0  0  0  0  0
    6.4236    0.6452    0.0000 C   0  0  0  0  0  0  0  0  0  0  0  0
    6.9086   -2.5613    0.0000 C   0  0  0  0  0  0  0  0  0  0  0  0
    7.7336   -2.5613    0.0000 C   0  0  0  0  0  0  0  0  0  0  0  0
    8.2185    0.6452    0.0000 C   0  0  0  0  0  0  0  0  0  0  0  0
    5.6032    0.5590    0.0000 C   0  0  2  0  0  0  0  0  0  0  0  0
    4.2977    1.1402    0.0000 C   0  0  1  0  0  0  0  0  0  0  0  0
    5.2675   -0.1947    0.0000 C   0  0  0  0  0  0  0  0  0  0  0  0
    3.9621    0.3865    0.0000 C   0  0  0  0  0  0  0  0  0  0  0  0
    3.1416    0.3003    0.0000 C   0  0  0  0  0  0  0  0  0  0  0  0
    3.8128    1.8077    0.0000 C   0  0  0  0  0  0  0  0  0  0  0  0
    2.8061   -0.4534    0.0000 C   0  0  0  0  0  0  0  0  0  0  0  0
    1.9856   -0.5396    0.0000 C   0  0  0  0  0  0  0  0  0  0  0  0
    3.2910   -1.1209    0.0000 C   0  0  0  0  0  0  0  0  0  0  0  0
    2.5074    2.3889    0.0000 C   0  0  0  0  0  0  0  0  0  0  0  0
    1.6500   -1.2933    0.0000 C   0  0  0  0  0  0  0  0  0  0  0  0
    2.9554   -1.8745    0.0000 C   0  0  0  0  0  0  0  0  0  0  0  0
    2.1350   -1.9608    0.0000 C   0  0  0  0  0  0  0  0  0  0  0  0
    1.6868    2.3026    0.0000 C   0  0  0  0  0  0  0  0  0  0  0  0
    9.4202   -0.2970    0.0000 H   0  0  0  0  0  0  0  0  0  0  0  0
    5.5330    2.1583    0.0000 H   0  0  0  0  0  0  0  0  0  0  0  0
    9.0061   -1.1376    0.0000 H   0  0  0  0  0  0  0  0  0  0  0  0
    8.7451   -0.0503    0.0000 H   0  0  0  0  0  0  0  0  0  0  0  0
    7.2478    0.9312    0.0000 H   0  0  0  0  0  0  0  0  0  0  0  0
    5.6360   -1.1376    0.0000 H   0  0  0  0  0  0  0  0  0  0  0  0
    6.4863   -1.8637    0.0000 H   0  0  0  0  0  0  0  0  0  0  0  0
    6.2797   -3.4270    0.0000 H   0  0  0  0  0  0  0  0  0  0  0  0
    7.3944   -3.5147    0.0000 H   0  0  0  0  0  0  0  0  0  0  0  0
    8.3625   -3.4269    0.0000 H   0  0  0  0  0  0  0  0  0  0  0  0
    7.2478   -3.5147    0.0000 H   0  0  0  0  0  0  0  0  0  0  0  0
    6.0384    1.5365    0.0000 H   0  0  0  0  0  0  0  0  0  0  0  0
    4.9266    0.2746    0.0000 H   0  0  0  0  0  0  0  0  0  0  0  0
    4.2033   -0.3064    0.0000 H   0  0  0  0  0  0  0  0  0  0  0  0
    5.8963   -1.0604    0.0000 H   0  0  0  0  0  0  0  0  0  0  0  0
    4.8321   -1.1721    0.0000 H   0  0  0  0  0  0  0  0  0  0  0  0
    4.5910   -0.4792    0.0000 H   0  0  0  0  0  0  0  0  0  0  0  0
    3.5268   -0.5910    0.0000 H   0  0  0  0  0  0  0  0  0  0  0  0
    2.5127    1.1659    0.0000 H   0  0  0  0  0  0  0  0  0  0  0  0
    2.0775    0.1884    0.0000 H   0  0  0  0  0  0  0  0  0  0  0  0
    1.3790    0.2953    0.0000 H   0  0  0  0  0  0  0  0  0  0  0  0
    4.3174   -1.0131    0.0000 H   0  0  0  0  0  0  0  0  0  0  0  0
    2.9427    3.3664    0.0000 H   0  0  0  0  0  0  0  0  0  0  0  0
    1.8785    3.2545    0.0000 H   0  0  0  0  0  0  0  0  0  0  0  0
    0.6237   -1.4012    0.0000 H   0  0  0  0  0  0  0  0  0  0  0  0
    3.5620   -2.7094    0.0000 H   0  0  0  0  0  0  0  0  0  0  0  0
    1.7153   -2.9036    0.0000 H   0  0  0  0  0  0  0  0  0  0  0  0
    1.0578    3.1682    0.0000 H   0  0  0  0  0  0  0  0  0  0  0  0
    1.2517    1.3251    0.0000 H   0  0  0  0  0  0  0  0  0  0  0  0
    0.6227    2.1907    0.0000 H   0  0  0  0  0  0  0  0  0  0  0  0
  1 10  1  0  0  0  0
  1 15  1  0  0  0  0
  2 10  1  0  0  0  0
  2 16  1  0  0  0  0
  3 14  2  0  0  0  0
  4 17  1  0  0  0  0
  4 32  1  0  0  0  0
  5 17  2  0  0  0  0
  6 23  1  0  0  0  0
  6 27  1  0  0  0  0
  7 23  2  0  0  0  0
  8 12  1  0  0  0  0
  8 13  1  0  0  0  0
  8 14  1  0  0  0  0
  9 33  1  0  0  0  0
 10 11  1  0  0  0  0
 10 13  1  0  0  0  0
 11 12  1  0  0  0  0
 11 34  1  0  0  0  0
 11 35  1  0  0  0  0
 12 17  1  0  0  0  0
 12 36  1  1  0  0  0
 13 37  1  0  0  0  0
 13 38  1  0  0  0  0
 14 18  1  0  0  0  0
 15 16  1  0  0  0  0
 15 39  1  0  0  0  0
 15 40  1  0  0  0  0
 16 41  1  0  0  0  0
 16 42  1  0  0  0  0
 18  9  1  0  0  0  0
 18 20  1  0  0  0  0
 18 43  1  1  0  0  0
 19  9  1  0  0  0  0
 19 21  1  0  0  0  0
 19 23  1  0  0  0  0
 19 44  1  6  0  0  0
 20 45  1  0  0  0  0
 20 46  1  0  0  0  0
 20 47  1  0  0  0  0
 21 22  1  0  0  0  0
 21 48  1  0  0  0  0
 21 49  1  0  0  0  0
 22 24  1  0  0  0  0
 22 50  1  0  0  0  0
 22 51  1  0  0  0  0
 24 25  2  0  0  0  0
 24 26  1  0  0  0  0
 25 28  1  0  0  0  0
 25 52  1  0  0  0  0
 26 29  2  0  0  0  0
 26 53  1  0  0  0  0
 27 31  1  0  0  0  0
 27 54  1  0  0  0  0
 27 55  1  0  0  0  0
 28 30  2  0  0  0  0
 28 56  1  0  0  0  0
 29 30  1  0  0  0  0
 29 57  1  0  0  0  0
 30 58  1  0  0  0  0
 31 59  1  0  0  0  0
 31 60  1  0  0  0  0
 31 61  1  0  0  0  0
M  END
>  <DRUGBANK_ID>
DB01348

>  <COMMON_NAME>
Spirapril

>  <CAS_NUMBER>
83647-97-6

>  <UNII>
96U2K78I3V

>  <SYNONYMS>
Espirapril; Spirapril; Spiraprilum

$$$$
