TP2
 OpenBabel10282417072D

 41 42  0  0  0  0  0  0  0  0999 V2000
   -3.6717   -0.9678    0.0000 S   0  0  0  0  0  0  0  0  0  0  0  0
   -2.9572   -1.3803    0.0000 C   0  0  0  0  0  0  0  0  0  0  0  0
   -2.2428   -0.9678    0.0000 C   0  0  0  0  0  0  0  0  0  0  0  0
   -1.5283   -1.3803    0.0000 N   0  0  0  0  0  0  0  0  0  0  0  0
   -0.8138   -0.9678    0.0000 C   0  0  0  0  0  0  0  0  0  0  0  0
   -0.0993   -1.3803    0.0000 C   0  0  2  0  0  0  0  0  0  0  0  0
    0.6543   -1.0447    0.0000 N   0  0  0  0  0  0  0  0  0  0  0  0
    0.8259   -0.2377    0.0000 S   0  0  0  0  0  0  0  0  0  0  0  0
    0.9974    0.5692    0.0000 C   0  0  0  0  0  0  0  0  0  0  0  0
    0.3843    1.1213    0.0000 C   0  0  0  0  0  0  0  0  0  0  0  0
    0.5558    1.9282    0.0000 C   0  0  0  0  0  0  0  0  0  0  0  0
    1.3404    2.1832    0.0000 C   0  0  0  0  0  0  0  0  0  0  0  0
    1.9535    1.6311    0.0000 C   0  0  0  0  0  0  0  0  0  0  0  0
    1.7820    0.8242    0.0000 C   0  0  0  0  0  0  0  0  0  0  0  0
    1.5120    2.9902    0.0000 C   0  0  0  0  0  0  0  0  0  0  0  0
    1.6328   -0.4093    0.0000 O   0  0  0  0  0  0  0  0  0  0  0  0
    0.0189   -0.0662    0.0000 O   0  0  0  0  0  0  0  0  0  0  0  0
    1.2064   -1.6578    0.0000 C   0  0  0  0  0  0  0  0  0  0  0  0
    0.7939   -2.3723    0.0000 C   0  0  0  0  0  0  0  0  0  0  0  0
   -0.0131   -2.2007    0.0000 C   0  0  0  0  0  0  0  0  0  0  0  0
   -0.8138   -0.1428    0.0000 O   0  0  0  0  0  0  0  0  0  0  0  0
   -0.0688   -0.7971    0.0000 H   0  0  0  0  0  0  0  0  0  0  0  0
   -3.6717    0.3922    0.0000 H   0  0  0  0  0  0  0  0  0  0  0  0
   -2.9572   -2.4503    0.0000 H   0  0  0  0  0  0  0  0  0  0  0  0
   -2.0305   -1.9153    0.0000 H   0  0  0  0  0  0  0  0  0  0  0  0
   -2.2428    0.1022    0.0000 H   0  0  0  0  0  0  0  0  0  0  0  0
   -1.3162   -0.4328    0.0000 H   0  0  0  0  0  0  0  0  0  0  0  0
   -1.5283   -2.3648    0.0000 H   0  0  0  0  0  0  0  0  0  0  0  0
   -0.5972    0.8024    0.0000 H   0  0  0  0  0  0  0  0  0  0  0  0
   -0.2112    2.6187    0.0000 H   0  0  0  0  0  0  0  0  0  0  0  0
    2.9350    1.9500    0.0000 H   0  0  0  0  0  0  0  0  0  0  0  0
    2.5490    0.1337    0.0000 H   0  0  0  0  0  0  0  0  0  0  0  0
    2.5297    3.3208    0.0000 H   0  0  0  0  0  0  0  0  0  0  0  0
    0.7169    3.7062    0.0000 H   0  0  0  0  0  0  0  0  0  0  0  0
    1.7345    4.0368    0.0000 H   0  0  0  0  0  0  0  0  0  0  0  0
    2.2705   -1.5459    0.0000 H   0  0  0  0  0  0  0  0  0  0  0  0
    1.7892   -2.5552    0.0000 H   0  0  0  0  0  0  0  0  0  0  0  0
    1.2291   -3.3498    0.0000 H   0  0  0  0  0  0  0  0  0  0  0  0
    0.1205   -3.2038    0.0000 H   0  0  0  0  0  0  0  0  0  0  0  0
   -0.8083   -2.9166    0.0000 H   0  0  0  0  0  0  0  0  0  0  0  0
    0.2638   -3.2343    0.0000 H   0  0  0  0  0  0  0  0  0  0  0  0
  1  2  1  0  0  0  0
  1 23  1  0  0  0  0
  2  3  1  0  0  0  0
  2 24  1  0  0  0  0
  2 25  1  0  0  0  0
  3  4  1  0  0  0  0
  3 26  1  0  0  0  0
  3 27  1  0  0  0  0
  4  5  1  0  0  0  0
  4 28  1  0  0  0  0
  5 21  2  0  0  0  0
  6  5  1  0  0  0  0
  6  7  1  0  0  0  0
  6 20  1  0  0  0  0
  6 22  1  1  0  0  0
  7  8  1  0  0  0  0
  7 18  1  0  0  0  0
  8  9  1  0  0  0  0
  8 16  2  0  0  0  0
  8 17  2  0  0  0  0
  9 10  2  0  0  0  0
  9 14  1  0  0  0  0
 10 11  1  0  0  0  0
 10 29  1  0  0  0  0
 11 12  2  0  0  0  0
 11 30  1  0  0  0  0
 12 13  1  0  0  0  0
 12 15  1  0  0  0  0
 13 14  2  0  0  0  0
 13 31  1  0  0  0  0
 14 32  1  0  0  0  0
 15 33  1  0  0  0  0
 15 34  1  0  0  0  0
 15 35  1  0  0  0  0
 18 19  1  0  0  0  0
 18 36  1  0  0  0  0
 18 37  1  0  0  0  0
 19 20  1  0  0  0  0
 19 38  1  0  0  0  0
 19 39  1  0  0  0  0
 20 40  1  0  0  0  0
 20 41  1  0  0  0  0
M  END
>  <DRUGBANK_ID>
DB03818

>  <SECONDARY_ACCESSION_NUMBERS>
EXPT03085

>  <COMMON_NAME>
N-[Tosyl-D-Prolinyl]Amino-Ethanethiol

$$$$
