1081
 OpenBabel10282417072D

 66 69  0  0  0  0  0  0  0  0999 V2000
    3.6020    2.8717    0.0000 O   0  0  0  0  0  0  0  0  0  0  0  0
    4.5704    3.6842    0.0000 O   0  0  0  0  0  0  0  0  0  0  0  0
    4.8396    0.5072    0.0000 N   0  0  0  0  0  0  0  0  0  0  0  0
    5.7751   -1.5553    0.0000 N   0  0  0  0  0  0  0  0  0  0  0  0
    4.8396    2.1573    0.0000 C   0  0  0  0  0  0  0  0  0  0  0  0
    4.1251    1.7447    0.0000 C   0  0  0  0  0  0  0  0  0  0  0  0
    5.5541    1.7447    0.0000 C   0  0  0  0  0  0  0  0  0  0  0  0
    4.1251    0.9197    0.0000 C   0  0  0  0  0  0  0  0  0  0  0  0
    5.5541    0.9197    0.0000 C   0  0  0  0  0  0  0  0  0  0  0  0
    4.8396   -0.3178    0.0000 C   0  0  0  0  0  0  0  0  0  0  0  0
    5.4716    2.6876    0.0000 C   0  0  0  0  0  0  0  0  0  0  0  0
    4.4270    2.8717    0.0000 C   0  0  0  0  0  0  0  0  0  0  0  0
    4.1251   -0.7303    0.0000 C   0  0  0  0  0  0  0  0  0  0  0  0
    4.1251   -1.5553    0.0000 C   0  0  0  0  0  0  0  0  0  0  0  0
    5.3283    3.5001    0.0000 C   0  0  0  0  0  0  0  0  0  0  0  0
    6.2469    2.4054    0.0000 C   0  0  0  0  0  0  0  0  0  0  0  0
    3.3001   -1.5553    0.0000 C   0  0  0  0  0  0  0  0  0  0  0  0
    4.1251   -2.3803    0.0000 C   0  0  0  0  0  0  0  0  0  0  0  0
    5.9603    4.0304    0.0000 C   0  0  0  0  0  0  0  0  0  0  0  0
    6.8788    2.9357    0.0000 C   0  0  0  0  0  0  0  0  0  0  0  0
    4.9501   -1.5553    0.0000 C   0  0  0  0  0  0  0  0  0  0  0  0
    6.7356    3.7482    0.0000 C   0  0  0  0  0  0  0  0  0  0  0  0
    3.1895    3.5863    0.0000 C   0  0  0  0  0  0  0  0  0  0  0  0
    2.8876   -2.2698    0.0000 C   0  0  0  0  0  0  0  0  0  0  0  0
    4.8396   -2.7929    0.0000 C   0  0  0  0  0  0  0  0  0  0  0  0
    2.8876   -0.8409    0.0000 C   0  0  0  0  0  0  0  0  0  0  0  0
    3.4106   -2.7929    0.0000 C   0  0  0  0  0  0  0  0  0  0  0  0
    2.3645    3.5863    0.0000 C   0  0  0  0  0  0  0  0  0  0  0  0
    2.0625   -2.2698    0.0000 C   0  0  0  0  0  0  0  0  0  0  0  0
    4.8396   -3.6179    0.0000 C   0  0  0  0  0  0  0  0  0  0  0  0
    2.0625   -0.8409    0.0000 C   0  0  0  0  0  0  0  0  0  0  0  0
    3.4106   -3.6179    0.0000 C   0  0  0  0  0  0  0  0  0  0  0  0
    1.6500   -1.5553    0.0000 C   0  0  0  0  0  0  0  0  0  0  0  0
    4.1251   -4.0304    0.0000 C   0  0  0  0  0  0  0  0  0  0  0  0
    3.1984    2.2797    0.0000 H   0  0  0  0  0  0  0  0  0  0  0  0
    3.1985    1.2097    0.0000 H   0  0  0  0  0  0  0  0  0  0  0  0
    6.4808    2.2797    0.0000 H   0  0  0  0  0  0  0  0  0  0  0  0
    6.4807    1.2097    0.0000 H   0  0  0  0  0  0  0  0  0  0  0  0
    3.1985    0.3847    0.0000 H   0  0  0  0  0  0  0  0  0  0  0  0
    3.1985    1.4547    0.0000 H   0  0  0  0  0  0  0  0  0  0  0  0
    6.4807    0.3847    0.0000 H   0  0  0  0  0  0  0  0  0  0  0  0
    6.4807    1.4547    0.0000 H   0  0  0  0  0  0  0  0  0  0  0  0
    5.7662   -0.8528    0.0000 H   0  0  0  0  0  0  0  0  0  0  0  0
    4.8396   -1.3878    0.0000 H   0  0  0  0  0  0  0  0  0  0  0  0
    3.1985   -0.1953    0.0000 H   0  0  0  0  0  0  0  0  0  0  0  0
    3.1985   -1.2653    0.0000 H   0  0  0  0  0  0  0  0  0  0  0  0
    4.3585    3.8530    0.0000 H   0  0  0  0  0  0  0  0  0  0  0  0
    6.4261    1.3891    0.0000 H   0  0  0  0  0  0  0  0  0  0  0  0
    5.7811    5.0467    0.0000 H   0  0  0  0  0  0  0  0  0  0  0  0
    7.8486    2.5827    0.0000 H   0  0  0  0  0  0  0  0  0  0  0  0
    7.5262    4.4115    0.0000 H   0  0  0  0  0  0  0  0  0  0  0  0
    3.7245    4.5129    0.0000 H   0  0  0  0  0  0  0  0  0  0  0  0
    2.6545    4.5130    0.0000 H   0  0  0  0  0  0  0  0  0  0  0  0
    3.4036   -3.1635    0.0000 H   0  0  0  0  0  0  0  0  0  0  0  0
    5.7334   -2.2769    0.0000 H   0  0  0  0  0  0  0  0  0  0  0  0
    3.4036    0.0528    0.0000 H   0  0  0  0  0  0  0  0  0  0  0  0
    2.5168   -2.2769    0.0000 H   0  0  0  0  0  0  0  0  0  0  0  0
    1.8295    4.5129    0.0000 H   0  0  0  0  0  0  0  0  0  0  0  0
    1.8295    2.6597    0.0000 H   0  0  0  0  0  0  0  0  0  0  0  0
    1.2945    3.5863    0.0000 H   0  0  0  0  0  0  0  0  0  0  0  0
    1.5465   -3.1635    0.0000 H   0  0  0  0  0  0  0  0  0  0  0  0
    5.7333   -4.1339    0.0000 H   0  0  0  0  0  0  0  0  0  0  0  0
    1.5465    0.0528    0.0000 H   0  0  0  0  0  0  0  0  0  0  0  0
    2.5169   -4.1339    0.0000 H   0  0  0  0  0  0  0  0  0  0  0  0
    0.6180   -1.5553    0.0000 H   0  0  0  0  0  0  0  0  0  0  0  0
    4.1251   -5.0624    0.0000 H   0  0  0  0  0  0  0  0  0  0  0  0
  1 12  1  0  0  0  0
  1 23  1  0  0  0  0
  2 12  2  0  0  0  0
  3  8  1  0  0  0  0
  3  9  1  0  0  0  0
  3 10  1  0  0  0  0
  4 21  3  0  0  0  0
  5  6  1  0  0  0  0
  5  7  1  0  0  0  0
  5 11  1  0  0  0  0
  5 12  1  0  0  0  0
  6  8  1  0  0  0  0
  6 35  1  0  0  0  0
  6 36  1  0  0  0  0
  7  9  1  0  0  0  0
  7 37  1  0  0  0  0
  7 38  1  0  0  0  0
  8 39  1  0  0  0  0
  8 40  1  0  0  0  0
  9 41  1  0  0  0  0
  9 42  1  0  0  0  0
 10 13  1  0  0  0  0
 10 43  1  0  0  0  0
 10 44  1  0  0  0  0
 11 15  2  0  0  0  0
 11 16  1  0  0  0  0
 13 14  1  0  0  0  0
 13 45  1  0  0  0  0
 13 46  1  0  0  0  0
 14 17  1  0  0  0  0
 14 18  1  0  0  0  0
 14 21  1  0  0  0  0
 15 19  1  0  0  0  0
 15 47  1  0  0  0  0
 16 20  2  0  0  0  0
 16 48  1  0  0  0  0
 17 24  2  0  0  0  0
 17 26  1  0  0  0  0
 18 25  2  0  0  0  0
 18 27  1  0  0  0  0
 19 22  2  0  0  0  0
 19 49  1  0  0  0  0
 20 22  1  0  0  0  0
 20 50  1  0  0  0  0
 22 51  1  0  0  0  0
 23 28  1  0  0  0  0
 23 52  1  0  0  0  0
 23 53  1  0  0  0  0
 24 29  1  0  0  0  0
 24 54  1  0  0  0  0
 25 30  1  0  0  0  0
 25 55  1  0  0  0  0
 26 31  2  0  0  0  0
 26 56  1  0  0  0  0
 27 32  2  0  0  0  0
 27 57  1  0  0  0  0
 28 58  1  0  0  0  0
 28 59  1  0  0  0  0
 28 60  1  0  0  0  0
 29 33  2  0  0  0  0
 29 61  1  0  0  0  0
 30 34  2  0  0  0  0
 30 62  1  0  0  0  0
 31 33  1  0  0  0  0
 31 63  1  0  0  0  0
 32 34  1  0  0  0  0
 32 64  1  0  0  0  0
 33 65  1  0  0  0  0
 34 66  1  0  0  0  0
M  END
>  <DRUGBANK_ID>
DB01081

>  <SECONDARY_ACCESSION_NUMBERS>
APRD00366

>  <COMMON_NAME>
Diphenoxylate

>  <CAS_NUMBER>
915-30-0

>  <UNII>
73312P173G

>  <SYNONYMS>
1-(3-Cyano-3,3-diphenylpropyl)-4-phenyl-isonipecotic acid ethyl ester; 2,2-Diphenyl-4-(4-carbethoxy-4-phenylpiperidino)butyronitrile; Difenossilato; Difenoxilato; Diphenoxylate; Diphenoxylatum; Ethyl 1-(3-cyano-3,3-diphenylpropyl)-4-phenyl-4-piperidinecarboxylate; Ethyl 1-(3-cyano-3,3-diphenylpropyl)-4-phenylisonipecotate

$$$$
