
 OpenBabel10282417072D

 46 45  0  0  0  0  0  0  0  0999 V2000
   -0.8794    0.7161    0.0000 C   0  0  0  0  0  0  0  0  0  0  0  0
   -1.5445    0.2756    0.0000 N   0  0  0  0  0  0  0  0  0  0  0  0
   -2.2125    0.7686    0.0000 N   0  0  0  0  0  0  0  0  0  0  0  0
   -1.1157    1.5270    0.0000 C   0  0  0  0  0  0  0  0  0  0  0  0
   -1.9500    1.5358    0.0000 C   0  0  0  0  0  0  0  0  0  0  0  0
    1.8595    0.9757    0.0000 C   0  0  0  0  0  0  0  0  0  0  0  0
    1.9528   -1.2994    0.0000 C   0  0  0  0  0  0  0  0  0  0  0  0
    2.3904    1.2819    0.0000 C   0  0  0  0  0  0  0  0  0  0  0  0
    2.4808   -0.9932    0.0000 C   0  0  0  0  0  0  0  0  0  0  0  0
   -0.0919    0.4331    0.0000 O   0  0  0  0  0  0  0  0  0  0  0  0
   -1.5445   -0.5615    0.0000 C   0  0  0  0  0  0  0  0  0  0  0  0
    1.3519    0.8356    0.0000 Cl  0  0  0  0  0  0  0  0  0  0  0  0
    1.3257    1.2819    0.0000 Cl  0  0  0  0  0  0  0  0  0  0  0  0
    1.8595    0.3631    0.0000 Cl  0  0  0  0  0  0  0  0  0  0  0  0
    1.4219   -0.9932    0.0000 Cl  0  0  0  0  0  0  0  0  0  0  0  0
    1.9528   -1.9120    0.0000 Cl  0  0  0  0  0  0  0  0  0  0  0  0
    1.4657   -1.3752    0.0000 Cl  0  0  0  0  0  0  0  0  0  0  0  0
   -3.0146    0.5148    0.0000 C   0  0  0  0  0  0  0  0  0  0  0  0
    2.3904    1.8945    0.0000 O   0  0  0  0  0  0  0  0  0  0  0  0
    2.9183    0.9757    0.0000 O   0  0  0  0  0  0  0  0  0  0  0  0
    3.0146   -1.2994    0.0000 O   0  0  0  0  0  0  0  0  0  0  0  0
    2.4808   -0.3806    0.0000 O   0  0  0  0  0  0  0  0  0  0  0  0
   -2.4370    2.2270    0.0000 C   0  0  0  0  0  0  0  0  0  0  0  0
   -0.8211   -0.9582    0.0000 C   0  0  0  0  0  0  0  0  0  0  0  0
   -2.2445   -0.9902    0.0000 C   0  0  0  0  0  0  0  0  0  0  0  0
   -0.8036   -1.7895    0.0000 C   0  0  0  0  0  0  0  0  0  0  0  0
   -2.2300   -1.8333    0.0000 C   0  0  0  0  0  0  0  0  0  0  0  0
   -1.5270   -2.2270    0.0000 C   0  0  0  0  0  0  0  0  0  0  0  0
   -0.4921    2.3492    0.0000 H   0  0  0  0  0  0  0  0  0  0  0  0
    3.3176    1.8160    0.0000 H   0  0  0  0  0  0  0  0  0  0  0  0
    3.4067   -0.4569    0.0000 H   0  0  0  0  0  0  0  0  0  0  0  0
   -3.8042    1.2369    0.0000 H   0  0  0  0  0  0  0  0  0  0  0  0
   -3.2451   -0.5301    0.0000 H   0  0  0  0  0  0  0  0  0  0  0  0
   -4.0347    0.1920    0.0000 H   0  0  0  0  0  0  0  0  0  0  0  0
    3.2019    2.3630    0.0000 H   0  0  0  0  0  0  0  0  0  0  0  0
    2.9164    0.0387    0.0000 H   0  0  0  0  0  0  0  0  0  0  0  0
    3.0172   -2.2364    0.0000 H   0  0  0  0  0  0  0  0  0  0  0  0
    3.2923    0.0879    0.0000 H   0  0  0  0  0  0  0  0  0  0  0  0
   -1.9876    3.1981    0.0000 H   0  0  0  0  0  0  0  0  0  0  0  0
   -3.5027    2.1306    0.0000 H   0  0  0  0  0  0  0  0  0  0  0  0
   -3.0533    3.1017    0.0000 H   0  0  0  0  0  0  0  0  0  0  0  0
    0.0613   -0.4231    0.0000 H   0  0  0  0  0  0  0  0  0  0  0  0
   -3.1492   -0.4936    0.0000 H   0  0  0  0  0  0  0  0  0  0  0  0
    0.1006   -2.2869    0.0000 H   0  0  0  0  0  0  0  0  0  0  0  0
   -3.1158   -2.3628    0.0000 H   0  0  0  0  0  0  0  0  0  0  0  0
   -1.5098   -3.2589    0.0000 H   0  0  0  0  0  0  0  0  0  0  0  0
  2  1  1  0  0  0  0
  3  2  1  0  0  0  0
  3  5  1  0  0  0  0
  4  1  1  0  0  0  0
  4 29  1  0  0  0  0
  5  4  2  0  0  0  0
  8  6  1  0  0  0  0
  8 30  1  0  0  0  0
  9  7  1  0  0  0  0
  9 31  1  0  0  0  0
 10  1  2  0  0  0  0
 11  2  1  0  0  0  0
 12  6  1  0  0  0  0
 13  6  1  0  0  0  0
 14  6  1  0  0  0  0
 15  7  1  0  0  0  0
 16  7  1  0  0  0  0
 17  7  1  0  0  0  0
 18  3  1  0  0  0  0
 18 32  1  0  0  0  0
 18 33  1  0  0  0  0
 18 34  1  0  0  0  0
 19  8  1  0  0  0  0
 19 35  1  0  0  0  0
 20  8  1  0  0  0  0
 20 36  1  0  0  0  0
 21  9  1  0  0  0  0
 21 37  1  0  0  0  0
 22  9  1  0  0  0  0
 22 38  1  0  0  0  0
 23  5  1  0  0  0  0
 23 39  1  0  0  0  0
 23 40  1  0  0  0  0
 23 41  1  0  0  0  0
 24 11  2  0  0  0  0
 24 42  1  0  0  0  0
 25 11  1  0  0  0  0
 25 43  1  0  0  0  0
 26 24  1  0  0  0  0
 26 28  2  0  0  0  0
 26 44  1  0  0  0  0
 27 25  2  0  0  0  0
 27 45  1  0  0  0  0
 28 27  1  0  0  0  0
 28 46  1  0  0  0  0
M  END
>  <DRUGBANK_ID>
DB01495

>  <COMMON_NAME>
Dichloralphenazone

>  <CAS_NUMBER>
480-30-8

>  <UNII>
YYX637R279

>  <SYNONYMS>
Dichloralphenazone

$$$$
