C94
 OpenBabel10282417072D

 37 39  0  0  0  0  0  0  0  0999 V2000
   -0.7180    3.4153    0.0000 O   0  0  0  0  0  0  0  0  0  0  0  0
   -0.7180    2.5903    0.0000 S   0  0  0  0  0  0  0  0  0  0  0  0
   -1.5430    2.5903    0.0000 O   0  0  0  0  0  0  0  0  0  0  0  0
    0.1070    2.5903    0.0000 N   0  0  0  0  0  0  0  0  0  0  0  0
   -0.7180    1.7653    0.0000 C   0  0  0  0  0  0  0  0  0  0  0  0
   -0.0035    1.3528    0.0000 C   0  0  0  0  0  0  0  0  0  0  0  0
    0.7110    1.7653    0.0000 C   0  0  0  0  0  0  0  0  0  0  0  0
    1.4254    2.1778    0.0000 F   0  0  0  0  0  0  0  0  0  0  0  0
    1.1235    1.0508    0.0000 F   0  0  0  0  0  0  0  0  0  0  0  0
    0.5395    2.5723    0.0000 F   0  0  0  0  0  0  0  0  0  0  0  0
   -0.0035    0.5278    0.0000 C   0  0  0  0  0  0  0  0  0  0  0  0
   -0.7180    0.1153    0.0000 C   0  0  0  0  0  0  0  0  0  0  0  0
   -1.4324    0.5278    0.0000 C   0  0  0  0  0  0  0  0  0  0  0  0
   -1.4324    1.3528    0.0000 C   0  0  0  0  0  0  0  0  0  0  0  0
   -0.7180   -0.7097    0.0000 C   0  0  0  0  0  0  0  0  0  0  0  0
   -0.0505   -1.1946    0.0000 O   0  0  0  0  0  0  0  0  0  0  0  0
   -1.3854   -1.1946    0.0000 C   0  0  0  0  0  0  0  0  0  0  0  0
   -1.1305   -1.9793    0.0000 C   0  0  0  0  0  0  0  0  0  0  0  0
   -0.3055   -1.9793    0.0000 C   0  0  0  0  0  0  0  0  0  0  0  0
    0.1795   -2.6467    0.0000 C   0  0  0  0  0  0  0  0  0  0  0  0
    0.9999   -2.5605    0.0000 C   0  0  0  0  0  0  0  0  0  0  0  0
    1.4124   -1.8460    0.0000 S   0  0  0  0  0  0  0  0  0  0  0  0
    2.2194   -2.0175    0.0000 C   0  0  0  0  0  0  0  0  0  0  0  0
    2.8325   -1.4655    0.0000 N   0  0  0  0  0  0  0  0  0  0  0  0
    2.3056   -2.8380    0.0000 N   0  0  0  0  0  0  0  0  0  0  0  0
    1.5520   -3.1736    0.0000 C   0  0  0  0  0  0  0  0  0  0  0  0
    1.3804   -3.9805    0.0000 O   0  0  0  0  0  0  0  0  0  0  0  0
    0.6170    1.7070    0.0000 H   0  0  0  0  0  0  0  0  0  0  0  0
    0.6170    3.4736    0.0000 H   0  0  0  0  0  0  0  0  0  0  0  0
    0.8902    0.0118    0.0000 H   0  0  0  0  0  0  0  0  0  0  0  0
   -2.3261    0.0118    0.0000 H   0  0  0  0  0  0  0  0  0  0  0  0
   -2.3261    1.8688    0.0000 H   0  0  0  0  0  0  0  0  0  0  0  0
   -2.3669   -0.8757    0.0000 H   0  0  0  0  0  0  0  0  0  0  0  0
   -1.7371   -2.8142    0.0000 H   0  0  0  0  0  0  0  0  0  0  0  0
   -0.2402   -3.5895    0.0000 H   0  0  0  0  0  0  0  0  0  0  0  0
    3.7688   -1.7698    0.0000 H   0  0  0  0  0  0  0  0  0  0  0  0
    3.1582   -3.3302    0.0000 H   0  0  0  0  0  0  0  0  0  0  0  0
  1  2  2  0  0  0  0
  2  3  2  0  0  0  0
  2  4  1  0  0  0  0
  2  5  1  0  0  0  0
  4 28  1  0  0  0  0
  4 29  1  0  0  0  0
  5  6  1  0  0  0  0
  5 14  2  0  0  0  0
  6  7  1  0  0  0  0
  6 11  2  0  0  0  0
  7  8  1  0  0  0  0
  7  9  1  0  0  0  0
  7 10  1  0  0  0  0
 11 12  1  0  0  0  0
 11 30  1  0  0  0  0
 12 13  2  0  0  0  0
 12 15  1  0  0  0  0
 13 14  1  0  0  0  0
 13 31  1  0  0  0  0
 14 32  1  0  0  0  0
 15 16  1  0  0  0  0
 15 17  2  0  0  0  0
 16 19  1  0  0  0  0
 17 18  1  0  0  0  0
 17 33  1  0  0  0  0
 18 19  2  0  0  0  0
 18 34  1  0  0  0  0
 19 20  1  0  0  0  0
 20 21  2  0  0  0  0
 20 35  1  0  0  0  0
 21 22  1  0  0  0  0
 21 26  1  0  0  0  0
 22 23  1  0  0  0  0
 23 24  2  0  0  0  0
 23 25  1  0  0  0  0
 24 36  1  0  0  0  0
 25 26  1  0  0  0  0
 25 37  1  0  0  0  0
 26 27  2  0  0  0  0
M  END
>  <DRUGBANK_ID>
DB07538

>  <COMMON_NAME>
4-{5-[(Z)-(2-IMINO-4-OXO-1,3-THIAZOLIDIN-5-YLIDENE)METHYL]FURAN-2-YL}-2-(TRIFLUOROMETHYL)BENZENESULFONAMIDE

$$$$
