
 OpenBabel10282417072D

 14 13  0  0  0  0  0  0  0  0999 V2000
    0.6124    0.2357    0.0000 C   0  0  0  0  0  0  0  0  0  0  0  0
   -0.1021   -0.1768    0.0000 C   0  0  2  0  0  0  0  0  0  0  0  0
   -0.8165    0.2357    0.0000 C   0  0  0  0  0  0  0  0  0  0  0  0
    1.3269   -0.1768    0.0000 O   0  0  0  0  0  0  0  0  0  0  0  0
    0.6124    1.0607    0.0000 O   0  0  0  0  0  0  0  0  0  0  0  0
   -0.1021   -1.0018    0.0000 N   0  0  0  0  0  0  0  0  0  0  0  0
   -1.5310   -0.1768    0.0000 S   0  0  0  0  0  0  0  0  0  0  0  0
    0.8245   -0.7118    0.0000 H   0  0  0  0  0  0  0  0  0  0  0  0
   -0.8165    1.3057    0.0000 H   0  0  0  0  0  0  0  0  0  0  0  0
   -1.7431    0.7707    0.0000 H   0  0  0  0  0  0  0  0  0  0  0  0
    1.3269   -1.1138    0.0000 H   0  0  0  0  0  0  0  0  0  0  0  0
   -0.9854   -1.5118    0.0000 H   0  0  0  0  0  0  0  0  0  0  0  0
    0.7812   -1.5118    0.0000 H   0  0  0  0  0  0  0  0  0  0  0  0
   -2.7088    0.5032    0.0000 H   0  0  0  0  0  0  0  0  0  0  0  0
  2  1  1  0  0  0  0
  2  6  1  0  0  0  0
  2  8  1  6  0  0  0
  3  2  1  0  0  0  0
  3  9  1  0  0  0  0
  3 10  1  0  0  0  0
  4  1  1  0  0  0  0
  4 11  1  0  0  0  0
  5  1  2  0  0  0  0
  6 12  1  0  0  0  0
  6 13  1  0  0  0  0
  7  3  1  0  0  0  0
  7 14  1  0  0  0  0
M  END
>  <DRUGBANK_ID>
DB00151

>  <SECONDARY_ACCESSION_NUMBERS>
NUTR00018; DB04443; DB09485

>  <COMMON_NAME>
Cysteine

>  <CAS_NUMBER>
52-90-4

>  <UNII>
K848JZ4886

>  <SYNONYMS>
(2R)-2-amino-3-mercaptopropanoic acid; (2R)-2-amino-3-sulfanylpropanoic acid; (R)-2-Amino-3-mercaptopropanoic acid; Cisteina; Cisteinum; Cys; Cysteine; Cysteinum; Free Cysteine; L-2-Amino-3-mercaptopropionic acid; L-Cys; L-Cystein; L-cysteine; L-Zystein

$$$$
