
 OpenBabel10282417072D

 82 88  0  0  1  0  0  0  0  0999 V2000
    5.6595   -3.3481    0.0000 C   0  0  0  0  0  0  0  0  0  0  0  0
    5.8310   -4.1551    0.0000 C   0  0  0  0  0  0  0  0  0  0  0  0
    6.6156   -4.4100    0.0000 N   0  0  0  0  0  0  0  0  0  0  0  0
    7.2831   -3.9251    0.0000 C   0  0  2  0  0  0  0  0  0  0  0  0
    7.9505   -4.4100    0.0000 C   0  0  2  0  0  0  0  0  0  0  0  0
    8.7351   -4.1551    0.0000 C   0  0  0  0  0  0  0  0  0  0  0  0
    9.3482   -4.7071    0.0000 C   0  0  0  0  0  0  0  0  0  0  0  0
   10.1329   -4.4522    0.0000 C   0  0  0  0  0  0  0  0  0  0  0  0
   10.3044   -3.6452    0.0000 C   0  0  0  0  0  0  0  0  0  0  0  0
    9.6913   -3.0932    0.0000 C   0  0  0  0  0  0  0  0  0  0  0  0
    9.8628   -2.2862    0.0000 Cl  0  0  0  0  0  0  0  0  0  0  0  0
    8.9067   -3.3481    0.0000 C   0  0  0  0  0  0  0  0  0  0  0  0
    8.2936   -2.7961    0.0000 F   0  0  0  0  0  0  0  0  0  0  0  0
    7.6956   -5.1947    0.0000 C   0  0  1  0  0  0  0  0  0  0  0  0
    8.5206   -5.1947    0.0000 C   0  0  0  0  0  0  0  0  0  0  0  0
    9.3456   -5.1947    0.0000 O   0  0  0  0  0  0  0  0  0  0  0  0
    8.7755   -5.9793    0.0000 N   0  0  0  0  0  0  0  0  0  0  0  0
    8.1081   -6.4642    0.0000 C   0  0  0  0  0  0  0  0  0  0  0  0
    8.0218   -7.2847    0.0000 C   0  0  0  0  0  0  0  0  0  0  0  0
    7.2682   -7.6202    0.0000 C   0  0  0  0  0  0  0  0  0  0  0  0
    7.1819   -8.4407    0.0000 Cl  0  0  0  0  0  0  0  0  0  0  0  0
    6.6007   -7.1353    0.0000 C   0  0  0  0  0  0  0  0  0  0  0  0
    6.6870   -6.3148    0.0000 C   0  0  0  0  0  0  0  0  0  0  0  0
    7.5496   -6.0211    0.0000 C   0  0  0  0  0  0  0  0  0  0  0  0
    6.8706   -5.1947    0.0000 C   0  0  0  0  0  0  0  0  0  0  0  0
    7.2061   -5.9483    0.0000 C   0  0  0  0  0  0  0  0  0  0  0  0
    6.7212   -6.6158    0.0000 C   0  0  0  0  0  0  0  0  0  0  0  0
    5.9007   -6.5295    0.0000 C   0  0  0  0  0  0  0  0  0  0  0  0
    5.5652   -5.7759    0.0000 C   0  0  0  0  0  0  0  0  0  0  0  0
    6.0501   -5.1084    0.0000 C   0  0  0  0  0  0  0  0  0  0  0  0
    7.2831   -3.1001    0.0000 C   0  0  0  0  0  0  0  0  0  0  0  0
    7.9976   -2.6876    0.0000 O   0  0  0  0  0  0  0  0  0  0  0  0
    6.5686   -2.6876    0.0000 N   0  0  0  0  0  0  0  0  0  0  0  0
    6.5686   -1.8626    0.0000 C   0  0  3  0  0  0  0  0  0  0  0  0
    5.8541   -1.4501    0.0000 C   0  0  0  0  0  0  0  0  0  0  0  0
    5.8541   -0.6251    0.0000 C   0  0  0  0  0  0  0  0  0  0  0  0
    6.5686   -0.2126    0.0000 C   0  0  3  0  0  0  0  0  0  0  0  0
    7.2831   -0.6251    0.0000 C   0  0  0  0  0  0  0  0  0  0  0  0
    7.2831   -1.4501    0.0000 C   0  0  0  0  0  0  0  0  0  0  0  0
    6.7061   -0.7626    0.0000 C   0  0  0  0  0  0  0  0  0  0  0  0
    6.7061   -1.3126    0.0000 C   0  0  0  0  0  0  0  0  0  0  0  0
    6.5686    0.6124    0.0000 C   0  0  0  0  0  0  0  0  0  0  0  0
    5.8541    1.0249    0.0000 O   0  0  0  0  0  0  0  0  0  0  0  0
    7.2831    1.0249    0.0000 O   0  0  0  0  0  0  0  0  0  0  0  0
    6.4547   -2.6322    0.0000 H   0  0  0  0  0  0  0  0  0  0  0  0
    4.6419   -3.0174    0.0000 H   0  0  0  0  0  0  0  0  0  0  0  0
    5.4371   -2.3015    0.0000 H   0  0  0  0  0  0  0  0  0  0  0  0
    5.0358   -4.8711    0.0000 H   0  0  0  0  0  0  0  0  0  0  0  0
    6.0535   -5.2017    0.0000 H   0  0  0  0  0  0  0  0  0  0  0  0
    6.3297   -3.4393    0.0000 H   0  0  0  0  0  0  0  0  0  0  0  0
    8.1179   -3.3532    0.0000 H   0  0  0  0  0  0  0  0  0  0  0  0
    9.1336   -5.7165    0.0000 H   0  0  0  0  0  0  0  0  0  0  0  0
   10.8998   -5.1428    0.0000 H   0  0  0  0  0  0  0  0  0  0  0  0
   11.2859   -3.3263    0.0000 H   0  0  0  0  0  0  0  0  0  0  0  0
    9.7118   -6.2835    0.0000 H   0  0  0  0  0  0  0  0  0  0  0  0
    8.8567   -7.8913    0.0000 H   0  0  0  0  0  0  0  0  0  0  0  0
    5.6579   -7.5550    0.0000 H   0  0  0  0  0  0  0  0  0  0  0  0
    5.8805   -5.6709    0.0000 H   0  0  0  0  0  0  0  0  0  0  0  0
    8.2702   -6.0601    0.0000 H   0  0  0  0  0  0  0  0  0  0  0  0
    7.6413   -6.9258    0.0000 H   0  0  0  0  0  0  0  0  0  0  0  0
    7.1564   -7.5933    0.0000 H   0  0  0  0  0  0  0  0  0  0  0  0
    6.0922   -7.4814    0.0000 H   0  0  0  0  0  0  0  0  0  0  0  0
    5.2717   -7.3951    0.0000 H   0  0  0  0  0  0  0  0  0  0  0  0
    4.8366   -6.4176    0.0000 H   0  0  0  0  0  0  0  0  0  0  0  0
    4.5011   -5.6641    0.0000 H   0  0  0  0  0  0  0  0  0  0  0  0
    5.1300   -4.7984    0.0000 H   0  0  0  0  0  0  0  0  0  0  0  0
    5.6149   -4.1309    0.0000 H   0  0  0  0  0  0  0  0  0  0  0  0
    6.6791   -4.2428    0.0000 H   0  0  0  0  0  0  0  0  0  0  0  0
    5.7160   -3.1799    0.0000 H   0  0  0  0  0  0  0  0  0  0  0  0
    4.9275   -1.9851    0.0000 H   0  0  0  0  0  0  0  0  0  0  0  0
    4.9275   -0.9151    0.0000 H   0  0  0  0  0  0  0  0  0  0  0  0
    4.9275   -0.0901    0.0000 H   0  0  0  0  0  0  0  0  0  0  0  0
    5.8541    0.4449    0.0000 H   0  0  0  0  0  0  0  0  0  0  0  0
    8.2097   -0.0901    0.0000 H   0  0  0  0  0  0  0  0  0  0  0  0
    8.2097   -1.1601    0.0000 H   0  0  0  0  0  0  0  0  0  0  0  0
    8.2097   -1.9851    0.0000 H   0  0  0  0  0  0  0  0  0  0  0  0
    7.2831   -2.5201    0.0000 H   0  0  0  0  0  0  0  0  0  0  0  0
    7.7681   -0.6319    0.0000 H   0  0  0  0  0  0  0  0  0  0  0  0
    7.5076   -1.4715    0.0000 H   0  0  0  0  0  0  0  0  0  0  0  0
    7.7681   -1.4433    0.0000 H   0  0  0  0  0  0  0  0  0  0  0  0
    7.3117   -2.1947    0.0000 H   0  0  0  0  0  0  0  0  0  0  0  0
    5.8541    1.9619    0.0000 H   0  0  0  0  0  0  0  0  0  0  0  0
  1  2  1  0  0  0  0
  1 45  1  0  0  0  0
  1 46  1  0  0  0  0
  1 47  1  0  0  0  0
  2  3  1  0  0  0  0
  2 48  1  0  0  0  0
  2 49  1  0  0  0  0
  3 25  1  0  0  0  0
  4  3  1  0  0  0  0
  4 31  1  0  0  0  0
  4 50  1  6  0  0  0
  5  4  1  0  0  0  0
  5  6  1  0  0  0  0
  5 14  1  0  0  0  0
  5 51  1  1  0  0  0
  6  7  2  0  0  0  0
  6 12  1  0  0  0  0
  7  8  1  0  0  0  0
  7 52  1  0  0  0  0
  8  9  2  0  0  0  0
  8 53  1  0  0  0  0
  9 10  1  0  0  0  0
  9 54  1  0  0  0  0
 10 11  1  0  0  0  0
 10 12  2  0  0  0  0
 12 13  1  0  0  0  0
 14 15  1  6  0  0  0
 14 24  1  0  0  0  0
 14 25  1  0  0  0  0
 15 16  2  0  0  0  0
 15 17  1  0  0  0  0
 17 18  1  0  0  0  0
 17 55  1  0  0  0  0
 18 19  2  0  0  0  0
 18 24  1  0  0  0  0
 19 20  1  0  0  0  0
 19 56  1  0  0  0  0
 20 21  1  0  0  0  0
 20 22  2  0  0  0  0
 22 23  1  0  0  0  0
 22 57  1  0  0  0  0
 23 24  2  0  0  0  0
 23 58  1  0  0  0  0
 25 26  1  0  0  0  0
 25 30  1  0  0  0  0
 26 27  1  0  0  0  0
 26 59  1  0  0  0  0
 26 60  1  0  0  0  0
 27 28  1  0  0  0  0
 27 61  1  0  0  0  0
 27 62  1  0  0  0  0
 28 29  1  0  0  0  0
 28 63  1  0  0  0  0
 28 64  1  0  0  0  0
 29 30  1  0  0  0  0
 29 65  1  0  0  0  0
 29 66  1  0  0  0  0
 30 67  1  0  0  0  0
 30 68  1  0  0  0  0
 31 32  2  0  0  0  0
 31 33  1  0  0  0  0
 33 34  1  0  0  0  0
 33 69  1  0  0  0  0
 34 35  1  0  0  0  0
 34 39  1  0  0  0  0
 34 41  1  0  0  0  0
 35 36  1  0  0  0  0
 35 70  1  0  0  0  0
 35 71  1  0  0  0  0
 36 37  1  0  0  0  0
 36 72  1  0  0  0  0
 36 73  1  0  0  0  0
 37 38  1  0  0  0  0
 37 40  1  0  0  0  0
 37 42  1  0  0  0  0
 38 39  1  0  0  0  0
 38 74  1  0  0  0  0
 38 75  1  0  0  0  0
 39 76  1  0  0  0  0
 39 77  1  0  0  0  0
 40 41  1  0  0  0  0
 40 78  1  0  0  0  0
 40 79  1  0  0  0  0
 41 80  1  0  0  0  0
 41 81  1  0  0  0  0
 42 43  1  0  0  0  0
 42 44  2  0  0  0  0
 43 82  1  0  0  0  0
M  END
>  <DRUGBANK_ID>
DB17549

>  <COMMON_NAME>
Alrizomadlin

>  <CAS_NUMBER>
1818393-16-6

>  <UNII>
15QAU0SI9J

>  <SYNONYMS>
(3'r,4's,5'r)-4-((6-chloro-2-oxo-1,2-dihydro-spiro(indole-3,3'-pyrrolidin)e-4'-(3-chloro-2-fluoro -phenyl)-1'-ethyl-spiro(cyclohexane-1,2'-pyrrolidine)-5'-carbonyl)-amino)-bicyclo(2.2.2)octane-1-carboxylic acid; 4-((3'R,4'S,5'R)-6''-chloro-4'-(3-chloro-2-fluorophenyl)-1'-ethyl-2''-oxodispiro[cyclohexane-1,2'-pyrrolidine-3',3''-indoline]-5'-carboxamido)bicyclo [2.2.2]octane-1-carboxylic acid; Bicyclo(2.2.2)octane-1-carboxylic acid, 4-((((3'r,4's,5'r)-6''-chloro-4'-(3-chloro-2-fluorophenyl)-1'-ethyl-1'',2''-dihydro-2''-oxodispiro(cyclohexane-1,2'-pyrrolidine-3',3''-(3h)indol)-5'-yl)carbonyl)amino)-

$$$$
