
 OpenBabel10282417072D

 28 29  0  0  0  0  0  0  0  0999 V2000
    0.2942    0.2037    0.0000 C   0  0  2  0  0  0  0  0  0  0  0  0
   -0.4205    0.6158    0.0000 C   0  0  0  0  0  0  0  0  0  0  0  0
   -1.1310    0.2037    0.0000 N   0  0  0  0  0  0  0  0  0  0  0  0
   -1.2161   -0.6112    0.0000 N   0  0  0  0  0  0  0  0  0  0  0  0
   -2.0224   -0.7853    0.0000 C   0  0  0  0  0  0  0  0  0  0  0  0
   -2.4344   -0.0704    0.0000 N   0  0  0  0  0  0  0  0  0  0  0  0
   -1.8845    0.5398    0.0000 N   0  0  0  0  0  0  0  0  0  0  0  0
    0.2942   -0.6158    0.0000 O   0  0  0  0  0  0  0  0  0  0  0  0
    1.0046   -1.0278    0.0000 C   0  0  0  0  0  0  0  0  0  0  0  0
    1.7195   -0.6158    0.0000 N   0  0  0  0  0  0  0  0  0  0  0  0
    1.0046   -1.8519    0.0000 O   0  0  0  0  0  0  0  0  0  0  0  0
    1.0046    0.6158    0.0000 C   0  0  0  0  0  0  0  0  0  0  0  0
    1.0046    1.4398    0.0000 C   0  0  0  0  0  0  0  0  0  0  0  0
    1.7195    1.8519    0.0000 C   0  0  0  0  0  0  0  0  0  0  0  0
    2.4344    1.4398    0.0000 C   0  0  0  0  0  0  0  0  0  0  0  0
    2.4344    0.6158    0.0000 C   0  0  0  0  0  0  0  0  0  0  0  0
    1.7195    0.2037    0.0000 C   0  0  0  0  0  0  0  0  0  0  0  0
    0.2942    1.8519    0.0000 Cl  0  0  0  0  0  0  0  0  0  0  0  0
   -0.6323   -0.3316    0.0000 H   0  0  0  0  0  0  0  0  0  0  0  0
   -0.4219    1.6858    0.0000 H   0  0  0  0  0  0  0  0  0  0  0  0
   -1.3480    1.1493    0.0000 H   0  0  0  0  0  0  0  0  0  0  0  0
   -2.4410   -1.7286    0.0000 H   0  0  0  0  0  0  0  0  0  0  0  0
    2.5717   -1.1087    0.0000 H   0  0  0  0  0  0  0  0  0  0  0  0
    1.7203    0.3687    0.0000 H   0  0  0  0  0  0  0  0  0  0  0  0
    1.7195    2.8839    0.0000 H   0  0  0  0  0  0  0  0  0  0  0  0
    3.3280    1.9561    0.0000 H   0  0  0  0  0  0  0  0  0  0  0  0
    3.3280    0.0995    0.0000 H   0  0  0  0  0  0  0  0  0  0  0  0
    1.7195   -0.8283    0.0000 H   0  0  0  0  0  0  0  0  0  0  0  0
  1  2  1  0  0  0  0
  1  8  1  0  0  0  0
  1 12  1  0  0  0  0
  1 19  1  6  0  0  0
  2  3  1  0  0  0  0
  2 20  1  0  0  0  0
  2 21  1  0  0  0  0
  3  4  1  0  0  0  0
  3  7  1  0  0  0  0
  4  5  2  0  0  0  0
  5  6  1  0  0  0  0
  5 22  1  0  0  0  0
  7  6  2  0  0  0  0
  8  9  1  0  0  0  0
  9 10  1  0  0  0  0
  9 11  2  0  0  0  0
 10 23  1  0  0  0  0
 10 24  1  0  0  0  0
 12 13  2  0  0  0  0
 12 17  1  0  0  0  0
 13 14  1  0  0  0  0
 13 18  1  0  0  0  0
 14 15  2  0  0  0  0
 14 25  1  0  0  0  0
 15 26  1  0  0  0  0
 16 15  1  0  0  0  0
 16 27  1  0  0  0  0
 17 16  2  0  0  0  0
 17 28  1  0  0  0  0
M  END
>  <DRUGBANK_ID>
DB06119

>  <COMMON_NAME>
Cenobamate

>  <CAS_NUMBER>
913088-80-9

>  <UNII>
P85X70RZWS

>  <SYNONYMS>
Cenobamate; CÃ©nobamate; Cenobamato; Cenobamatum

$$$$
