
 OpenBabel10282417072D

 99103  0  0  1  0  0  0  0  0999 V2000
    5.7103   -5.7299    0.0000 C   0  0  0  0  0  0  0  0  0  0  0  0
    5.9084   -6.5307    0.0000 N   0  0  0  0  0  0  0  0  0  0  0  0
    5.3140   -7.1028    0.0000 C   0  0  1  0  0  0  0  0  0  0  0  0
    5.5121   -7.9036    0.0000 C   0  0  0  0  0  0  0  0  0  0  0  0
    6.3047   -8.1324    0.0000 C   0  0  0  0  0  0  0  0  0  0  0  0
    6.8992   -7.5604    0.0000 C   0  0  0  0  0  0  0  0  0  0  0  0
    7.6919   -7.7892    0.0000 C   0  0  0  0  0  0  0  0  0  0  0  0
    7.8900   -8.5900    0.0000 C   0  0  0  0  0  0  0  0  0  0  0  0
    7.2955   -9.1621    0.0000 C   0  0  0  0  0  0  0  0  0  0  0  0
    6.5029   -8.9333    0.0000 C   0  0  0  0  0  0  0  0  0  0  0  0
    8.6826   -8.8189    0.0000 Cl  0  0  0  0  0  0  0  0  0  0  0  0
    4.5213   -6.8739    0.0000 C   0  0  0  0  0  0  0  0  0  0  0  0
    4.3232   -6.0731    0.0000 O   0  0  0  0  0  0  0  0  0  0  0  0
    3.9268   -7.4460    0.0000 N   0  0  0  0  0  0  0  0  0  0  0  0
    4.1250   -8.2468    0.0000 C   0  0  0  0  0  0  0  0  0  0  0  0
    3.5305   -8.8189    0.0000 C   0  0  0  0  0  0  0  0  0  0  0  0
    3.7287   -9.6197    0.0000 C   0  0  0  0  0  0  0  0  0  0  0  0
    3.1342  -10.1917    0.0000 C   0  0  0  0  0  0  0  0  0  0  0  0
    2.3416   -9.9629    0.0000 C   0  0  0  0  0  0  0  0  0  0  0  0
    2.1434   -9.1621    0.0000 C   0  0  0  0  0  0  0  0  0  0  0  0
    2.7379   -8.5900    0.0000 C   0  0  0  0  0  0  0  0  0  0  0  0
    3.1342   -7.2172    0.0000 C   0  0  0  0  0  0  0  0  0  0  0  0
    2.5397   -7.7892    0.0000 C   0  0  0  0  0  0  0  0  0  0  0  0
    1.7471   -7.5604    0.0000 C   0  0  0  0  0  0  0  0  0  0  0  0
    1.1526   -8.1324    0.0000 C   0  0  0  0  0  0  0  0  0  0  0  0
    1.3508   -8.9333    0.0000 C   0  0  0  0  0  0  0  0  0  0  0  0
    0.7563   -9.5053    0.0000 C   0  0  0  0  0  0  0  0  0  0  0  0
   -0.0363   -9.2765    0.0000 N   0  0  0  0  0  0  0  0  0  0  0  0
   -0.2345   -8.4756    0.0000 C   0  0  0  0  0  0  0  0  0  0  0  0
    0.3600   -7.9036    0.0000 C   0  0  0  0  0  0  0  0  0  0  0  0
    2.9360   -6.4163    0.0000 C   0  0  0  0  0  0  0  0  0  0  0  0
    2.1434   -6.1875    0.0000 C   0  0  0  0  0  0  0  0  0  0  0  0
    1.9453   -5.3867    0.0000 C   0  0  0  0  0  0  0  0  0  0  0  0
    1.1526   -5.1578    0.0000 C   0  0  0  0  0  0  0  0  0  0  0  0
    0.9545   -4.3570    0.0000 C   0  0  0  0  0  0  0  0  0  0  0  0
    1.5489   -3.7850    0.0000 N   0  0  0  0  0  0  0  0  0  0  0  0
    2.3416   -4.0138    0.0000 C   0  0  0  0  0  0  0  0  0  0  0  0
    2.5397   -4.8146    0.0000 C   0  0  0  0  0  0  0  0  0  0  0  0
    6.7011   -6.7595    0.0000 C   0  0  0  0  0  0  0  0  0  0  0  0
    7.3321   -7.2910    0.0000 O   0  0  0  0  0  0  0  0  0  0  0  0
    7.2955   -6.1875    0.0000 C   0  0  0  0  0  0  0  0  0  0  0  0
    7.0974   -5.3867    0.0000 O   0  0  0  0  0  0  0  0  0  0  0  0
    8.0882   -6.4163    0.0000 C   0  0  0  0  0  0  0  0  0  0  0  0
    8.6826   -5.8443    0.0000 C   0  0  0  0  0  0  0  0  0  0  0  0
    9.4753   -6.0731    0.0000 C   0  0  0  0  0  0  0  0  0  0  0  0
    9.6734   -6.8739    0.0000 C   0  0  0  0  0  0  0  0  0  0  0  0
    9.0790   -7.4460    0.0000 C   0  0  0  0  0  0  0  0  0  0  0  0
    8.2863   -7.2172    0.0000 C   0  0  0  0  0  0  0  0  0  0  0  0
    9.2771   -8.2468    0.0000 O   0  0  0  0  0  0  0  0  0  0  0  0
   10.0698   -8.4756    0.0000 C   0  0  0  0  0  0  0  0  0  0  0  0
   10.4661   -7.1028    0.0000 O   0  0  0  0  0  0  0  0  0  0  0  0
   11.0605   -6.5307    0.0000 C   0  0  0  0  0  0  0  0  0  0  0  0
   10.0698   -5.5011    0.0000 O   0  0  0  0  0  0  0  0  0  0  0  0
    9.8716   -4.7002    0.0000 C   0  0  0  0  0  0  0  0  0  0  0  0
    6.4814   -4.9880    0.0000 H   0  0  0  0  0  0  0  0  0  0  0  0
    4.6823   -5.4331    0.0000 H   0  0  0  0  0  0  0  0  0  0  0  0
    5.4534   -4.6912    0.0000 H   0  0  0  0  0  0  0  0  0  0  0  0
    6.3420   -7.3995    0.0000 H   0  0  0  0  0  0  0  0  0  0  0  0
    4.7411   -8.6455    0.0000 H   0  0  0  0  0  0  0  0  0  0  0  0
    5.7691   -8.9423    0.0000 H   0  0  0  0  0  0  0  0  0  0  0  0
    6.6513   -6.5586    0.0000 H   0  0  0  0  0  0  0  0  0  0  0  0
    8.4355   -7.0736    0.0000 H   0  0  0  0  0  0  0  0  0  0  0  0
    7.5434  -10.1639    0.0000 H   0  0  0  0  0  0  0  0  0  0  0  0
    5.7593   -9.6489    0.0000 H   0  0  0  0  0  0  0  0  0  0  0  0
    5.1530   -8.5435    0.0000 H   0  0  0  0  0  0  0  0  0  0  0  0
    4.3821   -9.2855    0.0000 H   0  0  0  0  0  0  0  0  0  0  0  0
    4.7202   -9.9059    0.0000 H   0  0  0  0  0  0  0  0  0  0  0  0
    3.3821  -11.1935    0.0000 H   0  0  0  0  0  0  0  0  0  0  0  0
    1.5980  -10.6785    0.0000 H   0  0  0  0  0  0  0  0  0  0  0  0
    1.1519   -8.8759    0.0000 H   0  0  0  0  0  0  0  0  0  0  0  0
    2.4901   -7.5882    0.0000 H   0  0  0  0  0  0  0  0  0  0  0  0
    2.1062   -6.9204    0.0000 H   0  0  0  0  0  0  0  0  0  0  0  0
    2.7967   -8.8279    0.0000 H   0  0  0  0  0  0  0  0  0  0  0  0
    1.7687   -8.5311    0.0000 H   0  0  0  0  0  0  0  0  0  0  0  0
    1.4901   -6.5217    0.0000 H   0  0  0  0  0  0  0  0  0  0  0  0
    0.7191   -7.2636    0.0000 H   0  0  0  0  0  0  0  0  0  0  0  0
    2.3423   -9.2195    0.0000 H   0  0  0  0  0  0  0  0  0  0  0  0
    1.0042  -10.5071    0.0000 H   0  0  0  0  0  0  0  0  0  0  0  0
   -1.2260   -8.1894    0.0000 H   0  0  0  0  0  0  0  0  0  0  0  0
    0.1121   -6.9018    0.0000 H   0  0  0  0  0  0  0  0  0  0  0  0
    3.7070   -5.6744    0.0000 H   0  0  0  0  0  0  0  0  0  0  0  0
    2.6790   -5.3776    0.0000 H   0  0  0  0  0  0  0  0  0  0  0  0
    1.3724   -6.9294    0.0000 H   0  0  0  0  0  0  0  0  0  0  0  0
    1.1154   -5.8907    0.0000 H   0  0  0  0  0  0  0  0  0  0  0  0
    0.4089   -5.8733    0.0000 H   0  0  0  0  0  0  0  0  0  0  0  0
   -0.0370   -4.0708    0.0000 H   0  0  0  0  0  0  0  0  0  0  0  0
    3.0852   -3.2982    0.0000 H   0  0  0  0  0  0  0  0  0  0  0  0
    3.5312   -5.1008    0.0000 H   0  0  0  0  0  0  0  0  0  0  0  0
    8.4347   -4.8425    0.0000 H   0  0  0  0  0  0  0  0  0  0  0  0
    7.5426   -7.9327    0.0000 H   0  0  0  0  0  0  0  0  0  0  0  0
   10.3268   -9.5143    0.0000 H   0  0  0  0  0  0  0  0  0  0  0  0
   10.8408   -7.7337    0.0000 H   0  0  0  0  0  0  0  0  0  0  0  0
   11.0978   -8.7723    0.0000 H   0  0  0  0  0  0  0  0  0  0  0  0
   12.0886   -6.8273    0.0000 H   0  0  0  0  0  0  0  0  0  0  0  0
   10.8034   -5.4921    0.0000 H   0  0  0  0  0  0  0  0  0  0  0  0
   11.8314   -5.7887    0.0000 H   0  0  0  0  0  0  0  0  0  0  0  0
   10.6426   -3.9583    0.0000 H   0  0  0  0  0  0  0  0  0  0  0  0
    8.8436   -4.4035    0.0000 H   0  0  0  0  0  0  0  0  0  0  0  0
    9.6146   -3.6615    0.0000 H   0  0  0  0  0  0  0  0  0  0  0  0
  1  2  1  0  0  0  0
  1 55  1  0  0  0  0
  1 56  1  0  0  0  0
  1 57  1  0  0  0  0
  2 39  1  0  0  0  0
  3  2  1  0  0  0  0
  3  4  1  0  0  0  0
  3 12  1  0  0  0  0
  3 58  1  6  0  0  0
  4  5  1  0  0  0  0
  4 59  1  0  0  0  0
  4 60  1  0  0  0  0
  5  6  2  0  0  0  0
  5 10  1  0  0  0  0
  6  7  1  0  0  0  0
  6 61  1  0  0  0  0
  7  8  2  0  0  0  0
  7 62  1  0  0  0  0
  8  9  1  0  0  0  0
  8 11  1  0  0  0  0
  9 10  2  0  0  0  0
  9 63  1  0  0  0  0
 10 64  1  0  0  0  0
 12 13  2  0  0  0  0
 12 14  1  0  0  0  0
 14 15  1  0  0  0  0
 14 22  1  0  0  0  0
 15 16  1  0  0  0  0
 15 65  1  0  0  0  0
 15 66  1  0  0  0  0
 16 17  2  0  0  0  0
 16 21  1  0  0  0  0
 17 18  1  0  0  0  0
 17 67  1  0  0  0  0
 18 19  2  0  0  0  0
 18 68  1  0  0  0  0
 19 20  1  0  0  0  0
 19 69  1  0  0  0  0
 20 21  2  0  0  0  0
 20 70  1  0  0  0  0
 21 71  1  0  0  0  0
 22 23  1  0  0  0  0
 22 31  1  0  0  0  0
 22 72  1  0  0  0  0
 23 24  1  0  0  0  0
 23 73  1  0  0  0  0
 23 74  1  0  0  0  0
 24 25  1  0  0  0  0
 24 75  1  0  0  0  0
 24 76  1  0  0  0  0
 25 26  2  0  0  0  0
 25 30  1  0  0  0  0
 26 27  1  0  0  0  0
 26 77  1  0  0  0  0
 27 28  2  0  0  0  0
 27 78  1  0  0  0  0
 28 29  1  0  0  0  0
 29 30  2  0  0  0  0
 29 79  1  0  0  0  0
 30 80  1  0  0  0  0
 31 32  1  0  0  0  0
 31 81  1  0  0  0  0
 31 82  1  0  0  0  0
 32 33  1  0  0  0  0
 32 83  1  0  0  0  0
 32 84  1  0  0  0  0
 33 34  2  0  0  0  0
 33 38  1  0  0  0  0
 34 35  1  0  0  0  0
 34 85  1  0  0  0  0
 35 36  2  0  0  0  0
 35 86  1  0  0  0  0
 36 37  1  0  0  0  0
 37 38  2  0  0  0  0
 37 87  1  0  0  0  0
 38 88  1  0  0  0  0
 39 40  2  0  0  0  0
 39 41  1  0  0  0  0
 41 42  2  0  0  0  0
 41 43  1  0  0  0  0
 43 44  2  0  0  0  0
 43 48  1  0  0  0  0
 44 45  1  0  0  0  0
 44 89  1  0  0  0  0
 45 46  2  0  0  0  0
 45 53  1  0  0  0  0
 46 47  1  0  0  0  0
 46 51  1  0  0  0  0
 47 48  2  0  0  0  0
 47 49  1  0  0  0  0
 48 90  1  0  0  0  0
 49 50  1  0  0  0  0
 50 91  1  0  0  0  0
 50 92  1  0  0  0  0
 50 93  1  0  0  0  0
 51 52  1  0  0  0  0
 52 94  1  0  0  0  0
 52 95  1  0  0  0  0
 52 96  1  0  0  0  0
 53 54  1  0  0  0  0
 54 97  1  0  0  0  0
 54 98  1  0  0  0  0
 54 99  1  0  0  0  0
M  END
>  <DRUGBANK_ID>
DB12761

>  <COMMON_NAME>
Timcodar

>  <CAS_NUMBER>
179033-51-3

>  <UNII>
U141W322WZ

>  <SYNONYMS>
Timcodar

$$$$
