
 OpenBabel10282417072D

123122  0  0  0  0  0  0  0  0999 V2000
   -6.7842   -0.2060    0.0000 C   0  0  0  0  0  0  0  0  0  0  0  0
   -6.7842   -1.0296    0.0000 O   0  0  0  0  0  0  0  0  0  0  0  0
   -6.0695    0.2060    0.0000 N   0  0  0  0  0  0  0  0  0  0  0  0
   -5.3546   -0.2060    0.0000 C   0  0  1  0  0  0  0  0  0  0  0  0
   -5.3546   -1.0296    0.0000 C   0  0  0  0  0  0  0  0  0  0  0  0
   -6.0761   -1.4416    0.0000 C   0  0  0  0  0  0  0  0  0  0  0  0
   -6.0761   -2.2654    0.0000 C   0  0  0  0  0  0  0  0  0  0  0  0
   -5.3648   -2.6831    0.0000 O   0  0  0  0  0  0  0  0  0  0  0  0
   -6.7945   -2.6712    0.0000 O   0  0  0  0  0  0  0  0  0  0  0  0
   -4.6443    0.2060    0.0000 C   0  0  0  0  0  0  0  0  0  0  0  0
   -3.9294   -0.2060    0.0000 N   0  0  0  0  0  0  0  0  0  0  0  0
   -3.2145    0.2060    0.0000 C   0  0  2  0  0  0  0  0  0  0  0  0
   -2.4997   -0.2060    0.0000 C   0  0  0  0  0  0  0  0  0  0  0  0
   -2.4997   -1.0296    0.0000 O   0  0  0  0  0  0  0  0  0  0  0  0
   -1.7847    0.2060    0.0000 N   0  0  0  0  0  0  0  0  0  0  0  0
   -1.0699   -0.2060    0.0000 C   0  0  2  0  0  0  0  0  0  0  0  0
   -0.3551    0.2060    0.0000 C   0  0  0  0  0  0  0  0  0  0  0  0
   -0.3551    1.0296    0.0000 O   0  0  0  0  0  0  0  0  0  0  0  0
    0.3597   -0.2060    0.0000 N   0  0  0  0  0  0  0  0  0  0  0  0
    1.0699    0.2060    0.0000 C   0  0  1  0  0  0  0  0  0  0  0  0
    1.0699    1.0296    0.0000 C   0  0  0  0  0  0  0  0  0  0  0  0
    1.7848    1.4416    0.0000 C   0  0  0  0  0  0  0  0  0  0  0  0
    1.7848    2.2699    0.0000 C   0  0  0  0  0  0  0  0  0  0  0  0
    1.0690    2.6863    0.0000 O   0  0  0  0  0  0  0  0  0  0  0  0
    2.5000    2.6812    0.0000 N   0  0  0  0  0  0  0  0  0  0  0  0
    1.7848   -0.2060    0.0000 C   0  0  0  0  0  0  0  0  0  0  0  0
    1.7848   -1.0296    0.0000 O   0  0  0  0  0  0  0  0  0  0  0  0
    2.4997    0.2060    0.0000 N   0  0  0  0  0  0  0  0  0  0  0  0
    3.2146   -0.2060    0.0000 C   0  0  2  0  0  0  0  0  0  0  0  0
    3.9295    0.2060    0.0000 C   0  0  0  0  0  0  0  0  0  0  0  0
    4.6443   -0.2060    0.0000 N   0  0  0  0  0  0  0  0  0  0  0  0
    5.3546    0.2060    0.0000 C   0  0  2  0  0  0  0  0  0  0  0  0
    6.0695   -0.2060    0.0000 C   0  0  0  0  0  0  0  0  0  0  0  0
    6.0695   -1.0296    0.0000 O   0  0  0  0  0  0  0  0  0  0  0  0
    6.7843    0.2060    0.0000 N   0  0  0  0  0  0  0  0  0  0  0  0
    5.3546    1.0296    0.0000 C   0  0  0  0  0  0  0  0  0  0  0  0
    6.0695    1.4416    0.0000 C   0  0  0  0  0  0  0  0  0  0  0  0
    6.0695    2.2699    0.0000 C   0  0  0  0  0  0  0  0  0  0  0  0
    6.7843    2.6817    0.0000 N   0  0  0  0  0  0  0  0  0  0  0  0
    6.7843    3.5056    0.0000 C   0  0  0  0  0  0  0  0  0  0  0  0
    7.4992    3.9174    0.0000 N   0  0  0  0  0  0  0  0  0  0  0  0
    6.0695    3.9174    0.0000 N   0  0  0  0  0  0  0  0  0  0  0  0
    3.9295    1.0296    0.0000 O   0  0  0  0  0  0  0  0  0  0  0  0
    3.2146   -1.0296    0.0000 C   0  0  0  0  0  0  0  0  0  0  0  0
    3.9295   -1.4416    0.0000 C   0  0  0  0  0  0  0  0  0  0  0  0
    3.9295   -2.2699    0.0000 C   0  0  0  0  0  0  0  0  0  0  0  0
    4.6443   -2.6817    0.0000 N   0  0  0  0  0  0  0  0  0  0  0  0
    4.6443   -3.5056    0.0000 C   0  0  0  0  0  0  0  0  0  0  0  0
    5.3546   -3.9174    0.0000 N   0  0  0  0  0  0  0  0  0  0  0  0
    3.9295   -3.9174    0.0000 N   0  0  0  0  0  0  0  0  0  0  0  0
   -1.0699   -1.0296    0.0000 C   0  0  0  0  0  0  0  0  0  0  0  0
   -0.3551   -1.4416    0.0000 C   0  0  0  0  0  0  0  0  0  0  0  0
   -0.3551   -2.2699    0.0000 S   0  0  0  0  0  0  0  0  0  0  0  0
   -0.3551   -3.0891    0.0000 C   0  0  0  0  0  0  0  0  0  0  0  0
   -3.2145    1.0296    0.0000 C   0  0  0  0  0  0  0  0  0  0  0  0
   -2.5083    1.4416    0.0000 C   0  0  0  0  0  0  0  0  0  0  0  0
   -2.5083    2.2744    0.0000 C   0  0  0  0  0  0  0  0  0  0  0  0
   -3.2272    2.6790    0.0000 O   0  0  0  0  0  0  0  0  0  0  0  0
   -1.7975    2.6891    0.0000 O   0  0  0  0  0  0  0  0  0  0  0  0
   -4.6443    1.0296    0.0000 C   0  0  0  0  0  0  0  0  0  0  0  0
   -7.4992    0.2060    0.0000 C   0  0  0  0  0  0  0  0  0  0  0  0
   -6.0696    1.1905    0.0000 H   0  0  0  0  0  0  0  0  0  0  0  0
   -6.2810   -0.7414    0.0000 H   0  0  0  0  0  0  0  0  0  0  0  0
   -4.4292   -1.5668    0.0000 H   0  0  0  0  0  0  0  0  0  0  0  0
   -5.3584   -2.0996    0.0000 H   0  0  0  0  0  0  0  0  0  0  0  0
   -7.0015   -0.9044    0.0000 H   0  0  0  0  0  0  0  0  0  0  0  0
   -7.0034   -1.9755    0.0000 H   0  0  0  0  0  0  0  0  0  0  0  0
   -5.3717   -3.6201    0.0000 H   0  0  0  0  0  0  0  0  0  0  0  0
   -3.9294   -1.1905    0.0000 H   0  0  0  0  0  0  0  0  0  0  0  0
   -4.1409    0.7414    0.0000 H   0  0  0  0  0  0  0  0  0  0  0  0
   -1.7846    1.1905    0.0000 H   0  0  0  0  0  0  0  0  0  0  0  0
   -1.9964   -0.7413    0.0000 H   0  0  0  0  0  0  0  0  0  0  0  0
    0.3611   -1.1905    0.0000 H   0  0  0  0  0  0  0  0  0  0  0  0
    0.1427    0.7400    0.0000 H   0  0  0  0  0  0  0  0  0  0  0  0
    0.1435    1.5650    0.0000 H   0  0  0  0  0  0  0  0  0  0  0  0
    1.0705    2.0996    0.0000 H   0  0  0  0  0  0  0  0  0  0  0  0
    2.7112    0.9062    0.0000 H   0  0  0  0  0  0  0  0  0  0  0  0
    2.7116    1.9764    0.0000 H   0  0  0  0  0  0  0  0  0  0  0  0
    3.3518    2.1875    0.0000 H   0  0  0  0  0  0  0  0  0  0  0  0
    2.5017    3.6657    0.0000 H   0  0  0  0  0  0  0  0  0  0  0  0
    2.4997    1.1905    0.0000 H   0  0  0  0  0  0  0  0  0  0  0  0
    2.2882   -0.7414    0.0000 H   0  0  0  0  0  0  0  0  0  0  0  0
    4.6456   -1.1905    0.0000 H   0  0  0  0  0  0  0  0  0  0  0  0
    4.4274    0.7401    0.0000 H   0  0  0  0  0  0  0  0  0  0  0  0
    7.6365   -0.2869    0.0000 H   0  0  0  0  0  0  0  0  0  0  0  0
    6.7850    1.1905    0.0000 H   0  0  0  0  0  0  0  0  0  0  0  0
    4.4282    1.5650    0.0000 H   0  0  0  0  0  0  0  0  0  0  0  0
    5.3552    2.0996    0.0000 H   0  0  0  0  0  0  0  0  0  0  0  0
    6.9959    0.9062    0.0000 H   0  0  0  0  0  0  0  0  0  0  0  0
    6.9963    1.9764    0.0000 H   0  0  0  0  0  0  0  0  0  0  0  0
    5.1431    2.8053    0.0000 H   0  0  0  0  0  0  0  0  0  0  0  0
    6.0702    3.3399    0.0000 H   0  0  0  0  0  0  0  0  0  0  0  0
    7.6367    2.1891    0.0000 H   0  0  0  0  0  0  0  0  0  0  0  0
    8.3513    3.4243    0.0000 H   0  0  0  0  0  0  0  0  0  0  0  0
    7.5002    4.9019    0.0000 H   0  0  0  0  0  0  0  0  0  0  0  0
    6.0686    4.9019    0.0000 H   0  0  0  0  0  0  0  0  0  0  0  0
    2.2882   -1.5650    0.0000 H   0  0  0  0  0  0  0  0  0  0  0  0
    3.2152   -2.0996    0.0000 H   0  0  0  0  0  0  0  0  0  0  0  0
    4.8559   -0.9062    0.0000 H   0  0  0  0  0  0  0  0  0  0  0  0
    4.8563   -1.9764    0.0000 H   0  0  0  0  0  0  0  0  0  0  0  0
    3.0031   -2.8053    0.0000 H   0  0  0  0  0  0  0  0  0  0  0  0
    3.9302   -3.3399    0.0000 H   0  0  0  0  0  0  0  0  0  0  0  0
    5.4967   -2.1891    0.0000 H   0  0  0  0  0  0  0  0  0  0  0  0
    5.3528   -4.9019    0.0000 H   0  0  0  0  0  0  0  0  0  0  0  0
    6.2081   -3.4267    0.0000 H   0  0  0  0  0  0  0  0  0  0  0  0
    3.0774   -3.4244    0.0000 H   0  0  0  0  0  0  0  0  0  0  0  0
   -1.9964   -1.5649    0.0000 H   0  0  0  0  0  0  0  0  0  0  0  0
   -1.0693   -2.0996    0.0000 H   0  0  0  0  0  0  0  0  0  0  0  0
    0.5714   -0.9063    0.0000 H   0  0  0  0  0  0  0  0  0  0  0  0
    0.5716   -1.9764    0.0000 H   0  0  0  0  0  0  0  0  0  0  0  0
   -1.2817   -3.6241    0.0000 H   0  0  0  0  0  0  0  0  0  0  0  0
    0.5715   -3.6241    0.0000 H   0  0  0  0  0  0  0  0  0  0  0  0
   -0.3551   -4.1591    0.0000 H   0  0  0  0  0  0  0  0  0  0  0  0
   -4.1424    1.5625    0.0000 H   0  0  0  0  0  0  0  0  0  0  0  0
   -3.2181    2.0996    0.0000 H   0  0  0  0  0  0  0  0  0  0  0  0
   -1.5804    0.9087    0.0000 H   0  0  0  0  0  0  0  0  0  0  0  0
   -1.5823    1.9776    0.0000 H   0  0  0  0  0  0  0  0  0  0  0  0
   -0.9839    2.2243    0.0000 H   0  0  0  0  0  0  0  0  0  0  0  0
   -3.7506    1.5456    0.0000 H   0  0  0  0  0  0  0  0  0  0  0  0
   -5.5380    1.5456    0.0000 H   0  0  0  0  0  0  0  0  0  0  0  0
   -7.5001    1.2760    0.0000 H   0  0  0  0  0  0  0  0  0  0  0  0
   -8.4254   -0.3298    0.0000 H   0  0  0  0  0  0  0  0  0  0  0  0
   -8.4263    0.7402    0.0000 H   0  0  0  0  0  0  0  0  0  0  0  0
  1  2  2  0  0  0  0
  1  3  1  0  0  0  0
  1 61  1  0  0  0  0
  3  4  1  0  0  0  0
  3 62  1  0  0  0  0
  4  5  1  0  0  0  0
  4 10  1  0  0  0  0
  4 63  1  1  0  0  0
  5  6  1  0  0  0  0
  5 64  1  0  0  0  0
  5 65  1  0  0  0  0
  6  7  1  0  0  0  0
  6 66  1  0  0  0  0
  6 67  1  0  0  0  0
  7  8  1  0  0  0  0
  7  9  2  0  0  0  0
  8 68  1  0  0  0  0
 10 11  1  0  0  0  0
 10 60  2  0  0  0  0
 11 12  1  0  0  0  0
 11 69  1  0  0  0  0
 12 13  1  0  0  0  0
 12 55  1  0  0  0  0
 12 70  1  6  0  0  0
 13 14  2  0  0  0  0
 13 15  1  0  0  0  0
 15 16  1  0  0  0  0
 15 71  1  0  0  0  0
 16 17  1  0  0  0  0
 16 51  1  0  0  0  0
 16 72  1  1  0  0  0
 17 18  2  0  0  0  0
 17 19  1  0  0  0  0
 19 20  1  0  0  0  0
 19 73  1  0  0  0  0
 20 21  1  0  0  0  0
 20 26  1  0  0  0  0
 20 74  1  6  0  0  0
 21 22  1  0  0  0  0
 21 75  1  0  0  0  0
 21 76  1  0  0  0  0
 22 23  1  0  0  0  0
 22 77  1  0  0  0  0
 22 78  1  0  0  0  0
 23 24  2  0  0  0  0
 23 25  1  0  0  0  0
 25 79  1  0  0  0  0
 25 80  1  0  0  0  0
 26 27  2  0  0  0  0
 26 28  1  0  0  0  0
 28 29  1  0  0  0  0
 28 81  1  0  0  0  0
 29 30  1  0  0  0  0
 29 44  1  0  0  0  0
 29 82  1  1  0  0  0
 30 31  1  0  0  0  0
 30 43  2  0  0  0  0
 31 32  1  0  0  0  0
 31 83  1  0  0  0  0
 32 33  1  0  0  0  0
 32 36  1  0  0  0  0
 32 84  1  6  0  0  0
 33 34  2  0  0  0  0
 33 35  1  0  0  0  0
 35 85  1  0  0  0  0
 35 86  1  0  0  0  0
 36 37  1  0  0  0  0
 36 87  1  0  0  0  0
 36 88  1  0  0  0  0
 37 38  1  0  0  0  0
 37 89  1  0  0  0  0
 37 90  1  0  0  0  0
 38 39  1  0  0  0  0
 38 91  1  0  0  0  0
 38 92  1  0  0  0  0
 39 40  1  0  0  0  0
 39 93  1  0  0  0  0
 40 41  1  0  0  0  0
 40 42  2  0  0  0  0
 41 94  1  0  0  0  0
 41 95  1  0  0  0  0
 42 96  1  0  0  0  0
 44 45  1  0  0  0  0
 44 97  1  0  0  0  0
 44 98  1  0  0  0  0
 45 46  1  0  0  0  0
 45 99  1  0  0  0  0
 45100  1  0  0  0  0
 46 47  1  0  0  0  0
 46101  1  0  0  0  0
 46102  1  0  0  0  0
 47 48  1  0  0  0  0
 47103  1  0  0  0  0
 48 49  1  0  0  0  0
 48 50  2  0  0  0  0
 49104  1  0  0  0  0
 49105  1  0  0  0  0
 50106  1  0  0  0  0
 51 52  1  0  0  0  0
 51107  1  0  0  0  0
 51108  1  0  0  0  0
 52 53  1  0  0  0  0
 52109  1  0  0  0  0
 52110  1  0  0  0  0
 53 54  1  0  0  0  0
 54111  1  0  0  0  0
 54112  1  0  0  0  0
 54113  1  0  0  0  0
 55 56  1  0  0  0  0
 55114  1  0  0  0  0
 55115  1  0  0  0  0
 56 57  1  0  0  0  0
 56116  1  0  0  0  0
 56117  1  0  0  0  0
 57 58  2  0  0  0  0
 57 59  1  0  0  0  0
 59118  1  0  0  0  0
 60119  1  0  0  0  0
 60120  1  0  0  0  0
 61121  1  0  0  0  0
 61122  1  0  0  0  0
 61123  1  0  0  0  0
M  END
>  <DRUGBANK_ID>
DB11709

>  <COMMON_NAME>
Acetyl hexapeptide-3

>  <CAS_NUMBER>
616204-22-9

>  <UNII>
L4EL31FWIL

>  <SYNONYMS>
Acetyl hexapeptide-3; Acetyl hexapeptide-8; Argireline; Argireline NP; Hexapeptide 3

$$$$
