SX4
 OpenBabel10282417072D

 41 43  0  0  0  0  0  0  0  0999 V2000
   -1.9064    1.1817    0.0000 Cl  0  0  0  0  0  0  0  0  0  0  0  0
   -1.2933    1.7338    0.0000 C   0  0  0  0  0  0  0  0  0  0  0  0
   -1.4648    2.5407    0.0000 C   0  0  0  0  0  0  0  0  0  0  0  0
   -0.8517    3.0928    0.0000 C   0  0  0  0  0  0  0  0  0  0  0  0
   -0.0671    2.8378    0.0000 C   0  0  0  0  0  0  0  0  0  0  0  0
    0.1044    2.0309    0.0000 C   0  0  0  0  0  0  0  0  0  0  0  0
   -0.5087    1.4788    0.0000 C   0  0  0  0  0  0  0  0  0  0  0  0
   -0.3371    0.6718    0.0000 C   0  0  0  0  0  0  0  0  0  0  0  0
    0.4475    0.4169    0.0000 C   0  0  1  0  0  0  0  0  0  0  0  0
    1.1149    0.9018    0.0000 C   0  0  0  0  0  0  0  0  0  0  0  0
    1.7824    0.4169    0.0000 C   0  0  0  0  0  0  0  0  0  0  0  0
    1.5274   -0.3677    0.0000 C   0  0  0  0  0  0  0  0  0  0  0  0
    0.7024   -0.3677    0.0000 N   0  0  0  0  0  0  0  0  0  0  0  0
    0.2175   -1.0352    0.0000 C   0  0  0  0  0  0  0  0  0  0  0  0
   -0.6030   -0.9489    0.0000 O   0  0  0  0  0  0  0  0  0  0  0  0
    0.5531   -1.7888    0.0000 C   0  0  0  0  0  0  0  0  0  0  0  0
    1.3735   -1.8751    0.0000 C   0  0  0  0  0  0  0  0  0  0  0  0
    1.8585   -1.2076    0.0000 N   0  0  0  0  0  0  0  0  0  0  0  0
    0.0681   -2.4563    0.0000 C   0  0  0  0  0  0  0  0  0  0  0  0
    0.4037   -3.2099    0.0000 C   0  0  0  0  0  0  0  0  0  0  0  0
   -0.0812   -3.8774    0.0000 Br  0  0  0  0  0  0  0  0  0  0  0  0
    1.2242   -3.2962    0.0000 C   0  0  0  0  0  0  0  0  0  0  0  0
    1.7091   -2.6287    0.0000 C   0  0  0  0  0  0  0  0  0  0  0  0
    0.3561    0.9936    0.0000 H   0  0  0  0  0  0  0  0  0  0  0  0
   -2.4463    2.8596    0.0000 H   0  0  0  0  0  0  0  0  0  0  0  0
   -1.0663    4.1023    0.0000 H   0  0  0  0  0  0  0  0  0  0  0  0
    0.6999    3.5283    0.0000 H   0  0  0  0  0  0  0  0  0  0  0  0
    1.0859    1.7120    0.0000 H   0  0  0  0  0  0  0  0  0  0  0  0
   -1.1322   -0.0442    0.0000 H   0  0  0  0  0  0  0  0  0  0  0  0
   -0.1146   -0.3748    0.0000 H   0  0  0  0  0  0  0  0  0  0  0  0
    1.1149    1.9718    0.0000 H   0  0  0  0  0  0  0  0  0  0  0  0
    2.0683    1.3876    0.0000 H   0  0  0  0  0  0  0  0  0  0  0  0
    2.8000    0.7475    0.0000 H   0  0  0  0  0  0  0  0  0  0  0  0
    2.5390   -0.3397    0.0000 H   0  0  0  0  0  0  0  0  0  0  0  0
    2.1563   -1.2334    0.0000 H   0  0  0  0  0  0  0  0  0  0  0  0
    1.0416   -1.3211    0.0000 H   0  0  0  0  0  0  0  0  0  0  0  0
    2.8376   -1.3105    0.0000 H   0  0  0  0  0  0  0  0  0  0  0  0
    1.4581   -0.3082    0.0000 H   0  0  0  0  0  0  0  0  0  0  0  0
   -0.9582   -2.3485    0.0000 H   0  0  0  0  0  0  0  0  0  0  0  0
    1.6439   -4.2390    0.0000 H   0  0  0  0  0  0  0  0  0  0  0  0
    2.7355   -2.7365    0.0000 H   0  0  0  0  0  0  0  0  0  0  0  0
  1  2  1  0  0  0  0
  2  3  1  0  0  0  0
  3  4  2  0  0  0  0
  3 25  1  0  0  0  0
  4 26  1  0  0  0  0
  5  4  1  0  0  0  0
  5 27  1  0  0  0  0
  6  5  2  0  0  0  0
  6 28  1  0  0  0  0
  7  2  2  0  0  0  0
  7  6  1  0  0  0  0
  8  7  1  0  0  0  0
  8 29  1  0  0  0  0
  8 30  1  0  0  0  0
  9  8  1  0  0  0  0
  9 24  1  6  0  0  0
 10  9  1  0  0  0  0
 10 31  1  0  0  0  0
 10 32  1  0  0  0  0
 11 10  1  0  0  0  0
 11 12  1  0  0  0  0
 11 33  1  0  0  0  0
 11 34  1  0  0  0  0
 12 13  1  0  0  0  0
 12 35  1  0  0  0  0
 12 36  1  0  0  0  0
 13  9  1  0  0  0  0
 14 13  1  0  0  0  0
 14 16  1  0  0  0  0
 15 14  2  0  0  0  0
 16 17  1  0  0  0  0
 17 23  2  0  0  0  0
 17 18  1  0  0  0  0
 18 37  1  0  0  0  0
 18 38  1  0  0  0  0
 19 16  2  0  0  0  0
 19 20  1  0  0  0  0
 19 39  1  0  0  0  0
 20 22  2  0  0  0  0
 21 20  1  0  0  0  0
 22 23  1  0  0  0  0
 22 40  1  0  0  0  0
 23 41  1  0  0  0  0
M  END
>  <DRUGBANK_ID>
DB08580

>  <COMMON_NAME>
4-bromo-2-{[(2R)-2-(2-chlorobenzyl)pyrrolidin-1-yl]carbonyl}aniline

$$$$
