977
 OpenBabel10282417072D

  2  1  0  0  0  0  0  0  0  0999 V2000
    1.6500    0.0000    0.0000 O   0  0  0  0  0  0  0  0  0  0  0  0
    2.4750    0.0000    0.0000 O   0  0  0  0  0  0  0  0  0  0  0  0
  1  2  2  0  0  0  0
M  END
>  <DRUGBANK_ID>
DB09140

>  <COMMON_NAME>
Oxygen

>  <CAS_NUMBER>
7782-44-7

>  <UNII>
S88TT14065

>  <SYNONYMS>
Dioxygen; Molecular oxygen; Oxigeno gaseoso; Oxygen; Oxygen USP; Pure oxygen

$$$$
