TXS
 OpenBabel10282417072D

 42 44  0  0  0  0  0  0  0  0999 V2000
    1.4527   -1.1559    0.0000 C   0  0  0  0  0  0  0  0  0  0  0  0
    2.1201   -1.6408    0.0000 C   0  0  0  0  0  0  0  0  0  0  0  0
    1.8652   -2.4255    0.0000 C   0  0  0  0  0  0  0  0  0  0  0  0
    1.0402   -2.4255    0.0000 C   0  0  0  0  0  0  0  0  0  0  0  0
    0.7852   -1.6408    0.0000 N   0  0  0  0  0  0  0  0  0  0  0  0
    0.0006   -1.3859    0.0000 C   0  0  0  0  0  0  0  0  0  0  0  0
   -0.1709   -0.5789    0.0000 C   0  0  2  0  0  0  0  0  0  0  0  0
   -0.9246   -0.2434    0.0000 O   0  0  0  0  0  0  0  0  0  0  0  0
    0.3811    0.0342    0.0000 C   0  0  2  0  0  0  0  0  0  0  0  0
    1.2016   -0.0521    0.0000 O   0  0  0  0  0  0  0  0  0  0  0  0
   -0.0314    0.7486    0.0000 C   0  0  0  0  0  0  0  0  0  0  0  0
   -0.8384    0.5771    0.0000 C   0  0  1  0  0  0  0  0  0  0  0  0
   -1.4515    1.1291    0.0000 N   0  0  0  0  0  0  0  0  0  0  0  0
   -2.2361    0.8742    0.0000 C   0  0  0  0  0  0  0  0  0  0  0  0
   -2.8492    1.4262    0.0000 C   0  0  0  0  0  0  0  0  0  0  0  0
   -3.6338    1.1713    0.0000 C   0  0  0  0  0  0  0  0  0  0  0  0
   -2.6777    2.2332    0.0000 C   0  0  0  0  0  0  0  0  0  0  0  0
   -3.2907    2.7852    0.0000 O   0  0  0  0  0  0  0  0  0  0  0  0
   -1.8930    2.4881    0.0000 N   0  0  0  0  0  0  0  0  0  0  0  0
   -1.2799    1.9361    0.0000 C   0  0  0  0  0  0  0  0  0  0  0  0
   -0.4953    2.1911    0.0000 O   0  0  0  0  0  0  0  0  0  0  0  0
   -0.6247   -0.9464    0.0000 H   0  0  0  0  0  0  0  0  0  0  0  0
    0.5904   -0.5110    0.0000 H   0  0  0  0  0  0  0  0  0  0  0  0
   -1.3835    0.3678    0.0000 H   0  0  0  0  0  0  0  0  0  0  0  0
    1.4527   -0.0859    0.0000 H   0  0  0  0  0  0  0  0  0  0  0  0
    0.4993   -0.6701    0.0000 H   0  0  0  0  0  0  0  0  0  0  0  0
    3.1377   -1.3101    0.0000 H   0  0  0  0  0  0  0  0  0  0  0  0
    2.8767   -2.3974    0.0000 H   0  0  0  0  0  0  0  0  0  0  0  0
    2.4942   -3.2911    0.0000 H   0  0  0  0  0  0  0  0  0  0  0  0
    1.3794   -3.3789    0.0000 H   0  0  0  0  0  0  0  0  0  0  0  0
    0.4113   -3.2912    0.0000 H   0  0  0  0  0  0  0  0  0  0  0  0
   -0.0166   -2.2581    0.0000 H   0  0  0  0  0  0  0  0  0  0  0  0
   -0.7946   -2.1019    0.0000 H   0  0  0  0  0  0  0  0  0  0  0  0
   -1.0170   -1.0552    0.0000 H   0  0  0  0  0  0  0  0  0  0  0  0
    1.5961   -0.9383    0.0000 H   0  0  0  0  0  0  0  0  0  0  0  0
    0.4038    1.7261    0.0000 H   0  0  0  0  0  0  0  0  0  0  0  0
   -0.7048    1.5802    0.0000 H   0  0  0  0  0  0  0  0  0  0  0  0
   -2.4507   -0.1352    0.0000 H   0  0  0  0  0  0  0  0  0  0  0  0
   -4.4289    1.8873    0.0000 H   0  0  0  0  0  0  0  0  0  0  0  0
   -3.8563    0.1247    0.0000 H   0  0  0  0  0  0  0  0  0  0  0  0
   -4.6514    0.8407    0.0000 H   0  0  0  0  0  0  0  0  0  0  0  0
   -1.6883    3.4511    0.0000 H   0  0  0  0  0  0  0  0  0  0  0  0
  1  2  1  0  0  0  0
  1  5  1  0  0  0  0
  1 25  1  0  0  0  0
  1 26  1  0  0  0  0
  2  3  1  0  0  0  0
  2 27  1  0  0  0  0
  2 28  1  0  0  0  0
  3  4  1  0  0  0  0
  3 29  1  0  0  0  0
  3 30  1  0  0  0  0
  4  5  1  0  0  0  0
  4 31  1  0  0  0  0
  4 32  1  0  0  0  0
  5  6  1  0  0  0  0
  6 33  1  0  0  0  0
  6 34  1  0  0  0  0
  7  6  1  0  0  0  0
  7  8  1  0  0  0  0
  7  9  1  0  0  0  0
  7 22  1  1  0  0  0
  8 12  1  0  0  0  0
  9 10  1  0  0  0  0
  9 11  1  0  0  0  0
  9 23  1  6  0  0  0
 10 35  1  0  0  0  0
 11 12  1  0  0  0  0
 11 36  1  0  0  0  0
 11 37  1  0  0  0  0
 12 13  1  0  0  0  0
 12 24  1  1  0  0  0
 13 14  1  0  0  0  0
 13 20  1  0  0  0  0
 14 15  2  0  0  0  0
 14 38  1  0  0  0  0
 15 16  1  0  0  0  0
 15 17  1  0  0  0  0
 16 39  1  0  0  0  0
 16 40  1  0  0  0  0
 16 41  1  0  0  0  0
 17 18  2  0  0  0  0
 17 19  1  0  0  0  0
 19 20  1  0  0  0  0
 19 42  1  0  0  0  0
 20 21  2  0  0  0  0
M  END
>  <DRUGBANK_ID>
DB08661

>  <COMMON_NAME>
1-(2,5-dideoxy-5-pyrrolidin-1-yl-beta-L-erythro-pentofuranosyl)-5-methylpyrimidine-2,4(1H,3H)-dione

$$$$
