
 OpenBabel10282417072D

 74 76  0  0  0  0  0  0  0  0999 V2000
   -0.1357   -3.9683    0.0000 O   0  0  0  0  0  0  0  0  0  0  0  0
    1.2932   -3.9683    0.0000 O   0  0  0  0  0  0  0  0  0  0  0  0
   -1.5647   -5.6183    0.0000 O   0  0  0  0  0  0  0  0  0  0  0  0
   -0.1357   -6.4433    0.0000 O   0  0  0  0  0  0  0  0  0  0  0  0
    1.2932   -5.6183    0.0000 O   0  0  0  0  0  0  0  0  0  0  0  0
   -1.5647   -3.1433    0.0000 O   0  0  0  0  0  0  0  0  0  0  0  0
   -0.8502   -1.9057    0.0000 O   0  0  0  0  0  0  0  0  0  0  0  0
    2.7221   -0.6682    0.0000 O   0  5  0  0  0  0  0  0  0  0  0  0
    3.4366   -1.9057    0.0000 O   0  0  0  0  0  0  0  0  0  0  0  0
   -1.5647    1.8067    0.0000 N   0  0  0  0  0  0  0  0  0  0  0  0
   -1.5647    3.4568    0.0000 N   0  0  0  0  0  0  0  0  0  0  0  0
   -0.1357   -0.6682    0.0000 N   0  0  0  0  0  0  0  0  0  0  0  0
   -2.9937    5.9318    0.0000 N   0  0  0  0  0  0  0  0  0  0  0  0
    2.7221   -1.4932    0.0000 N   0  3  0  0  0  0  0  0  0  0  0  0
   -0.8502   -5.2058    0.0000 C   0  0  2  0  0  0  0  0  0  0  0  0
   -0.1357   -5.6183    0.0000 C   0  0  1  0  0  0  0  0  0  0  0  0
   -0.8502   -4.3808    0.0000 C   0  0  1  0  0  0  0  0  0  0  0  0
    0.5787   -5.2058    0.0000 C   0  0  2  0  0  0  0  0  0  0  0  0
   -2.2791    2.2192    0.0000 C   0  0  0  0  0  0  0  0  0  0  0  0
   -0.8502    2.2192    0.0000 C   0  0  0  0  0  0  0  0  0  0  0  0
   -2.2791    3.0443    0.0000 C   0  0  0  0  0  0  0  0  0  0  0  0
   -0.8502    3.0443    0.0000 C   0  0  0  0  0  0  0  0  0  0  0  0
    0.5787   -4.3808    0.0000 C   0  0  1  0  0  0  0  0  0  0  0  0
   -1.5647    0.9817    0.0000 C   0  0  0  0  0  0  0  0  0  0  0  0
   -1.5647    4.2818    0.0000 C   0  0  0  0  0  0  0  0  0  0  0  0
   -1.5647   -3.9683    0.0000 C   0  0  0  0  0  0  0  0  0  0  0  0
   -0.8502    0.5692    0.0000 C   0  0  0  0  0  0  0  0  0  0  0  0
   -2.2791    4.6943    0.0000 C   0  0  0  0  0  0  0  0  0  0  0  0
   -0.8502   -0.2557    0.0000 C   0  0  0  0  0  0  0  0  0  0  0  0
   -2.2791    5.5193    0.0000 C   0  0  0  0  0  0  0  0  0  0  0  0
    1.2932   -3.1433    0.0000 C   0  0  0  0  0  0  0  0  0  0  0  0
    0.5787   -2.7308    0.0000 C   0  0  0  0  0  0  0  0  0  0  0  0
    0.5787   -1.9057    0.0000 C   0  0  0  0  0  0  0  0  0  0  0  0
   -0.1357   -1.4932    0.0000 C   0  0  0  0  0  0  0  0  0  0  0  0
    2.0076   -2.7308    0.0000 C   0  0  0  0  0  0  0  0  0  0  0  0
    2.0076   -1.9057    0.0000 C   0  0  0  0  0  0  0  0  0  0  0  0
    1.2932   -1.4932    0.0000 C   0  0  0  0  0  0  0  0  0  0  0  0
    0.3072   -0.4125    0.0000 H   0  0  0  0  0  0  0  0  0  0  0  0
   -3.4366    5.6761    0.0000 H   0  0  0  0  0  0  0  0  0  0  0  0
   -2.9937    6.4433    0.0000 H   0  0  0  0  0  0  0  0  0  0  0  0
   -2.4047   -5.1333    0.0000 H   0  0  0  0  0  0  0  0  0  0  0  0
   -0.9757   -6.9283    0.0000 H   0  0  0  0  0  0  0  0  0  0  0  0
    1.2932   -6.5883    0.0000 H   0  0  0  0  0  0  0  0  0  0  0  0
   -0.7247   -2.6583    0.0000 H   0  0  0  0  0  0  0  0  0  0  0  0
   -0.8502   -6.2758    0.0000 H   0  0  0  0  0  0  0  0  0  0  0  0
   -1.0623   -6.1533    0.0000 H   0  0  0  0  0  0  0  0  0  0  0  0
   -0.8502   -3.3108    0.0000 H   0  0  0  0  0  0  0  0  0  0  0  0
    0.5787   -6.2758    0.0000 H   0  0  0  0  0  0  0  0  0  0  0  0
   -3.2058    1.6842    0.0000 H   0  0  0  0  0  0  0  0  0  0  0  0
   -3.2057    2.7542    0.0000 H   0  0  0  0  0  0  0  0  0  0  0  0
    0.0764    1.6842    0.0000 H   0  0  0  0  0  0  0  0  0  0  0  0
    0.0764    2.7542    0.0000 H   0  0  0  0  0  0  0  0  0  0  0  0
   -3.2058    3.5793    0.0000 H   0  0  0  0  0  0  0  0  0  0  0  0
   -3.2057    2.5093    0.0000 H   0  0  0  0  0  0  0  0  0  0  0  0
    0.0764    3.5793    0.0000 H   0  0  0  0  0  0  0  0  0  0  0  0
    0.0764    2.5093    0.0000 H   0  0  0  0  0  0  0  0  0  0  0  0
    0.5787   -3.3108    0.0000 H   0  0  0  0  0  0  0  0  0  0  0  0
   -2.4913    0.4467    0.0000 H   0  0  0  0  0  0  0  0  0  0  0  0
   -1.5647   -0.0883    0.0000 H   0  0  0  0  0  0  0  0  0  0  0  0
   -0.6380    4.8168    0.0000 H   0  0  0  0  0  0  0  0  0  0  0  0
   -1.5647    5.3518    0.0000 H   0  0  0  0  0  0  0  0  0  0  0  0
   -2.4913   -4.5033    0.0000 H   0  0  0  0  0  0  0  0  0  0  0  0
   -1.5647   -5.0383    0.0000 H   0  0  0  0  0  0  0  0  0  0  0  0
    0.0764    1.1042    0.0000 H   0  0  0  0  0  0  0  0  0  0  0  0
    0.0764    0.0342    0.0000 H   0  0  0  0  0  0  0  0  0  0  0  0
   -3.2058    4.1593    0.0000 H   0  0  0  0  0  0  0  0  0  0  0  0
   -3.2057    5.2293    0.0000 H   0  0  0  0  0  0  0  0  0  0  0  0
   -1.7768   -0.7907    0.0000 H   0  0  0  0  0  0  0  0  0  0  0  0
   -1.7768    0.2793    0.0000 H   0  0  0  0  0  0  0  0  0  0  0  0
   -1.3525    6.0543    0.0000 H   0  0  0  0  0  0  0  0  0  0  0  0
   -1.3524    4.9843    0.0000 H   0  0  0  0  0  0  0  0  0  0  0  0
   -0.3150   -3.2468    0.0000 H   0  0  0  0  0  0  0  0  0  0  0  0
    2.9013   -3.2468    0.0000 H   0  0  0  0  0  0  0  0  0  0  0  0
    1.2932   -0.4612    0.0000 H   0  0  0  0  0  0  0  0  0  0  0  0
  1 17  1  0  0  0  0
  1 23  1  0  0  0  0
  2 31  1  0  0  0  0
  3 41  1  0  0  0  0
  4 42  1  0  0  0  0
  5 43  1  0  0  0  0
  6 26  1  0  0  0  0
  6 44  1  0  0  0  0
  7 34  2  0  0  0  0
  8 14  1  0  0  0  0
  9 14  2  0  0  0  0
 10 19  1  0  0  0  0
 10 20  1  0  0  0  0
 10 24  1  0  0  0  0
 11 21  1  0  0  0  0
 11 22  1  0  0  0  0
 11 25  1  0  0  0  0
 12 29  1  0  0  0  0
 12 34  1  0  0  0  0
 12 38  1  0  0  0  0
 13 30  1  0  0  0  0
 13 39  1  0  0  0  0
 13 40  1  0  0  0  0
 14 36  1  0  0  0  0
 15  3  1  0  0  0  0
 15 16  1  0  0  0  0
 15 17  1  0  0  0  0
 15 45  1  6  0  0  0
 16  4  1  0  0  0  0
 16 18  1  0  0  0  0
 16 46  1  6  0  0  0
 17 26  1  0  0  0  0
 17 47  1  6  0  0  0
 18  5  1  0  0  0  0
 18 23  1  0  0  0  0
 18 48  1  1  0  0  0
 19 21  1  0  0  0  0
 19 49  1  0  0  0  0
 19 50  1  0  0  0  0
 20 22  1  0  0  0  0
 20 51  1  0  0  0  0
 20 52  1  0  0  0  0
 21 53  1  0  0  0  0
 21 54  1  0  0  0  0
 22 55  1  0  0  0  0
 22 56  1  0  0  0  0
 23  2  1  0  0  0  0
 23 57  1  6  0  0  0
 24 27  1  0  0  0  0
 24 58  1  0  0  0  0
 24 59  1  0  0  0  0
 25 28  1  0  0  0  0
 25 60  1  0  0  0  0
 25 61  1  0  0  0  0
 26 62  1  0  0  0  0
 26 63  1  0  0  0  0
 27 29  1  0  0  0  0
 27 64  1  0  0  0  0
 27 65  1  0  0  0  0
 28 30  1  0  0  0  0
 28 66  1  0  0  0  0
 28 67  1  0  0  0  0
 29 68  1  0  0  0  0
 29 69  1  0  0  0  0
 30 70  1  0  0  0  0
 30 71  1  0  0  0  0
 31 32  2  0  0  0  0
 31 35  1  0  0  0  0
 32 33  1  0  0  0  0
 32 72  1  0  0  0  0
 33 34  1  0  0  0  0
 33 37  2  0  0  0  0
 35 36  2  0  0  0  0
 35 73  1  0  0  0  0
 36 37  1  0  0  0  0
 37 74  1  0  0  0  0
M  CHG  2   8  -1  14   1
M  END
>  <DRUGBANK_ID>
DB04073

>  <SECONDARY_ACCESSION_NUMBERS>
EXPT00043

>  <COMMON_NAME>
N-{3-[4-(3-amino-propyl)-piperazin-1-yl]-propyl}-3-nitro-5-(galactopyranosyl)-beta-benzamide

$$$$
