
 OpenBabel10282417072D

 44 43  0  0  0  0  0  0  0  0999 V2000
    0.3572   -1.4437    0.0000 S   0  0  0  0  0  0  0  0  0  0  0  0
   -0.3572   -1.0312    0.0000 O   0  0  0  0  0  0  0  0  0  0  0  0
    1.7862    1.0312    0.0000 O   0  0  0  0  0  0  0  0  0  0  0  0
   -4.6441   -0.2062    0.0000 O   0  0  0  0  0  0  0  0  0  0  0  0
   -3.9296    1.0312    0.0000 O   0  0  0  0  0  0  0  0  0  0  0  0
    4.6441    0.2062    0.0000 O   0  0  0  0  0  0  0  0  0  0  0  0
    3.9296   -1.0312    0.0000 O   0  0  0  0  0  0  0  0  0  0  0  0
    0.3572    0.2062    0.0000 N   0  0  0  0  0  0  0  0  0  0  0  0
    2.5007   -0.2062    0.0000 N   0  0  0  0  0  0  0  0  0  0  0  0
   -3.2151   -1.0312    0.0000 N   0  0  0  0  0  0  0  0  0  0  0  0
   -1.7862   -0.2062    0.0000 C   0  0  0  0  0  0  0  0  0  0  0  0
   -2.5007    0.2062    0.0000 C   0  0  0  0  0  0  0  0  0  0  0  0
   -1.0716    0.2062    0.0000 C   0  0  0  0  0  0  0  0  0  0  0  0
    1.0716   -0.2062    0.0000 C   0  0  1  0  0  0  0  0  0  0  0  0
   -3.2151   -0.2062    0.0000 C   0  0  1  0  0  0  0  0  0  0  0  0
   -0.3572   -0.2062    0.0000 C   0  0  0  0  0  0  0  0  0  0  0  0
    1.0716   -1.0312    0.0000 C   0  0  0  0  0  0  0  0  0  0  0  0
    1.7862    0.2062    0.0000 C   0  0  0  0  0  0  0  0  0  0  0  0
   -3.9296    0.2062    0.0000 C   0  0  0  0  0  0  0  0  0  0  0  0
    3.2151    0.2062    0.0000 C   0  0  2  0  0  0  0  0  0  0  0  0
    3.2151    1.0312    0.0000 C   0  0  0  0  0  0  0  0  0  0  0  0
    3.9296   -0.2062    0.0000 C   0  0  0  0  0  0  0  0  0  0  0  0
    3.9296    1.4437    0.0000 C   0  0  0  0  0  0  0  0  0  0  0  0
    0.3572    0.7177    0.0000 H   0  0  0  0  0  0  0  0  0  0  0  0
    2.5007   -0.7177    0.0000 H   0  0  0  0  0  0  0  0  0  0  0  0
   -2.7722   -1.2870    0.0000 H   0  0  0  0  0  0  0  0  0  0  0  0
   -3.6581   -1.2870    0.0000 H   0  0  0  0  0  0  0  0  0  0  0  0
   -0.8206   -0.7638    0.0000 H   0  0  0  0  0  0  0  0  0  0  0  0
   -5.4555    0.2624    0.0000 H   0  0  0  0  0  0  0  0  0  0  0  0
    5.4555   -0.2624    0.0000 H   0  0  0  0  0  0  0  0  0  0  0  0
   -1.7862   -1.2762    0.0000 H   0  0  0  0  0  0  0  0  0  0  0  0
   -0.8596   -0.7413    0.0000 H   0  0  0  0  0  0  0  0  0  0  0  0
   -2.5007    1.2762    0.0000 H   0  0  0  0  0  0  0  0  0  0  0  0
   -3.4273    0.7412    0.0000 H   0  0  0  0  0  0  0  0  0  0  0  0
   -1.0715    1.2762    0.0000 H   0  0  0  0  0  0  0  0  0  0  0  0
   -0.1450    0.7412    0.0000 H   0  0  0  0  0  0  0  0  0  0  0  0
    0.1450   -0.7412    0.0000 H   0  0  0  0  0  0  0  0  0  0  0  0
   -2.2885   -0.7412    0.0000 H   0  0  0  0  0  0  0  0  0  0  0  0
    1.9983   -1.5662    0.0000 H   0  0  0  0  0  0  0  0  0  0  0  0
    1.9982   -0.4962    0.0000 H   0  0  0  0  0  0  0  0  0  0  0  0
    2.2885    0.7412    0.0000 H   0  0  0  0  0  0  0  0  0  0  0  0
    2.3214    1.5472    0.0000 H   0  0  0  0  0  0  0  0  0  0  0  0
    4.8233    0.9277    0.0000 H   0  0  0  0  0  0  0  0  0  0  0  0
    3.9296    2.4757    0.0000 H   0  0  0  0  0  0  0  0  0  0  0  0
  1 17  1  0  0  0  0
  1 28  1  0  0  0  0
  2 16  2  0  0  0  0
  3 18  2  0  0  0  0
  4 19  1  0  0  0  0
  4 29  1  0  0  0  0
  5 19  2  0  0  0  0
  6 22  1  0  0  0  0
  6 30  1  0  0  0  0
  7 22  2  0  0  0  0
  8 16  1  0  0  0  0
  8 24  1  0  0  0  0
  9 18  1  0  0  0  0
  9 25  1  0  0  0  0
 10 26  1  0  0  0  0
 10 27  1  0  0  0  0
 11 12  1  0  0  0  0
 11 13  1  0  0  0  0
 11 31  1  0  0  0  0
 11 32  1  0  0  0  0
 12 15  1  0  0  0  0
 12 33  1  0  0  0  0
 12 34  1  0  0  0  0
 13 16  1  0  0  0  0
 13 35  1  0  0  0  0
 13 36  1  0  0  0  0
 14  8  1  0  0  0  0
 14 17  1  0  0  0  0
 14 18  1  0  0  0  0
 14 37  1  1  0  0  0
 15 10  1  0  0  0  0
 15 19  1  0  0  0  0
 15 38  1  1  0  0  0
 17 39  1  0  0  0  0
 17 40  1  0  0  0  0
 20  9  1  0  0  0  0
 20 21  1  0  0  0  0
 20 22  1  0  0  0  0
 20 41  1  1  0  0  0
 21 23  2  0  0  0  0
 21 42  1  0  0  0  0
 23 43  1  0  0  0  0
 23 44  1  0  0  0  0
M  END
>  <DRUGBANK_ID>
DB03427

>  <SECONDARY_ACCESSION_NUMBERS>
EXPT00577

>  <COMMON_NAME>
delta-(L-alpha-Aminoadipoyl)-L-cysteinyl-D-vinylglycine

$$$$
