
 OpenBabel10282417072D

 44 47  0  0  0  0  0  0  0  0999 V2000
    0.7058   -0.8250    0.0000 C   0  0  0  0  0  0  0  0  0  0  0  0
    1.4204   -0.4125    0.0000 N   0  0  0  0  0  0  0  0  0  0  0  0
    0.7058   -1.6500    0.0000 C   0  0  0  0  0  0  0  0  0  0  0  0
   -0.0085   -0.4125    0.0000 N   0  0  0  0  0  0  0  0  0  0  0  0
    1.4204    0.4125    0.0000 C   0  0  0  0  0  0  0  0  0  0  0  0
    2.1347   -0.8250    0.0000 C   0  0  0  0  0  0  0  0  0  0  0  0
    1.4204   -2.0625    0.0000 C   0  0  0  0  0  0  0  0  0  0  0  0
   -0.0085   -2.0625    0.0000 C   0  0  0  0  0  0  0  0  0  0  0  0
   -0.7231   -0.8250    0.0000 C   0  0  0  0  0  0  0  0  0  0  0  0
    0.7058    0.8250    0.0000 C   0  0  0  0  0  0  0  0  0  0  0  0
    2.1347    0.8250    0.0000 C   0  0  0  0  0  0  0  0  0  0  0  0
    2.1347   -1.6500    0.0000 C   0  0  0  0  0  0  0  0  0  0  0  0
    1.4204   -2.8874    0.0000 O   0  0  0  0  0  0  0  0  0  0  0  0
   -0.7231   -1.6500    0.0000 C   0  0  0  0  0  0  0  0  0  0  0  0
   -1.4376   -0.4125    0.0000 N   0  0  0  0  0  0  0  0  0  0  0  0
    0.7058    1.6500    0.0000 C   0  0  0  0  0  0  0  0  0  0  0  0
   -0.0085    0.4125    0.0000 F   0  0  0  0  0  0  0  0  0  0  0  0
    2.1347    1.6500    0.0000 C   0  0  0  0  0  0  0  0  0  0  0  0
    2.8493   -2.0625    0.0000 C   0  0  0  0  0  0  0  0  0  0  0  0
   -1.4375   -2.0625    0.0000 F   0  0  0  0  0  0  0  0  0  0  0  0
   -2.1912   -0.7479    0.0000 C   0  0  0  0  0  0  0  0  0  0  0  0
   -1.5238    0.4080    0.0000 C   0  0  0  0  0  0  0  0  0  0  0  0
    1.4204    2.0625    0.0000 C   0  0  0  0  0  0  0  0  0  0  0  0
    2.8493   -2.8874    0.0000 O   0  0  0  0  0  0  0  0  0  0  0  0
    3.5638   -1.6500    0.0000 O   0  0  0  0  0  0  0  0  0  0  0  0
   -2.7433   -0.1349    0.0000 C   0  0  3  0  0  0  0  0  0  0  0  0
   -2.3307    0.5795    0.0000 C   0  0  0  0  0  0  0  0  0  0  0  0
    1.4204    2.8875    0.0000 F   0  0  0  0  0  0  0  0  0  0  0  0
   -3.5638   -0.2211    0.0000 N   0  0  0  0  0  0  0  0  0  0  0  0
    3.0285   -0.3090    0.0000 H   0  0  0  0  0  0  0  0  0  0  0  0
   -0.0084   -3.0945    0.0000 H   0  0  0  0  0  0  0  0  0  0  0  0
    3.0285    0.3090    0.0000 H   0  0  0  0  0  0  0  0  0  0  0  0
   -0.1879    2.1660    0.0000 H   0  0  0  0  0  0  0  0  0  0  0  0
    3.0285    2.1660    0.0000 H   0  0  0  0  0  0  0  0  0  0  0  0
   -2.4137   -1.7945    0.0000 H   0  0  0  0  0  0  0  0  0  0  0  0
   -3.2247   -1.0249    0.0000 H   0  0  0  0  0  0  0  0  0  0  0  0
   -0.7286    1.1240    0.0000 H   0  0  0  0  0  0  0  0  0  0  0  0
   -1.8007    1.4415    0.0000 H   0  0  0  0  0  0  0  0  0  0  0  0
    2.0378   -3.3559    0.0000 H   0  0  0  0  0  0  0  0  0  0  0  0
   -3.1267   -1.1338    0.0000 H   0  0  0  0  0  0  0  0  0  0  0  0
   -2.7658    1.5570    0.0000 H   0  0  0  0  0  0  0  0  0  0  0  0
   -3.3992    0.6356    0.0000 H   0  0  0  0  0  0  0  0  0  0  0  0
   -4.1633    0.6041    0.0000 H   0  0  0  0  0  0  0  0  0  0  0  0
   -3.9787   -1.1529    0.0000 H   0  0  0  0  0  0  0  0  0  0  0  0
  1  2  1  0  0  0  0
  1  3  2  0  0  0  0
  1  4  1  0  0  0  0
  2  5  1  0  0  0  0
  2  6  1  0  0  0  0
  3  7  1  0  0  0  0
  3  8  1  0  0  0  0
  4  9  2  0  0  0  0
  5 10  1  0  0  0  0
  5 11  2  0  0  0  0
  6 12  2  0  0  0  0
  6 30  1  0  0  0  0
  7 13  2  0  0  0  0
  7 12  1  0  0  0  0
  8 14  2  0  0  0  0
  8 31  1  0  0  0  0
  9 15  1  0  0  0  0
  9 14  1  0  0  0  0
 10 16  2  0  0  0  0
 10 17  1  0  0  0  0
 11 18  1  0  0  0  0
 11 32  1  0  0  0  0
 12 19  1  0  0  0  0
 14 20  1  0  0  0  0
 15 21  1  0  0  0  0
 15 22  1  0  0  0  0
 16 23  1  0  0  0  0
 16 33  1  0  0  0  0
 18 23  2  0  0  0  0
 18 34  1  0  0  0  0
 19 24  1  0  0  0  0
 19 25  2  0  0  0  0
 21 26  1  0  0  0  0
 21 35  1  0  0  0  0
 21 36  1  0  0  0  0
 22 27  1  0  0  0  0
 22 37  1  0  0  0  0
 22 38  1  0  0  0  0
 23 28  1  0  0  0  0
 24 39  1  0  0  0  0
 26 29  1  0  0  0  0
 26 27  1  0  0  0  0
 26 40  1  0  0  0  0
 27 41  1  0  0  0  0
 27 42  1  0  0  0  0
 29 43  1  0  0  0  0
 29 44  1  0  0  0  0
M  END
>  <DRUGBANK_ID>
DB16850

>  <COMMON_NAME>
Tosufloxacin

>  <CAS_NUMBER>
100490-36-6

>  <UNII>
GHJ553KQPS

>  <SYNONYMS>
Tosufloxacin

$$$$
