
 OpenBabel10282417072D

 33 35  0  0  1  0  0  0  0  0999 V2000
   -3.4914   -0.1105    0.0000 N   0  0  0  0  0  0  0  0  0  0  0  0
   -3.0789    0.6039    0.0000 C   0  0  1  0  0  0  0  0  0  0  0  0
   -2.2539    0.6039    0.0000 C   0  0  0  0  0  0  0  0  0  0  0  0
   -1.8414   -0.1105    0.0000 C   0  0  0  0  0  0  0  0  0  0  0  0
   -2.2539   -0.8250    0.0000 C   0  0  0  0  0  0  0  0  0  0  0  0
   -1.8414   -1.5395    0.0000 C   0  0  0  0  0  0  0  0  0  0  0  0
   -1.0164   -1.5395    0.0000 C   0  0  0  0  0  0  0  0  0  0  0  0
   -0.6039   -2.2539    0.0000 C   0  0  0  0  0  0  0  0  0  0  0  0
    0.2211   -2.2539    0.0000 C   0  0  0  0  0  0  0  0  0  0  0  0
    0.6336   -1.5395    0.0000 C   0  0  0  0  0  0  0  0  0  0  0  0
    0.2211   -0.8250    0.0000 C   0  0  0  0  0  0  0  0  0  0  0  0
    0.6336   -0.1105    0.0000 N   0  0  0  0  0  0  0  0  0  0  0  0
    1.4586   -0.1105    0.0000 C   0  0  0  0  0  0  0  0  0  0  0  0
    1.8711   -0.8250    0.0000 C   0  0  0  0  0  0  0  0  0  0  0  0
    1.4586   -1.5395    0.0000 C   0  0  0  0  0  0  0  0  0  0  0  0
   -0.6039   -0.8250    0.0000 C   0  0  0  0  0  0  0  0  0  0  0  0
   -1.0164   -0.1105    0.0000 N   0  0  0  0  0  0  0  0  0  0  0  0
   -3.4914    1.3184    0.0000 C   0  0  0  0  0  0  0  0  0  0  0  0
   -4.3164    1.3184    0.0000 O   0  0  0  0  0  0  0  0  0  0  0  0
   -3.0789    2.0329    0.0000 O   0  0  0  0  0  0  0  0  0  0  0  0
   -4.5114   -0.1105    0.0000 H   0  0  0  0  0  0  0  0  0  0  0  0
   -2.9814   -0.9939    0.0000 H   0  0  0  0  0  0  0  0  0  0  0  0
   -2.5439   -0.3228    0.0000 H   0  0  0  0  0  0  0  0  0  0  0  0
   -1.7189    1.5306    0.0000 H   0  0  0  0  0  0  0  0  0  0  0  0
   -1.1839    0.6039    0.0000 H   0  0  0  0  0  0  0  0  0  0  0  0
   -3.2859   -0.8250    0.0000 H   0  0  0  0  0  0  0  0  0  0  0  0
   -2.3574   -2.4332    0.0000 H   0  0  0  0  0  0  0  0  0  0  0  0
   -1.1199   -3.1476    0.0000 H   0  0  0  0  0  0  0  0  0  0  0  0
    0.7371   -3.1476    0.0000 H   0  0  0  0  0  0  0  0  0  0  0  0
    1.9746    0.7832    0.0000 H   0  0  0  0  0  0  0  0  0  0  0  0
    2.9031   -0.8250    0.0000 H   0  0  0  0  0  0  0  0  0  0  0  0
    1.9746   -2.4332    0.0000 H   0  0  0  0  0  0  0  0  0  0  0  0
   -4.7849    2.1299    0.0000 H   0  0  0  0  0  0  0  0  0  0  0  0
  1 21  1  0  0  0  0
  1 22  1  0  0  0  0
  2  1  1  0  0  0  0
  2  3  1  0  0  0  0
  2 18  1  0  0  0  0
  2 23  1  1  0  0  0
  3  4  1  0  0  0  0
  3 24  1  0  0  0  0
  3 25  1  0  0  0  0
  4  5  2  0  0  0  0
  4 17  1  0  0  0  0
  5  6  1  0  0  0  0
  5 26  1  0  0  0  0
  6  7  2  0  0  0  0
  6 27  1  0  0  0  0
  7  8  1  0  0  0  0
  7 16  1  0  0  0  0
  8  9  2  0  0  0  0
  8 28  1  0  0  0  0
  9 10  1  0  0  0  0
  9 29  1  0  0  0  0
 10 11  2  0  0  0  0
 10 15  1  0  0  0  0
 11 12  1  0  0  0  0
 11 16  1  0  0  0  0
 12 13  2  0  0  0  0
 13 14  1  0  0  0  0
 13 30  1  0  0  0  0
 14 15  2  0  0  0  0
 14 31  1  0  0  0  0
 15 32  1  0  0  0  0
 16 17  2  0  0  0  0
 18 19  1  0  0  0  0
 18 20  2  0  0  0  0
 19 33  1  0  0  0  0
M  END
>  <DRUGBANK_ID>
DB01659

>  <SECONDARY_ACCESSION_NUMBERS>
EXPT02716

>  <COMMON_NAME>
3-(1,10-Phenanthrol-2-Yl)-L-Alanine

$$$$
