
 OpenBabel10282417072D

 41 43  0  0  1  0  0  0  0  0999 V2000
   -2.5474    0.0470    0.0000 C   0  0  0  0  0  0  0  0  0  0  0  0
   -1.7224    0.0470    0.0000 O   0  0  0  0  0  0  0  0  0  0  0  0
   -1.3099   -0.6674    0.0000 C   0  0  0  0  0  0  0  0  0  0  0  0
   -0.4849   -0.6674    0.0000 C   0  0  0  0  0  0  0  0  0  0  0  0
   -0.0000   -1.3349    0.0000 N   0  0  0  0  0  0  0  0  0  0  0  0
    0.7846   -1.0799    0.0000 N   0  0  0  0  0  0  0  0  0  0  0  0
    0.7846   -0.2549    0.0000 C   0  0  0  0  0  0  0  0  0  0  0  0
   -0.0000    0.0000    0.0000 S   0  0  0  0  0  0  0  0  0  0  0  0
    1.5692    0.0000    0.0000 N   0  0  0  0  0  0  0  0  0  0  0  0
    2.0542   -0.6674    0.0000 C   0  0  0  0  0  0  0  0  0  0  0  0
    1.5692   -1.3349    0.0000 C   0  0  0  0  0  0  0  0  0  0  0  0
    1.8242   -2.1195    0.0000 C   0  0  0  0  0  0  0  0  0  0  0  0
    1.2721   -2.7326    0.0000 N   0  0  0  0  0  0  0  0  0  0  0  0
    1.4437   -3.5396    0.0000 C   0  0  0  0  0  0  0  0  0  0  0  0
    0.7292   -3.9521    0.0000 C   0  0  1  0  0  0  0  0  0  0  0  0
    0.6430   -4.7725    0.0000 C   0  0  0  0  0  0  0  0  0  0  0  0
    1.3104   -5.2575    0.0000 C   0  0  0  0  0  0  0  0  0  0  0  0
    1.9778   -5.7424    0.0000 F   0  0  0  0  0  0  0  0  0  0  0  0
    0.8255   -5.9249    0.0000 F   0  0  0  0  0  0  0  0  0  0  0  0
    1.7953   -4.5900    0.0000 Cl  0  0  0  0  0  0  0  0  0  0  0  0
    0.1161   -3.4000    0.0000 C   0  0  0  0  0  0  0  0  0  0  0  0
    0.4517   -2.6464    0.0000 C   0  0  0  0  0  0  0  0  0  0  0  0
    0.0392   -1.9319    0.0000 O   0  0  0  0  0  0  0  0  0  0  0  0
    2.8792   -0.6674    0.0000 C   0  0  0  0  0  0  0  0  0  0  0  0
    3.7042   -0.6674    0.0000 F   0  0  0  0  0  0  0  0  0  0  0  0
    2.8792   -1.4924    0.0000 F   0  0  0  0  0  0  0  0  0  0  0  0
    2.8792    0.1576    0.0000 F   0  0  0  0  0  0  0  0  0  0  0  0
   -3.0824    0.9736    0.0000 H   0  0  0  0  0  0  0  0  0  0  0  0
   -3.0824   -0.8796    0.0000 H   0  0  0  0  0  0  0  0  0  0  0  0
   -3.6174    0.0470    0.0000 H   0  0  0  0  0  0  0  0  0  0  0  0
   -1.8449   -1.5941    0.0000 H   0  0  0  0  0  0  0  0  0  0  0  0
   -0.7749   -1.5940    0.0000 H   0  0  0  0  0  0  0  0  0  0  0  0
    2.8708   -2.3420    0.0000 H   0  0  0  0  0  0  0  0  0  0  0  0
    2.1548   -3.1371    0.0000 H   0  0  0  0  0  0  0  0  0  0  0  0
    2.4212   -3.9748    0.0000 H   0  0  0  0  0  0  0  0  0  0  0  0
    1.4997   -4.6081    0.0000 H   0  0  0  0  0  0  0  0  0  0  0  0
    1.6266   -4.5349    0.0000 H   0  0  0  0  0  0  0  0  0  0  0  0
   -0.3345   -5.2077    0.0000 H   0  0  0  0  0  0  0  0  0  0  0  0
    0.5311   -5.8366    0.0000 H   0  0  0  0  0  0  0  0  0  0  0  0
   -0.9305   -3.6224    0.0000 H   0  0  0  0  0  0  0  0  0  0  0  0
   -0.5572   -2.5684    0.0000 H   0  0  0  0  0  0  0  0  0  0  0  0
  1  2  1  0  0  0  0
  1 28  1  0  0  0  0
  1 29  1  0  0  0  0
  1 30  1  0  0  0  0
  2  3  1  0  0  0  0
  3  4  1  0  0  0  0
  3 31  1  0  0  0  0
  3 32  1  0  0  0  0
  4  5  2  0  0  0  0
  4  8  1  0  0  0  0
  5  6  1  0  0  0  0
  6  7  1  0  0  0  0
  6 11  1  0  0  0  0
  7  8  1  0  0  0  0
  7  9  2  0  0  0  0
  9 10  1  0  0  0  0
 10 11  2  0  0  0  0
 10 24  1  0  0  0  0
 11 12  1  0  0  0  0
 12 13  1  0  0  0  0
 12 33  1  0  0  0  0
 12 34  1  0  0  0  0
 13 14  1  0  0  0  0
 13 22  1  0  0  0  0
 14 35  1  0  0  0  0
 14 36  1  0  0  0  0
 15 14  1  0  0  0  0
 15 16  1  0  0  0  0
 15 21  1  0  0  0  0
 15 37  1  6  0  0  0
 16 17  1  0  0  0  0
 16 38  1  0  0  0  0
 16 39  1  0  0  0  0
 17 18  1  0  0  0  0
 17 19  1  0  0  0  0
 17 20  1  0  0  0  0
 21 22  1  0  0  0  0
 21 40  1  0  0  0  0
 21 41  1  0  0  0  0
 22 23  2  0  0  0  0
 24 25  1  0  0  0  0
 24 26  1  0  0  0  0
 24 27  1  0  0  0  0
M  END
>  <DRUGBANK_ID>
DB14977

>  <COMMON_NAME>
Padsevonil

>  <CAS_NUMBER>
1294000-61-5

>  <UNII>
0R1HN52K0N

>  <SYNONYMS>
Padsevonil

$$$$
