238
 OpenBabel10282417072D

 34 37  0  0  0  0  0  0  0  0999 V2000
    4.7984    2.0448    0.0000 O   0  0  0  0  0  0  0  0  0  0  0  0
    4.0281   -0.5055    0.0000 N   0  0  0  0  0  0  0  0  0  0  0  0
    3.6156    1.3017    0.0000 N   0  0  0  0  0  0  0  0  0  0  0  0
    2.6640   -0.7417    0.0000 N   0  0  0  0  0  0  0  0  0  0  0  0
    5.3921   -0.7417    0.0000 N   0  0  0  0  0  0  0  0  0  0  0  0
    4.0281   -1.3305    0.0000 C   0  0  0  0  0  0  0  0  0  0  0  0
    3.6156   -2.0448    0.0000 C   0  0  0  0  0  0  0  0  0  0  0  0
    4.4406   -2.0448    0.0000 C   0  0  0  0  0  0  0  0  0  0  0  0
    3.2849   -0.1476    0.0000 C   0  0  0  0  0  0  0  0  0  0  0  0
    4.7713   -0.1476    0.0000 C   0  0  0  0  0  0  0  0  0  0  0  0
    3.1013    0.6566    0.0000 C   0  0  0  0  0  0  0  0  0  0  0  0
    4.9549    0.6566    0.0000 C   0  0  0  0  0  0  0  0  0  0  0  0
    2.2842    0.9226    0.0000 C   0  0  0  0  0  0  0  0  0  0  0  0
    4.4406    1.3017    0.0000 C   0  0  0  0  0  0  0  0  0  0  0  0
    5.7719    0.9225    0.0000 C   0  0  0  0  0  0  0  0  0  0  0  0
    1.6498    0.3430    0.0000 C   0  0  0  0  0  0  0  0  0  0  0  0
    1.8410   -0.4948    0.0000 C   0  0  0  0  0  0  0  0  0  0  0  0
    6.2151   -0.4948    0.0000 C   0  0  0  0  0  0  0  0  0  0  0  0
    2.1100    1.7288    0.0000 C   0  0  0  0  0  0  0  0  0  0  0  0
    6.4064    0.3430    0.0000 C   0  0  0  0  0  0  0  0  0  0  0  0
    3.1884    2.1887    0.0000 H   0  0  0  0  0  0  0  0  0  0  0  0
    4.0281   -2.4005    0.0000 H   0  0  0  0  0  0  0  0  0  0  0  0
    2.6889   -2.5798    0.0000 H   0  0  0  0  0  0  0  0  0  0  0  0
    3.8925   -3.0783    0.0000 H   0  0  0  0  0  0  0  0  0  0  0  0
    5.3673   -2.5798    0.0000 H   0  0  0  0  0  0  0  0  0  0  0  0
    4.1637   -3.0783    0.0000 H   0  0  0  0  0  0  0  0  0  0  0  0
    5.9898    1.9312    0.0000 H   0  0  0  0  0  0  0  0  0  0  0  0
    0.6648    0.6510    0.0000 H   0  0  0  0  0  0  0  0  0  0  0  0
    1.0872   -1.1997    0.0000 H   0  0  0  0  0  0  0  0  0  0  0  0
    6.9689   -1.1997    0.0000 H   0  0  0  0  0  0  0  0  0  0  0  0
    2.9028    2.4474    0.0000 H   0  0  0  0  0  0  0  0  0  0  0  0
    1.0913    2.0560    0.0000 H   0  0  0  0  0  0  0  0  0  0  0  0
    1.8840    2.7747    0.0000 H   0  0  0  0  0  0  0  0  0  0  0  0
    7.3914    0.6510    0.0000 H   0  0  0  0  0  0  0  0  0  0  0  0
  1 14  2  0  0  0  0
  2  6  1  0  0  0  0
  2  9  1  0  0  0  0
  2 10  1  0  0  0  0
  3 11  1  0  0  0  0
  3 14  1  0  0  0  0
  3 21  1  0  0  0  0
  4  9  2  0  0  0  0
  4 17  1  0  0  0  0
  5 10  1  0  0  0  0
  5 18  2  0  0  0  0
  6  7  1  0  0  0  0
  6  8  1  0  0  0  0
  6 22  1  0  0  0  0
  7  8  1  0  0  0  0
  7 23  1  0  0  0  0
  7 24  1  0  0  0  0
  8 25  1  0  0  0  0
  8 26  1  0  0  0  0
  9 11  1  0  0  0  0
 10 12  2  0  0  0  0
 11 13  2  0  0  0  0
 12 14  1  0  0  0  0
 12 15  1  0  0  0  0
 13 16  1  0  0  0  0
 13 19  1  0  0  0  0
 15 20  2  0  0  0  0
 15 27  1  0  0  0  0
 16 17  2  0  0  0  0
 16 28  1  0  0  0  0
 17 29  1  0  0  0  0
 18 20  1  0  0  0  0
 18 30  1  0  0  0  0
 19 31  1  0  0  0  0
 19 32  1  0  0  0  0
 19 33  1  0  0  0  0
 20 34  1  0  0  0  0
M  END
>  <DRUGBANK_ID>
DB00238

>  <SECONDARY_ACCESSION_NUMBERS>
APRD00705; DB08311

>  <COMMON_NAME>
Nevirapine

>  <CAS_NUMBER>
129618-40-2

>  <UNII>
99DK7FVK1H

>  <SYNONYMS>
11-cyclopropyl-5,11-dihydro-4-methyl-6H-dipyrido(3,2-b:2',3'-e)(1,4)diazepin-6-one; NEV; Nevirapina; Nevirapine; Nevirapine anhydrous; Nevirapine, anhydrous; NVP

$$$$
