980
 OpenBabel10282417072D

 40 42  0  0  1  0  0  0  0  0999 V2000
    2.1316    3.1623    0.0000 O   0  0  0  0  0  0  0  0  0  0  0  0
    4.0172   -2.0952    0.0000 O   0  0  0  0  0  0  0  0  0  0  0  0
    2.9536   -1.1408    0.0000 N   0  0  0  0  0  0  0  0  0  0  0  0
    3.7993    0.8714    0.0000 C   0  0  1  0  0  0  0  0  0  0  0  0
    3.6267    1.6732    0.0000 C   0  0  0  0  0  0  0  0  0  0  0  0
    4.6149    0.7865    0.0000 C   0  0  0  0  0  0  0  0  0  0  0  0
    4.9492    1.5354    0.0000 C   0  0  0  0  0  0  0  0  0  0  0  0
    4.3412    2.0857    0.0000 C   0  0  0  0  0  0  0  0  0  0  0  0
    3.2482    0.2574    0.0000 C   0  0  0  0  0  0  0  0  0  0  0  0
    2.9121    2.0857    0.0000 C   0  0  0  0  0  0  0  0  0  0  0  0
    2.1316    1.8343    0.0000 C   0  0  0  0  0  0  0  0  0  0  0  0
    2.9121    2.9107    0.0000 C   0  0  0  0  0  0  0  0  0  0  0  0
    4.3412    2.9107    0.0000 C   0  0  0  0  0  0  0  0  0  0  0  0
    3.5046   -0.5268    0.0000 C   0  0  0  0  0  0  0  0  0  0  0  0
    1.6500    2.4982    0.0000 C   0  0  0  0  0  0  0  0  0  0  0  0
    3.6267    3.3233    0.0000 C   0  0  0  0  0  0  0  0  0  0  0  0
    3.2099   -1.9250    0.0000 C   0  0  0  0  0  0  0  0  0  0  0  0
    2.6589   -2.5390    0.0000 C   0  0  0  0  0  0  0  0  0  0  0  0
    2.9152   -3.3233    0.0000 C   0  0  0  0  0  0  0  0  0  0  0  0
    1.9903   -0.9377    0.0000 H   0  0  0  0  0  0  0  0  0  0  0  0
    2.7652    1.1462    0.0000 H   0  0  0  0  0  0  0  0  0  0  0  0
    5.1499   -0.1401    0.0000 H   0  0  0  0  0  0  0  0  0  0  0  0
    5.6835    0.8420    0.0000 H   0  0  0  0  0  0  0  0  0  0  0  0
    5.9962    1.7560    0.0000 H   0  0  0  0  0  0  0  0  0  0  0  0
    5.2284    2.5683    0.0000 H   0  0  0  0  0  0  0  0  0  0  0  0
    2.2012    0.4781    0.0000 H   0  0  0  0  0  0  0  0  0  0  0  0
    2.5336   -0.5390    0.0000 H   0  0  0  0  0  0  0  0  0  0  0  0
    1.7993    0.8172    0.0000 H   0  0  0  0  0  0  0  0  0  0  0  0
    1.0746    1.6682    0.0000 H   0  0  0  0  0  0  0  0  0  0  0  0
    5.2350    3.4267    0.0000 H   0  0  0  0  0  0  0  0  0  0  0  0
    4.5516   -0.7474    0.0000 H   0  0  0  0  0  0  0  0  0  0  0  0
    4.2191    0.2697    0.0000 H   0  0  0  0  0  0  0  0  0  0  0  0
    0.5800    2.4981    0.0000 H   0  0  0  0  0  0  0  0  0  0  0  0
    1.1639    1.5450    0.0000 H   0  0  0  0  0  0  0  0  0  0  0  0
    3.6267    4.3553    0.0000 H   0  0  0  0  0  0  0  0  0  0  0  0
    1.6119   -2.3183    0.0000 H   0  0  0  0  0  0  0  0  0  0  0  0
    1.9443   -3.3354    0.0000 H   0  0  0  0  0  0  0  0  0  0  0  0
    2.2006   -4.1197    0.0000 H   0  0  0  0  0  0  0  0  0  0  0  0
    3.9622   -3.5440    0.0000 H   0  0  0  0  0  0  0  0  0  0  0  0
    3.2476   -4.3404    0.0000 H   0  0  0  0  0  0  0  0  0  0  0  0
  1 12  1  0  0  0  0
  1 15  1  0  0  0  0
  2 17  2  0  0  0  0
  3 14  1  0  0  0  0
  3 17  1  0  0  0  0
  3 20  1  0  0  0  0
  4  5  1  0  0  0  0
  4  6  1  0  0  0  0
  4  9  1  0  0  0  0
  4 21  1  6  0  0  0
  5  8  2  0  0  0  0
  5 10  1  0  0  0  0
  6  7  1  0  0  0  0
  6 22  1  0  0  0  0
  6 23  1  0  0  0  0
  7  8  1  0  0  0  0
  7 24  1  0  0  0  0
  7 25  1  0  0  0  0
  8 13  1  0  0  0  0
  9 14  1  0  0  0  0
  9 26  1  0  0  0  0
  9 27  1  0  0  0  0
 10 11  1  0  0  0  0
 10 12  2  0  0  0  0
 11 15  1  0  0  0  0
 11 28  1  0  0  0  0
 11 29  1  0  0  0  0
 12 16  1  0  0  0  0
 13 16  2  0  0  0  0
 13 30  1  0  0  0  0
 14 31  1  0  0  0  0
 14 32  1  0  0  0  0
 15 33  1  0  0  0  0
 15 34  1  0  0  0  0
 16 35  1  0  0  0  0
 17 18  1  0  0  0  0
 18 19  1  0  0  0  0
 18 36  1  0  0  0  0
 18 37  1  0  0  0  0
 19 38  1  0  0  0  0
 19 39  1  0  0  0  0
 19 40  1  0  0  0  0
M  END
>  <DRUGBANK_ID>
DB00980

>  <SECONDARY_ACCESSION_NUMBERS>
APRD01213

>  <COMMON_NAME>
Ramelteon

>  <CAS_NUMBER>
196597-26-9

>  <UNII>
901AS54I69

>  <SYNONYMS>
Ramelteon

$$$$
