
 OpenBabel10282417072D

 50 52  0  0  1  0  0  0  0  0999 V2000
   -3.4935   -2.0596    0.0000 C   0  0  0  0  0  0  0  0  0  0  0  0
   -3.4935   -1.2346    0.0000 C   0  0  2  0  0  0  0  0  0  0  0  0
   -2.7791   -0.8221    0.0000 N   0  0  0  0  0  0  0  0  0  0  0  0
   -2.0646   -1.2346    0.0000 C   0  0  0  0  0  0  0  0  0  0  0  0
   -2.0646   -2.0596    0.0000 O   0  0  0  0  0  0  0  0  0  0  0  0
   -1.3501   -0.8221    0.0000 C   0  0  0  0  0  0  0  0  0  0  0  0
   -0.6357   -1.2346    0.0000 N   0  0  0  0  0  0  0  0  0  0  0  0
   -0.5494   -2.0551    0.0000 C   0  0  0  0  0  0  0  0  0  0  0  0
    0.2575   -2.2266    0.0000 N   0  0  0  0  0  0  0  0  0  0  0  0
    0.6700   -1.5121    0.0000 C   0  0  0  0  0  0  0  0  0  0  0  0
    0.1180   -0.8990    0.0000 C   0  0  0  0  0  0  0  0  0  0  0  0
    0.3730   -0.1144    0.0000 C   0  0  0  0  0  0  0  0  0  0  0  0
   -0.1791    0.4987    0.0000 F   0  0  0  0  0  0  0  0  0  0  0  0
    1.1799    0.0571    0.0000 C   0  0  0  0  0  0  0  0  0  0  0  0
    1.4349    0.8418    0.0000 F   0  0  0  0  0  0  0  0  0  0  0  0
    1.7320   -0.5560    0.0000 C   0  0  0  0  0  0  0  0  0  0  0  0
    1.4770   -1.3406    0.0000 C   0  0  0  0  0  0  0  0  0  0  0  0
   -4.2080   -0.8221    0.0000 C   0  0  0  0  0  0  0  0  0  0  0  0
   -4.9225   -1.2346    0.0000 C   0  0  0  0  0  0  0  0  0  0  0  0
   -5.6370   -0.8221    0.0000 C   0  0  0  0  0  0  0  0  0  0  0  0
   -5.6370    0.0029    0.0000 C   0  0  0  0  0  0  0  0  0  0  0  0
   -4.9225    0.4154    0.0000 C   0  0  0  0  0  0  0  0  0  0  0  0
   -4.2080    0.0029    0.0000 C   0  0  0  0  0  0  0  0  0  0  0  0
   -6.3514    0.4154    0.0000 C   0  0  0  0  0  0  0  0  0  0  0  0
   -7.0659    0.8279    0.0000 C   0  0  0  0  0  0  0  0  0  0  0  0
   -5.9389    1.1299    0.0000 C   0  0  0  0  0  0  0  0  0  0  0  0
   -6.7639   -0.2990    0.0000 C   0  0  0  0  0  0  0  0  0  0  0  0
   -4.4201   -2.5946    0.0000 H   0  0  0  0  0  0  0  0  0  0  0  0
   -2.5669   -2.5946    0.0000 H   0  0  0  0  0  0  0  0  0  0  0  0
   -3.4935   -3.1296    0.0000 H   0  0  0  0  0  0  0  0  0  0  0  0
   -2.5668   -1.7696    0.0000 H   0  0  0  0  0  0  0  0  0  0  0  0
   -2.7791    0.1624    0.0000 H   0  0  0  0  0  0  0  0  0  0  0  0
   -1.3501    0.2479    0.0000 H   0  0  0  0  0  0  0  0  0  0  0  0
   -0.4234   -0.2871    0.0000 H   0  0  0  0  0  0  0  0  0  0  0  0
   -1.3163   -2.7457    0.0000 H   0  0  0  0  0  0  0  0  0  0  0  0
    2.7415   -0.3414    0.0000 H   0  0  0  0  0  0  0  0  0  0  0  0
    2.1675   -2.1076    0.0000 H   0  0  0  0  0  0  0  0  0  0  0  0
   -4.9225   -2.2666    0.0000 H   0  0  0  0  0  0  0  0  0  0  0  0
   -6.5307   -1.3381    0.0000 H   0  0  0  0  0  0  0  0  0  0  0  0
   -4.9225    1.4474    0.0000 H   0  0  0  0  0  0  0  0  0  0  0  0
   -3.3143    0.5189    0.0000 H   0  0  0  0  0  0  0  0  0  0  0  0
   -7.0659    1.8979    0.0000 H   0  0  0  0  0  0  0  0  0  0  0  0
   -7.9925    0.2929    0.0000 H   0  0  0  0  0  0  0  0  0  0  0  0
   -7.9926    1.3629    0.0000 H   0  0  0  0  0  0  0  0  0  0  0  0
   -4.8689    1.1299    0.0000 H   0  0  0  0  0  0  0  0  0  0  0  0
   -6.4739    2.0565    0.0000 H   0  0  0  0  0  0  0  0  0  0  0  0
   -5.4039    2.0566    0.0000 H   0  0  0  0  0  0  0  0  0  0  0  0
   -7.8339   -0.2990    0.0000 H   0  0  0  0  0  0  0  0  0  0  0  0
   -6.2289   -1.2257    0.0000 H   0  0  0  0  0  0  0  0  0  0  0  0
   -7.2989   -1.2256    0.0000 H   0  0  0  0  0  0  0  0  0  0  0  0
  1 28  1  0  0  0  0
  1 29  1  0  0  0  0
  1 30  1  0  0  0  0
  2  1  1  0  0  0  0
  2  3  1  0  0  0  0
  2 18  1  0  0  0  0
  2 31  1  6  0  0  0
  3  4  1  0  0  0  0
  3 32  1  0  0  0  0
  4  5  2  0  0  0  0
  4  6  1  0  0  0  0
  6  7  1  0  0  0  0
  6 33  1  0  0  0  0
  6 34  1  0  0  0  0
  7  8  1  0  0  0  0
  7 11  1  0  0  0  0
  8  9  2  0  0  0  0
  8 35  1  0  0  0  0
  9 10  1  0  0  0  0
 10 11  2  0  0  0  0
 10 17  1  0  0  0  0
 11 12  1  0  0  0  0
 12 13  1  0  0  0  0
 12 14  2  0  0  0  0
 14 15  1  0  0  0  0
 14 16  1  0  0  0  0
 16 17  2  0  0  0  0
 16 36  1  0  0  0  0
 17 37  1  0  0  0  0
 18 19  2  0  0  0  0
 18 23  1  0  0  0  0
 19 20  1  0  0  0  0
 19 38  1  0  0  0  0
 20 21  2  0  0  0  0
 20 39  1  0  0  0  0
 21 22  1  0  0  0  0
 21 24  1  0  0  0  0
 22 23  2  0  0  0  0
 22 40  1  0  0  0  0
 23 41  1  0  0  0  0
 24 25  1  0  0  0  0
 24 26  1  0  0  0  0
 24 27  1  0  0  0  0
 25 42  1  0  0  0  0
 25 43  1  0  0  0  0
 25 44  1  0  0  0  0
 26 45  1  0  0  0  0
 26 46  1  0  0  0  0
 26 47  1  0  0  0  0
 27 48  1  0  0  0  0
 27 49  1  0  0  0  0
 27 50  1  0  0  0  0
M  END
>  <DRUGBANK_ID>
DB15333

>  <COMMON_NAME>
AZD-1386

>  <CAS_NUMBER>
942937-80-6

>  <UNII>
210323T9CP

$$$$
