
 OpenBabel10282417072D

108113  0  0  1  0  0  0  0  0999 V2000
   19.8000   -6.6747    0.0000 C   0  0  1  0  0  0  0  0  0  0  0  0
   19.8000   -7.5409    0.0000 C   0  0  2  0  0  0  0  0  0  0  0  0
   21.2437   -7.4997    0.0000 O   0  0  0  0  0  0  0  0  0  0  0  0
   21.2437   -6.6747    0.0000 C   0  0  2  0  0  0  0  0  0  0  0  0
   20.5012   -6.2622    0.0000 C   0  0  1  0  0  0  0  0  0  0  0  0
   22.6462   -6.6747    0.0000 C   0  0  0  0  0  0  0  0  0  0  0  0
   21.9450   -6.2622    0.0000 C   0  0  2  0  0  0  0  0  0  0  0  0
   23.3886   -7.9534    0.0000 C   0  0  0  0  0  0  0  0  0  0  0  0
   24.0898   -7.5409    0.0000 C   0  0  0  0  0  0  0  0  0  0  0  0
   24.0898   -6.6747    0.0000 C   0  0  0  0  0  0  0  0  0  0  0  0
   23.3886   -6.2622    0.0000 C   0  0  0  0  0  0  0  0  0  0  0  0
   21.9450   -5.4372    0.0000 C   0  0  0  0  0  0  0  0  0  0  0  0
   20.5012   -5.4372    0.0000 C   0  0  0  0  0  0  0  0  0  0  0  0
   19.0988   -6.2622    0.0000 O   0  0  0  0  0  0  0  0  0  0  0  0
   24.7911   -7.9534    0.0000 C   0  0  0  0  0  0  0  0  0  0  0  0
   22.6874   -7.5409    0.0000 O   0  0  0  0  0  0  0  0  0  0  0  0
   23.3886   -8.9434    0.0000 N   0  0  0  0  0  0  0  0  0  0  0  0
   19.0988   -7.9534    0.0000 C   0  0  2  0  0  0  0  0  0  0  0  0
   18.3975   -7.5409    0.0000 O   0  0  0  0  0  0  0  0  0  0  0  0
   19.0988   -8.9434    0.0000 C   0  0  1  0  0  0  0  0  0  0  0  0
   22.6874   -9.3559    0.0000 C   0  0  0  0  0  0  0  0  0  0  0  0
   22.6874  -10.1809    0.0000 C   0  0  0  0  0  0  0  0  0  0  0  0
   21.9450   -8.9434    0.0000 C   0  0  0  0  0  0  0  0  0  0  0  0
   21.2437   -9.3559    0.0000 C   0  0  0  0  0  0  0  0  0  0  0  0
   21.2437  -10.1809    0.0000 C   0  0  0  0  0  0  0  0  0  0  0  0
   21.9450  -10.5933    0.0000 C   0  0  0  0  0  0  0  0  0  0  0  0
   20.5425   -8.9434    0.0000 C   0  0  0  0  0  0  0  0  0  0  0  0
   19.8000   -9.3559    0.0000 C   0  0  0  0  0  0  0  0  0  0  0  0
   19.8000  -10.1809    0.0000 C   0  0  0  0  0  0  0  0  0  0  0  0
   20.5425  -10.5933    0.0000 C   0  0  0  0  0  0  0  0  0  0  0  0
   21.9450   -8.1184    0.0000 O   0  0  0  0  0  0  0  0  0  0  0  0
   20.5425   -8.1184    0.0000 O   0  0  0  0  0  0  0  0  0  0  0  0
   19.0988   -6.8809    0.0000 C   0  0  0  0  0  0  0  0  0  0  0  0
   17.6550   -7.1284    0.0000 C   0  0  0  0  0  0  0  0  0  0  0  0
   16.9538   -7.5409    0.0000 C   0  0  0  0  0  0  0  0  0  0  0  0
   17.6550   -6.3034    0.0000 O   0  0  0  0  0  0  0  0  0  0  0  0
   18.3975   -9.3559    0.0000 C   0  0  1  0  0  0  0  0  0  0  0  0
   17.6963   -8.9434    0.0000 O   0  0  0  0  0  0  0  0  0  0  0  0
   18.3975  -10.1809    0.0000 C   0  0  0  0  0  0  0  0  0  0  0  0
   18.3975   -8.3659    0.0000 C   0  0  0  0  0  0  0  0  0  0  0  0
   16.9951   -9.3559    0.0000 C   0  0  0  0  0  0  0  0  0  0  0  0
   17.6963  -10.5933    0.0000 C   0  0  0  0  0  0  0  0  0  0  0  0
   17.6963  -11.4183    0.0000 O   0  0  0  0  0  0  0  0  0  0  0  0
   19.0988  -10.5933    0.0000 O   0  0  0  0  0  0  0  0  0  0  0  0
   19.0988  -11.4183    0.0000 C   0  0  1  0  0  0  0  0  0  0  0  0
   20.5425  -11.4183    0.0000 C   0  0  0  0  0  0  0  0  0  0  0  0
   19.0988  -12.2433    0.0000 C   0  0  0  0  0  0  0  0  0  0  0  0
   19.8000   -8.5309    0.0000 C   0  0  0  0  0  0  0  0  0  0  0  0
   21.9450  -11.4183    0.0000 N   0  0  0  0  0  0  0  0  0  0  0  0
   23.3886  -11.4183    0.0000 C   0  0  0  0  0  0  0  0  0  0  0  0
   23.3886  -10.5933    0.0000 N   0  0  0  0  0  0  0  0  0  0  0  0
   21.2024  -11.8308    0.0000 O   0  0  0  0  0  0  0  0  0  0  0  0
   24.1360  -11.8498    0.0000 C   0  0  0  0  0  0  0  0  0  0  0  0
   24.8835  -11.4183    0.0000 C   0  0  0  0  0  0  0  0  0  0  0  0
   24.8835  -10.5933    0.0000 C   0  0  0  0  0  0  0  0  0  0  0  0
   24.1360  -10.1618    0.0000 C   0  0  0  0  0  0  0  0  0  0  0  0
   25.6496  -11.8604    0.0000 C   0  0  0  0  0  0  0  0  0  0  0  0
   18.8712   -7.2059    0.0000 H   0  0  0  0  0  0  0  0  0  0  0  0
   19.3756   -6.5587    0.0000 H   0  0  0  0  0  0  0  0  0  0  0  0
   20.4037   -7.9847    0.0000 H   0  0  0  0  0  0  0  0  0  0  0  0
   20.3215   -7.2173    0.0000 H   0  0  0  0  0  0  0  0  0  0  0  0
   21.4234   -5.7196    0.0000 H   0  0  0  0  0  0  0  0  0  0  0  0
   22.6335   -7.7066    0.0000 H   0  0  0  0  0  0  0  0  0  0  0  0
   22.8738   -5.7310    0.0000 H   0  0  0  0  0  0  0  0  0  0  0  0
   24.9856   -6.1623    0.0000 H   0  0  0  0  0  0  0  0  0  0  0  0
   23.4013   -5.2303    0.0000 H   0  0  0  0  0  0  0  0  0  0  0  0
   22.8716   -4.9022    0.0000 H   0  0  0  0  0  0  0  0  0  0  0  0
   21.0184   -4.9022    0.0000 H   0  0  0  0  0  0  0  0  0  0  0  0
   21.9450   -4.3672    0.0000 H   0  0  0  0  0  0  0  0  0  0  0  0
   21.4278   -4.9022    0.0000 H   0  0  0  0  0  0  0  0  0  0  0  0
   19.5746   -4.9022    0.0000 H   0  0  0  0  0  0  0  0  0  0  0  0
   20.5012   -4.3672    0.0000 H   0  0  0  0  0  0  0  0  0  0  0  0
   19.1067   -5.2922    0.0000 H   0  0  0  0  0  0  0  0  0  0  0  0
   24.7824   -9.0234    0.0000 H   0  0  0  0  0  0  0  0  0  0  0  0
   25.7220   -7.4259    0.0000 H   0  0  0  0  0  0  0  0  0  0  0  0
   25.7134   -8.4959    0.0000 H   0  0  0  0  0  0  0  0  0  0  0  0
   24.2432   -9.4322    0.0000 H   0  0  0  0  0  0  0  0  0  0  0  0
   19.0988   -6.8834    0.0000 H   0  0  0  0  0  0  0  0  0  0  0  0
   18.6421   -7.9758    0.0000 H   0  0  0  0  0  0  0  0  0  0  0  0
   22.7565   -7.6499    0.0000 H   0  0  0  0  0  0  0  0  0  0  0  0
   21.3540   -7.6499    0.0000 H   0  0  0  0  0  0  0  0  0  0  0  0
   19.3443   -5.8395    0.0000 H   0  0  0  0  0  0  0  0  0  0  0  0
   18.0741   -7.1890    0.0000 H   0  0  0  0  0  0  0  0  0  0  0  0
   18.3197   -6.1475    0.0000 H   0  0  0  0  0  0  0  0  0  0  0  0
   16.0228   -7.0135    0.0000 H   0  0  0  0  0  0  0  0  0  0  0  0
   16.9625   -8.6109    0.0000 H   0  0  0  0  0  0  0  0  0  0  0  0
   16.0315   -8.0834    0.0000 H   0  0  0  0  0  0  0  0  0  0  0  0
   18.3975   -8.2859    0.0000 H   0  0  0  0  0  0  0  0  0  0  0  0
   19.2933  -10.6933    0.0000 H   0  0  0  0  0  0  0  0  0  0  0  0
   18.5736   -7.3105    0.0000 H   0  0  0  0  0  0  0  0  0  0  0  0
   17.3955   -8.7411    0.0000 H   0  0  0  0  0  0  0  0  0  0  0  0
   17.5715   -7.6857    0.0000 H   0  0  0  0  0  0  0  0  0  0  0  0
   16.0641   -8.8285    0.0000 H   0  0  0  0  0  0  0  0  0  0  0  0
   17.0038  -10.4259    0.0000 H   0  0  0  0  0  0  0  0  0  0  0  0
   16.0728   -9.8984    0.0000 H   0  0  0  0  0  0  0  0  0  0  0  0
   16.8005  -10.0809    0.0000 H   0  0  0  0  0  0  0  0  0  0  0  0
   18.1722  -12.7783    0.0000 H   0  0  0  0  0  0  0  0  0  0  0  0
   20.0254  -12.7783    0.0000 H   0  0  0  0  0  0  0  0  0  0  0  0
   19.0988  -13.3133    0.0000 H   0  0  0  0  0  0  0  0  0  0  0  0
   20.7266   -7.9959    0.0000 H   0  0  0  0  0  0  0  0  0  0  0  0
   18.8734   -7.9959    0.0000 H   0  0  0  0  0  0  0  0  0  0  0  0
   19.8000   -7.4609    0.0000 H   0  0  0  0  0  0  0  0  0  0  0  0
   24.1360  -12.8818    0.0000 H   0  0  0  0  0  0  0  0  0  0  0  0
   25.7772  -10.0773    0.0000 H   0  0  0  0  0  0  0  0  0  0  0  0
   24.1360   -9.1298    0.0000 H   0  0  0  0  0  0  0  0  0  0  0  0
   25.6498  -12.9304    0.0000 H   0  0  0  0  0  0  0  0  0  0  0  0
   26.5761  -11.3252    0.0000 H   0  0  0  0  0  0  0  0  0  0  0  0
   26.5764  -12.3952    0.0000 H   0  0  0  0  0  0  0  0  0  0  0  0
  1  2  1  0  0  0  0
  1  5  1  0  0  0  0
  1 14  1  0  0  0  0
  1 58  1  1  0  0  0
  2 18  1  0  0  0  0
  2 33  1  0  0  0  0
  2 59  1  1  0  0  0
  3 60  1  0  0  0  0
  4  3  1  0  0  0  0
  4  5  1  0  0  0  0
  4  7  1  0  0  0  0
  4 61  1  1  0  0  0
  5 13  1  0  0  0  0
  5 62  1  1  0  0  0
  6  7  1  0  0  0  0
  6 11  2  0  0  0  0
  6 63  1  0  0  0  0
  7 12  1  0  0  0  0
  7 64  1  6  0  0  0
  8  9  1  0  0  0  0
  8 16  2  0  0  0  0
  8 17  1  0  0  0  0
  9 10  2  0  0  0  0
  9 15  1  0  0  0  0
 10 11  1  0  0  0  0
 10 65  1  0  0  0  0
 11 66  1  0  0  0  0
 12 67  1  0  0  0  0
 12 68  1  0  0  0  0
 12 69  1  0  0  0  0
 13 70  1  0  0  0  0
 13 71  1  0  0  0  0
 13 72  1  0  0  0  0
 14 73  1  0  0  0  0
 15 74  1  0  0  0  0
 15 75  1  0  0  0  0
 15 76  1  0  0  0  0
 17 21  1  0  0  0  0
 17 77  1  0  0  0  0
 18 19  1  0  0  0  0
 18 20  1  0  0  0  0
 18 78  1  6  0  0  0
 19 34  1  0  0  0  0
 20 37  1  0  0  0  0
 20 40  1  0  0  0  0
 20 79  1  6  0  0  0
 21 22  1  0  0  0  0
 21 23  2  0  0  0  0
 22 51  1  0  0  0  0
 23 24  1  0  0  0  0
 23 31  1  0  0  0  0
 24 25  1  0  0  0  0
 24 27  2  0  0  0  0
 25 26  1  0  0  0  0
 25 30  2  0  0  0  0
 26 22  2  0  0  0  0
 26 49  1  0  0  0  0
 27 28  1  0  0  0  0
 27 32  1  0  0  0  0
 28 29  2  0  0  0  0
 28 48  1  0  0  0  0
 29 30  1  0  0  0  0
 29 44  1  0  0  0  0
 30 46  1  0  0  0  0
 31 80  1  0  0  0  0
 32 81  1  0  0  0  0
 33 82  1  0  0  0  0
 33 83  1  0  0  0  0
 33 84  1  0  0  0  0
 34 35  1  0  0  0  0
 34 36  2  0  0  0  0
 35 85  1  0  0  0  0
 35 86  1  0  0  0  0
 35 87  1  0  0  0  0
 37 38  1  0  0  0  0
 37 39  1  0  0  0  0
 37 88  1  1  0  0  0
 38 41  1  0  0  0  0
 39 42  2  0  0  0  0
 39 89  1  0  0  0  0
 40 90  1  0  0  0  0
 40 91  1  0  0  0  0
 40 92  1  0  0  0  0
 41 93  1  0  0  0  0
 41 94  1  0  0  0  0
 41 95  1  0  0  0  0
 42 43  1  0  0  0  0
 42 96  1  0  0  0  0
 43 45  1  0  0  0  0
 44 45  1  0  0  0  0
 45 46  1  0  0  0  0
 45 47  1  6  0  0  0
 47 97  1  0  0  0  0
 47 98  1  0  0  0  0
 47 99  1  0  0  0  0
 48100  1  0  0  0  0
 48101  1  0  0  0  0
 48102  1  0  0  0  0
 49 50  2  0  0  0  0
 50 51  1  0  0  0  0
 50 53  1  0  0  0  0
 51 56  1  0  0  0  0
 52 46  2  0  0  0  0
 53 54  2  0  0  0  0
 53103  1  0  0  0  0
 54 55  1  0  0  0  0
 54 57  1  0  0  0  0
 55 56  2  0  0  0  0
 55104  1  0  0  0  0
 56105  1  0  0  0  0
 57106  1  0  0  0  0
 57107  1  0  0  0  0
 57108  1  0  0  0  0
M  END
>  <DRUGBANK_ID>
DB01220

>  <SECONDARY_ACCESSION_NUMBERS>
APRD01218

>  <COMMON_NAME>
Rifaximin

>  <CAS_NUMBER>
80621-81-4

>  <UNII>
L36O5T016N

>  <SYNONYMS>
Rifamycin L 105; Rifamycin L 105SV; Rifaxidin; Rifaximin; Rifaximina; Rifaximine; Rifaximinun

$$$$
