
 OpenBabel10282417072D

 70 73  0  0  1  0  0  0  0  0999 V2000
    0.0000   -5.9368    0.0000 C   0  0  0  0  0  0  0  0  0  0  0  0
    0.4125   -5.2224    0.0000 C   0  0  0  0  0  0  0  0  0  0  0  0
    0.0000   -4.5079    0.0000 C   0  0  0  0  0  0  0  0  0  0  0  0
    0.4125   -3.7934    0.0000 C   0  0  0  0  0  0  0  0  0  0  0  0
    1.2375   -3.7934    0.0000 C   0  0  0  0  0  0  0  0  0  0  0  0
    1.6500   -4.5079    0.0000 C   0  0  0  0  0  0  0  0  0  0  0  0
    1.2375   -5.2224    0.0000 C   0  0  0  0  0  0  0  0  0  0  0  0
    1.6500   -3.0789    0.0000 C   0  0  0  0  0  0  0  0  0  0  0  0
    2.4750   -3.0789    0.0000 O   0  0  0  0  0  0  0  0  0  0  0  0
    1.2375   -2.3645    0.0000 N   0  0  0  0  0  0  0  0  0  0  0  0
    0.4125   -2.3645    0.0000 C   0  0  0  0  0  0  0  0  0  0  0  0
    0.0000   -1.6500    0.0000 C   0  0  0  0  0  0  0  0  0  0  0  0
   -0.8250   -1.6500    0.0000 C   0  0  0  0  0  0  0  0  0  0  0  0
   -1.2375   -2.3645    0.0000 N   0  0  0  0  0  0  0  0  0  0  0  0
    1.6500   -1.6500    0.0000 C   0  0  1  0  0  0  0  0  0  0  0  0
    1.2375   -0.9355    0.0000 C   0  0  0  0  0  0  0  0  0  0  0  0
    0.4125   -0.9355    0.0000 N   0  0  0  0  0  0  0  0  0  0  0  0
    0.0000   -0.2211    0.0000 C   0  0  0  0  0  0  0  0  0  0  0  0
   -0.8250   -0.2211    0.0000 C   0  0  0  0  0  0  0  0  0  0  0  0
   -1.2375    0.4934    0.0000 C   0  0  0  0  0  0  0  0  0  0  0  0
   -0.8250    1.2079    0.0000 C   0  0  0  0  0  0  0  0  0  0  0  0
    0.0000    1.2079    0.0000 C   0  0  0  0  0  0  0  0  0  0  0  0
    0.4125    0.4934    0.0000 C   0  0  0  0  0  0  0  0  0  0  0  0
    1.2375    0.4934    0.0000 C   0  0  0  0  0  0  0  0  0  0  0  0
    1.6500    1.2079    0.0000 O   0  0  0  0  0  0  0  0  0  0  0  0
    1.6500   -0.2211    0.0000 N   0  0  0  0  0  0  0  0  0  0  0  0
    2.4750   -0.2211    0.0000 C   0  0  0  0  0  0  0  0  0  0  0  0
    2.8875    0.4934    0.0000 C   0  0  0  0  0  0  0  0  0  0  0  0
    2.4750    1.2079    0.0000 C   0  0  0  0  0  0  0  0  0  0  0  0
    2.8875    1.9224    0.0000 C   0  0  0  0  0  0  0  0  0  0  0  0
    3.7125    1.9224    0.0000 C   0  0  0  0  0  0  0  0  0  0  0  0
    4.1250    1.2079    0.0000 C   0  0  0  0  0  0  0  0  0  0  0  0
    3.7125    0.4934    0.0000 C   0  0  0  0  0  0  0  0  0  0  0  0
   -2.0625    0.4934    0.0000 Cl  0  0  0  0  0  0  0  0  0  0  0  0
    2.4750   -1.6500    0.0000 C   0  0  0  0  0  0  0  0  0  0  0  0
    2.8875   -0.9355    0.0000 C   0  0  0  0  0  0  0  0  0  0  0  0
    2.8875   -2.3645    0.0000 C   0  0  0  0  0  0  0  0  0  0  0  0
   -1.0700   -5.9368    0.0000 H   0  0  0  0  0  0  0  0  0  0  0  0
    0.5350   -6.8635    0.0000 H   0  0  0  0  0  0  0  0  0  0  0  0
   -0.5350   -6.8634    0.0000 H   0  0  0  0  0  0  0  0  0  0  0  0
   -1.0320   -4.5079    0.0000 H   0  0  0  0  0  0  0  0  0  0  0  0
   -0.1035   -2.8997    0.0000 H   0  0  0  0  0  0  0  0  0  0  0  0
    2.6820   -4.5079    0.0000 H   0  0  0  0  0  0  0  0  0  0  0  0
    1.7535   -6.1161    0.0000 H   0  0  0  0  0  0  0  0  0  0  0  0
   -0.1225   -3.2911    0.0000 H   0  0  0  0  0  0  0  0  0  0  0  0
   -0.6575   -2.3645    0.0000 H   0  0  0  0  0  0  0  0  0  0  0  0
    0.5350   -0.7234    0.0000 H   0  0  0  0  0  0  0  0  0  0  0  0
   -0.5350   -0.7234    0.0000 H   0  0  0  0  0  0  0  0  0  0  0  0
   -1.3600   -0.7234    0.0000 H   0  0  0  0  0  0  0  0  0  0  0  0
   -1.8950   -1.6500    0.0000 H   0  0  0  0  0  0  0  0  0  0  0  0
   -2.2575   -2.3645    0.0000 H   0  0  0  0  0  0  0  0  0  0  0  0
   -0.7275   -3.2478    0.0000 H   0  0  0  0  0  0  0  0  0  0  0  0
    0.5800   -1.6500    0.0000 H   0  0  0  0  0  0  0  0  0  0  0  0
   -1.3410   -1.1148    0.0000 H   0  0  0  0  0  0  0  0  0  0  0  0
   -1.3410    2.1016    0.0000 H   0  0  0  0  0  0  0  0  0  0  0  0
    0.5160    2.1016    0.0000 H   0  0  0  0  0  0  0  0  0  0  0  0
    3.0100   -1.1477    0.0000 H   0  0  0  0  0  0  0  0  0  0  0  0
    3.5450   -0.2211    0.0000 H   0  0  0  0  0  0  0  0  0  0  0  0
    1.4430    1.2079    0.0000 H   0  0  0  0  0  0  0  0  0  0  0  0
    2.3715    2.8161    0.0000 H   0  0  0  0  0  0  0  0  0  0  0  0
    4.2285    2.8161    0.0000 H   0  0  0  0  0  0  0  0  0  0  0  0
    5.1570    1.2079    0.0000 H   0  0  0  0  0  0  0  0  0  0  0  0
    4.2285   -0.4003    0.0000 H   0  0  0  0  0  0  0  0  0  0  0  0
    3.5450   -1.6500    0.0000 H   0  0  0  0  0  0  0  0  0  0  0  0
    3.9575   -0.9355    0.0000 H   0  0  0  0  0  0  0  0  0  0  0  0
    2.3525   -0.0089    0.0000 H   0  0  0  0  0  0  0  0  0  0  0  0
    3.4225   -0.0088    0.0000 H   0  0  0  0  0  0  0  0  0  0  0  0
    2.3525   -3.2911    0.0000 H   0  0  0  0  0  0  0  0  0  0  0  0
    3.9575   -2.3645    0.0000 H   0  0  0  0  0  0  0  0  0  0  0  0
    3.4225   -3.2912    0.0000 H   0  0  0  0  0  0  0  0  0  0  0  0
  1  2  1  0  0  0  0
  1 38  1  0  0  0  0
  1 39  1  0  0  0  0
  1 40  1  0  0  0  0
  2  3  2  0  0  0  0
  2  7  1  0  0  0  0
  3  4  1  0  0  0  0
  3 41  1  0  0  0  0
  4  5  2  0  0  0  0
  4 42  1  0  0  0  0
  5  6  1  0  0  0  0
  5  8  1  0  0  0  0
  6  7  2  0  0  0  0
  6 43  1  0  0  0  0
  7 44  1  0  0  0  0
  8  9  2  0  0  0  0
  8 10  1  0  0  0  0
 10 11  1  0  0  0  0
 11 12  1  0  0  0  0
 11 45  1  0  0  0  0
 11 46  1  0  0  0  0
 12 13  1  0  0  0  0
 12 47  1  0  0  0  0
 12 48  1  0  0  0  0
 13 14  1  0  0  0  0
 13 49  1  0  0  0  0
 13 50  1  0  0  0  0
 14 51  1  0  0  0  0
 14 52  1  0  0  0  0
 15 10  1  0  0  0  0
 15 16  1  0  0  0  0
 15 35  1  0  0  0  0
 15 53  1  6  0  0  0
 16 17  2  0  0  0  0
 16 26  1  0  0  0  0
 17 18  1  0  0  0  0
 18 19  2  0  0  0  0
 18 23  1  0  0  0  0
 19 20  1  0  0  0  0
 19 54  1  0  0  0  0
 20 21  2  0  0  0  0
 20 34  1  0  0  0  0
 21 22  1  0  0  0  0
 21 55  1  0  0  0  0
 22 23  2  0  0  0  0
 22 56  1  0  0  0  0
 23 24  1  0  0  0  0
 24 25  2  0  0  0  0
 24 26  1  0  0  0  0
 26 27  1  0  0  0  0
 27 28  1  0  0  0  0
 27 57  1  0  0  0  0
 27 58  1  0  0  0  0
 28 29  2  0  0  0  0
 28 33  1  0  0  0  0
 29 30  1  0  0  0  0
 29 59  1  0  0  0  0
 30 31  2  0  0  0  0
 30 60  1  0  0  0  0
 31 32  1  0  0  0  0
 31 61  1  0  0  0  0
 32 33  2  0  0  0  0
 32 62  1  0  0  0  0
 33 63  1  0  0  0  0
 35 36  1  0  0  0  0
 35 37  1  0  0  0  0
 35 64  1  0  0  0  0
 36 65  1  0  0  0  0
 36 66  1  0  0  0  0
 36 67  1  0  0  0  0
 37 68  1  0  0  0  0
 37 69  1  0  0  0  0
 37 70  1  0  0  0  0
M  END
>  <DRUGBANK_ID>
DB06188

>  <COMMON_NAME>
Ispinesib

>  <CAS_NUMBER>
336113-53-2

>  <UNII>
BKT5F9C2NI

>  <SYNONYMS>
Ispinesib

$$$$
