
 OpenBabel10282417072D

 59 64  0  0  1  0  0  0  0  0999 V2000
   -4.5621   -5.6859    0.0000 F   0  0  0  0  0  0  0  0  0  0  0  0
   -4.0100   -5.0728    0.0000 C   0  0  2  0  0  0  0  0  0  0  0  0
   -4.1815   -4.2658    0.0000 C   0  0  0  0  0  0  0  0  0  0  0  0
   -3.4671   -3.8533    0.0000 C   0  0  0  0  0  0  0  0  0  0  0  0
   -2.8540   -4.4054    0.0000 N   0  0  0  0  0  0  0  0  0  0  0  0
   -3.1895   -5.1590    0.0000 C   0  0  0  0  0  0  0  0  0  0  0  0
   -2.0470   -4.2338    0.0000 S   0  0  0  0  0  0  0  0  0  0  0  0
   -1.8755   -5.0408    0.0000 O   0  0  0  0  0  0  0  0  0  0  0  0
   -2.2185   -3.4269    0.0000 O   0  0  0  0  0  0  0  0  0  0  0  0
   -1.2400   -4.0623    0.0000 N   0  0  0  0  0  0  0  0  0  0  0  0
   -0.9851   -3.2777    0.0000 C   0  0  0  0  0  0  0  0  0  0  0  0
   -1.5371   -2.6646    0.0000 C   0  0  0  0  0  0  0  0  0  0  0  0
   -1.2822   -1.8800    0.0000 C   0  0  0  0  0  0  0  0  0  0  0  0
   -0.4752   -1.7084    0.0000 C   0  0  0  0  0  0  0  0  0  0  0  0
   -0.2203   -0.9238    0.0000 F   0  0  0  0  0  0  0  0  0  0  0  0
    0.0768   -2.3215    0.0000 C   0  0  0  0  0  0  0  0  0  0  0  0
    0.8838   -2.1500    0.0000 C   0  0  0  0  0  0  0  0  0  0  0  0
    1.4358   -2.7631    0.0000 O   0  0  0  0  0  0  0  0  0  0  0  0
    1.1387   -1.3654    0.0000 C   0  0  0  0  0  0  0  0  0  0  0  0
    0.6538   -0.6979    0.0000 C   0  0  0  0  0  0  0  0  0  0  0  0
    1.1387   -0.0305    0.0000 N   0  0  0  0  0  0  0  0  0  0  0  0
    1.9233   -0.2854    0.0000 C   0  0  0  0  0  0  0  0  0  0  0  0
    2.6378    0.1271    0.0000 N   0  0  0  0  0  0  0  0  0  0  0  0
    3.3523   -0.2854    0.0000 C   0  0  0  0  0  0  0  0  0  0  0  0
    3.3523   -1.1104    0.0000 C   0  0  0  0  0  0  0  0  0  0  0  0
    2.6378   -1.5229    0.0000 C   0  0  0  0  0  0  0  0  0  0  0  0
    1.9233   -1.1104    0.0000 C   0  0  0  0  0  0  0  0  0  0  0  0
    4.0668   -1.5229    0.0000 C   0  0  0  0  0  0  0  0  0  0  0  0
    4.7812   -1.1104    0.0000 C   0  0  0  0  0  0  0  0  0  0  0  0
    5.4957   -1.5229    0.0000 N   0  0  0  0  0  0  0  0  0  0  0  0
    5.4957   -2.3479    0.0000 C   0  0  0  0  0  0  0  0  0  0  0  0
    4.7812   -2.7604    0.0000 N   0  0  0  0  0  0  0  0  0  0  0  0
    4.0668   -2.3479    0.0000 C   0  0  0  0  0  0  0  0  0  0  0  0
    6.2102   -2.7604    0.0000 C   0  0  0  0  0  0  0  0  0  0  0  0
    7.0352   -2.7604    0.0000 C   0  0  0  0  0  0  0  0  0  0  0  0
    6.6227   -3.4749    0.0000 C   0  0  0  0  0  0  0  0  0  0  0  0
   -0.1781   -3.1062    0.0000 C   0  0  0  0  0  0  0  0  0  0  0  0
    0.3739   -3.7192    0.0000 F   0  0  0  0  0  0  0  0  0  0  0  0
   -5.0435   -4.7958    0.0000 H   0  0  0  0  0  0  0  0  0  0  0  0
   -5.1590   -3.8306    0.0000 H   0  0  0  0  0  0  0  0  0  0  0  0
   -4.2375   -3.1973    0.0000 H   0  0  0  0  0  0  0  0  0  0  0  0
   -3.3552   -2.7892    0.0000 H   0  0  0  0  0  0  0  0  0  0  0  0
   -2.4682   -3.4699    0.0000 H   0  0  0  0  0  0  0  0  0  0  0  0
   -2.6545   -6.0856    0.0000 H   0  0  0  0  0  0  0  0  0  0  0  0
   -3.7722   -6.0564    0.0000 H   0  0  0  0  0  0  0  0  0  0  0  0
   -0.5812   -4.7939    0.0000 H   0  0  0  0  0  0  0  0  0  0  0  0
   -2.5465   -2.8792    0.0000 H   0  0  0  0  0  0  0  0  0  0  0  0
   -1.9728   -1.1131    0.0000 H   0  0  0  0  0  0  0  0  0  0  0  0
   -0.3782   -0.6979    0.0000 H   0  0  0  0  0  0  0  0  0  0  0  0
    0.8345    0.9058    0.0000 H   0  0  0  0  0  0  0  0  0  0  0  0
    4.2460    0.2306    0.0000 H   0  0  0  0  0  0  0  0  0  0  0  0
    2.6378   -2.5549    0.0000 H   0  0  0  0  0  0  0  0  0  0  0  0
    4.7812   -0.0784    0.0000 H   0  0  0  0  0  0  0  0  0  0  0  0
    3.1731   -2.8639    0.0000 H   0  0  0  0  0  0  0  0  0  0  0  0
    7.1368   -3.2954    0.0000 H   0  0  0  0  0  0  0  0  0  0  0  0
    7.9618   -2.2254    0.0000 H   0  0  0  0  0  0  0  0  0  0  0  0
    7.7918   -3.5170    0.0000 H   0  0  0  0  0  0  0  0  0  0  0  0
    6.6227   -4.5449    0.0000 H   0  0  0  0  0  0  0  0  0  0  0  0
    5.5892   -3.7518    0.0000 H   0  0  0  0  0  0  0  0  0  0  0  0
  2  1  1  0  0  0  0
  2  3  1  0  0  0  0
  2  6  1  0  0  0  0
  2 39  1  1  0  0  0
  3  4  1  0  0  0  0
  3 40  1  0  0  0  0
  3 41  1  0  0  0  0
  4  5  1  0  0  0  0
  4 42  1  0  0  0  0
  4 43  1  0  0  0  0
  5  6  1  0  0  0  0
  5  7  1  0  0  0  0
  6 44  1  0  0  0  0
  6 45  1  0  0  0  0
  7  8  2  0  0  0  0
  7  9  2  0  0  0  0
  7 10  1  0  0  0  0
 10 11  1  0  0  0  0
 10 46  1  0  0  0  0
 11 12  2  0  0  0  0
 11 37  1  0  0  0  0
 12 13  1  0  0  0  0
 12 47  1  0  0  0  0
 13 14  2  0  0  0  0
 13 48  1  0  0  0  0
 14 15  1  0  0  0  0
 14 16  1  0  0  0  0
 16 17  1  0  0  0  0
 16 37  2  0  0  0  0
 17 18  2  0  0  0  0
 17 19  1  0  0  0  0
 19 20  2  0  0  0  0
 19 27  1  0  0  0  0
 20 21  1  0  0  0  0
 20 49  1  0  0  0  0
 21 22  1  0  0  0  0
 21 50  1  0  0  0  0
 22 23  2  0  0  0  0
 22 27  1  0  0  0  0
 23 24  1  0  0  0  0
 24 25  2  0  0  0  0
 24 51  1  0  0  0  0
 25 26  1  0  0  0  0
 25 28  1  0  0  0  0
 26 27  2  0  0  0  0
 26 52  1  0  0  0  0
 28 29  2  0  0  0  0
 28 33  1  0  0  0  0
 29 30  1  0  0  0  0
 29 53  1  0  0  0  0
 30 31  2  0  0  0  0
 31 32  1  0  0  0  0
 31 34  1  0  0  0  0
 32 33  2  0  0  0  0
 33 54  1  0  0  0  0
 34 35  1  0  0  0  0
 34 36  1  0  0  0  0
 34 55  1  0  0  0  0
 35 36  1  0  0  0  0
 35 56  1  0  0  0  0
 35 57  1  0  0  0  0
 36 58  1  0  0  0  0
 36 59  1  0  0  0  0
 37 38  1  0  0  0  0
M  END
>  <DRUGBANK_ID>
DB16038

>  <COMMON_NAME>
PLX8394

>  <CAS_NUMBER>
1393466-87-9

>  <UNII>
J2L7Z273SG

$$$$
