
 OpenBabel10282417072D

 58 61  0  0  0  0  0  0  0  0999 V2000
   -2.0751   -0.8251    0.0000 C   0  0  0  0  0  0  0  0  0  0  0  0
   -2.0751   -1.6501    0.0000 C   0  0  0  0  0  0  0  0  0  0  0  0
   -1.3737   -2.0627    0.0000 C   0  0  0  0  0  0  0  0  0  0  0  0
   -0.6311   -1.6501    0.0000 C   0  0  0  0  0  0  0  0  0  0  0  0
   -0.6311   -0.8251    0.0000 C   0  0  0  0  0  0  0  0  0  0  0  0
   -1.3737   -0.4125    0.0000 C   0  0  0  0  0  0  0  0  0  0  0  0
    0.0701   -0.4125    0.0000 C   0  0  0  0  0  0  0  0  0  0  0  0
    0.8127   -0.8251    0.0000 C   0  0  0  0  0  0  0  0  0  0  0  0
    0.8127   -1.6501    0.0000 C   0  0  0  0  0  0  0  0  0  0  0  0
    1.5140   -2.0627    0.0000 C   0  0  0  0  0  0  0  0  0  0  0  0
    2.2155   -1.6501    0.0000 C   0  0  0  0  0  0  0  0  0  0  0  0
    2.2155   -0.8251    0.0000 C   0  0  0  0  0  0  0  0  0  0  0  0
    1.5140   -0.4125    0.0000 C   0  0  0  0  0  0  0  0  0  0  0  0
    0.0701   -2.0627    0.0000 Cl  0  0  0  0  0  0  0  0  0  0  0  0
    2.9168   -2.0627    0.0000 O   0  0  0  0  0  0  0  0  0  0  0  0
    3.6182   -1.6501    0.0000 C   0  0  2  0  0  0  0  0  0  0  0  0
   -2.7764   -0.4125    0.0000 C   0  0  2  0  0  0  0  0  0  0  0  0
   -2.7764    0.4126    0.0000 O   0  0  0  0  0  0  0  0  0  0  0  0
   -3.5191    0.8252    0.0000 C   0  0  1  0  0  0  0  0  0  0  0  0
   -4.2204    0.4126    0.0000 C   0  0  2  0  0  0  0  0  0  0  0  0
   -4.2204   -0.4125    0.0000 C   0  0  1  0  0  0  0  0  0  0  0  0
   -3.5191   -0.8251    0.0000 C   0  0  1  0  0  0  0  0  0  0  0  0
   -3.5191   -1.6501    0.0000 O   0  0  0  0  0  0  0  0  0  0  0  0
   -4.9218    0.8252    0.0000 O   0  0  0  0  0  0  0  0  0  0  0  0
   -4.9218   -0.8251    0.0000 O   0  0  0  0  0  0  0  0  0  0  0  0
   -3.5191    1.6502    0.0000 C   0  0  0  0  0  0  0  0  0  0  0  0
   -2.7764    2.0628    0.0000 O   0  0  0  0  0  0  0  0  0  0  0  0
    4.3744   -1.9795    0.0000 C   0  0  0  0  0  0  0  0  0  0  0  0
    4.9218   -1.3619    0.0000 O   0  0  0  0  0  0  0  0  0  0  0  0
    4.5032   -0.6506    0.0000 C   0  0  0  0  0  0  0  0  0  0  0  0
    3.6977   -0.8290    0.0000 C   0  0  0  0  0  0  0  0  0  0  0  0
   -2.9709   -2.1625    0.0000 H   0  0  0  0  0  0  0  0  0  0  0  0
   -1.3864   -3.0946    0.0000 H   0  0  0  0  0  0  0  0  0  0  0  0
   -1.3864    0.6194    0.0000 H   0  0  0  0  0  0  0  0  0  0  0  0
    0.0569    0.6574    0.0000 H   0  0  0  0  0  0  0  0  0  0  0  0
    0.9889    0.1358    0.0000 H   0  0  0  0  0  0  0  0  0  0  0  0
   -0.0831   -2.1624    0.0000 H   0  0  0  0  0  0  0  0  0  0  0  0
    1.5139   -3.0947    0.0000 H   0  0  0  0  0  0  0  0  0  0  0  0
    3.1113   -0.3127    0.0000 H   0  0  0  0  0  0  0  0  0  0  0  0
    1.5139    0.6195    0.0000 H   0  0  0  0  0  0  0  0  0  0  0  0
    3.6829   -2.7181    0.0000 H   0  0  0  0  0  0  0  0  0  0  0  0
   -1.8476    0.1187    0.0000 H   0  0  0  0  0  0  0  0  0  0  0  0
   -2.5969    1.3678    0.0000 H   0  0  0  0  0  0  0  0  0  0  0  0
   -4.2204    1.4826    0.0000 H   0  0  0  0  0  0  0  0  0  0  0  0
   -5.1492    0.1187    0.0000 H   0  0  0  0  0  0  0  0  0  0  0  0
   -4.4479   -1.3563    0.0000 H   0  0  0  0  0  0  0  0  0  0  0  0
   -4.3591   -2.1351    0.0000 H   0  0  0  0  0  0  0  0  0  0  0  0
   -4.9139    1.7952    0.0000 H   0  0  0  0  0  0  0  0  0  0  0  0
   -5.7658   -0.3470    0.0000 H   0  0  0  0  0  0  0  0  0  0  0  0
   -4.4413    2.1928    0.0000 H   0  0  0  0  0  0  0  0  0  0  0  0
   -3.5058    2.7201    0.0000 H   0  0  0  0  0  0  0  0  0  0  0  0
   -1.9445    1.5640    0.0000 H   0  0  0  0  0  0  0  0  0  0  0  0
    4.6052   -3.0243    0.0000 H   0  0  0  0  0  0  0  0  0  0  0  0
    5.4101   -2.2483    0.0000 H   0  0  0  0  0  0  0  0  0  0  0  0
    4.9302    0.3305    0.0000 H   0  0  0  0  0  0  0  0  0  0  0  0
    3.8228    0.1752    0.0000 H   0  0  0  0  0  0  0  0  0  0  0  0
    2.8966   -0.1197    0.0000 H   0  0  0  0  0  0  0  0  0  0  0  0
    2.7020   -1.2207    0.0000 H   0  0  0  0  0  0  0  0  0  0  0  0
  1  2  2  0  0  0  0
  1  6  1  0  0  0  0
  2  3  1  0  0  0  0
  2 32  1  0  0  0  0
  3  4  2  0  0  0  0
  3 33  1  0  0  0  0
  4  5  1  0  0  0  0
  4 14  1  0  0  0  0
  5  6  2  0  0  0  0
  5  7  1  0  0  0  0
  6 34  1  0  0  0  0
  7  8  1  0  0  0  0
  7 35  1  0  0  0  0
  7 36  1  0  0  0  0
  8  9  2  0  0  0  0
  8 13  1  0  0  0  0
  9 10  1  0  0  0  0
  9 37  1  0  0  0  0
 10 11  2  0  0  0  0
 10 38  1  0  0  0  0
 11 12  1  0  0  0  0
 11 15  1  0  0  0  0
 12 13  2  0  0  0  0
 12 39  1  0  0  0  0
 13 40  1  0  0  0  0
 16 15  1  0  0  0  0
 16 28  1  0  0  0  0
 16 31  1  0  0  0  0
 16 41  1  6  0  0  0
 17  1  1  0  0  0  0
 17 18  1  0  0  0  0
 17 42  1  6  0  0  0
 18 19  1  0  0  0  0
 19 20  1  0  0  0  0
 19 26  1  0  0  0  0
 19 43  1  6  0  0  0
 20 24  1  0  0  0  0
 20 44  1  1  0  0  0
 21 20  1  0  0  0  0
 21 22  1  0  0  0  0
 21 25  1  0  0  0  0
 21 45  1  6  0  0  0
 22 17  1  0  0  0  0
 22 23  1  0  0  0  0
 22 46  1  1  0  0  0
 23 47  1  0  0  0  0
 24 48  1  0  0  0  0
 25 49  1  0  0  0  0
 26 27  1  0  0  0  0
 26 50  1  0  0  0  0
 26 51  1  0  0  0  0
 27 52  1  0  0  0  0
 28 29  1  0  0  0  0
 28 53  1  0  0  0  0
 28 54  1  0  0  0  0
 29 30  1  0  0  0  0
 30 31  1  0  0  0  0
 30 55  1  0  0  0  0
 30 56  1  0  0  0  0
 31 57  1  0  0  0  0
 31 58  1  0  0  0  0
M  END
>  <DRUGBANK_ID>
DB09038

>  <COMMON_NAME>
Empagliflozin

>  <CAS_NUMBER>
864070-44-0

>  <UNII>
HDC1R2M35U

>  <SYNONYMS>
(1S)-1,5-anhydro-1-(4-chloro-3-{4-[(3S)-tetrahydrofuran-3-yloxy]benzyl}phenyl)-D-glucitol; 1-chloro-4-(glucopyranos-1-yl)-2-(4-(tetrahydrofuran-3-yloxy)benzyl)benzene; Empagliflozin; Empagliflozina; Empagliflozine; Empagliflozinum

$$$$
