
 OpenBabel10282417072D

 81 85  0  0  1  0  0  0  0  0999 V2000
   -1.5519   -1.6408    0.0000 C   0  0  0  0  0  0  0  0  0  0  0  0
   -0.8374   -1.2283    0.0000 C   0  0  0  0  0  0  0  0  0  0  0  0
   -0.1230   -1.6408    0.0000 C   0  0  0  0  0  0  0  0  0  0  0  0
    0.5915   -1.2283    0.0000 C   0  0  0  0  0  0  0  0  0  0  0  0
    0.5915   -0.4033    0.0000 C   0  0  0  0  0  0  0  0  0  0  0  0
   -0.1230    0.0092    0.0000 C   0  0  0  0  0  0  0  0  0  0  0  0
   -0.8374   -0.4033    0.0000 C   0  0  0  0  0  0  0  0  0  0  0  0
   -0.1230    0.8342    0.0000 C   0  0  0  0  0  0  0  0  0  0  0  0
    1.2365    0.1111    0.0000 N   0  0  0  0  0  0  0  0  0  0  0  0
    2.0408   -0.0725    0.0000 C   0  0  0  0  0  0  0  0  0  0  0  0
    2.3988   -0.8158    0.0000 C   0  0  0  0  0  0  0  0  0  0  0  0
    2.0408   -1.5591    0.0000 C   0  0  0  0  0  0  0  0  0  0  0  0
    1.2365   -1.7427    0.0000 C   0  0  2  0  0  0  0  0  0  0  0  0
    1.0529   -2.5470    0.0000 N   0  0  0  0  0  0  0  0  0  0  0  0
    0.2646   -2.7902    0.0000 C   0  0  0  0  0  0  0  0  0  0  0  0
   -0.0021   -3.5709    0.0000 N   0  0  0  0  0  0  0  0  0  0  0  0
   -0.8270   -3.5585    0.0000 N   0  0  0  0  0  0  0  0  0  0  0  0
   -1.0701   -2.7702    0.0000 N   0  0  0  0  0  0  0  0  0  0  0  0
   -0.3955   -2.2953    0.0000 N   0  0  0  0  0  0  0  0  0  0  0  0
   -1.3218   -4.2186    0.0000 C   0  0  0  0  0  0  0  0  0  0  0  0
    1.6577   -3.1081    0.0000 C   0  0  0  0  0  0  0  0  0  0  0  0
    1.4741   -3.9124    0.0000 C   0  0  0  0  0  0  0  0  0  0  0  0
    2.0789   -4.4736    0.0000 C   0  0  0  0  0  0  0  0  0  0  0  0
    1.8953   -5.2779    0.0000 C   0  0  0  0  0  0  0  0  0  0  0  0
    1.1070   -5.5211    0.0000 C   0  0  0  0  0  0  0  0  0  0  0  0
    0.5022   -4.9599    0.0000 C   0  0  0  0  0  0  0  0  0  0  0  0
    0.6858   -4.1556    0.0000 C   0  0  0  0  0  0  0  0  0  0  0  0
   -0.2861   -5.2031    0.0000 C   0  0  0  0  0  0  0  0  0  0  0  0
   -1.0745   -5.4463    0.0000 F   0  0  0  0  0  0  0  0  0  0  0  0
   -0.0430   -5.9914    0.0000 F   0  0  0  0  0  0  0  0  0  0  0  0
   -0.5293   -4.4148    0.0000 F   0  0  0  0  0  0  0  0  0  0  0  0
    2.5001   -5.8390    0.0000 C   0  0  0  0  0  0  0  0  0  0  0  0
    3.1049   -6.4002    0.0000 F   0  0  0  0  0  0  0  0  0  0  0  0
    1.9389   -6.4438    0.0000 F   0  0  0  0  0  0  0  0  0  0  0  0
    3.0612   -5.2343    0.0000 F   0  0  0  0  0  0  0  0  0  0  0  0
    1.0529    0.9154    0.0000 C   0  0  0  0  0  0  0  0  0  0  0  0
    1.6577    1.4766    0.0000 C   0  0  1  0  0  0  0  0  0  0  0  0
    1.4741    2.2809    0.0000 C   0  0  0  0  0  0  0  0  0  0  0  0
    2.0789    2.8420    0.0000 C   0  0  0  0  0  0  0  0  0  0  0  0
    2.8672    2.5988    0.0000 C   0  0  1  0  0  0  0  0  0  0  0  0
    3.0508    1.7945    0.0000 C   0  0  0  0  0  0  0  0  0  0  0  0
    2.4461    1.2334    0.0000 C   0  0  0  0  0  0  0  0  0  0  0  0
    3.4720    3.1600    0.0000 C   0  0  0  0  0  0  0  0  0  0  0  0
    3.2884    3.9643    0.0000 O   0  0  0  0  0  0  0  0  0  0  0  0
    4.2604    2.9168    0.0000 O   0  0  0  0  0  0  0  0  0  0  0  0
   -2.4785   -1.1058    0.0000 H   0  0  0  0  0  0  0  0  0  0  0  0
   -1.5519   -2.7108    0.0000 H   0  0  0  0  0  0  0  0  0  0  0  0
   -2.4786   -2.1758    0.0000 H   0  0  0  0  0  0  0  0  0  0  0  0
   -0.1230   -2.6728    0.0000 H   0  0  0  0  0  0  0  0  0  0  0  0
   -1.7311    0.1127    0.0000 H   0  0  0  0  0  0  0  0  0  0  0  0
    0.8036    1.3692    0.0000 H   0  0  0  0  0  0  0  0  0  0  0  0
   -1.0496    1.3692    0.0000 H   0  0  0  0  0  0  0  0  0  0  0  0
   -0.1230    1.9042    0.0000 H   0  0  0  0  0  0  0  0  0  0  0  0
    2.7079    0.7641    0.0000 H   0  0  0  0  0  0  0  0  0  0  0  0
    3.1041   -0.1923    0.0000 H   0  0  0  0  0  0  0  0  0  0  0  0
    3.4688   -0.8158    0.0000 H   0  0  0  0  0  0  0  0  0  0  0  0
    2.9681   -1.7218    0.0000 H   0  0  0  0  0  0  0  0  0  0  0  0
    2.7079   -2.3957    0.0000 H   0  0  0  0  0  0  0  0  0  0  0  0
    1.6874   -2.5691    0.0000 H   0  0  0  0  0  0  0  0  0  0  0  0
    1.9931   -2.4993    0.0000 H   0  0  0  0  0  0  0  0  0  0  0  0
   -2.3842   -4.0909    0.0000 H   0  0  0  0  0  0  0  0  0  0  0  0
   -0.9012   -5.2025    0.0000 H   0  0  0  0  0  0  0  0  0  0  0  0
   -1.9636   -5.0748    0.0000 H   0  0  0  0  0  0  0  0  0  0  0  0
    2.6802   -2.7927    0.0000 H   0  0  0  0  0  0  0  0  0  0  0  0
    2.4421   -3.8359    0.0000 H   0  0  0  0  0  0  0  0  0  0  0  0
    3.0651   -4.1694    0.0000 H   0  0  0  0  0  0  0  0  0  0  0  0
    0.8774   -6.5272    0.0000 H   0  0  0  0  0  0  0  0  0  0  0  0
   -0.0707   -3.4537    0.0000 H   0  0  0  0  0  0  0  0  0  0  0  0
    0.0304    1.2308    0.0000 H   0  0  0  0  0  0  0  0  0  0  0  0
    0.8148    1.9586    0.0000 H   0  0  0  0  0  0  0  0  0  0  0  0
    0.6352    1.7920    0.0000 H   0  0  0  0  0  0  0  0  0  0  0  0
    0.4516    2.5963    0.0000 H   0  0  0  0  0  0  0  0  0  0  0  0
    1.2360    3.3241    0.0000 H   0  0  0  0  0  0  0  0  0  0  0  0
    1.8409    3.8852    0.0000 H   0  0  0  0  0  0  0  0  0  0  0  0
    2.8633    3.5697    0.0000 H   0  0  0  0  0  0  0  0  0  0  0  0
    2.6291    3.6420    0.0000 H   0  0  0  0  0  0  0  0  0  0  0  0
    4.0733    1.4791    0.0000 H   0  0  0  0  0  0  0  0  0  0  0  0
    3.2889    0.7513    0.0000 H   0  0  0  0  0  0  0  0  0  0  0  0
    2.6842    0.1902    0.0000 H   0  0  0  0  0  0  0  0  0  0  0  0
    1.6617    0.5056    0.0000 H   0  0  0  0  0  0  0  0  0  0  0  0
    4.4689    2.0033    0.0000 H   0  0  0  0  0  0  0  0  0  0  0  0
  1  2  1  0  0  0  0
  1 46  1  0  0  0  0
  1 47  1  0  0  0  0
  1 48  1  0  0  0  0
  2  3  2  0  0  0  0
  2  7  1  0  0  0  0
  3  4  1  0  0  0  0
  3 49  1  0  0  0  0
  4  5  2  0  0  0  0
  4 13  1  0  0  0  0
  5  6  1  0  0  0  0
  5  9  1  0  0  0  0
  6  7  2  0  0  0  0
  6  8  1  0  0  0  0
  7 50  1  0  0  0  0
  8 51  1  0  0  0  0
  8 52  1  0  0  0  0
  8 53  1  0  0  0  0
  9 10  1  0  0  0  0
  9 36  1  0  0  0  0
 10 11  1  0  0  0  0
 10 54  1  0  0  0  0
 10 55  1  0  0  0  0
 11 12  1  0  0  0  0
 11 56  1  0  0  0  0
 11 57  1  0  0  0  0
 12 13  1  0  0  0  0
 12 58  1  0  0  0  0
 12 59  1  0  0  0  0
 13 14  1  0  0  0  0
 13 60  1  1  0  0  0
 14 15  1  0  0  0  0
 14 21  1  0  0  0  0
 15 16  2  0  0  0  0
 15 19  1  0  0  0  0
 16 17  1  0  0  0  0
 17 18  1  0  0  0  0
 17 20  1  0  0  0  0
 18 19  2  0  0  0  0
 20 61  1  0  0  0  0
 20 62  1  0  0  0  0
 20 63  1  0  0  0  0
 21 22  1  0  0  0  0
 21 64  1  0  0  0  0
 21 65  1  0  0  0  0
 22 23  2  0  0  0  0
 22 27  1  0  0  0  0
 23 24  1  0  0  0  0
 23 66  1  0  0  0  0
 24 25  2  0  0  0  0
 24 32  1  0  0  0  0
 25 26  1  0  0  0  0
 25 67  1  0  0  0  0
 26 27  2  0  0  0  0
 26 28  1  0  0  0  0
 27 68  1  0  0  0  0
 28 29  1  0  0  0  0
 28 30  1  0  0  0  0
 28 31  1  0  0  0  0
 32 33  1  0  0  0  0
 32 34  1  0  0  0  0
 32 35  1  0  0  0  0
 36 69  1  0  0  0  0
 36 70  1  0  0  0  0
 37 36  1  0  0  0  0
 37 38  1  0  0  0  0
 37 42  1  0  0  0  0
 37 71  1  6  0  0  0
 38 39  1  0  0  0  0
 38 72  1  0  0  0  0
 38 73  1  0  0  0  0
 39 40  1  0  0  0  0
 39 74  1  0  0  0  0
 39 75  1  0  0  0  0
 40 41  1  0  0  0  0
 40 43  1  0  0  0  0
 40 76  1  1  0  0  0
 41 42  1  0  0  0  0
 41 77  1  0  0  0  0
 41 78  1  0  0  0  0
 42 79  1  0  0  0  0
 42 80  1  0  0  0  0
 43 44  2  0  0  0  0
 43 45  1  0  0  0  0
 45 81  1  0  0  0  0
M  END
>  <DRUGBANK_ID>
DB11655

>  <COMMON_NAME>
Evacetrapib

>  <CAS_NUMBER>
1186486-62-3

>  <UNII>
51XWV9K850

>  <SYNONYMS>
Evacetrapib

$$$$
