
 OpenBabel10282417072D

 56 55  0  0  0  0  0  0  0  0999 V2000
    7.4250    2.8579    0.0000 C   0  0  0  0  0  0  0  0  0  0  0  0
    7.0125    3.5724    0.0000 C   0  0  0  0  0  0  0  0  0  0  0  0
    7.4250    4.2868    0.0000 C   0  0  0  0  0  0  0  0  0  0  0  0
    8.2500    4.2868    0.0000 C   0  0  0  0  0  0  0  0  0  0  0  0
    8.6625    5.0013    0.0000 C   0  0  0  0  0  0  0  0  0  0  0  0
    9.4875    5.0013    0.0000 C   0  0  0  0  0  0  0  0  0  0  0  0
    9.9000    4.2868    0.0000 C   0  0  0  0  0  0  0  0  0  0  0  0
    9.9000    5.7158    0.0000 C   0  0  0  0  0  0  0  0  0  0  0  0
   10.7250    5.7158    0.0000 C   0  0  0  0  0  0  0  0  0  0  0  0
   11.1375    6.4302    0.0000 C   0  0  0  0  0  0  0  0  0  0  0  0
   11.9625    6.4302    0.0000 O   0  0  0  0  0  0  0  0  0  0  0  0
   10.7250    7.1447    0.0000 O   0  0  0  0  0  0  0  0  0  0  0  0
    6.1875    3.5724    0.0000 C   0  0  0  0  0  0  0  0  0  0  0  0
    5.7750    2.8579    0.0000 C   0  0  0  0  0  0  0  0  0  0  0  0
    4.9500    2.8579    0.0000 C   0  0  0  0  0  0  0  0  0  0  0  0
    4.5375    2.1434    0.0000 C   0  0  0  0  0  0  0  0  0  0  0  0
    3.7125    2.1434    0.0000 C   0  0  0  0  0  0  0  0  0  0  0  0
    3.3000    2.8579    0.0000 C   0  0  0  0  0  0  0  0  0  0  0  0
    3.3000    1.4289    0.0000 C   0  0  0  0  0  0  0  0  0  0  0  0
    2.4750    1.4289    0.0000 C   0  0  0  0  0  0  0  0  0  0  0  0
    2.0625    0.7145    0.0000 C   0  0  0  0  0  0  0  0  0  0  0  0
    1.2375    0.7145    0.0000 C   0  0  0  0  0  0  0  0  0  0  0  0
    0.8250    1.4289    0.0000 C   0  0  0  0  0  0  0  0  0  0  0  0
    0.8250    0.0000    0.0000 C   0  0  0  0  0  0  0  0  0  0  0  0
    0.0000    0.0000    0.0000 C   0  0  0  0  0  0  0  0  0  0  0  0
   -0.4125   -0.7145    0.0000 C   0  0  0  0  0  0  0  0  0  0  0  0
    0.0000   -1.4289    0.0000 O   0  0  0  0  0  0  0  0  0  0  0  0
   -1.2375   -0.7145    0.0000 O   0  0  0  0  0  0  0  0  0  0  0  0
    6.8900    1.9313    0.0000 H   0  0  0  0  0  0  0  0  0  0  0  0
    8.4950    2.8579    0.0000 H   0  0  0  0  0  0  0  0  0  0  0  0
    7.9600    1.9312    0.0000 H   0  0  0  0  0  0  0  0  0  0  0  0
    6.9090    5.1805    0.0000 H   0  0  0  0  0  0  0  0  0  0  0  0
    8.7660    3.3931    0.0000 H   0  0  0  0  0  0  0  0  0  0  0  0
    8.1465    5.8950    0.0000 H   0  0  0  0  0  0  0  0  0  0  0  0
    9.3650    3.3602    0.0000 H   0  0  0  0  0  0  0  0  0  0  0  0
   10.9700    4.2868    0.0000 H   0  0  0  0  0  0  0  0  0  0  0  0
   10.4350    3.3601    0.0000 H   0  0  0  0  0  0  0  0  0  0  0  0
    9.3840    6.6095    0.0000 H   0  0  0  0  0  0  0  0  0  0  0  0
   11.2410    4.8221    0.0000 H   0  0  0  0  0  0  0  0  0  0  0  0
   12.4310    5.6187    0.0000 H   0  0  0  0  0  0  0  0  0  0  0  0
    5.6715    4.4661    0.0000 H   0  0  0  0  0  0  0  0  0  0  0  0
    6.2910    1.9642    0.0000 H   0  0  0  0  0  0  0  0  0  0  0  0
    4.4340    3.7516    0.0000 H   0  0  0  0  0  0  0  0  0  0  0  0
    5.0535    1.2497    0.0000 H   0  0  0  0  0  0  0  0  0  0  0  0
    3.8350    3.7845    0.0000 H   0  0  0  0  0  0  0  0  0  0  0  0
    2.2300    2.8579    0.0000 H   0  0  0  0  0  0  0  0  0  0  0  0
    2.7650    3.7846    0.0000 H   0  0  0  0  0  0  0  0  0  0  0  0
    3.8160    0.5352    0.0000 H   0  0  0  0  0  0  0  0  0  0  0  0
    1.9590    2.3226    0.0000 H   0  0  0  0  0  0  0  0  0  0  0  0
    2.5785   -0.1792    0.0000 H   0  0  0  0  0  0  0  0  0  0  0  0
    1.3600    2.3556    0.0000 H   0  0  0  0  0  0  0  0  0  0  0  0
   -0.2450    1.4289    0.0000 H   0  0  0  0  0  0  0  0  0  0  0  0
    0.2900    2.3555    0.0000 H   0  0  0  0  0  0  0  0  0  0  0  0
    1.3410   -0.8937    0.0000 H   0  0  0  0  0  0  0  0  0  0  0  0
   -0.5160    0.8937    0.0000 H   0  0  0  0  0  0  0  0  0  0  0  0
   -0.4685   -2.2404    0.0000 H   0  0  0  0  0  0  0  0  0  0  0  0
  1  2  1  0  0  0  0
  1 29  1  0  0  0  0
  1 30  1  0  0  0  0
  1 31  1  0  0  0  0
  2  3  1  0  0  0  0
  2 13  2  0  0  0  0
  3  4  2  0  0  0  0
  3 32  1  0  0  0  0
  4  5  1  0  0  0  0
  4 33  1  0  0  0  0
  5  6  2  0  0  0  0
  5 34  1  0  0  0  0
  6  7  1  0  0  0  0
  6  8  1  0  0  0  0
  7 35  1  0  0  0  0
  7 36  1  0  0  0  0
  7 37  1  0  0  0  0
  8  9  2  0  0  0  0
  8 38  1  0  0  0  0
  9 10  1  0  0  0  0
  9 39  1  0  0  0  0
 10 11  1  0  0  0  0
 10 12  2  0  0  0  0
 11 40  1  0  0  0  0
 13 14  1  0  0  0  0
 13 41  1  0  0  0  0
 14 15  2  0  0  0  0
 14 42  1  0  0  0  0
 15 16  1  0  0  0  0
 15 43  1  0  0  0  0
 16 17  2  0  0  0  0
 16 44  1  0  0  0  0
 17 18  1  0  0  0  0
 17 19  1  0  0  0  0
 18 45  1  0  0  0  0
 18 46  1  0  0  0  0
 18 47  1  0  0  0  0
 19 20  2  0  0  0  0
 19 48  1  0  0  0  0
 20 21  1  0  0  0  0
 20 49  1  0  0  0  0
 21 22  2  0  0  0  0
 21 50  1  0  0  0  0
 22 23  1  0  0  0  0
 22 24  1  0  0  0  0
 23 51  1  0  0  0  0
 23 52  1  0  0  0  0
 23 53  1  0  0  0  0
 24 25  2  0  0  0  0
 24 54  1  0  0  0  0
 25 26  1  0  0  0  0
 25 55  1  0  0  0  0
 26 27  1  0  0  0  0
 26 28  2  0  0  0  0
 27 56  1  0  0  0  0
M  END
>  <DRUGBANK_ID>
DB15201

>  <COMMON_NAME>
Norbixin

>  <CAS_NUMBER>
542-40-5

>  <UNII>
E8M59E17AI

$$$$
