
 OpenBabel10282417072D

 27 27  0  0  0  0  0  0  0  0999 V2000
    0.0285   -0.4450    0.0000 C   0  0  0  0  0  0  0  0  0  0  0  0
    0.0285   -1.2701    0.0000 C   0  0  0  0  0  0  0  0  0  0  0  0
   -0.6859   -0.0325    0.0000 C   0  0  0  0  0  0  0  0  0  0  0  0
    0.8530   -0.4163    0.0000 C   0  0  0  0  0  0  0  0  0  0  0  0
    0.4657    0.2545    0.0000 C   0  0  0  0  0  0  0  0  0  0  0  0
   -0.6859   -1.6826    0.0000 N   0  0  0  0  0  0  0  0  0  0  0  0
    0.7431   -1.6826    0.0000 O   0  0  0  0  0  0  0  0  0  0  0  0
   -1.4004   -0.4450    0.0000 N   0  0  0  0  0  0  0  0  0  0  0  0
   -0.6859    0.7924    0.0000 O   0  0  0  0  0  0  0  0  0  0  0  0
    1.2902   -1.1160    0.0000 C   0  0  0  0  0  0  0  0  0  0  0  0
    0.0784    0.9830    0.0000 C   0  0  0  0  0  0  0  0  0  0  0  0
   -1.4004   -1.2701    0.0000 C   0  0  0  0  0  0  0  0  0  0  0  0
    2.1148   -1.0871    0.0000 C   0  0  0  0  0  0  0  0  0  0  0  0
    0.5155    1.6826    0.0000 C   0  0  0  0  0  0  0  0  0  0  0  0
   -2.1148   -1.6826    0.0000 O   0  0  0  0  0  0  0  0  0  0  0  0
    1.3554    0.5284    0.0000 H   0  0  0  0  0  0  0  0  0  0  0  0
    1.9223   -0.3790    0.0000 H   0  0  0  0  0  0  0  0  0  0  0  0
    1.5350    0.2171    0.0000 H   0  0  0  0  0  0  0  0  0  0  0  0
    1.0328    1.1619    0.0000 H   0  0  0  0  0  0  0  0  0  0  0  0
   -0.6859   -2.6671    0.0000 H   0  0  0  0  0  0  0  0  0  0  0  0
   -2.2530    0.0473    0.0000 H   0  0  0  0  0  0  0  0  0  0  0  0
    0.8058   -2.0272    0.0000 H   0  0  0  0  0  0  0  0  0  0  0  0
   -0.9530    1.0190    0.0000 H   0  0  0  0  0  0  0  0  0  0  0  0
    2.6618   -1.9622    0.0000 H   0  0  0  0  0  0  0  0  0  0  0  0
    2.5992   -0.1758    0.0000 H   0  0  0  0  0  0  0  0  0  0  0  0
    1.5469    1.6466    0.0000 H   0  0  0  0  0  0  0  0  0  0  0  0
    0.0310    2.5938    0.0000 H   0  0  0  0  0  0  0  0  0  0  0  0
  1  2  1  0  0  0  0
  1  3  1  0  0  0  0
  1  4  1  0  0  0  0
  1  5  1  0  0  0  0
  2  6  1  0  0  0  0
  2  7  2  0  0  0  0
  3  8  1  0  0  0  0
  3  9  2  0  0  0  0
  4 10  1  0  0  0  0
  4 16  1  0  0  0  0
  4 17  1  0  0  0  0
  5 11  1  0  0  0  0
  5 18  1  0  0  0  0
  5 19  1  0  0  0  0
  6 12  1  0  0  0  0
  6 20  1  0  0  0  0
  8 12  1  0  0  0  0
  8 21  1  0  0  0  0
 10 13  2  0  0  0  0
 10 22  1  0  0  0  0
 11 14  2  0  0  0  0
 11 23  1  0  0  0  0
 12 15  2  0  0  0  0
 13 24  1  0  0  0  0
 13 25  1  0  0  0  0
 14 26  1  0  0  0  0
 14 27  1  0  0  0  0
M  END
>  <DRUGBANK_ID>
DB13577

>  <COMMON_NAME>
Allobarbital

>  <CAS_NUMBER>
52-43-7

>  <UNII>
8NT43GG2HA

>  <SYNONYMS>
Allobarbital; Allobarbitalum

$$$$
