POF
 OpenBabel10282417072D

 60 64  0  0  0  0  0  0  0  0999 V2000
    4.9914   -0.9777    0.0000 O   0  0  0  0  0  0  0  0  0  0  0  0
    3.9113    0.2696    0.0000 O   0  0  0  0  0  0  0  0  0  0  0  0
   -2.5698    1.2051    0.0000 O   0  0  0  0  0  0  0  0  0  0  0  0
    5.0750    0.1860    0.0000 O   0  0  0  0  0  0  0  0  0  0  0  0
    3.1011    0.1137    0.0000 C   0  0  0  0  0  0  0  0  0  0  0  0
    2.5610    0.7373    0.0000 C   0  0  0  0  0  0  0  0  0  0  0  0
    3.8277   -0.8941    0.0000 N   0  0  0  0  0  0  0  0  0  0  0  0
    1.7509    0.5814    0.0000 C   0  0  0  0  0  0  0  0  0  0  0  0
    1.4809   -0.1981    0.0000 C   0  0  0  0  0  0  0  0  0  0  0  0
    2.0210   -0.8218    0.0000 C   0  0  0  0  0  0  0  0  0  0  0  0
    4.4514   -0.3540    0.0000 S   0  0  0  0  0  0  0  0  0  0  0  0
    2.8311   -0.6659    0.0000 C   0  0  0  0  0  0  0  0  0  0  0  0
    1.2108    1.2051    0.0000 C   0  0  0  0  0  0  0  0  0  0  0  0
    0.4007    1.0492    0.0000 C   0  0  0  0  0  0  0  0  0  0  0  0
    0.1306    0.2696    0.0000 C   0  0  2  0  0  0  0  0  0  0  0  0
    0.6707   -0.3540    0.0000 C   0  0  2  0  0  0  0  0  0  0  0  0
   -0.6795    0.1137    0.0000 C   0  0  1  0  0  0  0  0  0  0  0  0
   -0.9495   -0.6659    0.0000 C   0  0  1  0  0  0  0  0  0  0  0  0
   -0.4094   -1.2895    0.0000 C   0  0  0  0  0  0  0  0  0  0  0  0
    0.4007   -1.1336    0.0000 C   0  0  0  0  0  0  0  0  0  0  0  0
   -1.2196   -1.4454    0.0000 C   0  0  0  0  0  0  0  0  0  0  0  0
   -1.2196    0.7373    0.0000 C   0  0  0  0  0  0  0  0  0  0  0  0
   -2.0297    0.5814    0.0000 C   0  0  0  0  0  0  0  0  0  0  0  0
   -2.2998   -0.1981    0.0000 N   0  0  0  0  0  0  0  0  0  0  0  0
   -1.7597   -0.8218    0.0000 C   0  0  0  0  0  0  0  0  0  0  0  0
   -2.0297   -1.6013    0.0000 O   0  0  0  0  0  0  0  0  0  0  0  0
   -3.1099   -0.3540    0.0000 C   0  0  0  0  0  0  0  0  0  0  0  0
   -3.6500    0.2696    0.0000 C   0  0  0  0  0  0  0  0  0  0  0  0
   -4.4601    0.1137    0.0000 C   0  0  0  0  0  0  0  0  0  0  0  0
   -5.0002    0.7373    0.0000 C   0  0  0  0  0  0  0  0  0  0  0  0
   -4.7302    1.5169    0.0000 C   0  0  0  0  0  0  0  0  0  0  0  0
   -3.9200    1.6728    0.0000 N   0  0  0  0  0  0  0  0  0  0  0  0
   -3.3799    1.0492    0.0000 C   0  0  0  0  0  0  0  0  0  0  0  0
   -0.3795    0.5536    0.0000 H   0  0  0  0  0  0  0  0  0  0  0  0
    1.0530   -0.7954    0.0000 H   0  0  0  0  0  0  0  0  0  0  0  0
   -0.6886    0.6975    0.0000 H   0  0  0  0  0  0  0  0  0  0  0  0
    2.8988    1.7125    0.0000 H   0  0  0  0  0  0  0  0  0  0  0  0
    2.8639   -0.5602    0.0000 H   0  0  0  0  0  0  0  0  0  0  0  0
    4.0204   -1.8957    0.0000 H   0  0  0  0  0  0  0  0  0  0  0  0
    1.6832   -1.7969    0.0000 H   0  0  0  0  0  0  0  0  0  0  0  0
    3.5067   -1.4460    0.0000 H   0  0  0  0  0  0  0  0  0  0  0  0
    1.5611    2.2161    0.0000 H   0  0  0  0  0  0  0  0  0  0  0  0
    0.5103    2.0140    0.0000 H   0  0  0  0  0  0  0  0  0  0  0  0
   -0.2998    1.8581    0.0000 H   0  0  0  0  0  0  0  0  0  0  0  0
   -0.6500    0.8470    0.0000 H   0  0  0  0  0  0  0  0  0  0  0  0
   -0.7596   -2.3006    0.0000 H   0  0  0  0  0  0  0  0  0  0  0  0
    0.2911   -2.0983    0.0000 H   0  0  0  0  0  0  0  0  0  0  0  0
    1.1012   -1.9424    0.0000 H   0  0  0  0  0  0  0  0  0  0  0  0
    0.0505   -2.1447    0.0000 H   0  0  0  0  0  0  0  0  0  0  0  0
   -2.2703   -1.6475    0.0000 H   0  0  0  0  0  0  0  0  0  0  0  0
   -0.5192   -2.2543    0.0000 H   0  0  0  0  0  0  0  0  0  0  0  0
   -1.5699   -2.4564    0.0000 H   0  0  0  0  0  0  0  0  0  0  0  0
   -0.8694    1.7484    0.0000 H   0  0  0  0  0  0  0  0  0  0  0  0
   -1.9201    1.5461    0.0000 H   0  0  0  0  0  0  0  0  0  0  0  0
   -3.4601   -1.3651    0.0000 H   0  0  0  0  0  0  0  0  0  0  0  0
   -4.1606   -0.5562    0.0000 H   0  0  0  0  0  0  0  0  0  0  0  0
   -4.7979   -0.8615    0.0000 H   0  0  0  0  0  0  0  0  0  0  0  0
   -6.0136    0.5422    0.0000 H   0  0  0  0  0  0  0  0  0  0  0  0
   -5.4058    2.2970    0.0000 H   0  0  0  0  0  0  0  0  0  0  0  0
   -2.3665    1.2442    0.0000 H   0  0  0  0  0  0  0  0  0  0  0  0
  1 11  2  0  0  0  0
  2  5  1  0  0  0  0
  2 11  1  0  0  0  0
  3 23  2  0  0  0  0
  4 11  2  0  0  0  0
  5  6  2  0  0  0  0
  5 12  1  0  0  0  0
  6  8  1  0  0  0  0
  6 37  1  0  0  0  0
  7 11  1  0  0  0  0
  7 38  1  0  0  0  0
  7 39  1  0  0  0  0
  8  9  2  0  0  0  0
  8 13  1  0  0  0  0
  9 10  1  0  0  0  0
  9 16  1  0  0  0  0
 10 12  2  0  0  0  0
 10 40  1  0  0  0  0
 12 41  1  0  0  0  0
 13 14  1  0  0  0  0
 13 42  1  0  0  0  0
 13 43  1  0  0  0  0
 14 15  1  0  0  0  0
 14 44  1  0  0  0  0
 14 45  1  0  0  0  0
 15 16  1  0  0  0  0
 15 17  1  0  0  0  0
 15 34  1  1  0  0  0
 16 20  1  0  0  0  0
 16 35  1  6  0  0  0
 17 18  1  0  0  0  0
 17 22  1  0  0  0  0
 17 36  1  6  0  0  0
 18 19  1  0  0  0  0
 18 21  1  1  0  0  0
 18 25  1  0  0  0  0
 19 20  1  0  0  0  0
 19 46  1  0  0  0  0
 19 47  1  0  0  0  0
 20 48  1  0  0  0  0
 20 49  1  0  0  0  0
 21 50  1  0  0  0  0
 21 51  1  0  0  0  0
 21 52  1  0  0  0  0
 22 23  1  0  0  0  0
 22 53  1  0  0  0  0
 22 54  1  0  0  0  0
 23 24  1  0  0  0  0
 24 25  1  0  0  0  0
 24 27  1  0  0  0  0
 25 26  2  0  0  0  0
 27 28  1  0  0  0  0
 27 55  1  0  0  0  0
 27 56  1  0  0  0  0
 28 29  2  0  0  0  0
 28 33  1  0  0  0  0
 29 30  1  0  0  0  0
 29 57  1  0  0  0  0
 30 31  2  0  0  0  0
 30 58  1  0  0  0  0
 31 32  1  0  0  0  0
 31 59  1  0  0  0  0
 32 33  2  0  0  0  0
 33 60  1  0  0  0  0
M  END
>  <DRUGBANK_ID>
DB08418

>  <COMMON_NAME>
(4aS,4bR,10bS,12aS)-12a-methyl-1,3-dioxo-2-(pyridin-3-ylmethyl)-1,2,3,4,4a,4b,5,6,10b,11,12,12a-dodecahydronaphtho[2,1-f]isoquinolin-8-yl sulfamate

$$$$
