
 OpenBabel10282417072D

 54 54  0  0  1  0  0  0  0  0999 V2000
    1.7309    8.1099    0.0000 C   0  0  0  0  0  0  0  0  0  0  0  0
    1.0164    8.5224    0.0000 C   0  0  0  0  0  0  0  0  0  0  0  0
    0.3020    8.1099    0.0000 O   0  0  0  0  0  0  0  0  0  0  0  0
    0.3020    7.2849    0.0000 C   0  0  0  0  0  0  0  0  0  0  0  0
   -0.4125    6.8724    0.0000 O   0  0  0  0  0  0  0  0  0  0  0  0
    1.0164    6.8724    0.0000 C   0  0  1  0  0  0  0  0  0  0  0  0
    1.8414    6.8724    0.0000 O   0  0  0  0  0  0  0  0  0  0  0  0
    1.4289    6.1579    0.0000 C   0  0  2  0  0  0  0  0  0  0  0  0
    1.4289    5.3329    0.0000 C   0  0  0  0  0  0  0  0  0  0  0  0
    2.1434    4.9204    0.0000 O   0  0  0  0  0  0  0  0  0  0  0  0
    0.7145    4.9204    0.0000 N   0  0  0  0  0  0  0  0  0  0  0  0
    0.7145    4.0954    0.0000 C   0  0  1  0  0  0  0  0  0  0  0  0
   -0.0000    3.6829    0.0000 C   0  0  0  0  0  0  0  0  0  0  0  0
   -0.0000    2.8579    0.0000 C   0  0  0  0  0  0  0  0  0  0  0  0
    0.7145    2.4454    0.0000 C   0  0  0  0  0  0  0  0  0  0  0  0
   -0.7145    2.4454    0.0000 C   0  0  0  0  0  0  0  0  0  0  0  0
    1.4289    3.6829    0.0000 C   0  0  0  0  0  0  0  0  0  0  0  0
    1.4289    2.8579    0.0000 O   0  0  0  0  0  0  0  0  0  0  0  0
    2.1434    4.0954    0.0000 N   0  0  0  0  0  0  0  0  0  0  0  0
    2.8579    3.6829    0.0000 C   0  0  0  0  0  0  0  0  0  0  0  0
    3.5724    4.0954    0.0000 C   0  0  0  0  0  0  0  0  0  0  0  0
    4.2868    3.6829    0.0000 C   0  0  0  0  0  0  0  0  0  0  0  0
    5.0013    4.0954    0.0000 C   0  0  0  0  0  0  0  0  0  0  0  0
    4.2868    2.8579    0.0000 C   0  0  0  0  0  0  0  0  0  0  0  0
    1.7309    7.0399    0.0000 H   0  0  0  0  0  0  0  0  0  0  0  0
    2.6575    8.6449    0.0000 H   0  0  0  0  0  0  0  0  0  0  0  0
    2.6576    7.5749    0.0000 H   0  0  0  0  0  0  0  0  0  0  0  0
    1.0164    9.5924    0.0000 H   0  0  0  0  0  0  0  0  0  0  0  0
    0.0897    9.0574    0.0000 H   0  0  0  0  0  0  0  0  0  0  0  0
    1.2934    7.9059    0.0000 H   0  0  0  0  0  0  0  0  0  0  0  0
    2.4624    5.8810    0.0000 H   0  0  0  0  0  0  0  0  0  0  0  0
   -0.1381    5.4126    0.0000 H   0  0  0  0  0  0  0  0  0  0  0  0
   -0.2121    4.6304    0.0000 H   0  0  0  0  0  0  0  0  0  0  0  0
   -0.9266    4.2179    0.0000 H   0  0  0  0  0  0  0  0  0  0  0  0
   -0.9266    3.1479    0.0000 H   0  0  0  0  0  0  0  0  0  0  0  0
   -0.0000    1.7879    0.0000 H   0  0  0  0  0  0  0  0  0  0  0  0
    0.7145    1.3754    0.0000 H   0  0  0  0  0  0  0  0  0  0  0  0
    1.6411    2.9804    0.0000 H   0  0  0  0  0  0  0  0  0  0  0  0
    1.6412    1.9104    0.0000 H   0  0  0  0  0  0  0  0  0  0  0  0
   -1.6411    2.9804    0.0000 H   0  0  0  0  0  0  0  0  0  0  0  0
   -0.7145    1.3754    0.0000 H   0  0  0  0  0  0  0  0  0  0  0  0
   -1.6412    1.9104    0.0000 H   0  0  0  0  0  0  0  0  0  0  0  0
    2.1434    5.0799    0.0000 H   0  0  0  0  0  0  0  0  0  0  0  0
    2.8579    2.6129    0.0000 H   0  0  0  0  0  0  0  0  0  0  0  0
    3.7845    3.1479    0.0000 H   0  0  0  0  0  0  0  0  0  0  0  0
    3.5724    5.1654    0.0000 H   0  0  0  0  0  0  0  0  0  0  0  0
    4.4991    4.6304    0.0000 H   0  0  0  0  0  0  0  0  0  0  0  0
    5.2134    3.1479    0.0000 H   0  0  0  0  0  0  0  0  0  0  0  0
    5.9279    3.5604    0.0000 H   0  0  0  0  0  0  0  0  0  0  0  0
    5.0013    5.1654    0.0000 H   0  0  0  0  0  0  0  0  0  0  0  0
    5.9280    4.6304    0.0000 H   0  0  0  0  0  0  0  0  0  0  0  0
    3.3602    2.3229    0.0000 H   0  0  0  0  0  0  0  0  0  0  0  0
    5.2134    2.3229    0.0000 H   0  0  0  0  0  0  0  0  0  0  0  0
    4.2868    1.7879    0.0000 H   0  0  0  0  0  0  0  0  0  0  0  0
  1  2  1  0  0  0  0
  1 25  1  0  0  0  0
  1 26  1  0  0  0  0
  1 27  1  0  0  0  0
  2  3  1  0  0  0  0
  2 28  1  0  0  0  0
  2 29  1  0  0  0  0
  3  4  1  0  0  0  0
  4  5  2  0  0  0  0
  6  4  1  0  0  0  0
  6  7  1  0  0  0  0
  6  8  1  0  0  0  0
  6 30  1  6  0  0  0
  8  7  1  0  0  0  0
  8  9  1  0  0  0  0
  8 31  1  1  0  0  0
  9 10  2  0  0  0  0
  9 11  1  0  0  0  0
 11 32  1  0  0  0  0
 12 11  1  0  0  0  0
 12 13  1  0  0  0  0
 12 17  1  0  0  0  0
 12 33  1  1  0  0  0
 13 14  1  0  0  0  0
 13 34  1  0  0  0  0
 13 35  1  0  0  0  0
 14 15  1  0  0  0  0
 14 16  1  0  0  0  0
 14 36  1  0  0  0  0
 15 37  1  0  0  0  0
 15 38  1  0  0  0  0
 15 39  1  0  0  0  0
 16 40  1  0  0  0  0
 16 41  1  0  0  0  0
 16 42  1  0  0  0  0
 17 18  2  0  0  0  0
 17 19  1  0  0  0  0
 19 20  1  0  0  0  0
 19 43  1  0  0  0  0
 20 21  1  0  0  0  0
 20 44  1  0  0  0  0
 20 45  1  0  0  0  0
 21 22  1  0  0  0  0
 21 46  1  0  0  0  0
 21 47  1  0  0  0  0
 22 23  1  0  0  0  0
 22 24  1  0  0  0  0
 22 48  1  0  0  0  0
 23 49  1  0  0  0  0
 23 50  1  0  0  0  0
 23 51  1  0  0  0  0
 24 52  1  0  0  0  0
 24 53  1  0  0  0  0
 24 54  1  0  0  0  0
M  END
>  <DRUGBANK_ID>
DB18145

>  <COMMON_NAME>
Aloxistatin

>  <CAS_NUMBER>
88321-09-9

>  <UNII>
L5W337AOUR

>  <SYNONYMS>
Ethyl (+)-(2s,3s)-2,3-epoxy-n-((s)-1-(isopentylcarbamoyl)-3-methylbutyl)succinamate; Loxistatin

$$$$
