
 OpenBabel10282417072D

 69 73  0  0  0  0  0  0  0  0999 V2000
   -2.5769   -2.4043    0.0000 C   0  0  2  0  0  0  0  0  0  0  0  0
   -2.5769   -3.2408    0.0000 C   0  0  1  0  0  0  0  0  0  0  0  0
   -1.8658   -3.6591    0.0000 C   0  0  0  0  0  0  0  0  0  0  0  0
   -1.1131   -3.2408    0.0000 C   0  0  1  0  0  0  0  0  0  0  0  0
   -1.1131   -2.4043    0.0000 C   0  0  2  0  0  0  0  0  0  0  0  0
   -1.8658   -1.9860    0.0000 C   0  0  2  0  0  0  0  0  0  0  0  0
   -0.4019   -3.6591    0.0000 C   0  0  0  0  0  0  0  0  0  0  0  0
    0.3090   -3.2408    0.0000 C   0  0  1  0  0  0  0  0  0  0  0  0
    0.3090   -2.4043    0.0000 C   0  0  0  0  0  0  0  0  0  0  0  0
   -0.4019   -1.9860    0.0000 C   0  0  0  0  0  0  0  0  0  0  0  0
   -2.5769   -1.5677    0.0000 H   0  0  0  0  0  0  0  0  0  0  0  0
   -2.5769   -4.0773    0.0000 H   0  0  0  0  0  0  0  0  0  0  0  0
   -1.1131   -4.0773    0.0000 H   0  0  0  0  0  0  0  0  0  0  0  0
   -1.8658   -1.1495    0.0000 C   0  0  0  0  0  0  0  0  0  0  0  0
   -1.1131   -1.5677    0.0000 H   0  0  0  0  0  0  0  0  0  0  0  0
    1.0201   -3.6591    0.0000 N   0  0  0  0  0  0  0  0  0  0  0  0
    1.7311   -3.2408    0.0000 C   0  0  0  0  0  0  0  0  0  0  0  0
    2.4421   -3.6591    0.0000 O   0  0  0  0  0  0  0  0  0  0  0  0
    1.7311   -2.4043    0.0000 O   0  0  0  0  0  0  0  0  0  0  0  0
    3.1532   -3.2408    0.0000 C   0  0  0  0  0  0  0  0  0  0  0  0
    3.8642   -3.6591    0.0000 C   0  0  0  0  0  0  0  0  0  0  0  0
   -2.5769   -0.7313    0.0000 C   0  0  0  0  0  0  0  0  0  0  0  0
   -2.5769    0.1052    0.0000 C   0  0  0  0  0  0  0  0  0  0  0  0
   -1.8658    0.5234    0.0000 C   0  0  0  0  0  0  0  0  0  0  0  0
   -1.8658    1.3600    0.0000 C   0  0  0  0  0  0  0  0  0  0  0  0
   -2.5769    1.7782    0.0000 C   0  0  0  0  0  0  0  0  0  0  0  0
   -3.2880    1.3600    0.0000 C   0  0  0  0  0  0  0  0  0  0  0  0
   -3.2880    0.5234    0.0000 N   0  0  0  0  0  0  0  0  0  0  0  0
   -2.5769    2.6148    0.0000 C   0  0  0  0  0  0  0  0  0  0  0  0
   -1.8658    3.0330    0.0000 C   0  0  0  0  0  0  0  0  0  0  0  0
   -1.8658    3.8696    0.0000 C   0  0  0  0  0  0  0  0  0  0  0  0
   -2.5769    4.2877    0.0000 C   0  0  0  0  0  0  0  0  0  0  0  0
   -3.2880    3.8696    0.0000 C   0  0  0  0  0  0  0  0  0  0  0  0
   -3.2880    3.0330    0.0000 C   0  0  0  0  0  0  0  0  0  0  0  0
   -1.1548    4.2877    0.0000 F   0  0  0  0  0  0  0  0  0  0  0  0
   -3.3725   -2.1458    0.0000 C   0  0  2  0  0  0  0  0  0  0  0  0
   -3.8642   -2.8225    0.0000 O   0  0  0  0  0  0  0  0  0  0  0  0
   -3.3725   -3.4993    0.0000 C   0  0  0  0  0  0  0  0  0  0  0  0
   -3.6288   -1.3573    0.0000 C   0  0  0  0  0  0  0  0  0  0  0  0
   -3.6288   -4.2877    0.0000 O   0  0  0  0  0  0  0  0  0  0  0  0
   -1.8789   -4.7290    0.0000 H   0  0  0  0  0  0  0  0  0  0  0  0
   -0.9469   -4.2073    0.0000 H   0  0  0  0  0  0  0  0  0  0  0  0
   -0.9436   -1.4434    0.0000 H   0  0  0  0  0  0  0  0  0  0  0  0
   -0.4018   -4.7291    0.0000 H   0  0  0  0  0  0  0  0  0  0  0  0
    0.5270   -4.1902    0.0000 H   0  0  0  0  0  0  0  0  0  0  0  0
    0.3091   -4.3108    0.0000 H   0  0  0  0  0  0  0  0  0  0  0  0
    1.2378   -1.8731    0.0000 H   0  0  0  0  0  0  0  0  0  0  0  0
    0.3156   -1.3343    0.0000 H   0  0  0  0  0  0  0  0  0  0  0  0
   -0.4018   -0.9160    0.0000 H   0  0  0  0  0  0  0  0  0  0  0  0
   -1.3307   -1.4547    0.0000 H   0  0  0  0  0  0  0  0  0  0  0  0
   -0.9700   -0.6371    0.0000 H   0  0  0  0  0  0  0  0  0  0  0  0
    1.0201   -4.6436    0.0000 H   0  0  0  0  0  0  0  0  0  0  0  0
    3.1532   -2.1708    0.0000 H   0  0  0  0  0  0  0  0  0  0  0  0
    4.0820   -2.7096    0.0000 H   0  0  0  0  0  0  0  0  0  0  0  0
    3.8554   -4.7291    0.0000 H   0  0  0  0  0  0  0  0  0  0  0  0
    4.7952   -3.1317    0.0000 H   0  0  0  0  0  0  0  0  0  0  0  0
    4.7864   -4.2017    0.0000 H   0  0  0  0  0  0  0  0  0  0  0  0
   -3.4727   -1.2437    0.0000 H   0  0  0  0  0  0  0  0  0  0  0  0
   -0.9700    0.0110    0.0000 H   0  0  0  0  0  0  0  0  0  0  0  0
   -0.9700    1.8724    0.0000 H   0  0  0  0  0  0  0  0  0  0  0  0
   -4.1838    1.8724    0.0000 H   0  0  0  0  0  0  0  0  0  0  0  0
   -0.9700    2.5206    0.0000 H   0  0  0  0  0  0  0  0  0  0  0  0
   -2.5769    5.3197    0.0000 H   0  0  0  0  0  0  0  0  0  0  0  0
   -4.1838    4.3821    0.0000 H   0  0  0  0  0  0  0  0  0  0  0  0
   -4.1838    2.5206    0.0000 H   0  0  0  0  0  0  0  0  0  0  0  0
   -2.6159   -1.3891    0.0000 H   0  0  0  0  0  0  0  0  0  0  0  0
   -2.9129   -0.5621    0.0000 H   0  0  0  0  0  0  0  0  0  0  0  0
   -4.6754   -1.1350    0.0000 H   0  0  0  0  0  0  0  0  0  0  0  0
   -3.9596   -0.3397    0.0000 H   0  0  0  0  0  0  0  0  0  0  0  0
  1  2  1  0  0  0  0
  1  6  1  0  0  0  0
  1 11  1  6  0  0  0
  1 36  1  0  0  0  0
  2  3  1  0  0  0  0
  2 12  1  6  0  0  0
  2 38  1  0  0  0  0
  3  4  1  0  0  0  0
  3 41  1  0  0  0  0
  3 42  1  0  0  0  0
  4  5  1  0  0  0  0
  4  7  1  0  0  0  0
  4 13  1  6  0  0  0
  5  6  1  0  0  0  0
  5 10  1  0  0  0  0
  5 15  1  1  0  0  0
  6 14  1  0  0  0  0
  6 43  1  6  0  0  0
  7  8  1  0  0  0  0
  7 44  1  0  0  0  0
  7 45  1  0  0  0  0
  8  9  1  0  0  0  0
  8 16  1  0  0  0  0
  8 46  1  6  0  0  0
  9 10  1  0  0  0  0
  9 47  1  0  0  0  0
  9 48  1  0  0  0  0
 10 49  1  0  0  0  0
 10 50  1  0  0  0  0
 14 22  2  0  0  0  0
 14 51  1  0  0  0  0
 16 17  1  0  0  0  0
 16 52  1  0  0  0  0
 17 18  1  0  0  0  0
 17 19  2  0  0  0  0
 18 20  1  0  0  0  0
 20 21  1  0  0  0  0
 20 53  1  0  0  0  0
 20 54  1  0  0  0  0
 21 55  1  0  0  0  0
 21 56  1  0  0  0  0
 21 57  1  0  0  0  0
 22 23  1  0  0  0  0
 22 58  1  0  0  0  0
 23 24  2  0  0  0  0
 23 28  1  0  0  0  0
 24 25  1  0  0  0  0
 24 59  1  0  0  0  0
 25 26  2  0  0  0  0
 25 60  1  0  0  0  0
 26 27  1  0  0  0  0
 26 29  1  0  0  0  0
 27 28  2  0  0  0  0
 27 61  1  0  0  0  0
 29 30  2  0  0  0  0
 29 34  1  0  0  0  0
 30 31  1  0  0  0  0
 30 62  1  0  0  0  0
 31 32  2  0  0  0  0
 31 35  1  0  0  0  0
 32 33  1  0  0  0  0
 32 63  1  0  0  0  0
 33 34  2  0  0  0  0
 33 64  1  0  0  0  0
 34 65  1  0  0  0  0
 36 37  1  0  0  0  0
 36 39  1  0  0  0  0
 36 66  1  1  0  0  0
 37 38  1  0  0  0  0
 38 40  2  0  0  0  0
 39 67  1  0  0  0  0
 39 68  1  0  0  0  0
 39 69  1  0  0  0  0
M  END
>  <DRUGBANK_ID>
DB09030

>  <SECONDARY_ACCESSION_NUMBERS>
DB05692

>  <COMMON_NAME>
Vorapaxar

>  <CAS_NUMBER>
618385-01-6

>  <UNII>
ZCE93644N2

>  <SYNONYMS>
[(1R,3aR,4aR,6R,8aR,9S,9aS)-9-{(E)-2-[5-(3-Fluorophényl)-2-pyridinyl]vinyl}-1-méthyl-3-oxododécahydronaphto[2,3-c]furan-6-yl]carbamate d'éthyle; Carbamic acid, [(1R,3aR,4aR,6R,8aR,9S,9aS)-9-[(1E)-2-[5-(3-fluorophenyl)-2- pyridinyl]ethenyl]dodecahydro-1-methyl-3-oxonaphtho[2,3-c]furan-6-yl]-, ethyl ester; Carbamic acid, N-[(1R,3aR,4aR,6R,8aR,9S,9aS)-9-[(E)-2-[5-(3-fluorophenyl)-2-pyridinyl]ethenyl]dodecahydro-1-methyl-3-oxonaphtho[2,3-c]furan-6-yl]-, ethyl ester; Ethyl N-[(3R,3aS,4S,4aR,7R,8aR,9aR)-4-[(E)-2-[5-(3-fluorophenyl)-2-pyridyl]vinyl]-3-methyl-1-oxo-3a,4,4a,5,6,7,8,8a,9,9a-decahydro-3H-benzo[f]isobenzofuran-7-yl]carbamate; Vorapaxar

$$$$
