
 OpenBabel10282417072D

115114  0  0  0  0  0  0  0  0999 V2000
    0.5532   17.4009    0.0000 C   0  0  0  0  0  0  0  0  0  0  0  0
    1.2375   17.8618    0.0000 C   0  0  0  0  0  0  0  0  0  0  0  0
    1.9788   17.4996    0.0000 C   0  0  0  0  0  0  0  0  0  0  0  0
    2.6630   17.9605    0.0000 C   0  0  0  0  0  0  0  0  0  0  0  0
    3.4043   17.5984    0.0000 C   0  0  0  0  0  0  0  0  0  0  0  0
    4.0885   18.0593    0.0000 C   0  0  0  0  0  0  0  0  0  0  0  0
    4.8298   17.6972    0.0000 C   0  0  0  0  0  0  0  0  0  0  0  0
    5.5141   18.1581    0.0000 C   0  0  0  0  0  0  0  0  0  0  0  0
    6.2553   17.7959    0.0000 C   0  0  0  0  0  0  0  0  0  0  0  0
    6.9396   18.2568    0.0000 C   0  0  0  0  0  0  0  0  0  0  0  0
    7.6809   17.8947    0.0000 C   0  0  0  0  0  0  0  0  0  0  0  0
    8.3651   18.3556    0.0000 C   0  0  0  0  0  0  0  0  0  0  0  0
    9.1064   17.9935    0.0000 C   0  0  0  0  0  0  0  0  0  0  0  0
    9.7906   18.4544    0.0000 C   0  0  0  0  0  0  0  0  0  0  0  0
   10.5319   18.0922    0.0000 C   0  0  0  0  0  0  0  0  0  0  0  0
   11.2162   18.5531    0.0000 C   0  0  0  0  0  0  0  0  0  0  0  0
   11.1592   19.3761    0.0000 O   0  0  0  0  0  0  0  0  0  0  0  0
   11.9574   18.1910    0.0000 O   0  0  0  0  0  0  0  0  0  0  0  0
   12.6417   18.6519    0.0000 C   0  0  0  0  0  0  0  0  0  0  0  0
   13.3830   18.2897    0.0000 C   0  0  3  0  0  0  0  0  0  0  0  0
   13.4400   17.4667    0.0000 C   0  0  0  0  0  0  0  0  0  0  0  0
   14.1813   17.1046    0.0000 O   0  0  0  0  0  0  0  0  0  0  0  0
   14.2383   16.2816    0.0000 C   0  0  0  0  0  0  0  0  0  0  0  0
   14.9796   15.9194    0.0000 O   0  0  0  0  0  0  0  0  0  0  0  0
   13.5540   15.8207    0.0000 C   0  0  0  0  0  0  0  0  0  0  0  0
   14.0672   18.7506    0.0000 O   0  0  0  0  0  0  0  0  0  0  0  0
   14.8085   18.3885    0.0000 C   0  0  0  0  0  0  0  0  0  0  0  0
   14.8655   17.5655    0.0000 O   0  0  0  0  0  0  0  0  0  0  0  0
   15.4927   18.8494    0.0000 C   0  0  0  0  0  0  0  0  0  0  0  0
   16.2340   18.4873    0.0000 C   0  0  0  0  0  0  0  0  0  0  0  0
   16.9183   18.9482    0.0000 C   0  0  0  0  0  0  0  0  0  0  0  0
   17.6595   18.5860    0.0000 C   0  0  0  0  0  0  0  0  0  0  0  0
   18.3438   19.0469    0.0000 C   0  0  0  0  0  0  0  0  0  0  0  0
   19.0851   18.6848    0.0000 C   0  0  0  0  0  0  0  0  0  0  0  0
   19.1421   17.8618    0.0000 C   0  0  0  0  0  0  0  0  0  0  0  0
   18.4578   17.4009    0.0000 C   0  0  0  0  0  0  0  0  0  0  0  0
   18.5149   16.5779    0.0000 C   0  0  0  0  0  0  0  0  0  0  0  0
   19.2561   16.2157    0.0000 C   0  0  0  0  0  0  0  0  0  0  0  0
   19.3132   15.3927    0.0000 C   0  0  0  0  0  0  0  0  0  0  0  0
   20.0544   15.0306    0.0000 C   0  0  0  0  0  0  0  0  0  0  0  0
   20.7387   15.4915    0.0000 C   0  0  0  0  0  0  0  0  0  0  0  0
   21.4800   15.1293    0.0000 C   0  0  0  0  0  0  0  0  0  0  0  0
   22.1642   15.5902    0.0000 C   0  0  0  0  0  0  0  0  0  0  0  0
   22.9055   15.2281    0.0000 C   0  0  0  0  0  0  0  0  0  0  0  0
   23.5897   15.6890    0.0000 C   0  0  0  0  0  0  0  0  0  0  0  0
   -0.4082   17.8706    0.0000 H   0  0  0  0  0  0  0  0  0  0  0  0
    0.6271   16.3335    0.0000 H   0  0  0  0  0  0  0  0  0  0  0  0
   -0.3343   16.8032    0.0000 H   0  0  0  0  0  0  0  0  0  0  0  0
    1.1636   18.9292    0.0000 H   0  0  0  0  0  0  0  0  0  0  0  0
    2.1250   18.4595    0.0000 H   0  0  0  0  0  0  0  0  0  0  0  0
    2.0527   16.4322    0.0000 H   0  0  0  0  0  0  0  0  0  0  0  0
    2.9402   17.0299    0.0000 H   0  0  0  0  0  0  0  0  0  0  0  0
    2.5890   19.0279    0.0000 H   0  0  0  0  0  0  0  0  0  0  0  0
    3.5504   18.5583    0.0000 H   0  0  0  0  0  0  0  0  0  0  0  0
    3.4783   16.5310    0.0000 H   0  0  0  0  0  0  0  0  0  0  0  0
    4.3657   17.1288    0.0000 H   0  0  0  0  0  0  0  0  0  0  0  0
    4.0145   19.1267    0.0000 H   0  0  0  0  0  0  0  0  0  0  0  0
    4.9759   18.6571    0.0000 H   0  0  0  0  0  0  0  0  0  0  0  0
    4.9038   16.6298    0.0000 H   0  0  0  0  0  0  0  0  0  0  0  0
    5.7912   17.2275    0.0000 H   0  0  0  0  0  0  0  0  0  0  0  0
    5.4402   19.2255    0.0000 H   0  0  0  0  0  0  0  0  0  0  0  0
    6.4016   18.7558    0.0000 H   0  0  0  0  0  0  0  0  0  0  0  0
    6.3292   16.7285    0.0000 H   0  0  0  0  0  0  0  0  0  0  0  0
    7.2167   17.3262    0.0000 H   0  0  0  0  0  0  0  0  0  0  0  0
    6.8656   19.3242    0.0000 H   0  0  0  0  0  0  0  0  0  0  0  0
    7.8270   18.8546    0.0000 H   0  0  0  0  0  0  0  0  0  0  0  0
    7.7549   16.8273    0.0000 H   0  0  0  0  0  0  0  0  0  0  0  0
    8.6423   17.4251    0.0000 H   0  0  0  0  0  0  0  0  0  0  0  0
    8.2911   19.4230    0.0000 H   0  0  0  0  0  0  0  0  0  0  0  0
    9.2525   18.9534    0.0000 H   0  0  0  0  0  0  0  0  0  0  0  0
    9.1804   16.9261    0.0000 H   0  0  0  0  0  0  0  0  0  0  0  0
   10.0678   17.5239    0.0000 H   0  0  0  0  0  0  0  0  0  0  0  0
    9.7167   19.5218    0.0000 H   0  0  0  0  0  0  0  0  0  0  0  0
   10.6781   19.0521    0.0000 H   0  0  0  0  0  0  0  0  0  0  0  0
   10.6058   17.0248    0.0000 H   0  0  0  0  0  0  0  0  0  0  0  0
   11.4933   17.6225    0.0000 H   0  0  0  0  0  0  0  0  0  0  0  0
   12.5678   19.7193    0.0000 H   0  0  0  0  0  0  0  0  0  0  0  0
   13.5292   19.2496    0.0000 H   0  0  0  0  0  0  0  0  0  0  0  0
   12.4955   17.6920    0.0000 H   0  0  0  0  0  0  0  0  0  0  0  0
   12.5526   16.8689    0.0000 H   0  0  0  0  0  0  0  0  0  0  0  0
   13.5140   16.3993    0.0000 H   0  0  0  0  0  0  0  0  0  0  0  0
   12.5926   16.2904    0.0000 H   0  0  0  0  0  0  0  0  0  0  0  0
   13.6279   14.7533    0.0000 H   0  0  0  0  0  0  0  0  0  0  0  0
   12.6665   15.2230    0.0000 H   0  0  0  0  0  0  0  0  0  0  0  0
   15.4187   19.9168    0.0000 H   0  0  0  0  0  0  0  0  0  0  0  0
   16.3801   19.4472    0.0000 H   0  0  0  0  0  0  0  0  0  0  0  0
   16.3080   17.4199    0.0000 H   0  0  0  0  0  0  0  0  0  0  0  0
   17.1954   18.0176    0.0000 H   0  0  0  0  0  0  0  0  0  0  0  0
   16.8444   20.0156    0.0000 H   0  0  0  0  0  0  0  0  0  0  0  0
   17.8058   19.5459    0.0000 H   0  0  0  0  0  0  0  0  0  0  0  0
   17.7334   17.5186    0.0000 H   0  0  0  0  0  0  0  0  0  0  0  0
   18.6209   18.1163    0.0000 H   0  0  0  0  0  0  0  0  0  0  0  0
   18.2698   20.1143    0.0000 H   0  0  0  0  0  0  0  0  0  0  0  0
   19.2312   19.6447    0.0000 H   0  0  0  0  0  0  0  0  0  0  0  0
   19.9725   19.2826    0.0000 H   0  0  0  0  0  0  0  0  0  0  0  0
   20.0465   18.2151    0.0000 H   0  0  0  0  0  0  0  0  0  0  0  0
   20.1035   17.3921    0.0000 H   0  0  0  0  0  0  0  0  0  0  0  0
   19.2160   16.7944    0.0000 H   0  0  0  0  0  0  0  0  0  0  0  0
   17.5305   17.8539    0.0000 H   0  0  0  0  0  0  0  0  0  0  0  0
   17.6590   16.0014    0.0000 H   0  0  0  0  0  0  0  0  0  0  0  0
   20.1436   16.8135    0.0000 H   0  0  0  0  0  0  0  0  0  0  0  0
   20.2175   15.7461    0.0000 H   0  0  0  0  0  0  0  0  0  0  0  0
   18.4573   14.8161    0.0000 H   0  0  0  0  0  0  0  0  0  0  0  0
   20.1257   14.0011    0.0000 H   0  0  0  0  0  0  0  0  0  0  0  0
   20.6648   16.5589    0.0000 H   0  0  0  0  0  0  0  0  0  0  0  0
   21.6262   16.0892    0.0000 H   0  0  0  0  0  0  0  0  0  0  0  0
   21.5539   14.0619    0.0000 H   0  0  0  0  0  0  0  0  0  0  0  0
   22.4414   14.6596    0.0000 H   0  0  0  0  0  0  0  0  0  0  0  0
   22.0902   16.6576    0.0000 H   0  0  0  0  0  0  0  0  0  0  0  0
   23.0516   16.1880    0.0000 H   0  0  0  0  0  0  0  0  0  0  0  0
   22.9795   14.1607    0.0000 H   0  0  0  0  0  0  0  0  0  0  0  0
   23.8669   14.7585    0.0000 H   0  0  0  0  0  0  0  0  0  0  0  0
   24.5511   15.2194    0.0000 H   0  0  0  0  0  0  0  0  0  0  0  0
   23.5157   16.7564    0.0000 H   0  0  0  0  0  0  0  0  0  0  0  0
   24.4771   16.2868    0.0000 H   0  0  0  0  0  0  0  0  0  0  0  0
  1  2  1  0  0  0  0
  1 46  1  0  0  0  0
  1 47  1  0  0  0  0
  1 48  1  0  0  0  0
  2  3  1  0  0  0  0
  2 49  1  0  0  0  0
  2 50  1  0  0  0  0
  3  4  1  0  0  0  0
  3 51  1  0  0  0  0
  3 52  1  0  0  0  0
  4  5  1  0  0  0  0
  4 53  1  0  0  0  0
  4 54  1  0  0  0  0
  5  6  1  0  0  0  0
  5 55  1  0  0  0  0
  5 56  1  0  0  0  0
  6  7  1  0  0  0  0
  6 57  1  0  0  0  0
  6 58  1  0  0  0  0
  7  8  1  0  0  0  0
  7 59  1  0  0  0  0
  7 60  1  0  0  0  0
  8  9  1  0  0  0  0
  8 61  1  0  0  0  0
  8 62  1  0  0  0  0
  9 10  1  0  0  0  0
  9 63  1  0  0  0  0
  9 64  1  0  0  0  0
 10 11  1  0  0  0  0
 10 65  1  0  0  0  0
 10 66  1  0  0  0  0
 11 12  1  0  0  0  0
 11 67  1  0  0  0  0
 11 68  1  0  0  0  0
 12 13  1  0  0  0  0
 12 69  1  0  0  0  0
 12 70  1  0  0  0  0
 13 14  1  0  0  0  0
 13 71  1  0  0  0  0
 13 72  1  0  0  0  0
 14 15  1  0  0  0  0
 14 73  1  0  0  0  0
 14 74  1  0  0  0  0
 15 16  1  0  0  0  0
 15 75  1  0  0  0  0
 15 76  1  0  0  0  0
 16 17  2  0  0  0  0
 16 18  1  0  0  0  0
 18 19  1  0  0  0  0
 19 20  1  0  0  0  0
 19 77  1  0  0  0  0
 19 78  1  0  0  0  0
 20 21  1  0  0  0  0
 20 26  1  0  0  0  0
 20 79  1  0  0  0  0
 21 22  1  0  0  0  0
 21 80  1  0  0  0  0
 21 81  1  0  0  0  0
 22 23  1  0  0  0  0
 23 24  2  0  0  0  0
 23 25  1  0  0  0  0
 25 82  1  0  0  0  0
 25 83  1  0  0  0  0
 25 84  1  0  0  0  0
 26 27  1  0  0  0  0
 27 28  2  0  0  0  0
 27 29  1  0  0  0  0
 29 30  1  0  0  0  0
 29 85  1  0  0  0  0
 29 86  1  0  0  0  0
 30 31  1  0  0  0  0
 30 87  1  0  0  0  0
 30 88  1  0  0  0  0
 31 32  1  0  0  0  0
 31 89  1  0  0  0  0
 31 90  1  0  0  0  0
 32 33  1  0  0  0  0
 32 91  1  0  0  0  0
 32 92  1  0  0  0  0
 33 34  1  0  0  0  0
 33 93  1  0  0  0  0
 33 94  1  0  0  0  0
 34 35  1  0  0  0  0
 34 95  1  0  0  0  0
 34 96  1  0  0  0  0
 35 36  1  0  0  0  0
 35 97  1  0  0  0  0
 35 98  1  0  0  0  0
 36 37  2  0  0  0  0
 36 99  1  0  0  0  0
 37 38  1  0  0  0  0
 37100  1  0  0  0  0
 38 39  1  0  0  0  0
 38101  1  0  0  0  0
 38102  1  0  0  0  0
 39 40  2  0  0  0  0
 39103  1  0  0  0  0
 40 41  1  0  0  0  0
 40104  1  0  0  0  0
 41 42  1  0  0  0  0
 41105  1  0  0  0  0
 41106  1  0  0  0  0
 42 43  1  0  0  0  0
 42107  1  0  0  0  0
 42108  1  0  0  0  0
 43 44  1  0  0  0  0
 43109  1  0  0  0  0
 43110  1  0  0  0  0
 44 45  1  0  0  0  0
 44111  1  0  0  0  0
 44112  1  0  0  0  0
 45113  1  0  0  0  0
 45114  1  0  0  0  0
 45115  1  0  0  0  0
M  END
>  <DRUGBANK_ID>
DB12592

>  <COMMON_NAME>
Mosedipimod

>  <CAS_NUMBER>
221139-79-3

>  <UNII>
88928BS57E

>  <SYNONYMS>
1-Palmitoyl-2-linoleoyl-3-acetyl-rac-glycerol; Mosedipimod

$$$$
