716
 OpenBabel10282417072D

 44 46  0  0  0  0  0  0  0  0999 V2000
    4.2684    0.2492    0.0000 O   0  0  0  0  0  0  0  0  0  0  0  0
    7.1628   -2.2830    0.0000 O   0  0  0  0  0  0  0  0  0  0  0  0
    4.2780   -2.2830    0.0000 O   0  0  0  0  0  0  0  0  0  0  0  0
    9.3488   -0.1693    0.0000 O   0  0  0  0  0  0  0  0  0  0  0  0
    8.6296    1.0654    0.0000 O   0  0  0  0  0  0  0  0  0  0  0  0
    2.0920   -0.1693    0.0000 O   0  0  0  0  0  0  0  0  0  0  0  0
    2.8112    1.0654    0.0000 O   0  0  0  0  0  0  0  0  0  0  0  0
    7.1724    0.2492    0.0000 N   0  0  0  0  0  0  0  0  0  0  0  0
    6.4348   -0.1920    0.0000 C   0  0  0  0  0  0  0  0  0  0  0  0
    5.7204    0.2205    0.0000 C   0  0  0  0  0  0  0  0  0  0  0  0
    6.4348   -1.0170    0.0000 C   0  0  0  0  0  0  0  0  0  0  0  0
    5.7204    1.0455    0.0000 C   0  0  0  0  0  0  0  0  0  0  0  0
    5.0059   -0.1920    0.0000 C   0  0  0  0  0  0  0  0  0  0  0  0
    5.0059   -1.0170    0.0000 C   0  0  0  0  0  0  0  0  0  0  0  0
    5.7204   -1.4295    0.0000 C   0  0  0  0  0  0  0  0  0  0  0  0
    7.1628    1.0741    0.0000 C   0  0  0  0  0  0  0  0  0  0  0  0
    7.9198   -0.1748    0.0000 C   0  0  0  0  0  0  0  0  0  0  0  0
    5.0059    1.4580    0.0000 C   0  0  0  0  0  0  0  0  0  0  0  0
    7.1724   -1.4581    0.0000 C   0  0  0  0  0  0  0  0  0  0  0  0
    7.9198   -1.0341    0.0000 C   0  0  0  0  0  0  0  0  0  0  0  0
    4.2684   -1.4581    0.0000 C   0  0  0  0  0  0  0  0  0  0  0  0
    7.8725    1.4948    0.0000 C   0  0  0  0  0  0  0  0  0  0  0  0
    5.0059    2.2830    0.0000 C   0  0  0  0  0  0  0  0  0  0  0  0
    3.5209   -0.1748    0.0000 C   0  0  0  0  0  0  0  0  0  0  0  0
    3.5209   -1.0341    0.0000 C   0  0  0  0  0  0  0  0  0  0  0  0
    8.6327    0.2404    0.0000 C   0  0  0  0  0  0  0  0  0  0  0  0
    2.8081    0.2404    0.0000 C   0  0  0  0  0  0  0  0  0  0  0  0
    9.3525   -1.1063    0.0000 H   0  0  0  0  0  0  0  0  0  0  0  0
    1.2824    0.3024    0.0000 H   0  0  0  0  0  0  0  0  0  0  0  0
    6.6470    1.5805    0.0000 H   0  0  0  0  0  0  0  0  0  0  0  0
    5.7204    2.1155    0.0000 H   0  0  0  0  0  0  0  0  0  0  0  0
    5.7204   -2.4615    0.0000 H   0  0  0  0  0  0  0  0  0  0  0  0
    6.2300    1.5983    0.0000 H   0  0  0  0  0  0  0  0  0  0  0  0
    7.1505    2.1440    0.0000 H   0  0  0  0  0  0  0  0  0  0  0  0
    4.0793    0.9230    0.0000 H   0  0  0  0  0  0  0  0  0  0  0  0
    4.0793    1.9930    0.0000 H   0  0  0  0  0  0  0  0  0  0  0  0
    8.8116   -1.5535    0.0000 H   0  0  0  0  0  0  0  0  0  0  0  0
    8.8052    0.9705    0.0000 H   0  0  0  0  0  0  0  0  0  0  0  0
    7.8602    2.5647    0.0000 H   0  0  0  0  0  0  0  0  0  0  0  0
    8.7929    2.0404    0.0000 H   0  0  0  0  0  0  0  0  0  0  0  0
    5.9325    2.8180    0.0000 H   0  0  0  0  0  0  0  0  0  0  0  0
    4.0793    2.8180    0.0000 H   0  0  0  0  0  0  0  0  0  0  0  0
    5.0059    3.3530    0.0000 H   0  0  0  0  0  0  0  0  0  0  0  0
    2.6291   -1.5535    0.0000 H   0  0  0  0  0  0  0  0  0  0  0  0
  1 13  1  0  0  0  0
  1 24  1  0  0  0  0
  2 19  2  0  0  0  0
  3 21  2  0  0  0  0
  4 26  1  0  0  0  0
  4 28  1  0  0  0  0
  5 26  2  0  0  0  0
  6 27  1  0  0  0  0
  6 29  1  0  0  0  0
  7 27  2  0  0  0  0
  8  9  1  0  0  0  0
  8 16  1  0  0  0  0
  8 17  1  0  0  0  0
  9 10  2  0  0  0  0
  9 11  1  0  0  0  0
 10 12  1  0  0  0  0
 10 13  1  0  0  0  0
 11 15  2  0  0  0  0
 11 19  1  0  0  0  0
 12 18  1  0  0  0  0
 12 30  1  0  0  0  0
 12 31  1  0  0  0  0
 13 14  2  0  0  0  0
 14 15  1  0  0  0  0
 14 21  1  0  0  0  0
 15 32  1  0  0  0  0
 16 22  1  0  0  0  0
 16 33  1  0  0  0  0
 16 34  1  0  0  0  0
 17 20  2  0  0  0  0
 17 26  1  0  0  0  0
 18 23  1  0  0  0  0
 18 35  1  0  0  0  0
 18 36  1  0  0  0  0
 19 20  1  0  0  0  0
 20 37  1  0  0  0  0
 21 25  1  0  0  0  0
 22 38  1  0  0  0  0
 22 39  1  0  0  0  0
 22 40  1  0  0  0  0
 23 41  1  0  0  0  0
 23 42  1  0  0  0  0
 23 43  1  0  0  0  0
 24 25  2  0  0  0  0
 24 27  1  0  0  0  0
 25 44  1  0  0  0  0
M  END
>  <DRUGBANK_ID>
DB00716

>  <SECONDARY_ACCESSION_NUMBERS>
APRD01137

>  <COMMON_NAME>
Nedocromil

>  <CAS_NUMBER>
69049-73-6

>  <UNII>
0B535E0BN0

>  <SYNONYMS>
9-Ethyl-6,9-dihydro-4,6-dioxo-10-propyl-4H-pyrano(3,2-g)chinolin-2,8-dicarbonsäure; 9-ethyl-6,9-dihydro-4,6-dioxo-10-propyl-4H-pyrano(3,2-g)quinoline-2,8-dicarboxylic acid; Nédocromil; Nedocromil; Nedocromilo; Nedocromilum

$$$$
