
 OpenBabel10282417072D

 75 75  0  0  1  0  0  0  0  0999 V2000
    1.2801   -4.1554    0.0000 C   0  0  0  0  0  0  0  0  0  0  0  0
    1.2801   -4.9804    0.0000 C   0  0  0  0  0  0  0  0  0  0  0  0
    0.5657   -5.3929    0.0000 C   0  0  0  0  0  0  0  0  0  0  0  0
    1.9946   -5.3929    0.0000 C   0  0  0  0  0  0  0  0  0  0  0  0
    1.9946   -6.2179    0.0000 C   0  0  1  0  0  0  0  0  0  0  0  0
    1.2801   -6.6304    0.0000 C   0  0  0  0  0  0  0  0  0  0  0  0
    1.2801   -7.4554    0.0000 O   0  0  0  0  0  0  0  0  0  0  0  0
    0.5657   -6.2179    0.0000 N   0  0  0  0  0  0  0  0  0  0  0  0
   -0.1488   -6.6304    0.0000 C   0  0  2  0  0  0  0  0  0  0  0  0
   -0.8633   -6.2179    0.0000 C   0  0  0  0  0  0  0  0  0  0  0  0
   -0.8633   -5.3929    0.0000 O   0  0  0  0  0  0  0  0  0  0  0  0
   -1.5778   -6.6304    0.0000 N   0  0  0  0  0  0  0  0  0  0  0  0
   -2.2922   -6.2179    0.0000 C   0  0  0  0  0  0  0  0  0  0  0  0
   -0.1488   -7.4554    0.0000 C   0  0  0  0  0  0  0  0  0  0  0  0
   -0.9738   -7.4554    0.0000 C   0  0  0  0  0  0  0  0  0  0  0  0
    0.6762   -7.4554    0.0000 C   0  0  0  0  0  0  0  0  0  0  0  0
   -0.1488   -8.2804    0.0000 C   0  0  0  0  0  0  0  0  0  0  0  0
    2.7091   -6.6304    0.0000 N   0  0  0  0  0  0  0  0  0  0  0  0
    3.4235   -6.2179    0.0000 C   0  0  0  0  0  0  0  0  0  0  0  0
    3.4235   -5.3929    0.0000 O   0  0  0  0  0  0  0  0  0  0  0  0
    4.1380   -6.6304    0.0000 C   0  0  2  0  0  0  0  0  0  0  0  0
    4.8525   -6.2179    0.0000 C   0  0  0  0  0  0  0  0  0  0  0  0
    5.5670   -6.6304    0.0000 C   0  0  0  0  0  0  0  0  0  0  0  0
    6.2814   -6.2179    0.0000 N   0  0  0  0  0  0  0  0  0  0  0  0
    6.3677   -5.3974    0.0000 C   0  0  0  0  0  0  0  0  0  0  0  0
    5.7546   -4.8454    0.0000 O   0  0  0  0  0  0  0  0  0  0  0  0
    7.1746   -5.2259    0.0000 C   0  0  0  0  0  0  0  0  0  0  0  0
    7.5871   -5.9404    0.0000 N   0  0  0  0  0  0  0  0  0  0  0  0
    7.0351   -6.5535    0.0000 C   0  0  0  0  0  0  0  0  0  0  0  0
    7.2066   -7.3605    0.0000 O   0  0  0  0  0  0  0  0  0  0  0  0
    8.4076   -6.0266    0.0000 C   0  0  0  0  0  0  0  0  0  0  0  0
    7.0970   -4.4046    0.0000 C   0  0  0  0  0  0  0  0  0  0  0  0
    7.8370   -4.7340    0.0000 C   0  0  0  0  0  0  0  0  0  0  0  0
    4.1380   -7.4554    0.0000 S   0  0  0  0  0  0  0  0  0  0  0  0
    2.2067   -3.6204    0.0000 H   0  0  0  0  0  0  0  0  0  0  0  0
    0.3535   -3.6204    0.0000 H   0  0  0  0  0  0  0  0  0  0  0  0
    1.2801   -3.0854    0.0000 H   0  0  0  0  0  0  0  0  0  0  0  0
    1.2801   -6.0504    0.0000 H   0  0  0  0  0  0  0  0  0  0  0  0
   -0.3610   -4.8579    0.0000 H   0  0  0  0  0  0  0  0  0  0  0  0
    0.5657   -6.4629    0.0000 H   0  0  0  0  0  0  0  0  0  0  0  0
   -0.3609   -5.9279    0.0000 H   0  0  0  0  0  0  0  0  0  0  0  0
    2.9212   -4.8579    0.0000 H   0  0  0  0  0  0  0  0  0  0  0  0
    2.9212   -5.9279    0.0000 H   0  0  0  0  0  0  0  0  0  0  0  0
    2.9212   -5.6829    0.0000 H   0  0  0  0  0  0  0  0  0  0  0  0
    0.5657   -5.2334    0.0000 H   0  0  0  0  0  0  0  0  0  0  0  0
   -0.1488   -5.5604    0.0000 H   0  0  0  0  0  0  0  0  0  0  0  0
   -1.5778   -7.6149    0.0000 H   0  0  0  0  0  0  0  0  0  0  0  0
   -2.2922   -5.1479    0.0000 H   0  0  0  0  0  0  0  0  0  0  0  0
   -3.2189   -6.7529    0.0000 H   0  0  0  0  0  0  0  0  0  0  0  0
   -3.2188   -5.6829    0.0000 H   0  0  0  0  0  0  0  0  0  0  0  0
   -1.5088   -6.5288    0.0000 H   0  0  0  0  0  0  0  0  0  0  0  0
   -1.5088   -8.3820    0.0000 H   0  0  0  0  0  0  0  0  0  0  0  0
   -2.0438   -7.4554    0.0000 H   0  0  0  0  0  0  0  0  0  0  0  0
    1.2112   -8.3820    0.0000 H   0  0  0  0  0  0  0  0  0  0  0  0
    1.2112   -6.5288    0.0000 H   0  0  0  0  0  0  0  0  0  0  0  0
    1.7462   -7.4554    0.0000 H   0  0  0  0  0  0  0  0  0  0  0  0
   -1.0754   -8.8154    0.0000 H   0  0  0  0  0  0  0  0  0  0  0  0
    0.7778   -8.8154    0.0000 H   0  0  0  0  0  0  0  0  0  0  0  0
   -0.1488   -9.3504    0.0000 H   0  0  0  0  0  0  0  0  0  0  0  0
    2.7091   -7.6149    0.0000 H   0  0  0  0  0  0  0  0  0  0  0  0
    3.2114   -7.1654    0.0000 H   0  0  0  0  0  0  0  0  0  0  0  0
    4.8525   -5.1479    0.0000 H   0  0  0  0  0  0  0  0  0  0  0  0
    5.7791   -5.6829    0.0000 H   0  0  0  0  0  0  0  0  0  0  0  0
    5.5670   -7.7004    0.0000 H   0  0  0  0  0  0  0  0  0  0  0  0
    6.4937   -7.1654    0.0000 H   0  0  0  0  0  0  0  0  0  0  0  0
    8.8429   -7.0041    0.0000 H   0  0  0  0  0  0  0  0  0  0  0  0
    9.0365   -5.1609    0.0000 H   0  0  0  0  0  0  0  0  0  0  0  0
    9.4717   -6.1384    0.0000 H   0  0  0  0  0  0  0  0  0  0  0  0
    7.9692   -3.7848    0.0000 H   0  0  0  0  0  0  0  0  0  0  0  0
    6.1241   -3.9591    0.0000 H   0  0  0  0  0  0  0  0  0  0  0  0
    6.9964   -3.3393    0.0000 H   0  0  0  0  0  0  0  0  0  0  0  0
    8.8190   -5.1590    0.0000 H   0  0  0  0  0  0  0  0  0  0  0  0
    7.7141   -3.6711    0.0000 H   0  0  0  0  0  0  0  0  0  0  0  0
    8.6960   -4.0961    0.0000 H   0  0  0  0  0  0  0  0  0  0  0  0
    2.9602   -8.1354    0.0000 H   0  0  0  0  0  0  0  0  0  0  0  0
  1  2  1  0  0  0  0
  1 35  1  0  0  0  0
  1 36  1  0  0  0  0
  1 37  1  0  0  0  0
  2  3  1  0  0  0  0
  2  4  1  0  0  0  0
  2 38  1  0  0  0  0
  3 39  1  0  0  0  0
  3 40  1  0  0  0  0
  3 41  1  0  0  0  0
  4  5  1  0  0  0  0
  4 42  1  0  0  0  0
  4 43  1  0  0  0  0
  5  6  1  0  0  0  0
  5 18  1  0  0  0  0
  5 44  1  1  0  0  0
  6  7  2  0  0  0  0
  6  8  1  0  0  0  0
  8 45  1  0  0  0  0
  9  8  1  0  0  0  0
  9 10  1  0  0  0  0
  9 14  1  0  0  0  0
  9 46  1  6  0  0  0
 10 11  2  0  0  0  0
 10 12  1  0  0  0  0
 12 13  1  0  0  0  0
 12 47  1  0  0  0  0
 13 48  1  0  0  0  0
 13 49  1  0  0  0  0
 13 50  1  0  0  0  0
 14 15  1  0  0  0  0
 14 16  1  0  0  0  0
 14 17  1  0  0  0  0
 15 51  1  0  0  0  0
 15 52  1  0  0  0  0
 15 53  1  0  0  0  0
 16 54  1  0  0  0  0
 16 55  1  0  0  0  0
 16 56  1  0  0  0  0
 17 57  1  0  0  0  0
 17 58  1  0  0  0  0
 17 59  1  0  0  0  0
 18 19  1  0  0  0  0
 18 60  1  0  0  0  0
 19 20  2  0  0  0  0
 19 21  1  0  0  0  0
 21 22  1  0  0  0  0
 21 34  1  0  0  0  0
 21 61  1  1  0  0  0
 22 23  1  0  0  0  0
 22 62  1  0  0  0  0
 22 63  1  0  0  0  0
 23 24  1  0  0  0  0
 23 64  1  0  0  0  0
 23 65  1  0  0  0  0
 24 25  1  0  0  0  0
 24 29  1  0  0  0  0
 25 26  2  0  0  0  0
 25 27  1  0  0  0  0
 27 28  1  0  0  0  0
 27 32  1  0  0  0  0
 27 33  1  0  0  0  0
 28 29  1  0  0  0  0
 28 31  1  0  0  0  0
 29 30  2  0  0  0  0
 31 66  1  0  0  0  0
 31 67  1  0  0  0  0
 31 68  1  0  0  0  0
 32 69  1  0  0  0  0
 32 70  1  0  0  0  0
 32 71  1  0  0  0  0
 33 72  1  0  0  0  0
 33 73  1  0  0  0  0
 33 74  1  0  0  0  0
 34 75  1  0  0  0  0
M  END
>  <DRUGBANK_ID>
DB06573

>  <COMMON_NAME>
Rebimastat

>  <CAS_NUMBER>
259188-38-0

>  <UNII>
1B47R6ZX4K

>  <SYNONYMS>
Rebimastat

$$$$
