5281800
 OpenBabel10282417072D

 80 83  0  0  1  0  0  0  0  0999 V2000
    8.5234    2.2688    0.0000 O   0  0  0  0  0  0  0  0  0  0  0  0
    8.5234   -0.2063    0.0000 O   0  0  0  0  0  0  0  0  0  0  0  0
    9.9524    2.2688    0.0000 O   0  0  0  0  0  0  0  0  0  0  0  0
    7.0944    1.4438    0.0000 O   0  0  0  0  0  0  0  0  0  0  0  0
    9.9524   -0.2063    0.0000 O   0  0  0  0  0  0  0  0  0  0  0  0
    9.9524    1.4438    0.0000 O   0  0  0  0  0  0  0  0  0  0  0  0
    8.5234    3.9188    0.0000 O   0  0  0  0  0  0  0  0  0  0  0  0
    9.9524    4.7439    0.0000 O   0  0  0  0  0  0  0  0  0  0  0  0
   11.3814    3.9188    0.0000 O   0  0  0  0  0  0  0  0  0  0  0  0
    7.0944   -1.0313    0.0000 O   0  0  0  0  0  0  0  0  0  0  0  0
    6.3799    0.2063    0.0000 O   0  0  0  0  0  0  0  0  0  0  0  0
    9.2379   -3.9188    0.0000 O   0  0  0  0  0  0  0  0  0  0  0  0
   10.6668   -4.7439    0.0000 O   0  0  0  0  0  0  0  0  0  0  0  0
    3.5220    3.5063    0.0000 O   0  0  0  0  0  0  0  0  0  0  0  0
    2.0930    2.6813    0.0000 O   0  0  0  0  0  0  0  0  0  0  0  0
    8.5234    1.4438    0.0000 C   0  0  1  0  0  0  0  0  0  0  0  0
    7.8089    1.0313    0.0000 C   0  0  1  0  0  0  0  0  0  0  0  0
    9.2379    1.0313    0.0000 C   0  0  2  0  0  0  0  0  0  0  0  0
    7.8089    0.2063    0.0000 C   0  0  1  0  0  0  0  0  0  0  0  0
    9.2379    2.6813    0.0000 C   0  0  2  0  0  0  0  0  0  0  0  0
    9.2379    3.5063    0.0000 C   0  0  1  0  0  0  0  0  0  0  0  0
    9.2379    0.2063    0.0000 C   0  0  1  0  0  0  0  0  0  0  0  0
    9.9524    3.9188    0.0000 C   0  0  1  0  0  0  0  0  0  0  0  0
   10.6668    3.5063    0.0000 C   0  0  2  0  0  0  0  0  0  0  0  0
   10.6668    2.6813    0.0000 C   0  0  2  0  0  0  0  0  0  0  0  0
    7.0944   -0.2063    0.0000 C   0  0  0  0  0  0  0  0  0  0  0  0
   11.3814    2.2688    0.0000 C   0  0  0  0  0  0  0  0  0  0  0  0
    9.9524   -1.0313    0.0000 C   0  0  0  0  0  0  0  0  0  0  0  0
    6.3799    1.0313    0.0000 C   0  0  0  0  0  0  0  0  0  0  0  0
   10.6668   -1.4438    0.0000 C   0  0  0  0  0  0  0  0  0  0  0  0
    5.6655    1.4438    0.0000 C   0  0  0  0  0  0  0  0  0  0  0  0
   10.6668   -2.2688    0.0000 C   0  0  0  0  0  0  0  0  0  0  0  0
    4.9509    1.0313    0.0000 C   0  0  0  0  0  0  0  0  0  0  0  0
    9.9524   -2.6813    0.0000 C   0  0  0  0  0  0  0  0  0  0  0  0
   11.3814   -2.6813    0.0000 C   0  0  0  0  0  0  0  0  0  0  0  0
    9.9524   -3.5063    0.0000 C   0  0  0  0  0  0  0  0  0  0  0  0
   11.3814   -3.5063    0.0000 C   0  0  0  0  0  0  0  0  0  0  0  0
    4.2365    1.4438    0.0000 C   0  0  0  0  0  0  0  0  0  0  0  0
   10.6668   -3.9188    0.0000 C   0  0  0  0  0  0  0  0  0  0  0  0
    4.2365    2.2688    0.0000 C   0  0  0  0  0  0  0  0  0  0  0  0
    3.5220    1.0313    0.0000 C   0  0  0  0  0  0  0  0  0  0  0  0
    3.5220    2.6813    0.0000 C   0  0  0  0  0  0  0  0  0  0  0  0
    2.8075    1.4438    0.0000 C   0  0  0  0  0  0  0  0  0  0  0  0
    2.8075    2.2688    0.0000 C   0  0  0  0  0  0  0  0  0  0  0  0
   10.7924    0.9588    0.0000 H   0  0  0  0  0  0  0  0  0  0  0  0
    8.5234    4.8888    0.0000 H   0  0  0  0  0  0  0  0  0  0  0  0
   10.7924    5.2289    0.0000 H   0  0  0  0  0  0  0  0  0  0  0  0
   12.2214    3.4337    0.0000 H   0  0  0  0  0  0  0  0  0  0  0  0
    6.2544   -1.5163    0.0000 H   0  0  0  0  0  0  0  0  0  0  0  0
    8.4264   -3.4503    0.0000 H   0  0  0  0  0  0  0  0  0  0  0  0
    9.8553   -5.2124    0.0000 H   0  0  0  0  0  0  0  0  0  0  0  0
    4.3335    3.9748    0.0000 H   0  0  0  0  0  0  0  0  0  0  0  0
    2.0930    3.6183    0.0000 H   0  0  0  0  0  0  0  0  0  0  0  0
    7.5968    1.9788    0.0000 H   0  0  0  0  0  0  0  0  0  0  0  0
    7.8089    2.1013    0.0000 H   0  0  0  0  0  0  0  0  0  0  0  0
    9.2379    2.1013    0.0000 H   0  0  0  0  0  0  0  0  0  0  0  0
    7.8089   -0.8637    0.0000 H   0  0  0  0  0  0  0  0  0  0  0  0
    9.2379    1.6113    0.0000 H   0  0  0  0  0  0  0  0  0  0  0  0
    8.3113    2.9713    0.0000 H   0  0  0  0  0  0  0  0  0  0  0  0
    9.2379   -0.8637    0.0000 H   0  0  0  0  0  0  0  0  0  0  0  0
    9.0258    4.4538    0.0000 H   0  0  0  0  0  0  0  0  0  0  0  0
   10.6669    4.5763    0.0000 H   0  0  0  0  0  0  0  0  0  0  0  0
   10.6669    1.6113    0.0000 H   0  0  0  0  0  0  0  0  0  0  0  0
    6.1677    0.3287    0.0000 H   0  0  0  0  0  0  0  0  0  0  0  0
    7.0943    0.8637    0.0000 H   0  0  0  0  0  0  0  0  0  0  0  0
   11.3815    1.1988    0.0000 H   0  0  0  0  0  0  0  0  0  0  0  0
   12.3080    2.8039    0.0000 H   0  0  0  0  0  0  0  0  0  0  0  0
   12.3081    1.7339    0.0000 H   0  0  0  0  0  0  0  0  0  0  0  0
    9.0257   -1.5663    0.0000 H   0  0  0  0  0  0  0  0  0  0  0  0
    9.9524   -2.1013    0.0000 H   0  0  0  0  0  0  0  0  0  0  0  0
   11.5935   -0.9088    0.0000 H   0  0  0  0  0  0  0  0  0  0  0  0
   11.5934   -1.9788    0.0000 H   0  0  0  0  0  0  0  0  0  0  0  0
    5.6656    2.4758    0.0000 H   0  0  0  0  0  0  0  0  0  0  0  0
    4.9508   -0.0007    0.0000 H   0  0  0  0  0  0  0  0  0  0  0  0
    9.0587   -2.1653    0.0000 H   0  0  0  0  0  0  0  0  0  0  0  0
   12.2751   -2.1653    0.0000 H   0  0  0  0  0  0  0  0  0  0  0  0
   12.2751   -4.0223    0.0000 H   0  0  0  0  0  0  0  0  0  0  0  0
    5.1302    2.7848    0.0000 H   0  0  0  0  0  0  0  0  0  0  0  0
    3.5220   -0.0007    0.0000 H   0  0  0  0  0  0  0  0  0  0  0  0
    1.9138    0.9278    0.0000 H   0  0  0  0  0  0  0  0  0  0  0  0
  2 19  1  0  0  0  0
  2 22  1  0  0  0  0
  3 20  1  0  0  0  0
  3 25  1  0  0  0  0
  4 29  1  0  0  0  0
  5 28  1  0  0  0  0
  6 45  1  0  0  0  0
  7 46  1  0  0  0  0
  8 47  1  0  0  0  0
  9 48  1  0  0  0  0
 10 26  1  0  0  0  0
 10 49  1  0  0  0  0
 11 29  2  0  0  0  0
 12 36  1  0  0  0  0
 12 50  1  0  0  0  0
 13 39  1  0  0  0  0
 13 51  1  0  0  0  0
 14 42  1  0  0  0  0
 14 52  1  0  0  0  0
 15 44  1  0  0  0  0
 15 53  1  0  0  0  0
 16  1  1  0  0  0  0
 16 17  1  0  0  0  0
 16 18  1  0  0  0  0
 16 54  1  1  0  0  0
 17  4  1  0  0  0  0
 17 19  1  0  0  0  0
 17 55  1  6  0  0  0
 18  6  1  0  0  0  0
 18 22  1  0  0  0  0
 18 56  1  6  0  0  0
 19 26  1  0  0  0  0
 19 57  1  1  0  0  0
 20  1  1  0  0  0  0
 20 21  1  0  0  0  0
 20 58  1  6  0  0  0
 21  7  1  0  0  0  0
 21 23  1  0  0  0  0
 21 59  1  1  0  0  0
 22  5  1  0  0  0  0
 22 60  1  1  0  0  0
 23  8  1  0  0  0  0
 23 24  1  0  0  0  0
 23 61  1  1  0  0  0
 24  9  1  0  0  0  0
 24 25  1  0  0  0  0
 24 62  1  6  0  0  0
 25 27  1  0  0  0  0
 25 63  1  1  0  0  0
 26 64  1  0  0  0  0
 26 65  1  0  0  0  0
 27 66  1  0  0  0  0
 27 67  1  0  0  0  0
 27 68  1  0  0  0  0
 28 30  1  0  0  0  0
 28 69  1  0  0  0  0
 28 70  1  0  0  0  0
 29 31  1  0  0  0  0
 30 32  1  0  0  0  0
 30 71  1  0  0  0  0
 30 72  1  0  0  0  0
 31 33  2  0  0  0  0
 31 73  1  0  0  0  0
 32 34  2  0  0  0  0
 32 35  1  0  0  0  0
 33 38  1  0  0  0  0
 33 74  1  0  0  0  0
 34 36  1  0  0  0  0
 34 75  1  0  0  0  0
 35 37  2  0  0  0  0
 35 76  1  0  0  0  0
 36 39  2  0  0  0  0
 37 39  1  0  0  0  0
 37 77  1  0  0  0  0
 38 40  2  0  0  0  0
 38 41  1  0  0  0  0
 40 42  1  0  0  0  0
 40 78  1  0  0  0  0
 41 43  2  0  0  0  0
 41 79  1  0  0  0  0
 42 44  2  0  0  0  0
 43 44  1  0  0  0  0
 43 80  1  0  0  0  0
M  END
>  <DRUGBANK_ID>
DB12996

>  <COMMON_NAME>
Acteoside

>  <CAS_NUMBER>
61276-17-3

>  <UNII>
3TGX09BD5B

$$$$
