
 OpenBabel10282417072D

 28 28  0  0  0  0  0  0  0  0999 V2000
   -0.7143    0.0000    0.0000 C   0  0  0  0  0  0  0  0  0  0  0  0
   -1.4289    0.4123    0.0000 C   0  0  0  0  0  0  0  0  0  0  0  0
    0.0000    0.4125    0.0000 C   0  0  3  0  0  0  0  0  0  0  0  0
   -0.7143   -0.8249    0.0000 C   0  0  0  0  0  0  0  0  0  0  0  0
   -2.1433   -0.0001    0.0000 C   0  0  0  0  0  0  0  0  0  0  0  0
    0.7145    0.0000    0.0000 C   0  0  0  0  0  0  0  0  0  0  0  0
   -0.0001    1.2375    0.0000 O   0  0  0  0  0  0  0  0  0  0  0  0
   -1.4287   -1.2374    0.0000 C   0  0  0  0  0  0  0  0  0  0  0  0
   -2.1433   -0.8251    0.0000 C   0  0  0  0  0  0  0  0  0  0  0  0
   -2.8579    0.4121    0.0000 O   0  0  0  0  0  0  0  0  0  0  0  0
    1.4288    0.4126    0.0000 N   0  0  0  0  0  0  0  0  0  0  0  0
    2.1433    0.0001    0.0000 C   0  0  0  0  0  0  0  0  0  0  0  0
    2.8579    0.4127    0.0000 C   0  0  0  0  0  0  0  0  0  0  0  0
   -1.4290    1.4443    0.0000 H   0  0  0  0  0  0  0  0  0  0  0  0
    0.0001   -0.6575    0.0000 H   0  0  0  0  0  0  0  0  0  0  0  0
    0.1794   -1.3409    0.0000 H   0  0  0  0  0  0  0  0  0  0  0  0
    0.7146   -1.0700    0.0000 H   0  0  0  0  0  0  0  0  0  0  0  0
    1.6412   -0.5349    0.0000 H   0  0  0  0  0  0  0  0  0  0  0  0
    0.8399    1.7226    0.0000 H   0  0  0  0  0  0  0  0  0  0  0  0
   -1.4285   -2.2694    0.0000 H   0  0  0  0  0  0  0  0  0  0  0  0
   -3.0370   -1.3412    0.0000 H   0  0  0  0  0  0  0  0  0  0  0  0
   -2.8583    1.3491    0.0000 H   0  0  0  0  0  0  0  0  0  0  0  0
    1.4287    1.4326    0.0000 H   0  0  0  0  0  0  0  0  0  0  0  0
    2.1433   -1.0699    0.0000 H   0  0  0  0  0  0  0  0  0  0  0  0
    3.0700   -0.5349    0.0000 H   0  0  0  0  0  0  0  0  0  0  0  0
    3.7846   -0.1223    0.0000 H   0  0  0  0  0  0  0  0  0  0  0  0
    2.8579    1.4827    0.0000 H   0  0  0  0  0  0  0  0  0  0  0  0
    3.7845    0.9477    0.0000 H   0  0  0  0  0  0  0  0  0  0  0  0
  1  2  1  0  0  0  0
  1  3  1  0  0  0  0
  1  4  2  0  0  0  0
  2  5  2  0  0  0  0
  2 14  1  0  0  0  0
  3  6  1  0  0  0  0
  3  7  1  0  0  0  0
  3 15  1  0  0  0  0
  4  8  1  0  0  0  0
  4 16  1  0  0  0  0
  5  9  1  0  0  0  0
  5 10  1  0  0  0  0
  6 11  1  0  0  0  0
  6 17  1  0  0  0  0
  6 18  1  0  0  0  0
  7 19  1  0  0  0  0
  8  9  2  0  0  0  0
  8 20  1  0  0  0  0
  9 21  1  0  0  0  0
 10 22  1  0  0  0  0
 11 12  1  0  0  0  0
 11 23  1  0  0  0  0
 12 13  1  0  0  0  0
 12 24  1  0  0  0  0
 12 25  1  0  0  0  0
 13 26  1  0  0  0  0
 13 27  1  0  0  0  0
 13 28  1  0  0  0  0
M  END
>  <DRUGBANK_ID>
DB08985

>  <COMMON_NAME>
Etilefrine

>  <CAS_NUMBER>
709-55-7

>  <UNII>
ZB6F8MY53V

>  <SYNONYMS>
Etilefrina; Etilefrine; Etilefrinum

$$$$
