P29
 OpenBabel10282417072D

 41 44  0  0  0  0  0  0  0  0999 V2000
   -1.4831    0.5199    0.0000 N   0  0  0  0  0  0  0  0  0  0  0  0
   -1.9680    1.1874    0.0000 C   0  0  0  0  0  0  0  0  0  0  0  0
   -1.4831    1.8548    0.0000 C   0  0  0  0  0  0  0  0  0  0  0  0
   -0.6985    1.5999    0.0000 C   0  0  0  0  0  0  0  0  0  0  0  0
   -0.6985    0.7749    0.0000 N   0  0  0  0  0  0  0  0  0  0  0  0
    0.0160    2.0124    0.0000 N   0  0  0  0  0  0  0  0  0  0  0  0
    0.7305    1.5999    0.0000 C   0  0  0  0  0  0  0  0  0  0  0  0
    0.7305    0.7749    0.0000 N   0  0  0  0  0  0  0  0  0  0  0  0
    0.0160    0.3624    0.0000 C   0  0  0  0  0  0  0  0  0  0  0  0
    0.0160   -0.4626    0.0000 N   0  0  0  0  0  0  0  0  0  0  0  0
   -0.6985   -0.8751    0.0000 C   0  0  0  0  0  0  0  0  0  0  0  0
   -0.6985   -1.7001    0.0000 C   0  0  0  0  0  0  0  0  0  0  0  0
   -1.4130   -2.1126    0.0000 C   0  0  0  0  0  0  0  0  0  0  0  0
   -1.4992   -2.9331    0.0000 N   0  0  0  0  0  0  0  0  0  0  0  0
   -2.3062   -3.1046    0.0000 C   0  0  0  0  0  0  0  0  0  0  0  0
   -2.7187   -2.3902    0.0000 N   0  0  0  0  0  0  0  0  0  0  0  0
   -2.1666   -1.7771    0.0000 C   0  0  0  0  0  0  0  0  0  0  0  0
    1.4449    2.0124    0.0000 N   0  0  0  0  0  0  0  0  0  0  0  0
    2.1594    1.5999    0.0000 C   0  0  0  0  0  0  0  0  0  0  0  0
    2.8739    2.0124    0.0000 C   0  0  0  0  0  0  0  0  0  0  0  0
    3.5883    1.5999    0.0000 C   0  0  0  0  0  0  0  0  0  0  0  0
    3.5883    0.7749    0.0000 C   0  0  0  0  0  0  0  0  0  0  0  0
    2.8739    0.3624    0.0000 C   0  0  0  0  0  0  0  0  0  0  0  0
    2.1594    0.7749    0.0000 C   0  0  0  0  0  0  0  0  0  0  0  0
   -1.7380    2.6394    0.0000 C   0  0  0  0  0  0  0  0  0  0  0  0
   -1.9930    3.4240    0.0000 N   0  0  0  0  0  0  0  0  0  0  0  0
   -3.0000    1.1874    0.0000 H   0  0  0  0  0  0  0  0  0  0  0  0
    0.8686   -0.9549    0.0000 H   0  0  0  0  0  0  0  0  0  0  0  0
   -1.6251   -0.3401    0.0000 H   0  0  0  0  0  0  0  0  0  0  0  0
   -1.6251   -1.4101    0.0000 H   0  0  0  0  0  0  0  0  0  0  0  0
    0.2281   -2.2351    0.0000 H   0  0  0  0  0  0  0  0  0  0  0  0
   -0.6985   -2.7701    0.0000 H   0  0  0  0  0  0  0  0  0  0  0  0
   -0.7676   -3.5919    0.0000 H   0  0  0  0  0  0  0  0  0  0  0  0
   -2.7260   -4.0474    0.0000 H   0  0  0  0  0  0  0  0  0  0  0  0
   -2.3812   -0.7676    0.0000 H   0  0  0  0  0  0  0  0  0  0  0  0
    1.4449    2.9969    0.0000 H   0  0  0  0  0  0  0  0  0  0  0  0
    2.8739    3.0444    0.0000 H   0  0  0  0  0  0  0  0  0  0  0  0
    4.4820    2.1159    0.0000 H   0  0  0  0  0  0  0  0  0  0  0  0
    4.4820    0.2589    0.0000 H   0  0  0  0  0  0  0  0  0  0  0  0
    2.8739   -0.6696    0.0000 H   0  0  0  0  0  0  0  0  0  0  0  0
    1.2657    0.2589    0.0000 H   0  0  0  0  0  0  0  0  0  0  0  0
  1  2  2  0  0  0  0
  1  5  1  0  0  0  0
  2  3  1  0  0  0  0
  2 27  1  0  0  0  0
  3 25  1  0  0  0  0
  3  4  2  0  0  0  0
  4  6  1  0  0  0  0
  4  5  1  0  0  0  0
  5  9  1  0  0  0  0
  6  7  2  0  0  0  0
  7 18  1  0  0  0  0
  7  8  1  0  0  0  0
  8  9  2  0  0  0  0
  9 10  1  0  0  0  0
 10 11  1  0  0  0  0
 10 28  1  0  0  0  0
 11 12  1  0  0  0  0
 11 29  1  0  0  0  0
 11 30  1  0  0  0  0
 12 13  1  0  0  0  0
 12 31  1  0  0  0  0
 12 32  1  0  0  0  0
 13 14  1  0  0  0  0
 13 17  2  0  0  0  0
 14 15  1  0  0  0  0
 14 33  1  0  0  0  0
 15 16  2  0  0  0  0
 15 34  1  0  0  0  0
 16 17  1  0  0  0  0
 17 35  1  0  0  0  0
 18 19  1  0  0  0  0
 18 36  1  0  0  0  0
 19 20  1  0  0  0  0
 19 24  2  0  0  0  0
 20 21  2  0  0  0  0
 20 37  1  0  0  0  0
 21 22  1  0  0  0  0
 21 38  1  0  0  0  0
 22 23  2  0  0  0  0
 22 39  1  0  0  0  0
 23 24  1  0  0  0  0
 23 40  1  0  0  0  0
 24 41  1  0  0  0  0
 25 26  3  0  0  0  0
M  END
>  <DRUGBANK_ID>
DB08345

>  <COMMON_NAME>
4-(2-(1H-IMIDAZOL-4-YL)ETHYLAMINO)-2-(PHENYLAMINO)PYRAZOLO[1,5-A][1,3,5]TRIAZINE-8-CARBONITRILE

$$$$
