
 OpenBabel10282417072D

 63 65  0  0  1  0  0  0  0  0999 V2000
   -0.8250    0.8250    0.0000 C   0  0  1  0  0  0  0  0  0  0  0  0
    0.0000    0.0000    0.0000 N   0  0  0  0  0  0  0  0  0  0  0  0
    0.0000    0.8250    0.0000 C   0  0  2  0  0  0  0  0  0  0  0  0
   -0.8250    0.0000    0.0000 C   0  0  0  0  0  0  0  0  0  0  0  0
    1.2696    0.4125    0.0000 C   0  0  0  0  0  0  0  0  0  0  0  0
    0.7846    1.0800    0.0000 S   0  0  0  0  0  0  0  0  0  0  0  0
    1.9883    0.0076    0.0000 C   0  0  0  0  0  0  0  0  0  0  0  0
    1.9883    0.8175    0.0000 C   0  0  0  0  0  0  0  0  0  0  0  0
   -1.4083   -0.5833    0.0000 O   0  0  0  0  0  0  0  0  0  0  0  0
    0.0000    1.6500    0.0000 H   0  0  0  0  0  0  0  0  0  0  0  0
   -1.5395    1.2375    0.0000 N   0  0  0  0  0  0  0  0  0  0  0  0
   -2.2540    0.8250    0.0000 C   0  0  0  0  0  0  0  0  0  0  0  0
   -2.9684    1.2375    0.0000 N   0  0  0  0  0  0  0  0  0  0  0  0
   -3.6501    0.7728    0.0000 C   0  0  0  0  0  0  0  0  0  0  0  0
   -2.9068    2.0602    0.0000 C   0  0  0  0  0  0  0  0  0  0  0  0
   -3.5116    2.6213    0.0000 C   0  0  0  0  0  0  0  0  0  0  0  0
   -4.4384    1.0159    0.0000 C   0  0  0  0  0  0  0  0  0  0  0  0
   -4.3273    2.4984    0.0000 C   0  0  0  0  0  0  0  0  0  0  0  0
   -4.7398    1.7839    0.0000 C   0  0  0  0  0  0  0  0  0  0  0  0
   -2.2540    0.0000    0.0000 H   0  0  0  0  0  0  0  0  0  0  0  0
    3.6425   -1.0799    0.0000 C   0  0  0  0  0  0  0  0  0  0  0  0
    4.3570   -1.4924    0.0000 C   0  0  0  0  0  0  0  0  0  0  0  0
    2.9280   -1.4924    0.0000 O   0  0  0  0  0  0  0  0  0  0  0  0
    2.2135   -1.0799    0.0000 C   0  0  0  0  0  0  0  0  0  0  0  0
    3.6425   -0.2549    0.0000 O   0  0  0  0  0  0  0  0  0  0  0  0
    5.0714   -1.0799    0.0000 C   0  0  0  0  0  0  0  0  0  0  0  0
    4.3570   -2.3174    0.0000 C   0  0  0  0  0  0  0  0  0  0  0  0
    0.7846   -0.2549    0.0000 C   0  0  2  0  0  0  0  0  0  0  0  0
    0.7846   -1.0799    0.0000 C   0  0  0  0  0  0  0  0  0  0  0  0
    1.4991   -1.4924    0.0000 O   0  0  0  0  0  0  0  0  0  0  0  0
    0.0700   -1.4923    0.0000 O   0  0  0  0  0  0  0  0  0  0  0  0
    5.0714   -1.9049    0.0000 C   0  0  0  0  0  0  0  0  0  0  0  0
   -0.5481    1.8585    0.0000 H   0  0  0  0  0  0  0  0  0  0  0  0
    1.9996   -1.0623    0.0000 H   0  0  0  0  0  0  0  0  0  0  0  0
    2.9093    0.5523    0.0000 H   0  0  0  0  0  0  0  0  0  0  0  0
    2.9205   -0.5176    0.0000 H   0  0  0  0  0  0  0  0  0  0  0  0
    2.9093    0.2729    0.0000 H   0  0  0  0  0  0  0  0  0  0  0  0
    1.9995    1.8874    0.0000 H   0  0  0  0  0  0  0  0  0  0  0  0
    2.9205    1.3428    0.0000 H   0  0  0  0  0  0  0  0  0  0  0  0
   -3.4906   -0.2852    0.0000 H   0  0  0  0  0  0  0  0  0  0  0  0
   -4.4611    0.0748    0.0000 H   0  0  0  0  0  0  0  0  0  0  0  0
   -1.9108    2.4512    0.0000 H   0  0  0  0  0  0  0  0  0  0  0  0
   -2.7079    3.1116    0.0000 H   0  0  0  0  0  0  0  0  0  0  0  0
   -3.1962    3.6438    0.0000 H   0  0  0  0  0  0  0  0  0  0  0  0
   -4.2095    3.4323    0.0000 H   0  0  0  0  0  0  0  0  0  0  0  0
   -5.1662    0.2315    0.0000 H   0  0  0  0  0  0  0  0  0  0  0  0
   -5.4897    1.2148    0.0000 H   0  0  0  0  0  0  0  0  0  0  0  0
   -4.9300    3.3825    0.0000 H   0  0  0  0  0  0  0  0  0  0  0  0
   -5.3966    2.4584    0.0000 H   0  0  0  0  0  0  0  0  0  0  0  0
   -5.8068    1.8639    0.0000 H   0  0  0  0  0  0  0  0  0  0  0  0
   -5.2398    2.7299    0.0000 H   0  0  0  0  0  0  0  0  0  0  0  0
    2.2135   -0.0099    0.0000 H   0  0  0  0  0  0  0  0  0  0  0  0
    3.1401   -0.5449    0.0000 H   0  0  0  0  0  0  0  0  0  0  0  0
    5.9981   -1.6149    0.0000 H   0  0  0  0  0  0  0  0  0  0  0  0
    5.0714   -0.0099    0.0000 H   0  0  0  0  0  0  0  0  0  0  0  0
    5.9980   -0.5449    0.0000 H   0  0  0  0  0  0  0  0  0  0  0  0
    3.4304   -2.8524    0.0000 H   0  0  0  0  0  0  0  0  0  0  0  0
    5.2836   -2.8524    0.0000 H   0  0  0  0  0  0  0  0  0  0  0  0
    4.3570   -3.3874    0.0000 H   0  0  0  0  0  0  0  0  0  0  0  0
   -0.0810   -0.8838    0.0000 H   0  0  0  0  0  0  0  0  0  0  0  0
    5.0714   -2.9749    0.0000 H   0  0  0  0  0  0  0  0  0  0  0  0
    5.9981   -1.3699    0.0000 H   0  0  0  0  0  0  0  0  0  0  0  0
    5.9980   -2.4399    0.0000 H   0  0  0  0  0  0  0  0  0  0  0  0
  1  4  1  0  0  0  0
  1 11  1  0  0  0  0
  1 33  1  6  0  0  0
  3  1  1  0  0  0  0
  3  2  1  0  0  0  0
  3  6  1  0  0  0  0
  3 10  1  6  0  0  0
  4  2  1  0  0  0  0
  5 28  1  0  0  0  0
  6  5  1  0  0  0  0
  7  5  1  0  0  0  0
  7 34  1  0  0  0  0
  7 35  1  0  0  0  0
  7 36  1  0  0  0  0
  8  5  1  0  0  0  0
  8 37  1  0  0  0  0
  8 38  1  0  0  0  0
  8 39  1  0  0  0  0
  9  4  2  0  0  0  0
 12 11  2  3  0  0  0
 12 20  1  0  0  0  0
 13 12  1  0  0  0  0
 14 13  1  0  0  0  0
 14 40  1  0  0  0  0
 14 41  1  0  0  0  0
 15 13  1  0  0  0  0
 15 42  1  0  0  0  0
 15 43  1  0  0  0  0
 16 15  1  0  0  0  0
 16 44  1  0  0  0  0
 16 45  1  0  0  0  0
 17 14  1  0  0  0  0
 17 46  1  0  0  0  0
 17 47  1  0  0  0  0
 18 16  1  0  0  0  0
 18 48  1  0  0  0  0
 18 49  1  0  0  0  0
 19 17  1  0  0  0  0
 19 18  1  0  0  0  0
 19 50  1  0  0  0  0
 19 51  1  0  0  0  0
 22 21  1  0  0  0  0
 22 32  1  0  0  0  0
 23 21  1  0  0  0  0
 24 30  1  0  0  0  0
 24 23  1  0  0  0  0
 24 52  1  0  0  0  0
 24 53  1  0  0  0  0
 25 21  2  0  0  0  0
 26 22  1  0  0  0  0
 26 54  1  0  0  0  0
 26 55  1  0  0  0  0
 26 56  1  0  0  0  0
 27 22  1  0  0  0  0
 27 57  1  0  0  0  0
 27 58  1  0  0  0  0
 27 59  1  0  0  0  0
 28  2  1  0  0  0  0
 28 29  1  0  0  0  0
 28 60  1  1  0  0  0
 30 29  1  0  0  0  0
 31 29  2  0  0  0  0
 32 61  1  0  0  0  0
 32 62  1  0  0  0  0
 32 63  1  0  0  0  0
M  END
>  <DRUGBANK_ID>
DB01605

>  <COMMON_NAME>
Pivmecillinam

>  <CAS_NUMBER>
32886-97-8

>  <UNII>
1WAM1OQ30B

>  <SYNONYMS>
Amdinocillin pivoxil; amdinocillin, pivaloyloxymethyl ester; Pivmecilinamo; Pivmecillinam; Pivmecillinamum

$$$$
