13U
 OpenBabel10282417072D

 65 67  0  0  0  0  0  0  0  0999 V2000
   -0.3654    0.5415    0.0000 O   0  0  0  0  0  0  0  0  0  0  0  0
    0.3491    0.1290    0.0000 C   0  0  0  0  0  0  0  0  0  0  0  0
    1.0636    0.5415    0.0000 N   0  0  0  0  0  0  0  0  0  0  0  0
    1.0636    1.3665    0.0000 C   0  0  0  0  0  0  0  0  0  0  0  0
    1.7780    1.7790    0.0000 C   0  0  0  0  0  0  0  0  0  0  0  0
    1.7780    2.6040    0.0000 C   0  0  0  0  0  0  0  0  0  0  0  0
    2.4925    3.0165    0.0000 C   0  0  0  0  0  0  0  0  0  0  0  0
    3.2070    2.6040    0.0000 C   0  0  0  0  0  0  0  0  0  0  0  0
    3.9214    3.0165    0.0000 C   0  0  0  0  0  0  0  0  0  0  0  0
    4.6359    2.6040    0.0000 N   0  0  0  0  0  0  0  0  0  0  0  0
    3.9214    3.8415    0.0000 N   0  0  0  0  0  0  0  0  0  0  0  0
    3.2070    1.7790    0.0000 C   0  0  0  0  0  0  0  0  0  0  0  0
    2.4925    1.3665    0.0000 C   0  0  0  0  0  0  0  0  0  0  0  0
    0.3491   -0.6960    0.0000 C   0  0  2  0  0  0  0  0  0  0  0  0
    1.0165   -1.1809    0.0000 C   0  0  0  0  0  0  0  0  0  0  0  0
    0.7616   -1.9655    0.0000 C   0  0  0  0  0  0  0  0  0  0  0  0
   -0.0634   -1.9655    0.0000 C   0  0  0  0  0  0  0  0  0  0  0  0
   -0.3184   -1.1809    0.0000 N   0  0  0  0  0  0  0  0  0  0  0  0
   -1.1030   -0.9259    0.0000 C   0  0  0  0  0  0  0  0  0  0  0  0
   -1.7161   -1.4780    0.0000 O   0  0  0  0  0  0  0  0  0  0  0  0
   -1.2745   -0.1190    0.0000 C   0  0  0  0  0  0  0  0  0  0  0  0
   -2.0591    0.1360    0.0000 N   0  0  0  0  0  0  0  0  0  0  0  0
   -2.6722   -0.4161    0.0000 C   0  0  0  0  0  0  0  0  0  0  0  0
   -2.3968   -1.1937    0.0000 C   0  0  0  0  0  0  0  0  0  0  0  0
   -2.7520   -1.9384    0.0000 C   0  0  0  0  0  0  0  0  0  0  0  0
   -3.5297   -2.2138    0.0000 C   0  0  0  0  0  0  0  0  0  0  0  0
   -4.2743   -1.8586    0.0000 C   0  0  0  0  0  0  0  0  0  0  0  0
   -4.5497   -1.0809    0.0000 C   0  0  0  0  0  0  0  0  0  0  0  0
   -4.1945   -0.3363    0.0000 C   0  0  0  0  0  0  0  0  0  0  0  0
   -3.4169   -0.0609    0.0000 C   0  0  0  0  0  0  0  0  0  0  0  0
    0.8694   -0.4309    0.0000 H   0  0  0  0  0  0  0  0  0  0  0  0
    1.9162    0.0492    0.0000 H   0  0  0  0  0  0  0  0  0  0  0  0
    0.1369    1.9015    0.0000 H   0  0  0  0  0  0  0  0  0  0  0  0
    1.0636    2.4365    0.0000 H   0  0  0  0  0  0  0  0  0  0  0  0
    0.8843    3.1200    0.0000 H   0  0  0  0  0  0  0  0  0  0  0  0
    2.4925    4.0485    0.0000 H   0  0  0  0  0  0  0  0  0  0  0  0
    4.6359    1.6195    0.0000 H   0  0  0  0  0  0  0  0  0  0  0  0
    4.7740    4.3338    0.0000 H   0  0  0  0  0  0  0  0  0  0  0  0
    3.0688    4.3338    0.0000 H   0  0  0  0  0  0  0  0  0  0  0  0
    4.1007    1.2630    0.0000 H   0  0  0  0  0  0  0  0  0  0  0  0
    2.4925    0.3345    0.0000 H   0  0  0  0  0  0  0  0  0  0  0  0
    2.0341   -0.8502    0.0000 H   0  0  0  0  0  0  0  0  0  0  0  0
    1.7731   -1.9375    0.0000 H   0  0  0  0  0  0  0  0  0  0  0  0
    1.3905   -2.8311    0.0000 H   0  0  0  0  0  0  0  0  0  0  0  0
    0.2758   -2.9189    0.0000 H   0  0  0  0  0  0  0  0  0  0  0  0
   -0.6923   -2.8312    0.0000 H   0  0  0  0  0  0  0  0  0  0  0  0
   -1.1202   -1.7982    0.0000 H   0  0  0  0  0  0  0  0  0  0  0  0
   -0.4793    0.5969    0.0000 H   0  0  0  0  0  0  0  0  0  0  0  0
   -1.4969    0.9276    0.0000 H   0  0  0  0  0  0  0  0  0  0  0  0
   -2.2712    1.1337    0.0000 H   0  0  0  0  0  0  0  0  0  0  0  0
   -3.4673   -1.1321    0.0000 H   0  0  0  0  0  0  0  0  0  0  0  0
   -1.3283   -1.2497    0.0000 H   0  0  0  0  0  0  0  0  0  0  0  0
   -1.8497   -2.1133    0.0000 H   0  0  0  0  0  0  0  0  0  0  0  0
   -2.0360   -2.7336    0.0000 H   0  0  0  0  0  0  0  0  0  0  0  0
   -3.0154   -2.9755    0.0000 H   0  0  0  0  0  0  0  0  0  0  0  0
   -3.5857   -3.2823    0.0000 H   0  0  0  0  0  0  0  0  0  0  0  0
   -4.4493   -2.7609    0.0000 H   0  0  0  0  0  0  0  0  0  0  0  0
   -5.0695   -2.5746    0.0000 H   0  0  0  0  0  0  0  0  0  0  0  0
   -5.3114   -1.5952    0.0000 H   0  0  0  0  0  0  0  0  0  0  0  0
   -5.6182   -1.0249    0.0000 H   0  0  0  0  0  0  0  0  0  0  0  0
   -5.0968   -0.1613    0.0000 H   0  0  0  0  0  0  0  0  0  0  0  0
   -4.9105    0.4589    0.0000 H   0  0  0  0  0  0  0  0  0  0  0  0
   -3.9311    0.7008    0.0000 H   0  0  0  0  0  0  0  0  0  0  0  0
   -3.3609    1.0076    0.0000 H   0  0  0  0  0  0  0  0  0  0  0  0
   -4.2743    0.5793    0.0000 H   0  0  0  0  0  0  0  0  0  0  0  0
  1  2  2  0  0  0  0
  2  3  1  0  0  0  0
  3  4  1  0  0  0  0
  3 32  1  0  0  0  0
  4  5  1  0  0  0  0
  4 33  1  0  0  0  0
  4 34  1  0  0  0  0
  5  6  2  0  0  0  0
  5 13  1  0  0  0  0
  6  7  1  0  0  0  0
  6 35  1  0  0  0  0
  7  8  2  0  0  0  0
  7 36  1  0  0  0  0
  8  9  1  0  0  0  0
  8 12  1  0  0  0  0
  9 10  2  0  0  0  0
  9 11  1  0  0  0  0
 10 37  1  0  0  0  0
 11 38  1  0  0  0  0
 11 39  1  0  0  0  0
 12 13  2  0  0  0  0
 12 40  1  0  0  0  0
 13 41  1  0  0  0  0
 14  2  1  0  0  0  0
 14 15  1  0  0  0  0
 14 18  1  0  0  0  0
 14 31  1  1  0  0  0
 15 16  1  0  0  0  0
 15 42  1  0  0  0  0
 15 43  1  0  0  0  0
 16 17  1  0  0  0  0
 16 44  1  0  0  0  0
 16 45  1  0  0  0  0
 17 18  1  0  0  0  0
 17 46  1  0  0  0  0
 17 47  1  0  0  0  0
 18 19  1  0  0  0  0
 19 20  2  0  0  0  0
 19 21  1  0  0  0  0
 21 22  1  0  0  0  0
 21 48  1  0  0  0  0
 21 49  1  0  0  0  0
 22 23  1  0  0  0  0
 22 50  1  0  0  0  0
 23 24  1  0  0  0  0
 23 30  1  0  0  0  0
 23 51  1  0  0  0  0
 24 25  1  0  0  0  0
 24 52  1  0  0  0  0
 24 53  1  0  0  0  0
 25 26  1  0  0  0  0
 25 54  1  0  0  0  0
 25 55  1  0  0  0  0
 26 27  1  0  0  0  0
 26 56  1  0  0  0  0
 26 57  1  0  0  0  0
 27 28  1  0  0  0  0
 27 58  1  0  0  0  0
 27 59  1  0  0  0  0
 28 29  1  0  0  0  0
 28 60  1  0  0  0  0
 28 61  1  0  0  0  0
 29 30  1  0  0  0  0
 29 62  1  0  0  0  0
 29 63  1  0  0  0  0
 30 64  1  0  0  0  0
 30 65  1  0  0  0  0
M  END
>  <DRUGBANK_ID>
DB06858

>  <COMMON_NAME>
N-cyclooctylglycyl-N-(4-carbamimidoylbenzyl)-L-prolinamide

$$$$
