MTH
 OpenBabel10282417072D

 36 38  0  0  0  0  0  0  0  0999 V2000
   -2.0083   -2.7909    0.0000 C   0  0  0  0  0  0  0  0  0  0  0  0
   -1.3409   -2.3060    0.0000 S   0  0  0  0  0  0  0  0  0  0  0  0
   -1.4271   -1.4855    0.0000 C   0  0  0  0  0  0  0  0  0  0  0  0
   -0.7597   -1.0006    0.0000 C   0  0  1  0  0  0  0  0  0  0  0  0
   -0.7597   -0.1756    0.0000 O   0  0  0  0  0  0  0  0  0  0  0  0
    0.5099   -0.5881    0.0000 C   0  0  2  0  0  0  0  0  0  0  0  0
    1.3349   -0.5881    0.0000 O   0  0  0  0  0  0  0  0  0  0  0  0
    0.0249   -1.2555    0.0000 C   0  0  2  0  0  0  0  0  0  0  0  0
    0.2799   -2.0401    0.0000 O   0  0  0  0  0  0  0  0  0  0  0  0
    0.0249    0.0794    0.0000 C   0  0  2  0  0  0  0  0  0  0  0  0
    0.2799    0.8640    0.0000 N   0  0  0  0  0  0  0  0  0  0  0  0
   -0.2050    1.5314    0.0000 C   0  0  0  0  0  0  0  0  0  0  0  0
    0.2799    2.1989    0.0000 C   0  0  0  0  0  0  0  0  0  0  0  0
    1.0645    1.9439    0.0000 C   0  0  0  0  0  0  0  0  0  0  0  0
    1.7790    2.3564    0.0000 C   0  0  0  0  0  0  0  0  0  0  0  0
    1.7790    3.1814    0.0000 N   0  0  0  0  0  0  0  0  0  0  0  0
    2.4934    1.9439    0.0000 N   0  0  0  0  0  0  0  0  0  0  0  0
    2.4934    1.1189    0.0000 C   0  0  0  0  0  0  0  0  0  0  0  0
    1.7790    0.7064    0.0000 N   0  0  0  0  0  0  0  0  0  0  0  0
    1.0645    1.1189    0.0000 C   0  0  0  0  0  0  0  0  0  0  0  0
   -1.2800   -0.7355    0.0000 H   0  0  0  0  0  0  0  0  0  0  0  0
    0.7750   -1.1084    0.0000 H   0  0  0  0  0  0  0  0  0  0  0  0
   -0.3880   -1.6684    0.0000 H   0  0  0  0  0  0  0  0  0  0  0  0
   -0.3880    0.4923    0.0000 H   0  0  0  0  0  0  0  0  0  0  0  0
   -2.9858   -2.3557    0.0000 H   0  0  0  0  0  0  0  0  0  0  0  0
   -1.8964   -3.8550    0.0000 H   0  0  0  0  0  0  0  0  0  0  0  0
   -2.8739   -3.4198    0.0000 H   0  0  0  0  0  0  0  0  0  0  0  0
   -2.4046   -1.0503    0.0000 H   0  0  0  0  0  0  0  0  0  0  0  0
   -1.5389   -0.4214    0.0000 H   0  0  0  0  0  0  0  0  0  0  0  0
    1.8199   -1.4281    0.0000 H   0  0  0  0  0  0  0  0  0  0  0  0
   -0.3691   -2.7610    0.0000 H   0  0  0  0  0  0  0  0  0  0  0  0
   -1.2370    1.5314    0.0000 H   0  0  0  0  0  0  0  0  0  0  0  0
   -0.0390    3.1804    0.0000 H   0  0  0  0  0  0  0  0  0  0  0  0
    2.6316    3.6737    0.0000 H   0  0  0  0  0  0  0  0  0  0  0  0
    0.9264    3.6736    0.0000 H   0  0  0  0  0  0  0  0  0  0  0  0
    3.3871    0.6029    0.0000 H   0  0  0  0  0  0  0  0  0  0  0  0
  1  2  1  0  0  0  0
  1 25  1  0  0  0  0
  1 26  1  0  0  0  0
  1 27  1  0  0  0  0
  2  3  1  0  0  0  0
  3 28  1  0  0  0  0
  3 29  1  0  0  0  0
  4  3  1  0  0  0  0
  4  5  1  0  0  0  0
  4  8  1  0  0  0  0
  4 21  1  6  0  0  0
  5 10  1  0  0  0  0
  6  7  1  0  0  0  0
  6  8  1  0  0  0  0
  6 10  1  0  0  0  0
  6 22  1  1  0  0  0
  7 30  1  0  0  0  0
  8  9  1  0  0  0  0
  8 23  1  1  0  0  0
  9 31  1  0  0  0  0
 10 11  1  0  0  0  0
 10 24  1  6  0  0  0
 11 12  1  0  0  0  0
 11 20  1  0  0  0  0
 12 13  2  0  0  0  0
 12 32  1  0  0  0  0
 13 14  1  0  0  0  0
 13 33  1  0  0  0  0
 14 15  2  0  0  0  0
 14 20  1  0  0  0  0
 15 16  1  0  0  0  0
 15 17  1  0  0  0  0
 16 34  1  0  0  0  0
 16 35  1  0  0  0  0
 17 18  2  0  0  0  0
 18 19  1  0  0  0  0
 18 36  1  0  0  0  0
 19 20  2  0  0  0  0
M  END
>  <DRUGBANK_ID>
DB02933

>  <SECONDARY_ACCESSION_NUMBERS>
EXPT02244

>  <COMMON_NAME>
5'-Deoxy-5'-(Methylthio)-Tubercidin

$$$$
