4833
 OpenBabel10282417072D

 33 35  0  0  0  0  0  0  0  0999 V2000
    4.5079   -1.0455    0.0000 O   0  0  0  0  0  0  0  0  0  0  0  0
    3.7934    0.1920    0.0000 N   0  0  0  0  0  0  0  0  0  0  0  0
    4.5079    1.4295    0.0000 N   0  0  0  0  0  0  0  0  0  0  0  0
    3.0790   -0.2205    0.0000 C   0  0  0  0  0  0  0  0  0  0  0  0
    3.7934    1.0170    0.0000 C   0  0  0  0  0  0  0  0  0  0  0  0
    5.2223    0.1920    0.0000 C   0  0  0  0  0  0  0  0  0  0  0  0
    4.5079   -0.2205    0.0000 C   0  0  0  0  0  0  0  0  0  0  0  0
    2.3645    0.1920    0.0000 C   0  0  0  0  0  0  0  0  0  0  0  0
    5.2223    1.0170    0.0000 C   0  0  0  0  0  0  0  0  0  0  0  0
    3.0790   -1.0455    0.0000 C   0  0  0  0  0  0  0  0  0  0  0  0
    5.9599   -0.2492    0.0000 C   0  0  0  0  0  0  0  0  0  0  0  0
    3.0790    1.4295    0.0000 C   0  0  0  0  0  0  0  0  0  0  0  0
    1.6500   -0.2205    0.0000 C   0  0  0  0  0  0  0  0  0  0  0  0
    5.9599    1.4580    0.0000 C   0  0  0  0  0  0  0  0  0  0  0  0
    2.3645    1.0170    0.0000 C   0  0  0  0  0  0  0  0  0  0  0  0
    2.3645   -1.4580    0.0000 C   0  0  0  0  0  0  0  0  0  0  0  0
    1.6500   -1.0455    0.0000 C   0  0  0  0  0  0  0  0  0  0  0  0
    6.7073    0.1748    0.0000 C   0  0  0  0  0  0  0  0  0  0  0  0
    6.7073    1.0341    0.0000 C   0  0  0  0  0  0  0  0  0  0  0  0
    3.9727   -1.5615    0.0000 H   0  0  0  0  0  0  0  0  0  0  0  0
    5.9480   -1.2811    0.0000 H   0  0  0  0  0  0  0  0  0  0  0  0
    3.0790    2.4995    0.0000 H   0  0  0  0  0  0  0  0  0  0  0  0
    2.1523    0.8945    0.0000 H   0  0  0  0  0  0  0  0  0  0  0  0
    2.1524    1.9645    0.0000 H   0  0  0  0  0  0  0  0  0  0  0  0
    0.7563    0.2955    0.0000 H   0  0  0  0  0  0  0  0  0  0  0  0
    5.9481    2.4899    0.0000 H   0  0  0  0  0  0  0  0  0  0  0  0
    3.2911    1.5520    0.0000 H   0  0  0  0  0  0  0  0  0  0  0  0
    1.4379    1.5520    0.0000 H   0  0  0  0  0  0  0  0  0  0  0  0
    2.3645    2.0870    0.0000 H   0  0  0  0  0  0  0  0  0  0  0  0
    2.3645   -2.4900    0.0000 H   0  0  0  0  0  0  0  0  0  0  0  0
    0.7563   -1.5615    0.0000 H   0  0  0  0  0  0  0  0  0  0  0  0
    7.5991   -0.3446    0.0000 H   0  0  0  0  0  0  0  0  0  0  0  0
    7.5991    1.5535    0.0000 H   0  0  0  0  0  0  0  0  0  0  0  0
  1  7  2  0  0  0  0
  2  4  1  0  0  0  0
  2  5  1  0  0  0  0
  2  7  1  0  0  0  0
  3  5  2  0  0  0  0
  3  9  1  0  0  0  0
  4  8  1  0  0  0  0
  4 10  2  0  0  0  0
  5 12  1  0  0  0  0
  6  7  1  0  0  0  0
  6  9  1  0  0  0  0
  6 11  2  0  0  0  0
  8 13  2  0  0  0  0
  8 15  1  0  0  0  0
  9 14  2  0  0  0  0
 10 16  1  0  0  0  0
 10 20  1  0  0  0  0
 11 18  1  0  0  0  0
 11 21  1  0  0  0  0
 12 22  1  0  0  0  0
 12 23  1  0  0  0  0
 12 24  1  0  0  0  0
 13 17  1  0  0  0  0
 13 25  1  0  0  0  0
 14 19  1  0  0  0  0
 14 26  1  0  0  0  0
 15 27  1  0  0  0  0
 15 28  1  0  0  0  0
 15 29  1  0  0  0  0
 16 17  2  0  0  0  0
 16 30  1  0  0  0  0
 17 31  1  0  0  0  0
 18 19  2  0  0  0  0
 18 32  1  0  0  0  0
 19 33  1  0  0  0  0
M  END
>  <DRUGBANK_ID>
DB04833

>  <COMMON_NAME>
Methaqualone

>  <CAS_NUMBER>
72-44-6

>  <UNII>
7ZKH8MQW6T

>  <SYNONYMS>
metacualona; Methaqualone

$$$$
