
 OpenBabel10282417072D

149153  0  0  0  0  0  0  0  0999 V2000
   -8.2753    1.5272    0.0000 C   0  0  0  0  0  0  0  0  0  0  0  0
   -6.1318   -2.1853    0.0000 C   0  0  0  0  0  0  0  0  0  0  0  0
   -8.9898    1.9397    0.0000 N   0  0  0  0  0  0  0  0  0  0  0  0
   -5.6360   -1.9517    0.0000 O   0  0  0  0  0  0  0  0  0  0  0  0
   -8.2752    0.7022    0.0000 N   0  0  0  0  0  0  0  0  0  0  0  0
   -6.8462   -1.7728    0.0000 C   0  0  1  0  0  0  0  0  0  0  0  0
   -7.5608    1.9398    0.0000 N   0  0  0  0  0  0  0  0  0  0  0  0
   -7.5608   -2.1853    0.0000 N   0  0  0  0  0  0  0  0  0  0  0  0
   -7.5608    0.2897    0.0000 C   0  0  0  0  0  0  0  0  0  0  0  0
   -6.8462   -0.9478    0.0000 C   0  0  0  0  0  0  0  0  0  0  0  0
   -7.5608   -0.5352    0.0000 C   0  0  0  0  0  0  0  0  0  0  0  0
   -6.1318   -3.0103    0.0000 N   0  0  0  0  0  0  0  0  0  0  0  0
   -4.6636   -2.9333    0.0000 C   0  0  0  0  0  0  0  0  0  0  0  0
   -4.6636   -2.1083    0.0000 N   0  0  0  0  0  0  0  0  0  0  0  0
   -5.3781   -3.3458    0.0000 C   0  0  2  0  0  0  0  0  0  0  0  0
   -5.4643   -4.1663    0.0000 C   0  0  0  0  0  0  0  0  0  0  0  0
   -6.2713   -4.3378    0.0000 C   0  0  0  0  0  0  0  0  0  0  0  0
   -6.6838   -3.6234    0.0000 C   0  0  0  0  0  0  0  0  0  0  0  0
   -3.9491   -3.3458    0.0000 O   0  0  0  0  0  0  0  0  0  0  0  0
   -3.1954   -2.1853    0.0000 C   0  0  0  0  0  0  0  0  0  0  0  0
   -3.1954   -3.0103    0.0000 O   0  0  0  0  0  0  0  0  0  0  0  0
   -3.9099   -1.7728    0.0000 C   0  0  2  0  0  0  0  0  0  0  0  0
   -3.9962   -0.9523    0.0000 C   0  0  0  0  0  0  0  0  0  0  0  0
   -4.8031   -0.7808    0.0000 C   0  0  0  0  0  0  0  0  0  0  0  0
   -5.2156   -1.4952    0.0000 C   0  0  0  0  0  0  0  0  0  0  0  0
   -2.4810   -1.7728    0.0000 N   0  0  0  0  0  0  0  0  0  0  0  0
   -1.0520   -1.7728    0.0000 C   0  0  0  0  0  0  0  0  0  0  0  0
   -1.0520   -0.9478    0.0000 N   0  0  0  0  0  0  0  0  0  0  0  0
   -1.7664   -2.1853    0.0000 C   0  0  0  0  0  0  0  0  0  0  0  0
   -0.3375   -2.1853    0.0000 O   0  0  0  0  0  0  0  0  0  0  0  0
    0.3769   -0.9478    0.0000 C   0  0  0  0  0  0  0  0  0  0  0  0
   -0.3375   -0.5353    0.0000 C   0  0  2  0  0  0  0  0  0  0  0  0
    1.0913   -0.5353    0.0000 N   0  0  0  0  0  0  0  0  0  0  0  0
   -0.3375    0.2896    0.0000 C   0  0  0  0  0  0  0  0  0  0  0  0
    0.3769   -1.7728    0.0000 O   0  0  0  0  0  0  0  0  0  0  0  0
    2.5202   -0.5353    0.0000 C   0  0  0  0  0  0  0  0  0  0  0  0
    1.8058   -0.9478    0.0000 C   0  0  2  0  0  0  0  0  0  0  0  0
    3.2347   -0.9478    0.0000 O   0  0  0  0  0  0  0  0  0  0  0  0
    1.8058   -1.7728    0.0000 C   0  0  0  0  0  0  0  0  0  0  0  0
    2.5202    0.2896    0.0000 N   0  0  0  0  0  0  0  0  0  0  0  0
   -1.0520    0.7022    0.0000 C   0  0  0  0  0  0  0  0  0  0  0  0
   -1.0520    1.5272    0.0000 C   0  0  0  0  0  0  0  0  0  0  0  0
   -1.7666    1.9397    0.0000 C   0  0  0  0  0  0  0  0  0  0  0  0
   -1.7666    0.2896    0.0000 C   0  0  0  0  0  0  0  0  0  0  0  0
   -2.4810    1.5272    0.0000 C   0  0  0  0  0  0  0  0  0  0  0  0
   -2.4810    0.7022    0.0000 C   0  0  0  0  0  0  0  0  0  0  0  0
    3.9884    0.2127    0.0000 C   0  0  0  0  0  0  0  0  0  0  0  0
    3.9884   -0.6122    0.0000 O   0  0  0  0  0  0  0  0  0  0  0  0
    3.2740    0.6252    0.0000 C   0  0  2  0  0  0  0  0  0  0  0  0
    3.1877    1.4456    0.0000 C   0  0  0  0  0  0  0  0  0  0  0  0
    2.3807    1.6172    0.0000 C   0  0  0  0  0  0  0  0  0  0  0  0
    1.9682    0.9027    0.0000 C   0  0  0  0  0  0  0  0  0  0  0  0
    4.7029    0.6252    0.0000 N   0  0  0  0  0  0  0  0  0  0  0  0
    6.1319    0.6252    0.0000 C   0  0  0  0  0  0  0  0  0  0  0  0
    5.4174    0.2127    0.0000 C   0  0  2  0  0  0  0  0  0  0  0  0
    6.8464    0.2127    0.0000 N   0  0  0  0  0  0  0  0  0  0  0  0
    5.4174   -0.6122    0.0000 C   0  0  0  0  0  0  0  0  0  0  0  0
    6.1318    1.4502    0.0000 O   0  0  0  0  0  0  0  0  0  0  0  0
    6.1318   -1.0247    0.0000 C   0  0  0  0  0  0  0  0  0  0  0  0
    7.5608   -1.8497    0.0000 C   0  0  0  0  0  0  0  0  0  0  0  0
    7.5608   -1.0247    0.0000 C   0  0  0  0  0  0  0  0  0  0  0  0
    6.8463   -2.2622    0.0000 C   0  0  0  0  0  0  0  0  0  0  0  0
    6.8463   -0.6122    0.0000 C   0  0  0  0  0  0  0  0  0  0  0  0
    6.1318   -1.8497    0.0000 C   0  0  0  0  0  0  0  0  0  0  0  0
    6.1318    3.9253    0.0000 C   0  0  0  0  0  0  0  0  0  0  0  0
    8.2753    0.2127    0.0000 C   0  0  0  0  0  0  0  0  0  0  0  0
    5.4173    4.3378    0.0000 N   0  0  0  0  0  0  0  0  0  0  0  0
    8.9898    0.6252    0.0000 O   0  0  0  0  0  0  0  0  0  0  0  0
    6.1318    3.1002    0.0000 N   0  0  0  0  0  0  0  0  0  0  0  0
    7.5608    0.6252    0.0000 C   0  0  2  0  0  0  0  0  0  0  0  0
    6.8463    4.3378    0.0000 N   0  0  0  0  0  0  0  0  0  0  0  0
    6.8463    2.6877    0.0000 C   0  0  0  0  0  0  0  0  0  0  0  0
    7.5608    1.4502    0.0000 C   0  0  0  0  0  0  0  0  0  0  0  0
    6.8463    1.8627    0.0000 C   0  0  0  0  0  0  0  0  0  0  0  0
    8.2753   -0.6122    0.0000 O   0  0  0  0  0  0  0  0  0  0  0  0
    2.5202   -2.1853    0.0000 O   0  0  0  0  0  0  0  0  0  0  0  0
   -8.9898    2.9242    0.0000 H   0  0  0  0  0  0  0  0  0  0  0  0
   -9.1278    0.2099    0.0000 H   0  0  0  0  0  0  0  0  0  0  0  0
   -6.8463   -2.8428    0.0000 H   0  0  0  0  0  0  0  0  0  0  0  0
   -6.7082    1.4476    0.0000 H   0  0  0  0  0  0  0  0  0  0  0  0
   -7.5609    2.9243    0.0000 H   0  0  0  0  0  0  0  0  0  0  0  0
   -8.4441   -1.6752    0.0000 H   0  0  0  0  0  0  0  0  0  0  0  0
   -7.5609   -3.2053    0.0000 H   0  0  0  0  0  0  0  0  0  0  0  0
   -6.6341    0.8247    0.0000 H   0  0  0  0  0  0  0  0  0  0  0  0
   -6.6342   -0.2453    0.0000 H   0  0  0  0  0  0  0  0  0  0  0  0
   -5.9195   -0.4128    0.0000 H   0  0  0  0  0  0  0  0  0  0  0  0
   -6.8462    0.1222    0.0000 H   0  0  0  0  0  0  0  0  0  0  0  0
   -8.4875   -1.0702    0.0000 H   0  0  0  0  0  0  0  0  0  0  0  0
   -7.5608   -1.6052    0.0000 H   0  0  0  0  0  0  0  0  0  0  0  0
   -5.4341   -2.2773    0.0000 H   0  0  0  0  0  0  0  0  0  0  0  0
   -4.6691   -4.8823    0.0000 H   0  0  0  0  0  0  0  0  0  0  0  0
   -5.7413   -5.1998    0.0000 H   0  0  0  0  0  0  0  0  0  0  0  0
   -6.7065   -5.3153    0.0000 H   0  0  0  0  0  0  0  0  0  0  0  0
   -7.3398   -4.3938    0.0000 H   0  0  0  0  0  0  0  0  0  0  0  0
   -7.7479   -3.5116    0.0000 H   0  0  0  0  0  0  0  0  0  0  0  0
   -7.0673   -2.6245    0.0000 H   0  0  0  0  0  0  0  0  0  0  0  0
   -3.9659   -2.8413    0.0000 H   0  0  0  0  0  0  0  0  0  0  0  0
   -3.2011   -0.2363    0.0000 H   0  0  0  0  0  0  0  0  0  0  0  0
   -4.2732    0.0812    0.0000 H   0  0  0  0  0  0  0  0  0  0  0  0
   -5.2383    0.1967    0.0000 H   0  0  0  0  0  0  0  0  0  0  0  0
   -5.8716   -0.7248    0.0000 H   0  0  0  0  0  0  0  0  0  0  0  0
   -6.2797   -1.6070    0.0000 H   0  0  0  0  0  0  0  0  0  0  0  0
   -5.5991   -2.4941    0.0000 H   0  0  0  0  0  0  0  0  0  0  0  0
   -2.4811   -0.7883    0.0000 H   0  0  0  0  0  0  0  0  0  0  0  0
   -1.9046   -0.4555    0.0000 H   0  0  0  0  0  0  0  0  0  0  0  0
   -1.7663   -3.2553    0.0000 H   0  0  0  0  0  0  0  0  0  0  0  0
   -2.6930   -2.7204    0.0000 H   0  0  0  0  0  0  0  0  0  0  0  0
   -0.3375   -1.6053    0.0000 H   0  0  0  0  0  0  0  0  0  0  0  0
    1.0913    0.4492    0.0000 H   0  0  0  0  0  0  0  0  0  0  0  0
    0.5892    0.8246    0.0000 H   0  0  0  0  0  0  0  0  0  0  0  0
   -0.3374    1.3596    0.0000 H   0  0  0  0  0  0  0  0  0  0  0  0
    1.8058    0.1222    0.0000 H   0  0  0  0  0  0  0  0  0  0  0  0
    0.8791   -2.3078    0.0000 H   0  0  0  0  0  0  0  0  0  0  0  0
    1.8058   -2.8428    0.0000 H   0  0  0  0  0  0  0  0  0  0  0  0
   -0.1583    2.0432    0.0000 H   0  0  0  0  0  0  0  0  0  0  0  0
   -1.7667    2.9717    0.0000 H   0  0  0  0  0  0  0  0  0  0  0  0
   -1.7667   -0.7424    0.0000 H   0  0  0  0  0  0  0  0  0  0  0  0
   -3.3747    2.0432    0.0000 H   0  0  0  0  0  0  0  0  0  0  0  0
   -3.3748    0.1863    0.0000 H   0  0  0  0  0  0  0  0  0  0  0  0
    3.2180   -0.4433    0.0000 H   0  0  0  0  0  0  0  0  0  0  0  0
    3.9829    2.1616    0.0000 H   0  0  0  0  0  0  0  0  0  0  0  0
    2.9108    2.4792    0.0000 H   0  0  0  0  0  0  0  0  0  0  0  0
    1.9455    2.5947    0.0000 H   0  0  0  0  0  0  0  0  0  0  0  0
    1.3122    1.6732    0.0000 H   0  0  0  0  0  0  0  0  0  0  0  0
    0.9041    0.7909    0.0000 H   0  0  0  0  0  0  0  0  0  0  0  0
    1.5847   -0.0962    0.0000 H   0  0  0  0  0  0  0  0  0  0  0  0
    4.7029    1.6097    0.0000 H   0  0  0  0  0  0  0  0  0  0  0  0
    5.4174    1.2827    0.0000 H   0  0  0  0  0  0  0  0  0  0  0  0
    6.8464   -0.7718    0.0000 H   0  0  0  0  0  0  0  0  0  0  0  0
    4.4907   -1.1472    0.0000 H   0  0  0  0  0  0  0  0  0  0  0  0
    5.4174   -1.6822    0.0000 H   0  0  0  0  0  0  0  0  0  0  0  0
    8.4545   -2.3657    0.0000 H   0  0  0  0  0  0  0  0  0  0  0  0
    8.4545   -0.5087    0.0000 H   0  0  0  0  0  0  0  0  0  0  0  0
    6.8463   -3.2942    0.0000 H   0  0  0  0  0  0  0  0  0  0  0  0
    6.8463    0.4198    0.0000 H   0  0  0  0  0  0  0  0  0  0  0  0
    5.2381   -2.3657    0.0000 H   0  0  0  0  0  0  0  0  0  0  0  0
    5.4173    5.3223    0.0000 H   0  0  0  0  0  0  0  0  0  0  0  0
    9.8013    0.1567    0.0000 H   0  0  0  0  0  0  0  0  0  0  0  0
    5.2792    2.6079    0.0000 H   0  0  0  0  0  0  0  0  0  0  0  0
    7.5608   -0.4448    0.0000 H   0  0  0  0  0  0  0  0  0  0  0  0
    7.6989    3.8455    0.0000 H   0  0  0  0  0  0  0  0  0  0  0  0
    6.8463    5.3223    0.0000 H   0  0  0  0  0  0  0  0  0  0  0  0
    7.7729    3.2227    0.0000 H   0  0  0  0  0  0  0  0  0  0  0  0
    7.7729    2.1527    0.0000 H   0  0  0  0  0  0  0  0  0  0  0  0
    8.4874    1.9852    0.0000 H   0  0  0  0  0  0  0  0  0  0  0  0
    7.5608    2.5202    0.0000 H   0  0  0  0  0  0  0  0  0  0  0  0
    5.9197    1.3277    0.0000 H   0  0  0  0  0  0  0  0  0  0  0  0
    6.8463    0.7927    0.0000 H   0  0  0  0  0  0  0  0  0  0  0  0
    2.5202   -3.1553    0.0000 H   0  0  0  0  0  0  0  0  0  0  0  0
  1  3  2  0  0  0  0
  1  5  1  0  0  0  0
  1  7  1  0  0  0  0
  2  6  1  0  0  0  0
  2  4  2  0  0  0  0
  3 77  1  0  0  0  0
  5  9  1  0  0  0  0
  5 78  1  0  0  0  0
  6 10  1  0  0  0  0
  6  8  1  0  0  0  0
  6 79  1  6  0  0  0
  7 80  1  0  0  0  0
  7 81  1  0  0  0  0
  8 82  1  0  0  0  0
  8 83  1  0  0  0  0
  9 11  1  0  0  0  0
  9 84  1  0  0  0  0
  9 85  1  0  0  0  0
 10 11  1  0  0  0  0
 10 86  1  0  0  0  0
 10 87  1  0  0  0  0
 11 88  1  0  0  0  0
 11 89  1  0  0  0  0
 12  2  1  0  0  0  0
 13 14  1  0  0  0  0
 15 13  1  0  0  0  0
 15 16  1  0  0  0  0
 15 12  1  0  0  0  0
 15 90  1  1  0  0  0
 16 17  1  0  0  0  0
 16 91  1  0  0  0  0
 16 92  1  0  0  0  0
 17 18  1  0  0  0  0
 17 93  1  0  0  0  0
 17 94  1  0  0  0  0
 18 12  1  0  0  0  0
 18 95  1  0  0  0  0
 18 96  1  0  0  0  0
 19 13  2  0  0  0  0
 20 21  2  0  0  0  0
 22 20  1  0  0  0  0
 22 23  1  0  0  0  0
 22 14  1  0  0  0  0
 22 97  1  6  0  0  0
 23 24  1  0  0  0  0
 23 98  1  0  0  0  0
 23 99  1  0  0  0  0
 24 25  1  0  0  0  0
 24100  1  0  0  0  0
 24101  1  0  0  0  0
 25 14  1  0  0  0  0
 25102  1  0  0  0  0
 25103  1  0  0  0  0
 26 20  1  0  0  0  0
 26 29  1  0  0  0  0
 26104  1  0  0  0  0
 27 28  1  0  0  0  0
 27 29  1  0  0  0  0
 27 30  2  0  0  0  0
 28105  1  0  0  0  0
 29106  1  0  0  0  0
 29107  1  0  0  0  0
 31 32  1  0  0  0  0
 31 33  1  0  0  0  0
 32 34  1  0  0  0  0
 32 28  1  0  0  0  0
 32108  1  6  0  0  0
 33109  1  0  0  0  0
 34 41  1  0  0  0  0
 34110  1  0  0  0  0
 34111  1  0  0  0  0
 35 31  2  0  0  0  0
 36 37  1  0  0  0  0
 36 38  2  0  0  0  0
 37 33  1  0  0  0  0
 37 39  1  0  0  0  0
 37112  1  1  0  0  0
 39 76  1  0  0  0  0
 39113  1  0  0  0  0
 39114  1  0  0  0  0
 40 36  1  0  0  0  0
 41 42  1  0  0  0  0
 42115  1  0  0  0  0
 43 42  2  0  0  0  0
 43116  1  0  0  0  0
 44 41  2  0  0  0  0
 44117  1  0  0  0  0
 45 43  1  0  0  0  0
 45118  1  0  0  0  0
 46 44  1  0  0  0  0
 46 45  2  0  0  0  0
 46119  1  0  0  0  0
 47 48  2  0  0  0  0
 49 47  1  0  0  0  0
 49 50  1  0  0  0  0
 49 40  1  0  0  0  0
 49120  1  6  0  0  0
 50 51  1  0  0  0  0
 50121  1  0  0  0  0
 50122  1  0  0  0  0
 51 52  1  0  0  0  0
 51123  1  0  0  0  0
 51124  1  0  0  0  0
 52 40  1  0  0  0  0
 52125  1  0  0  0  0
 52126  1  0  0  0  0
 53 47  1  0  0  0  0
 53127  1  0  0  0  0
 54 55  1  0  0  0  0
 54 56  1  0  0  0  0
 55 57  1  0  0  0  0
 55 53  1  0  0  0  0
 55128  1  1  0  0  0
 56129  1  0  0  0  0
 57 59  1  0  0  0  0
 57130  1  0  0  0  0
 57131  1  0  0  0  0
 58 54  2  0  0  0  0
 59 63  1  0  0  0  0
 59 64  2  0  0  0  0
 60132  1  0  0  0  0
 61 60  1  0  0  0  0
 61133  1  0  0  0  0
 62 60  2  0  0  0  0
 62134  1  0  0  0  0
 63 61  2  0  0  0  0
 63135  1  0  0  0  0
 64 62  1  0  0  0  0
 64136  1  0  0  0  0
 65 67  2  0  0  0  0
 65 69  1  0  0  0  0
 65 71  1  0  0  0  0
 66 70  1  0  0  0  0
 66 68  1  0  0  0  0
 67137  1  0  0  0  0
 68138  1  0  0  0  0
 69 72  1  0  0  0  0
 69139  1  0  0  0  0
 70 73  1  0  0  0  0
 70 56  1  0  0  0  0
 70140  1  6  0  0  0
 71141  1  0  0  0  0
 71142  1  0  0  0  0
 72 74  1  0  0  0  0
 72143  1  0  0  0  0
 72144  1  0  0  0  0
 73 74  1  0  0  0  0
 73145  1  0  0  0  0
 73146  1  0  0  0  0
 74147  1  0  0  0  0
 74148  1  0  0  0  0
 75 66  2  0  0  0  0
 76149  1  0  0  0  0
M  END
>  <DRUGBANK_ID>
DB12126

>  <COMMON_NAME>
Bradykinin

>  <CAS_NUMBER>
58-82-2

>  <UNII>
S8TIM42R2W

>  <SYNONYMS>
L-bradykinin

$$$$
