BIH
 OpenBabel10282417072D

 26 27  0  0  0  0  0  0  0  0999 V2000
   -2.8965   -1.2881    0.0000 O   0  0  0  0  0  0  0  0  0  0  0  0
   -2.1820   -0.8756    0.0000 S   0  0  0  0  0  0  0  0  0  0  0  0
   -1.7695   -1.5901    0.0000 O   0  0  0  0  0  0  0  0  0  0  0  0
   -2.5945   -0.1611    0.0000 O   0  0  0  0  0  0  0  0  0  0  0  0
   -1.4676   -0.4631    0.0000 C   0  0  0  0  0  0  0  0  0  0  0  0
   -1.4676    0.3619    0.0000 C   0  0  0  0  0  0  0  0  0  0  0  0
   -0.7531    0.7744    0.0000 C   0  0  0  0  0  0  0  0  0  0  0  0
   -0.0386    0.3619    0.0000 C   0  0  0  0  0  0  0  0  0  0  0  0
    0.6758    0.7744    0.0000 C   0  0  0  0  0  0  0  0  0  0  0  0
   -0.0386   -0.4631    0.0000 C   0  0  0  0  0  0  0  0  0  0  0  0
   -0.7531   -0.8756    0.0000 C   0  0  0  0  0  0  0  0  0  0  0  0
    0.6758   -0.8756    0.0000 C   0  0  0  0  0  0  0  0  0  0  0  0
    1.3903   -0.4631    0.0000 C   0  0  0  0  0  0  0  0  0  0  0  0
    1.3903    0.3619    0.0000 C   0  0  0  0  0  0  0  0  0  0  0  0
    2.1048    0.7744    0.0000 S   0  0  0  0  0  0  0  0  0  0  0  0
    2.8192    1.1869    0.0000 O   0  0  0  0  0  0  0  0  0  0  0  0
    2.5173    0.0599    0.0000 O   0  0  0  0  0  0  0  0  0  0  0  0
    1.6923    1.4889    0.0000 O   0  0  0  0  0  0  0  0  0  0  0  0
   -2.1095    0.6789    0.0000 H   0  0  0  0  0  0  0  0  0  0  0  0
   -2.3613    0.8779    0.0000 H   0  0  0  0  0  0  0  0  0  0  0  0
   -0.7531    1.8064    0.0000 H   0  0  0  0  0  0  0  0  0  0  0  0
    0.6758    1.8064    0.0000 H   0  0  0  0  0  0  0  0  0  0  0  0
   -0.7531   -1.9076    0.0000 H   0  0  0  0  0  0  0  0  0  0  0  0
    0.6758   -1.9076    0.0000 H   0  0  0  0  0  0  0  0  0  0  0  0
    2.2840   -0.9791    0.0000 H   0  0  0  0  0  0  0  0  0  0  0  0
    3.6593    0.7019    0.0000 H   0  0  0  0  0  0  0  0  0  0  0  0
  1  2  2  0  0  0  0
  2  3  2  0  0  0  0
  2  4  1  0  0  0  0
  2  5  1  0  0  0  0
  4 19  1  0  0  0  0
  5  6  2  0  0  0  0
  5 11  1  0  0  0  0
  6  7  1  0  0  0  0
  6 20  1  0  0  0  0
  7  8  2  0  0  0  0
  7 21  1  0  0  0  0
  8  9  1  0  0  0  0
  8 10  1  0  0  0  0
  9 14  2  0  0  0  0
  9 22  1  0  0  0  0
 10 11  2  0  0  0  0
 10 12  1  0  0  0  0
 11 23  1  0  0  0  0
 12 13  2  0  0  0  0
 12 24  1  0  0  0  0
 13 14  1  0  0  0  0
 13 25  1  0  0  0  0
 14 15  1  0  0  0  0
 15 16  1  0  0  0  0
 15 17  2  0  0  0  0
 15 18  2  0  0  0  0
 16 26  1  0  0  0  0
M  END
>  <DRUGBANK_ID>
DB04640

>  <COMMON_NAME>
Naphthalene-2,6-disulfonic acid

>  <CAS_NUMBER>
581-75-9

>  <UNII>
BOR133U3TN

>  <SYNONYMS>
2,6-naphthalenedisulfonic acid; Ebert-Merz beta-acid; naphthalene-2,6-disulphonic acid

$$$$
