
 OpenBabel10282417072D

 48 52  0  0  1  0  0  0  0  0999 V2000
   21.6997  -16.5816    0.0000 C   0  0  0  0  0  0  0  0  0  0  0  0
   22.4010  -16.9941    0.0000 N   0  0  0  0  0  0  0  0  0  0  0  0
   20.9985  -16.9941    0.0000 C   0  0  0  0  0  0  0  0  0  0  0  0
   21.6997  -15.7566    0.0000 C   0  0  0  0  0  0  0  0  0  0  0  0
   22.4010  -17.8192    0.0000 C   0  0  0  0  0  0  0  0  0  0  0  0
   23.1435  -16.5816    0.0000 C   0  0  0  0  0  0  0  0  0  0  0  0
   20.2559  -16.5816    0.0000 C   0  0  0  0  0  0  0  0  0  0  0  0
   22.4010  -15.3441    0.0000 C   0  0  0  0  0  0  0  0  0  0  0  0
   20.9985  -15.3441    0.0000 C   0  0  0  0  0  0  0  0  0  0  0  0
   22.8135  -18.5204    0.0000 C   0  0  0  0  0  0  0  0  0  0  0  0
   21.9885  -18.5204    0.0000 C   0  0  0  0  0  0  0  0  0  0  0  0
   23.1435  -15.7566    0.0000 C   0  0  0  0  0  0  0  0  0  0  0  0
   19.5960  -17.1179    0.0000 N   0  0  0  0  0  0  0  0  0  0  0  0
   20.2559  -15.7566    0.0000 C   0  0  0  0  0  0  0  0  0  0  0  0
   22.4010  -14.5603    0.0000 O   0  0  0  0  0  0  0  0  0  0  0  0
   23.8448  -15.3441    0.0000 C   0  0  0  0  0  0  0  0  0  0  0  0
   19.1009  -16.4578    0.0000 C   0  0  0  0  0  0  0  0  0  0  0  0
   19.1009  -17.7779    0.0000 C   0  0  0  0  0  0  0  0  0  0  0  0
   19.5546  -15.3441    0.0000 F   0  0  0  0  0  0  0  0  0  0  0  0
   24.5461  -15.7566    0.0000 O   0  0  0  0  0  0  0  0  0  0  0  0
   23.8448  -14.5603    0.0000 O   0  0  0  0  0  0  0  0  0  0  0  0
   18.3172  -16.7054    0.0000 C   0  0  1  0  0  0  0  0  0  0  0  0
   18.3172  -17.5304    0.0000 C   0  0  1  0  0  0  0  0  0  0  0  0
   17.5746  -16.2929    0.0000 O   0  0  0  0  0  0  0  0  0  0  0  0
   17.6159  -17.9429    0.0000 N   0  0  0  0  0  0  0  0  0  0  0  0
   16.8733  -16.7054    0.0000 C   0  0  0  0  0  0  0  0  0  0  0  0
   16.8733  -17.5304    0.0000 C   0  0  0  0  0  0  0  0  0  0  0  0
   18.3172  -18.3555    0.0000 H   0  0  0  0  0  0  0  0  0  0  0  0
   18.3172  -15.8803    0.0000 H   0  0  0  0  0  0  0  0  0  0  0  0
   21.0086  -17.8191    0.0000 C   0  0  0  0  0  0  0  0  0  0  0  0
   21.0086  -18.6441    0.0000 N   0  0  0  0  0  0  0  0  0  0  0  0
   22.4010  -18.8892    0.0000 H   0  0  0  0  0  0  0  0  0  0  0  0
   24.0330  -17.1050    0.0000 H   0  0  0  0  0  0  0  0  0  0  0  0
   21.0113  -14.3122    0.0000 H   0  0  0  0  0  0  0  0  0  0  0  0
   23.7423  -19.0516    0.0000 H   0  0  0  0  0  0  0  0  0  0  0  0
   22.5387  -19.5545    0.0000 H   0  0  0  0  0  0  0  0  0  0  0  0
   21.0597  -19.0516    0.0000 H   0  0  0  0  0  0  0  0  0  0  0  0
   22.2633  -19.5545    0.0000 H   0  0  0  0  0  0  0  0  0  0  0  0
   19.4280  -15.4390    0.0000 H   0  0  0  0  0  0  0  0  0  0  0  0
   18.3460  -15.6995    0.0000 H   0  0  0  0  0  0  0  0  0  0  0  0
   19.4280  -18.7967    0.0000 H   0  0  0  0  0  0  0  0  0  0  0  0
   18.3461  -18.5363    0.0000 H   0  0  0  0  0  0  0  0  0  0  0  0
   24.5385  -16.6936    0.0000 H   0  0  0  0  0  0  0  0  0  0  0  0
   17.6285  -18.9628    0.0000 H   0  0  0  0  0  0  0  0  0  0  0  0
   15.9445  -16.1742    0.0000 H   0  0  0  0  0  0  0  0  0  0  0  0
   15.9477  -17.2423    0.0000 H   0  0  0  0  0  0  0  0  0  0  0  0
   15.9511  -18.0731    0.0000 H   0  0  0  0  0  0  0  0  0  0  0  0
   15.9444  -16.9992    0.0000 H   0  0  0  0  0  0  0  0  0  0  0  0
  1  2  1  0  0  0  0
  1  3  2  0  0  0  0
  1  4  1  0  0  0  0
  2  5  1  0  0  0  0
  2  6  1  0  0  0  0
  3  7  1  0  0  0  0
  3 30  1  0  0  0  0
  4  8  1  0  0  0  0
  4  9  2  0  0  0  0
  5 10  1  0  0  0  0
  5 11  1  0  0  0  0
  5 32  1  0  0  0  0
  6 12  2  0  0  0  0
  6 33  1  0  0  0  0
  7 13  1  0  0  0  0
  7 14  2  0  0  0  0
  8 15  2  0  0  0  0
  8 12  1  0  0  0  0
  9 14  1  0  0  0  0
  9 34  1  0  0  0  0
 10 11  1  0  0  0  0
 10 35  1  0  0  0  0
 10 36  1  0  0  0  0
 11 37  1  0  0  0  0
 11 38  1  0  0  0  0
 12 16  1  0  0  0  0
 13 17  1  0  0  0  0
 13 18  1  0  0  0  0
 14 19  1  0  0  0  0
 16 20  1  0  0  0  0
 16 21  2  0  0  0  0
 17 22  1  0  0  0  0
 17 39  1  0  0  0  0
 17 40  1  0  0  0  0
 18 23  1  0  0  0  0
 18 41  1  0  0  0  0
 18 42  1  0  0  0  0
 20 43  1  0  0  0  0
 22 24  1  0  0  0  0
 22 23  1  0  0  0  0
 22 29  1  6  0  0  0
 23 25  1  0  0  0  0
 23 28  1  1  0  0  0
 24 26  1  0  0  0  0
 25 27  1  0  0  0  0
 25 44  1  0  0  0  0
 26 27  1  0  0  0  0
 26 45  1  0  0  0  0
 26 46  1  0  0  0  0
 27 47  1  0  0  0  0
 27 48  1  0  0  0  0
 30 31  3  0  0  0  0
M  END
>  <DRUGBANK_ID>
DB09047

>  <COMMON_NAME>
Finafloxacin

>  <CAS_NUMBER>
209342-40-5

>  <UNII>
D26OSN9Q4R

>  <SYNONYMS>
8-Cyano-1-cyclopropyl-6-fluoro-7-[(4aS,7aS)-hexahydropyrrolo[3,4-b][1,4]oxazin-6(2H)-yl]-4-oxo-1,4-dihydro-3-quinolinecarboxylic acid; Finafloxacin; gastrochinolon; gastroquinolone

$$$$
