
 OpenBabel10282417072D

 53 58  0  0  0  0  0  0  0  0999 V2000
    0.0000    0.8250    0.0000 C   0  0  0  0  0  0  0  0  0  0  0  0
   -0.7145    0.4125    0.0000 C   0  0  0  0  0  0  0  0  0  0  0  0
   -0.7144    2.0625    0.0000 C   0  0  0  0  0  0  0  0  0  0  0  0
   -1.4289    1.6501    0.0000 C   0  0  0  0  0  0  0  0  0  0  0  0
   -1.4289    0.8250    0.0000 C   0  0  0  0  0  0  0  0  0  0  0  0
    0.0000    1.6500    0.0000 C   0  0  0  0  0  0  0  0  0  0  0  0
   -1.4289   -0.8250    0.0000 C   0  0  1  0  0  0  0  0  0  0  0  0
   -1.4289   -1.6501    0.0000 C   0  0  2  0  0  0  0  0  0  0  0  0
   -0.7144   -2.0625    0.0000 C   0  0  0  0  0  0  0  0  0  0  0  0
    0.0000   -1.6500    0.0000 C   0  0  0  0  0  0  0  0  0  0  0  0
    0.7145   -0.4125    0.0000 C   0  0  1  0  0  0  0  0  0  0  0  0
    1.4290   -0.8250    0.0000 N   0  0  0  0  0  0  0  0  0  0  0  0
    0.0000   -0.8250    0.0000 C   0  0  2  0  0  0  0  0  0  0  0  0
    0.7145   -1.2375    0.0000 O   0  0  0  0  0  0  0  0  0  0  0  0
    0.7144    0.4125    0.0000 C   0  0  0  0  0  0  0  0  0  0  0  0
   -0.7145   -0.4125    0.0000 C   0  0  1  0  0  0  0  0  0  0  0  0
    0.0000    0.0000    0.0000 C   0  0  0  0  0  0  0  0  0  0  0  0
    1.4435    0.0000    0.0000 C   0  0  0  0  0  0  0  0  0  0  0  0
   -2.1434   -2.0626    0.0000 O   0  0  0  0  0  0  0  0  0  0  0  0
   -1.9621    0.0410    0.0000 O   0  0  0  0  0  0  0  0  0  0  0  0
   -2.1434    2.0626    0.0000 O   0  0  0  0  0  0  0  0  0  0  0  0
    2.2540   -0.8250    0.0000 C   0  0  0  0  0  0  0  0  0  0  0  0
    2.8374   -1.4084    0.0000 C   0  0  0  0  0  0  0  0  0  0  0  0
    2.8374   -2.2334    0.0000 C   0  0  0  0  0  0  0  0  0  0  0  0
    3.6624   -1.4084    0.0000 C   0  0  0  0  0  0  0  0  0  0  0  0
    3.6624   -2.2334    0.0000 C   0  0  0  0  0  0  0  0  0  0  0  0
   -0.7143    3.0945    0.0000 H   0  0  0  0  0  0  0  0  0  0  0  0
    0.8937    2.1660    0.0000 H   0  0  0  0  0  0  0  0  0  0  0  0
   -1.1666    0.2124    0.0000 H   0  0  0  0  0  0  0  0  0  0  0  0
   -2.3555   -1.1151    0.0000 H   0  0  0  0  0  0  0  0  0  0  0  0
   -0.7143   -3.1325    0.0000 H   0  0  0  0  0  0  0  0  0  0  0  0
    0.2123   -2.5974    0.0000 H   0  0  0  0  0  0  0  0  0  0  0  0
    0.9267   -2.1850    0.0000 H   0  0  0  0  0  0  0  0  0  0  0  0
    0.0000   -2.7200    0.0000 H   0  0  0  0  0  0  0  0  0  0  0  0
    0.7145   -1.4825    0.0000 H   0  0  0  0  0  0  0  0  0  0  0  0
    0.7145   -2.2075    0.0000 H   0  0  0  0  0  0  0  0  0  0  0  0
    1.6410    0.9475    0.0000 H   0  0  0  0  0  0  0  0  0  0  0  0
    1.6411   -0.1224    0.0000 H   0  0  0  0  0  0  0  0  0  0  0  0
   -0.2769    1.0335    0.0000 H   0  0  0  0  0  0  0  0  0  0  0  0
    0.6514    0.8489    0.0000 H   0  0  0  0  0  0  0  0  0  0  0  0
    2.2067    0.7499    0.0000 H   0  0  0  0  0  0  0  0  0  0  0  0
    1.0384    0.9903    0.0000 H   0  0  0  0  0  0  0  0  0  0  0  0
   -2.9834   -1.5776    0.0000 H   0  0  0  0  0  0  0  0  0  0  0  0
   -2.1434    2.9996    0.0000 H   0  0  0  0  0  0  0  0  0  0  0  0
    2.6635    0.1636    0.0000 H   0  0  0  0  0  0  0  0  0  0  0  0
    3.3034   -0.6163    0.0000 H   0  0  0  0  0  0  0  0  0  0  0  0
    3.5940   -2.1650    0.0000 H   0  0  0  0  0  0  0  0  0  0  0  0
    2.0808   -2.9900    0.0000 H   0  0  0  0  0  0  0  0  0  0  0  0
    3.2469   -3.2220    0.0000 H   0  0  0  0  0  0  0  0  0  0  0  0
    4.4190   -0.6518    0.0000 H   0  0  0  0  0  0  0  0  0  0  0  0
    4.6510   -1.8179    0.0000 H   0  0  0  0  0  0  0  0  0  0  0  0
    4.4190   -2.9900    0.0000 H   0  0  0  0  0  0  0  0  0  0  0  0
    3.2529   -3.2220    0.0000 H   0  0  0  0  0  0  0  0  0  0  0  0
  1  6  2  0  0  0  0
  2  1  1  0  0  0  0
  3  4  2  0  0  0  0
  3  6  1  0  0  0  0
  3 27  1  0  0  0  0
  4  5  1  0  0  0  0
  4 21  1  0  0  0  0
  5  2  2  0  0  0  0
  5 20  1  0  0  0  0
  6 28  1  0  0  0  0
  7  8  1  0  0  0  0
  7 20  1  0  0  0  0
  7 29  1  1  0  0  0
  8  9  1  0  0  0  0
  8 19  1  0  0  0  0
  8 30  1  1  0  0  0
  9 10  1  0  0  0  0
  9 31  1  0  0  0  0
  9 32  1  0  0  0  0
 10 13  1  0  0  0  0
 10 33  1  0  0  0  0
 10 34  1  0  0  0  0
 11 12  1  0  0  0  0
 11 15  1  0  0  0  0
 11 35  1  6  0  0  0
 12 18  1  0  0  0  0
 12 22  1  0  0  0  0
 13 11  1  0  0  0  0
 13 14  1  1  0  0  0
 14 36  1  0  0  0  0
 15  1  1  0  0  0  0
 15 37  1  0  0  0  0
 15 38  1  0  0  0  0
 16  2  1  6  0  0  0
 16 13  1  0  0  0  0
 16  7  1  0  0  0  0
 16 17  1  0  0  0  0
 17 18  1  0  0  0  0
 17 39  1  0  0  0  0
 17 40  1  0  0  0  0
 18 41  1  0  0  0  0
 18 42  1  0  0  0  0
 19 43  1  0  0  0  0
 21 44  1  0  0  0  0
 22 23  1  0  0  0  0
 22 45  1  0  0  0  0
 22 46  1  0  0  0  0
 23 24  1  0  0  0  0
 23 25  1  0  0  0  0
 23 47  1  0  0  0  0
 24 48  1  0  0  0  0
 24 49  1  0  0  0  0
 25 26  1  0  0  0  0
 25 50  1  0  0  0  0
 25 51  1  0  0  0  0
 26 24  1  0  0  0  0
 26 52  1  0  0  0  0
 26 53  1  0  0  0  0
M  END
>  <DRUGBANK_ID>
DB00844

>  <SECONDARY_ACCESSION_NUMBERS>
APRD01132

>  <COMMON_NAME>
Nalbuphine

>  <CAS_NUMBER>
20594-83-6

>  <UNII>
L2T84IQI2K

>  <SYNONYMS>
N-cyclobutylmethyl-4,5α-epoxy-3,6α,14-morphinantriol; Nalbufina; Nalbuphin; Nalbuphine; Nalbuphinum

$$$$
