1254
 OpenBabel10282417072D

 59 62  0  0  0  0  0  0  0  0999 V2000
    2.2082   -5.4426    0.0000 Cl  0  0  0  0  0  0  0  0  0  0  0  0
    2.9849   -1.7295    0.0000 S   0  0  0  0  0  0  0  0  0  0  0  0
    4.4610    5.7681    0.0000 O   0  0  0  0  0  0  0  0  0  0  0  0
    4.0354   -3.0953    0.0000 O   0  0  0  0  0  0  0  0  0  0  0  0
    3.7465    3.7056    0.0000 N   0  0  0  0  0  0  0  0  0  0  0  0
    3.7465    2.0555    0.0000 N   0  0  0  0  0  0  0  0  0  0  0  0
    4.4610    0.8180    0.0000 N   0  0  0  0  0  0  0  0  0  0  0  0
    3.7465   -0.4195    0.0000 N   0  0  0  0  0  0  0  0  0  0  0  0
    2.3175   -0.4195    0.0000 N   0  0  0  0  0  0  0  0  0  0  0  0
    1.6500   -1.7295    0.0000 N   0  0  0  0  0  0  0  0  0  0  0  0
    2.8794   -3.9353    0.0000 N   0  0  0  0  0  0  0  0  0  0  0  0
    3.0319    3.2931    0.0000 C   0  0  0  0  0  0  0  0  0  0  0  0
    4.4610    3.2931    0.0000 C   0  0  0  0  0  0  0  0  0  0  0  0
    3.0319    2.4680    0.0000 C   0  0  0  0  0  0  0  0  0  0  0  0
    4.4610    2.4680    0.0000 C   0  0  0  0  0  0  0  0  0  0  0  0
    3.7465    4.5306    0.0000 C   0  0  0  0  0  0  0  0  0  0  0  0
    3.7465    1.2305    0.0000 C   0  0  0  0  0  0  0  0  0  0  0  0
    4.4610    4.9431    0.0000 C   0  0  0  0  0  0  0  0  0  0  0  0
    3.0319    0.8180    0.0000 C   0  0  0  0  0  0  0  0  0  0  0  0
    3.0319   -0.0070    0.0000 C   0  0  0  0  0  0  0  0  0  0  0  0
    4.4610   -0.0070    0.0000 C   0  0  0  0  0  0  0  0  0  0  0  0
    5.1754   -0.4195    0.0000 C   0  0  0  0  0  0  0  0  0  0  0  0
    2.3175   -1.2445    0.0000 C   0  0  0  0  0  0  0  0  0  0  0  0
    2.7300   -2.5141    0.0000 C   0  0  0  0  0  0  0  0  0  0  0  0
    3.3643   -4.6027    0.0000 C   0  0  0  0  0  0  0  0  0  0  0  0
    1.9050   -2.5141    0.0000 C   0  0  0  0  0  0  0  0  0  0  0  0
    4.1848   -4.5165    0.0000 C   0  0  0  0  0  0  0  0  0  0  0  0
    3.2149   -3.1816    0.0000 C   0  0  0  0  0  0  0  0  0  0  0  0
    3.0287   -5.3564    0.0000 C   0  0  0  0  0  0  0  0  0  0  0  0
    4.6698   -5.1839    0.0000 C   0  0  0  0  0  0  0  0  0  0  0  0
    4.5204   -3.7628    0.0000 C   0  0  0  0  0  0  0  0  0  0  0  0
    3.5137   -6.0239    0.0000 C   0  0  0  0  0  0  0  0  0  0  0  0
    4.3342   -5.9377    0.0000 C   0  0  0  0  0  0  0  0  0  0  0  0
    5.3010    6.2531    0.0000 H   0  0  0  0  0  0  0  0  0  0  0  0
    1.4649    0.0727    0.0000 H   0  0  0  0  0  0  0  0  0  0  0  0
    1.9003   -4.0382    0.0000 H   0  0  0  0  0  0  0  0  0  0  0  0
    2.1053    3.8281    0.0000 H   0  0  0  0  0  0  0  0  0  0  0  0
    2.1052    2.7581    0.0000 H   0  0  0  0  0  0  0  0  0  0  0  0
    5.3876    3.8281    0.0000 H   0  0  0  0  0  0  0  0  0  0  0  0
    5.3876    2.7581    0.0000 H   0  0  0  0  0  0  0  0  0  0  0  0
    2.1053    1.9330    0.0000 H   0  0  0  0  0  0  0  0  0  0  0  0
    2.1052    3.0030    0.0000 H   0  0  0  0  0  0  0  0  0  0  0  0
    5.3876    1.9330    0.0000 H   0  0  0  0  0  0  0  0  0  0  0  0
    5.3876    3.0030    0.0000 H   0  0  0  0  0  0  0  0  0  0  0  0
    2.8199    5.0656    0.0000 H   0  0  0  0  0  0  0  0  0  0  0  0
    3.7465    5.6006    0.0000 H   0  0  0  0  0  0  0  0  0  0  0  0
    5.3876    4.4081    0.0000 H   0  0  0  0  0  0  0  0  0  0  0  0
    4.4610    3.8731    0.0000 H   0  0  0  0  0  0  0  0  0  0  0  0
    2.1382    1.3340    0.0000 H   0  0  0  0  0  0  0  0  0  0  0  0
    5.1754   -1.4895    0.0000 H   0  0  0  0  0  0  0  0  0  0  0  0
    6.1021    0.1155    0.0000 H   0  0  0  0  0  0  0  0  0  0  0  0
    6.1020   -0.9545    0.0000 H   0  0  0  0  0  0  0  0  0  0  0  0
    1.2984   -3.3490    0.0000 H   0  0  0  0  0  0  0  0  0  0  0  0
    5.6961   -5.0760    0.0000 H   0  0  0  0  0  0  0  0  0  0  0  0
    5.5845   -3.6510    0.0000 H   0  0  0  0  0  0  0  0  0  0  0  0
    3.8915   -2.8971    0.0000 H   0  0  0  0  0  0  0  0  0  0  0  0
    4.9556   -2.7853    0.0000 H   0  0  0  0  0  0  0  0  0  0  0  0
    3.0939   -6.9667    0.0000 H   0  0  0  0  0  0  0  0  0  0  0  0
    4.9408   -6.7726    0.0000 H   0  0  0  0  0  0  0  0  0  0  0  0
  1 29  1  0  0  0  0
  2 23  1  0  0  0  0
  2 24  1  0  0  0  0
  3 18  1  0  0  0  0
  3 34  1  0  0  0  0
  4 28  2  0  0  0  0
  5 12  1  0  0  0  0
  5 13  1  0  0  0  0
  5 16  1  0  0  0  0
  6 14  1  0  0  0  0
  6 15  1  0  0  0  0
  6 17  1  0  0  0  0
  7 17  2  0  0  0  0
  7 21  1  0  0  0  0
  8 20  1  0  0  0  0
  8 21  2  0  0  0  0
  9 20  1  0  0  0  0
  9 23  1  0  0  0  0
  9 35  1  0  0  0  0
 10 23  2  0  0  0  0
 10 26  1  0  0  0  0
 11 25  1  0  0  0  0
 11 28  1  0  0  0  0
 11 36  1  0  0  0  0
 12 14  1  0  0  0  0
 12 37  1  0  0  0  0
 12 38  1  0  0  0  0
 13 15  1  0  0  0  0
 13 39  1  0  0  0  0
 13 40  1  0  0  0  0
 14 41  1  0  0  0  0
 14 42  1  0  0  0  0
 15 43  1  0  0  0  0
 15 44  1  0  0  0  0
 16 18  1  0  0  0  0
 16 45  1  0  0  0  0
 16 46  1  0  0  0  0
 17 19  1  0  0  0  0
 18 47  1  0  0  0  0
 18 48  1  0  0  0  0
 19 20  2  0  0  0  0
 19 49  1  0  0  0  0
 21 22  1  0  0  0  0
 22 50  1  0  0  0  0
 22 51  1  0  0  0  0
 22 52  1  0  0  0  0
 24 26  2  0  0  0  0
 24 28  1  0  0  0  0
 25 27  2  0  0  0  0
 25 29  1  0  0  0  0
 26 53  1  0  0  0  0
 27 30  1  0  0  0  0
 27 31  1  0  0  0  0
 29 32  2  0  0  0  0
 30 33  2  0  0  0  0
 30 54  1  0  0  0  0
 31 55  1  0  0  0  0
 31 56  1  0  0  0  0
 31 57  1  0  0  0  0
 32 33  1  0  0  0  0
 32 58  1  0  0  0  0
 33 59  1  0  0  0  0
M  END
>  <DRUGBANK_ID>
DB01254

>  <COMMON_NAME>
Dasatinib

>  <CAS_NUMBER>
302962-49-8

>  <UNII>
X78UG0A0RN

>  <SYNONYMS>
Anh. dasatinib; Anhydrous dasatinib; BMS dasatinib; Dasatinib; Dasatinib (anh.); dasatinib (anhydrous); Dasatinib anhydrous; Dasatinibum; N-(2-CHLORO-6-methylphenyl)-2-({6-[4-(2-hydroxyethyl)piperazin-1-yl]-2-methylpyrimidin-4-yl}amino)-1,3-thiazole-5-carboxamide

$$$$
