
 OpenBabel10282417072D

 52 53  0  0  0  0  0  0  0  0999 V2000
   -0.7145    2.8875    0.0000 C   0  0  0  0  0  0  0  0  0  0  0  0
   -0.7145    1.2375    0.0000 C   0  0  0  0  0  0  0  0  0  0  0  0
    2.1434    2.8875    0.0000 C   0  0  0  0  0  0  0  0  0  0  0  0
    2.1434   -1.2375    0.0000 C   0  0  0  0  0  0  0  0  0  0  0  0
    4.2868    1.6500    0.0000 C   0  0  0  0  0  0  0  0  0  0  0  0
    2.8579   -0.8250    0.0000 C   0  0  0  0  0  0  0  0  0  0  0  0
    1.4289   -0.8250    0.0000 C   0  0  0  0  0  0  0  0  0  0  0  0
    3.5724    1.2375    0.0000 C   0  0  0  0  0  0  0  0  0  0  0  0
    5.0013    1.2375    0.0000 C   0  0  0  0  0  0  0  0  0  0  0  0
    2.8579    0.0000    0.0000 C   0  0  0  0  0  0  0  0  0  0  0  0
    1.4289    0.0000    0.0000 C   0  0  0  0  0  0  0  0  0  0  0  0
    2.8579    1.6500    0.0000 C   0  0  0  0  0  0  0  0  0  0  0  0
    5.7158    1.6500    0.0000 C   0  0  0  0  0  0  0  0  0  0  0  0
    0.0000    2.4750    0.0000 C   0  0  0  0  0  0  0  0  0  0  0  0
   -0.0000    1.6500    0.0000 C   0  0  0  0  0  0  0  0  0  0  0  0
    1.4289    2.4750    0.0000 C   0  0  0  0  0  0  0  0  0  0  0  0
    2.1434    0.4125    0.0000 C   0  0  0  0  0  0  0  0  0  0  0  0
    2.1434    1.2375    0.0000 C   0  0  3  0  0  0  0  0  0  0  0  0
    6.4302    1.2375    0.0000 C   0  0  0  0  0  0  0  0  0  0  0  0
    1.4289    1.6500    0.0000 C   0  0  0  0  0  0  0  0  0  0  0  0
    0.7145    2.8875    0.0000 C   0  0  0  0  0  0  0  0  0  0  0  0
    0.7145    1.2375    0.0000 C   0  0  0  0  0  0  0  0  0  0  0  0
    7.1447    1.6500    0.0000 O   0  0  0  0  0  0  0  0  0  0  0  0
    6.4302    0.4125    0.0000 O   0  0  0  0  0  0  0  0  0  0  0  0
    0.7145    3.7125    0.0000 O   0  0  0  0  0  0  0  0  0  0  0  0
    0.7145    0.4125    0.0000 O   0  0  0  0  0  0  0  0  0  0  0  0
   -0.7145    3.9575    0.0000 H   0  0  0  0  0  0  0  0  0  0  0  0
   -1.6411    2.3525    0.0000 H   0  0  0  0  0  0  0  0  0  0  0  0
   -1.6412    3.4225    0.0000 H   0  0  0  0  0  0  0  0  0  0  0  0
   -1.6411    1.7725    0.0000 H   0  0  0  0  0  0  0  0  0  0  0  0
   -0.7145    0.1675    0.0000 H   0  0  0  0  0  0  0  0  0  0  0  0
   -1.6412    0.7025    0.0000 H   0  0  0  0  0  0  0  0  0  0  0  0
    3.0700    2.3525    0.0000 H   0  0  0  0  0  0  0  0  0  0  0  0
    2.1434    3.9575    0.0000 H   0  0  0  0  0  0  0  0  0  0  0  0
    3.0701    3.4225    0.0000 H   0  0  0  0  0  0  0  0  0  0  0  0
    2.1434   -2.2695    0.0000 H   0  0  0  0  0  0  0  0  0  0  0  0
    4.2868    2.7200    0.0000 H   0  0  0  0  0  0  0  0  0  0  0  0
    5.2134    2.1850    0.0000 H   0  0  0  0  0  0  0  0  0  0  0  0
    3.7516   -1.3410    0.0000 H   0  0  0  0  0  0  0  0  0  0  0  0
    0.5352   -1.3410    0.0000 H   0  0  0  0  0  0  0  0  0  0  0  0
    3.5724    0.1675    0.0000 H   0  0  0  0  0  0  0  0  0  0  0  0
    2.6458    0.7025    0.0000 H   0  0  0  0  0  0  0  0  0  0  0  0
    5.0013    0.1675    0.0000 H   0  0  0  0  0  0  0  0  0  0  0  0
    5.9279    0.7025    0.0000 H   0  0  0  0  0  0  0  0  0  0  0  0
    3.7516    0.5160    0.0000 H   0  0  0  0  0  0  0  0  0  0  0  0
    0.5352    0.5160    0.0000 H   0  0  0  0  0  0  0  0  0  0  0  0
    2.8579    2.7200    0.0000 H   0  0  0  0  0  0  0  0  0  0  0  0
    1.9313    2.1850    0.0000 H   0  0  0  0  0  0  0  0  0  0  0  0
    5.7158    2.7200    0.0000 H   0  0  0  0  0  0  0  0  0  0  0  0
    6.6425    2.1850    0.0000 H   0  0  0  0  0  0  0  0  0  0  0  0
    3.0700    0.7025    0.0000 H   0  0  0  0  0  0  0  0  0  0  0  0
    5.6187   -0.0560    0.0000 H   0  0  0  0  0  0  0  0  0  0  0  0
  1 27  1  0  0  0  0
  1 28  1  0  0  0  0
  1 29  1  0  0  0  0
  2 30  1  0  0  0  0
  2 31  1  0  0  0  0
  2 32  1  0  0  0  0
  3 33  1  0  0  0  0
  3 34  1  0  0  0  0
  3 35  1  0  0  0  0
  4 36  1  0  0  0  0
  5 37  1  0  0  0  0
  5 38  1  0  0  0  0
  6  4  2  0  0  0  0
  6 39  1  0  0  0  0
  7  4  1  0  0  0  0
  7 40  1  0  0  0  0
  8  5  1  0  0  0  0
  8 41  1  0  0  0  0
  8 42  1  0  0  0  0
  9  5  1  0  0  0  0
  9 43  1  0  0  0  0
  9 44  1  0  0  0  0
 10  6  1  0  0  0  0
 10 45  1  0  0  0  0
 11  7  2  0  0  0  0
 11 46  1  0  0  0  0
 12  8  1  0  0  0  0
 12 47  1  0  0  0  0
 12 48  1  0  0  0  0
 13  9  1  0  0  0  0
 13 49  1  0  0  0  0
 13 50  1  0  0  0  0
 14  1  1  0  0  0  0
 15  2  1  0  0  0  0
 15 14  2  0  0  0  0
 16  3  1  0  0  0  0
 17 10  2  0  0  0  0
 17 11  1  0  0  0  0
 18 12  1  0  0  0  0
 18 17  1  0  0  0  0
 18 51  1  0  0  0  0
 19 13  1  0  0  0  0
 20 16  2  0  0  0  0
 20 18  1  0  0  0  0
 21 14  1  0  0  0  0
 21 16  1  0  0  0  0
 22 15  1  0  0  0  0
 22 20  1  0  0  0  0
 23 19  2  0  0  0  0
 24 19  1  0  0  0  0
 24 52  1  0  0  0  0
 25 21  2  0  0  0  0
 26 22  2  0  0  0  0
M  END
>  <DRUGBANK_ID>
DB06739

>  <COMMON_NAME>
Seratrodast

>  <CAS_NUMBER>
112665-43-7

>  <UNII>
4U58JM421N

>  <SYNONYMS>
Seratrodast

$$$$
