
 OpenBabel10282417072D

 47 46  0  0  0  0  0  0  0  0999 V2000
   -1.0740    0.2329    0.0000 C   0  0  0  0  0  0  0  0  0  0  0  0
   -1.0740   -0.5920    0.0000 C   0  0  0  0  0  0  0  0  0  0  0  0
   -1.7886    0.6454    0.0000 C   0  0  0  0  0  0  0  0  0  0  0  0
   -1.7886   -1.0046    0.0000 C   0  0  0  0  0  0  0  0  0  0  0  0
   -2.5030    0.2329    0.0000 C   0  0  0  0  0  0  0  0  0  0  0  0
   -2.5030   -0.5920    0.0000 C   0  0  0  0  0  0  0  0  0  0  0  0
    0.3549    0.2329    0.0000 C   0  0  0  0  0  0  0  0  0  0  0  0
    0.3549   -0.5920    0.0000 C   0  0  0  0  0  0  0  0  0  0  0  0
   -0.3596    0.6454    0.0000 C   0  0  0  0  0  0  0  0  0  0  0  0
   -0.3596   -1.0046    0.0000 C   0  0  0  0  0  0  0  0  0  0  0  0
    1.0741    0.6355    0.0000 C   0  0  0  0  0  0  0  0  0  0  0  0
    1.7831    0.2135    0.0000 N   0  3  0  0  0  0  0  0  0  0  0  0
    1.0694   -1.0046    0.0000 C   0  0  0  0  0  0  0  0  0  0  0  0
    2.5030    0.6164    0.0000 C   0  0  0  0  0  0  0  0  0  0  0  0
    1.7721   -0.6113    0.0000 O   0  5  0  0  0  0  0  0  0  0  0  0
    1.9971    1.0046    0.0000 C   0  0  0  0  0  0  0  0  0  0  0  0
   -1.0739   -0.8371    0.0000 H   0  0  0  0  0  0  0  0  0  0  0  0
   -0.1473   -0.3021    0.0000 H   0  0  0  0  0  0  0  0  0  0  0  0
   -1.0739    0.4780    0.0000 H   0  0  0  0  0  0  0  0  0  0  0  0
   -0.1473   -0.0571    0.0000 H   0  0  0  0  0  0  0  0  0  0  0  0
   -1.7887    1.7154    0.0000 H   0  0  0  0  0  0  0  0  0  0  0  0
   -2.7153    1.1804    0.0000 H   0  0  0  0  0  0  0  0  0  0  0  0
   -1.7887   -2.0746    0.0000 H   0  0  0  0  0  0  0  0  0  0  0  0
   -2.7153   -1.5395    0.0000 H   0  0  0  0  0  0  0  0  0  0  0  0
   -3.4297    0.7679    0.0000 H   0  0  0  0  0  0  0  0  0  0  0  0
   -3.4296   -0.3021    0.0000 H   0  0  0  0  0  0  0  0  0  0  0  0
   -3.4297   -1.1269    0.0000 H   0  0  0  0  0  0  0  0  0  0  0  0
   -3.4296   -0.0570    0.0000 H   0  0  0  0  0  0  0  0  0  0  0  0
    0.3478   -0.8371    0.0000 H   0  0  0  0  0  0  0  0  0  0  0  0
    1.2762   -0.3113    0.0000 H   0  0  0  0  0  0  0  0  0  0  0  0
    0.3549    0.4780    0.0000 H   0  0  0  0  0  0  0  0  0  0  0  0
    1.2816   -0.0570    0.0000 H   0  0  0  0  0  0  0  0  0  0  0  0
   -0.3596    1.7154    0.0000 H   0  0  0  0  0  0  0  0  0  0  0  0
   -1.2863    1.1804    0.0000 H   0  0  0  0  0  0  0  0  0  0  0  0
   -0.3596   -2.0746    0.0000 H   0  0  0  0  0  0  0  0  0  0  0  0
   -1.2863   -1.5395    0.0000 H   0  0  0  0  0  0  0  0  0  0  0  0
    1.0883    1.7054    0.0000 H   0  0  0  0  0  0  0  0  0  0  0  0
    2.0078    1.1581    0.0000 H   0  0  0  0  0  0  0  0  0  0  0  0
    1.0693   -2.0746    0.0000 H   0  0  0  0  0  0  0  0  0  0  0  0
    1.9961   -0.4697    0.0000 H   0  0  0  0  0  0  0  0  0  0  0  0
    1.9960   -1.5397    0.0000 H   0  0  0  0  0  0  0  0  0  0  0  0
    3.4224    0.0691    0.0000 H   0  0  0  0  0  0  0  0  0  0  0  0
    2.5173    1.6863    0.0000 H   0  0  0  0  0  0  0  0  0  0  0  0
    3.4367    1.1390    0.0000 H   0  0  0  0  0  0  0  0  0  0  0  0
    3.0313    1.2791    0.0000 H   0  0  0  0  0  0  0  0  0  0  0  0
    1.2423    1.7630    0.0000 H   0  0  0  0  0  0  0  0  0  0  0  0
    2.2765    2.0375    0.0000 H   0  0  0  0  0  0  0  0  0  0  0  0
  1  9  1  0  0  0  0
  1 17  1  0  0  0  0
  1 18  1  0  0  0  0
  2 10  1  0  0  0  0
  2 19  1  0  0  0  0
  2 20  1  0  0  0  0
  3  1  1  0  0  0  0
  3 21  1  0  0  0  0
  3 22  1  0  0  0  0
  4  2  1  0  0  0  0
  4 23  1  0  0  0  0
  4 24  1  0  0  0  0
  5  3  1  0  0  0  0
  5 25  1  0  0  0  0
  5 26  1  0  0  0  0
  6  4  1  0  0  0  0
  6  5  1  0  0  0  0
  6 27  1  0  0  0  0
  6 28  1  0  0  0  0
  7 11  1  0  0  0  0
  7 29  1  0  0  0  0
  7 30  1  0  0  0  0
  8 13  1  0  0  0  0
  8 31  1  0  0  0  0
  8 32  1  0  0  0  0
  9  7  1  0  0  0  0
  9 33  1  0  0  0  0
  9 34  1  0  0  0  0
 10  8  1  0  0  0  0
 10 35  1  0  0  0  0
 10 36  1  0  0  0  0
 11 12  1  0  0  0  0
 11 37  1  0  0  0  0
 11 38  1  0  0  0  0
 12 14  1  0  0  0  0
 12 15  1  0  0  0  0
 12 16  1  0  0  0  0
 13 39  1  0  0  0  0
 13 40  1  0  0  0  0
 13 41  1  0  0  0  0
 14 42  1  0  0  0  0
 14 43  1  0  0  0  0
 14 44  1  0  0  0  0
 16 45  1  0  0  0  0
 16 46  1  0  0  0  0
 16 47  1  0  0  0  0
M  CHG  2  12   1  15  -1
M  END
>  <DRUGBANK_ID>
DB04147

>  <SECONDARY_ACCESSION_NUMBERS>
EXPT02013

>  <COMMON_NAME>
Dodecyldimethylamine N-oxide

>  <CAS_NUMBER>
1643-20-5

>  <UNII>
4F6FC4MI8W

>  <SYNONYMS>
Dimethylaurylamine oxide; Dimethyldodecylamine N-oxide; Dimethyldodecylamine oxide; Dodecyl(dimethyl)amine oxide; Dodecyldimethylamine oxide; Lauramine oxide; Lauryl dimethylamine-N-oxide; lauryldimethylamine N-oxide; Lauryldimethylamine oxide; n-Dodecyldimethylamine oxide; N,N-Dimethyldodecylamine oxide

$$$$
