FR9
 OpenBabel10282417072D

 59 62  0  0  0  0  0  0  0  0999 V2000
   -3.3456    1.2250    0.0000 C   0  0  0  0  0  0  0  0  0  0  0  0
   -3.0100    0.4713    0.0000 N   0  0  0  0  0  0  0  0  0  0  0  0
   -3.6231   -0.0807    0.0000 C   0  0  0  0  0  0  0  0  0  0  0  0
   -4.3376    0.3318    0.0000 N   0  0  0  0  0  0  0  0  0  0  0  0
   -4.1660    1.1388    0.0000 C   0  0  0  0  0  0  0  0  0  0  0  0
   -4.7181    1.7519    0.0000 C   0  0  0  0  0  0  0  0  0  0  0  0
   -5.5250    1.5804    0.0000 O   0  0  0  0  0  0  0  0  0  0  0  0
   -4.4631    2.5365    0.0000 N   0  0  0  0  0  0  0  0  0  0  0  0
   -2.2030    0.2998    0.0000 C   0  0  1  0  0  0  0  0  0  0  0  0
   -1.6510    0.9129    0.0000 C   0  0  0  0  0  0  0  0  0  0  0  0
   -0.8440    0.7414    0.0000 O   0  0  0  0  0  0  0  0  0  0  0  0
   -1.9481   -0.4848    0.0000 C   0  0  0  0  0  0  0  0  0  0  0  0
   -1.1411   -0.6563    0.0000 C   0  0  0  0  0  0  0  0  0  0  0  0
   -0.8862   -1.4410    0.0000 N   0  0  0  0  0  0  0  0  0  0  0  0
   -1.3711   -2.1084    0.0000 C   0  0  0  0  0  0  0  0  0  0  0  0
   -0.8862   -2.7758    0.0000 C   0  0  0  0  0  0  0  0  0  0  0  0
   -0.1016   -2.5209    0.0000 C   0  0  0  0  0  0  0  0  0  0  0  0
   -0.1016   -1.6959    0.0000 C   0  0  0  0  0  0  0  0  0  0  0  0
    0.6129   -2.9334    0.0000 C   0  0  0  0  0  0  0  0  0  0  0  0
    1.3274   -2.5209    0.0000 C   0  0  0  0  0  0  0  0  0  0  0  0
    1.3274   -1.6959    0.0000 C   0  0  0  0  0  0  0  0  0  0  0  0
    0.6129   -1.2834    0.0000 C   0  0  0  0  0  0  0  0  0  0  0  0
    2.0419   -1.2834    0.0000 N   0  0  0  0  0  0  0  0  0  0  0  0
    2.0419   -0.4584    0.0000 C   0  0  0  0  0  0  0  0  0  0  0  0
    1.3274   -0.0459    0.0000 O   0  0  0  0  0  0  0  0  0  0  0  0
    2.7563   -0.0459    0.0000 N   0  0  0  0  0  0  0  0  0  0  0  0
    2.7563    0.7791    0.0000 C   0  0  0  0  0  0  0  0  0  0  0  0
    4.1853    0.7791    0.0000 C   0  0  0  0  0  0  0  0  0  0  0  0
    3.4708    1.1916    0.0000 C   0  0  0  0  0  0  0  0  0  0  0  0
    3.4708    2.0166    0.0000 C   0  0  0  0  0  0  0  0  0  0  0  0
    4.1853    2.4291    0.0000 C   0  0  0  0  0  0  0  0  0  0  0  0
    4.8997    2.0166    0.0000 C   0  0  0  0  0  0  0  0  0  0  0  0
    4.8997    1.1916    0.0000 C   0  0  0  0  0  0  0  0  0  0  0  0
   -2.3835    0.8552    0.0000 H   0  0  0  0  0  0  0  0  0  0  0  0
   -2.8296    2.1187    0.0000 H   0  0  0  0  0  0  0  0  0  0  0  0
   -3.5152   -1.1070    0.0000 H   0  0  0  0  0  0  0  0  0  0  0  0
   -3.5001    2.7411    0.0000 H   0  0  0  0  0  0  0  0  0  0  0  0
   -5.1218    3.2682    0.0000 H   0  0  0  0  0  0  0  0  0  0  0  0
   -1.9817    1.9305    0.0000 H   0  0  0  0  0  0  0  0  0  0  0  0
   -0.9351    1.7081    0.0000 H   0  0  0  0  0  0  0  0  0  0  0  0
   -0.5442   -0.1811    0.0000 H   0  0  0  0  0  0  0  0  0  0  0  0
   -2.6641   -1.2800    0.0000 H   0  0  0  0  0  0  0  0  0  0  0  0
   -1.6174   -1.5024    0.0000 H   0  0  0  0  0  0  0  0  0  0  0  0
   -0.4251    0.1389    0.0000 H   0  0  0  0  0  0  0  0  0  0  0  0
   -0.0945   -0.8788    0.0000 H   0  0  0  0  0  0  0  0  0  0  0  0
   -2.4031   -2.1084    0.0000 H   0  0  0  0  0  0  0  0  0  0  0  0
   -1.2051   -3.7573    0.0000 H   0  0  0  0  0  0  0  0  0  0  0  0
    0.6129   -3.9654    0.0000 H   0  0  0  0  0  0  0  0  0  0  0  0
    2.2211   -3.0369    0.0000 H   0  0  0  0  0  0  0  0  0  0  0  0
    0.6129   -0.2514    0.0000 H   0  0  0  0  0  0  0  0  0  0  0  0
    2.8945   -1.7757    0.0000 H   0  0  0  0  0  0  0  0  0  0  0  0
    3.6089   -0.5381    0.0000 H   0  0  0  0  0  0  0  0  0  0  0  0
    1.8297    1.3141    0.0000 H   0  0  0  0  0  0  0  0  0  0  0  0
    2.7563    1.8491    0.0000 H   0  0  0  0  0  0  0  0  0  0  0  0
    4.1853   -0.2529    0.0000 H   0  0  0  0  0  0  0  0  0  0  0  0
    2.5771    2.5326    0.0000 H   0  0  0  0  0  0  0  0  0  0  0  0
    4.1853    3.4611    0.0000 H   0  0  0  0  0  0  0  0  0  0  0  0
    5.7934    2.5326    0.0000 H   0  0  0  0  0  0  0  0  0  0  0  0
    5.7934    0.6756    0.0000 H   0  0  0  0  0  0  0  0  0  0  0  0
  1  2  1  0  0  0  0
  1  5  2  0  0  0  0
  1 35  1  0  0  0  0
  2  3  1  0  0  0  0
  3  4  2  0  0  0  0
  3 36  1  0  0  0  0
  4  5  1  0  0  0  0
  5  6  1  0  0  0  0
  6  7  2  0  0  0  0
  6  8  1  0  0  0  0
  8 37  1  0  0  0  0
  8 38  1  0  0  0  0
  9  2  1  0  0  0  0
  9 10  1  0  0  0  0
  9 12  1  0  0  0  0
  9 34  1  6  0  0  0
 10 11  1  0  0  0  0
 10 39  1  0  0  0  0
 10 40  1  0  0  0  0
 11 41  1  0  0  0  0
 12 13  1  0  0  0  0
 12 42  1  0  0  0  0
 12 43  1  0  0  0  0
 13 14  1  0  0  0  0
 13 44  1  0  0  0  0
 13 45  1  0  0  0  0
 14 15  1  0  0  0  0
 14 18  1  0  0  0  0
 15 16  2  0  0  0  0
 15 46  1  0  0  0  0
 16 17  1  0  0  0  0
 16 47  1  0  0  0  0
 17 18  2  0  0  0  0
 17 19  1  0  0  0  0
 18 22  1  0  0  0  0
 19 20  2  0  0  0  0
 19 48  1  0  0  0  0
 20 21  1  0  0  0  0
 20 49  1  0  0  0  0
 21 22  2  0  0  0  0
 21 23  1  0  0  0  0
 22 50  1  0  0  0  0
 23 24  1  0  0  0  0
 23 51  1  0  0  0  0
 24 25  2  0  0  0  0
 24 26  1  0  0  0  0
 26 27  1  0  0  0  0
 26 52  1  0  0  0  0
 27 29  1  0  0  0  0
 27 53  1  0  0  0  0
 27 54  1  0  0  0  0
 28 29  2  0  0  0  0
 28 33  1  0  0  0  0
 28 55  1  0  0  0  0
 29 30  1  0  0  0  0
 30 31  2  0  0  0  0
 30 56  1  0  0  0  0
 31 32  1  0  0  0  0
 31 57  1  0  0  0  0
 32 33  2  0  0  0  0
 32 58  1  0  0  0  0
 33 59  1  0  0  0  0
M  END
>  <DRUGBANK_ID>
DB02830

>  <SECONDARY_ACCESSION_NUMBERS>
EXPT01487

>  <COMMON_NAME>
FR236913

$$$$
