65781
 OpenBabel10282417072D

 54 56  0  0  1  0  0  0  0  0999 V2000
    5.3063    2.0741    0.0000 S   0  0  0  0  0  0  0  0  0  0  0  0
    1.9007   -2.4530    0.0000 O   0  0  0  0  0  0  0  0  0  0  0  0
    3.1463   -3.1531    0.0000 O   0  0  0  0  0  0  0  0  0  0  0  0
    5.3031    2.8991    0.0000 O   0  0  0  0  0  0  0  0  0  0  0  0
    4.4813    2.0709    0.0000 O   0  0  0  0  0  0  0  0  0  0  0  0
    6.1312    2.0772    0.0000 O   0  0  0  0  0  0  0  0  0  0  0  0
    3.8673   -1.2831    0.0000 C   0  0  2  0  0  0  0  0  0  0  0  0
    3.8673   -0.4581    0.0000 C   0  0  2  0  0  0  0  0  0  0  0  0
    3.1298   -1.7243    0.0000 C   0  0  2  0  0  0  0  0  0  0  0  0
    3.1298   -0.0170    0.0000 C   0  0  0  0  0  0  0  0  0  0  0  0
    4.5818   -1.6956    0.0000 C   0  0  0  0  0  0  0  0  0  0  0  0
    2.3823   -1.3003    0.0000 C   0  0  0  0  0  0  0  0  0  0  0  0
    2.3823   -0.4410    0.0000 C   0  0  0  0  0  0  0  0  0  0  0  0
    4.5818   -0.0456    0.0000 C   0  0  0  0  0  0  0  0  0  0  0  0
    5.2962   -1.2831    0.0000 C   0  0  0  0  0  0  0  0  0  0  0  0
    3.8673    0.3669    0.0000 C   0  0  0  0  0  0  0  0  0  0  0  0
    5.2962   -0.4581    0.0000 C   0  0  0  0  0  0  0  0  0  0  0  0
    3.5505   -2.4339    0.0000 C   0  0  0  0  0  0  0  0  0  0  0  0
    2.7256   -2.4434    0.0000 C   0  0  0  0  0  0  0  0  0  0  0  0
    4.5686    0.8136    0.0000 C   0  0  0  0  0  0  0  0  0  0  0  0
    6.0470   -0.0399    0.0000 C   0  0  0  0  0  0  0  0  0  0  0  0
    5.3094    1.2491    0.0000 C   0  0  0  0  0  0  0  0  0  0  0  0
    6.0537    0.8194    0.0000 C   0  0  0  0  0  0  0  0  0  0  0  0
    6.7697    1.2291    0.0000 C   0  0  0  0  0  0  0  0  0  0  0  0
    7.4826    0.8139    0.0000 C   0  0  0  0  0  0  0  0  0  0  0  0
    6.7729    2.0541    0.0000 C   0  0  0  0  0  0  0  0  0  0  0  0
    3.8727   -1.9844    0.0000 H   0  0  0  0  0  0  0  0  0  0  0  0
    1.4228   -1.6470    0.0000 H   0  0  0  0  0  0  0  0  0  0  0  0
    6.1413    3.3874    0.0000 H   0  0  0  0  0  0  0  0  0  0  0  0
    3.1421    1.0529    0.0000 H   0  0  0  0  0  0  0  0  0  0  0  0
    2.2083    0.5268    0.0000 H   0  0  0  0  0  0  0  0  0  0  0  0
    4.5818   -2.7656    0.0000 H   0  0  0  0  0  0  0  0  0  0  0  0
    5.5085   -2.2306    0.0000 H   0  0  0  0  0  0  0  0  0  0  0  0
    1.4577   -1.8388    0.0000 H   0  0  0  0  0  0  0  0  0  0  0  0
    1.4546   -0.7671    0.0000 H   0  0  0  0  0  0  0  0  0  0  0  0
    1.4577    0.0975    0.0000 H   0  0  0  0  0  0  0  0  0  0  0  0
    1.4546   -0.9742    0.0000 H   0  0  0  0  0  0  0  0  0  0  0  0
    6.2229   -1.8181    0.0000 H   0  0  0  0  0  0  0  0  0  0  0  0
    6.2228   -0.7481    0.0000 H   0  0  0  0  0  0  0  0  0  0  0  0
    4.7939    0.9019    0.0000 H   0  0  0  0  0  0  0  0  0  0  0  0
    2.9407    0.9019    0.0000 H   0  0  0  0  0  0  0  0  0  0  0  0
    3.8673    1.4369    0.0000 H   0  0  0  0  0  0  0  0  0  0  0  0
    3.0262   -3.3667    0.0000 H   0  0  0  0  0  0  0  0  0  0  0  0
    4.6204   -2.4215    0.0000 H   0  0  0  0  0  0  0  0  0  0  0  0
    4.0962   -3.3543    0.0000 H   0  0  0  0  0  0  0  0  0  0  0  0
    3.6689    1.3192    0.0000 H   0  0  0  0  0  0  0  0  0  0  0  0
    6.9347   -0.5662    0.0000 H   0  0  0  0  0  0  0  0  0  0  0  0
    7.6984    1.7605    0.0000 H   0  0  0  0  0  0  0  0  0  0  0  0
    7.4785   -0.2561    0.0000 H   0  0  0  0  0  0  0  0  0  0  0  0
    8.4113    1.3454    0.0000 H   0  0  0  0  0  0  0  0  0  0  0  0
    8.4072    0.2754    0.0000 H   0  0  0  0  0  0  0  0  0  0  0  0
    7.7016    2.5855    0.0000 H   0  0  0  0  0  0  0  0  0  0  0  0
    5.8483    2.5927    0.0000 H   0  0  0  0  0  0  0  0  0  0  0  0
    6.7771    3.1241    0.0000 H   0  0  0  0  0  0  0  0  0  0  0  0
  1  4  1  0  0  0  0
  1  5  2  0  0  0  0
  1  6  2  0  0  0  0
  1 22  1  0  0  0  0
  2 19  1  0  0  0  0
  2 28  1  0  0  0  0
  3 19  2  0  0  0  0
  4 29  1  0  0  0  0
  7  8  1  0  0  0  0
  7  9  1  0  0  0  0
  7 11  1  0  0  0  0
  7 27  1  6  0  0  0
  8 10  1  0  0  0  0
  8 14  1  0  0  0  0
  8 16  1  1  0  0  0
  9 12  1  0  0  0  0
  9 18  1  0  0  0  0
  9 19  1  6  0  0  0
 10 13  1  0  0  0  0
 10 30  1  0  0  0  0
 10 31  1  0  0  0  0
 11 15  1  0  0  0  0
 11 32  1  0  0  0  0
 11 33  1  0  0  0  0
 12 13  1  0  0  0  0
 12 34  1  0  0  0  0
 12 35  1  0  0  0  0
 13 36  1  0  0  0  0
 13 37  1  0  0  0  0
 14 17  1  0  0  0  0
 14 20  2  0  0  0  0
 15 17  1  0  0  0  0
 15 38  1  0  0  0  0
 15 39  1  0  0  0  0
 16 40  1  0  0  0  0
 16 41  1  0  0  0  0
 16 42  1  0  0  0  0
 17 21  2  0  0  0  0
 18 43  1  0  0  0  0
 18 44  1  0  0  0  0
 18 45  1  0  0  0  0
 20 22  1  0  0  0  0
 20 46  1  0  0  0  0
 21 23  1  0  0  0  0
 21 47  1  0  0  0  0
 22 23  2  0  0  0  0
 23 24  1  0  0  0  0
 24 25  1  0  0  0  0
 24 26  1  0  0  0  0
 24 48  1  0  0  0  0
 25 49  1  0  0  0  0
 25 50  1  0  0  0  0
 25 51  1  0  0  0  0
 26 52  1  0  0  0  0
 26 53  1  0  0  0  0
 26 54  1  0  0  0  0
M  END
>  <DRUGBANK_ID>
DB05265

>  <COMMON_NAME>
Ecabet

>  <CAS_NUMBER>
33159-27-2

>  <UNII>
2K02669KWP

>  <SYNONYMS>
Ecabet; Ecabetum

$$$$
