
 OpenBabel10282417072D

  2  0  0  0  0  0  0  0  0  0999 V2000
    0.0000    0.0000    0.0000 K   0  3  0  0  0  0  0  0  0  0  0  0
    0.8839    0.0000    0.0000 I   0  5  0  0  0  0  0  0  0  0  0  0
M  CHG  2   1   1   2  -1
M  END
>  <DRUGBANK_ID>
DB06715

>  <COMMON_NAME>
Potassium Iodide

>  <CAS_NUMBER>
7681-11-0

>  <UNII>
1C4QK22F9J

>  <SYNONYMS>
Kaliumiodid; KI; Potasio ioduro; Potassium Iodide

$$$$
