
 OpenBabel10282417072D

 61 63  0  0  0  0  0  0  0  0999 V2000
   -2.1409   -1.2375    0.0000 C   0  0  0  0  0  0  0  0  0  0  0  0
   -2.8587   -1.6500    0.0000 C   0  0  0  0  0  0  0  0  0  0  0  0
   -2.8587   -2.4749    0.0000 C   0  0  0  0  0  0  0  0  0  0  0  0
   -2.1409   -2.8875    0.0000 C   0  0  0  0  0  0  0  0  0  0  0  0
   -1.4313   -1.6500    0.0000 C   0  0  0  0  0  0  0  0  0  0  0  0
   -1.4313   -2.4749    0.0000 C   0  0  0  0  0  0  0  0  0  0  0  0
   -0.7136   -2.8875    0.0000 C   0  0  0  0  0  0  0  0  0  0  0  0
   -0.0040   -2.4749    0.0000 C   0  0  0  0  0  0  0  0  0  0  0  0
   -0.0040   -1.6500    0.0000 C   0  0  0  0  0  0  0  0  0  0  0  0
   -0.7136   -1.2375    0.0000 O   0  0  0  0  0  0  0  0  0  0  0  0
    0.7136   -1.2375    0.0000 O   0  0  0  0  0  0  0  0  0  0  0  0
   -0.7136   -3.7125    0.0000 O   0  0  0  0  0  0  0  0  0  0  0  0
    0.7136   -2.8875    0.0000 C   0  0  1  0  0  0  0  0  0  0  0  0
    0.7136   -3.7125    0.0000 C   0  0  0  0  0  0  0  0  0  0  0  0
    1.4313   -4.1251    0.0000 C   0  0  0  0  0  0  0  0  0  0  0  0
    1.4313   -2.4749    0.0000 C   0  0  0  0  0  0  0  0  0  0  0  0
    2.1409   -1.2375    0.0000 C   0  0  0  0  0  0  0  0  0  0  0  0
    1.4313   -1.6500    0.0000 C   0  0  0  0  0  0  0  0  0  0  0  0
    2.1409   -2.8875    0.0000 C   0  0  0  0  0  0  0  0  0  0  0  0
    2.8587   -2.4749    0.0000 C   0  0  0  0  0  0  0  0  0  0  0  0
    2.8587   -1.6500    0.0000 C   0  0  0  0  0  0  0  0  0  0  0  0
    2.1409   -0.4125    0.0000 N   0  0  0  0  0  0  0  0  0  0  0  0
    1.4313    0.0000    0.0000 C   0  0  0  0  0  0  0  0  0  0  0  0
    0.7136   -0.4125    0.0000 O   0  0  0  0  0  0  0  0  0  0  0  0
    1.4313    0.8249    0.0000 C   0  0  0  0  0  0  0  0  0  0  0  0
    0.7136    1.2375    0.0000 N   0  0  0  0  0  0  0  0  0  0  0  0
    0.7136    2.0624    0.0000 C   0  0  0  0  0  0  0  0  0  0  0  0
    1.4313    2.4749    0.0000 O   0  0  0  0  0  0  0  0  0  0  0  0
   -0.0040    2.4749    0.0000 O   0  0  0  0  0  0  0  0  0  0  0  0
   -0.0040    3.3000    0.0000 C   0  0  0  0  0  0  0  0  0  0  0  0
   -0.0040    4.1251    0.0000 C   0  0  0  0  0  0  0  0  0  0  0  0
   -0.8291    3.3000    0.0000 C   0  0  0  0  0  0  0  0  0  0  0  0
    0.8208    3.3000    0.0000 C   0  0  0  0  0  0  0  0  0  0  0  0
   -2.1383   -0.2055    0.0000 H   0  0  0  0  0  0  0  0  0  0  0  0
   -3.7519   -1.1331    0.0000 H   0  0  0  0  0  0  0  0  0  0  0  0
   -3.7519   -2.9918    0.0000 H   0  0  0  0  0  0  0  0  0  0  0  0
   -2.1383   -3.9195    0.0000 H   0  0  0  0  0  0  0  0  0  0  0  0
   -1.5251   -4.1810    0.0000 H   0  0  0  0  0  0  0  0  0  0  0  0
   -0.2126   -3.4233    0.0000 H   0  0  0  0  0  0  0  0  0  0  0  0
   -0.2126   -4.2484    0.0000 H   0  0  0  0  0  0  0  0  0  0  0  0
    0.7151   -4.7825    0.0000 H   0  0  0  0  0  0  0  0  0  0  0  0
    1.4333   -5.1951    0.0000 H   0  0  0  0  0  0  0  0  0  0  0  0
    2.3570   -3.5884    0.0000 H   0  0  0  0  0  0  0  0  0  0  0  0
    2.3589   -4.6584    0.0000 H   0  0  0  0  0  0  0  0  0  0  0  0
    0.5368   -1.1353    0.0000 H   0  0  0  0  0  0  0  0  0  0  0  0
    2.1383   -3.9195    0.0000 H   0  0  0  0  0  0  0  0  0  0  0  0
    3.7519   -2.9918    0.0000 H   0  0  0  0  0  0  0  0  0  0  0  0
    3.7519   -1.1331    0.0000 H   0  0  0  0  0  0  0  0  0  0  0  0
    2.9942    0.0785    0.0000 H   0  0  0  0  0  0  0  0  0  0  0  0
    2.3575    1.3608    0.0000 H   0  0  0  0  0  0  0  0  0  0  0  0
    1.4298    1.8949    0.0000 H   0  0  0  0  0  0  0  0  0  0  0  0
   -0.1385    0.7445    0.0000 H   0  0  0  0  0  0  0  0  0  0  0  0
    0.9226    4.6601    0.0000 H   0  0  0  0  0  0  0  0  0  0  0  0
   -0.9306    4.6601    0.0000 H   0  0  0  0  0  0  0  0  0  0  0  0
   -0.0040    5.1951    0.0000 H   0  0  0  0  0  0  0  0  0  0  0  0
   -1.3641    4.2266    0.0000 H   0  0  0  0  0  0  0  0  0  0  0  0
   -1.3641    2.3734    0.0000 H   0  0  0  0  0  0  0  0  0  0  0  0
   -1.8991    3.3000    0.0000 H   0  0  0  0  0  0  0  0  0  0  0  0
    1.3558    2.3734    0.0000 H   0  0  0  0  0  0  0  0  0  0  0  0
    1.3558    4.2266    0.0000 H   0  0  0  0  0  0  0  0  0  0  0  0
    1.8908    3.3000    0.0000 H   0  0  0  0  0  0  0  0  0  0  0  0
  1  2  1  0  0  0  0
  1  5  2  0  0  0  0
  1 34  1  0  0  0  0
  2  3  2  0  0  0  0
  2 35  1  0  0  0  0
  3  4  1  0  0  0  0
  3 36  1  0  0  0  0
  4  6  2  0  0  0  0
  4 37  1  0  0  0  0
  5 10  1  0  0  0  0
  5  6  1  0  0  0  0
  6  7  1  0  0  0  0
  7  8  2  0  0  0  0
  7 12  1  0  0  0  0
  8  9  1  0  0  0  0
  8 13  1  0  0  0  0
  9 10  1  0  0  0  0
  9 11  2  0  0  0  0
 12 38  1  0  0  0  0
 13 16  1  0  0  0  0
 13 14  1  0  0  0  0
 13 39  1  1  0  0  0
 14 15  1  0  0  0  0
 14 40  1  0  0  0  0
 14 41  1  0  0  0  0
 15 42  1  0  0  0  0
 15 43  1  0  0  0  0
 15 44  1  0  0  0  0
 16 18  2  0  0  0  0
 16 19  1  0  0  0  0
 17 18  1  0  0  0  0
 17 21  2  0  0  0  0
 17 22  1  0  0  0  0
 18 45  1  0  0  0  0
 19 20  2  0  0  0  0
 19 46  1  0  0  0  0
 20 21  1  0  0  0  0
 20 47  1  0  0  0  0
 21 48  1  0  0  0  0
 22 23  1  0  0  0  0
 22 49  1  0  0  0  0
 23 25  1  0  0  0  0
 23 24  2  0  0  0  0
 25 26  1  0  0  0  0
 25 50  1  0  0  0  0
 25 51  1  0  0  0  0
 26 27  1  0  0  0  0
 26 52  1  0  0  0  0
 27 29  1  0  0  0  0
 27 28  2  0  0  0  0
 29 30  1  0  0  0  0
 30 31  1  0  0  0  0
 30 32  1  0  0  0  0
 30 33  1  0  0  0  0
 31 53  1  0  0  0  0
 31 54  1  0  0  0  0
 31 55  1  0  0  0  0
 32 56  1  0  0  0  0
 32 57  1  0  0  0  0
 32 58  1  0  0  0  0
 33 59  1  0  0  0  0
 33 60  1  0  0  0  0
 33 61  1  0  0  0  0
M  END
>  <DRUGBANK_ID>
DB08664

>  <COMMON_NAME>
({3-[1-(4-Hydroxy-2-oxo-2H-chromen-3-yl)-propyl]-phenylcarbamoyl}-methyl)-carbamic acid tert-butyl ester

>  <SYNONYMS>
tert-butyl N-[({3-[(1S)-1-(4-hydroxy-2-oxo-2H-chromen-3-yl)propyl]phenyl}carbamoyl)methyl]carbamate

$$$$
