
 OpenBabel10282417072D

 34 36  0  0  0  0  0  0  0  0999 V2000
   -0.5532   -0.2092    0.0000 C   0  0  0  0  0  0  0  0  0  0  0  0
    0.4757    0.5657    0.0000 C   0  0  0  0  0  0  0  0  0  0  0  0
    0.0883   -0.6835    0.0000 O   0  0  0  0  0  0  0  0  0  0  0  0
   -0.3115    0.5657    0.0000 C   0  0  0  0  0  0  0  0  0  0  0  0
    0.7176   -0.1968    0.0000 C   0  0  0  0  0  0  0  0  0  0  0  0
   -1.3437   -0.4045    0.0000 C   0  0  0  0  0  0  0  0  0  0  0  0
   -1.6227   -1.1825    0.0000 C   0  0  3  0  0  0  0  0  0  0  0  0
   -1.0554   -1.7994    0.0000 C   0  0  0  0  0  0  0  0  0  0  0  0
    1.0430    1.1763    0.0000 C   0  0  0  0  0  0  0  0  0  0  0  0
   -0.2650   -1.6475    0.0000 O   0  0  0  0  0  0  0  0  0  0  0  0
   -1.3251   -2.5713    0.0000 O   0  0  0  0  0  0  0  0  0  0  0  0
   -0.8695    1.1577    0.0000 C   0  0  0  0  0  0  0  0  0  0  0  0
   -1.9482    0.2185    0.0000 C   0  0  0  0  0  0  0  0  0  0  0  0
   -1.6785    1.0089    0.0000 C   0  0  0  0  0  0  0  0  0  0  0  0
   -2.4318   -1.3437    0.0000 C   0  0  0  0  0  0  0  0  0  0  0  0
    0.7858    1.9792    0.0000 C   0  0  0  0  0  0  0  0  0  0  0  0
    1.8738    1.0183    0.0000 C   0  0  0  0  0  0  0  0  0  0  0  0
    1.3531    2.5713    0.0000 C   0  0  0  0  0  0  0  0  0  0  0  0
    2.4318    1.6072    0.0000 C   0  0  0  0  0  0  0  0  0  0  0  0
    2.1775    2.4225    0.0000 C   0  0  0  0  0  0  0  0  0  0  0  0
    1.7027   -0.5044    0.0000 H   0  0  0  0  0  0  0  0  0  0  0  0
   -0.5739   -0.9703    0.0000 H   0  0  0  0  0  0  0  0  0  0  0  0
   -2.2457   -2.7459    0.0000 H   0  0  0  0  0  0  0  0  0  0  0  0
   -0.5483    2.1384    0.0000 H   0  0  0  0  0  0  0  0  0  0  0  0
   -2.9552   -0.0075    0.0000 H   0  0  0  0  0  0  0  0  0  0  0  0
   -2.3527    1.7902    0.0000 H   0  0  0  0  0  0  0  0  0  0  0  0
   -3.1375   -0.5394    0.0000 H   0  0  0  0  0  0  0  0  0  0  0  0
   -2.7754   -2.3570    0.0000 H   0  0  0  0  0  0  0  0  0  0  0  0
   -3.4812   -1.5528    0.0000 H   0  0  0  0  0  0  0  0  0  0  0  0
   -0.2197    2.2115    0.0000 H   0  0  0  0  0  0  0  0  0  0  0  0
    2.1908    0.0362    0.0000 H   0  0  0  0  0  0  0  0  0  0  0  0
    1.0342    3.5528    0.0000 H   0  0  0  0  0  0  0  0  0  0  0  0
    3.4371    1.3739    0.0000 H   0  0  0  0  0  0  0  0  0  0  0  0
    2.8607    3.1960    0.0000 H   0  0  0  0  0  0  0  0  0  0  0  0
  2  4  1  0  0  0  0
  2  5  2  0  0  0  0
  3  1  1  0  0  0  0
  4  1  2  0  0  0  0
  5  3  1  0  0  0  0
  5 21  1  0  0  0  0
  6  1  1  0  0  0  0
  7  6  1  0  0  0  0
  7 22  1  0  0  0  0
  8  7  1  0  0  0  0
  9  2  1  0  0  0  0
 10  8  2  0  0  0  0
 11  8  1  0  0  0  0
 11 23  1  0  0  0  0
 12  4  1  0  0  0  0
 12 14  2  0  0  0  0
 12 24  1  0  0  0  0
 13  6  2  0  0  0  0
 13 25  1  0  0  0  0
 14 13  1  0  0  0  0
 14 26  1  0  0  0  0
 15  7  1  0  0  0  0
 15 27  1  0  0  0  0
 15 28  1  0  0  0  0
 15 29  1  0  0  0  0
 16  9  1  0  0  0  0
 16 30  1  0  0  0  0
 17  9  2  0  0  0  0
 17 31  1  0  0  0  0
 18 16  2  0  0  0  0
 18 20  1  0  0  0  0
 18 32  1  0  0  0  0
 19 17  1  0  0  0  0
 19 33  1  0  0  0  0
 20 19  2  0  0  0  0
 20 34  1  0  0  0  0
M  END
>  <DRUGBANK_ID>
DB06499

>  <COMMON_NAME>
Furaprofen

>  <CAS_NUMBER>
67700-30-5

>  <UNII>
T9G78A1R21

>  <SYNONYMS>
alpha-Methyl-3-phenyl-7-benzofuranacetic acid; Furaprofen; Furaprofeno; Furaprofenum

$$$$
