
 OpenBabel10282417072D

119126  0  0  1  0  0  0  0  0999 V2000
   13.3011   -7.7044    0.0000 O   0  0  0  0  0  0  0  0  0  0  0  0
   14.0047   -7.2489    0.0000 C   0  0  2  0  0  0  0  0  0  0  0  0
   14.7192   -7.6614    0.0000 C   0  0  0  0  0  0  0  0  0  0  0  0
   15.4336   -7.2489    0.0000 C   0  0  2  0  0  0  0  0  0  0  0  0
   15.4336   -6.4239    0.0000 C   0  0  2  0  0  0  0  0  0  0  0  0
   14.7192   -6.0114    0.0000 C   0  0  0  0  0  0  0  0  0  0  0  0
   14.0047   -6.4239    0.0000 C   0  0  0  0  0  0  0  0  0  0  0  0
   16.1481   -7.6614    0.0000 C   0  0  0  0  0  0  0  0  0  0  0  0
   16.8626   -7.2489    0.0000 C   0  0  0  0  0  0  0  0  0  0  0  0
   16.8626   -6.4239    0.0000 C   0  0  2  0  0  0  0  0  0  0  0  0
   16.1481   -6.0114    0.0000 C   0  0  2  0  0  0  0  0  0  0  0  0
   17.5770   -6.0114    0.0000 C   0  0  2  0  0  0  0  0  0  0  0  0
   17.5770   -5.1864    0.0000 C   0  0  2  0  0  0  0  0  0  0  0  0
   16.8626   -4.7739    0.0000 C   0  0  1  0  0  0  0  0  0  0  0  0
   16.1481   -5.1864    0.0000 C   0  0  0  0  0  0  0  0  0  0  0  0
   18.3616   -6.2663    0.0000 C   0  0  0  0  0  0  0  0  0  0  0  0
   18.8466   -5.5989    0.0000 C   0  0  0  0  0  0  0  0  0  0  0  0
   18.3616   -4.9315    0.0000 C   0  0  2  0  0  0  0  0  0  0  0  0
   18.6204   -4.1342    0.0000 C   0  0  0  0  0  0  0  0  0  0  0  0
   19.4518   -4.1509    0.0000 C   0  0  0  0  0  0  0  0  0  0  0  0
   19.7255   -3.3679    0.0000 C   0  0  0  0  0  0  0  0  0  0  0  0
   19.0655   -2.8656    0.0000 O   0  0  0  0  0  0  0  0  0  0  0  0
   18.3839   -3.3380    0.0000 C   0  0  0  0  0  0  0  0  0  0  0  0
   20.5063   -3.1334    0.0000 O   0  0  0  0  0  0  0  0  0  0  0  0
   17.5770   -4.3614    0.0000 C   0  0  0  0  0  0  0  0  0  0  0  0
   17.5770   -6.8364    0.0000 O   0  0  0  0  0  0  0  0  0  0  0  0
   16.8626   -5.5989    0.0000 H   0  0  0  0  0  0  0  0  0  0  0  0
   15.4336   -5.5989    0.0000 C   0  0  0  0  0  0  0  0  0  0  0  0
   15.4336   -8.0739    0.0000 H   0  0  0  0  0  0  0  0  0  0  0  0
   16.1481   -6.8364    0.0000 H   0  0  0  0  0  0  0  0  0  0  0  0
   12.5632   -7.3271    0.0000 C   0  0  2  0  0  0  0  0  0  0  0  0
   12.5632   -6.5021    0.0000 O   0  0  0  0  0  0  0  0  0  0  0  0
   11.8487   -6.0896    0.0000 C   0  0  1  0  0  0  0  0  0  0  0  0
   11.1342   -6.5021    0.0000 C   0  0  2  0  0  0  0  0  0  0  0  0
   11.1342   -7.3271    0.0000 C   0  0  2  0  0  0  0  0  0  0  0  0
   11.8487   -7.7396    0.0000 C   0  0  0  0  0  0  0  0  0  0  0  0
   10.4197   -6.0896    0.0000 O   0  0  0  0  0  0  0  0  0  0  0  0
    9.7053   -6.5021    0.0000 C   0  0  2  0  0  0  0  0  0  0  0  0
    9.7053   -7.3271    0.0000 O   0  0  0  0  0  0  0  0  0  0  0  0
   10.4197   -7.7396    0.0000 O   0  0  0  0  0  0  0  0  0  0  0  0
    8.9908   -6.0896    0.0000 C   0  0  0  0  0  0  0  0  0  0  0  0
    8.2764   -6.5021    0.0000 C   0  0  1  0  0  0  0  0  0  0  0  0
    8.2764   -7.3271    0.0000 C   0  0  1  0  0  0  0  0  0  0  0  0
    8.9908   -7.7396    0.0000 C   0  0  1  0  0  0  0  0  0  0  0  0
    7.5618   -6.0896    0.0000 O   0  0  0  0  0  0  0  0  0  0  0  0
    6.8474   -6.5021    0.0000 O   0  0  0  0  0  0  0  0  0  0  0  0
    6.8474   -7.3271    0.0000 C   0  0  1  0  0  0  0  0  0  0  0  0
    7.5618   -7.7396    0.0000 O   0  0  0  0  0  0  0  0  0  0  0  0
    6.1330   -6.0896    0.0000 C   0  0  1  0  0  0  0  0  0  0  0  0
    5.4185   -6.5021    0.0000 C   0  0  2  0  0  0  0  0  0  0  0  0
    5.4185   -7.3271    0.0000 C   0  0  2  0  0  0  0  0  0  0  0  0
    6.1330   -7.7396    0.0000 C   0  0  0  0  0  0  0  0  0  0  0  0
    4.7040   -6.0896    0.0000 O   0  0  0  0  0  0  0  0  0  0  0  0
    4.7040   -7.7396    0.0000 O   0  0  0  0  0  0  0  0  0  0  0  0
   11.8485   -5.2533    0.0000 C   0  0  0  0  0  0  0  0  0  0  0  0
    8.9906   -8.5530    0.0000 C   0  0  0  0  0  0  0  0  0  0  0  0
    6.1330   -5.2532    0.0000 C   0  0  0  0  0  0  0  0  0  0  0  0
   16.8626   -3.9480    0.0000 O   0  0  0  0  0  0  0  0  0  0  0  0
   14.0320   -8.3186    0.0000 H   0  0  0  0  0  0  0  0  0  0  0  0
   14.7192   -8.7314    0.0000 H   0  0  0  0  0  0  0  0  0  0  0  0
   15.6459   -8.1964    0.0000 H   0  0  0  0  0  0  0  0  0  0  0  0
   14.7192   -4.9414    0.0000 H   0  0  0  0  0  0  0  0  0  0  0  0
   13.7926   -5.4764    0.0000 H   0  0  0  0  0  0  0  0  0  0  0  0
   13.0781   -5.8889    0.0000 H   0  0  0  0  0  0  0  0  0  0  0  0
   13.0781   -6.9589    0.0000 H   0  0  0  0  0  0  0  0  0  0  0  0
   16.1481   -8.7314    0.0000 H   0  0  0  0  0  0  0  0  0  0  0  0
   17.0747   -8.1964    0.0000 H   0  0  0  0  0  0  0  0  0  0  0  0
   17.7892   -7.7839    0.0000 H   0  0  0  0  0  0  0  0  0  0  0  0
   17.7892   -6.7139    0.0000 H   0  0  0  0  0  0  0  0  0  0  0  0
   17.7893   -4.2389    0.0000 H   0  0  0  0  0  0  0  0  0  0  0  0
   15.2215   -4.6514    0.0000 H   0  0  0  0  0  0  0  0  0  0  0  0
   15.2215   -5.7214    0.0000 H   0  0  0  0  0  0  0  0  0  0  0  0
   18.6922   -7.2839    0.0000 H   0  0  0  0  0  0  0  0  0  0  0  0
   19.4184   -6.4338    0.0000 H   0  0  0  0  0  0  0  0  0  0  0  0
   19.9166   -5.5989    0.0000 H   0  0  0  0  0  0  0  0  0  0  0  0
   19.3323   -4.6455    0.0000 H   0  0  0  0  0  0  0  0  0  0  0  0
   19.4184   -4.7639    0.0000 H   0  0  0  0  0  0  0  0  0  0  0  0
   20.0406   -4.9984    0.0000 H   0  0  0  0  0  0  0  0  0  0  0  0
   17.3744   -2.9832    0.0000 H   0  0  0  0  0  0  0  0  0  0  0  0
   17.6089   -4.0757    0.0000 H   0  0  0  0  0  0  0  0  0  0  0  0
   18.5036   -3.8264    0.0000 H   0  0  0  0  0  0  0  0  0  0  0  0
   16.6504   -3.8264    0.0000 H   0  0  0  0  0  0  0  0  0  0  0  0
   17.5770   -3.2914    0.0000 H   0  0  0  0  0  0  0  0  0  0  0  0
   16.7370   -7.3214    0.0000 H   0  0  0  0  0  0  0  0  0  0  0  0
   16.3602   -5.0639    0.0000 H   0  0  0  0  0  0  0  0  0  0  0  0
   14.5070   -5.0639    0.0000 H   0  0  0  0  0  0  0  0  0  0  0  0
   15.4336   -4.5289    0.0000 H   0  0  0  0  0  0  0  0  0  0  0  0
   13.4759   -6.7687    0.0000 H   0  0  0  0  0  0  0  0  0  0  0  0
   12.7753   -5.5545    0.0000 H   0  0  0  0  0  0  0  0  0  0  0  0
   11.1342   -5.4321    0.0000 H   0  0  0  0  0  0  0  0  0  0  0  0
   10.2076   -6.7921    0.0000 H   0  0  0  0  0  0  0  0  0  0  0  0
   11.8487   -8.8096    0.0000 H   0  0  0  0  0  0  0  0  0  0  0  0
   12.7753   -8.2746    0.0000 H   0  0  0  0  0  0  0  0  0  0  0  0
   10.6320   -7.0371    0.0000 H   0  0  0  0  0  0  0  0  0  0  0  0
    9.5797   -7.2546    0.0000 H   0  0  0  0  0  0  0  0  0  0  0  0
    8.9908   -5.0196    0.0000 H   0  0  0  0  0  0  0  0  0  0  0  0
    8.0641   -5.5546    0.0000 H   0  0  0  0  0  0  0  0  0  0  0  0
    8.2763   -5.4321    0.0000 H   0  0  0  0  0  0  0  0  0  0  0  0
    7.3498   -6.7921    0.0000 H   0  0  0  0  0  0  0  0  0  0  0  0
    8.0641   -8.2745    0.0000 H   0  0  0  0  0  0  0  0  0  0  0  0
    7.5617   -5.1196    0.0000 H   0  0  0  0  0  0  0  0  0  0  0  0
    7.7741   -6.7921    0.0000 H   0  0  0  0  0  0  0  0  0  0  0  0
    7.0597   -5.5546    0.0000 H   0  0  0  0  0  0  0  0  0  0  0  0
    5.4185   -5.4321    0.0000 H   0  0  0  0  0  0  0  0  0  0  0  0
    4.4919   -6.7921    0.0000 H   0  0  0  0  0  0  0  0  0  0  0  0
    6.1330   -8.8096    0.0000 H   0  0  0  0  0  0  0  0  0  0  0  0
    7.0597   -8.2746    0.0000 H   0  0  0  0  0  0  0  0  0  0  0  0
    4.7040   -5.1196    0.0000 H   0  0  0  0  0  0  0  0  0  0  0  0
    3.8640   -7.2546    0.0000 H   0  0  0  0  0  0  0  0  0  0  0  0
   12.7750   -4.7181    0.0000 H   0  0  0  0  0  0  0  0  0  0  0  0
   10.9217   -4.7185    0.0000 H   0  0  0  0  0  0  0  0  0  0  0  0
   11.8482   -4.1833    0.0000 H   0  0  0  0  0  0  0  0  0  0  0  0
    8.0638   -9.0878    0.0000 H   0  0  0  0  0  0  0  0  0  0  0  0
    9.9171   -9.0882    0.0000 H   0  0  0  0  0  0  0  0  0  0  0  0
    8.9903   -9.6230    0.0000 H   0  0  0  0  0  0  0  0  0  0  0  0
    7.0596   -4.7182    0.0000 H   0  0  0  0  0  0  0  0  0  0  0  0
    5.2064   -4.7182    0.0000 H   0  0  0  0  0  0  0  0  0  0  0  0
    6.1330   -4.1832    0.0000 H   0  0  0  0  0  0  0  0  0  0  0  0
   17.7026   -3.4630    0.0000 H   0  0  0  0  0  0  0  0  0  0  0  0
  2  1  1  0  0  0  0
  2  3  1  0  0  0  0
  2  7  1  0  0  0  0
  2 59  1  6  0  0  0
  3  4  1  0  0  0  0
  3 60  1  0  0  0  0
  3 61  1  0  0  0  0
  4  5  1  0  0  0  0
  4  8  1  0  0  0  0
  4 29  1  1  0  0  0
  5  6  1  0  0  0  0
  5 11  1  0  0  0  0
  5 28  1  1  0  0  0
  6  7  1  0  0  0  0
  6 62  1  0  0  0  0
  6 63  1  0  0  0  0
  7 64  1  0  0  0  0
  7 65  1  0  0  0  0
  8  9  1  0  0  0  0
  8 66  1  0  0  0  0
  8 67  1  0  0  0  0
  9 10  1  0  0  0  0
  9 68  1  0  0  0  0
  9 69  1  0  0  0  0
 10 11  1  0  0  0  0
 10 12  1  0  0  0  0
 10 27  1  1  0  0  0
 11 15  1  0  0  0  0
 11 30  1  6  0  0  0
 12 13  1  0  0  0  0
 12 16  1  0  0  0  0
 12 26  1  1  0  0  0
 13 14  1  0  0  0  0
 13 18  1  0  0  0  0
 13 25  1  1  0  0  0
 14 15  1  0  0  0  0
 14 58  1  0  0  0  0
 14 70  1  6  0  0  0
 15 71  1  0  0  0  0
 15 72  1  0  0  0  0
 16 17  1  0  0  0  0
 16 73  1  0  0  0  0
 16 74  1  0  0  0  0
 17 18  1  0  0  0  0
 17 75  1  0  0  0  0
 17 76  1  0  0  0  0
 18 19  1  0  0  0  0
 18 77  1  6  0  0  0
 19 20  2  0  0  0  0
 19 23  1  0  0  0  0
 20 21  1  0  0  0  0
 20 78  1  0  0  0  0
 21 22  1  0  0  0  0
 21 24  2  0  0  0  0
 22 23  1  0  0  0  0
 23 79  1  0  0  0  0
 23 80  1  0  0  0  0
 25 81  1  0  0  0  0
 25 82  1  0  0  0  0
 25 83  1  0  0  0  0
 26 84  1  0  0  0  0
 28 85  1  0  0  0  0
 28 86  1  0  0  0  0
 28 87  1  0  0  0  0
 31  1  1  0  0  0  0
 31 32  1  0  0  0  0
 31 36  1  0  0  0  0
 31 88  1  6  0  0  0
 32 33  1  0  0  0  0
 33 34  1  0  0  0  0
 33 55  1  0  0  0  0
 33 89  1  6  0  0  0
 34 35  1  0  0  0  0
 34 37  1  0  0  0  0
 34 90  1  1  0  0  0
 35 36  1  0  0  0  0
 35 40  1  0  0  0  0
 35 91  1  1  0  0  0
 36 92  1  0  0  0  0
 36 93  1  0  0  0  0
 38 37  1  0  0  0  0
 38 39  1  0  0  0  0
 38 41  1  0  0  0  0
 38 94  1  1  0  0  0
 39 44  1  0  0  0  0
 40 95  1  0  0  0  0
 41 42  1  0  0  0  0
 41 96  1  0  0  0  0
 41 97  1  0  0  0  0
 42 43  1  0  0  0  0
 42 45  1  0  0  0  0
 42 98  1  6  0  0  0
 43 44  1  0  0  0  0
 43 48  1  0  0  0  0
 43 99  1  6  0  0  0
 44 56  1  0  0  0  0
 44100  1  1  0  0  0
 45101  1  0  0  0  0
 46 47  1  0  0  0  0
 46 49  1  0  0  0  0
 47 48  1  0  0  0  0
 47 52  1  0  0  0  0
 47102  1  6  0  0  0
 49 50  1  0  0  0  0
 49 57  1  0  0  0  0
 49103  1  6  0  0  0
 50 51  1  0  0  0  0
 50 53  1  0  0  0  0
 50104  1  1  0  0  0
 51 52  1  0  0  0  0
 51 54  1  0  0  0  0
 51105  1  1  0  0  0
 52106  1  0  0  0  0
 52107  1  0  0  0  0
 53108  1  0  0  0  0
 54109  1  0  0  0  0
 55110  1  0  0  0  0
 55111  1  0  0  0  0
 55112  1  0  0  0  0
 56113  1  0  0  0  0
 56114  1  0  0  0  0
 56115  1  0  0  0  0
 57116  1  0  0  0  0
 57117  1  0  0  0  0
 57118  1  0  0  0  0
 58119  1  0  0  0  0
M  END
>  <DRUGBANK_ID>
DB00390

>  <SECONDARY_ACCESSION_NUMBERS>
APRD00098

>  <COMMON_NAME>
Digoxin

>  <CAS_NUMBER>
20830-75-5

>  <UNII>
73K4184T59

>  <SYNONYMS>
12Î²-hydroxydigitoxin; Digossina; Digoxin; Digoxina; Digoxine; Digoxinum

$$$$
