
 OpenBabel10282417072D

 26 25  0  0  1  0  0  0  0  0999 V2000
    0.6336   -0.7145    0.0000 C   0  0  0  0  0  0  0  0  0  0  0  0
    1.3480   -0.3020    0.0000 C   0  0  0  0  0  0  0  0  0  0  0  0
    2.0625   -0.7145    0.0000 C   0  0  0  0  0  0  0  0  0  0  0  0
    2.7770   -0.3020    0.0000 C   0  0  0  0  0  0  0  0  0  0  0  0
    4.9204   -0.7145    0.0000 C   0  0  0  0  0  0  0  0  0  0  0  0
    3.4914   -0.7145    0.0000 C   0  0  2  0  0  0  0  0  0  0  0  0
    4.2059   -0.3020    0.0000 C   0  0  2  0  0  0  0  0  0  0  0  0
    5.6349   -0.3020    0.0000 O   0  0  0  0  0  0  0  0  0  0  0  0
    3.4914   -1.5395    0.0000 O   0  0  0  0  0  0  0  0  0  0  0  0
    4.2059    0.5230    0.0000 O   0  0  0  0  0  0  0  0  0  0  0  0
    3.4914    0.1105    0.0000 H   0  0  0  0  0  0  0  0  0  0  0  0
    4.2059   -1.1270    0.0000 H   0  0  0  0  0  0  0  0  0  0  0  0
   -0.2931   -0.1795    0.0000 H   0  0  0  0  0  0  0  0  0  0  0  0
    0.6336   -1.7845    0.0000 H   0  0  0  0  0  0  0  0  0  0  0  0
   -0.2930   -1.2495    0.0000 H   0  0  0  0  0  0  0  0  0  0  0  0
    1.3480    0.7680    0.0000 H   0  0  0  0  0  0  0  0  0  0  0  0
    2.2746    0.2330    0.0000 H   0  0  0  0  0  0  0  0  0  0  0  0
    2.0625   -1.7845    0.0000 H   0  0  0  0  0  0  0  0  0  0  0  0
    2.9891   -1.2495    0.0000 H   0  0  0  0  0  0  0  0  0  0  0  0
    2.7770    0.7680    0.0000 H   0  0  0  0  0  0  0  0  0  0  0  0
    3.7037    0.2330    0.0000 H   0  0  0  0  0  0  0  0  0  0  0  0
    4.9204   -1.7845    0.0000 H   0  0  0  0  0  0  0  0  0  0  0  0
    5.8470   -1.2495    0.0000 H   0  0  0  0  0  0  0  0  0  0  0  0
    6.4749   -0.7870    0.0000 H   0  0  0  0  0  0  0  0  0  0  0  0
    2.6514   -2.0245    0.0000 H   0  0  0  0  0  0  0  0  0  0  0  0
    5.0459    1.0080    0.0000 H   0  0  0  0  0  0  0  0  0  0  0  0
  1 13  1  0  0  0  0
  1 14  1  0  0  0  0
  1 15  1  0  0  0  0
  2  1  1  0  0  0  0
  2 16  1  0  0  0  0
  2 17  1  0  0  0  0
  3  2  1  0  0  0  0
  3 18  1  0  0  0  0
  3 19  1  0  0  0  0
  4  3  1  0  0  0  0
  4 20  1  0  0  0  0
  4 21  1  0  0  0  0
  5 22  1  0  0  0  0
  5 23  1  0  0  0  0
  6  4  1  0  0  0  0
  6  9  1  0  0  0  0
  6 11  1  1  0  0  0
  7  5  1  0  0  0  0
  7  6  1  0  0  0  0
  7 10  1  0  0  0  0
  7 12  1  1  0  0  0
  8  5  1  0  0  0  0
  8 24  1  0  0  0  0
  9 25  1  0  0  0  0
 10 26  1  0  0  0  0
M  END
>  <DRUGBANK_ID>
DB04079

>  <SECONDARY_ACCESSION_NUMBERS>
EXPT01791

>  <COMMON_NAME>
Heptane-1,2,3-Triol

$$$$
