
 OpenBabel10282417072D

 66 68  0  0  0  0  0  0  0  0999 V2000
   -0.0922    1.2425    0.0000 C   0  0  0  0  0  0  0  0  0  0  0  0
   -0.0380    2.0679    0.0000 C   0  0  0  0  0  0  0  0  0  0  0  0
    0.5490    0.7153    0.0000 C   0  0  0  0  0  0  0  0  0  0  0  0
   -0.8081    2.3697    0.0000 O   0  0  0  0  0  0  0  0  0  0  0  0
    0.4094   -0.1000    0.0000 C   0  0  0  0  0  0  0  0  0  0  0  0
   -0.8910    1.0366    0.0000 C   0  0  0  0  0  0  0  0  0  0  0  0
    0.6594    2.5109    0.0000 C   0  0  0  0  0  0  0  0  0  0  0  0
   -1.3340    1.7340    0.0000 C   0  0  0  0  0  0  0  0  0  0  0  0
    0.1338   -1.7287    0.0000 C   0  0  0  0  0  0  0  0  0  0  0  0
   -0.5016   -1.2030    0.0000 C   0  0  0  0  0  0  0  0  0  0  0  0
    0.9090   -1.4391    0.0000 C   0  0  0  0  0  0  0  0  0  0  0  0
    0.6255    3.3348    0.0000 C   0  0  0  0  0  0  0  0  0  0  0  0
   -0.3621   -0.3874    0.0000 C   0  0  0  0  0  0  0  0  0  0  0  0
    1.0451   -0.6258    0.0000 C   0  0  0  0  0  0  0  0  0  0  0  0
    1.3208    1.0028    0.0000 O   0  0  0  0  0  0  0  0  0  0  0  0
    1.3230    3.7780    0.0000 O   0  0  0  0  0  0  0  0  0  0  0  0
   -0.1080    3.7193    0.0000 O   0  0  0  0  0  0  0  0  0  0  0  0
    1.5446   -1.9648    0.0000 I   0  0  0  0  0  0  0  0  0  0  0  0
   -1.2790   -1.4890    0.0000 I   0  0  0  0  0  0  0  0  0  0  0  0
   -0.0022   -2.5419    0.0000 O   0  0  0  0  0  0  0  0  0  0  0  0
    1.1351   -4.4103    0.0000 N   0  0  0  0  0  0  0  0  0  0  0  0
   -1.2718    0.3052    0.0000 C   0  0  0  0  0  0  0  0  0  0  0  0
    0.6334   -3.0678    0.0000 C   0  0  0  0  0  0  0  0  0  0  0  0
   -2.1580    1.7001    0.0000 C   0  0  0  0  0  0  0  0  0  0  0  0
   -0.1419    4.5432    0.0000 C   0  0  2  0  0  0  0  0  0  0  0  0
    0.4960   -3.8867    0.0000 C   0  0  0  0  0  0  0  0  0  0  0  0
    1.9068   -4.1227    0.0000 C   0  0  0  0  0  0  0  0  0  0  0  0
    0.9956   -5.2258    0.0000 C   0  0  0  0  0  0  0  0  0  0  0  0
   -0.8756    4.9276    0.0000 C   0  0  0  0  0  0  0  0  0  0  0  0
    0.2387    5.2746    0.0000 C   0  0  0  0  0  0  0  0  0  0  0  0
   -2.0992    0.2690    0.0000 C   0  0  0  0  0  0  0  0  0  0  0  0
    2.5423   -4.6486    0.0000 C   0  0  0  0  0  0  0  0  0  0  0  0
    1.6311   -5.7516    0.0000 C   0  0  0  0  0  0  0  0  0  0  0  0
   -2.5423    0.9666    0.0000 C   0  0  0  0  0  0  0  0  0  0  0  0
   -0.9095    5.7516    0.0000 C   0  0  0  0  0  0  0  0  0  0  0  0
    1.6076    2.0150    0.0000 H   0  0  0  0  0  0  0  0  0  0  0  0
    1.5631    3.0838    0.0000 H   0  0  0  0  0  0  0  0  0  0  0  0
   -1.1568    0.2709    0.0000 H   0  0  0  0  0  0  0  0  0  0  0  0
    2.0120   -0.2652    0.0000 H   0  0  0  0  0  0  0  0  0  0  0  0
   -0.7173   -0.5652    0.0000 H   0  0  0  0  0  0  0  0  0  0  0  0
    1.6361   -2.6942    0.0000 H   0  0  0  0  0  0  0  0  0  0  0  0
    1.4585   -3.7490    0.0000 H   0  0  0  0  0  0  0  0  0  0  0  0
   -2.7102    2.5719    0.0000 H   0  0  0  0  0  0  0  0  0  0  0  0
    0.9025    4.3104    0.0000 H   0  0  0  0  0  0  0  0  0  0  0  0
   -0.5058   -4.2627    0.0000 H   0  0  0  0  0  0  0  0  0  0  0  0
   -0.3299   -3.2065    0.0000 H   0  0  0  0  0  0  0  0  0  0  0  0
    2.0850   -3.0676    0.0000 H   0  0  0  0  0  0  0  0  0  0  0  0
    2.9097   -3.7497    0.0000 H   0  0  0  0  0  0  0  0  0  0  0  0
   -0.0077   -5.5978    0.0000 H   0  0  0  0  0  0  0  0  0  0  0  0
    0.8166   -6.2807    0.0000 H   0  0  0  0  0  0  0  0  0  0  0  0
   -1.7795    4.3550    0.0000 H   0  0  0  0  0  0  0  0  0  0  0  0
   -1.8234    5.4241    0.0000 H   0  0  0  0  0  0  0  0  0  0  0  0
    1.3077    5.3214    0.0000 H   0  0  0  0  0  0  0  0  0  0  0  0
   -0.3363    6.1769    0.0000 H   0  0  0  0  0  0  0  0  0  0  0  0
    0.7326    6.2238    0.0000 H   0  0  0  0  0  0  0  0  0  0  0  0
   -2.5763   -0.6461    0.0000 H   0  0  0  0  0  0  0  0  0  0  0  0
    2.3637   -5.7036    0.0000 H   0  0  0  0  0  0  0  0  0  0  0  0
    3.5453   -4.2758    0.0000 H   0  0  0  0  0  0  0  0  0  0  0  0
    3.3666   -5.3308    0.0000 H   0  0  0  0  0  0  0  0  0  0  0  0
    1.4526   -6.8066    0.0000 H   0  0  0  0  0  0  0  0  0  0  0  0
    2.6340   -5.3787    0.0000 H   0  0  0  0  0  0  0  0  0  0  0  0
    2.4555   -6.4337    0.0000 H   0  0  0  0  0  0  0  0  0  0  0  0
   -3.5734    0.9236    0.0000 H   0  0  0  0  0  0  0  0  0  0  0  0
   -0.0056    6.3242    0.0000 H   0  0  0  0  0  0  0  0  0  0  0  0
   -1.8574    6.2481    0.0000 H   0  0  0  0  0  0  0  0  0  0  0  0
   -0.9535    6.8207    0.0000 H   0  0  0  0  0  0  0  0  0  0  0  0
  2  1  2  0  0  0  0
  3  1  1  0  0  0  0
  4  2  1  0  0  0  0
  5  3  1  0  0  0  0
  6  1  1  0  0  0  0
  7  2  1  0  0  0  0
  7 36  1  0  0  0  0
  7 37  1  0  0  0  0
  8  4  1  0  0  0  0
  8  6  2  0  0  0  0
  9 10  1  0  0  0  0
  9 11  2  0  0  0  0
 10 13  2  0  0  0  0
 11 14  1  0  0  0  0
 12  7  1  0  0  0  0
 13  5  1  0  0  0  0
 13 38  1  0  0  0  0
 14  5  2  0  0  0  0
 14 39  1  0  0  0  0
 15  3  2  0  0  0  0
 16 12  2  0  0  0  0
 17 12  1  0  0  0  0
 18 11  1  0  0  0  0
 19 10  1  0  0  0  0
 20  9  1  0  0  0  0
 21 26  1  0  0  0  0
 22  6  1  0  0  0  0
 22 40  1  0  0  0  0
 23 20  1  0  0  0  0
 23 41  1  0  0  0  0
 23 42  1  0  0  0  0
 24  8  1  0  0  0  0
 24 43  1  0  0  0  0
 25 17  1  0  0  0  0
 25 30  1  0  0  0  0
 25 44  1  1  0  0  0
 26 23  1  0  0  0  0
 26 45  1  0  0  0  0
 26 46  1  0  0  0  0
 27 21  1  0  0  0  0
 27 47  1  0  0  0  0
 27 48  1  0  0  0  0
 28 21  1  0  0  0  0
 28 49  1  0  0  0  0
 28 50  1  0  0  0  0
 29 25  1  0  0  0  0
 29 51  1  0  0  0  0
 29 52  1  0  0  0  0
 30 53  1  0  0  0  0
 30 54  1  0  0  0  0
 30 55  1  0  0  0  0
 31 22  2  0  0  0  0
 31 56  1  0  0  0  0
 32 27  1  0  0  0  0
 32 57  1  0  0  0  0
 32 58  1  0  0  0  0
 32 59  1  0  0  0  0
 33 28  1  0  0  0  0
 33 60  1  0  0  0  0
 33 61  1  0  0  0  0
 33 62  1  0  0  0  0
 34 31  1  0  0  0  0
 34 24  2  0  0  0  0
 34 63  1  0  0  0  0
 35 29  1  0  0  0  0
 35 64  1  0  0  0  0
 35 65  1  0  0  0  0
 35 66  1  0  0  0  0
M  END
>  <DRUGBANK_ID>
DB05519

>  <COMMON_NAME>
Budiodarone

>  <CAS_NUMBER>
335148-45-3

>  <UNII>
F5Y53150C8

>  <SYNONYMS>
Budiodarone

$$$$
