ECG
 OpenBabel10282417072D

 31 32  0  0  0  0  0  0  0  0999 V2000
   -0.4132   -0.0716    0.0000 C   0  0  0  0  0  0  0  0  0  0  0  0
   -0.0927    0.6370    0.0000 C   0  0  1  0  0  0  0  0  0  0  0  0
    0.8361    0.6525    0.0000 C   0  0  0  0  0  0  0  0  0  0  0  0
    0.9743   -0.1649    0.0000 C   0  0  2  0  0  0  0  0  0  0  0  0
    1.3861   -0.8797    0.0000 O   0  0  0  0  0  0  0  0  0  0  0  0
   -1.0335   -0.4485    0.0000 C   0  0  0  0  0  0  0  0  0  0  0  0
   -0.5136    0.2638    0.0000 C   0  0  1  0  0  0  0  0  0  0  0  0
   -0.6533    1.0769    0.0000 N   0  0  0  0  0  0  0  0  0  0  0  0
    0.4581    0.2638    0.0000 C   0  0  1  0  0  0  0  0  0  0  0  0
    0.1779   -0.5121    0.0000 C   0  0  0  0  0  0  0  0  0  0  0  0
   -0.6342   -0.6574    0.0000 O   0  0  0  0  0  0  0  0  0  0  0  0
   -0.9144   -1.4335    0.0000 C   0  0  0  0  0  0  0  0  0  0  0  0
    0.7098   -1.1428    0.0000 O   0  0  0  0  0  0  0  0  0  0  0  0
   -1.0759    1.7855    0.0000 C   0  0  0  0  0  0  0  0  0  0  0  0
   -0.2272    1.2053    0.0000 H   0  0  0  0  0  0  0  0  0  0  0  0
    1.5239    0.0326    0.0000 H   0  0  0  0  0  0  0  0  0  0  0  0
   -0.7782    0.7844    0.0000 H   0  0  0  0  0  0  0  0  0  0  0  0
    0.6114   -0.2996    0.0000 H   0  0  0  0  0  0  0  0  0  0  0  0
    0.3878   -0.7810    0.0000 H   0  0  0  0  0  0  0  0  0  0  0  0
   -0.5087   -1.1373    0.0000 H   0  0  0  0  0  0  0  0  0  0  0  0
    1.5199    1.4755    0.0000 H   0  0  0  0  0  0  0  0  0  0  0  0
    1.8693    0.3744    0.0000 H   0  0  0  0  0  0  0  0  0  0  0  0
    0.9003   -1.7193    0.0000 H   0  0  0  0  0  0  0  0  0  0  0  0
   -1.8214   -1.1725    0.0000 H   0  0  0  0  0  0  0  0  0  0  0  0
   -1.8315    0.2643    0.0000 H   0  0  0  0  0  0  0  0  0  0  0  0
   -1.9677   -1.6220    0.0000 H   0  0  0  0  0  0  0  0  0  0  0  0
   -0.2245   -2.2514    0.0000 H   0  0  0  0  0  0  0  0  0  0  0  0
   -1.2778   -2.4399    0.0000 H   0  0  0  0  0  0  0  0  0  0  0  0
   -0.5541    2.7196    0.0000 H   0  0  0  0  0  0  0  0  0  0  0  0
   -2.1458    1.7703    0.0000 H   0  0  0  0  0  0  0  0  0  0  0  0
   -1.6240    2.7045    0.0000 H   0  0  0  0  0  0  0  0  0  0  0  0
  1  2  1  0  0  0  0
  1  6  1  0  0  0  0
  1 19  1  0  0  0  0
  1 20  1  0  0  0  0
  2  3  1  0  0  0  0
  2  8  1  0  0  0  0
  2 15  1  1  0  0  0
  3  4  1  0  0  0  0
  3 21  1  0  0  0  0
  3 22  1  0  0  0  0
  4  5  1  0  0  0  0
  4  9  1  0  0  0  0
  4 16  1  1  0  0  0
  5 23  1  0  0  0  0
  6  7  1  0  0  0  0
  6 24  1  0  0  0  0
  6 25  1  0  0  0  0
  7  8  1  0  0  0  0
  7  9  1  0  0  0  0
  7 17  1  6  0  0  0
  8 14  1  0  0  0  0
  9 10  1  0  0  0  0
  9 18  1  1  0  0  0
 10 11  1  0  0  0  0
 10 13  2  0  0  0  0
 11 12  1  0  0  0  0
 12 26  1  0  0  0  0
 12 27  1  0  0  0  0
 12 28  1  0  0  0  0
 14 29  1  0  0  0  0
 14 30  1  0  0  0  0
 14 31  1  0  0  0  0
M  END
>  <DRUGBANK_ID>
DB04688

>  <COMMON_NAME>
Methylecgonine

>  <CAS_NUMBER>
7143-09-1

>  <UNII>
Y35FJB3QBJ

>  <SYNONYMS>
Ecgonine methyl ester

$$$$
