
 OpenBabel10282417072D

 58 61  0  0  1  0  0  0  0  0999 V2000
   -1.4017    1.2961    0.0000 C   0  0  0  0  0  0  0  0  0  0  0  0
   -1.4017    2.1211    0.0000 C   0  0  2  0  0  0  0  0  0  0  0  0
   -1.4017    2.9461    0.0000 C   0  0  0  0  0  0  0  0  0  0  0  0
   -0.5767    2.9461    0.0000 C   0  0  0  0  0  0  0  0  0  0  0  0
   -0.5767    2.1211    0.0000 N   0  0  0  0  0  0  0  0  0  0  0  0
    0.0067    1.5377    0.0000 C   0  0  0  0  0  0  0  0  0  0  0  0
   -0.2068    0.7408    0.0000 O   0  0  0  0  0  0  0  0  0  0  0  0
    0.8036    1.7512    0.0000 C   0  0  0  0  0  0  0  0  0  0  0  0
    1.4447    1.2321    0.0000 C   0  0  0  0  0  0  0  0  0  0  0  0
    2.1366    1.6814    0.0000 S   0  0  0  0  0  0  0  0  0  0  0  0
    1.9231    2.4783    0.0000 C   0  0  0  0  0  0  0  0  0  0  0  0
    1.0992    2.5214    0.0000 C   0  0  0  0  0  0  0  0  0  0  0  0
    0.7247    3.2565    0.0000 C   0  0  0  0  0  0  0  0  0  0  0  0
    1.1740    3.9484    0.0000 C   0  0  0  0  0  0  0  0  0  0  0  0
    1.9979    3.9053    0.0000 C   0  0  0  0  0  0  0  0  0  0  0  0
    2.3724    3.1702    0.0000 C   0  0  0  0  0  0  0  0  0  0  0  0
   -2.2267    2.1211    0.0000 C   0  0  0  0  0  0  0  0  0  0  0  0
   -2.6392    1.4066    0.0000 O   0  0  0  0  0  0  0  0  0  0  0  0
   -2.6392    2.8356    0.0000 N   0  0  0  0  0  0  0  0  0  0  0  0
   -3.4642    2.8356    0.0000 C   0  0  0  0  0  0  0  0  0  0  0  0
   -3.8767    3.5500    0.0000 C   0  0  0  0  0  0  0  0  0  0  0  0
   -4.7017    3.5500    0.0000 C   0  0  0  0  0  0  0  0  0  0  0  0
   -5.1142    4.2645    0.0000 C   0  0  0  0  0  0  0  0  0  0  0  0
   -4.7017    4.9790    0.0000 O   0  0  0  0  0  0  0  0  0  0  0  0
   -5.9392    4.2645    0.0000 O   0  0  0  0  0  0  0  0  0  0  0  0
   -2.2267    3.5500    0.0000 C   0  0  0  0  0  0  0  0  0  0  0  0
   -2.6392    4.2645    0.0000 C   0  0  0  0  0  0  0  0  0  0  0  0
   -3.4642    4.2645    0.0000 C   0  0  0  0  0  0  0  0  0  0  0  0
   -3.8767    4.9790    0.0000 C   0  0  0  0  0  0  0  0  0  0  0  0
   -3.4642    5.6934    0.0000 C   0  0  0  0  0  0  0  0  0  0  0  0
   -2.6392    5.6934    0.0000 C   0  0  0  0  0  0  0  0  0  0  0  0
   -2.2267    6.4079    0.0000 Cl  0  0  0  0  0  0  0  0  0  0  0  0
   -2.2267    4.9790    0.0000 C   0  0  0  0  0  0  0  0  0  0  0  0
   -2.3283    0.7611    0.0000 H   0  0  0  0  0  0  0  0  0  0  0  0
   -0.4751    0.7611    0.0000 H   0  0  0  0  0  0  0  0  0  0  0  0
   -1.4017    0.2261    0.0000 H   0  0  0  0  0  0  0  0  0  0  0  0
   -2.1583    3.7027    0.0000 H   0  0  0  0  0  0  0  0  0  0  0  0
   -0.9922    3.9347    0.0000 H   0  0  0  0  0  0  0  0  0  0  0  0
    0.1799    3.7027    0.0000 H   0  0  0  0  0  0  0  0  0  0  0  0
    0.4119    2.5366    0.0000 H   0  0  0  0  0  0  0  0  0  0  0  0
    1.3907    0.2015    0.0000 H   0  0  0  0  0  0  0  0  0  0  0  0
   -0.3059    3.3105    0.0000 H   0  0  0  0  0  0  0  0  0  0  0  0
    0.7054    4.8679    0.0000 H   0  0  0  0  0  0  0  0  0  0  0  0
    2.5600    4.7708    0.0000 H   0  0  0  0  0  0  0  0  0  0  0  0
    3.4030    3.1162    0.0000 H   0  0  0  0  0  0  0  0  0  0  0  0
   -3.9992    1.9089    0.0000 H   0  0  0  0  0  0  0  0  0  0  0  0
   -4.5342    2.8356    0.0000 H   0  0  0  0  0  0  0  0  0  0  0  0
   -3.3417    4.4767    0.0000 H   0  0  0  0  0  0  0  0  0  0  0  0
   -4.4117    4.4766    0.0000 H   0  0  0  0  0  0  0  0  0  0  0  0
   -5.2367    2.6234    0.0000 H   0  0  0  0  0  0  0  0  0  0  0  0
   -5.7717    3.5500    0.0000 H   0  0  0  0  0  0  0  0  0  0  0  0
   -3.7647    4.9790    0.0000 H   0  0  0  0  0  0  0  0  0  0  0  0
   -1.1567    3.5500    0.0000 H   0  0  0  0  0  0  0  0  0  0  0  0
   -1.6917    4.4766    0.0000 H   0  0  0  0  0  0  0  0  0  0  0  0
   -3.9802    3.3708    0.0000 H   0  0  0  0  0  0  0  0  0  0  0  0
   -4.9087    4.9790    0.0000 H   0  0  0  0  0  0  0  0  0  0  0  0
   -3.9802    6.5871    0.0000 H   0  0  0  0  0  0  0  0  0  0  0  0
   -1.1947    4.9790    0.0000 H   0  0  0  0  0  0  0  0  0  0  0  0
  1 34  1  0  0  0  0
  1 35  1  0  0  0  0
  1 36  1  0  0  0  0
  2  1  1  0  0  0  0
  2  3  1  0  0  0  0
  2  5  1  0  0  0  0
  2 17  1  1  0  0  0
  3  4  1  0  0  0  0
  3 37  1  0  0  0  0
  3 38  1  0  0  0  0
  4  5  1  0  0  0  0
  4 39  1  0  0  0  0
  4 40  1  0  0  0  0
  5  6  1  0  0  0  0
  6  7  2  0  0  0  0
  6  8  1  0  0  0  0
  8  9  2  0  0  0  0
  8 12  1  0  0  0  0
  9 10  1  0  0  0  0
  9 41  1  0  0  0  0
 10 11  1  0  0  0  0
 11 12  2  0  0  0  0
 11 16  1  0  0  0  0
 12 13  1  0  0  0  0
 13 14  2  0  0  0  0
 13 42  1  0  0  0  0
 14 15  1  0  0  0  0
 14 43  1  0  0  0  0
 15 16  2  0  0  0  0
 15 44  1  0  0  0  0
 16 45  1  0  0  0  0
 17 18  2  0  0  0  0
 17 19  1  0  0  0  0
 19 20  1  0  0  0  0
 19 26  1  0  0  0  0
 20 21  1  0  0  0  0
 20 46  1  0  0  0  0
 20 47  1  0  0  0  0
 21 22  1  0  0  0  0
 21 48  1  0  0  0  0
 21 49  1  0  0  0  0
 22 23  1  0  0  0  0
 22 50  1  0  0  0  0
 22 51  1  0  0  0  0
 23 24  1  0  0  0  0
 23 25  2  0  0  0  0
 24 52  1  0  0  0  0
 26 27  1  0  0  0  0
 26 53  1  0  0  0  0
 26 54  1  0  0  0  0
 27 28  2  0  0  0  0
 27 33  1  0  0  0  0
 28 29  1  0  0  0  0
 28 55  1  0  0  0  0
 29 30  2  0  0  0  0
 29 56  1  0  0  0  0
 30 31  1  0  0  0  0
 30 57  1  0  0  0  0
 31 32  1  0  0  0  0
 31 33  2  0  0  0  0
 33 58  1  0  0  0  0
M  END
>  <DRUGBANK_ID>
DB15406

>  <COMMON_NAME>
GLPG-0974

>  <CAS_NUMBER>
1391076-61-1

>  <UNII>
X7REK61AIS

$$$$
