
 OpenBabel10282417072D

 73 81  0  0  0  0  0  0  0  0999 V2000
   -0.4124    2.5573    0.0000 C   0  0  0  0  0  0  0  0  0  0  0  0
    0.4125    2.5573    0.0000 C   0  0  0  0  0  0  0  0  0  0  0  0
    0.4125    1.1283    0.0000 C   0  0  0  0  0  0  0  0  0  0  0  0
    0.8250    1.8427    0.0000 C   0  0  0  0  0  0  0  0  0  0  0  0
   -0.4124    1.1283    0.0000 C   0  0  0  0  0  0  0  0  0  0  0  0
   -0.8249    1.8427    0.0000 C   0  0  0  0  0  0  0  0  0  0  0  0
    1.7182    0.8507    0.0000 C   0  0  0  0  0  0  0  0  0  0  0  0
    1.6319    1.6712    0.0000 C   0  0  0  0  0  0  0  0  0  0  0  0
    3.0530    1.8207    0.0000 C   0  0  0  0  0  0  0  0  0  0  0  0
    2.2994    2.1562    0.0000 C   0  0  0  0  0  0  0  0  0  0  0  0
    2.4718    0.5153    0.0000 C   0  0  0  0  0  0  0  0  0  0  0  0
    3.1393    1.0002    0.0000 C   0  0  0  0  0  0  0  0  0  0  0  0
   -1.7181    0.8507    0.0000 C   0  0  0  0  0  0  0  0  0  0  0  0
   -1.6319    1.6712    0.0000 C   0  0  0  0  0  0  0  0  0  0  0  0
   -2.2994    2.1562    0.0000 C   0  0  0  0  0  0  0  0  0  0  0  0
   -3.0530    1.8207    0.0000 C   0  0  0  0  0  0  0  0  0  0  0  0
   -3.1393    1.0002    0.0000 C   0  0  0  0  0  0  0  0  0  0  0  0
   -2.4719    0.5153    0.0000 C   0  0  0  0  0  0  0  0  0  0  0  0
   -0.9644    0.5153    0.0000 N   0  0  0  0  0  0  0  0  0  0  0  0
    0.9644    0.5153    0.0000 N   0  0  0  0  0  0  0  0  0  0  0  0
    0.0237   -0.1141    0.0000 O   0  0  0  0  0  0  0  0  0  0  0  0
    0.0237   -1.7642    0.0000 C   0  0  1  0  0  0  0  0  0  0  0  0
    0.7381   -1.3517    0.0000 C   0  0  0  0  0  0  0  0  0  0  0  0
    0.7381   -0.5267    0.0000 C   0  0  2  0  0  0  0  0  0  0  0  0
    0.0237   -2.5892    0.0000 N   0  0  0  0  0  0  0  0  0  0  0  0
   -0.6906   -3.0017    0.0000 C   0  0  0  0  0  0  0  0  0  0  0  0
    0.0000    3.8268    0.0000 N   0  0  0  0  0  0  0  0  0  0  0  0
   -0.6674    3.3419    0.0000 C   0  0  0  0  0  0  0  0  0  0  0  0
    0.6674    3.3419    0.0000 C   0  0  0  0  0  0  0  0  0  0  0  0
    1.4643    3.5554    0.0000 O   0  0  0  0  0  0  0  0  0  0  0  0
   -0.6906   -0.5267    0.0000 C   0  0  2  0  0  0  0  0  0  0  0  0
   -1.5156   -0.5267    0.0000 C   0  0  0  0  0  0  0  0  0  0  0  0
   -0.6906   -1.3517    0.0000 C   0  0  2  0  0  0  0  0  0  0  0  0
   -1.4051   -1.7642    0.0000 O   0  0  0  0  0  0  0  0  0  0  0  0
   -2.1195   -1.3517    0.0000 C   0  0  0  0  0  0  0  0  0  0  0  0
    0.7382   -3.0017    0.0000 C   0  0  0  0  0  0  0  0  0  0  0  0
    0.7382   -3.8268    0.0000 O   0  0  0  0  0  0  0  0  0  0  0  0
    1.4527   -2.5892    0.0000 C   0  0  0  0  0  0  0  0  0  0  0  0
    2.8817   -1.7642    0.0000 C   0  0  0  0  0  0  0  0  0  0  0  0
    2.8817   -2.5892    0.0000 C   0  0  0  0  0  0  0  0  0  0  0  0
    2.1671   -1.3517    0.0000 C   0  0  0  0  0  0  0  0  0  0  0  0
    2.1671   -3.0017    0.0000 C   0  0  0  0  0  0  0  0  0  0  0  0
    1.4527   -1.7642    0.0000 C   0  0  0  0  0  0  0  0  0  0  0  0
    3.8879    2.4273    0.0000 H   0  0  0  0  0  0  0  0  0  0  0  0
    2.1915    3.1825    0.0000 H   0  0  0  0  0  0  0  0  0  0  0  0
    2.5797   -0.5110    0.0000 H   0  0  0  0  0  0  0  0  0  0  0  0
    4.0821    0.5805    0.0000 H   0  0  0  0  0  0  0  0  0  0  0  0
   -2.1915    3.1825    0.0000 H   0  0  0  0  0  0  0  0  0  0  0  0
   -3.8879    2.4273    0.0000 H   0  0  0  0  0  0  0  0  0  0  0  0
   -4.0821    0.5805    0.0000 H   0  0  0  0  0  0  0  0  0  0  0  0
   -2.5799   -0.5110    0.0000 H   0  0  0  0  0  0  0  0  0  0  0  0
   -0.9030   -2.2992    0.0000 H   0  0  0  0  0  0  0  0  0  0  0  0
    1.6648   -1.8867    0.0000 H   0  0  0  0  0  0  0  0  0  0  0  0
    1.6647   -0.8167    0.0000 H   0  0  0  0  0  0  0  0  0  0  0  0
    0.3051    0.4518    0.0000 H   0  0  0  0  0  0  0  0  0  0  0  0
   -1.6173   -2.4668    0.0000 H   0  0  0  0  0  0  0  0  0  0  0  0
   -0.6905   -4.0717    0.0000 H   0  0  0  0  0  0  0  0  0  0  0  0
   -1.6172   -3.5368    0.0000 H   0  0  0  0  0  0  0  0  0  0  0  0
    0.0000    4.8113    0.0000 H   0  0  0  0  0  0  0  0  0  0  0  0
   -1.6850    3.6725    0.0000 H   0  0  0  0  0  0  0  0  0  0  0  0
   -0.8348    4.3987    0.0000 H   0  0  0  0  0  0  0  0  0  0  0  0
   -2.0506    0.3999    0.0000 H   0  0  0  0  0  0  0  0  0  0  0  0
   -2.0506   -1.4533    0.0000 H   0  0  0  0  0  0  0  0  0  0  0  0
   -2.5856   -0.5267    0.0000 H   0  0  0  0  0  0  0  0  0  0  0  0
   -1.6172   -0.8167    0.0000 H   0  0  0  0  0  0  0  0  0  0  0  0
   -2.1195   -0.2817    0.0000 H   0  0  0  0  0  0  0  0  0  0  0  0
   -3.0462   -1.8867    0.0000 H   0  0  0  0  0  0  0  0  0  0  0  0
   -3.0461   -0.8167    0.0000 H   0  0  0  0  0  0  0  0  0  0  0  0
    3.7754   -1.2482    0.0000 H   0  0  0  0  0  0  0  0  0  0  0  0
    3.7754   -3.1052    0.0000 H   0  0  0  0  0  0  0  0  0  0  0  0
    2.1670   -0.3197    0.0000 H   0  0  0  0  0  0  0  0  0  0  0  0
    2.1670   -4.0337    0.0000 H   0  0  0  0  0  0  0  0  0  0  0  0
    0.5590   -1.2482    0.0000 H   0  0  0  0  0  0  0  0  0  0  0  0
  1  6  1  0  0  0  0
  1  2  2  0  0  0  0
  2  4  1  0  0  0  0
  2 29  1  0  0  0  0
  3 20  1  0  0  0  0
  4  3  2  0  0  0  0
  4  8  1  0  0  0  0
  5  3  1  0  0  0  0
  6  5  2  0  0  0  0
  6 14  1  0  0  0  0
  7 11  1  0  0  0  0
  8  7  2  0  0  0  0
  9 10  2  0  0  0  0
  9 12  1  0  0  0  0
  9 44  1  0  0  0  0
 10  8  1  0  0  0  0
 10 45  1  0  0  0  0
 11 12  2  0  0  0  0
 11 46  1  0  0  0  0
 12 47  1  0  0  0  0
 13 19  1  0  0  0  0
 13 14  2  0  0  0  0
 15 14  1  0  0  0  0
 15 16  2  0  0  0  0
 15 48  1  0  0  0  0
 16 17  1  0  0  0  0
 16 49  1  0  0  0  0
 17 18  2  0  0  0  0
 17 50  1  0  0  0  0
 18 13  1  0  0  0  0
 18 51  1  0  0  0  0
 19  5  1  0  0  0  0
 20  7  1  0  0  0  0
 21 31  1  0  0  0  0
 21 24  1  0  0  0  0
 22 23  1  0  0  0  0
 22 25  1  0  0  0  0
 22 52  1  6  0  0  0
 23 24  1  0  0  0  0
 23 53  1  0  0  0  0
 23 54  1  0  0  0  0
 24 20  1  0  0  0  0
 24 55  1  6  0  0  0
 25 26  1  0  0  0  0
 25 36  1  0  0  0  0
 26 56  1  0  0  0  0
 26 57  1  0  0  0  0
 26 58  1  0  0  0  0
 27 28  1  0  0  0  0
 27 29  1  0  0  0  0
 27 59  1  0  0  0  0
 28  1  1  0  0  0  0
 28 60  1  0  0  0  0
 28 61  1  0  0  0  0
 29 30  2  0  0  0  0
 31 33  1  0  0  0  0
 31 19  1  0  0  0  0
 31 32  1  6  0  0  0
 32 62  1  0  0  0  0
 32 63  1  0  0  0  0
 32 64  1  0  0  0  0
 33 22  1  0  0  0  0
 33 34  1  0  0  0  0
 33 65  1  6  0  0  0
 34 35  1  0  0  0  0
 35 66  1  0  0  0  0
 35 67  1  0  0  0  0
 35 68  1  0  0  0  0
 36 37  2  0  0  0  0
 36 38  1  0  0  0  0
 38 42  1  0  0  0  0
 38 43  2  0  0  0  0
 39 69  1  0  0  0  0
 40 39  1  0  0  0  0
 40 70  1  0  0  0  0
 41 39  2  0  0  0  0
 41 71  1  0  0  0  0
 42 40  2  0  0  0  0
 42 72  1  0  0  0  0
 43 41  1  0  0  0  0
 43 73  1  0  0  0  0
M  END
>  <DRUGBANK_ID>
DB06595

>  <COMMON_NAME>
Midostaurin

>  <CAS_NUMBER>
120685-11-2

>  <UNII>
ID912S5VON

>  <SYNONYMS>
4'-N-benzoylstaurosporine; Midostaurin

$$$$
