
 OpenBabel10282417072D

 46 48  0  0  0  0  0  0  0  0999 V2000
   -2.5805    0.0016    0.0000 C   0  0  0  0  0  0  0  0  0  0  0  0
   -2.5816   -0.8258    0.0000 C   0  0  0  0  0  0  0  0  0  0  0  0
   -1.8668   -1.2386    0.0000 C   0  0  0  0  0  0  0  0  0  0  0  0
   -1.1504   -0.8253    0.0000 C   0  0  0  0  0  0  0  0  0  0  0  0
   -1.1531    0.0052    0.0000 C   0  0  0  0  0  0  0  0  0  0  0  0
   -1.8686    0.4144    0.0000 C   0  0  0  0  0  0  0  0  0  0  0  0
   -3.2950    0.4139    0.0000 N   0  0  0  0  0  0  0  0  0  0  0  0
   -4.0095    0.0013    0.0000 C   0  0  0  0  0  0  0  0  0  0  0  0
   -4.7241    0.4136    0.0000 C   0  0  2  0  0  0  0  0  0  0  0  0
   -5.4384    0.0009    0.0000 C   0  0  0  0  0  0  0  0  0  0  0  0
   -4.7243    1.2386    0.0000 N   0  0  0  0  0  0  0  0  0  0  0  0
   -4.0093   -0.8237    0.0000 O   0  0  0  0  0  0  0  0  0  0  0  0
   -0.4350   -1.2367    0.0000 S   0  0  0  0  0  0  0  0  0  0  0  0
    0.2787   -0.8230    0.0000 C   0  0  0  0  0  0  0  0  0  0  0  0
    0.9903   -1.2349    0.0000 C   0  0  0  0  0  0  0  0  0  0  0  0
    0.9828    0.4152    0.0000 C   0  0  0  0  0  0  0  0  0  0  0  0
    0.2723   -0.0001    0.0000 C   0  0  0  0  0  0  0  0  0  0  0  0
    1.7029    0.0040    0.0000 C   0  0  0  0  0  0  0  0  0  0  0  0
    1.7067   -0.8180    0.0000 C   0  0  0  0  0  0  0  0  0  0  0  0
    2.4895   -1.0685    0.0000 N   0  0  0  0  0  0  0  0  0  0  0  0
    2.9697   -0.4013    0.0000 C   0  0  0  0  0  0  0  0  0  0  0  0
    2.4836    0.2614    0.0000 N   0  0  0  0  0  0  0  0  0  0  0  0
    3.7948   -0.3976    0.0000 N   0  0  0  0  0  0  0  0  0  0  0  0
    4.2042    0.3188    0.0000 C   0  0  0  0  0  0  0  0  0  0  0  0
    5.0290    0.3225    0.0000 O   0  0  0  0  0  0  0  0  0  0  0  0
    5.4384    1.0389    0.0000 C   0  0  0  0  0  0  0  0  0  0  0  0
    3.7883    1.0314    0.0000 O   0  0  0  0  0  0  0  0  0  0  0  0
   -3.4757   -1.3412    0.0000 H   0  0  0  0  0  0  0  0  0  0  0  0
   -1.8670   -2.2706    0.0000 H   0  0  0  0  0  0  0  0  0  0  0  0
   -0.2613    0.5245    0.0000 H   0  0  0  0  0  0  0  0  0  0  0  0
   -1.8717    1.4464    0.0000 H   0  0  0  0  0  0  0  0  0  0  0  0
   -3.2952    1.3984    0.0000 H   0  0  0  0  0  0  0  0  0  0  0  0
   -3.7976    0.9488    0.0000 H   0  0  0  0  0  0  0  0  0  0  0  0
   -6.3652    0.5356    0.0000 H   0  0  0  0  0  0  0  0  0  0  0  0
   -5.4381   -1.0691    0.0000 H   0  0  0  0  0  0  0  0  0  0  0  0
   -6.3649   -0.5344    0.0000 H   0  0  0  0  0  0  0  0  0  0  0  0
   -3.8411    1.7488    0.0000 H   0  0  0  0  0  0  0  0  0  0  0  0
   -5.6078    1.7484    0.0000 H   0  0  0  0  0  0  0  0  0  0  0  0
    0.9915   -2.2669    0.0000 H   0  0  0  0  0  0  0  0  0  0  0  0
    0.9776    1.4472    0.0000 H   0  0  0  0  0  0  0  0  0  0  0  0
   -0.6248    0.5100    0.0000 H   0  0  0  0  0  0  0  0  0  0  0  0
    2.7837    1.1991    0.0000 H   0  0  0  0  0  0  0  0  0  0  0  0
    4.2908   -1.2480    0.0000 H   0  0  0  0  0  0  0  0  0  0  0  0
    6.5084    1.0436    0.0000 H   0  0  0  0  0  0  0  0  0  0  0  0
    4.8993    1.9632    0.0000 H   0  0  0  0  0  0  0  0  0  0  0  0
    5.9693    1.9679    0.0000 H   0  0  0  0  0  0  0  0  0  0  0  0
  1  7  1  0  0  0  0
  1  2  2  0  0  0  0
  2  3  1  0  0  0  0
  2 28  1  0  0  0  0
  3  4  2  0  0  0  0
  3 29  1  0  0  0  0
  4  5  1  0  0  0  0
  4 13  1  0  0  0  0
  5  6  2  0  0  0  0
  5 30  1  0  0  0  0
  6  1  1  0  0  0  0
  6 31  1  0  0  0  0
  7  8  1  0  0  0  0
  7 32  1  0  0  0  0
  8  9  1  0  0  0  0
  8 12  2  0  0  0  0
  9 10  1  0  0  0  0
  9 11  1  0  0  0  0
  9 33  1  1  0  0  0
 10 34  1  0  0  0  0
 10 35  1  0  0  0  0
 10 36  1  0  0  0  0
 11 37  1  0  0  0  0
 11 38  1  0  0  0  0
 13 14  1  0  0  0  0
 14 15  2  0  0  0  0
 15 19  1  0  0  0  0
 15 39  1  0  0  0  0
 16 17  2  0  0  0  0
 16 40  1  0  0  0  0
 17 14  1  0  0  0  0
 17 41  1  0  0  0  0
 18 16  1  0  0  0  0
 18 19  2  0  0  0  0
 19 20  1  0  0  0  0
 20 21  2  0  0  0  0
 21 22  1  0  0  0  0
 21 23  1  0  0  0  0
 22 18  1  0  0  0  0
 22 42  1  0  0  0  0
 23 24  1  0  0  0  0
 23 43  1  0  0  0  0
 24 25  1  0  0  0  0
 24 27  2  0  0  0  0
 25 26  1  0  0  0  0
 26 44  1  0  0  0  0
 26 45  1  0  0  0  0
 26 46  1  0  0  0  0
M  END
>  <DRUGBANK_ID>
DB05932

>  <COMMON_NAME>
Denibulin

>  <CAS_NUMBER>
284019-34-7

>  <UNII>
K7037M241U

>  <SYNONYMS>
Denibulin

$$$$
