719
 OpenBabel10282417072D

 44 47  0  0  0  0  0  0  0  0999 V2000
    4.0285   -1.7286    0.0000 N   0  0  0  0  0  0  0  0  0  0  0  0
    2.6643    0.5102    0.0000 N   0  0  0  0  0  0  0  0  0  0  0  0
    4.0285   -0.0786    0.0000 C   0  0  0  0  0  0  0  0  0  0  0  0
    4.7429   -0.4911    0.0000 C   0  0  0  0  0  0  0  0  0  0  0  0
    3.3140   -0.4911    0.0000 C   0  0  0  0  0  0  0  0  0  0  0  0
    4.7429   -1.3161    0.0000 C   0  0  0  0  0  0  0  0  0  0  0  0
    3.3139   -1.3161    0.0000 C   0  0  0  0  0  0  0  0  0  0  0  0
    4.0285    0.7464    0.0000 C   0  0  0  0  0  0  0  0  0  0  0  0
    4.7718    1.1043    0.0000 C   0  0  0  0  0  0  0  0  0  0  0  0
    3.2852    1.1043    0.0000 C   0  0  0  0  0  0  0  0  0  0  0  0
    4.9554    1.9086    0.0000 C   0  0  0  0  0  0  0  0  0  0  0  0
    4.4410    2.5536    0.0000 C   0  0  0  0  0  0  0  0  0  0  0  0
    3.6160    2.5536    0.0000 C   0  0  0  0  0  0  0  0  0  0  0  0
    3.1016    1.9086    0.0000 C   0  0  0  0  0  0  0  0  0  0  0  0
    4.0285   -2.5536    0.0000 C   0  0  0  0  0  0  0  0  0  0  0  0
    5.3926    0.5102    0.0000 C   0  0  0  0  0  0  0  0  0  0  0  0
    5.7725    2.1745    0.0000 C   0  0  0  0  0  0  0  0  0  0  0  0
    2.2844    2.1745    0.0000 C   0  0  0  0  0  0  0  0  0  0  0  0
    6.2157    0.7571    0.0000 C   0  0  0  0  0  0  0  0  0  0  0  0
    6.4070    1.5949    0.0000 C   0  0  0  0  0  0  0  0  0  0  0  0
    1.6500    1.5950    0.0000 C   0  0  0  0  0  0  0  0  0  0  0  0
    1.8412    0.7571    0.0000 C   0  0  0  0  0  0  0  0  0  0  0  0
    5.6696    0.0439    0.0000 H   0  0  0  0  0  0  0  0  0  0  0  0
    5.6695   -1.0261    0.0000 H   0  0  0  0  0  0  0  0  0  0  0  0
    2.3874    0.0440    0.0000 H   0  0  0  0  0  0  0  0  0  0  0  0
    2.3873   -1.0260    0.0000 H   0  0  0  0  0  0  0  0  0  0  0  0
    5.6696   -1.8511    0.0000 H   0  0  0  0  0  0  0  0  0  0  0  0
    5.6695   -0.7811    0.0000 H   0  0  0  0  0  0  0  0  0  0  0  0
    2.3872   -1.8511    0.0000 H   0  0  0  0  0  0  0  0  0  0  0  0
    2.3873   -0.7810    0.0000 H   0  0  0  0  0  0  0  0  0  0  0  0
    4.9052    3.5176    0.0000 H   0  0  0  0  0  0  0  0  0  0  0  0
    3.8717    3.4596    0.0000 H   0  0  0  0  0  0  0  0  0  0  0  0
    3.1518    3.5176    0.0000 H   0  0  0  0  0  0  0  0  0  0  0  0
    2.5527    2.6734    0.0000 H   0  0  0  0  0  0  0  0  0  0  0  0
    3.1019   -3.0886    0.0000 H   0  0  0  0  0  0  0  0  0  0  0  0
    4.9551   -3.0886    0.0000 H   0  0  0  0  0  0  0  0  0  0  0  0
    4.0285   -3.6236    0.0000 H   0  0  0  0  0  0  0  0  0  0  0  0
    5.1513   -0.4932    0.0000 H   0  0  0  0  0  0  0  0  0  0  0  0
    5.9905    3.1832    0.0000 H   0  0  0  0  0  0  0  0  0  0  0  0
    2.0664    3.1832    0.0000 H   0  0  0  0  0  0  0  0  0  0  0  0
    6.9694    0.0522    0.0000 H   0  0  0  0  0  0  0  0  0  0  0  0
    7.3920    1.9029    0.0000 H   0  0  0  0  0  0  0  0  0  0  0  0
    0.6650    1.9031    0.0000 H   0  0  0  0  0  0  0  0  0  0  0  0
    1.0874    0.0522    0.0000 H   0  0  0  0  0  0  0  0  0  0  0  0
  1  6  1  0  0  0  0
  1  7  1  0  0  0  0
  1 15  1  0  0  0  0
  2 10  1  0  0  0  0
  2 22  2  0  0  0  0
  3  4  1  0  0  0  0
  3  5  1  0  0  0  0
  3  8  2  0  0  0  0
  4  6  1  0  0  0  0
  4 23  1  0  0  0  0
  4 24  1  0  0  0  0
  5  7  1  0  0  0  0
  5 25  1  0  0  0  0
  5 26  1  0  0  0  0
  6 27  1  0  0  0  0
  6 28  1  0  0  0  0
  7 29  1  0  0  0  0
  7 30  1  0  0  0  0
  8  9  1  0  0  0  0
  8 10  1  0  0  0  0
  9 11  1  0  0  0  0
  9 16  2  0  0  0  0
 10 14  2  0  0  0  0
 11 12  1  0  0  0  0
 11 17  2  0  0  0  0
 12 13  1  0  0  0  0
 12 31  1  0  0  0  0
 12 32  1  0  0  0  0
 13 14  1  0  0  0  0
 13 33  1  0  0  0  0
 13 34  1  0  0  0  0
 14 18  1  0  0  0  0
 15 35  1  0  0  0  0
 15 36  1  0  0  0  0
 15 37  1  0  0  0  0
 16 19  1  0  0  0  0
 16 38  1  0  0  0  0
 17 20  1  0  0  0  0
 17 39  1  0  0  0  0
 18 21  2  0  0  0  0
 18 40  1  0  0  0  0
 19 20  2  0  0  0  0
 19 41  1  0  0  0  0
 20 42  1  0  0  0  0
 21 22  1  0  0  0  0
 21 43  1  0  0  0  0
 22 44  1  0  0  0  0
M  END
>  <DRUGBANK_ID>
DB00719

>  <SECONDARY_ACCESSION_NUMBERS>
APRD00810

>  <COMMON_NAME>
Azatadine

>  <CAS_NUMBER>
3964-81-6

>  <UNII>
94Z39NID6C

>  <SYNONYMS>
11-(1-Methyl-4-piperidinylidene)-6,11-dihydro-5H-benzo[5,6]cyclohepta[1,2-b]pyridine; 6,11-Dihydro-11-(1-methyl-4-piperidylidene)-5H-benzo(5,6)cyclohepta(1,2-b)pyridine; Azatadin; Azatadina; Azatadine; Azatadinum

$$$$
