GK1
 OpenBabel10282417072D

 41 44  0  0  0  0  0  0  0  0999 V2000
   -2.8454    3.4397    0.0000 O   0  0  0  0  0  0  0  0  0  0  0  0
   -2.0250    3.3535    0.0000 C   0  0  0  0  0  0  0  0  0  0  0  0
   -1.6894    2.5998    0.0000 C   0  0  0  0  0  0  0  0  0  0  0  0
   -2.1019    1.8853    0.0000 S   0  0  0  0  0  0  0  0  0  0  0  0
   -1.5499    1.2723    0.0000 C   0  0  0  0  0  0  0  0  0  0  0  0
   -0.8824    2.4283    0.0000 N   0  0  0  0  0  0  0  0  0  0  0  0
   -0.7962    1.6078    0.0000 C   0  0  0  0  0  0  0  0  0  0  0  0
   -0.0817    1.1953    0.0000 C   0  0  0  0  0  0  0  0  0  0  0  0
    0.6328    1.6078    0.0000 C   0  0  0  0  0  0  0  0  0  0  0  0
   -0.0817    0.3703    0.0000 C   0  0  0  0  0  0  0  0  0  0  0  0
    0.6328   -0.0422    0.0000 C   0  0  0  0  0  0  0  0  0  0  0  0
    1.3472    0.3703    0.0000 C   0  0  0  0  0  0  0  0  0  0  0  0
    1.3472    1.1953    0.0000 C   0  0  0  0  0  0  0  0  0  0  0  0
    2.0617    1.6078    0.0000 N   0  0  0  0  0  0  0  0  0  0  0  0
    2.7762    1.1953    0.0000 C   0  0  0  0  0  0  0  0  0  0  0  0
    2.7762    0.3703    0.0000 C   0  0  0  0  0  0  0  0  0  0  0  0
    2.0617   -0.0422    0.0000 C   0  0  0  0  0  0  0  0  0  0  0  0
    2.0617   -0.8672    0.0000 N   0  0  0  0  0  0  0  0  0  0  0  0
    1.3472   -1.2797    0.0000 C   0  0  0  0  0  0  0  0  0  0  0  0
    1.3472   -2.1047    0.0000 C   0  0  0  0  0  0  0  0  0  0  0  0
    2.0617   -2.5172    0.0000 C   0  0  0  0  0  0  0  0  0  0  0  0
    0.6328   -0.8672    0.0000 C   0  0  0  0  0  0  0  0  0  0  0  0
   -0.0817   -1.2797    0.0000 C   0  0  0  0  0  0  0  0  0  0  0  0
   -0.7962   -0.8672    0.0000 O   0  0  0  0  0  0  0  0  0  0  0  0
   -0.0817   -2.1047    0.0000 C   0  0  0  0  0  0  0  0  0  0  0  0
    0.6328   -2.5172    0.0000 C   0  0  0  0  0  0  0  0  0  0  0  0
   -1.4184    4.1884    0.0000 H   0  0  0  0  0  0  0  0  0  0  0  0
   -1.7645    0.2629    0.0000 H   0  0  0  0  0  0  0  0  0  0  0  0
    0.6328    2.6398    0.0000 H   0  0  0  0  0  0  0  0  0  0  0  0
   -0.9754   -0.1457    0.0000 H   0  0  0  0  0  0  0  0  0  0  0  0
    0.6328   -1.0742    0.0000 H   0  0  0  0  0  0  0  0  0  0  0  0
    3.6699    1.7113    0.0000 H   0  0  0  0  0  0  0  0  0  0  0  0
    3.6699   -0.1457    0.0000 H   0  0  0  0  0  0  0  0  0  0  0  0
    2.9143   -1.3595    0.0000 H   0  0  0  0  0  0  0  0  0  0  0  0
    2.0617   -3.5872    0.0000 H   0  0  0  0  0  0  0  0  0  0  0  0
    2.9883   -1.9822    0.0000 H   0  0  0  0  0  0  0  0  0  0  0  0
    2.9884   -3.0522    0.0000 H   0  0  0  0  0  0  0  0  0  0  0  0
    0.6328    0.1648    0.0000 H   0  0  0  0  0  0  0  0  0  0  0  0
   -0.7962    0.0698    0.0000 H   0  0  0  0  0  0  0  0  0  0  0  0
   -0.9754   -2.6207    0.0000 H   0  0  0  0  0  0  0  0  0  0  0  0
    0.6328   -3.5492    0.0000 H   0  0  0  0  0  0  0  0  0  0  0  0
  1  2  2  0  0  0  0
  2  3  1  0  0  0  0
  2 27  1  0  0  0  0
  3  6  2  0  0  0  0
  4  3  1  0  0  0  0
  4  5  1  0  0  0  0
  5  7  2  0  0  0  0
  5 28  1  0  0  0  0
  6  7  1  0  0  0  0
  7  8  1  0  0  0  0
  8  9  1  0  0  0  0
  9 13  2  0  0  0  0
  9 29  1  0  0  0  0
 10  8  2  0  0  0  0
 10 11  1  0  0  0  0
 10 30  1  0  0  0  0
 11 12  2  0  0  0  0
 11 31  1  0  0  0  0
 12 13  1  0  0  0  0
 12 17  1  0  0  0  0
 13 14  1  0  0  0  0
 14 15  2  0  0  0  0
 15 32  1  0  0  0  0
 16 15  1  0  0  0  0
 16 33  1  0  0  0  0
 17 16  2  0  0  0  0
 18 17  1  0  0  0  0
 18 19  1  0  0  0  0
 18 34  1  0  0  0  0
 19 22  1  0  0  0  0
 20 19  2  0  0  0  0
 20 26  1  0  0  0  0
 21 20  1  0  0  0  0
 21 35  1  0  0  0  0
 21 36  1  0  0  0  0
 21 37  1  0  0  0  0
 22 23  2  0  0  0  0
 22 38  1  0  0  0  0
 23 24  1  0  0  0  0
 24 39  1  0  0  0  0
 25 23  1  0  0  0  0
 25 40  1  0  0  0  0
 26 25  2  0  0  0  0
 26 41  1  0  0  0  0
M  END
>  <DRUGBANK_ID>
DB07832

>  <COMMON_NAME>
4-{4-[(5-hydroxy-2-methylphenyl)amino]quinolin-7-yl}-1,3-thiazole-2-carbaldehyde

$$$$
