
 OpenBabel10282417072D

 42 43  0  0  0  0  0  0  0  0999 V2000
    2.0367    3.5277    0.0000 C   0  0  0  0  0  0  0  0  0  0  0  0
    6.9987    1.4660    0.0000 C   0  0  0  0  0  0  0  0  0  0  0  0
    2.7512    3.1152    0.0000 C   0  0  0  0  0  0  0  0  0  0  0  0
    6.2140    1.2111    0.0000 C   0  0  0  0  0  0  0  0  0  0  0  0
    0.8839   -0.9817    0.0000 C   0  0  0  0  0  0  0  0  0  0  0  0
    1.7044   -1.0679    0.0000 C   0  0  0  0  0  0  0  0  0  0  0  0
    0.5484   -0.2280    0.0000 C   0  0  0  0  0  0  0  0  0  0  0  0
    2.1893   -0.4005    0.0000 C   0  0  0  0  0  0  0  0  0  0  0  0
    1.0333    0.4394    0.0000 C   0  0  0  0  0  0  0  0  0  0  0  0
    4.2032    2.0602    0.0000 C   0  0  0  0  0  0  0  0  0  0  0  0
    3.4186    1.8053    0.0000 C   0  0  0  0  0  0  0  0  0  0  0  0
    4.8163    1.5082    0.0000 C   0  0  0  0  0  0  0  0  0  0  0  0
    2.0837    1.8053    0.0000 C   0  0  0  0  0  0  0  0  0  0  0  0
    2.3387    1.0206    0.0000 C   0  0  3  0  0  0  0  0  0  0  0  0
    1.8538    0.3532    0.0000 N   0  0  0  0  0  0  0  0  0  0  0  0
    2.7512    2.2902    0.0000 N   0  0  0  0  0  0  0  0  0  0  0  0
    4.6448    0.7012    0.0000 O   0  0  0  0  0  0  0  0  0  0  0  0
    1.2991    2.0602    0.0000 O   0  0  0  0  0  0  0  0  0  0  0  0
    5.6010    1.7631    0.0000 O   0  0  0  0  0  0  0  0  0  0  0  0
    3.1637    1.0206    0.0000 S   0  0  0  0  0  0  0  0  0  0  0  0
    4.3748    2.8672    0.0000 H   0  0  0  0  0  0  0  0  0  0  0  0
    2.0367    4.5977    0.0000 H   0  0  0  0  0  0  0  0  0  0  0  0
    1.1101    2.9927    0.0000 H   0  0  0  0  0  0  0  0  0  0  0  0
    1.1100    4.0627    0.0000 H   0  0  0  0  0  0  0  0  0  0  0  0
    7.7938    0.7500    0.0000 H   0  0  0  0  0  0  0  0  0  0  0  0
    7.2212    2.5126    0.0000 H   0  0  0  0  0  0  0  0  0  0  0  0
    8.0164    1.7966    0.0000 H   0  0  0  0  0  0  0  0  0  0  0  0
    3.6778    3.6502    0.0000 H   0  0  0  0  0  0  0  0  0  0  0  0
    3.6778    2.5802    0.0000 H   0  0  0  0  0  0  0  0  0  0  0  0
    5.9915    0.1645    0.0000 H   0  0  0  0  0  0  0  0  0  0  0  0
    5.1964    0.8805    0.0000 H   0  0  0  0  0  0  0  0  0  0  0  0
    0.2550   -1.8473    0.0000 H   0  0  0  0  0  0  0  0  0  0  0  0
   -0.1802   -0.8698    0.0000 H   0  0  0  0  0  0  0  0  0  0  0  0
    2.1396   -2.0454    0.0000 H   0  0  0  0  0  0  0  0  0  0  0  0
    2.7685   -1.1797    0.0000 H   0  0  0  0  0  0  0  0  0  0  0  0
   -0.5157   -0.1161    0.0000 H   0  0  0  0  0  0  0  0  0  0  0  0
    0.1132    0.7495    0.0000 H   0  0  0  0  0  0  0  0  0  0  0  0
    3.2534   -0.5124    0.0000 H   0  0  0  0  0  0  0  0  0  0  0  0
    2.8183    0.4651    0.0000 H   0  0  0  0  0  0  0  0  0  0  0  0
    0.5981    1.4169    0.0000 H   0  0  0  0  0  0  0  0  0  0  0  0
    1.6622    1.3051    0.0000 H   0  0  0  0  0  0  0  0  0  0  0  0
    1.2819    1.1880    0.0000 H   0  0  0  0  0  0  0  0  0  0  0  0
  1 22  1  0  0  0  0
  1 23  1  0  0  0  0
  1 24  1  0  0  0  0
  2 25  1  0  0  0  0
  2 26  1  0  0  0  0
  2 27  1  0  0  0  0
  3  1  1  0  0  0  0
  3 28  1  0  0  0  0
  3 29  1  0  0  0  0
  4  2  1  0  0  0  0
  4 30  1  0  0  0  0
  4 31  1  0  0  0  0
  5 32  1  0  0  0  0
  5 33  1  0  0  0  0
  6  5  1  0  0  0  0
  6 34  1  0  0  0  0
  6 35  1  0  0  0  0
  7  5  1  0  0  0  0
  7 36  1  0  0  0  0
  7 37  1  0  0  0  0
  8  6  1  0  0  0  0
  8 38  1  0  0  0  0
  8 39  1  0  0  0  0
  9  7  1  0  0  0  0
  9 40  1  0  0  0  0
  9 41  1  0  0  0  0
 11 10  2  0  0  0  0
 12 10  1  0  0  0  0
 14 13  1  0  0  0  0
 14 42  1  0  0  0  0
 15  8  1  0  0  0  0
 15  9  1  0  0  0  0
 15 14  1  0  0  0  0
 16  3  1  0  0  0  0
 16 11  1  0  0  0  0
 16 13  1  0  0  0  0
 17 12  2  0  0  0  0
 18 13  2  0  0  0  0
 19  4  1  0  0  0  0
 19 12  1  0  0  0  0
 20 11  1  0  0  0  0
 20 14  1  0  0  0  0
 21 10  1  0  0  0  0
M  END
>  <DRUGBANK_ID>
DB13202

>  <COMMON_NAME>
Piprozolin

>  <CAS_NUMBER>
17243-64-0

>  <UNII>
7786W0VV8M

>  <SYNONYMS>
(+-)-Piprozolin; Piprozolin; Piprozolina; Piprozoline; Piprozolinum

$$$$
