
 OpenBabel10282417072D

 43 44  0  0  0  0  0  0  0  0999 V2000
    2.8520   -1.2456    0.0000 N   0  0  0  0  0  0  0  0  0  0  0  0
    3.5653   -1.6558    0.0000 O   0  0  0  0  0  0  0  0  0  0  0  0
    2.1400   -1.6478    0.0000 C   0  0  0  0  0  0  0  0  0  0  0  0
    2.1323   -2.4759    0.0000 O   0  0  0  0  0  0  0  0  0  0  0  0
    1.4267   -1.2376    0.0000 C   0  0  0  0  0  0  0  0  0  0  0  0
    1.4331   -0.4116    0.0000 C   0  0  0  0  0  0  0  0  0  0  0  0
    0.7161    0.0007    0.0000 C   0  0  0  0  0  0  0  0  0  0  0  0
   -0.0013   -0.4110    0.0000 C   0  0  0  0  0  0  0  0  0  0  0  0
   -0.7147   -0.0008    0.0000 N   0  0  0  0  0  0  0  0  0  0  0  0
   -1.4266   -0.4092    0.0000 C   0  0  0  0  0  0  0  0  0  0  0  0
   -1.4275   -1.2322    0.0000 O   0  0  0  0  0  0  0  0  0  0  0  0
   -2.1400    0.0009    0.0000 C   0  0  2  0  0  0  0  0  0  0  0  0
   -2.1378    0.8259    0.0000 C   0  0  0  0  0  0  0  0  0  0  0  0
   -1.4197    1.2365    0.0000 C   0  0  0  0  0  0  0  0  0  0  0  0
   -1.4261    2.0636    0.0000 C   0  0  0  0  0  0  0  0  0  0  0  0
   -2.1432    2.4759    0.0000 C   0  0  0  0  0  0  0  0  0  0  0  0
   -2.8539    2.0611    0.0000 C   0  0  0  0  0  0  0  0  0  0  0  0
   -2.8548    1.2382    0.0000 C   0  0  0  0  0  0  0  0  0  0  0  0
   -2.8519   -0.4076    0.0000 C   0  0  0  0  0  0  0  0  0  0  0  0
   -3.5653    0.0025    0.0000 C   0  0  0  0  0  0  0  0  0  0  0  0
   -2.8529   -1.2304    0.0000 C   0  0  0  0  0  0  0  0  0  0  0  0
   -0.0041   -1.2391    0.0000 C   0  0  0  0  0  0  0  0  0  0  0  0
    0.7092   -1.6493    0.0000 C   0  0  0  0  0  0  0  0  0  0  0  0
    2.8558   -0.2611    0.0000 H   0  0  0  0  0  0  0  0  0  0  0  0
    3.5670   -2.6258    0.0000 H   0  0  0  0  0  0  0  0  0  0  0  0
    2.3284    0.1017    0.0000 H   0  0  0  0  0  0  0  0  0  0  0  0
    0.7165    1.0327    0.0000 H   0  0  0  0  0  0  0  0  0  0  0  0
   -0.7142    0.9837    0.0000 H   0  0  0  0  0  0  0  0  0  0  0  0
   -2.1404   -1.0691    0.0000 H   0  0  0  0  0  0  0  0  0  0  0  0
   -0.5250    0.7221    0.0000 H   0  0  0  0  0  0  0  0  0  0  0  0
   -0.5348    2.5839    0.0000 H   0  0  0  0  0  0  0  0  0  0  0  0
   -2.1466    3.5079    0.0000 H   0  0  0  0  0  0  0  0  0  0  0  0
   -3.7486    2.5755    0.0000 H   0  0  0  0  0  0  0  0  0  0  0  0
   -3.7484    0.7219    0.0000 H   0  0  0  0  0  0  0  0  0  0  0  0
   -3.7784   -0.9429    0.0000 H   0  0  0  0  0  0  0  0  0  0  0  0
   -3.5673    1.0725    0.0000 H   0  0  0  0  0  0  0  0  0  0  0  0
   -4.4909   -0.5342    0.0000 H   0  0  0  0  0  0  0  0  0  0  0  0
   -4.4929    0.5358    0.0000 H   0  0  0  0  0  0  0  0  0  0  0  0
   -3.7802   -1.7643    0.0000 H   0  0  0  0  0  0  0  0  0  0  0  0
   -1.9269   -1.7665    0.0000 H   0  0  0  0  0  0  0  0  0  0  0  0
   -2.8542   -2.3004    0.0000 H   0  0  0  0  0  0  0  0  0  0  0  0
   -0.8983   -1.7544    0.0000 H   0  0  0  0  0  0  0  0  0  0  0  0
    0.7087   -2.6813    0.0000 H   0  0  0  0  0  0  0  0  0  0  0  0
  1 24  1  0  0  0  0
  2  1  1  0  0  0  0
  2 25  1  0  0  0  0
  3  1  1  0  0  0  0
  3  4  2  0  0  0  0
  5  3  1  0  0  0  0
  5  6  1  0  0  0  0
  5 23  2  0  0  0  0
  6 26  1  0  0  0  0
  7  6  2  0  0  0  0
  7 27  1  0  0  0  0
  8  7  1  0  0  0  0
  9  8  1  0  0  0  0
  9 28  1  0  0  0  0
 10  9  1  0  0  0  0
 10 11  2  0  0  0  0
 10 12  1  0  0  0  0
 12 19  1  0  0  0  0
 12 29  1  6  0  0  0
 13 12  1  0  0  0  0
 13 14  1  0  0  0  0
 13 18  2  0  0  0  0
 14 30  1  0  0  0  0
 15 14  2  0  0  0  0
 15 31  1  0  0  0  0
 16 15  1  0  0  0  0
 16 32  1  0  0  0  0
 17 16  2  0  0  0  0
 17 33  1  0  0  0  0
 18 17  1  0  0  0  0
 18 34  1  0  0  0  0
 19 21  1  0  0  0  0
 19 35  1  0  0  0  0
 20 19  1  0  0  0  0
 20 36  1  0  0  0  0
 20 37  1  0  0  0  0
 20 38  1  0  0  0  0
 21 39  1  0  0  0  0
 21 40  1  0  0  0  0
 21 41  1  0  0  0  0
 22  8  2  0  0  0  0
 22 42  1  0  0  0  0
 23 22  1  0  0  0  0
 23 43  1  0  0  0  0
M  END
>  <DRUGBANK_ID>
DB12707

>  <COMMON_NAME>
AR-42

>  <CAS_NUMBER>
935881-37-1

>  <UNII>
E0GG29V0AQ

>  <SYNONYMS>
(S)-(+)-N-HYDROXY-4-(3-METHYL-2-PHENYL-BUTYRYLAMINO)-BENZAMIDE; (αS)-N-[4-[(Hydroxyamino)carbonyl]phenyl]-α-(1-methylethyl)benzeneacetamide; BENZENEACETAMIDE, N-(4-((HYDROXYAMINO)CARBONYL)PHENYL)-.ALPHA.-(1-METHYLETHYL)-, (.ALPHA.S)-; N-Hydroxy-4-(3-methyl-2-(S)phenyl-butyrylamino)benzamide; N-hydroxy-4-[[(2S)-3-methyl-2-phenylbutanoyl]amino]benzamide

$$$$
