
 OpenBabel10282417072D

 67 70  0  0  1  0  0  0  0  0999 V2000
   -0.6941   -3.1705    0.0000 C   0  0  0  0  0  0  0  0  0  0  0  0
   -0.5105   -2.3662    0.0000 C   0  0  0  0  0  0  0  0  0  0  0  0
    0.2938   -2.5498    0.0000 C   0  0  0  0  0  0  0  0  0  0  0  0
   -1.3148   -2.1826    0.0000 C   0  0  0  0  0  0  0  0  0  0  0  0
   -0.3269   -1.5619    0.0000 C   0  0  0  0  0  0  0  0  0  0  0  0
   -0.9317   -1.0007    0.0000 O   0  0  0  0  0  0  0  0  0  0  0  0
    0.4614   -1.3187    0.0000 C   0  0  0  0  0  0  0  0  0  0  0  0
    0.6450   -0.5144    0.0000 N   0  0  0  0  0  0  0  0  0  0  0  0
    0.0000    0.0000    0.0000 C   0  0  0  0  0  0  0  0  0  0  0  0
   -0.7145   -0.4125    0.0000 C   0  0  0  0  0  0  0  0  0  0  0  0
   -1.4289    0.0000    0.0000 C   0  0  0  0  0  0  0  0  0  0  0  0
   -1.4289    0.8250    0.0000 C   0  0  0  0  0  0  0  0  0  0  0  0
   -0.7145    1.2375    0.0000 C   0  0  0  0  0  0  0  0  0  0  0  0
   -0.0000    0.8250    0.0000 C   0  0  0  0  0  0  0  0  0  0  0  0
    0.6450    1.3394    0.0000 C   0  0  0  0  0  0  0  0  0  0  0  0
    1.4493    1.1558    0.0000 N   0  0  0  0  0  0  0  0  0  0  0  0
    1.8073    0.4125    0.0000 C   0  0  2  0  0  0  0  0  0  0  0  0
    1.4493   -0.3308    0.0000 C   0  0  0  0  0  0  0  0  0  0  0  0
    1.9637   -0.9758    0.0000 O   0  0  0  0  0  0  0  0  0  0  0  0
    2.6323    0.4125    0.0000 N   0  0  0  0  0  0  0  0  0  0  0  0
    3.0448    1.1270    0.0000 C   0  0  0  0  0  0  0  0  0  0  0  0
    2.6323    1.8414    0.0000 O   0  0  0  0  0  0  0  0  0  0  0  0
    3.8698    1.1270    0.0000 N   0  0  0  0  0  0  0  0  0  0  0  0
    4.2823    1.8414    0.0000 C   0  0  0  0  0  0  0  0  0  0  0  0
    3.8698    2.5559    0.0000 C   0  0  0  0  0  0  0  0  0  0  0  0
    4.2823    3.2704    0.0000 C   0  0  0  0  0  0  0  0  0  0  0  0
    5.1073    3.2704    0.0000 C   0  0  0  0  0  0  0  0  0  0  0  0
    5.5198    2.5559    0.0000 C   0  0  0  0  0  0  0  0  0  0  0  0
    5.1073    1.8414    0.0000 C   0  0  0  0  0  0  0  0  0  0  0  0
    6.3448    2.5559    0.0000 N   0  0  0  0  0  0  0  0  0  0  0  0
    6.7573    3.2704    0.0000 C   0  0  0  0  0  0  0  0  0  0  0  0
    0.4614    2.1437    0.0000 C   0  0  0  0  0  0  0  0  0  0  0  0
   -0.3269    2.3869    0.0000 C   0  0  0  0  0  0  0  0  0  0  0  0
   -0.5105    3.1912    0.0000 C   0  0  0  0  0  0  0  0  0  0  0  0
    0.0943    3.7523    0.0000 C   0  0  0  0  0  0  0  0  0  0  0  0
    0.8826    3.5092    0.0000 C   0  0  0  0  0  0  0  0  0  0  0  0
    1.0662    2.7048    0.0000 N   0  0  0  0  0  0  0  0  0  0  0  0
   -1.7166   -3.4859    0.0000 H   0  0  0  0  0  0  0  0  0  0  0  0
    0.0902   -3.8983    0.0000 H   0  0  0  0  0  0  0  0  0  0  0  0
   -0.9322   -4.2137    0.0000 H   0  0  0  0  0  0  0  0  0  0  0  0
    0.6092   -3.5723    0.0000 H   0  0  0  0  0  0  0  0  0  0  0  0
    1.0216   -1.7655    0.0000 H   0  0  0  0  0  0  0  0  0  0  0  0
    1.3370   -2.7879    0.0000 H   0  0  0  0  0  0  0  0  0  0  0  0
   -1.6302   -1.1601    0.0000 H   0  0  0  0  0  0  0  0  0  0  0  0
   -2.0426   -2.9669    0.0000 H   0  0  0  0  0  0  0  0  0  0  0  0
   -2.3580   -1.9445    0.0000 H   0  0  0  0  0  0  0  0  0  0  0  0
    1.2458   -2.0465    0.0000 H   0  0  0  0  0  0  0  0  0  0  0  0
    1.4839   -1.0033    0.0000 H   0  0  0  0  0  0  0  0  0  0  0  0
   -0.7145   -1.4445    0.0000 H   0  0  0  0  0  0  0  0  0  0  0  0
   -2.3226   -0.5160    0.0000 H   0  0  0  0  0  0  0  0  0  0  0  0
   -2.3226    1.3410    0.0000 H   0  0  0  0  0  0  0  0  0  0  0  0
   -0.7145    2.2695    0.0000 H   0  0  0  0  0  0  0  0  0  0  0  0
    2.3766    1.3185    0.0000 H   0  0  0  0  0  0  0  0  0  0  0  0
    3.1246   -0.4401    0.0000 H   0  0  0  0  0  0  0  0  0  0  0  0
    4.3620    0.2744    0.0000 H   0  0  0  0  0  0  0  0  0  0  0  0
    2.8378    2.5559    0.0000 H   0  0  0  0  0  0  0  0  0  0  0  0
    3.7663    4.1641    0.0000 H   0  0  0  0  0  0  0  0  0  0  0  0
    5.6233    4.1641    0.0000 H   0  0  0  0  0  0  0  0  0  0  0  0
    5.6233    0.9477    0.0000 H   0  0  0  0  0  0  0  0  0  0  0  0
    6.8371    1.7033    0.0000 H   0  0  0  0  0  0  0  0  0  0  0  0
    7.8273    3.2704    0.0000 H   0  0  0  0  0  0  0  0  0  0  0  0
    6.2223    4.1970    0.0000 H   0  0  0  0  0  0  0  0  0  0  0  0
    7.2923    4.1971    0.0000 H   0  0  0  0  0  0  0  0  0  0  0  0
   -1.0834    1.6850    0.0000 H   0  0  0  0  0  0  0  0  0  0  0  0
   -1.4966    3.4954    0.0000 H   0  0  0  0  0  0  0  0  0  0  0  0
   -0.1353    4.7584    0.0000 H   0  0  0  0  0  0  0  0  0  0  0  0
    1.6391    4.2112    0.0000 H   0  0  0  0  0  0  0  0  0  0  0  0
  1  2  1  0  0  0  0
  1 38  1  0  0  0  0
  1 39  1  0  0  0  0
  1 40  1  0  0  0  0
  2  3  1  0  0  0  0
  2  4  1  0  0  0  0
  2  5  1  0  0  0  0
  3 41  1  0  0  0  0
  3 42  1  0  0  0  0
  3 43  1  0  0  0  0
  4 44  1  0  0  0  0
  4 45  1  0  0  0  0
  4 46  1  0  0  0  0
  5  6  2  0  0  0  0
  5  7  1  0  0  0  0
  7  8  1  0  0  0  0
  7 47  1  0  0  0  0
  7 48  1  0  0  0  0
  8  9  1  0  0  0  0
  8 18  1  0  0  0  0
  9 10  2  0  0  0  0
  9 14  1  0  0  0  0
 10 11  1  0  0  0  0
 10 49  1  0  0  0  0
 11 12  2  0  0  0  0
 11 50  1  0  0  0  0
 12 13  1  0  0  0  0
 12 51  1  0  0  0  0
 13 14  2  0  0  0  0
 13 52  1  0  0  0  0
 14 15  1  0  0  0  0
 15 16  2  0  0  0  0
 15 32  1  0  0  0  0
 16 17  1  0  0  0  0
 17 18  1  0  0  0  0
 17 20  1  0  0  0  0
 17 53  1  6  0  0  0
 18 19  2  0  0  0  0
 20 21  1  0  0  0  0
 20 54  1  0  0  0  0
 21 22  2  0  0  0  0
 21 23  1  0  0  0  0
 23 24  1  0  0  0  0
 23 55  1  0  0  0  0
 24 25  2  0  0  0  0
 24 29  1  0  0  0  0
 25 26  1  0  0  0  0
 25 56  1  0  0  0  0
 26 27  2  0  0  0  0
 26 57  1  0  0  0  0
 27 28  1  0  0  0  0
 27 58  1  0  0  0  0
 28 29  2  0  0  0  0
 28 30  1  0  0  0  0
 29 59  1  0  0  0  0
 30 31  1  0  0  0  0
 30 60  1  0  0  0  0
 31 61  1  0  0  0  0
 31 62  1  0  0  0  0
 31 63  1  0  0  0  0
 32 33  2  0  0  0  0
 32 37  1  0  0  0  0
 33 34  1  0  0  0  0
 33 64  1  0  0  0  0
 34 35  2  0  0  0  0
 34 65  1  0  0  0  0
 35 36  1  0  0  0  0
 35 66  1  0  0  0  0
 36 37  2  0  0  0  0
 36 67  1  0  0  0  0
M  END
>  <DRUGBANK_ID>
DB12355

>  <COMMON_NAME>
Netazepide

>  <CAS_NUMBER>
155488-25-8

>  <UNII>
HOU4I0G29C

>  <SYNONYMS>
Netazepide

$$$$
