
 OpenBabel10282417072D

 58 60  0  0  1  0  0  0  0  0999 V2000
    1.4289    2.4750    0.0000 C   0  0  0  0  0  0  0  0  0  0  0  0
    1.4289    3.3000    0.0000 C   0  0  0  0  0  0  0  0  0  0  0  0
    2.8579    2.4750    0.0000 C   0  0  0  0  0  0  0  0  0  0  0  0
    0.7145    8.6625    0.0000 C   0  0  0  0  0  0  0  0  0  0  0  0
    0.7145    7.0125    0.0000 C   0  0  0  0  0  0  0  0  0  0  0  0
    2.1434    2.0625    0.0000 C   0  0  0  0  0  0  0  0  0  0  0  0
    2.8579    3.3000    0.0000 C   0  0  0  0  0  0  0  0  0  0  0  0
    2.1434    3.7125    0.0000 C   0  0  0  0  0  0  0  0  0  0  0  0
   -0.0000    8.2500    0.0000 C   0  0  2  0  0  0  0  0  0  0  0  0
    0.7145    6.1875    0.0000 C   0  0  2  0  0  0  0  0  0  0  0  0
    0.7145    4.5375    0.0000 C   0  0  2  0  0  0  0  0  0  0  0  0
   -0.7145    8.6625    0.0000 C   0  0  2  0  0  0  0  0  0  0  0  0
   -0.0000    4.9500    0.0000 C   0  0  2  0  0  0  0  0  0  0  0  0
   -1.4289    8.2500    0.0000 C   0  0  1  0  0  0  0  0  0  0  0  0
   -1.4289    7.4250    0.0000 C   0  0  2  0  0  0  0  0  0  0  0  0
   -0.0000    5.7750    0.0000 C   0  0  2  0  0  0  0  0  0  0  0  0
    1.4289    4.9500    0.0000 C   0  0  2  0  0  0  0  0  0  0  0  0
   -0.7145    7.0125    0.0000 C   0  0  1  0  0  0  0  0  0  0  0  0
    0.7145    3.7125    0.0000 F   0  0  0  0  0  0  0  0  0  0  0  0
    2.1434    1.2375    0.0000 N   0  0  0  0  0  0  0  0  0  0  0  0
    3.5724    3.7125    0.0000 N   0  0  0  0  0  0  0  0  0  0  0  0
    0.7145    9.4875    0.0000 O   0  0  0  0  0  0  0  0  0  0  0  0
    1.4289    7.4250    0.0000 O   0  0  0  0  0  0  0  0  0  0  0  0
   -0.7145    9.4875    0.0000 O   0  0  0  0  0  0  0  0  0  0  0  0
   -0.7145    4.5375    0.0000 O   0  0  0  0  0  0  0  0  0  0  0  0
   -2.1434    8.6625    0.0000 O   0  0  0  0  0  0  0  0  0  0  0  0
   -2.1434    7.0125    0.0000 O   0  0  0  0  0  0  0  0  0  0  0  0
    1.4289    0.8250    0.0000 O   0  0  0  0  0  0  0  0  0  0  0  0
    2.8579    0.8250    0.0000 O   0  0  0  0  0  0  0  0  0  0  0  0
    3.5724    4.5375    0.0000 O   0  0  0  0  0  0  0  0  0  0  0  0
    4.2868    3.3000    0.0000 O   0  0  0  0  0  0  0  0  0  0  0  0
    2.1434    4.5375    0.0000 O   0  0  0  0  0  0  0  0  0  0  0  0
   -0.0000    7.4250    0.0000 O   0  0  0  0  0  0  0  0  0  0  0  0
    1.4289    5.7750    0.0000 O   0  0  0  0  0  0  0  0  0  0  0  0
   -0.7145    6.1875    0.0000 O   0  0  0  0  0  0  0  0  0  0  0  0
   -0.2822    9.0252    0.0000 H   0  0  0  0  0  0  0  0  0  0  0  0
   -0.0980    6.3308    0.0000 H   0  0  0  0  0  0  0  0  0  0  0  0
    0.1842    3.9055    0.0000 H   0  0  0  0  0  0  0  0  0  0  0  0
   -0.1842    9.2945    0.0000 H   0  0  0  0  0  0  0  0  0  0  0  0
   -0.2822    4.1748    0.0000 H   0  0  0  0  0  0  0  0  0  0  0  0
   -1.4289    9.0750    0.0000 H   0  0  0  0  0  0  0  0  0  0  0  0
   -2.1434    7.8375    0.0000 H   0  0  0  0  0  0  0  0  0  0  0  0
   -0.2822    6.5502    0.0000 H   0  0  0  0  0  0  0  0  0  0  0  0
    1.4289    4.1250    0.0000 H   0  0  0  0  0  0  0  0  0  0  0  0
   -1.4289    6.6000    0.0000 H   0  0  0  0  0  0  0  0  0  0  0  0
    0.5352    1.9590    0.0000 H   0  0  0  0  0  0  0  0  0  0  0  0
    0.5352    3.8160    0.0000 H   0  0  0  0  0  0  0  0  0  0  0  0
    3.7516    1.9590    0.0000 H   0  0  0  0  0  0  0  0  0  0  0  0
    1.6411    8.1275    0.0000 H   0  0  0  0  0  0  0  0  0  0  0  0
    1.6411    9.1975    0.0000 H   0  0  0  0  0  0  0  0  0  0  0  0
   -0.2122    7.5475    0.0000 H   0  0  0  0  0  0  0  0  0  0  0  0
    0.7145    8.0825    0.0000 H   0  0  0  0  0  0  0  0  0  0  0  0
    1.5545    9.9725    0.0000 H   0  0  0  0  0  0  0  0  0  0  0  0
    2.2690    6.9400    0.0000 H   0  0  0  0  0  0  0  0  0  0  0  0
    0.1255    9.9725    0.0000 H   0  0  0  0  0  0  0  0  0  0  0  0
   -1.5545    5.0225    0.0000 H   0  0  0  0  0  0  0  0  0  0  0  0
   -2.1434    9.6325    0.0000 H   0  0  0  0  0  0  0  0  0  0  0  0
   -2.9834    7.4975    0.0000 H   0  0  0  0  0  0  0  0  0  0  0  0
  1 46  1  0  0  0  0
  2  1  2  0  0  0  0
  2 47  1  0  0  0  0
  3 48  1  0  0  0  0
  4 49  1  0  0  0  0
  4 50  1  0  0  0  0
  5 51  1  0  0  0  0
  5 52  1  0  0  0  0
  6  1  1  0  0  0  0
  6  3  2  0  0  0  0
  7  3  1  0  0  0  0
  8  2  1  0  0  0  0
  8  7  2  0  0  0  0
  9  4  1  0  0  0  0
  9 36  1  6  0  0  0
 10  5  1  0  0  0  0
 10 37  1  6  0  0  0
 11 19  1  0  0  0  0
 11 38  1  1  0  0  0
 12  9  1  0  0  0  0
 12 24  1  0  0  0  0
 12 39  1  1  0  0  0
 13 11  1  0  0  0  0
 13 25  1  0  0  0  0
 13 40  1  6  0  0  0
 14 12  1  0  0  0  0
 14 26  1  0  0  0  0
 14 41  1  6  0  0  0
 15 14  1  0  0  0  0
 15 27  1  0  0  0  0
 15 42  1  1  0  0  0
 16 10  1  0  0  0  0
 16 13  1  0  0  0  0
 16 35  1  0  0  0  0
 16 43  1  1  0  0  0
 17 11  1  0  0  0  0
 17 32  1  0  0  0  0
 17 44  1  6  0  0  0
 18 15  1  0  0  0  0
 18 35  1  0  0  0  0
 18 45  1  6  0  0  0
 20  6  1  0  0  0  0
 21  7  1  0  0  0  0
 22  4  1  0  0  0  0
 22 53  1  0  0  0  0
 23  5  1  0  0  0  0
 23 54  1  0  0  0  0
 24 55  1  0  0  0  0
 25 56  1  0  0  0  0
 26 57  1  0  0  0  0
 27 58  1  0  0  0  0
 28 20  2  0  0  0  0
 29 20  2  0  0  0  0
 30 21  2  0  0  0  0
 31 21  2  0  0  0  0
 32  8  1  0  0  0  0
 33  9  1  0  0  0  0
 33 18  1  0  0  0  0
 34 10  1  0  0  0  0
 34 17  1  0  0  0  0
M  END
>  <DRUGBANK_ID>
DB04086

>  <SECONDARY_ACCESSION_NUMBERS>
EXPT01130

>  <COMMON_NAME>
2',4'-Dinitrophenyl-2deoxy-2-Fluro-B-D-Cellobioside

$$$$
