4828
 OpenBabel10282417072D

 34 35  0  0  0  0  0  0  0  0999 V2000
    2.3645   -3.1758    0.0000 Cl  0  0  0  0  0  0  0  0  0  0  0  0
    1.6500    0.5368    0.0000 O   0  0  0  0  0  0  0  0  0  0  0  0
    5.4638    3.1223    0.0000 O   0  0  0  0  0  0  0  0  0  0  0  0
    5.6132    1.7013    0.0000 O   0  0  0  0  0  0  0  0  0  0  0  0
    3.1652    1.3572    0.0000 N   0  0  0  0  0  0  0  0  0  0  0  0
    3.0790    0.5368    0.0000 C   0  0  0  0  0  0  0  0  0  0  0  0
    3.9722    1.5287    0.0000 C   0  0  0  0  0  0  0  0  0  0  0  0
    3.8327    0.2011    0.0000 C   0  0  0  0  0  0  0  0  0  0  0  0
    4.3847    0.8143    0.0000 C   0  0  0  0  0  0  0  0  0  0  0  0
    4.3078    2.2824    0.0000 C   0  0  0  0  0  0  0  0  0  0  0  0
    2.3645    0.1242    0.0000 C   0  0  0  0  0  0  0  0  0  0  0  0
    2.5521    1.9092    0.0000 C   0  0  0  0  0  0  0  0  0  0  0  0
    4.0042   -0.6058    0.0000 C   0  0  0  0  0  0  0  0  0  0  0  0
    2.3645   -0.7008    0.0000 C   0  0  0  0  0  0  0  0  0  0  0  0
    5.1283    2.3687    0.0000 C   0  0  0  0  0  0  0  0  0  0  0  0
    3.0790   -1.1133    0.0000 C   0  0  0  0  0  0  0  0  0  0  0  0
    1.6500   -1.1133    0.0000 C   0  0  0  0  0  0  0  0  0  0  0  0
    3.0790   -1.9383    0.0000 C   0  0  0  0  0  0  0  0  0  0  0  0
    1.6500   -1.9383    0.0000 C   0  0  0  0  0  0  0  0  0  0  0  0
    2.3645   -2.3508    0.0000 C   0  0  0  0  0  0  0  0  0  0  0  0
    6.3957    3.2203    0.0000 H   0  0  0  0  0  0  0  0  0  0  0  0
    5.4111    0.7065    0.0000 H   0  0  0  0  0  0  0  0  0  0  0  0
    3.6789    3.1480    0.0000 H   0  0  0  0  0  0  0  0  0  0  0  0
    4.7430    3.2599    0.0000 H   0  0  0  0  0  0  0  0  0  0  0  0
    2.7745    2.9558    0.0000 H   0  0  0  0  0  0  0  0  0  0  0  0
    1.5345    1.5785    0.0000 H   0  0  0  0  0  0  0  0  0  0  0  0
    1.7569    2.6251    0.0000 H   0  0  0  0  0  0  0  0  0  0  0  0
    3.2090   -1.3218    0.0000 H   0  0  0  0  0  0  0  0  0  0  0  0
    5.0218   -0.9365    0.0000 H   0  0  0  0  0  0  0  0  0  0  0  0
    4.2267   -1.6524    0.0000 H   0  0  0  0  0  0  0  0  0  0  0  0
    3.9727   -0.5973    0.0000 H   0  0  0  0  0  0  0  0  0  0  0  0
    0.7563   -0.5973    0.0000 H   0  0  0  0  0  0  0  0  0  0  0  0
    3.9727   -2.4543    0.0000 H   0  0  0  0  0  0  0  0  0  0  0  0
    0.7563   -2.4543    0.0000 H   0  0  0  0  0  0  0  0  0  0  0  0
  1 20  1  0  0  0  0
  2 11  2  0  0  0  0
  3 15  1  0  0  0  0
  3 21  1  0  0  0  0
  4 15  2  0  0  0  0
  5  6  1  0  0  0  0
  5  7  1  0  0  0  0
  5 12  1  0  0  0  0
  6  8  2  0  0  0  0
  6 11  1  0  0  0  0
  7  9  2  0  0  0  0
  7 10  1  0  0  0  0
  8  9  1  0  0  0  0
  8 13  1  0  0  0  0
  9 22  1  0  0  0  0
 10 15  1  0  0  0  0
 10 23  1  0  0  0  0
 10 24  1  0  0  0  0
 11 14  1  0  0  0  0
 12 25  1  0  0  0  0
 12 26  1  0  0  0  0
 12 27  1  0  0  0  0
 13 28  1  0  0  0  0
 13 29  1  0  0  0  0
 13 30  1  0  0  0  0
 14 16  2  0  0  0  0
 14 17  1  0  0  0  0
 16 18  1  0  0  0  0
 16 31  1  0  0  0  0
 17 19  2  0  0  0  0
 17 32  1  0  0  0  0
 18 20  2  0  0  0  0
 18 33  1  0  0  0  0
 19 20  1  0  0  0  0
 19 34  1  0  0  0  0
M  END
>  <DRUGBANK_ID>
DB04828

>  <COMMON_NAME>
Zomepirac

>  <CAS_NUMBER>
33369-31-2

>  <UNII>
822G987U9J

>  <SYNONYMS>
5-(4-Chlorobenzoyl)-1,4-dimethyl-1H-pyrrole-2-acetic acid; Zomepirac; Zomepiracum

$$$$
