IOF
 OpenBabel10282417072D

 34 35  0  0  0  0  0  0  0  0999 V2000
    0.6092   -0.6132    0.0000 C   0  0  0  0  0  0  0  0  0  0  0  0
    1.3237   -1.0257    0.0000 C   0  0  0  0  0  0  0  0  0  0  0  0
    1.3237   -1.8507    0.0000 C   0  0  0  0  0  0  0  0  0  0  0  0
    0.6092   -2.2632    0.0000 C   0  0  0  0  0  0  0  0  0  0  0  0
   -0.1052   -1.8507    0.0000 C   0  0  0  0  0  0  0  0  0  0  0  0
   -0.1052   -1.0257    0.0000 C   0  0  0  0  0  0  0  0  0  0  0  0
   -0.8197   -0.6132    0.0000 C   0  0  0  0  0  0  0  0  0  0  0  0
   -1.5342   -1.0257    0.0000 O   0  0  0  0  0  0  0  0  0  0  0  0
   -0.8197    0.2118    0.0000 N   0  0  0  0  0  0  0  0  0  0  0  0
   -1.5342    0.6243    0.0000 C   0  0  0  0  0  0  0  0  0  0  0  0
    2.0382   -2.2632    0.0000 S   0  0  0  0  0  0  0  0  0  0  0  0
    2.7526   -2.6757    0.0000 N   0  0  0  0  0  0  0  0  0  0  0  0
    2.4507   -1.5487    0.0000 O   0  0  0  0  0  0  0  0  0  0  0  0
    1.6257   -2.9777    0.0000 O   0  0  0  0  0  0  0  0  0  0  0  0
   -1.5342    1.4493    0.0000 C   0  0  0  0  0  0  0  0  0  0  0  0
   -2.2487    1.8618    0.0000 C   0  0  0  0  0  0  0  0  0  0  0  0
   -2.2487    2.6868    0.0000 C   0  0  0  0  0  0  0  0  0  0  0  0
   -1.5342    3.0993    0.0000 C   0  0  0  0  0  0  0  0  0  0  0  0
   -0.8197    2.6868    0.0000 C   0  0  0  0  0  0  0  0  0  0  0  0
   -0.8197    1.8618    0.0000 C   0  0  0  0  0  0  0  0  0  0  0  0
   -2.9631    3.0993    0.0000 F   0  0  0  0  0  0  0  0  0  0  0  0
   -1.5342    3.9243    0.0000 F   0  0  0  0  0  0  0  0  0  0  0  0
   -0.1052    3.0993    0.0000 F   0  0  0  0  0  0  0  0  0  0  0  0
    0.6092    0.4188    0.0000 H   0  0  0  0  0  0  0  0  0  0  0  0
    2.2174   -0.5097    0.0000 H   0  0  0  0  0  0  0  0  0  0  0  0
    0.6092   -3.2952    0.0000 H   0  0  0  0  0  0  0  0  0  0  0  0
   -0.9989   -2.3667    0.0000 H   0  0  0  0  0  0  0  0  0  0  0  0
    0.0329    0.7041    0.0000 H   0  0  0  0  0  0  0  0  0  0  0  0
   -2.4608    0.0893    0.0000 H   0  0  0  0  0  0  0  0  0  0  0  0
   -2.4608    1.1593    0.0000 H   0  0  0  0  0  0  0  0  0  0  0  0
    2.7526   -3.6957    0.0000 H   0  0  0  0  0  0  0  0  0  0  0  0
    3.6360   -2.1657    0.0000 H   0  0  0  0  0  0  0  0  0  0  0  0
   -3.1424    1.3458    0.0000 H   0  0  0  0  0  0  0  0  0  0  0  0
    0.0740    1.3458    0.0000 H   0  0  0  0  0  0  0  0  0  0  0  0
  1  2  2  0  0  0  0
  1  6  1  0  0  0  0
  1 24  1  0  0  0  0
  2  3  1  0  0  0  0
  2 25  1  0  0  0  0
  3  4  2  0  0  0  0
  3 11  1  0  0  0  0
  4  5  1  0  0  0  0
  4 26  1  0  0  0  0
  5  6  2  0  0  0  0
  5 27  1  0  0  0  0
  6  7  1  0  0  0  0
  7  8  2  0  0  0  0
  7  9  1  0  0  0  0
  9 10  1  0  0  0  0
  9 28  1  0  0  0  0
 10 15  1  0  0  0  0
 10 29  1  0  0  0  0
 10 30  1  0  0  0  0
 11 12  1  0  0  0  0
 11 13  2  0  0  0  0
 11 14  2  0  0  0  0
 12 31  1  0  0  0  0
 12 32  1  0  0  0  0
 15 16  2  0  0  0  0
 15 20  1  0  0  0  0
 16 17  1  0  0  0  0
 16 33  1  0  0  0  0
 17 18  2  0  0  0  0
 17 21  1  0  0  0  0
 18 19  1  0  0  0  0
 18 22  1  0  0  0  0
 19 20  2  0  0  0  0
 19 23  1  0  0  0  0
 20 34  1  0  0  0  0
M  END
>  <DRUGBANK_ID>
DB02861

>  <SECONDARY_ACCESSION_NUMBERS>
EXPT01904

>  <COMMON_NAME>
4-(Aminosulfonyl)-N-[(3,4,5-Trifluorophenyl)Methyl]-Benzamide

$$$$
