GFA
 OpenBabel10282417072D

 42 44  0  0  0  0  0  0  0  0999 V2000
    0.0172   -1.0787    0.0000 O   0  0  0  0  0  0  0  0  0  0  0  0
    0.0172    2.2213    0.0000 Cl  0  0  0  0  0  0  0  0  0  0  0  0
    1.4461   -0.2537    0.0000 O   0  0  0  0  0  0  0  0  0  0  0  0
   -1.4117   -1.0787    0.0000 O   0  0  0  0  0  0  0  0  0  0  0  0
    2.1606   -1.4912    0.0000 N   0  0  0  0  0  0  0  0  0  0  0  0
    0.7317    0.1588    0.0000 C   0  0  0  0  0  0  0  0  0  0  0  0
   -0.6973    0.1588    0.0000 C   0  0  0  0  0  0  0  0  0  0  0  0
   -0.6973    0.9838    0.0000 C   0  0  0  0  0  0  0  0  0  0  0  0
   -2.1262    0.1588    0.0000 C   0  0  0  0  0  0  0  0  0  0  0  0
   -1.4117   -0.2537    0.0000 C   0  0  0  0  0  0  0  0  0  0  0  0
    0.0172   -0.2537    0.0000 C   0  0  0  0  0  0  0  0  0  0  0  0
   -2.8407   -0.2537    0.0000 C   0  0  0  0  0  0  0  0  0  0  0  0
    0.0172    1.3963    0.0000 C   0  0  0  0  0  0  0  0  0  0  0  0
    3.5896   -1.4912    0.0000 C   0  0  0  0  0  0  0  0  0  0  0  0
    0.7317   -1.4912    0.0000 C   0  0  0  0  0  0  0  0  0  0  0  0
    2.8751   -1.0787    0.0000 C   0  0  0  0  0  0  0  0  0  0  0  0
   -2.8407    1.3963    0.0000 C   0  0  0  0  0  0  0  0  0  0  0  0
    1.4461   -1.0787    0.0000 C   0  0  0  0  0  0  0  0  0  0  0  0
    0.7317    0.9838    0.0000 C   0  0  0  0  0  0  0  0  0  0  0  0
    4.3040   -1.0787    0.0000 C   0  0  0  0  0  0  0  0  0  0  0  0
    2.8751   -0.2537    0.0000 C   0  0  0  0  0  0  0  0  0  0  0  0
   -2.1262    0.9838    0.0000 C   0  0  0  0  0  0  0  0  0  0  0  0
    3.5896    0.1588    0.0000 C   0  0  0  0  0  0  0  0  0  0  0  0
   -3.5552    0.9838    0.0000 C   0  0  0  0  0  0  0  0  0  0  0  0
    4.3040   -0.2537    0.0000 C   0  0  0  0  0  0  0  0  0  0  0  0
   -3.5552    0.1588    0.0000 C   0  0  0  0  0  0  0  0  0  0  0  0
    2.1606   -2.4757    0.0000 H   0  0  0  0  0  0  0  0  0  0  0  0
    1.6254   -0.3572    0.0000 H   0  0  0  0  0  0  0  0  0  0  0  0
   -1.5910    1.4998    0.0000 H   0  0  0  0  0  0  0  0  0  0  0  0
   -2.8407   -1.2857    0.0000 H   0  0  0  0  0  0  0  0  0  0  0  0
    3.5896   -2.5232    0.0000 H   0  0  0  0  0  0  0  0  0  0  0  0
    0.7317   -2.5612    0.0000 H   0  0  0  0  0  0  0  0  0  0  0  0
    1.6584   -2.0262    0.0000 H   0  0  0  0  0  0  0  0  0  0  0  0
   -2.8407    2.4283    0.0000 H   0  0  0  0  0  0  0  0  0  0  0  0
    1.6254    1.4998    0.0000 H   0  0  0  0  0  0  0  0  0  0  0  0
    5.1977   -1.5947    0.0000 H   0  0  0  0  0  0  0  0  0  0  0  0
    1.9814    0.2623    0.0000 H   0  0  0  0  0  0  0  0  0  0  0  0
   -1.2325    1.4998    0.0000 H   0  0  0  0  0  0  0  0  0  0  0  0
    3.5896    1.1908    0.0000 H   0  0  0  0  0  0  0  0  0  0  0  0
   -4.4489    1.4998    0.0000 H   0  0  0  0  0  0  0  0  0  0  0  0
    5.1977    0.2623    0.0000 H   0  0  0  0  0  0  0  0  0  0  0  0
   -4.4489   -0.3572    0.0000 H   0  0  0  0  0  0  0  0  0  0  0  0
  1 11  1  0  0  0  0
  1 15  1  0  0  0  0
  2 13  1  0  0  0  0
  3 18  2  0  0  0  0
  4 10  2  0  0  0  0
  5 16  1  0  0  0  0
  5 18  1  0  0  0  0
  5 27  1  0  0  0  0
  6 11  2  0  0  0  0
  6 19  1  0  0  0  0
  6 28  1  0  0  0  0
  7  8  2  0  0  0  0
  7 10  1  0  0  0  0
  7 11  1  0  0  0  0
  8 13  1  0  0  0  0
  8 29  1  0  0  0  0
  9 10  1  0  0  0  0
  9 12  2  0  0  0  0
  9 22  1  0  0  0  0
 12 26  1  0  0  0  0
 12 30  1  0  0  0  0
 13 19  2  0  0  0  0
 14 16  2  0  0  0  0
 14 20  1  0  0  0  0
 14 31  1  0  0  0  0
 15 18  1  0  0  0  0
 15 32  1  0  0  0  0
 15 33  1  0  0  0  0
 16 21  1  0  0  0  0
 17 22  2  0  0  0  0
 17 24  1  0  0  0  0
 17 34  1  0  0  0  0
 19 35  1  0  0  0  0
 20 25  2  0  0  0  0
 20 36  1  0  0  0  0
 21 23  2  0  0  0  0
 21 37  1  0  0  0  0
 22 38  1  0  0  0  0
 23 25  1  0  0  0  0
 23 39  1  0  0  0  0
 24 26  2  0  0  0  0
 24 40  1  0  0  0  0
 25 41  1  0  0  0  0
 26 42  1  0  0  0  0
M  END
>  <DRUGBANK_ID>
DB07826

>  <COMMON_NAME>
2-[4-chloro-2-(phenylcarbonyl)phenoxy]-N-phenylacetamide

$$$$
