
 OpenBabel10282417072D

 65 68  0  0  1  0  0  0  0  0999 V2000
   -0.4125    3.3513    0.0000 C   0  0  0  0  0  0  0  0  0  0  0  0
    0.0000    2.6368    0.0000 C   0  0  0  0  0  0  0  0  0  0  0  0
    0.8250    2.6368    0.0000 O   0  0  0  0  0  0  0  0  0  0  0  0
   -0.4125    1.9224    0.0000 N   0  0  0  0  0  0  0  0  0  0  0  0
    0.0000    1.2079    0.0000 C   0  0  0  0  0  0  0  0  0  0  0  0
   -0.4125    0.4934    0.0000 C   0  0  0  0  0  0  0  0  0  0  0  0
   -1.2375    0.4934    0.0000 N   0  0  0  0  0  0  0  0  0  0  0  0
   -1.6500    1.2079    0.0000 C   0  0  0  0  0  0  0  0  0  0  0  0
   -1.2375    1.9224    0.0000 C   0  0  0  0  0  0  0  0  0  0  0  0
   -1.6500   -0.2211    0.0000 C   0  0  0  0  0  0  0  0  0  0  0  0
   -2.4750   -0.2211    0.0000 O   0  0  0  0  0  0  0  0  0  0  0  0
   -1.2375   -0.9355    0.0000 C   0  0  2  0  0  0  0  0  0  0  0  0
   -1.6500   -1.6500    0.0000 C   0  0  0  0  0  0  0  0  0  0  0  0
   -2.4750   -1.6500    0.0000 C   0  0  0  0  0  0  0  0  0  0  0  0
   -2.8875   -2.3645    0.0000 C   0  0  0  0  0  0  0  0  0  0  0  0
   -3.7125   -2.3645    0.0000 C   0  0  0  0  0  0  0  0  0  0  0  0
   -4.1250   -1.6500    0.0000 C   0  0  0  0  0  0  0  0  0  0  0  0
   -3.7125   -0.9355    0.0000 C   0  0  0  0  0  0  0  0  0  0  0  0
   -2.8875   -0.9355    0.0000 C   0  0  0  0  0  0  0  0  0  0  0  0
   -4.1250   -0.2211    0.0000 C   0  0  0  0  0  0  0  0  0  0  0  0
   -4.9500   -0.2211    0.0000 N   0  0  0  0  0  0  0  0  0  0  0  0
   -3.7125    0.4934    0.0000 N   0  0  0  0  0  0  0  0  0  0  0  0
   -0.4125   -0.9355    0.0000 N   0  0  0  0  0  0  0  0  0  0  0  0
    0.0000   -1.6500    0.0000 S   0  0  0  0  0  0  0  0  0  0  0  0
    0.4125   -2.3645    0.0000 O   0  0  0  0  0  0  0  0  0  0  0  0
   -0.7145   -2.0625    0.0000 O   0  0  0  0  0  0  0  0  0  0  0  0
    0.7145   -1.2375    0.0000 C   0  0  0  0  0  0  0  0  0  0  0  0
    0.7145   -0.4125    0.0000 C   0  0  0  0  0  0  0  0  0  0  0  0
    1.4289    0.0000    0.0000 C   0  0  0  0  0  0  0  0  0  0  0  0
    2.1434   -0.4125    0.0000 C   0  0  0  0  0  0  0  0  0  0  0  0
    2.8579    0.0000    0.0000 C   0  0  0  0  0  0  0  0  0  0  0  0
    3.5724   -0.4125    0.0000 C   0  0  0  0  0  0  0  0  0  0  0  0
    3.5724   -1.2375    0.0000 C   0  0  0  0  0  0  0  0  0  0  0  0
    2.8579   -1.6500    0.0000 C   0  0  0  0  0  0  0  0  0  0  0  0
    2.1434   -1.2375    0.0000 C   0  0  0  0  0  0  0  0  0  0  0  0
    1.4289   -1.6500    0.0000 C   0  0  0  0  0  0  0  0  0  0  0  0
    0.1225    4.2779    0.0000 H   0  0  0  0  0  0  0  0  0  0  0  0
   -1.4825    3.3513    0.0000 H   0  0  0  0  0  0  0  0  0  0  0  0
   -0.9475    4.2780    0.0000 H   0  0  0  0  0  0  0  0  0  0  0  0
    1.0700    1.2079    0.0000 H   0  0  0  0  0  0  0  0  0  0  0  0
    0.5350    0.2813    0.0000 H   0  0  0  0  0  0  0  0  0  0  0  0
    0.1225   -0.4332    0.0000 H   0  0  0  0  0  0  0  0  0  0  0  0
   -0.9475   -0.4332    0.0000 H   0  0  0  0  0  0  0  0  0  0  0  0
   -2.7200    1.2079    0.0000 H   0  0  0  0  0  0  0  0  0  0  0  0
   -2.1850    2.1345    0.0000 H   0  0  0  0  0  0  0  0  0  0  0  0
   -1.7725    2.8490    0.0000 H   0  0  0  0  0  0  0  0  0  0  0  0
   -0.7025    2.8490    0.0000 H   0  0  0  0  0  0  0  0  0  0  0  0
   -0.7025   -0.0088    0.0000 H   0  0  0  0  0  0  0  0  0  0  0  0
   -1.1150   -2.5766    0.0000 H   0  0  0  0  0  0  0  0  0  0  0  0
   -2.1850   -2.5766    0.0000 H   0  0  0  0  0  0  0  0  0  0  0  0
   -2.3715   -3.2582    0.0000 H   0  0  0  0  0  0  0  0  0  0  0  0
   -4.2285   -3.2582    0.0000 H   0  0  0  0  0  0  0  0  0  0  0  0
   -5.1570   -1.6500    0.0000 H   0  0  0  0  0  0  0  0  0  0  0  0
   -2.3715   -0.0418    0.0000 H   0  0  0  0  0  0  0  0  0  0  0  0
   -5.4423    0.6315    0.0000 H   0  0  0  0  0  0  0  0  0  0  0  0
   -5.4423   -1.0737    0.0000 H   0  0  0  0  0  0  0  0  0  0  0  0
   -2.7280    0.4934    0.0000 H   0  0  0  0  0  0  0  0  0  0  0  0
    0.0975   -0.0522    0.0000 H   0  0  0  0  0  0  0  0  0  0  0  0
   -0.1792    0.1035    0.0000 H   0  0  0  0  0  0  0  0  0  0  0  0
    1.4289    1.0320    0.0000 H   0  0  0  0  0  0  0  0  0  0  0  0
    2.8579    1.0320    0.0000 H   0  0  0  0  0  0  0  0  0  0  0  0
    4.4661    0.1035    0.0000 H   0  0  0  0  0  0  0  0  0  0  0  0
    4.4661   -1.7535    0.0000 H   0  0  0  0  0  0  0  0  0  0  0  0
    2.8579   -2.6820    0.0000 H   0  0  0  0  0  0  0  0  0  0  0  0
    1.4289   -2.6820    0.0000 H   0  0  0  0  0  0  0  0  0  0  0  0
  1  2  1  0  0  0  0
  1 37  1  0  0  0  0
  1 38  1  0  0  0  0
  1 39  1  0  0  0  0
  2  3  2  0  0  0  0
  2  4  1  0  0  0  0
  4  5  1  0  0  0  0
  4  9  1  0  0  0  0
  5  6  1  0  0  0  0
  5 40  1  0  0  0  0
  5 41  1  0  0  0  0
  6  7  1  0  0  0  0
  6 42  1  0  0  0  0
  6 43  1  0  0  0  0
  7  8  1  0  0  0  0
  7 10  1  0  0  0  0
  8  9  1  0  0  0  0
  8 44  1  0  0  0  0
  8 45  1  0  0  0  0
  9 46  1  0  0  0  0
  9 47  1  0  0  0  0
 10 11  2  0  0  0  0
 10 12  1  0  0  0  0
 12 13  1  0  0  0  0
 12 23  1  0  0  0  0
 12 48  1  6  0  0  0
 13 14  1  0  0  0  0
 13 49  1  0  0  0  0
 13 50  1  0  0  0  0
 14 15  2  0  0  0  0
 14 19  1  0  0  0  0
 15 16  1  0  0  0  0
 15 51  1  0  0  0  0
 16 17  2  0  0  0  0
 16 52  1  0  0  0  0
 17 18  1  0  0  0  0
 17 53  1  0  0  0  0
 18 19  2  0  0  0  0
 18 20  1  0  0  0  0
 19 54  1  0  0  0  0
 20 21  1  0  0  0  0
 20 22  2  0  0  0  0
 21 55  1  0  0  0  0
 21 56  1  0  0  0  0
 22 57  1  0  0  0  0
 23 24  1  0  0  0  0
 23 58  1  0  0  0  0
 24 25  2  0  0  0  0
 24 26  2  0  0  0  0
 24 27  1  0  0  0  0
 27 28  2  0  0  0  0
 27 36  1  0  0  0  0
 28 29  1  0  0  0  0
 28 59  1  0  0  0  0
 29 30  2  0  0  0  0
 29 60  1  0  0  0  0
 30 31  1  0  0  0  0
 30 35  1  0  0  0  0
 31 32  2  0  0  0  0
 31 61  1  0  0  0  0
 32 33  1  0  0  0  0
 32 62  1  0  0  0  0
 33 34  2  0  0  0  0
 33 63  1  0  0  0  0
 34 35  1  0  0  0  0
 34 64  1  0  0  0  0
 35 36  2  0  0  0  0
 36 65  1  0  0  0  0
M  END
>  <DRUGBANK_ID>
DB04125

>  <SECONDARY_ACCESSION_NUMBERS>
EXPT01411

>  <COMMON_NAME>
N-Alpha-(2-Naphthylsulfonyl)-N(3-Amidino-L-Phenylalaninyl)-4-Acetyl-Piperazine

$$$$
