
 OpenBabel10282417072D

 67 72  0  0  0  0  0  0  0  0999 V2000
    5.3340    2.8875    0.0000 C   0  0  0  0  0  0  0  0  0  0  0  0
    4.6196    3.3000    0.0000 N   0  0  0  0  0  0  0  0  0  0  0  0
    4.6196    4.1250    0.0000 C   0  0  0  0  0  0  0  0  0  0  0  0
    3.9051    2.8875    0.0000 C   0  0  0  0  0  0  0  0  0  0  0  0
    3.1906    3.3000    0.0000 C   0  0  0  0  0  0  0  0  0  0  0  0
    2.4762    2.8875    0.0000 N   0  0  0  0  0  0  0  0  0  0  0  0
    1.7617    3.3000    0.0000 C   0  0  0  0  0  0  0  0  0  0  0  0
    1.0472    2.8875    0.0000 C   0  0  0  0  0  0  0  0  0  0  0  0
    1.0472    2.0625    0.0000 C   0  0  0  0  0  0  0  0  0  0  0  0
    1.7617    1.6500    0.0000 C   0  0  0  0  0  0  0  0  0  0  0  0
    2.4762    2.0625    0.0000 C   0  0  0  0  0  0  0  0  0  0  0  0
    1.7617    0.8250    0.0000 C   0  0  0  0  0  0  0  0  0  0  0  0
    1.0472    0.4125    0.0000 C   0  0  0  0  0  0  0  0  0  0  0  0
    0.3328    0.8250    0.0000 C   0  0  0  0  0  0  0  0  0  0  0  0
   -0.3816    0.4125    0.0000 N   0  0  0  0  0  0  0  0  0  0  0  0
   -0.3816   -0.4125    0.0000 C   0  0  0  0  0  0  0  0  0  0  0  0
    0.3328   -0.8250    0.0000 N   0  0  0  0  0  0  0  0  0  0  0  0
    0.3328   -1.6500    0.0000 C   0  0  0  0  0  0  0  0  0  0  0  0
   -0.3816   -2.0625    0.0000 C   0  0  0  0  0  0  0  0  0  0  0  0
   -0.3816   -2.8875    0.0000 F   0  0  0  0  0  0  0  0  0  0  0  0
   -1.0961   -1.6500    0.0000 C   0  0  0  0  0  0  0  0  0  0  0  0
   -1.0961   -0.8250    0.0000 N   0  0  0  0  0  0  0  0  0  0  0  0
   -1.8106   -2.0625    0.0000 C   0  0  0  0  0  0  0  0  0  0  0  0
   -1.8106   -2.8875    0.0000 C   0  0  0  0  0  0  0  0  0  0  0  0
   -2.5250   -3.3000    0.0000 C   0  0  0  0  0  0  0  0  0  0  0  0
   -2.5250   -4.1250    0.0000 F   0  0  0  0  0  0  0  0  0  0  0  0
   -3.2395   -2.8875    0.0000 C   0  0  0  0  0  0  0  0  0  0  0  0
   -4.0241   -3.1424    0.0000 N   0  0  0  0  0  0  0  0  0  0  0  0
   -4.5090   -2.4750    0.0000 C   0  0  0  0  0  0  0  0  0  0  0  0
   -5.3340   -2.4750    0.0000 C   0  0  0  0  0  0  0  0  0  0  0  0
   -4.0241   -1.8075    0.0000 N   0  0  0  0  0  0  0  0  0  0  0  0
   -4.2790   -1.0229    0.0000 C   0  0  0  0  0  0  0  0  0  0  0  0
   -4.8922   -0.4708    0.0000 C   0  0  0  0  0  0  0  0  0  0  0  0
   -4.1075   -0.2159    0.0000 C   0  0  0  0  0  0  0  0  0  0  0  0
   -3.2395   -2.0625    0.0000 C   0  0  0  0  0  0  0  0  0  0  0  0
   -2.5250   -1.6500    0.0000 C   0  0  0  0  0  0  0  0  0  0  0  0
    0.3328    1.6500    0.0000 N   0  0  0  0  0  0  0  0  0  0  0  0
    5.3340    1.8175    0.0000 H   0  0  0  0  0  0  0  0  0  0  0  0
    6.2607    3.4225    0.0000 H   0  0  0  0  0  0  0  0  0  0  0  0
    6.2606    2.3525    0.0000 H   0  0  0  0  0  0  0  0  0  0  0  0
    5.5462    4.6600    0.0000 H   0  0  0  0  0  0  0  0  0  0  0  0
    3.6930    4.6600    0.0000 H   0  0  0  0  0  0  0  0  0  0  0  0
    4.6196    5.1950    0.0000 H   0  0  0  0  0  0  0  0  0  0  0  0
    3.9051    1.8175    0.0000 H   0  0  0  0  0  0  0  0  0  0  0  0
    2.9785    2.3525    0.0000 H   0  0  0  0  0  0  0  0  0  0  0  0
    3.1906    4.3700    0.0000 H   0  0  0  0  0  0  0  0  0  0  0  0
    2.2639    3.8350    0.0000 H   0  0  0  0  0  0  0  0  0  0  0  0
    1.7617    4.3700    0.0000 H   0  0  0  0  0  0  0  0  0  0  0  0
    0.8351    3.8350    0.0000 H   0  0  0  0  0  0  0  0  0  0  0  0
    0.1206    3.4225    0.0000 H   0  0  0  0  0  0  0  0  0  0  0  0
    0.1206    2.3525    0.0000 H   0  0  0  0  0  0  0  0  0  0  0  0
    3.4028    1.5275    0.0000 H   0  0  0  0  0  0  0  0  0  0  0  0
    3.4028    2.5975    0.0000 H   0  0  0  0  0  0  0  0  0  0  0  0
    2.6554    0.3090    0.0000 H   0  0  0  0  0  0  0  0  0  0  0  0
    1.0472   -0.6195    0.0000 H   0  0  0  0  0  0  0  0  0  0  0  0
   -1.2342    0.9047    0.0000 H   0  0  0  0  0  0  0  0  0  0  0  0
    1.2265   -2.1660    0.0000 H   0  0  0  0  0  0  0  0  0  0  0  0
   -0.9169   -3.4035    0.0000 H   0  0  0  0  0  0  0  0  0  0  0  0
   -5.8690   -1.5484    0.0000 H   0  0  0  0  0  0  0  0  0  0  0  0
   -5.8690   -3.4016    0.0000 H   0  0  0  0  0  0  0  0  0  0  0  0
   -6.4040   -2.4750    0.0000 H   0  0  0  0  0  0  0  0  0  0  0  0
   -4.6097   -0.0053    0.0000 H   0  0  0  0  0  0  0  0  0  0  0  0
   -5.9388   -0.2483    0.0000 H   0  0  0  0  0  0  0  0  0  0  0  0
   -4.9481    0.5977    0.0000 H   0  0  0  0  0  0  0  0  0  0  0  0
   -3.3915    0.5793    0.0000 H   0  0  0  0  0  0  0  0  0  0  0  0
   -3.1541   -0.7017    0.0000 H   0  0  0  0  0  0  0  0  0  0  0  0
   -2.5250   -0.6180    0.0000 H   0  0  0  0  0  0  0  0  0  0  0  0
  1  2  1  0  0  0  0
  1 38  1  0  0  0  0
  1 39  1  0  0  0  0
  1 40  1  0  0  0  0
  2  3  1  0  0  0  0
  2  4  1  0  0  0  0
  3 41  1  0  0  0  0
  3 42  1  0  0  0  0
  3 43  1  0  0  0  0
  4  5  1  0  0  0  0
  4 44  1  0  0  0  0
  4 45  1  0  0  0  0
  5  6  1  0  0  0  0
  5 46  1  0  0  0  0
  5 47  1  0  0  0  0
  6  7  1  0  0  0  0
  6 11  1  0  0  0  0
  7  8  1  0  0  0  0
  7 48  1  0  0  0  0
  7 49  1  0  0  0  0
  8  9  1  0  0  0  0
  8 50  1  0  0  0  0
  8 51  1  0  0  0  0
  9 10  2  0  0  0  0
  9 37  1  0  0  0  0
 10 11  1  0  0  0  0
 10 12  1  0  0  0  0
 11 52  1  0  0  0  0
 11 53  1  0  0  0  0
 12 13  2  0  0  0  0
 12 54  1  0  0  0  0
 13 14  1  0  0  0  0
 13 55  1  0  0  0  0
 14 15  1  0  0  0  0
 14 37  2  0  0  0  0
 15 16  1  0  0  0  0
 15 56  1  0  0  0  0
 16 17  2  0  0  0  0
 16 22  1  0  0  0  0
 17 18  1  0  0  0  0
 18 19  2  0  0  0  0
 18 57  1  0  0  0  0
 19 20  1  0  0  0  0
 19 21  1  0  0  0  0
 21 22  2  0  0  0  0
 21 23  1  0  0  0  0
 23 24  2  0  0  0  0
 23 36  1  0  0  0  0
 24 25  1  0  0  0  0
 24 58  1  0  0  0  0
 25 26  1  0  0  0  0
 25 27  2  0  0  0  0
 27 28  1  0  0  0  0
 27 35  1  0  0  0  0
 28 29  2  0  0  0  0
 29 30  1  0  0  0  0
 29 31  1  0  0  0  0
 30 59  1  0  0  0  0
 30 60  1  0  0  0  0
 30 61  1  0  0  0  0
 31 32  1  0  0  0  0
 31 35  1  0  0  0  0
 32 33  1  0  0  0  0
 32 34  1  0  0  0  0
 32 62  1  0  0  0  0
 33 34  1  0  0  0  0
 33 63  1  0  0  0  0
 33 64  1  0  0  0  0
 34 65  1  0  0  0  0
 34 66  1  0  0  0  0
 35 36  2  0  0  0  0
 36 67  1  0  0  0  0
M  END
>  <DRUGBANK_ID>
DB18299

>  <COMMON_NAME>
N-(4-(1-cyclopropyl-4-fluoro-2-methyl-1H-benzo(d)imidazol-6-yl)-5-fluoropyrimidin-2-yl)-6-(2-(dimethylamino)ethyl)-5,6,7,8-tetrahydro-l,6-naphthyridin-2-amine

>  <CAS_NUMBER>
2102887-41-0

>  <UNII>
484EDA7KEM

$$$$
