
 OpenBabel10282417072D

 48 49  0  0  0  0  0  0  0  0999 V2000
    3.2146   -1.6494    0.0000 N   0  0  0  0  0  0  0  0  0  0  0  0
    3.2146   -0.8238    0.0000 C   0  0  0  0  0  0  0  0  0  0  0  0
    2.5002   -0.4112    0.0000 N   0  0  0  0  0  0  0  0  0  0  0  0
    3.9290   -0.4112    0.0000 N   0  0  0  0  0  0  0  0  0  0  0  0
    4.6401    1.6526    0.0000 C   0  0  0  0  0  0  0  0  0  0  0  0
    4.6401    0.8270    0.0000 C   0  0  0  0  0  0  0  0  0  0  0  0
    3.9290    0.4143    0.0000 C   0  0  0  0  0  0  0  0  0  0  0  0
    3.2146    0.8270    0.0000 C   0  0  0  0  0  0  0  0  0  0  0  0
    3.2146    1.6526    0.0000 C   0  0  0  0  0  0  0  0  0  0  0  0
    3.9290    2.0621    0.0000 N   0  0  0  0  0  0  0  0  0  0  0  0
    1.7859   -0.8238    0.0000 C   0  0  0  0  0  0  0  0  0  0  0  0
    1.0715   -1.2366    0.0000 N   0  0  0  0  0  0  0  0  0  0  0  0
    2.5002   -2.0621    0.0000 C   0  0  0  0  0  0  0  0  0  0  0  0
    1.7859   -1.6494    0.0000 C   0  0  0  0  0  0  0  0  0  0  0  0
    1.0715   -2.0621    0.0000 C   0  0  0  0  0  0  0  0  0  0  0  0
    0.3571   -1.6494    0.0000 C   0  0  0  0  0  0  0  0  0  0  0  0
   -0.3571   -2.0621    0.0000 C   0  0  0  0  0  0  0  0  0  0  0  0
   -1.0715   -1.6494    0.0000 C   0  0  0  0  0  0  0  0  0  0  0  0
   -1.7859   -2.0621    0.0000 O   0  0  0  0  0  0  0  0  0  0  0  0
   -2.5002   -1.6494    0.0000 C   0  0  0  0  0  0  0  0  0  0  0  0
   -3.2146   -2.0621    0.0000 C   0  0  0  0  0  0  0  0  0  0  0  0
   -3.9257   -1.6494    0.0000 C   0  0  0  0  0  0  0  0  0  0  0  0
   -3.9257   -0.8238    0.0000 C   0  0  0  0  0  0  0  0  0  0  0  0
   -3.2146   -0.4112    0.0000 C   0  0  0  0  0  0  0  0  0  0  0  0
   -2.5002   -0.8238    0.0000 C   0  0  0  0  0  0  0  0  0  0  0  0
   -4.6401   -0.4112    0.0000 Cl  0  0  0  0  0  0  0  0  0  0  0  0
    4.0673   -2.1415    0.0000 H   0  0  0  0  0  0  0  0  0  0  0  0
    2.5002    0.5733    0.0000 H   0  0  0  0  0  0  0  0  0  0  0  0
    5.5336    2.1691    0.0000 H   0  0  0  0  0  0  0  0  0  0  0  0
    5.5344    0.3120    0.0000 H   0  0  0  0  0  0  0  0  0  0  0  0
    2.3208    0.3111    0.0000 H   0  0  0  0  0  0  0  0  0  0  0  0
    2.3217    2.1700    0.0000 H   0  0  0  0  0  0  0  0  0  0  0  0
    2.5002   -3.1321    0.0000 H   0  0  0  0  0  0  0  0  0  0  0  0
    3.4269   -2.5970    0.0000 H   0  0  0  0  0  0  0  0  0  0  0  0
    1.7859   -0.5794    0.0000 H   0  0  0  0  0  0  0  0  0  0  0  0
    0.8592   -1.1145    0.0000 H   0  0  0  0  0  0  0  0  0  0  0  0
    1.0715   -3.1321    0.0000 H   0  0  0  0  0  0  0  0  0  0  0  0
    0.1448   -2.5970    0.0000 H   0  0  0  0  0  0  0  0  0  0  0  0
    0.3570   -0.5794    0.0000 H   0  0  0  0  0  0  0  0  0  0  0  0
   -0.5697   -1.1146    0.0000 H   0  0  0  0  0  0  0  0  0  0  0  0
   -0.3570   -3.1321    0.0000 H   0  0  0  0  0  0  0  0  0  0  0  0
   -1.2838   -2.5970    0.0000 H   0  0  0  0  0  0  0  0  0  0  0  0
   -1.0715   -0.5794    0.0000 H   0  0  0  0  0  0  0  0  0  0  0  0
   -1.9982   -1.1145    0.0000 H   0  0  0  0  0  0  0  0  0  0  0  0
   -3.2156   -3.0941    0.0000 H   0  0  0  0  0  0  0  0  0  0  0  0
   -4.8200   -2.1644    0.0000 H   0  0  0  0  0  0  0  0  0  0  0  0
   -3.2156    0.6208    0.0000 H   0  0  0  0  0  0  0  0  0  0  0  0
   -1.6064   -0.3079    0.0000 H   0  0  0  0  0  0  0  0  0  0  0  0
  1  2  1  0  0  0  0
  1 13  1  0  0  0  0
  1 27  1  0  0  0  0
  2  3  1  0  0  0  0
  2  4  2  0  0  0  0
  3 11  1  0  0  0  0
  3 28  1  0  0  0  0
  4  7  1  0  0  0  0
  5  6  2  0  0  0  0
  5 10  1  0  0  0  0
  5 29  1  0  0  0  0
  6  7  1  0  0  0  0
  6 30  1  0  0  0  0
  7  8  2  0  0  0  0
  8  9  1  0  0  0  0
  8 31  1  0  0  0  0
  9 10  2  0  0  0  0
  9 32  1  0  0  0  0
 11 12  3  0  0  0  0
 13 14  1  0  0  0  0
 13 33  1  0  0  0  0
 13 34  1  0  0  0  0
 14 15  1  0  0  0  0
 14 35  1  0  0  0  0
 14 36  1  0  0  0  0
 15 16  1  0  0  0  0
 15 37  1  0  0  0  0
 15 38  1  0  0  0  0
 16 17  1  0  0  0  0
 16 39  1  0  0  0  0
 16 40  1  0  0  0  0
 17 18  1  0  0  0  0
 17 41  1  0  0  0  0
 17 42  1  0  0  0  0
 18 19  1  0  0  0  0
 18 43  1  0  0  0  0
 18 44  1  0  0  0  0
 19 20  1  0  0  0  0
 20 21  1  0  0  0  0
 20 25  2  0  0  0  0
 21 22  2  0  0  0  0
 21 45  1  0  0  0  0
 22 23  1  0  0  0  0
 22 46  1  0  0  0  0
 23 24  2  0  0  0  0
 23 26  1  0  0  0  0
 24 25  1  0  0  0  0
 24 47  1  0  0  0  0
 25 48  1  0  0  0  0
M  END
>  <DRUGBANK_ID>
DB12980

>  <COMMON_NAME>
CHS-828

>  <CAS_NUMBER>
200484-11-3

>  <UNII>
8LAP87DNSZ

$$$$
