
 OpenBabel10282417072D

 59 62  0  0  1  0  0  0  0  0999 V2000
   11.0134  -10.3587    0.0000 C   0  0  0  0  0  0  0  0  0  0  0  0
   11.0134  -11.1952    0.0000 N   0  0  0  0  0  0  0  0  0  0  0  0
   11.7663  -11.6135    0.0000 C   0  0  0  0  0  0  0  0  0  0  0  0
   12.4774  -11.1952    0.0000 C   0  0  0  0  0  0  0  0  0  0  0  0
   12.4774  -10.3587    0.0000 C   0  0  0  0  0  0  0  0  0  0  0  0
   11.7663   -9.9404    0.0000 N   0  0  0  0  0  0  0  0  0  0  0  0
   13.1885  -11.6135    0.0000 C   0  0  0  0  0  0  0  0  0  0  0  0
   13.8995  -11.1952    0.0000 C   0  0  0  0  0  0  0  0  0  0  0  0
   13.8995  -10.3587    0.0000 C   0  0  0  0  0  0  0  0  0  0  0  0
   13.1885   -9.9404    0.0000 C   0  0  0  0  0  0  0  0  0  0  0  0
   11.7663  -12.4500    0.0000 N   0  0  0  0  0  0  0  0  0  0  0  0
   14.6524  -11.8226    0.0000 N   0  0  0  0  0  0  0  0  0  0  0  0
   15.3635  -11.4043    0.0000 C   0  0  0  0  0  0  0  0  0  0  0  0
   16.0745  -11.8226    0.0000 C   0  0  0  0  0  0  0  0  0  0  0  0
   16.8274  -11.4043    0.0000 C   0  0  0  0  0  0  0  0  0  0  0  0
   12.4774  -12.8683    0.0000 C   0  0  0  0  0  0  0  0  0  0  0  0
   12.4774  -13.6630    0.0000 C   0  0  0  0  0  0  0  0  0  0  0  0
   13.1885  -14.0813    0.0000 C   0  0  0  0  0  0  0  0  0  0  0  0
   13.8995  -13.6630    0.0000 C   0  0  0  0  0  0  0  0  0  0  0  0
   13.8995  -12.8683    0.0000 C   0  0  0  0  0  0  0  0  0  0  0  0
   13.1885  -12.4500    0.0000 C   0  0  0  0  0  0  0  0  0  0  0  0
   14.6524  -14.0813    0.0000 F   0  0  0  0  0  0  0  0  0  0  0  0
   13.1885  -14.9597    0.0000 Cl  0  0  0  0  0  0  0  0  0  0  0  0
   15.3635  -10.5678    0.0000 O   0  0  0  0  0  0  0  0  0  0  0  0
   17.5449  -11.8345    0.0000 C   0  0  0  0  0  0  0  0  0  0  0  0
   18.2762  -11.4283    0.0000 N   0  0  0  0  0  0  0  0  0  0  0  0
   19.0128  -11.8696    0.0000 C   0  0  0  0  0  0  0  0  0  0  0  0
   18.2900  -10.6097    0.0000 C   0  0  0  0  0  0  0  0  0  0  0  0
   14.4910   -9.7672    0.0000 O   0  0  0  0  0  0  0  0  0  0  0  0
   15.3276   -9.7672    0.0000 C   0  0  1  0  0  0  0  0  0  0  0  0
   15.8201  -10.4449    0.0000 C   0  0  0  0  0  0  0  0  0  0  0  0
   16.6169  -10.1860    0.0000 C   0  0  0  0  0  0  0  0  0  0  0  0
   16.6169   -9.3482    0.0000 O   0  0  0  0  0  0  0  0  0  0  0  0
   15.8201   -9.0893    0.0000 C   0  0  0  0  0  0  0  0  0  0  0  0
   10.1239   -9.8354    0.0000 H   0  0  0  0  0  0  0  0  0  0  0  0
   13.1885  -12.6455    0.0000 H   0  0  0  0  0  0  0  0  0  0  0  0
   13.1885   -8.9084    0.0000 H   0  0  0  0  0  0  0  0  0  0  0  0
   10.9117  -12.9388    0.0000 H   0  0  0  0  0  0  0  0  0  0  0  0
   14.5723  -12.8038    0.0000 H   0  0  0  0  0  0  0  0  0  0  0  0
   16.0618  -12.8545    0.0000 H   0  0  0  0  0  0  0  0  0  0  0  0
   16.8444  -10.3724    0.0000 H   0  0  0  0  0  0  0  0  0  0  0  0
   11.5816  -14.1754    0.0000 H   0  0  0  0  0  0  0  0  0  0  0  0
   14.7953  -12.3560    0.0000 H   0  0  0  0  0  0  0  0  0  0  0  0
   13.1885  -11.4180    0.0000 H   0  0  0  0  0  0  0  0  0  0  0  0
   17.5272  -12.9044    0.0000 H   0  0  0  0  0  0  0  0  0  0  0  0
   18.4626  -12.3848    0.0000 H   0  0  0  0  0  0  0  0  0  0  0  0
   18.9955  -12.9395    0.0000 H   0  0  0  0  0  0  0  0  0  0  0  0
   19.9480  -11.3496    0.0000 H   0  0  0  0  0  0  0  0  0  0  0  0
   19.9307  -12.4195    0.0000 H   0  0  0  0  0  0  0  0  0  0  0  0
   19.2255  -10.0904    0.0000 H   0  0  0  0  0  0  0  0  0  0  0  0
   17.3725  -10.0592    0.0000 H   0  0  0  0  0  0  0  0  0  0  0  0
   18.3080   -9.5399    0.0000 H   0  0  0  0  0  0  0  0  0  0  0  0
   14.8419  -10.7206    0.0000 H   0  0  0  0  0  0  0  0  0  0  0  0
   15.4895  -11.4626    0.0000 H   0  0  0  0  0  0  0  0  0  0  0  0
   16.5767  -11.2015    0.0000 H   0  0  0  0  0  0  0  0  0  0  0  0
   17.4825  -10.8149    0.0000 H   0  0  0  0  0  0  0  0  0  0  0  0
   17.5703   -9.7002    0.0000 H   0  0  0  0  0  0  0  0  0  0  0  0
   15.4894   -8.0717    0.0000 H   0  0  0  0  0  0  0  0  0  0  0  0
   14.7633   -8.9219    0.0000 H   0  0  0  0  0  0  0  0  0  0  0  0
  1  2  1  0  0  0  0
  1  6  2  0  0  0  0
  1 35  1  0  0  0  0
  2  3  2  0  0  0  0
  3  4  1  0  0  0  0
  3 11  1  0  0  0  0
  4  5  1  0  0  0  0
  4  7  2  0  0  0  0
  5  6  1  0  0  0  0
  5 10  2  0  0  0  0
  7  8  1  0  0  0  0
  7 36  1  0  0  0  0
  8  9  2  0  0  0  0
  8 12  1  0  0  0  0
  9 10  1  0  0  0  0
  9 29  1  0  0  0  0
 10 37  1  0  0  0  0
 11 16  1  0  0  0  0
 11 38  1  0  0  0  0
 12 13  1  0  0  0  0
 12 39  1  0  0  0  0
 13 14  1  0  0  0  0
 13 24  2  0  0  0  0
 14 15  2  0  0  0  0
 14 40  1  0  0  0  0
 15 25  1  0  0  0  0
 15 41  1  0  0  0  0
 16 17  2  0  0  0  0
 16 21  1  0  0  0  0
 17 18  1  0  0  0  0
 17 42  1  0  0  0  0
 18 19  2  0  0  0  0
 18 23  1  0  0  0  0
 19 20  1  0  0  0  0
 19 22  1  0  0  0  0
 20 21  2  0  0  0  0
 20 43  1  0  0  0  0
 21 44  1  0  0  0  0
 25 26  1  0  0  0  0
 25 45  1  0  0  0  0
 25 46  1  0  0  0  0
 26 27  1  0  0  0  0
 26 28  1  0  0  0  0
 27 47  1  0  0  0  0
 27 48  1  0  0  0  0
 27 49  1  0  0  0  0
 28 50  1  0  0  0  0
 28 51  1  0  0  0  0
 28 52  1  0  0  0  0
 30 29  1  0  0  0  0
 30 31  1  0  0  0  0
 30 34  1  0  0  0  0
 30 53  1  1  0  0  0
 31 32  1  0  0  0  0
 31 54  1  0  0  0  0
 31 55  1  0  0  0  0
 32 33  1  0  0  0  0
 32 56  1  0  0  0  0
 32 57  1  0  0  0  0
 33 34  1  0  0  0  0
 34 58  1  0  0  0  0
 34 59  1  0  0  0  0
M  END
>  <DRUGBANK_ID>
DB08916

>  <COMMON_NAME>
Afatinib

>  <CAS_NUMBER>
850140-72-6

>  <UNII>
41UD74L59M

>  <SYNONYMS>
Afatinib; Afatinibum

$$$$
