
 OpenBabel10282417072D

 56 57  0  0  0  0  0  0  0  0999 V2000
   -0.4956    7.4446    0.0000 C   0  0  0  0  0  0  0  0  0  0  0  0
   -1.2101    3.7321    0.0000 C   0  0  0  0  0  0  0  0  0  0  0  0
    0.9333    6.6196    0.0000 C   0  0  0  0  0  0  0  0  0  0  0  0
   -1.2101    5.3821    0.0000 C   0  0  0  0  0  0  0  0  0  0  0  0
   -0.4956    6.6196    0.0000 C   0  0  0  0  0  0  0  0  0  0  0  0
   -0.4956    4.1446    0.0000 C   0  0  0  0  0  0  0  0  0  0  0  0
    0.8509    0.1936    0.0000 C   0  0  0  0  0  0  0  0  0  0  0  0
    1.6355   -0.0613    0.0000 C   0  0  0  0  0  0  0  0  0  0  0  0
    2.9535    3.4546    0.0000 C   0  0  0  0  0  0  0  0  0  0  0  0
    0.6794    1.0006    0.0000 C   0  0  0  0  0  0  0  0  0  0  0  0
    2.2486    0.4907    0.0000 C   0  0  0  0  0  0  0  0  0  0  0  0
    2.4015    4.0677    0.0000 C   0  0  0  0  0  0  0  0  0  0  0  0
    2.5410    2.7401    0.0000 C   0  0  0  0  0  0  0  0  0  0  0  0
    1.1209    2.3596    0.0000 C   0  0  0  0  0  0  0  0  0  0  0  0
    0.9333    4.9696    0.0000 C   0  0  0  0  0  0  0  0  0  0  0  0
    0.2188    6.2071    0.0000 C   0  0  3  0  0  0  0  0  0  0  0  0
   -0.4956    4.9696    0.0000 C   0  0  3  0  0  0  0  0  0  0  0  0
    1.2924    1.5526    0.0000 C   0  0  0  0  0  0  0  0  0  0  0  0
    2.0771    1.2977    0.0000 C   0  0  0  0  0  0  0  0  0  0  0  0
    1.6478    3.7321    0.0000 C   0  0  0  0  0  0  0  0  0  0  0  0
    0.9333    4.1446    0.0000 C   0  0  3  0  0  0  0  0  0  0  0  0
    2.6902    1.8497    0.0000 Cl  0  0  0  0  0  0  0  0  0  0  0  0
    1.7340    2.9116    0.0000 N   0  0  0  0  0  0  0  0  0  0  0  0
    0.2188    5.3821    0.0000 N   0  0  0  0  0  0  0  0  0  0  0  0
    0.2188    3.7321    0.0000 O   0  0  0  0  0  0  0  0  0  0  0  0
    0.4310    7.9796    0.0000 H   0  0  0  0  0  0  0  0  0  0  0  0
   -1.4222    7.9796    0.0000 H   0  0  0  0  0  0  0  0  0  0  0  0
   -0.4956    8.5146    0.0000 H   0  0  0  0  0  0  0  0  0  0  0  0
   -2.1367    4.2671    0.0000 H   0  0  0  0  0  0  0  0  0  0  0  0
   -1.2101    2.6621    0.0000 H   0  0  0  0  0  0  0  0  0  0  0  0
   -2.1368    3.1971    0.0000 H   0  0  0  0  0  0  0  0  0  0  0  0
    1.8599    6.0846    0.0000 H   0  0  0  0  0  0  0  0  0  0  0  0
    0.9333    7.6896    0.0000 H   0  0  0  0  0  0  0  0  0  0  0  0
    1.8600    7.1546    0.0000 H   0  0  0  0  0  0  0  0  0  0  0  0
   -1.2101    6.4521    0.0000 H   0  0  0  0  0  0  0  0  0  0  0  0
   -2.1367    4.8471    0.0000 H   0  0  0  0  0  0  0  0  0  0  0  0
   -2.1368    5.9171    0.0000 H   0  0  0  0  0  0  0  0  0  0  0  0
   -1.4223    6.0846    0.0000 H   0  0  0  0  0  0  0  0  0  0  0  0
   -0.4956    5.5496    0.0000 H   0  0  0  0  0  0  0  0  0  0  0  0
    0.4310    3.6096    0.0000 H   0  0  0  0  0  0  0  0  0  0  0  0
    0.4310    4.6796    0.0000 H   0  0  0  0  0  0  0  0  0  0  0  0
    0.0840   -0.4969    0.0000 H   0  0  0  0  0  0  0  0  0  0  0  0
    1.8501   -1.0707    0.0000 H   0  0  0  0  0  0  0  0  0  0  0  0
    3.9798    3.5625    0.0000 H   0  0  0  0  0  0  0  0  0  0  0  0
   -0.3021    1.3195    0.0000 H   0  0  0  0  0  0  0  0  0  0  0  0
    3.2301    0.1718    0.0000 H   0  0  0  0  0  0  0  0  0  0  0  0
    2.6161    5.0771    0.0000 H   0  0  0  0  0  0  0  0  0  0  0  0
    2.9608    1.7973    0.0000 H   0  0  0  0  0  0  0  0  0  0  0  0
    0.1033    2.6903    0.0000 H   0  0  0  0  0  0  0  0  0  0  0  0
    0.8985    3.4062    0.0000 H   0  0  0  0  0  0  0  0  0  0  0  0
    1.8599    5.5046    0.0000 H   0  0  0  0  0  0  0  0  0  0  0  0
    0.9333    6.0396    0.0000 H   0  0  0  0  0  0  0  0  0  0  0  0
    0.2188    7.2771    0.0000 H   0  0  0  0  0  0  0  0  0  0  0  0
   -1.4222    4.4346    0.0000 H   0  0  0  0  0  0  0  0  0  0  0  0
    1.8599    4.6796    0.0000 H   0  0  0  0  0  0  0  0  0  0  0  0
   -0.6212    4.2171    0.0000 H   0  0  0  0  0  0  0  0  0  0  0  0
  1 26  1  0  0  0  0
  1 27  1  0  0  0  0
  1 28  1  0  0  0  0
  2 29  1  0  0  0  0
  2 30  1  0  0  0  0
  2 31  1  0  0  0  0
  3 32  1  0  0  0  0
  3 33  1  0  0  0  0
  3 34  1  0  0  0  0
  4 35  1  0  0  0  0
  4 36  1  0  0  0  0
  4 37  1  0  0  0  0
  5  1  1  0  0  0  0
  5 38  1  0  0  0  0
  5 39  1  0  0  0  0
  6  2  1  0  0  0  0
  6 40  1  0  0  0  0
  6 41  1  0  0  0  0
  7 42  1  0  0  0  0
  8  7  2  0  0  0  0
  8 43  1  0  0  0  0
  9 44  1  0  0  0  0
 10  7  1  0  0  0  0
 10 45  1  0  0  0  0
 11  8  1  0  0  0  0
 11 46  1  0  0  0  0
 12  9  1  0  0  0  0
 12 47  1  0  0  0  0
 13  9  2  0  0  0  0
 13 48  1  0  0  0  0
 14 49  1  0  0  0  0
 14 50  1  0  0  0  0
 15 51  1  0  0  0  0
 15 52  1  0  0  0  0
 16  3  1  0  0  0  0
 16  5  1  0  0  0  0
 16 53  1  0  0  0  0
 17  4  1  0  0  0  0
 17  6  1  0  0  0  0
 17 54  1  0  0  0  0
 18 10  2  0  0  0  0
 18 14  1  0  0  0  0
 19 11  2  0  0  0  0
 19 18  1  0  0  0  0
 20 12  2  0  0  0  0
 21 15  1  0  0  0  0
 21 20  1  0  0  0  0
 21 55  1  0  0  0  0
 22 19  1  0  0  0  0
 23 13  1  0  0  0  0
 23 14  1  0  0  0  0
 23 20  1  0  0  0  0
 24 15  1  0  0  0  0
 24 16  1  0  0  0  0
 24 17  1  0  0  0  0
 25 21  1  0  0  0  0
 25 56  1  0  0  0  0
M  END
>  <DRUGBANK_ID>
DB13353

>  <COMMON_NAME>
Viminol

>  <CAS_NUMBER>
21363-18-8

>  <UNII>
TPV54G6XBG

>  <SYNONYMS>
Viminol

$$$$
