
 OpenBabel10282417072D

 35 36  0  0  0  0  0  0  0  0999 V2000
    1.0717    0.8250    0.0000 C   0  0  0  0  0  0  0  0  0  0  0  0
    0.3572    1.2374    0.0000 O   0  0  0  0  0  0  0  0  0  0  0  0
   -0.3572    0.8250    0.0000 C   0  0  1  0  0  0  0  0  0  0  0  0
   -0.3572    0.0000    0.0000 C   0  0  2  0  0  0  0  0  0  0  0  0
    0.3572   -0.4125    0.0000 O   0  0  0  0  0  0  0  0  0  0  0  0
    1.0717    0.0000    0.0000 C   0  0  0  0  0  0  0  0  0  0  0  0
   -1.0716    1.2374    0.0000 O   0  0  0  0  0  0  0  0  0  0  0  0
   -1.7861    0.8250    0.0000 C   0  0  1  0  0  0  0  0  0  0  0  0
   -1.0716   -0.4125    0.0000 C   0  0  2  0  0  0  0  0  0  0  0  0
   -1.7861    0.0000    0.0000 C   0  0  2  0  0  0  0  0  0  0  0  0
   -1.0716   -1.2374    0.0000 O   0  0  0  0  0  0  0  0  0  0  0  0
    1.7861    1.2374    0.0000 C   0  0  0  0  0  0  0  0  0  0  0  0
   -2.5006   -0.4125    0.0000 O   0  0  0  0  0  0  0  0  0  0  0  0
    1.7861   -0.4125    0.0000 C   0  0  0  0  0  0  0  0  0  0  0  0
    2.5006    0.8250    0.0000 C   0  0  0  0  0  0  0  0  0  0  0  0
    2.5006    0.0000    0.0000 C   0  0  0  0  0  0  0  0  0  0  0  0
    3.2151   -0.4125    0.0000 O   0  0  0  0  0  0  0  0  0  0  0  0
   -2.5006    1.2374    0.0000 C   0  0  0  0  0  0  0  0  0  0  0  0
   -3.2151    0.8250    0.0000 O   0  0  0  0  0  0  0  0  0  0  0  0
   -0.3572    1.8950    0.0000 H   0  0  0  0  0  0  0  0  0  0  0  0
    0.5695    0.5350    0.0000 H   0  0  0  0  0  0  0  0  0  0  0  0
    0.3572   -1.3825    0.0000 H   0  0  0  0  0  0  0  0  0  0  0  0
    0.1780   -0.5160    0.0000 H   0  0  0  0  0  0  0  0  0  0  0  0
   -1.7861    1.8950    0.0000 H   0  0  0  0  0  0  0  0  0  0  0  0
   -0.1449   -0.9475    0.0000 H   0  0  0  0  0  0  0  0  0  0  0  0
   -2.7127    0.5350    0.0000 H   0  0  0  0  0  0  0  0  0  0  0  0
   -1.9116   -1.7224    0.0000 H   0  0  0  0  0  0  0  0  0  0  0  0
    1.7861    2.2694    0.0000 H   0  0  0  0  0  0  0  0  0  0  0  0
   -3.3406    0.0725    0.0000 H   0  0  0  0  0  0  0  0  0  0  0  0
    1.7861   -1.4445    0.0000 H   0  0  0  0  0  0  0  0  0  0  0  0
    3.3943    1.3411    0.0000 H   0  0  0  0  0  0  0  0  0  0  0  0
    3.2151   -1.3495    0.0000 H   0  0  0  0  0  0  0  0  0  0  0  0
   -2.5006    2.3074    0.0000 H   0  0  0  0  0  0  0  0  0  0  0  0
   -3.4272    1.7725    0.0000 H   0  0  0  0  0  0  0  0  0  0  0  0
   -4.0551    1.3101    0.0000 H   0  0  0  0  0  0  0  0  0  0  0  0
  1 12  1  0  0  0  0
  1  6  2  0  0  0  0
  2  1  1  0  0  0  0
  3  2  1  0  0  0  0
  3  7  1  0  0  0  0
  3  4  1  0  0  0  0
  3 20  1  6  0  0  0
  4  9  1  0  0  0  0
  4  5  1  0  0  0  0
  4 21  1  1  0  0  0
  5 22  1  0  0  0  0
  6 14  1  0  0  0  0
  6 23  1  0  0  0  0
  7  8  1  0  0  0  0
  8 10  1  0  0  0  0
  8 18  1  0  0  0  0
  8 24  1  6  0  0  0
  9 11  1  0  0  0  0
  9 10  1  0  0  0  0
  9 25  1  6  0  0  0
 10 13  1  0  0  0  0
 10 26  1  1  0  0  0
 11 27  1  0  0  0  0
 12 15  2  0  0  0  0
 12 28  1  0  0  0  0
 13 29  1  0  0  0  0
 14 16  2  0  0  0  0
 14 30  1  0  0  0  0
 15 16  1  0  0  0  0
 15 31  1  0  0  0  0
 16 17  1  0  0  0  0
 17 32  1  0  0  0  0
 18 19  1  0  0  0  0
 18 33  1  0  0  0  0
 18 34  1  0  0  0  0
 19 35  1  0  0  0  0
M  END
>  <DRUGBANK_ID>
DB11217

>  <COMMON_NAME>
Arbutin

>  <CAS_NUMBER>
497-76-7

>  <UNII>
C5INA23HXF

>  <SYNONYMS>
4-Hydroxyphenyl-beta-D-glucopyranoside; beta-Arbutin; hydroquinone O-β-D-glucopyranoside; Hydroquinone-O-beta-D-glucopyranoside; p-hydroxyphenyl β-D-glucopyranoside; p-hydroxyphenyl β-D-glucoside

$$$$
