
 OpenBabel10282417072D

 77 80  0  0  0  0  0  0  0  0999 V2000
    5.7158   -4.9500    0.0000 C   0  0  0  0  0  0  0  0  0  0  0  0
    6.4302   -5.3625    0.0000 C   0  0  0  0  0  0  0  0  0  0  0  0
    6.4302   -6.1875    0.0000 N   0  0  0  0  0  0  0  0  0  0  0  0
    7.1447   -6.6000    0.0000 C   0  0  0  0  0  0  0  0  0  0  0  0
    7.1447   -7.4250    0.0000 C   0  0  0  0  0  0  0  0  0  0  0  0
    6.4302   -7.8375    0.0000 N   0  0  0  0  0  0  0  0  0  0  0  0
    5.7158   -7.4250    0.0000 C   0  0  0  0  0  0  0  0  0  0  0  0
    5.7158   -6.6000    0.0000 C   0  0  0  0  0  0  0  0  0  0  0  0
    6.4302   -8.6625    0.0000 C   0  0  0  0  0  0  0  0  0  0  0  0
    7.1447   -9.0750    0.0000 C   0  0  0  0  0  0  0  0  0  0  0  0
    7.1447   -9.9000    0.0000 C   0  0  0  0  0  0  0  0  0  0  0  0
    6.4302  -10.3125    0.0000 C   0  0  0  0  0  0  0  0  0  0  0  0
    6.4302  -11.1375    0.0000 N   0  0  0  0  0  0  0  0  0  0  0  0
    5.7158  -11.5500    0.0000 C   0  0  0  0  0  0  0  0  0  0  0  0
    5.7158  -12.3750    0.0000 C   0  0  0  0  0  0  0  0  0  0  0  0
    5.0013  -12.7875    0.0000 C   0  0  0  0  0  0  0  0  0  0  0  0
    4.2868  -12.3750    0.0000 N   0  0  0  0  0  0  0  0  0  0  0  0
    4.2868  -11.5500    0.0000 C   0  0  0  0  0  0  0  0  0  0  0  0
    5.0013  -11.1375    0.0000 N   0  0  0  0  0  0  0  0  0  0  0  0
    5.0013  -13.6125    0.0000 N   0  0  0  0  0  0  0  0  0  0  0  0
    5.7158  -14.0250    0.0000 C   0  0  0  0  0  0  0  0  0  0  0  0
    4.2868  -14.0250    0.0000 C   0  0  0  0  0  0  0  0  0  0  0  0
    3.5724  -13.6125    0.0000 O   0  0  0  0  0  0  0  0  0  0  0  0
    4.2868  -14.8500    0.0000 N   0  0  0  0  0  0  0  0  0  0  0  0
    3.5724  -15.2625    0.0000 C   0  0  0  0  0  0  0  0  0  0  0  0
    3.5724  -16.0875    0.0000 C   0  0  0  0  0  0  0  0  0  0  0  0
    4.2868  -16.5000    0.0000 Cl  0  0  0  0  0  0  0  0  0  0  0  0
    2.8579  -16.5000    0.0000 C   0  0  0  0  0  0  0  0  0  0  0  0
    2.8579  -17.3250    0.0000 O   0  0  0  0  0  0  0  0  0  0  0  0
    3.5724  -17.7375    0.0000 C   0  0  0  0  0  0  0  0  0  0  0  0
    2.1434  -16.0875    0.0000 C   0  0  0  0  0  0  0  0  0  0  0  0
    2.1434  -15.2625    0.0000 C   0  0  0  0  0  0  0  0  0  0  0  0
    1.4289  -14.8500    0.0000 O   0  0  0  0  0  0  0  0  0  0  0  0
    1.4289  -14.0250    0.0000 C   0  0  0  0  0  0  0  0  0  0  0  0
    2.8579  -14.8500    0.0000 C   0  0  0  0  0  0  0  0  0  0  0  0
    2.8579  -14.0250    0.0000 Cl  0  0  0  0  0  0  0  0  0  0  0  0
    5.7158   -9.9000    0.0000 C   0  0  0  0  0  0  0  0  0  0  0  0
    5.0013  -10.3125    0.0000 N   0  0  0  0  0  0  0  0  0  0  0  0
    4.2868   -9.9000    0.0000 C   0  0  0  0  0  0  0  0  0  0  0  0
    4.2868   -9.0750    0.0000 O   0  0  0  0  0  0  0  0  0  0  0  0
    3.5724  -10.3125    0.0000 C   0  0  0  0  0  0  0  0  0  0  0  0
    2.8579   -9.9000    0.0000 C   0  0  0  0  0  0  0  0  0  0  0  0
    5.7158   -9.0750    0.0000 C   0  0  0  0  0  0  0  0  0  0  0  0
    5.7158   -3.8800    0.0000 H   0  0  0  0  0  0  0  0  0  0  0  0
    4.7891   -5.4850    0.0000 H   0  0  0  0  0  0  0  0  0  0  0  0
    4.7892   -4.4150    0.0000 H   0  0  0  0  0  0  0  0  0  0  0  0
    7.3569   -4.8275    0.0000 H   0  0  0  0  0  0  0  0  0  0  0  0
    7.3568   -5.8975    0.0000 H   0  0  0  0  0  0  0  0  0  0  0  0
    8.0713   -6.0650    0.0000 H   0  0  0  0  0  0  0  0  0  0  0  0
    8.0713   -7.1350    0.0000 H   0  0  0  0  0  0  0  0  0  0  0  0
    8.0713   -7.9600    0.0000 H   0  0  0  0  0  0  0  0  0  0  0  0
    7.1447   -8.4950    0.0000 H   0  0  0  0  0  0  0  0  0  0  0  0
    4.7891   -7.9600    0.0000 H   0  0  0  0  0  0  0  0  0  0  0  0
    4.7892   -6.8900    0.0000 H   0  0  0  0  0  0  0  0  0  0  0  0
    4.7891   -6.0650    0.0000 H   0  0  0  0  0  0  0  0  0  0  0  0
    5.7158   -5.5300    0.0000 H   0  0  0  0  0  0  0  0  0  0  0  0
    8.0384   -8.5590    0.0000 H   0  0  0  0  0  0  0  0  0  0  0  0
    8.0384  -10.4160    0.0000 H   0  0  0  0  0  0  0  0  0  0  0  0
    7.2828  -11.6297    0.0000 H   0  0  0  0  0  0  0  0  0  0  0  0
    6.6095  -12.8910    0.0000 H   0  0  0  0  0  0  0  0  0  0  0  0
    3.3931  -11.0340    0.0000 H   0  0  0  0  0  0  0  0  0  0  0  0
    5.7158  -15.0950    0.0000 H   0  0  0  0  0  0  0  0  0  0  0  0
    6.6424  -13.4900    0.0000 H   0  0  0  0  0  0  0  0  0  0  0  0
    6.6425  -14.5600    0.0000 H   0  0  0  0  0  0  0  0  0  0  0  0
    5.1394  -15.3422    0.0000 H   0  0  0  0  0  0  0  0  0  0  0  0
    3.5724  -18.8075    0.0000 H   0  0  0  0  0  0  0  0  0  0  0  0
    4.4990  -17.2025    0.0000 H   0  0  0  0  0  0  0  0  0  0  0  0
    4.4991  -18.2725    0.0000 H   0  0  0  0  0  0  0  0  0  0  0  0
    1.2497  -16.6035    0.0000 H   0  0  0  0  0  0  0  0  0  0  0  0
    2.3555  -13.4900    0.0000 H   0  0  0  0  0  0  0  0  0  0  0  0
    0.5023  -13.4900    0.0000 H   0  0  0  0  0  0  0  0  0  0  0  0
    1.4289  -12.9550    0.0000 H   0  0  0  0  0  0  0  0  0  0  0  0
    5.0013  -11.2970    0.0000 H   0  0  0  0  0  0  0  0  0  0  0  0
    3.5724  -11.3445    0.0000 H   0  0  0  0  0  0  0  0  0  0  0  0
    2.8579   -8.8680    0.0000 H   0  0  0  0  0  0  0  0  0  0  0  0
    1.9642  -10.4160    0.0000 H   0  0  0  0  0  0  0  0  0  0  0  0
    4.8221   -8.5590    0.0000 H   0  0  0  0  0  0  0  0  0  0  0  0
  1  2  1  0  0  0  0
  1 44  1  0  0  0  0
  1 45  1  0  0  0  0
  1 46  1  0  0  0  0
  2  3  1  0  0  0  0
  2 47  1  0  0  0  0
  2 48  1  0  0  0  0
  3  4  1  0  0  0  0
  3  8  1  0  0  0  0
  4  5  1  0  0  0  0
  4 49  1  0  0  0  0
  4 50  1  0  0  0  0
  5  6  1  0  0  0  0
  5 51  1  0  0  0  0
  5 52  1  0  0  0  0
  6  7  1  0  0  0  0
  6  9  1  0  0  0  0
  7  8  1  0  0  0  0
  7 53  1  0  0  0  0
  7 54  1  0  0  0  0
  8 55  1  0  0  0  0
  8 56  1  0  0  0  0
  9 10  2  0  0  0  0
  9 43  1  0  0  0  0
 10 11  1  0  0  0  0
 10 57  1  0  0  0  0
 11 12  2  0  0  0  0
 11 58  1  0  0  0  0
 12 13  1  0  0  0  0
 12 37  1  0  0  0  0
 13 14  1  0  0  0  0
 13 59  1  0  0  0  0
 14 15  2  0  0  0  0
 14 19  1  0  0  0  0
 15 16  1  0  0  0  0
 15 60  1  0  0  0  0
 16 17  2  0  0  0  0
 16 20  1  0  0  0  0
 17 18  1  0  0  0  0
 18 19  2  0  0  0  0
 18 61  1  0  0  0  0
 20 21  1  0  0  0  0
 20 22  1  0  0  0  0
 21 62  1  0  0  0  0
 21 63  1  0  0  0  0
 21 64  1  0  0  0  0
 22 23  2  0  0  0  0
 22 24  1  0  0  0  0
 24 25  1  0  0  0  0
 24 65  1  0  0  0  0
 25 26  2  0  0  0  0
 25 35  1  0  0  0  0
 26 27  1  0  0  0  0
 26 28  1  0  0  0  0
 28 29  1  0  0  0  0
 28 31  2  0  0  0  0
 29 30  1  0  0  0  0
 30 66  1  0  0  0  0
 30 67  1  0  0  0  0
 30 68  1  0  0  0  0
 31 32  1  0  0  0  0
 31 69  1  0  0  0  0
 32 33  1  0  0  0  0
 32 35  2  0  0  0  0
 33 34  1  0  0  0  0
 34 70  1  0  0  0  0
 34 71  1  0  0  0  0
 34 72  1  0  0  0  0
 35 36  1  0  0  0  0
 37 38  1  0  0  0  0
 37 43  2  0  0  0  0
 38 39  1  0  0  0  0
 38 73  1  0  0  0  0
 39 40  2  0  0  0  0
 39 41  1  0  0  0  0
 41 42  2  0  0  0  0
 41 74  1  0  0  0  0
 42 75  1  0  0  0  0
 42 76  1  0  0  0  0
 43 77  1  0  0  0  0
M  END
>  <DRUGBANK_ID>
DB15169

>  <COMMON_NAME>
H3B-6527

>  <CAS_NUMBER>
1702259-66-2

>  <UNII>
4HTE364XIK

>  <SYNONYMS>
(N-{2-[(6-{[(2,6-Dichloro-3,5-dimethoxyphenyl)carbamoyl](methyl)amino}pyrimidin-4- yl)amino]-5-(4-ethylpiperazin-1-yl)phenyl}prop-2-enamide); 2-PROPENAMIDE, N-(2-((6-((((2,6-DICHLORO-3,5-DIMETHOXYPHENYL)AMINO)CARBONYL)METHYLAMINO)-4-PYRIMIDINYL)AMINO)-5-(4-ETHYL-1-PIPERAZINYL)PHENYL)-; H3B 6527; H3B6527; N-(2-((6-(((2,6-DICHLORO-3,5 DIMETHOXYPHENYL) CARBAMOYL) (METHYL)AMINO)PYRIMIDIN-4-YL)AMINO)-5-(4-ETHYLPIPERAZIN-1-YL)PHENYL)PROP-2-ENAMIDE

$$$$
