
 OpenBabel10282417072D

 73 77  0  0  0  0  0  0  0  0999 V2000
    1.4890    0.4332    0.0000 C   0  0  0  0  0  0  0  0  0  0  0  0
    0.7463    0.8457    0.0000 C   0  0  0  0  0  0  0  0  0  0  0  0
    0.0450    0.4332    0.0000 C   0  0  0  0  0  0  0  0  0  0  0  0
    0.0450   -0.3918    0.0000 C   0  0  0  0  0  0  0  0  0  0  0  0
    0.7463   -0.8044    0.0000 C   0  0  0  0  0  0  0  0  0  0  0  0
    1.4890   -0.3918    0.0000 C   0  0  0  0  0  0  0  0  0  0  0  0
   -0.6563    0.8044    0.0000 N   0  0  0  0  0  0  0  0  0  0  0  0
   -1.3164    0.3506    0.0000 C   0  0  0  0  0  0  0  0  0  0  0  0
   -2.0590    0.7219    0.0000 C   0  0  0  0  0  0  0  0  0  0  0  0
   -1.3164   -0.4744    0.0000 C   0  0  0  0  0  0  0  0  0  0  0  0
   -2.0177   -0.8869    0.0000 C   0  0  0  0  0  0  0  0  0  0  0  0
   -2.0177   -1.7120    0.0000 C   0  0  0  0  0  0  0  0  0  0  0  0
   -1.3164   -2.1246    0.0000 C   0  0  0  0  0  0  0  0  0  0  0  0
   -0.5738   -1.7120    0.0000 C   0  0  0  0  0  0  0  0  0  0  0  0
   -0.5738   -0.8869    0.0000 C   0  0  0  0  0  0  0  0  0  0  0  0
   -2.1827    1.5470    0.0000 C   0  0  0  0  0  0  0  0  0  0  0  0
   -3.0078    1.7120    0.0000 N   0  0  0  0  0  0  0  0  0  0  0  0
   -3.4204    0.9695    0.0000 C   0  0  0  0  0  0  0  0  0  0  0  0
   -2.8428    0.3506    0.0000 C   0  0  0  0  0  0  0  0  0  0  0  0
   -1.6052    2.1246    0.0000 O   0  0  0  0  0  0  0  0  0  0  0  0
   -4.2042    0.7632    0.0000 C   0  0  0  0  0  0  0  0  0  0  0  0
   -4.4518   -0.0206    0.0000 C   0  0  0  0  0  0  0  0  0  0  0  0
   -3.8743   -0.6393    0.0000 C   0  0  0  0  0  0  0  0  0  0  0  0
   -3.0492   -0.4332    0.0000 C   0  0  0  0  0  0  0  0  0  0  0  0
    2.2905   -0.8698    0.0000 N   0  0  0  0  0  0  0  0  0  0  0  0
    3.0096   -0.4680    0.0000 C   0  0  0  0  0  0  0  0  0  0  0  0
    2.2789   -1.6937    0.0000 C   0  0  0  0  0  0  0  0  0  0  0  0
    3.0209    0.3341    0.0000 O   0  0  0  0  0  0  0  0  0  0  0  0
    3.7256   -0.8945    0.0000 C   0  0  0  0  0  0  0  0  0  0  0  0
    4.4528   -0.4881    0.0000 N   0  0  0  0  0  0  0  0  0  0  0  0
    4.4638    0.3179    0.0000 C   0  0  0  0  0  0  0  0  0  0  0  0
    5.1827    0.7199    0.0000 C   0  0  0  0  0  0  0  0  0  0  0  0
    5.8905    0.2982    0.0000 N   0  0  0  0  0  0  0  0  0  0  0  0
    5.8794   -0.5076    0.0000 C   0  0  0  0  0  0  0  0  0  0  0  0
    5.1604   -0.9097    0.0000 C   0  0  0  0  0  0  0  0  0  0  0  0
    6.6180    0.7052    0.0000 C   0  0  0  0  0  0  0  0  0  0  0  0
   -5.2553   -0.2023    0.0000 C   0  0  0  0  0  0  0  0  0  0  0  0
   -5.4997   -0.9891    0.0000 O   0  0  0  0  0  0  0  0  0  0  0  0
   -5.8145    0.4024    0.0000 O   0  0  0  0  0  0  0  0  0  0  0  0
   -6.6180    0.2208    0.0000 C   0  0  0  0  0  0  0  0  0  0  0  0
    2.3784    0.9566    0.0000 H   0  0  0  0  0  0  0  0  0  0  0  0
    0.7336    1.8776    0.0000 H   0  0  0  0  0  0  0  0  0  0  0  0
   -0.8508   -0.9041    0.0000 H   0  0  0  0  0  0  0  0  0  0  0  0
    0.7335   -1.8363    0.0000 H   0  0  0  0  0  0  0  0  0  0  0  0
   -0.7131    1.7873    0.0000 H   0  0  0  0  0  0  0  0  0  0  0  0
   -2.9135   -0.3745    0.0000 H   0  0  0  0  0  0  0  0  0  0  0  0
   -2.9135   -2.2243    0.0000 H   0  0  0  0  0  0  0  0  0  0  0  0
   -1.3291   -3.1565    0.0000 H   0  0  0  0  0  0  0  0  0  0  0  0
    0.3157   -2.2353    0.0000 H   0  0  0  0  0  0  0  0  0  0  0  0
    0.3156   -0.3635    0.0000 H   0  0  0  0  0  0  0  0  0  0  0  0
   -3.4210    2.6056    0.0000 H   0  0  0  0  0  0  0  0  0  0  0  0
   -4.9160    1.5105    0.0000 H   0  0  0  0  0  0  0  0  0  0  0  0
   -4.1670   -1.6289    0.0000 H   0  0  0  0  0  0  0  0  0  0  0  0
   -2.3241   -1.1676    0.0000 H   0  0  0  0  0  0  0  0  0  0  0  0
    1.3448   -2.2156    0.0000 H   0  0  0  0  0  0  0  0  0  0  0  0
    3.1979   -2.2417    0.0000 H   0  0  0  0  0  0  0  0  0  0  0  0
    2.2638   -2.7636    0.0000 H   0  0  0  0  0  0  0  0  0  0  0  0
    3.7108   -1.9644    0.0000 H   0  0  0  0  0  0  0  0  0  0  0  0
    4.6447   -1.4423    0.0000 H   0  0  0  0  0  0  0  0  0  0  0  0
    3.5446    0.8655    0.0000 H   0  0  0  0  0  0  0  0  0  0  0  0
    4.4785    1.3878    0.0000 H   0  0  0  0  0  0  0  0  0  0  0  0
    5.1974    1.7898    0.0000 H   0  0  0  0  0  0  0  0  0  0  0  0
    6.1166    1.2421    0.0000 H   0  0  0  0  0  0  0  0  0  0  0  0
    6.7986   -1.0553    0.0000 H   0  0  0  0  0  0  0  0  0  0  0  0
    5.8647   -1.5775    0.0000 H   0  0  0  0  0  0  0  0  0  0  0  0
    5.1457   -1.9796    0.0000 H   0  0  0  0  0  0  0  0  0  0  0  0
    4.2265   -1.4319    0.0000 H   0  0  0  0  0  0  0  0  0  0  0  0
    7.5373    0.1577    0.0000 H   0  0  0  0  0  0  0  0  0  0  0  0
    6.6325    1.7751    0.0000 H   0  0  0  0  0  0  0  0  0  0  0  0
    7.5518    1.2276    0.0000 H   0  0  0  0  0  0  0  0  0  0  0  0
   -7.3441    1.0067    0.0000 H   0  0  0  0  0  0  0  0  0  0  0  0
   -6.9356   -0.8010    0.0000 H   0  0  0  0  0  0  0  0  0  0  0  0
   -7.6617   -0.0151    0.0000 H   0  0  0  0  0  0  0  0  0  0  0  0
  1  2  2  0  0  0  0
  1 41  1  0  0  0  0
  2  3  1  0  0  0  0
  2 42  1  0  0  0  0
  3  4  2  0  0  0  0
  3  7  1  0  0  0  0
  4  5  1  0  0  0  0
  4 43  1  0  0  0  0
  5  6  2  0  0  0  0
  5 44  1  0  0  0  0
  6  1  1  0  0  0  0
  6 25  1  0  0  0  0
  7  8  1  0  0  0  0
  7 45  1  0  0  0  0
  8  9  2  0  0  0  0
  8 10  1  0  0  0  0
  9 16  1  0  0  0  0
  9 19  1  0  0  0  0
 10 11  2  0  0  0  0
 10 15  1  0  0  0  0
 11 12  1  0  0  0  0
 11 46  1  0  0  0  0
 12 13  2  0  0  0  0
 12 47  1  0  0  0  0
 13 14  1  0  0  0  0
 13 48  1  0  0  0  0
 14 15  2  0  0  0  0
 14 49  1  0  0  0  0
 15 50  1  0  0  0  0
 16 17  1  0  0  0  0
 16 20  2  0  0  0  0
 17 18  1  0  0  0  0
 17 51  1  0  0  0  0
 18 19  1  0  0  0  0
 18 21  2  0  0  0  0
 19 24  2  0  0  0  0
 21 22  1  0  0  0  0
 21 52  1  0  0  0  0
 22 23  2  0  0  0  0
 22 37  1  0  0  0  0
 23 24  1  0  0  0  0
 23 53  1  0  0  0  0
 24 54  1  0  0  0  0
 25 26  1  0  0  0  0
 25 27  1  0  0  0  0
 26 28  2  0  0  0  0
 26 29  1  0  0  0  0
 27 55  1  0  0  0  0
 27 56  1  0  0  0  0
 27 57  1  0  0  0  0
 29 30  1  0  0  0  0
 29 58  1  0  0  0  0
 29 59  1  0  0  0  0
 30 31  1  0  0  0  0
 30 35  1  0  0  0  0
 31 32  1  0  0  0  0
 31 60  1  0  0  0  0
 31 61  1  0  0  0  0
 32 33  1  0  0  0  0
 32 62  1  0  0  0  0
 32 63  1  0  0  0  0
 33 34  1  0  0  0  0
 33 36  1  0  0  0  0
 34 35  1  0  0  0  0
 34 64  1  0  0  0  0
 34 65  1  0  0  0  0
 35 66  1  0  0  0  0
 35 67  1  0  0  0  0
 36 68  1  0  0  0  0
 36 69  1  0  0  0  0
 36 70  1  0  0  0  0
 38 37  2  0  0  0  0
 39 37  1  0  0  0  0
 40 39  1  0  0  0  0
 40 71  1  0  0  0  0
 40 72  1  0  0  0  0
 40 73  1  0  0  0  0
M  END
>  <DRUGBANK_ID>
DB09079

>  <COMMON_NAME>
Nintedanib

>  <CAS_NUMBER>
656247-17-5

>  <UNII>
G6HRD2P839

>  <SYNONYMS>
methyl (3Z)-3-[(4-{methyl[(4-methylpiperazin-1-yl)acetyl]amino}anilino)(phenyl)methylidene]-2-oxo-2,3-dihydro-1H-indole-6-carboxylate; Nintedanib

$$$$
