
 OpenBabel10282417072D

 41 43  0  0  1  0  0  0  0  0999 V2000
    8.5737    0.8250    0.0000 C   0  0  0  0  0  0  0  0  0  0  0  0
    7.8592    1.2375    0.0000 C   0  0  0  0  0  0  0  0  0  0  0  0
    8.5737   -0.0000    0.0000 C   0  0  0  0  0  0  0  0  0  0  0  0
    6.4302   -0.4125    0.0000 C   0  0  0  0  0  0  0  0  0  0  0  0
    2.1434   -0.4125    0.0000 C   0  0  0  0  0  0  0  0  0  0  0  0
    2.1434    1.2375    0.0000 C   0  0  0  0  0  0  0  0  0  0  0  0
    5.0013   -0.4125    0.0000 C   0  0  0  0  0  0  0  0  0  0  0  0
    4.2868    0.8250    0.0000 C   0  0  0  0  0  0  0  0  0  0  0  0
    5.7158   -0.0000    0.0000 C   0  0  0  0  0  0  0  0  0  0  0  0
    2.8579    0.0000    0.0000 C   0  0  0  0  0  0  0  0  0  0  0  0
    1.4289    0.8250    0.0000 C   0  0  0  0  0  0  0  0  0  0  0  0
    1.4289    0.0000    0.0000 C   0  0  0  0  0  0  0  0  0  0  0  0
    2.8579    0.8250    0.0000 C   0  0  0  0  0  0  0  0  0  0  0  0
    7.1447   -0.0000    0.0000 C   0  0  2  0  0  0  0  0  0  0  0  0
    7.1447    0.8250    0.0000 C   0  0  1  0  0  0  0  0  0  0  0  0
    3.5724   -0.4125    0.0000 C   0  0  0  0  0  0  0  0  0  0  0  0
    0.7145    1.2375    0.0000 Br  0  0  0  0  0  0  0  0  0  0  0  0
    0.7145   -0.4125    0.0000 Cl  0  0  0  0  0  0  0  0  0  0  0  0
    7.8592   -0.4125    0.0000 N   0  0  0  0  0  0  0  0  0  0  0  0
    3.5724    1.2375    0.0000 N   0  0  0  0  0  0  0  0  0  0  0  0
    4.2868   -0.0000    0.0000 N   0  0  0  0  0  0  0  0  0  0  0  0
    5.7158    0.8250    0.0000 O   0  0  0  0  0  0  0  0  0  0  0  0
    6.4302    1.2375    0.0000 O   0  0  0  0  0  0  0  0  0  0  0  0
    3.5724   -1.2375    0.0000 O   0  0  0  0  0  0  0  0  0  0  0  0
    6.4302    0.4125    0.0000 H   0  0  0  0  0  0  0  0  0  0  0  0
    7.1447    1.6500    0.0000 H   0  0  0  0  0  0  0  0  0  0  0  0
    9.5003    1.3600    0.0000 H   0  0  0  0  0  0  0  0  0  0  0  0
    9.5003    0.2900    0.0000 H   0  0  0  0  0  0  0  0  0  0  0  0
    7.8592    2.3075    0.0000 H   0  0  0  0  0  0  0  0  0  0  0  0
    6.9326    1.7725    0.0000 H   0  0  0  0  0  0  0  0  0  0  0  0
    9.5003   -0.5350    0.0000 H   0  0  0  0  0  0  0  0  0  0  0  0
    8.5737   -1.0700    0.0000 H   0  0  0  0  0  0  0  0  0  0  0  0
    6.4302   -1.4825    0.0000 H   0  0  0  0  0  0  0  0  0  0  0  0
    7.3568   -0.9475    0.0000 H   0  0  0  0  0  0  0  0  0  0  0  0
    2.1434   -1.4445    0.0000 H   0  0  0  0  0  0  0  0  0  0  0  0
    2.1434    2.2695    0.0000 H   0  0  0  0  0  0  0  0  0  0  0  0
    5.0013   -1.4825    0.0000 H   0  0  0  0  0  0  0  0  0  0  0  0
    4.0747   -0.9475    0.0000 H   0  0  0  0  0  0  0  0  0  0  0  0
    5.1805    1.3410    0.0000 H   0  0  0  0  0  0  0  0  0  0  0  0
    7.8592   -1.4325    0.0000 H   0  0  0  0  0  0  0  0  0  0  0  0
    6.4302    2.2075    0.0000 H   0  0  0  0  0  0  0  0  0  0  0  0
  1 27  1  0  0  0  0
  1 28  1  0  0  0  0
  2  1  1  0  0  0  0
  2 29  1  0  0  0  0
  2 30  1  0  0  0  0
  3  1  1  0  0  0  0
  3 31  1  0  0  0  0
  3 32  1  0  0  0  0
  4 33  1  0  0  0  0
  4 34  1  0  0  0  0
  5 35  1  0  0  0  0
  6 36  1  0  0  0  0
  7 37  1  0  0  0  0
  7 38  1  0  0  0  0
  8 39  1  0  0  0  0
  9  4  1  0  0  0  0
  9  7  1  0  0  0  0
 10  5  1  0  0  0  0
 11  6  2  0  0  0  0
 12  5  2  0  0  0  0
 12 11  1  0  0  0  0
 13  6  1  0  0  0  0
 13 10  2  0  0  0  0
 14  4  1  0  0  0  0
 14 25  1  1  0  0  0
 15  2  1  0  0  0  0
 15 14  1  0  0  0  0
 15 23  1  0  0  0  0
 15 26  1  6  0  0  0
 16 10  1  0  0  0  0
 17 11  1  0  0  0  0
 18 12  1  0  0  0  0
 19  3  1  0  0  0  0
 19 14  1  0  0  0  0
 19 40  1  0  0  0  0
 20  8  2  0  0  0  0
 20 13  1  0  0  0  0
 21  7  1  0  0  0  0
 21  8  1  0  0  0  0
 21 16  1  0  0  0  0
 22  9  2  0  0  0  0
 23 41  1  0  0  0  0
 24 16  2  0  0  0  0
M  END
>  <DRUGBANK_ID>
DB04866

>  <COMMON_NAME>
Halofuginone

>  <CAS_NUMBER>
55837-20-2

>  <UNII>
L31MM1385E

>  <SYNONYMS>
(+/-)-trans-7-bromo-6-chloro-3-(3-(3-hydroxy-2-piperidyl)-acetonyl)-4(3H)-quinazolinone; Halofuginone

$$$$
