
 OpenBabel10282417072D

 67 68  0  0  1  0  0  0  0  0999 V2000
    3.1895    1.6204    0.0000 C   0  0  0  0  0  0  0  0  0  0  0  0
    2.7770    0.9059    0.0000 C   0  0  0  0  0  0  0  0  0  0  0  0
    3.1895    0.1914    0.0000 C   0  0  0  0  0  0  0  0  0  0  0  0
    1.9520    0.9059    0.0000 C   0  0  0  0  0  0  0  0  0  0  0  0
    1.5395    1.6204    0.0000 O   0  0  0  0  0  0  0  0  0  0  0  0
    1.5395    0.1914    0.0000 O   0  0  0  0  0  0  0  0  0  0  0  0
    0.7145    0.1914    0.0000 C   0  0  0  0  0  0  0  0  0  0  0  0
    0.3020   -0.5230    0.0000 C   0  0  0  0  0  0  0  0  0  0  0  0
   -0.5230   -0.5230    0.0000 C   0  0  0  0  0  0  0  0  0  0  0  0
   -0.9355    0.1914    0.0000 C   0  0  0  0  0  0  0  0  0  0  0  0
   -0.5230    0.9059    0.0000 C   0  0  0  0  0  0  0  0  0  0  0  0
    0.3020    0.9059    0.0000 C   0  0  0  0  0  0  0  0  0  0  0  0
   -1.7605    0.1914    0.0000 C   0  0  0  0  0  0  0  0  0  0  0  0
   -2.1730    0.9059    0.0000 O   0  0  0  0  0  0  0  0  0  0  0  0
    0.7145   -1.2375    0.0000 C   0  0  2  0  0  0  0  0  0  0  0  0
    1.5395   -1.2375    0.0000 C   0  0  0  0  0  0  0  0  0  0  0  0
    1.9520   -1.9520    0.0000 C   0  0  0  0  0  0  0  0  0  0  0  0
    2.7770   -1.9520    0.0000 N   0  0  0  0  0  0  0  0  0  0  0  0
    3.1895   -2.6664    0.0000 C   0  0  0  0  0  0  0  0  0  0  0  0
    4.0145   -2.6664    0.0000 C   0  0  0  0  0  0  0  0  0  0  0  0
    2.7770   -3.3809    0.0000 C   0  0  0  0  0  0  0  0  0  0  0  0
    3.1895   -1.2375    0.0000 C   0  0  0  0  0  0  0  0  0  0  0  0
    2.7770   -0.5230    0.0000 C   0  0  0  0  0  0  0  0  0  0  0  0
    4.0145   -1.2375    0.0000 C   0  0  0  0  0  0  0  0  0  0  0  0
    0.3020   -1.9520    0.0000 C   0  0  0  0  0  0  0  0  0  0  0  0
    0.7145   -2.6664    0.0000 C   0  0  0  0  0  0  0  0  0  0  0  0
    0.3020   -3.3809    0.0000 C   0  0  0  0  0  0  0  0  0  0  0  0
   -0.5230   -3.3809    0.0000 C   0  0  0  0  0  0  0  0  0  0  0  0
   -0.9355   -2.6664    0.0000 C   0  0  0  0  0  0  0  0  0  0  0  0
   -0.5230   -1.9520    0.0000 C   0  0  0  0  0  0  0  0  0  0  0  0
    4.2595    1.6204    0.0000 H   0  0  0  0  0  0  0  0  0  0  0  0
    2.6545    2.5470    0.0000 H   0  0  0  0  0  0  0  0  0  0  0  0
    3.7245    2.5471    0.0000 H   0  0  0  0  0  0  0  0  0  0  0  0
    2.2420   -0.0207    0.0000 H   0  0  0  0  0  0  0  0  0  0  0  0
    2.6545   -0.7352    0.0000 H   0  0  0  0  0  0  0  0  0  0  0  0
    4.2595    0.1914    0.0000 H   0  0  0  0  0  0  0  0  0  0  0  0
    3.7245   -0.7353    0.0000 H   0  0  0  0  0  0  0  0  0  0  0  0
   -1.0390   -1.4167    0.0000 H   0  0  0  0  0  0  0  0  0  0  0  0
   -1.0390    1.7996    0.0000 H   0  0  0  0  0  0  0  0  0  0  0  0
    0.8180    1.7996    0.0000 H   0  0  0  0  0  0  0  0  0  0  0  0
   -2.2955   -0.7352    0.0000 H   0  0  0  0  0  0  0  0  0  0  0  0
   -2.8305    0.1914    0.0000 H   0  0  0  0  0  0  0  0  0  0  0  0
   -1.6880    1.7459    0.0000 H   0  0  0  0  0  0  0  0  0  0  0  0
   -0.3555   -1.2375    0.0000 H   0  0  0  0  0  0  0  0  0  0  0  0
    2.0745   -0.3109    0.0000 H   0  0  0  0  0  0  0  0  0  0  0  0
    2.6095   -1.2375    0.0000 H   0  0  0  0  0  0  0  0  0  0  0  0
    1.4170   -2.8786    0.0000 H   0  0  0  0  0  0  0  0  0  0  0  0
    2.4870   -2.8786    0.0000 H   0  0  0  0  0  0  0  0  0  0  0  0
    3.7245   -3.5930    0.0000 H   0  0  0  0  0  0  0  0  0  0  0  0
    4.5495   -3.5930    0.0000 H   0  0  0  0  0  0  0  0  0  0  0  0
    4.5495   -1.7398    0.0000 H   0  0  0  0  0  0  0  0  0  0  0  0
    5.0845   -2.6664    0.0000 H   0  0  0  0  0  0  0  0  0  0  0  0
    1.7070   -3.3809    0.0000 H   0  0  0  0  0  0  0  0  0  0  0  0
    3.3120   -4.3075    0.0000 H   0  0  0  0  0  0  0  0  0  0  0  0
    2.2420   -4.3076    0.0000 H   0  0  0  0  0  0  0  0  0  0  0  0
    3.7245   -0.3109    0.0000 H   0  0  0  0  0  0  0  0  0  0  0  0
    3.3120    0.4036    0.0000 H   0  0  0  0  0  0  0  0  0  0  0  0
    1.7070   -0.5230    0.0000 H   0  0  0  0  0  0  0  0  0  0  0  0
    2.2420    0.4037    0.0000 H   0  0  0  0  0  0  0  0  0  0  0  0
    4.5495   -2.1641    0.0000 H   0  0  0  0  0  0  0  0  0  0  0  0
    4.5495   -0.3109    0.0000 H   0  0  0  0  0  0  0  0  0  0  0  0
    5.0845   -1.2375    0.0000 H   0  0  0  0  0  0  0  0  0  0  0  0
    1.7465   -2.6664    0.0000 H   0  0  0  0  0  0  0  0  0  0  0  0
    0.8180   -4.2746    0.0000 H   0  0  0  0  0  0  0  0  0  0  0  0
   -1.0390   -4.2746    0.0000 H   0  0  0  0  0  0  0  0  0  0  0  0
   -1.9675   -2.6664    0.0000 H   0  0  0  0  0  0  0  0  0  0  0  0
   -1.0390   -1.0583    0.0000 H   0  0  0  0  0  0  0  0  0  0  0  0
  1  2  1  0  0  0  0
  1 31  1  0  0  0  0
  1 32  1  0  0  0  0
  1 33  1  0  0  0  0
  2  3  1  0  0  0  0
  2  4  1  0  0  0  0
  2 34  1  0  0  0  0
  3 35  1  0  0  0  0
  3 36  1  0  0  0  0
  3 37  1  0  0  0  0
  4  5  2  0  0  0  0
  4  6  1  0  0  0  0
  6  7  1  0  0  0  0
  7  8  2  0  0  0  0
  7 12  1  0  0  0  0
  8  9  1  0  0  0  0
  8 15  1  0  0  0  0
  9 10  2  0  0  0  0
  9 38  1  0  0  0  0
 10 11  1  0  0  0  0
 10 13  1  0  0  0  0
 11 12  2  0  0  0  0
 11 39  1  0  0  0  0
 12 40  1  0  0  0  0
 13 14  1  0  0  0  0
 13 41  1  0  0  0  0
 13 42  1  0  0  0  0
 14 43  1  0  0  0  0
 15 16  1  0  0  0  0
 15 25  1  0  0  0  0
 15 44  1  1  0  0  0
 16 17  1  0  0  0  0
 16 45  1  0  0  0  0
 16 46  1  0  0  0  0
 17 18  1  0  0  0  0
 17 47  1  0  0  0  0
 17 48  1  0  0  0  0
 18 19  1  0  0  0  0
 18 22  1  0  0  0  0
 19 20  1  0  0  0  0
 19 21  1  0  0  0  0
 19 49  1  0  0  0  0
 20 50  1  0  0  0  0
 20 51  1  0  0  0  0
 20 52  1  0  0  0  0
 21 53  1  0  0  0  0
 21 54  1  0  0  0  0
 21 55  1  0  0  0  0
 22 23  1  0  0  0  0
 22 24  1  0  0  0  0
 22 56  1  0  0  0  0
 23 57  1  0  0  0  0
 23 58  1  0  0  0  0
 23 59  1  0  0  0  0
 24 60  1  0  0  0  0
 24 61  1  0  0  0  0
 24 62  1  0  0  0  0
 25 26  2  0  0  0  0
 25 30  1  0  0  0  0
 26 27  1  0  0  0  0
 26 63  1  0  0  0  0
 27 28  2  0  0  0  0
 27 64  1  0  0  0  0
 28 29  1  0  0  0  0
 28 65  1  0  0  0  0
 29 30  2  0  0  0  0
 29 66  1  0  0  0  0
 30 67  1  0  0  0  0
M  END
>  <DRUGBANK_ID>
DB06702

>  <COMMON_NAME>
Fesoterodine

>  <CAS_NUMBER>
286930-02-7

>  <UNII>
621G617227

>  <SYNONYMS>
FESO; Fesoterodina; Fesoterodine

$$$$
