
 OpenBabel10282417072D

119122  0  0  0  0  0  0  0  0999 V2000
   -1.4780    2.1369    0.0000 C   0  0  0  0  0  0  0  0  0  0  0  0
   -1.4780    1.3062    0.0000 C   0  0  1  0  0  0  0  0  0  0  0  0
   -0.7632    0.8944    0.0000 C   0  0  0  0  0  0  0  0  0  0  0  0
   -0.7632    2.5517    0.0000 C   0  0  0  0  0  0  0  0  0  0  0  0
   -0.0457    2.1369    0.0000 C   0  0  1  0  0  0  0  0  0  0  0  0
   -0.0441    1.3062    0.0000 C   0  0  1  0  0  0  0  0  0  0  0  0
    0.6713    0.8959    0.0000 C   0  0  0  0  0  0  0  0  0  0  0  0
    1.3881    1.3090    0.0000 C   0  0  2  0  0  0  0  0  0  0  0  0
    0.6679    2.5529    0.0000 C   0  0  2  0  0  0  0  0  0  0  0  0
    1.3905    2.1368    0.0000 C   0  0  2  0  0  0  0  0  0  0  0  0
    1.3875    3.8003    0.0000 C   0  0  0  0  0  0  0  0  0  0  0  0
    0.6638    3.3814    0.0000 C   0  0  0  0  0  0  0  0  0  0  0  0
    2.1056    3.3844    0.0000 C   0  0  1  0  0  0  0  0  0  0  0  0
    2.1025    2.5500    0.0000 C   0  0  1  0  0  0  0  0  0  0  0  0
    2.8948    2.2899    0.0000 C   0  0  0  0  0  0  0  0  0  0  0  0
    3.3861    2.9643    0.0000 C   0  0  0  0  0  0  0  0  0  0  0  0
    2.8993    3.6364    0.0000 C   0  0  2  0  0  0  0  0  0  0  0  0
   -0.0540    2.9606    0.0000 C   0  0  0  0  0  0  0  0  0  0  0  0
    1.3869    2.9634    0.0000 H   0  0  0  0  0  0  0  0  0  0  0  0
    0.6613    1.7346    0.0000 H   0  0  0  0  0  0  0  0  0  0  0  0
    2.0984    1.7278    0.0000 H   0  0  0  0  0  0  0  0  0  0  0  0
    2.0984    4.2086    0.0000 C   0  0  0  0  0  0  0  0  0  0  0  0
    3.6141    4.0482    0.0000 C   0  0  1  0  0  0  0  0  0  0  0  0
    4.3288    3.6364    0.0000 C   0  0  0  0  0  0  0  0  0  0  0  0
    3.6141    4.8720    0.0000 C   0  0  0  0  0  0  0  0  0  0  0  0
    5.0438    4.0482    0.0000 C   0  0  0  0  0  0  0  0  0  0  0  0
    5.7544    3.6364    0.0000 C   0  0  2  0  0  0  0  0  0  0  0  0
    5.7544    2.8126    0.0000 C   0  0  0  0  0  0  0  0  0  0  0  0
    6.4692    2.4006    0.0000 C   0  0  0  0  0  0  0  0  0  0  0  0
    5.0438    2.4006    0.0000 C   0  0  0  0  0  0  0  0  0  0  0  0
    2.5691    4.3910    0.0000 H   0  0  0  0  0  0  0  0  0  0  0  0
    2.1017    0.8953    0.0000 O   0  0  0  0  0  0  0  0  0  0  0  0
    6.4692    4.0482    0.0000 O   0  0  0  0  0  0  0  0  0  0  0  0
    7.1800    3.6364    0.0000 S   0  0  0  0  0  0  0  0  0  0  0  0
    7.8947    3.2244    0.0000 O   0  0  0  0  0  0  0  0  0  0  0  0
    6.7680    2.9215    0.0000 O   0  0  0  0  0  0  0  0  0  0  0  0
    7.5918    4.3511    0.0000 O   0  0  0  0  0  0  0  0  0  0  0  0
   -2.1886    0.8944    0.0000 N   0  0  0  0  0  0  0  0  0  0  0  0
   -2.9034    1.3063    0.0000 C   0  0  0  0  0  0  0  0  0  0  0  0
   -3.6140    0.8944    0.0000 C   0  0  0  0  0  0  0  0  0  0  0  0
   -4.3289    1.3063    0.0000 C   0  0  0  0  0  0  0  0  0  0  0  0
   -5.0437    0.8944    0.0000 N   0  0  0  0  0  0  0  0  0  0  0  0
   -5.0437    0.0706    0.0000 C   0  0  0  0  0  0  0  0  0  0  0  0
   -5.7585   -0.3412    0.0000 C   0  0  0  0  0  0  0  0  0  0  0  0
   -5.7585   -1.1650    0.0000 C   0  0  0  0  0  0  0  0  0  0  0  0
   -6.4692   -1.5769    0.0000 C   0  0  0  0  0  0  0  0  0  0  0  0
   -6.4692   -2.4007    0.0000 N   0  0  0  0  0  0  0  0  0  0  0  0
   -7.1841   -2.8126    0.0000 C   0  0  0  0  0  0  0  0  0  0  0  0
   -7.1841   -3.6364    0.0000 C   0  0  0  0  0  0  0  0  0  0  0  0
   -7.8947   -4.0482    0.0000 C   0  0  0  0  0  0  0  0  0  0  0  0
   -7.8947   -4.8720    0.0000 N   0  0  0  0  0  0  0  0  0  0  0  0
   -0.0441    0.4824    0.0000 H   0  0  0  0  0  0  0  0  0  0  0  0
   -2.4052    2.6709    0.0000 H   0  0  0  0  0  0  0  0  0  0  0  0
   -2.4044    1.6014    0.0000 H   0  0  0  0  0  0  0  0  0  0  0  0
   -1.4766    0.2362    0.0000 H   0  0  0  0  0  0  0  0  0  0  0  0
   -0.7646   -0.1756    0.0000 H   0  0  0  0  0  0  0  0  0  0  0  0
    0.1622    0.3572    0.0000 H   0  0  0  0  0  0  0  0  0  0  0  0
   -0.7641    3.6217    0.0000 H   0  0  0  0  0  0  0  0  0  0  0  0
    0.1634    3.0868    0.0000 H   0  0  0  0  0  0  0  0  0  0  0  0
    0.6724   -0.1741    0.0000 H   0  0  0  0  0  0  0  0  0  0  0  0
    1.5980    0.3610    0.0000 H   0  0  0  0  0  0  0  0  0  0  0  0
    1.3867    0.2390    0.0000 H   0  0  0  0  0  0  0  0  0  0  0  0
    1.3876    4.8703    0.0000 H   0  0  0  0  0  0  0  0  0  0  0  0
    0.4606    4.3348    0.0000 H   0  0  0  0  0  0  0  0  0  0  0  0
   -0.2645    3.9136    0.0000 H   0  0  0  0  0  0  0  0  0  0  0  0
    0.6616    4.4514    0.0000 H   0  0  0  0  0  0  0  0  0  0  0  0
    3.2232    1.2716    0.0000 H   0  0  0  0  0  0  0  0  0  0  0  0
    3.9513    2.1207    0.0000 H   0  0  0  0  0  0  0  0  0  0  0  0
    4.4561    2.9628    0.0000 H   0  0  0  0  0  0  0  0  0  0  0  0
    3.8732    3.9170    0.0000 H   0  0  0  0  0  0  0  0  0  0  0  0
    0.8672    3.5049    0.0000 H   0  0  0  0  0  0  0  0  0  0  0  0
   -0.9860    3.4862    0.0000 H   0  0  0  0  0  0  0  0  0  0  0  0
   -0.0648    4.0305    0.0000 H   0  0  0  0  0  0  0  0  0  0  0  0
    3.0203    4.7517    0.0000 H   0  0  0  0  0  0  0  0  0  0  0  0
    1.1671    4.7355    0.0000 H   0  0  0  0  0  0  0  0  0  0  0  0
    2.0891    5.2786    0.0000 H   0  0  0  0  0  0  0  0  0  0  0  0
    4.5405    4.5836    0.0000 H   0  0  0  0  0  0  0  0  0  0  0  0
    4.3287    2.5664    0.0000 H   0  0  0  0  0  0  0  0  0  0  0  0
    5.2551    3.1009    0.0000 H   0  0  0  0  0  0  0  0  0  0  0  0
    4.5407    5.4070    0.0000 H   0  0  0  0  0  0  0  0  0  0  0  0
    2.6875    5.4070    0.0000 H   0  0  0  0  0  0  0  0  0  0  0  0
    3.6141    5.9420    0.0000 H   0  0  0  0  0  0  0  0  0  0  0  0
    5.0452    5.1182    0.0000 H   0  0  0  0  0  0  0  0  0  0  0  0
    5.9712    4.5818    0.0000 H   0  0  0  0  0  0  0  0  0  0  0  0
    5.7558    4.7064    0.0000 H   0  0  0  0  0  0  0  0  0  0  0  0
    5.7558    1.7426    0.0000 H   0  0  0  0  0  0  0  0  0  0  0  0
    6.4700    1.3306    0.0000 H   0  0  0  0  0  0  0  0  0  0  0  0
    7.3955    2.9363    0.0000 H   0  0  0  0  0  0  0  0  0  0  0  0
    7.3962    1.8663    0.0000 H   0  0  0  0  0  0  0  0  0  0  0  0
    4.1162    2.9339    0.0000 H   0  0  0  0  0  0  0  0  0  0  0  0
    5.0458    1.3306    0.0000 H   0  0  0  0  0  0  0  0  0  0  0  0
    4.1181    1.8639    0.0000 H   0  0  0  0  0  0  0  0  0  0  0  0
    2.1000   -0.0747    0.0000 H   0  0  0  0  0  0  0  0  0  0  0  0
    7.8953    2.2544    0.0000 H   0  0  0  0  0  0  0  0  0  0  0  0
   -2.1874   -0.1256    0.0000 H   0  0  0  0  0  0  0  0  0  0  0  0
   -2.9048    2.3763    0.0000 H   0  0  0  0  0  0  0  0  0  0  0  0
   -3.8308    1.8399    0.0000 H   0  0  0  0  0  0  0  0  0  0  0  0
   -3.6126   -0.1756    0.0000 H   0  0  0  0  0  0  0  0  0  0  0  0
   -4.5401    0.3584    0.0000 H   0  0  0  0  0  0  0  0  0  0  0  0
   -4.3289    2.3763    0.0000 H   0  0  0  0  0  0  0  0  0  0  0  0
   -5.2553    1.8417    0.0000 H   0  0  0  0  0  0  0  0  0  0  0  0
   -5.9268    1.4048    0.0000 H   0  0  0  0  0  0  0  0  0  0  0  0
   -4.1173   -0.4648    0.0000 H   0  0  0  0  0  0  0  0  0  0  0  0
   -5.0444   -0.9994    0.0000 H   0  0  0  0  0  0  0  0  0  0  0  0
   -6.6849    0.1942    0.0000 H   0  0  0  0  0  0  0  0  0  0  0  0
   -6.6853   -0.8760    0.0000 H   0  0  0  0  0  0  0  0  0  0  0  0
   -4.8314   -1.6992    0.0000 H   0  0  0  0  0  0  0  0  0  0  0  0
   -5.7572   -2.2350    0.0000 H   0  0  0  0  0  0  0  0  0  0  0  0
   -7.3963   -1.0427    0.0000 H   0  0  0  0  0  0  0  0  0  0  0  0
   -7.3956   -2.1123    0.0000 H   0  0  0  0  0  0  0  0  0  0  0  0
   -5.5861   -2.9111    0.0000 H   0  0  0  0  0  0  0  0  0  0  0  0
   -8.1105   -2.2772    0.0000 H   0  0  0  0  0  0  0  0  0  0  0  0
   -8.1109   -3.3474    0.0000 H   0  0  0  0  0  0  0  0  0  0  0  0
   -6.2570   -4.1706    0.0000 H   0  0  0  0  0  0  0  0  0  0  0  0
   -7.1828   -4.7064    0.0000 H   0  0  0  0  0  0  0  0  0  0  0  0
   -8.8218   -3.5140    0.0000 H   0  0  0  0  0  0  0  0  0  0  0  0
   -8.8211   -4.5836    0.0000 H   0  0  0  0  0  0  0  0  0  0  0  0
   -8.7780   -5.3820    0.0000 H   0  0  0  0  0  0  0  0  0  0  0  0
   -7.0114   -5.3820    0.0000 H   0  0  0  0  0  0  0  0  0  0  0  0
  1  4  1  0  0  0  0
  1  2  1  0  0  0  0
  1 53  1  0  0  0  0
  1 54  1  0  0  0  0
  2  3  1  0  0  0  0
  2 38  1  0  0  0  0
  2 55  1  6  0  0  0
  3  6  1  0  0  0  0
  3 56  1  0  0  0  0
  3 57  1  0  0  0  0
  4 58  1  0  0  0  0
  4 59  1  0  0  0  0
  5  4  1  0  0  0  0
  5  6  1  0  0  0  0
  5 18  1  1  0  0  0
  5  9  1  0  0  0  0
  6  7  1  0  0  0  0
  6 52  1  6  0  0  0
  7  8  1  0  0  0  0
  7 60  1  0  0  0  0
  7 61  1  0  0  0  0
  8 32  1  0  0  0  0
  8 10  1  0  0  0  0
  8 62  1  1  0  0  0
  9 10  1  0  0  0  0
  9 12  1  0  0  0  0
  9 20  1  6  0  0  0
 10 14  1  0  0  0  0
 10 19  1  1  0  0  0
 11 12  1  0  0  0  0
 11 63  1  0  0  0  0
 11 64  1  0  0  0  0
 12 65  1  0  0  0  0
 12 66  1  0  0  0  0
 13 11  1  0  0  0  0
 13 14  1  0  0  0  0
 13 22  1  1  0  0  0
 14 15  1  0  0  0  0
 14 21  1  6  0  0  0
 15 16  1  0  0  0  0
 15 67  1  0  0  0  0
 15 68  1  0  0  0  0
 16 17  1  0  0  0  0
 16 69  1  0  0  0  0
 16 70  1  0  0  0  0
 17 31  1  6  0  0  0
 17 13  1  0  0  0  0
 17 23  1  0  0  0  0
 18 71  1  0  0  0  0
 18 72  1  0  0  0  0
 18 73  1  0  0  0  0
 22 74  1  0  0  0  0
 22 75  1  0  0  0  0
 22 76  1  0  0  0  0
 23 24  1  0  0  0  0
 23 25  1  0  0  0  0
 23 77  1  1  0  0  0
 24 26  1  0  0  0  0
 24 78  1  0  0  0  0
 24 79  1  0  0  0  0
 25 80  1  0  0  0  0
 25 81  1  0  0  0  0
 25 82  1  0  0  0  0
 26 27  1  0  0  0  0
 26 83  1  0  0  0  0
 26 84  1  0  0  0  0
 27 28  1  0  0  0  0
 27 33  1  0  0  0  0
 27 85  1  6  0  0  0
 28 29  1  0  0  0  0
 28 30  1  0  0  0  0
 28 86  1  0  0  0  0
 29 87  1  0  0  0  0
 29 88  1  0  0  0  0
 29 89  1  0  0  0  0
 30 90  1  0  0  0  0
 30 91  1  0  0  0  0
 30 92  1  0  0  0  0
 32 93  1  0  0  0  0
 33 34  1  0  0  0  0
 34 35  1  0  0  0  0
 34 36  2  0  0  0  0
 34 37  2  0  0  0  0
 35 94  1  0  0  0  0
 38 39  1  0  0  0  0
 38 95  1  0  0  0  0
 39 40  1  0  0  0  0
 39 96  1  0  0  0  0
 39 97  1  0  0  0  0
 40 41  1  0  0  0  0
 40 98  1  0  0  0  0
 40 99  1  0  0  0  0
 41 42  1  0  0  0  0
 41100  1  0  0  0  0
 41101  1  0  0  0  0
 42 43  1  0  0  0  0
 42102  1  0  0  0  0
 43 44  1  0  0  0  0
 43103  1  0  0  0  0
 43104  1  0  0  0  0
 44 45  1  0  0  0  0
 44105  1  0  0  0  0
 44106  1  0  0  0  0
 45 46  1  0  0  0  0
 45107  1  0  0  0  0
 45108  1  0  0  0  0
 46 47  1  0  0  0  0
 46109  1  0  0  0  0
 46110  1  0  0  0  0
 47 48  1  0  0  0  0
 47111  1  0  0  0  0
 48 49  1  0  0  0  0
 48112  1  0  0  0  0
 48113  1  0  0  0  0
 49 50  1  0  0  0  0
 49114  1  0  0  0  0
 49115  1  0  0  0  0
 50 51  1  0  0  0  0
 50116  1  0  0  0  0
 50117  1  0  0  0  0
 51118  1  0  0  0  0
 51119  1  0  0  0  0
M  END
>  <DRUGBANK_ID>
DB06333

>  <COMMON_NAME>
Trodusquemine

>  <CAS_NUMBER>
186139-09-3

>  <UNII>
KKC12PIF16

>  <SYNONYMS>
Trodusquemine

$$$$
