
 OpenBabel10282417072D

 38 40  0  0  0  0  0  0  0  0999 V2000
   -1.8212   -0.6979    0.0000 C   0  0  0  0  0  0  0  0  0  0  0  0
   -1.4087   -1.4124    0.0000 C   0  0  0  0  0  0  0  0  0  0  0  0
   -1.4087    0.0165    0.0000 C   0  0  0  0  0  0  0  0  0  0  0  0
   -0.5837   -1.4124    0.0000 C   0  0  0  0  0  0  0  0  0  0  0  0
   -0.5837    0.0165    0.0000 C   0  0  0  0  0  0  0  0  0  0  0  0
    2.6378    0.1271    0.0000 C   0  0  0  0  0  0  0  0  0  0  0  0
    2.6378   -1.5229    0.0000 C   0  0  0  0  0  0  0  0  0  0  0  0
    1.1387   -0.0305    0.0000 C   0  0  0  0  0  0  0  0  0  0  0  0
    1.9233   -0.2854    0.0000 C   0  0  0  0  0  0  0  0  0  0  0  0
   -0.1712   -0.6979    0.0000 C   0  0  0  0  0  0  0  0  0  0  0  0
    1.9233   -1.1104    0.0000 C   0  0  0  0  0  0  0  0  0  0  0  0
    3.3523   -0.2854    0.0000 C   0  0  0  0  0  0  0  0  0  0  0  0
    3.3523   -1.1104    0.0000 C   0  0  0  0  0  0  0  0  0  0  0  0
    1.1387   -1.3654    0.0000 C   0  0  0  0  0  0  0  0  0  0  0  0
    4.0668    0.1271    0.0000 Cl  0  0  0  0  0  0  0  0  0  0  0  0
    4.7812   -1.9354    0.0000 N   0  0  0  0  0  0  0  0  0  0  0  0
    0.6538   -0.6979    0.0000 N   0  0  0  0  0  0  0  0  0  0  0  0
    0.8838   -2.1500    0.0000 O   0  0  0  0  0  0  0  0  0  0  0  0
    3.6543   -2.2374    0.0000 O   0  0  0  0  0  0  0  0  0  0  0  0
    4.4793   -0.8085    0.0000 O   0  0  0  0  0  0  0  0  0  0  0  0
    4.0668   -1.5229    0.0000 S   0  0  0  0  0  0  0  0  0  0  0  0
   -2.8912   -0.6979    0.0000 H   0  0  0  0  0  0  0  0  0  0  0  0
   -2.3562    0.2288    0.0000 H   0  0  0  0  0  0  0  0  0  0  0  0
   -1.9437   -2.3390    0.0000 H   0  0  0  0  0  0  0  0  0  0  0  0
   -0.8737   -2.3390    0.0000 H   0  0  0  0  0  0  0  0  0  0  0  0
   -1.9437    0.9432    0.0000 H   0  0  0  0  0  0  0  0  0  0  0  0
   -0.8737    0.9431    0.0000 H   0  0  0  0  0  0  0  0  0  0  0  0
   -0.0487   -2.3390    0.0000 H   0  0  0  0  0  0  0  0  0  0  0  0
    0.4863   -1.4124    0.0000 H   0  0  0  0  0  0  0  0  0  0  0  0
   -0.0487    0.9432    0.0000 H   0  0  0  0  0  0  0  0  0  0  0  0
    0.4863    0.0165    0.0000 H   0  0  0  0  0  0  0  0  0  0  0  0
    2.6378    1.1591    0.0000 H   0  0  0  0  0  0  0  0  0  0  0  0
    2.6378   -2.5549    0.0000 H   0  0  0  0  0  0  0  0  0  0  0  0
    0.8080    0.9871    0.0000 H   0  0  0  0  0  0  0  0  0  0  0  0
    0.0819    0.1369    0.0000 H   0  0  0  0  0  0  0  0  0  0  0  0
    0.3638    0.2288    0.0000 H   0  0  0  0  0  0  0  0  0  0  0  0
    4.7812   -2.9554    0.0000 H   0  0  0  0  0  0  0  0  0  0  0  0
    5.6646   -1.4254    0.0000 H   0  0  0  0  0  0  0  0  0  0  0  0
  1 22  1  0  0  0  0
  1 23  1  0  0  0  0
  2  1  1  0  0  0  0
  2 24  1  0  0  0  0
  2 25  1  0  0  0  0
  3  1  1  0  0  0  0
  3 26  1  0  0  0  0
  3 27  1  0  0  0  0
  4  2  1  0  0  0  0
  4 28  1  0  0  0  0
  4 29  1  0  0  0  0
  5  3  1  0  0  0  0
  5 30  1  0  0  0  0
  5 31  1  0  0  0  0
  6 32  1  0  0  0  0
  7 33  1  0  0  0  0
  8 34  1  0  0  0  0
  8 35  1  0  0  0  0
  9  6  2  0  0  0  0
  9  8  1  0  0  0  0
 10  4  1  0  0  0  0
 10  5  1  0  0  0  0
 10 36  1  0  0  0  0
 11  7  2  0  0  0  0
 11  9  1  0  0  0  0
 12  6  1  0  0  0  0
 13  7  1  0  0  0  0
 13 12  2  0  0  0  0
 14 11  1  0  0  0  0
 15 12  1  0  0  0  0
 16 37  1  0  0  0  0
 16 38  1  0  0  0  0
 17  8  1  0  0  0  0
 17 10  1  0  0  0  0
 17 14  1  0  0  0  0
 18 14  2  0  0  0  0
 21 13  1  0  0  0  0
 21 16  1  0  0  0  0
 21 19  2  0  0  0  0
 21 20  2  0  0  0  0
M  END
>  <DRUGBANK_ID>
DB13617

>  <COMMON_NAME>
Clorexolone

>  <CAS_NUMBER>
2127-01-7

>  <UNII>
Q2PLT3FS05

>  <SYNONYMS>
Clorexolone

$$$$
