
 OpenBabel10282417072D

 96 99  0  0  0  0  0  0  0  0999 V2000
    3.9957    2.5676    0.0000 O   0  0  0  0  0  0  0  0  0  0  0  0
    6.8536    3.3926    0.0000 O   0  0  0  0  0  0  0  0  0  0  0  0
    3.3057   -0.8814    0.0000 O   0  0  0  0  0  0  0  0  0  0  0  0
    2.9252    0.5385    0.0000 O   0  0  0  0  0  0  0  0  0  0  0  0
   -4.8815   -3.6946    0.0000 O   0  0  0  0  0  0  0  0  0  0  0  0
   -6.0137   -1.5190    0.0000 O   0  0  0  0  0  0  0  0  0  0  0  0
   -6.8537   -0.3630    0.0000 O   0  0  0  0  0  0  0  0  0  0  0  0
    4.7102    2.1551    0.0000 C   0  0  2  0  0  0  0  0  0  0  0  0
    4.7102    2.9801    0.0000 C   0  0  1  0  0  0  0  0  0  0  0  0
    5.4246    1.7426    0.0000 C   0  0  0  0  0  0  0  0  0  0  0  0
    5.4246    3.3926    0.0000 C   0  0  0  0  0  0  0  0  0  0  0  0
    4.2977    1.4406    0.0000 C   0  0  0  0  0  0  0  0  0  0  0  0
    6.1391    2.1551    0.0000 C   0  0  0  0  0  0  0  0  0  0  0  0
    6.1391    2.9801    0.0000 C   0  0  2  0  0  0  0  0  0  0  0  0
    4.2977    3.6946    0.0000 C   0  0  0  0  0  0  0  0  0  0  0  0
    5.0374    1.0142    0.0000 C   0  0  0  0  0  0  0  0  0  0  0  0
    5.8119    1.0142    0.0000 C   0  0  0  0  0  0  0  0  0  0  0  0
    4.7102    0.7262    0.0000 C   0  0  0  0  0  0  0  0  0  0  0  0
    4.2977    0.0117    0.0000 C   0  0  0  0  0  0  0  0  0  0  0  0
    3.4772   -0.0745    0.0000 C   0  0  0  0  0  0  0  0  0  0  0  0
    4.6332   -0.7419    0.0000 C   0  0  0  0  0  0  0  0  0  0  0  0
    4.0201   -1.2939    0.0000 C   0  0  0  0  0  0  0  0  0  0  0  0
   -3.7528   -2.5258    0.0000 C   0  0  0  0  0  0  0  0  0  0  0  0
   -4.4202   -3.0106    0.0000 C   0  0  1  0  0  0  0  0  0  0  0  0
   -3.8390   -1.7052    0.0000 C   0  0  0  0  0  0  0  0  0  0  0  0
   -5.2601   -1.8547    0.0000 C   0  0  2  0  0  0  0  0  0  0  0  0
   -5.1739   -2.6750    0.0000 C   0  0  0  0  0  0  0  0  0  0  0  0
   -4.5926   -1.3696    0.0000 C   0  0  0  0  0  0  0  0  0  0  0  0
    4.1064   -2.1144    0.0000 C   0  0  0  0  0  0  0  0  0  0  0  0
   -2.9991   -2.8612    0.0000 C   0  0  0  0  0  0  0  0  0  0  0  0
   -3.8268   -3.5838    0.0000 C   0  0  0  0  0  0  0  0  0  0  0  0
   -3.0220   -1.5904    0.0000 C   0  0  0  0  0  0  0  0  0  0  0  0
   -3.4774   -0.9637    0.0000 C   0  0  0  0  0  0  0  0  0  0  0  0
   -2.2454   -3.1968    0.0000 C   0  0  0  0  0  0  0  0  0  0  0  0
    3.4389   -2.5993    0.0000 C   0  0  0  0  0  0  0  0  0  0  0  0
   -1.5780   -2.7119    0.0000 C   0  0  0  0  0  0  0  0  0  0  0  0
   -6.1000   -0.6985    0.0000 C   0  0  0  0  0  0  0  0  0  0  0  0
    2.6852   -2.2638    0.0000 C   0  0  0  0  0  0  0  0  0  0  0  0
   -0.8242   -3.0475    0.0000 C   0  0  0  0  0  0  0  0  0  0  0  0
    3.5253   -3.4198    0.0000 C   0  0  0  0  0  0  0  0  0  0  0  0
   -1.6642   -1.8914    0.0000 C   0  0  0  0  0  0  0  0  0  0  0  0
   -5.4326   -0.2136    0.0000 C   0  0  0  0  0  0  0  0  0  0  0  0
    2.0178   -2.7487    0.0000 C   0  0  0  0  0  0  0  0  0  0  0  0
   -0.1569   -2.5626    0.0000 C   0  0  0  0  0  0  0  0  0  0  0  0
    1.2641   -2.4131    0.0000 C   0  0  0  0  0  0  0  0  0  0  0  0
    0.5967   -2.8982    0.0000 C   0  0  0  0  0  0  0  0  0  0  0  0
    7.6936    2.9076    0.0000 H   0  0  0  0  0  0  0  0  0  0  0  0
   -5.8491   -3.6270    0.0000 H   0  0  0  0  0  0  0  0  0  0  0  0
    5.4246    4.4626    0.0000 H   0  0  0  0  0  0  0  0  0  0  0  0
    6.3512    3.9276    0.0000 H   0  0  0  0  0  0  0  0  0  0  0  0
    3.2657    1.4406    0.0000 H   0  0  0  0  0  0  0  0  0  0  0  0
    7.0657    1.6201    0.0000 H   0  0  0  0  0  0  0  0  0  0  0  0
    7.0657    2.6901    0.0000 H   0  0  0  0  0  0  0  0  0  0  0  0
    6.1391    4.0501    0.0000 H   0  0  0  0  0  0  0  0  0  0  0  0
    4.8327    4.6212    0.0000 H   0  0  0  0  0  0  0  0  0  0  0  0
    3.2277    3.6946    0.0000 H   0  0  0  0  0  0  0  0  0  0  0  0
    3.7627    4.6213    0.0000 H   0  0  0  0  0  0  0  0  0  0  0  0
    3.9681    0.9767    0.0000 H   0  0  0  0  0  0  0  0  0  0  0  0
    5.6045    0.1068    0.0000 H   0  0  0  0  0  0  0  0  0  0  0  0
    4.5352    0.0694    0.0000 H   0  0  0  0  0  0  0  0  0  0  0  0
    5.2449    0.1068    0.0000 H   0  0  0  0  0  0  0  0  0  0  0  0
    6.8812    0.9769    0.0000 H   0  0  0  0  0  0  0  0  0  0  0  0
    6.3142    0.0694    0.0000 H   0  0  0  0  0  0  0  0  0  0  0  0
    5.7422    0.7262    0.0000 H   0  0  0  0  0  0  0  0  0  0  0  0
    5.6426   -0.9565    0.0000 H   0  0  0  0  0  0  0  0  0  0  0  0
   -6.1258   -2.4835    0.0000 H   0  0  0  0  0  0  0  0  0  0  0  0
   -6.0396   -3.3039    0.0000 H   0  0  0  0  0  0  0  0  0  0  0  0
   -6.1514   -2.2398    0.0000 H   0  0  0  0  0  0  0  0  0  0  0  0
   -4.7045   -0.3055    0.0000 H   0  0  0  0  0  0  0  0  0  0  0  0
   -5.5701   -0.9345    0.0000 H   0  0  0  0  0  0  0  0  0  0  0  0
    5.0492   -2.5341    0.0000 H   0  0  0  0  0  0  0  0  0  0  0  0
   -4.0858   -4.6220    0.0000 H   0  0  0  0  0  0  0  0  0  0  0  0
   -2.7982   -3.2890    0.0000 H   0  0  0  0  0  0  0  0  0  0  0  0
   -3.0572   -4.3272    0.0000 H   0  0  0  0  0  0  0  0  0  0  0  0
   -2.3633   -2.4336    0.0000 H   0  0  0  0  0  0  0  0  0  0  0  0
   -2.6211   -0.5983    0.0000 H   0  0  0  0  0  0  0  0  0  0  0  0
   -1.9624   -1.4415    0.0000 H   0  0  0  0  0  0  0  0  0  0  0  0
   -2.4100   -0.8890    0.0000 H   0  0  0  0  0  0  0  0  0  0  0  0
   -4.0758   -0.0767    0.0000 H   0  0  0  0  0  0  0  0  0  0  0  0
   -3.0084   -0.0020    0.0000 H   0  0  0  0  0  0  0  0  0  0  0  0
   -2.1375   -4.2231    0.0000 H   0  0  0  0  0  0  0  0  0  0  0  0
    2.5773   -1.2375    0.0000 H   0  0  0  0  0  0  0  0  0  0  0  0
   -0.7163   -4.0738    0.0000 H   0  0  0  0  0  0  0  0  0  0  0  0
    2.6598   -4.0489    0.0000 H   0  0  0  0  0  0  0  0  0  0  0  0
    4.5029   -3.8548    0.0000 H   0  0  0  0  0  0  0  0  0  0  0  0
    3.6374   -4.4839    0.0000 H   0  0  0  0  0  0  0  0  0  0  0  0
   -0.7985   -1.2625    0.0000 H   0  0  0  0  0  0  0  0  0  0  0  0
   -2.6417   -1.4561    0.0000 H   0  0  0  0  0  0  0  0  0  0  0  0
   -1.7760   -0.8273    0.0000 H   0  0  0  0  0  0  0  0  0  0  0  0
   -4.4551   -0.6488    0.0000 H   0  0  0  0  0  0  0  0  0  0  0  0
   -5.5445    0.8505    0.0000 H   0  0  0  0  0  0  0  0  0  0  0  0
   -4.5670    0.4153    0.0000 H   0  0  0  0  0  0  0  0  0  0  0  0
    2.1257   -3.7750    0.0000 H   0  0  0  0  0  0  0  0  0  0  0  0
   -0.2648   -1.5363    0.0000 H   0  0  0  0  0  0  0  0  0  0  0  0
    1.1561   -1.3868    0.0000 H   0  0  0  0  0  0  0  0  0  0  0  0
    0.7046   -3.9245    0.0000 H   0  0  0  0  0  0  0  0  0  0  0  0
  1  9  1  0  0  0  0
  2 47  1  0  0  0  0
  3 20  1  0  0  0  0
  3 22  1  0  0  0  0
  4 20  2  0  0  0  0
  5 48  1  0  0  0  0
  6 37  1  0  0  0  0
  7 37  2  0  0  0  0
  8  1  1  0  0  0  0
  8  9  1  0  0  0  0
  8 10  1  0  0  0  0
  8 12  1  1  0  0  0
  9 11  1  0  0  0  0
  9 15  1  1  0  0  0
 10 13  1  0  0  0  0
 10 16  1  0  0  0  0
 10 17  1  0  0  0  0
 11 14  1  0  0  0  0
 11 49  1  0  0  0  0
 11 50  1  0  0  0  0
 12 18  2  0  0  0  0
 12 51  1  0  0  0  0
 13 14  1  0  0  0  0
 13 52  1  0  0  0  0
 13 53  1  0  0  0  0
 14  2  1  0  0  0  0
 14 54  1  6  0  0  0
 15 55  1  0  0  0  0
 15 56  1  0  0  0  0
 15 57  1  0  0  0  0
 16 58  1  0  0  0  0
 16 59  1  0  0  0  0
 16 60  1  0  0  0  0
 17 61  1  0  0  0  0
 17 62  1  0  0  0  0
 17 63  1  0  0  0  0
 18 19  1  0  0  0  0
 18 64  1  0  0  0  0
 19 20  1  0  0  0  0
 19 21  2  0  0  0  0
 21 22  1  0  0  0  0
 21 65  1  0  0  0  0
 22 29  2  0  0  0  0
 23 24  1  0  0  0  0
 23 25  1  0  0  0  0
 23 30  2  0  0  0  0
 24  5  1  6  0  0  0
 24 27  1  0  0  0  0
 24 31  1  0  0  0  0
 25 28  1  0  0  0  0
 25 32  1  0  0  0  0
 25 33  1  0  0  0  0
 26  6  1  0  0  0  0
 26 27  1  0  0  0  0
 26 28  1  0  0  0  0
 26 66  1  6  0  0  0
 27 67  1  0  0  0  0
 27 68  1  0  0  0  0
 28 69  1  0  0  0  0
 28 70  1  0  0  0  0
 29 35  1  0  0  0  0
 29 71  1  0  0  0  0
 30 34  2  0  0  0  0
 31 72  1  0  0  0  0
 31 73  1  0  0  0  0
 31 74  1  0  0  0  0
 32 75  1  0  0  0  0
 32 76  1  0  0  0  0
 32 77  1  0  0  0  0
 33 78  1  0  0  0  0
 33 79  1  0  0  0  0
 33 80  1  0  0  0  0
 34 36  1  0  0  0  0
 34 81  1  0  0  0  0
 35 38  2  0  0  0  0
 35 40  1  0  0  0  0
 36 39  2  0  0  0  0
 36 41  1  0  0  0  0
 37 42  1  0  0  0  0
 38 43  1  0  0  0  0
 38 82  1  0  0  0  0
 39 44  1  0  0  0  0
 39 83  1  0  0  0  0
 40 84  1  0  0  0  0
 40 85  1  0  0  0  0
 40 86  1  0  0  0  0
 41 87  1  0  0  0  0
 41 88  1  0  0  0  0
 41 89  1  0  0  0  0
 42 90  1  0  0  0  0
 42 91  1  0  0  0  0
 42 92  1  0  0  0  0
 43 45  2  0  0  0  0
 43 93  1  0  0  0  0
 44 46  2  0  0  0  0
 44 94  1  0  0  0  0
 45 46  1  0  0  0  0
 45 95  1  0  0  0  0
 46 96  1  0  0  0  0
M  END
>  <DRUGBANK_ID>
DB03001

>  <SECONDARY_ACCESSION_NUMBERS>
EXPT02596

>  <COMMON_NAME>
Peridinin

>  <CAS_NUMBER>
33281-81-1

$$$$
