
 OpenBabel10282417072D

107112  0  0  1  0  0  0  0  0999 V2000
   10.7279    6.6236    0.0000 C   0  0  0  0  0  0  0  0  0  0  0  0
   10.5693    5.7961    0.0000 C   0  0  0  0  0  0  0  0  0  0  0  0
    9.7695    5.4912    0.0000 C   0  0  0  0  0  0  0  0  0  0  0  0
    9.6505    4.6358    0.0000 C   0  0  0  0  0  0  0  0  0  0  0  0
    8.9320    4.1617    0.0000 O   0  0  0  0  0  0  0  0  0  0  0  0
    8.5056    3.4024    0.0000 C   0  0  3  0  0  0  0  0  0  0  0  0
    9.1443    2.8221    0.0000 C   0  0  0  0  0  0  0  0  0  0  0  0
    7.6249    3.2829    0.0000 C   0  0  0  0  0  0  0  0  0  0  0  0
    7.3667    2.4993    0.0000 C   0  0  0  0  0  0  0  0  0  0  0  0
    7.8150    1.7634    0.0000 C   0  0  0  0  0  0  0  0  0  0  0  0
    6.5417    2.5028    0.0000 C   0  0  0  0  0  0  0  0  0  0  0  0
    5.8029    1.7257    0.0000 C   0  0  0  0  0  0  0  0  0  0  0  0
    5.0079    1.5051    0.0000 C   0  0  0  0  0  0  0  0  0  0  0  0
    4.2223    1.2535    0.0000 N   0  0  0  0  0  0  0  0  0  0  0  0
    3.7402    1.9229    0.0000 C   0  0  0  0  0  0  0  0  0  0  0  0
    4.2279    2.5883    0.0000 C   0  0  1  0  0  0  0  0  0  0  0  0
    4.1517    3.3397    0.0000 C   0  0  0  0  0  0  0  0  0  0  0  0
    4.3577    4.1383    0.0000 C   0  0  0  0  0  0  0  0  0  0  0  0
    5.1497    4.3496    0.0000 C   0  0  0  0  0  0  0  0  0  0  0  0
    4.8598    3.6611    0.0000 O   0  0  0  0  0  0  0  0  0  0  0  0
    5.8451    4.7384    0.0000 O   0  0  0  0  0  0  0  0  0  0  0  0
    6.4387    4.1391    0.0000 C   0  0  0  0  0  0  0  0  0  0  0  0
    5.0114    2.3301    0.0000 C   0  0  2  0  0  0  0  0  0  0  0  0
    5.8275    2.3036    0.0000 C   0  0  0  0  0  0  0  0  0  0  0  0
    2.9630    2.6617    0.0000 C   0  0  0  0  0  0  0  0  0  0  0  0
    2.9568    3.4867    0.0000 C   0  0  0  0  0  0  0  0  0  0  0  0
    2.2393    3.8938    0.0000 C   0  0  0  0  0  0  0  0  0  0  0  0
    2.4047    4.7020    0.0000 C   0  0  0  0  0  0  0  0  0  0  0  0
    1.8825    5.3882    0.0000 C   0  0  0  0  0  0  0  0  0  0  0  0
    3.2246    4.7944    0.0000 C   0  0  0  0  0  0  0  0  0  0  0  0
    3.5657    4.0433    0.0000 N   0  0  0  0  0  0  0  0  0  0  0  0
    3.8990    5.5016    0.0000 C   0  0  0  0  0  0  0  0  0  0  0  0
    4.6940    5.7222    0.0000 C   0  0  0  0  0  0  0  0  0  0  0  0
    5.1761    5.0527    0.0000 N   0  0  0  0  0  0  0  0  0  0  0  0
    5.9618    5.3043    0.0000 C   0  0  0  0  0  0  0  0  0  0  0  0
    6.7390    4.5656    0.0000 C   0  0  0  0  0  0  0  0  0  0  0  0
    6.9595    3.7706    0.0000 C   0  0  0  0  0  0  0  0  0  0  0  0
    6.2901    3.2885    0.0000 N   0  0  0  0  0  0  0  0  0  0  0  0
    5.9653    6.1293    0.0000 C   0  0  2  0  0  0  0  0  0  0  0  0
    6.6388    6.6780    0.0000 C   0  0  0  0  0  0  0  0  0  0  0  0
    5.1817    6.3876    0.0000 C   0  0  1  0  0  0  0  0  0  0  0  0
    4.9522    7.2443    0.0000 C   0  0  0  0  0  0  0  0  0  0  0  0
    5.3741    7.9893    0.0000 C   0  0  0  0  0  0  0  0  0  0  0  0
    1.5279    3.4760    0.0000 C   0  0  0  0  0  0  0  0  0  0  0  0
    0.8655    4.0322    0.0000 O   0  0  0  0  0  0  0  0  0  0  0  0
    1.5341    2.6510    0.0000 N   0  0  0  0  0  0  0  0  0  0  0  0
    0.7802    2.2056    0.0000 C   0  0  0  0  0  0  0  0  0  0  0  0
   -0.0642    2.3946    0.0000 C   0  0  0  0  0  0  0  0  0  0  0  0
   -0.8554    2.0607    0.0000 C   0  0  0  0  0  0  0  0  0  0  0  0
   -1.5789    2.5072    0.0000 C   0  0  0  0  0  0  0  0  0  0  0  0
    2.2516    2.2439    0.0000 C   0  0  0  0  0  0  0  0  0  0  0  0
    2.2014    1.3794    0.0000 O   0  0  0  0  0  0  0  0  0  0  0  0
   11.7387    6.9746    0.0000 H   0  0  0  0  0  0  0  0  0  0  0  0
    9.9185    7.3235    0.0000 H   0  0  0  0  0  0  0  0  0  0  0  0
   10.9293    7.6745    0.0000 H   0  0  0  0  0  0  0  0  0  0  0  0
   11.3891    5.1084    0.0000 H   0  0  0  0  0  0  0  0  0  0  0  0
   10.3916    4.7410    0.0000 H   0  0  0  0  0  0  0  0  0  0  0  0
    8.9324    6.1577    0.0000 H   0  0  0  0  0  0  0  0  0  0  0  0
    8.7759    5.0942    0.0000 H   0  0  0  0  0  0  0  0  0  0  0  0
   10.5554    4.0648    0.0000 H   0  0  0  0  0  0  0  0  0  0  0  0
    9.6614    3.5659    0.0000 H   0  0  0  0  0  0  0  0  0  0  0  0
    9.5618    3.5737    0.0000 H   0  0  0  0  0  0  0  0  0  0  0  0
    8.9171    1.7765    0.0000 H   0  0  0  0  0  0  0  0  0  0  0  0
   10.1634    3.1482    0.0000 H   0  0  0  0  0  0  0  0  0  0  0  0
    9.9362    2.1026    0.0000 H   0  0  0  0  0  0  0  0  0  0  0  0
    7.3020    0.8244    0.0000 H   0  0  0  0  0  0  0  0  0  0  0  0
    8.8847    1.7886    0.0000 H   0  0  0  0  0  0  0  0  0  0  0  0
    8.3717    0.8496    0.0000 H   0  0  0  0  0  0  0  0  0  0  0  0
    6.3341    0.8409    0.0000 H   0  0  0  0  0  0  0  0  0  0  0  0
    3.1955    2.8693    0.0000 H   0  0  0  0  0  0  0  0  0  0  0  0
    3.0848    3.4206    0.0000 H   0  0  0  0  0  0  0  0  0  0  0  0
    3.5288    4.2097    0.0000 H   0  0  0  0  0  0  0  0  0  0  0  0
    3.5980    4.8918    0.0000 H   0  0  0  0  0  0  0  0  0  0  0  0
    4.6331    5.1723    0.0000 H   0  0  0  0  0  0  0  0  0  0  0  0
    6.1568    3.1069    0.0000 H   0  0  0  0  0  0  0  0  0  0  0  0
    7.4736    4.4111    0.0000 H   0  0  0  0  0  0  0  0  0  0  0  0
    7.1917    3.3789    0.0000 H   0  0  0  0  0  0  0  0  0  0  0  0
    5.1981    3.3837    0.0000 H   0  0  0  0  0  0  0  0  0  0  0  0
    6.3321    1.3601    0.0000 H   0  0  0  0  0  0  0  0  0  0  0  0
    6.3923    3.2124    0.0000 H   0  0  0  0  0  0  0  0  0  0  0  0
    6.8969    2.2689    0.0000 H   0  0  0  0  0  0  0  0  0  0  0  0
    2.2959    6.3751    0.0000 H   0  0  0  0  0  0  0  0  0  0  0  0
    0.8211    5.2528    0.0000 H   0  0  0  0  0  0  0  0  0  0  0  0
    1.2345    6.2397    0.0000 H   0  0  0  0  0  0  0  0  0  0  0  0
    4.5302    3.8458    0.0000 H   0  0  0  0  0  0  0  0  0  0  0  0
    3.3685    6.3868    0.0000 H   0  0  0  0  0  0  0  0  0  0  0  0
    7.6238    5.0968    0.0000 H   0  0  0  0  0  0  0  0  0  0  0  0
    5.3551    3.5967    0.0000 H   0  0  0  0  0  0  0  0  0  0  0  0
    6.9308    5.6680    0.0000 H   0  0  0  0  0  0  0  0  0  0  0  0
    7.6389    6.2975    0.0000 H   0  0  0  0  0  0  0  0  0  0  0  0
    6.4683    7.7343    0.0000 H   0  0  0  0  0  0  0  0  0  0  0  0
    7.4683    7.3538    0.0000 H   0  0  0  0  0  0  0  0  0  0  0  0
    5.9594    7.1225    0.0000 H   0  0  0  0  0  0  0  0  0  0  0  0
    3.8908    7.3796    0.0000 H   0  0  0  0  0  0  0  0  0  0  0  0
    4.4730    8.2010    0.0000 H   0  0  0  0  0  0  0  0  0  0  0  0
    6.4441    7.9982    0.0000 H   0  0  0  0  0  0  0  0  0  0  0  0
    4.8314    8.9115    0.0000 H   0  0  0  0  0  0  0  0  0  0  0  0
    5.9014    8.9204    0.0000 H   0  0  0  0  0  0  0  0  0  0  0  0
    0.9472    1.1487    0.0000 H   0  0  0  0  0  0  0  0  0  0  0  0
   -0.0000    1.4734    0.0000 H   0  0  0  0  0  0  0  0  0  0  0  0
   -0.1599    3.4603    0.0000 H   0  0  0  0  0  0  0  0  0  0  0  0
   -0.9814    2.9456    0.0000 H   0  0  0  0  0  0  0  0  0  0  0  0
   -0.9375    0.9939    0.0000 H   0  0  0  0  0  0  0  0  0  0  0  0
   -1.8091    1.5756    0.0000 H   0  0  0  0  0  0  0  0  0  0  0  0
   -1.5475    3.5767    0.0000 H   0  0  0  0  0  0  0  0  0  0  0  0
   -2.5208    1.9996    0.0000 H   0  0  0  0  0  0  0  0  0  0  0  0
   -2.4895    3.0691    0.0000 H   0  0  0  0  0  0  0  0  0  0  0  0
  1  2  1  0  0  0  0
  1 53  1  0  0  0  0
  1 54  1  0  0  0  0
  1 55  1  0  0  0  0
  2  3  1  0  0  0  0
  2 56  1  0  0  0  0
  2 57  1  0  0  0  0
  3  4  1  0  0  0  0
  3 58  1  0  0  0  0
  3 59  1  0  0  0  0
  4  5  1  0  0  0  0
  4 60  1  0  0  0  0
  4 61  1  0  0  0  0
  5  6  1  0  0  0  0
  6  7  1  0  0  0  0
  6  8  1  0  0  0  0
  6 62  1  0  0  0  0
  7 63  1  0  0  0  0
  7 64  1  0  0  0  0
  7 65  1  0  0  0  0
  8  9  2  0  0  0  0
  8 37  1  0  0  0  0
  9 10  1  0  0  0  0
  9 11  1  0  0  0  0
 10 66  1  0  0  0  0
 10 67  1  0  0  0  0
 10 68  1  0  0  0  0
 11 12  2  0  0  0  0
 11 38  1  0  0  0  0
 12 13  1  0  0  0  0
 12 69  1  0  0  0  0
 13 14  2  0  0  0  0
 14 15  1  0  0  0  0
 15 25  2  0  0  0  0
 16 15  1  0  0  0  0
 16 17  1  0  0  0  0
 16 23  1  0  0  0  0
 16 70  1  6  0  0  0
 17 18  1  0  0  0  0
 17 71  1  0  0  0  0
 17 72  1  0  0  0  0
 18 19  1  0  0  0  0
 18 73  1  0  0  0  0
 18 74  1  0  0  0  0
 19 20  2  0  0  0  0
 19 21  1  0  0  0  0
 21 22  1  0  0  0  0
 22 75  1  0  0  0  0
 22 76  1  0  0  0  0
 22 77  1  0  0  0  0
 23 13  1  0  0  0  0
 23 24  1  0  0  0  0
 23 78  1  1  0  0  0
 24 79  1  0  0  0  0
 24 80  1  0  0  0  0
 24 81  1  0  0  0  0
 25 26  1  0  0  0  0
 25 51  1  0  0  0  0
 26 27  2  0  0  0  0
 26 31  1  0  0  0  0
 27 28  1  0  0  0  0
 27 44  1  0  0  0  0
 28 29  1  0  0  0  0
 28 30  2  0  0  0  0
 29 82  1  0  0  0  0
 29 83  1  0  0  0  0
 29 84  1  0  0  0  0
 30 31  1  0  0  0  0
 30 32  1  0  0  0  0
 31 85  1  0  0  0  0
 32 33  2  0  0  0  0
 32 86  1  0  0  0  0
 33 34  1  0  0  0  0
 34 35  2  0  0  0  0
 35 36  1  0  0  0  0
 36 37  2  0  0  0  0
 36 87  1  0  0  0  0
 37 38  1  0  0  0  0
 38 88  1  0  0  0  0
 39 35  1  0  0  0  0
 39 40  1  0  0  0  0
 39 41  1  0  0  0  0
 39 89  1  6  0  0  0
 40 90  1  0  0  0  0
 40 91  1  0  0  0  0
 40 92  1  0  0  0  0
 41 33  1  0  0  0  0
 41 42  1  0  0  0  0
 41 93  1  1  0  0  0
 42 43  1  0  0  0  0
 42 94  1  0  0  0  0
 42 95  1  0  0  0  0
 43 96  1  0  0  0  0
 43 97  1  0  0  0  0
 43 98  1  0  0  0  0
 44 45  2  0  0  0  0
 44 46  1  0  0  0  0
 46 47  1  0  0  0  0
 46 51  1  0  0  0  0
 47 48  1  0  0  0  0
 47 99  1  0  0  0  0
 47100  1  0  0  0  0
 48 49  1  0  0  0  0
 48101  1  0  0  0  0
 48102  1  0  0  0  0
 49 50  1  0  0  0  0
 49103  1  0  0  0  0
 49104  1  0  0  0  0
 50105  1  0  0  0  0
 50106  1  0  0  0  0
 50107  1  0  0  0  0
 51 52  2  0  0  0  0
M  END
>  <DRUGBANK_ID>
DB17134

>  <COMMON_NAME>
Methyl bacteriopurpurinimide

>  <CAS_NUMBER>
2044523-17-1

>  <UNII>
E7DBJ0SBC7

>  <SYNONYMS>
3-(1-butyloxy)ethyl-3-deacetyl-bacteriopurpurin-18-n-butylimide methyl ester; 9,12-imino-2,21-metheno-7,4:14,17-dinitrilo-4h-pyrido(4,3-b)azacyclononadecine-16-propanoic acid, 10-(1-butoxyethyl)-19-butyl-5-ethyl-1,5,6,15,16,18,19,20-octahydro-6,11,15,22-tetramethyl-18,20-dioxo-, (5r,6r,15s,16s)-; Bacteriopurpurinimide-methyl ester; Photobac

$$$$
