
 OpenBabel10282417072D

 87 89  0  0  0  0  0  0  0  0999 V2000
   -5.7158    0.4124    0.0000 O   0  0  0  0  0  0  0  0  0  0  0  0
    5.7158    0.4125    0.0000 O   0  0  0  0  0  0  0  0  0  0  0  0
   -5.0014   -0.8249    0.0000 O   0  0  0  0  0  0  0  0  0  0  0  0
    5.0014   -0.8250    0.0000 O   0  0  0  0  0  0  0  0  0  0  0  0
   -7.8593   -0.8250    0.0000 O   0  0  0  0  0  0  0  0  0  0  0  0
   -7.8593    0.8250    0.0000 O   0  0  0  0  0  0  0  0  0  0  0  0
    7.8593   -0.8250    0.0000 O   0  0  0  0  0  0  0  0  0  0  0  0
    7.8593    0.8250    0.0000 O   0  0  0  0  0  0  0  0  0  0  0  0
   -6.4303   -1.6500    0.0000 O   0  0  0  0  0  0  0  0  0  0  0  0
    6.4303   -1.6500    0.0000 O   0  0  0  0  0  0  0  0  0  0  0  0
   -5.7159    2.0625    0.0000 O   0  0  0  0  0  0  0  0  0  0  0  0
    5.7158    2.0625    0.0000 O   0  0  0  0  0  0  0  0  0  0  0  0
   -1.4289    0.4124    0.0000 O   0  0  0  0  0  0  0  0  0  0  0  0
    1.4289    0.4125    0.0000 O   0  0  0  0  0  0  0  0  0  0  0  0
   -2.1434   -0.8250    0.0000 N   0  0  0  0  0  0  0  0  0  0  0  0
    2.1434   -0.8250    0.0000 N   0  0  0  0  0  0  0  0  0  0  0  0
    0.7144   -3.3000    0.0000 N   0  0  0  0  0  0  0  0  0  0  0  0
    0.7144   -4.1250    0.0000 N   0  3  0  0  0  0  0  0  0  0  0  0
    0.7145   -4.9501    0.0000 N   0  5  0  0  0  0  0  0  0  0  0  0
   -7.1448   -0.4125    0.0000 C   0  0  1  0  0  0  0  0  0  0  0  0
   -7.1448    0.4124    0.0000 C   0  0  1  0  0  0  0  0  0  0  0  0
    7.1448   -0.4124    0.0000 C   0  0  1  0  0  0  0  0  0  0  0  0
    7.1448    0.4125    0.0000 C   0  0  1  0  0  0  0  0  0  0  0  0
   -6.4303   -0.8250    0.0000 C   0  0  1  0  0  0  0  0  0  0  0  0
    6.4303   -0.8249    0.0000 C   0  0  1  0  0  0  0  0  0  0  0  0
   -6.4303    0.8249    0.0000 C   0  0  1  0  0  0  0  0  0  0  0  0
    6.4303    0.8250    0.0000 C   0  0  1  0  0  0  0  0  0  0  0  0
   -5.7158   -0.4125    0.0000 C   0  0  2  0  0  0  0  0  0  0  0  0
    5.7158   -0.4124    0.0000 C   0  0  2  0  0  0  0  0  0  0  0  0
   -6.4303    1.6500    0.0000 C   0  0  0  0  0  0  0  0  0  0  0  0
    6.4303    1.6500    0.0000 C   0  0  0  0  0  0  0  0  0  0  0  0
   -4.2869   -0.4124    0.0000 C   0  0  0  0  0  0  0  0  0  0  0  0
    4.2869   -0.4125    0.0000 C   0  0  0  0  0  0  0  0  0  0  0  0
   -3.5724   -0.8250    0.0000 C   0  0  0  0  0  0  0  0  0  0  0  0
    3.5724   -0.8250    0.0000 C   0  0  0  0  0  0  0  0  0  0  0  0
   -2.8579   -0.4125    0.0000 C   0  0  0  0  0  0  0  0  0  0  0  0
    2.8579   -0.4125    0.0000 C   0  0  0  0  0  0  0  0  0  0  0  0
   -1.4289   -0.4125    0.0000 C   0  0  0  0  0  0  0  0  0  0  0  0
    1.4289   -0.4124    0.0000 C   0  0  0  0  0  0  0  0  0  0  0  0
   -0.7144   -0.8250    0.0000 C   0  0  0  0  0  0  0  0  0  0  0  0
    0.7144   -0.8249    0.0000 C   0  0  0  0  0  0  0  0  0  0  0  0
    0.0000   -0.4125    0.0000 C   0  0  0  0  0  0  0  0  0  0  0  0
   -0.7145   -1.6500    0.0000 C   0  0  0  0  0  0  0  0  0  0  0  0
    0.7145   -1.6500    0.0000 C   0  0  0  0  0  0  0  0  0  0  0  0
    0.0000   -2.0625    0.0000 C   0  0  0  0  0  0  0  0  0  0  0  0
    0.0000   -2.8875    0.0000 C   0  0  0  0  0  0  0  0  0  0  0  0
   -2.1434   -1.3365    0.0000 H   0  0  0  0  0  0  0  0  0  0  0  0
    2.1434   -1.3365    0.0000 H   0  0  0  0  0  0  0  0  0  0  0  0
   -8.6993   -0.3400    0.0000 H   0  0  0  0  0  0  0  0  0  0  0  0
   -7.8592    1.7950    0.0000 H   0  0  0  0  0  0  0  0  0  0  0  0
    7.8592   -1.7950    0.0000 H   0  0  0  0  0  0  0  0  0  0  0  0
    8.6993    0.3400    0.0000 H   0  0  0  0  0  0  0  0  0  0  0  0
   -7.2703   -2.1350    0.0000 H   0  0  0  0  0  0  0  0  0  0  0  0
    5.5903   -2.1350    0.0000 H   0  0  0  0  0  0  0  0  0  0  0  0
   -4.8758    1.5775    0.0000 H   0  0  0  0  0  0  0  0  0  0  0  0
    5.7158    3.0325    0.0000 H   0  0  0  0  0  0  0  0  0  0  0  0
   -8.0714    0.1225    0.0000 H   0  0  0  0  0  0  0  0  0  0  0  0
   -8.0715   -0.1226    0.0000 H   0  0  0  0  0  0  0  0  0  0  0  0
    8.0715    0.1226    0.0000 H   0  0  0  0  0  0  0  0  0  0  0  0
    8.0714   -0.1225    0.0000 H   0  0  0  0  0  0  0  0  0  0  0  0
   -7.3569   -1.3600    0.0000 H   0  0  0  0  0  0  0  0  0  0  0  0
    7.3569   -1.3599    0.0000 H   0  0  0  0  0  0  0  0  0  0  0  0
   -5.5037    1.3599    0.0000 H   0  0  0  0  0  0  0  0  0  0  0  0
    5.5037    1.3600    0.0000 H   0  0  0  0  0  0  0  0  0  0  0  0
   -4.7892    0.1225    0.0000 H   0  0  0  0  0  0  0  0  0  0  0  0
    4.7891    0.1225    0.0000 H   0  0  0  0  0  0  0  0  0  0  0  0
   -7.3570    2.1850    0.0000 H   0  0  0  0  0  0  0  0  0  0  0  0
   -7.3569    1.1150    0.0000 H   0  0  0  0  0  0  0  0  0  0  0  0
    7.3569    2.1850    0.0000 H   0  0  0  0  0  0  0  0  0  0  0  0
    7.3569    1.1150    0.0000 H   0  0  0  0  0  0  0  0  0  0  0  0
   -4.2868    0.6576    0.0000 H   0  0  0  0  0  0  0  0  0  0  0  0
   -3.3602    0.1225    0.0000 H   0  0  0  0  0  0  0  0  0  0  0  0
    4.2869    0.6575    0.0000 H   0  0  0  0  0  0  0  0  0  0  0  0
    3.3603    0.1225    0.0000 H   0  0  0  0  0  0  0  0  0  0  0  0
   -3.5725   -1.8950    0.0000 H   0  0  0  0  0  0  0  0  0  0  0  0
   -2.6458   -1.3600    0.0000 H   0  0  0  0  0  0  0  0  0  0  0  0
    3.5724   -1.8950    0.0000 H   0  0  0  0  0  0  0  0  0  0  0  0
    2.6458   -1.3600    0.0000 H   0  0  0  0  0  0  0  0  0  0  0  0
   -2.8579    0.6575    0.0000 H   0  0  0  0  0  0  0  0  0  0  0  0
   -3.7845    0.1225    0.0000 H   0  0  0  0  0  0  0  0  0  0  0  0
    2.8579    0.6575    0.0000 H   0  0  0  0  0  0  0  0  0  0  0  0
    3.7845    0.1225    0.0000 H   0  0  0  0  0  0  0  0  0  0  0  0
   -0.0001    0.6195    0.0000 H   0  0  0  0  0  0  0  0  0  0  0  0
   -1.6083   -2.1660    0.0000 H   0  0  0  0  0  0  0  0  0  0  0  0
    1.6083   -2.1660    0.0000 H   0  0  0  0  0  0  0  0  0  0  0  0
   -0.9267   -3.4225    0.0000 H   0  0  0  0  0  0  0  0  0  0  0  0
   -0.9266   -2.3525    0.0000 H   0  0  0  0  0  0  0  0  0  0  0  0
  1 26  1  0  0  0  0
  1 28  1  0  0  0  0
  2 27  1  0  0  0  0
  2 29  1  0  0  0  0
  3 32  1  0  0  0  0
  4 33  1  0  0  0  0
  5 49  1  0  0  0  0
  6 50  1  0  0  0  0
  7 51  1  0  0  0  0
  8 52  1  0  0  0  0
  9 53  1  0  0  0  0
 10 54  1  0  0  0  0
 11 30  1  0  0  0  0
 11 55  1  0  0  0  0
 12 31  1  0  0  0  0
 12 56  1  0  0  0  0
 13 38  2  0  0  0  0
 14 39  2  0  0  0  0
 15 36  1  0  0  0  0
 15 38  1  0  0  0  0
 15 47  1  0  0  0  0
 16 37  1  0  0  0  0
 16 39  1  0  0  0  0
 16 48  1  0  0  0  0
 17 18  2  0  0  0  0
 17 46  1  0  0  0  0
 18 19  2  0  0  0  0
 20  5  1  0  0  0  0
 20 21  1  0  0  0  0
 20 24  1  0  0  0  0
 20 57  1  6  0  0  0
 21  6  1  0  0  0  0
 21 26  1  0  0  0  0
 21 58  1  1  0  0  0
 22  7  1  0  0  0  0
 22 23  1  0  0  0  0
 22 25  1  0  0  0  0
 22 59  1  1  0  0  0
 23  8  1  0  0  0  0
 23 27  1  0  0  0  0
 23 60  1  6  0  0  0
 24  9  1  0  0  0  0
 24 28  1  0  0  0  0
 24 61  1  6  0  0  0
 25 10  1  0  0  0  0
 25 29  1  0  0  0  0
 25 62  1  1  0  0  0
 26 30  1  0  0  0  0
 26 63  1  6  0  0  0
 27 31  1  0  0  0  0
 27 64  1  1  0  0  0
 28  3  1  0  0  0  0
 28 65  1  1  0  0  0
 29  4  1  0  0  0  0
 29 66  1  6  0  0  0
 30 67  1  0  0  0  0
 30 68  1  0  0  0  0
 31 69  1  0  0  0  0
 31 70  1  0  0  0  0
 32 34  1  0  0  0  0
 32 71  1  0  0  0  0
 32 72  1  0  0  0  0
 33 35  1  0  0  0  0
 33 73  1  0  0  0  0
 33 74  1  0  0  0  0
 34 36  1  0  0  0  0
 34 75  1  0  0  0  0
 34 76  1  0  0  0  0
 35 37  1  0  0  0  0
 35 77  1  0  0  0  0
 35 78  1  0  0  0  0
 36 79  1  0  0  0  0
 36 80  1  0  0  0  0
 37 81  1  0  0  0  0
 37 82  1  0  0  0  0
 38 40  1  0  0  0  0
 39 41  1  0  0  0  0
 40 42  2  0  0  0  0
 40 43  1  0  0  0  0
 41 42  1  0  0  0  0
 41 44  2  0  0  0  0
 42 83  1  0  0  0  0
 43 45  2  0  0  0  0
 43 84  1  0  0  0  0
 44 45  1  0  0  0  0
 44 85  1  0  0  0  0
 45 46  1  0  0  0  0
 46 86  1  0  0  0  0
 46 87  1  0  0  0  0
M  CHG  2  18   1  19  -1
M  END
>  <DRUGBANK_ID>
DB03634

>  <SECONDARY_ACCESSION_NUMBERS>
EXPT01335

>  <COMMON_NAME>
1,3-DI(N-Propyloxy-A-mannopyranosyl)-carbomyl 5-methyazido-benzene

$$$$
