I84
 OpenBabel10282417072D

 49 50  0  0  0  0  0  0  0  0999 V2000
   -4.2067    0.5728    0.0000 C   0  0  0  0  0  0  0  0  0  0  0  0
   -3.4922    0.9853    0.0000 C   0  0  0  0  0  0  0  0  0  0  0  0
   -2.7777    0.5728    0.0000 C   0  0  0  0  0  0  0  0  0  0  0  0
   -2.7777   -0.2522    0.0000 C   0  0  0  0  0  0  0  0  0  0  0  0
   -3.4922   -0.6647    0.0000 C   0  0  0  0  0  0  0  0  0  0  0  0
   -4.2067   -0.2522    0.0000 C   0  0  0  0  0  0  0  0  0  0  0  0
   -3.4922    1.8103    0.0000 C   0  0  0  0  0  0  0  0  0  0  0  0
   -2.0633    0.9853    0.0000 C   0  0  0  0  0  0  0  0  0  0  0  0
   -1.3488    0.5728    0.0000 C   0  0  0  0  0  0  0  0  0  0  0  0
   -0.6343    0.9853    0.0000 N   0  0  0  0  0  0  0  0  0  0  0  0
    0.0802    0.5728    0.0000 C   0  0  0  0  0  0  0  0  0  0  0  0
   -1.3488   -0.2522    0.0000 O   0  0  0  0  0  0  0  0  0  0  0  0
    0.7946    0.9853    0.0000 C   0  0  0  0  0  0  0  0  0  0  0  0
    1.5091    0.5728    0.0000 C   0  0  0  0  0  0  0  0  0  0  0  0
    1.5091   -0.2522    0.0000 C   0  0  0  0  0  0  0  0  0  0  0  0
    0.7946   -0.6647    0.0000 C   0  0  0  0  0  0  0  0  0  0  0  0
    0.0802   -0.2522    0.0000 C   0  0  0  0  0  0  0  0  0  0  0  0
    0.7946   -1.4897    0.0000 C   0  0  0  0  0  0  0  0  0  0  0  0
    2.2236    0.9853    0.0000 C   0  0  0  0  0  0  0  0  0  0  0  0
    2.2236   -0.6647    0.0000 S   0  0  0  0  0  0  0  0  0  0  0  0
    2.9380   -1.0772    0.0000 N   0  0  0  0  0  0  0  0  0  0  0  0
    3.6525   -0.6647    0.0000 C   0  0  0  0  0  0  0  0  0  0  0  0
    4.3670   -1.0772    0.0000 C   0  0  0  0  0  0  0  0  0  0  0  0
    5.0815   -0.6647    0.0000 O   0  0  0  0  0  0  0  0  0  0  0  0
    4.3670   -1.9022    0.0000 O   0  0  0  0  0  0  0  0  0  0  0  0
    1.8111   -1.3792    0.0000 O   0  0  0  0  0  0  0  0  0  0  0  0
    2.6361    0.0497    0.0000 O   0  0  0  0  0  0  0  0  0  0  0  0
   -5.1004    1.0888    0.0000 H   0  0  0  0  0  0  0  0  0  0  0  0
   -1.8840   -0.7682    0.0000 H   0  0  0  0  0  0  0  0  0  0  0  0
   -3.4922   -1.6967    0.0000 H   0  0  0  0  0  0  0  0  0  0  0  0
   -5.1004   -0.7682    0.0000 H   0  0  0  0  0  0  0  0  0  0  0  0
   -2.5656    2.3453    0.0000 H   0  0  0  0  0  0  0  0  0  0  0  0
   -4.4188    2.3453    0.0000 H   0  0  0  0  0  0  0  0  0  0  0  0
   -3.4922    2.8803    0.0000 H   0  0  0  0  0  0  0  0  0  0  0  0
   -2.0633    2.0553    0.0000 H   0  0  0  0  0  0  0  0  0  0  0  0
   -1.1367    1.5203    0.0000 H   0  0  0  0  0  0  0  0  0  0  0  0
   -0.6343    1.9698    0.0000 H   0  0  0  0  0  0  0  0  0  0  0  0
    0.7946    2.0173    0.0000 H   0  0  0  0  0  0  0  0  0  0  0  0
   -0.8135   -0.7682    0.0000 H   0  0  0  0  0  0  0  0  0  0  0  0
   -0.1320   -2.0247    0.0000 H   0  0  0  0  0  0  0  0  0  0  0  0
    1.7212   -2.0247    0.0000 H   0  0  0  0  0  0  0  0  0  0  0  0
    0.7946   -2.5597    0.0000 H   0  0  0  0  0  0  0  0  0  0  0  0
    3.1502    0.4503    0.0000 H   0  0  0  0  0  0  0  0  0  0  0  0
    2.2236    2.0553    0.0000 H   0  0  0  0  0  0  0  0  0  0  0  0
    3.1503    1.5203    0.0000 H   0  0  0  0  0  0  0  0  0  0  0  0
    2.9380   -2.0972    0.0000 H   0  0  0  0  0  0  0  0  0  0  0  0
    3.6525    0.4053    0.0000 H   0  0  0  0  0  0  0  0  0  0  0  0
    4.5791   -0.1297    0.0000 H   0  0  0  0  0  0  0  0  0  0  0  0
    5.8930   -1.1332    0.0000 H   0  0  0  0  0  0  0  0  0  0  0  0
  1  2  2  0  0  0  0
  1  6  1  0  0  0  0
  1 28  1  0  0  0  0
  2  3  1  0  0  0  0
  2  7  1  0  0  0  0
  3  4  2  0  0  0  0
  3  8  1  0  0  0  0
  4  5  1  0  0  0  0
  4 29  1  0  0  0  0
  5  6  2  0  0  0  0
  5 30  1  0  0  0  0
  6 31  1  0  0  0  0
  7 32  1  0  0  0  0
  7 33  1  0  0  0  0
  7 34  1  0  0  0  0
  8  9  1  0  0  0  0
  8 35  1  0  0  0  0
  8 36  1  0  0  0  0
  9 10  1  0  0  0  0
  9 12  2  0  0  0  0
 10 11  1  0  0  0  0
 10 37  1  0  0  0  0
 11 13  2  0  0  0  0
 11 17  1  0  0  0  0
 13 14  1  0  0  0  0
 13 38  1  0  0  0  0
 14 15  2  0  0  0  0
 14 19  1  0  0  0  0
 15 16  1  0  0  0  0
 15 20  1  0  0  0  0
 16 17  2  0  0  0  0
 16 18  1  0  0  0  0
 17 39  1  0  0  0  0
 18 40  1  0  0  0  0
 18 41  1  0  0  0  0
 18 42  1  0  0  0  0
 19 43  1  0  0  0  0
 19 44  1  0  0  0  0
 19 45  1  0  0  0  0
 20 21  1  0  0  0  0
 20 26  2  0  0  0  0
 20 27  2  0  0  0  0
 21 22  1  0  0  0  0
 21 46  1  0  0  0  0
 22 23  1  0  0  0  0
 22 47  1  0  0  0  0
 22 48  1  0  0  0  0
 23 24  1  0  0  0  0
 23 25  2  0  0  0  0
 24 49  1  0  0  0  0
M  END
>  <DRUGBANK_ID>
DB01689

>  <SECONDARY_ACCESSION_NUMBERS>
EXPT01819

>  <COMMON_NAME>
Inhibitor Idd 384

$$$$
