IN7
 OpenBabel10282417072D

 48 50  0  0  0  0  0  0  0  0999 V2000
    0.3681    0.3486    0.0000 C   0  0  0  0  0  0  0  0  0  0  0  0
    0.3681    1.1736    0.0000 C   0  0  0  0  0  0  0  0  0  0  0  0
    1.0826    1.5861    0.0000 C   0  0  0  0  0  0  0  0  0  0  0  0
   -1.0608   -1.3014    0.0000 C   0  0  0  0  0  0  0  0  0  0  0  0
    1.0826   -0.0639    0.0000 C   0  0  0  0  0  0  0  0  0  0  0  0
    2.0991    2.3006    0.0000 O   0  0  0  0  0  0  0  0  0  0  0  0
    1.7971    1.1736    0.0000 C   0  0  0  0  0  0  0  0  0  0  0  0
    1.7971    0.3486    0.0000 C   0  0  0  0  0  0  0  0  0  0  0  0
    5.3694    1.5861    0.0000 O   0  0  0  0  0  0  0  0  0  0  0  0
    2.5116    1.5861    0.0000 S   0  0  0  0  0  0  0  0  0  0  0  0
   -1.7753   -0.8889    0.0000 C   0  0  0  0  0  0  0  0  0  0  0  0
   -1.7753   -0.0639    0.0000 C   0  0  0  0  0  0  0  0  0  0  0  0
   -1.0608    0.3486    0.0000 C   0  0  0  0  0  0  0  0  0  0  0  0
   -0.3463   -0.0639    0.0000 N   0  0  0  0  0  0  0  0  0  0  0  0
   -0.3463   -0.8889    0.0000 C   0  0  0  0  0  0  0  0  0  0  0  0
   -3.9187   -2.1264    0.0000 C   0  0  0  0  0  0  0  0  0  0  0  0
   -3.9187   -1.3014    0.0000 C   0  0  0  0  0  0  0  0  0  0  0  0
   -3.2042   -0.8889    0.0000 C   0  0  0  0  0  0  0  0  0  0  0  0
   -2.4897   -1.3014    0.0000 C   0  0  0  0  0  0  0  0  0  0  0  0
   -2.4897   -2.1264    0.0000 C   0  0  0  0  0  0  0  0  0  0  0  0
   -3.2042   -2.5389    0.0000 C   0  0  0  0  0  0  0  0  0  0  0  0
    2.9241    0.8716    0.0000 O   0  0  0  0  0  0  0  0  0  0  0  0
    3.2260    1.9986    0.0000 N   0  0  0  0  0  0  0  0  0  0  0  0
    3.9405    1.5861    0.0000 C   0  0  0  0  0  0  0  0  0  0  0  0
    4.6550    1.9986    0.0000 C   0  0  0  0  0  0  0  0  0  0  0  0
    4.6550    2.8236    0.0000 O   0  0  0  0  0  0  0  0  0  0  0  0
   -0.5256    1.6896    0.0000 H   0  0  0  0  0  0  0  0  0  0  0  0
    1.0826    2.6181    0.0000 H   0  0  0  0  0  0  0  0  0  0  0  0
   -1.0608   -2.3714    0.0000 H   0  0  0  0  0  0  0  0  0  0  0  0
   -0.1342   -1.8364    0.0000 H   0  0  0  0  0  0  0  0  0  0  0  0
    1.0826   -1.0959    0.0000 H   0  0  0  0  0  0  0  0  0  0  0  0
    2.6908   -0.1674    0.0000 H   0  0  0  0  0  0  0  0  0  0  0  0
    5.3694    0.6491    0.0000 H   0  0  0  0  0  0  0  0  0  0  0  0
   -2.7020   -0.3539    0.0000 H   0  0  0  0  0  0  0  0  0  0  0  0
   -2.7019    0.4711    0.0000 H   0  0  0  0  0  0  0  0  0  0  0  0
   -1.7753    1.0061    0.0000 H   0  0  0  0  0  0  0  0  0  0  0  0
   -1.0608    1.4186    0.0000 H   0  0  0  0  0  0  0  0  0  0  0  0
   -0.1342    0.8836    0.0000 H   0  0  0  0  0  0  0  0  0  0  0  0
    0.5803   -1.4239    0.0000 H   0  0  0  0  0  0  0  0  0  0  0  0
    0.5803   -0.3539    0.0000 H   0  0  0  0  0  0  0  0  0  0  0  0
   -4.8124   -2.6424    0.0000 H   0  0  0  0  0  0  0  0  0  0  0  0
   -4.8124   -0.7854    0.0000 H   0  0  0  0  0  0  0  0  0  0  0  0
   -3.2042    0.1431    0.0000 H   0  0  0  0  0  0  0  0  0  0  0  0
   -1.5960   -2.6424    0.0000 H   0  0  0  0  0  0  0  0  0  0  0  0
   -3.2042   -3.5709    0.0000 H   0  0  0  0  0  0  0  0  0  0  0  0
    3.2260    3.0186    0.0000 H   0  0  0  0  0  0  0  0  0  0  0  0
    3.9405    0.5161    0.0000 H   0  0  0  0  0  0  0  0  0  0  0  0
    4.8671    1.0511    0.0000 H   0  0  0  0  0  0  0  0  0  0  0  0
  1  2  2  0  0  0  0
  1  5  1  0  0  0  0
  1 14  1  0  0  0  0
  2  3  1  0  0  0  0
  2 27  1  0  0  0  0
  3  7  2  0  0  0  0
  3 28  1  0  0  0  0
  4 11  1  0  0  0  0
  4 15  1  0  0  0  0
  4 29  1  0  0  0  0
  4 30  1  0  0  0  0
  5  8  2  0  0  0  0
  5 31  1  0  0  0  0
  6 10  2  0  0  0  0
  7  8  1  0  0  0  0
  7 10  1  0  0  0  0
  8 32  1  0  0  0  0
  9 25  1  0  0  0  0
  9 33  1  0  0  0  0
 10 22  2  0  0  0  0
 10 23  1  0  0  0  0
 11 12  1  0  0  0  0
 11 19  1  0  0  0  0
 11 34  1  0  0  0  0
 12 13  1  0  0  0  0
 12 35  1  0  0  0  0
 12 36  1  0  0  0  0
 13 14  1  0  0  0  0
 13 37  1  0  0  0  0
 13 38  1  0  0  0  0
 14 15  1  0  0  0  0
 15 39  1  0  0  0  0
 15 40  1  0  0  0  0
 16 17  2  0  0  0  0
 16 21  1  0  0  0  0
 16 41  1  0  0  0  0
 17 18  1  0  0  0  0
 17 42  1  0  0  0  0
 18 19  2  0  0  0  0
 18 43  1  0  0  0  0
 19 20  1  0  0  0  0
 20 21  2  0  0  0  0
 20 44  1  0  0  0  0
 21 45  1  0  0  0  0
 23 24  1  0  0  0  0
 23 46  1  0  0  0  0
 24 25  1  0  0  0  0
 24 47  1  0  0  0  0
 24 48  1  0  0  0  0
 25 26  2  0  0  0  0
M  END
>  <DRUGBANK_ID>
DB07986

>  <COMMON_NAME>
[4-(4-PHENYL-PIPERIDIN-1-YL)-BENZENESULFONYLAMINO]-ACETIC ACID

$$$$
