
 OpenBabel10282417072D

 31 31  0  0  0  0  0  0  0  0999 V2000
   -3.6037    0.1862    0.0000 C   0  0  0  0  0  0  0  0  0  0  0  0
   -2.8501   -0.1494    0.0000 C   0  0  0  0  0  0  0  0  0  0  0  0
   -2.9363   -0.9698    0.0000 N   0  0  0  0  0  0  0  0  0  0  0  0
   -3.7433   -1.1414    0.0000 C   0  0  0  0  0  0  0  0  0  0  0  0
   -4.1558   -0.4269    0.0000 N   0  0  0  0  0  0  0  0  0  0  0  0
   -2.1356    0.2631    0.0000 C   0  0  0  0  0  0  0  0  0  0  0  0
   -1.4211   -0.1494    0.0000 C   0  0  0  0  0  0  0  0  0  0  0  0
   -0.7066    0.2631    0.0000 N   0  0  0  0  0  0  0  0  0  0  0  0
    0.0078   -0.1494    0.0000 C   0  0  0  0  0  0  0  0  0  0  0  0
    0.0078   -0.9744    0.0000 O   0  0  0  0  0  0  0  0  0  0  0  0
    0.7223    0.2631    0.0000 C   0  0  0  0  0  0  0  0  0  0  0  0
    1.4368   -0.1494    0.0000 C   0  0  0  0  0  0  0  0  0  0  0  0
    2.1512    0.2631    0.0000 C   0  0  0  0  0  0  0  0  0  0  0  0
    2.8657   -0.1494    0.0000 C   0  0  0  0  0  0  0  0  0  0  0  0
    3.5802    0.2631    0.0000 O   0  0  0  0  0  0  0  0  0  0  0  0
    2.8657   -0.9744    0.0000 O   0  0  0  0  0  0  0  0  0  0  0  0
   -3.8182    1.1957    0.0000 H   0  0  0  0  0  0  0  0  0  0  0  0
   -4.1630   -2.0842    0.0000 H   0  0  0  0  0  0  0  0  0  0  0  0
   -5.1349   -0.3240    0.0000 H   0  0  0  0  0  0  0  0  0  0  0  0
   -2.1356    1.3331    0.0000 H   0  0  0  0  0  0  0  0  0  0  0  0
   -1.2090    0.7981    0.0000 H   0  0  0  0  0  0  0  0  0  0  0  0
   -1.4211   -1.2194    0.0000 H   0  0  0  0  0  0  0  0  0  0  0  0
   -0.4945   -0.6844    0.0000 H   0  0  0  0  0  0  0  0  0  0  0  0
   -0.7066    1.2476    0.0000 H   0  0  0  0  0  0  0  0  0  0  0  0
    0.7223    1.3331    0.0000 H   0  0  0  0  0  0  0  0  0  0  0  0
    1.6489    0.7981    0.0000 H   0  0  0  0  0  0  0  0  0  0  0  0
    1.4368   -1.2194    0.0000 H   0  0  0  0  0  0  0  0  0  0  0  0
    2.3635   -0.6844    0.0000 H   0  0  0  0  0  0  0  0  0  0  0  0
    2.1512    1.3331    0.0000 H   0  0  0  0  0  0  0  0  0  0  0  0
    3.0778    0.7981    0.0000 H   0  0  0  0  0  0  0  0  0  0  0  0
    2.0542   -1.4429    0.0000 H   0  0  0  0  0  0  0  0  0  0  0  0
  1  2  2  0  0  0  0
  1  5  1  0  0  0  0
  1 17  1  0  0  0  0
  2  3  1  0  0  0  0
  2  6  1  0  0  0  0
  3  4  2  0  0  0  0
  4  5  1  0  0  0  0
  4 18  1  0  0  0  0
  5 19  1  0  0  0  0
  6  7  1  0  0  0  0
  6 20  1  0  0  0  0
  6 21  1  0  0  0  0
  7  8  1  0  0  0  0
  7 22  1  0  0  0  0
  7 23  1  0  0  0  0
  8  9  1  0  0  0  0
  8 24  1  0  0  0  0
  9 10  2  0  0  0  0
  9 11  1  0  0  0  0
 11 12  1  0  0  0  0
 11 25  1  0  0  0  0
 11 26  1  0  0  0  0
 12 13  1  0  0  0  0
 12 27  1  0  0  0  0
 12 28  1  0  0  0  0
 13 14  1  0  0  0  0
 13 29  1  0  0  0  0
 13 30  1  0  0  0  0
 14 15  2  0  0  0  0
 14 16  1  0  0  0  0
 16 31  1  0  0  0  0
M  END
>  <DRUGBANK_ID>
DB11944

>  <COMMON_NAME>
Ingavirin

>  <CAS_NUMBER>
219694-63-0

>  <UNII>
3CM03MUJ69

>  <SYNONYMS>
IMIDAZOLYL ETHANAMIDE PENTANDIOIC ACID

$$$$
