4MR
 OpenBabel10282417072D

 56 60  0  0  0  0  0  0  0  0999 V2000
    2.7123   -2.0721    0.0000 C   0  0  0  0  0  0  0  0  0  0  0  0
    3.4268   -2.4846    0.0000 C   0  0  0  0  0  0  0  0  0  0  0  0
    3.4268   -3.3096    0.0000 C   0  0  0  0  0  0  0  0  0  0  0  0
    2.7123   -3.7221    0.0000 C   0  0  0  0  0  0  0  0  0  0  0  0
    1.9979   -3.3096    0.0000 C   0  0  0  0  0  0  0  0  0  0  0  0
    1.9979   -2.4846    0.0000 C   0  0  0  0  0  0  0  0  0  0  0  0
    1.2834   -2.0721    0.0000 O   0  0  0  0  0  0  0  0  0  0  0  0
    1.2834   -1.2471    0.0000 C   0  0  0  0  0  0  0  0  0  0  0  0
    0.5689   -0.8346    0.0000 C   0  0  0  0  0  0  0  0  0  0  0  0
    0.5689   -0.0096    0.0000 C   0  0  0  0  0  0  0  0  0  0  0  0
    1.9979   -0.8346    0.0000 C   0  0  0  0  0  0  0  0  0  0  0  0
    1.9979   -0.0096    0.0000 C   0  0  0  0  0  0  0  0  0  0  0  0
    1.2834    0.4029    0.0000 C   0  0  0  0  0  0  0  0  0  0  0  0
    1.2834    1.2279    0.0000 C   0  0  0  0  0  0  0  0  0  0  0  0
    1.0012    2.0031    0.0000 C   0  0  0  0  0  0  0  0  0  0  0  0
    0.1888    2.1464    0.0000 O   0  0  0  0  0  0  0  0  0  0  0  0
    1.5315    2.6351    0.0000 N   0  0  0  0  0  0  0  0  0  0  0  0
    2.3440    2.4919    0.0000 C   0  0  0  0  0  0  0  0  0  0  0  0
    2.8743    3.1239    0.0000 O   0  0  0  0  0  0  0  0  0  0  0  0
    2.6262    1.7166    0.0000 N   0  0  0  0  0  0  0  0  0  0  0  0
    2.0959    1.0846    0.0000 C   0  0  0  0  0  0  0  0  0  0  0  0
    2.3780    0.3094    0.0000 O   0  0  0  0  0  0  0  0  0  0  0  0
    0.4709    1.0846    0.0000 N   0  0  0  0  0  0  0  0  0  0  0  0
   -0.0594    1.7166    0.0000 C   0  0  0  0  0  0  0  0  0  0  0  0
   -0.8718    1.5734    0.0000 C   0  0  0  0  0  0  0  0  0  0  0  0
    0.1888    0.3094    0.0000 C   0  0  0  0  0  0  0  0  0  0  0  0
   -0.6237    0.1661    0.0000 C   0  0  0  0  0  0  0  0  0  0  0  0
   -1.1540    0.7981    0.0000 N   0  0  0  0  0  0  0  0  0  0  0  0
   -1.9665    0.6549    0.0000 C   0  0  0  0  0  0  0  0  0  0  0  0
   -2.4968    1.2868    0.0000 N   0  0  0  0  0  0  0  0  0  0  0  0
   -3.3092    1.1436    0.0000 C   0  0  0  0  0  0  0  0  0  0  0  0
   -3.5914    0.3683    0.0000 C   0  0  0  0  0  0  0  0  0  0  0  0
   -3.0611   -0.2636    0.0000 C   0  0  0  0  0  0  0  0  0  0  0  0
   -2.2486   -0.1204    0.0000 N   0  0  0  0  0  0  0  0  0  0  0  0
    2.7123   -1.0401    0.0000 H   0  0  0  0  0  0  0  0  0  0  0  0
    4.3205   -1.9686    0.0000 H   0  0  0  0  0  0  0  0  0  0  0  0
    4.3205   -3.8256    0.0000 H   0  0  0  0  0  0  0  0  0  0  0  0
    2.7123   -4.7541    0.0000 H   0  0  0  0  0  0  0  0  0  0  0  0
    1.1042   -3.8256    0.0000 H   0  0  0  0  0  0  0  0  0  0  0  0
   -0.3248   -1.3506    0.0000 H   0  0  0  0  0  0  0  0  0  0  0  0
   -0.3248    0.5064    0.0000 H   0  0  0  0  0  0  0  0  0  0  0  0
    2.8916   -1.3506    0.0000 H   0  0  0  0  0  0  0  0  0  0  0  0
    2.8916    0.5064    0.0000 H   0  0  0  0  0  0  0  0  0  0  0  0
    1.1947    3.5602    0.0000 H   0  0  0  0  0  0  0  0  0  0  0  0
    3.5957    1.5457    0.0000 H   0  0  0  0  0  0  0  0  0  0  0  0
    0.3066    2.7221    0.0000 H   0  0  0  0  0  0  0  0  0  0  0  0
   -0.7471    2.5363    0.0000 H   0  0  0  0  0  0  0  0  0  0  0  0
   -1.5596    2.3931    0.0000 H   0  0  0  0  0  0  0  0  0  0  0  0
   -1.9255    1.3876    0.0000 H   0  0  0  0  0  0  0  0  0  0  0  0
    0.8766   -0.5102    0.0000 H   0  0  0  0  0  0  0  0  0  0  0  0
   -0.1771   -0.6961    0.0000 H   0  0  0  0  0  0  0  0  0  0  0  0
   -0.9896   -0.8394    0.0000 H   0  0  0  0  0  0  0  0  0  0  0  0
   -1.6774   -0.0197    0.0000 H   0  0  0  0  0  0  0  0  0  0  0  0
   -3.9725    1.9342    0.0000 H   0  0  0  0  0  0  0  0  0  0  0  0
   -4.6077    0.1891    0.0000 H   0  0  0  0  0  0  0  0  0  0  0  0
   -3.4141   -1.2334    0.0000 H   0  0  0  0  0  0  0  0  0  0  0  0
  1  2  2  0  0  0  0
  1  6  1  0  0  0  0
  1 35  1  0  0  0  0
  2  3  1  0  0  0  0
  2 36  1  0  0  0  0
  3  4  2  0  0  0  0
  3 37  1  0  0  0  0
  4  5  1  0  0  0  0
  4 38  1  0  0  0  0
  5  6  2  0  0  0  0
  5 39  1  0  0  0  0
  6  7  1  0  0  0  0
  7  8  1  0  0  0  0
  8  9  2  0  0  0  0
  8 11  1  0  0  0  0
  9 10  1  0  0  0  0
  9 40  1  0  0  0  0
 10 13  2  0  0  0  0
 10 41  1  0  0  0  0
 11 12  2  0  0  0  0
 11 42  1  0  0  0  0
 12 13  1  0  0  0  0
 12 43  1  0  0  0  0
 13 14  1  0  0  0  0
 14 15  1  0  0  0  0
 14 21  1  0  0  0  0
 14 23  1  0  0  0  0
 15 17  1  0  0  0  0
 15 16  2  0  0  0  0
 17 18  1  0  0  0  0
 17 44  1  0  0  0  0
 18 19  2  0  0  0  0
 18 20  1  0  0  0  0
 20 21  1  0  0  0  0
 20 45  1  0  0  0  0
 21 22  2  0  0  0  0
 23 26  1  0  0  0  0
 23 24  1  0  0  0  0
 24 25  1  0  0  0  0
 24 46  1  0  0  0  0
 24 47  1  0  0  0  0
 25 28  1  0  0  0  0
 25 48  1  0  0  0  0
 25 49  1  0  0  0  0
 26 27  1  0  0  0  0
 26 50  1  0  0  0  0
 26 51  1  0  0  0  0
 27 28  1  0  0  0  0
 27 52  1  0  0  0  0
 27 53  1  0  0  0  0
 28 29  1  0  0  0  0
 29 34  1  0  0  0  0
 29 30  2  0  0  0  0
 30 31  1  0  0  0  0
 31 32  2  0  0  0  0
 31 54  1  0  0  0  0
 32 33  1  0  0  0  0
 32 55  1  0  0  0  0
 33 34  2  0  0  0  0
 33 56  1  0  0  0  0
M  END
>  <DRUGBANK_ID>
DB07117

>  <COMMON_NAME>
5-(4-PHENOXYPHENYL)-5-(4-PYRIMIDIN-2-YLPIPERAZIN-1-YL)PYRIMIDINE-2,4,6(2H,3H)-TRIONE

$$$$
