3IG
 OpenBabel10282417072D

 55 57  0  0  0  0  0  0  0  0999 V2000
   -1.8784    2.0698    0.0000 C   0  0  0  0  0  0  0  0  0  0  0  0
   -1.8784    2.8948    0.0000 N   0  0  0  0  0  0  0  0  0  0  0  0
   -1.1639    3.3073    0.0000 C   0  0  0  0  0  0  0  0  0  0  0  0
   -0.4494    2.8948    0.0000 N   0  0  0  0  0  0  0  0  0  0  0  0
   -0.4494    2.0698    0.0000 C   0  0  0  0  0  0  0  0  0  0  0  0
   -1.1639    1.6573    0.0000 C   0  0  0  0  0  0  0  0  0  0  0  0
   -2.5928    1.6573    0.0000 N   0  0  0  0  0  0  0  0  0  0  0  0
   -1.1639    4.1323    0.0000 N   0  0  0  0  0  0  0  0  0  0  0  0
    0.2650    1.6573    0.0000 C   0  0  0  0  0  0  0  0  0  0  0  0
    0.2650    0.8323    0.0000 C   0  0  0  0  0  0  0  0  0  0  0  0
   -1.8784    0.4198    0.0000 C   0  0  0  0  0  0  0  0  0  0  0  0
   -1.8784   -0.4052    0.0000 C   0  0  0  0  0  0  0  0  0  0  0  0
   -1.1639   -0.8177    0.0000 C   0  0  0  0  0  0  0  0  0  0  0  0
   -0.4494   -0.4052    0.0000 C   0  0  0  0  0  0  0  0  0  0  0  0
   -0.4494    0.4198    0.0000 C   0  0  0  0  0  0  0  0  0  0  0  0
   -1.1639    0.8323    0.0000 C   0  0  0  0  0  0  0  0  0  0  0  0
   -1.1639   -1.6427    0.0000 O   0  0  0  0  0  0  0  0  0  0  0  0
   -0.4494   -2.0552    0.0000 C   0  0  0  0  0  0  0  0  0  0  0  0
    0.2650   -1.6427    0.0000 C   0  0  0  0  0  0  0  0  0  0  0  0
    0.2650   -0.8177    0.0000 N   0  0  0  0  0  0  0  0  0  0  0  0
    0.9795   -0.4052    0.0000 C   0  0  0  0  0  0  0  0  0  0  0  0
    1.6940   -0.8177    0.0000 C   0  0  0  0  0  0  0  0  0  0  0  0
    2.4085   -0.4052    0.0000 N   0  0  0  0  0  0  0  0  0  0  0  0
    3.1229   -0.8177    0.0000 C   0  0  0  0  0  0  0  0  0  0  0  0
    3.8374   -0.4052    0.0000 C   0  0  0  0  0  0  0  0  0  0  0  0
   -0.8367   -2.7836    0.0000 C   0  0  0  0  0  0  0  0  0  0  0  0
   -0.0621   -2.7836    0.0000 C   0  0  0  0  0  0  0  0  0  0  0  0
    0.9795   -2.0552    0.0000 O   0  0  0  0  0  0  0  0  0  0  0  0
    3.1229   -1.6427    0.0000 O   0  0  0  0  0  0  0  0  0  0  0  0
   -3.4454    2.1495    0.0000 H   0  0  0  0  0  0  0  0  0  0  0  0
   -2.5928    0.6728    0.0000 H   0  0  0  0  0  0  0  0  0  0  0  0
   -0.3113    4.6246    0.0000 H   0  0  0  0  0  0  0  0  0  0  0  0
   -2.0165    4.6246    0.0000 H   0  0  0  0  0  0  0  0  0  0  0  0
    1.1917    2.1923    0.0000 H   0  0  0  0  0  0  0  0  0  0  0  0
    1.1916    1.1223    0.0000 H   0  0  0  0  0  0  0  0  0  0  0  0
   -0.6616    0.2973    0.0000 H   0  0  0  0  0  0  0  0  0  0  0  0
    1.1916    0.2973    0.0000 H   0  0  0  0  0  0  0  0  0  0  0  0
    0.2650   -0.2377    0.0000 H   0  0  0  0  0  0  0  0  0  0  0  0
   -2.7721    0.9358    0.0000 H   0  0  0  0  0  0  0  0  0  0  0  0
   -2.7721   -0.9212    0.0000 H   0  0  0  0  0  0  0  0  0  0  0  0
    0.4443    0.9358    0.0000 H   0  0  0  0  0  0  0  0  0  0  0  0
    0.9795    0.6648    0.0000 H   0  0  0  0  0  0  0  0  0  0  0  0
    1.9061    0.1298    0.0000 H   0  0  0  0  0  0  0  0  0  0  0  0
    1.6940   -1.8877    0.0000 H   0  0  0  0  0  0  0  0  0  0  0  0
    2.6206   -1.3527    0.0000 H   0  0  0  0  0  0  0  0  0  0  0  0
    2.4085    0.5793    0.0000 H   0  0  0  0  0  0  0  0  0  0  0  0
    4.7640   -0.9402    0.0000 H   0  0  0  0  0  0  0  0  0  0  0  0
    3.8374    0.6648    0.0000 H   0  0  0  0  0  0  0  0  0  0  0  0
    4.7641    0.1298    0.0000 H   0  0  0  0  0  0  0  0  0  0  0  0
   -1.9060   -2.8209    0.0000 H   0  0  0  0  0  0  0  0  0  0  0  0
   -0.2697   -3.6910    0.0000 H   0  0  0  0  0  0  0  0  0  0  0  0
   -1.3390   -3.7284    0.0000 H   0  0  0  0  0  0  0  0  0  0  0  0
   -0.6291   -3.6910    0.0000 H   0  0  0  0  0  0  0  0  0  0  0  0
    1.0072   -2.8209    0.0000 H   0  0  0  0  0  0  0  0  0  0  0  0
    0.4402   -3.7284    0.0000 H   0  0  0  0  0  0  0  0  0  0  0  0
  1  2  1  0  0  0  0
  1  6  2  0  0  0  0
  1  7  1  0  0  0  0
  2  3  2  0  0  0  0
  3  4  1  0  0  0  0
  3  8  1  0  0  0  0
  4  5  2  0  0  0  0
  5  6  1  0  0  0  0
  5  9  1  0  0  0  0
  6 16  1  0  0  0  0
  7 30  1  0  0  0  0
  7 31  1  0  0  0  0
  8 32  1  0  0  0  0
  8 33  1  0  0  0  0
  9 10  1  0  0  0  0
  9 34  1  0  0  0  0
  9 35  1  0  0  0  0
 10 36  1  0  0  0  0
 10 37  1  0  0  0  0
 10 38  1  0  0  0  0
 11 12  2  0  0  0  0
 11 16  1  0  0  0  0
 11 39  1  0  0  0  0
 12 13  1  0  0  0  0
 12 40  1  0  0  0  0
 13 14  2  0  0  0  0
 13 17  1  0  0  0  0
 14 15  1  0  0  0  0
 14 20  1  0  0  0  0
 15 16  2  0  0  0  0
 15 41  1  0  0  0  0
 17 18  1  0  0  0  0
 18 19  1  0  0  0  0
 18 26  1  0  0  0  0
 18 27  1  0  0  0  0
 19 20  1  0  0  0  0
 19 28  2  0  0  0  0
 20 21  1  0  0  0  0
 21 22  1  0  0  0  0
 21 42  1  0  0  0  0
 21 43  1  0  0  0  0
 22 23  1  0  0  0  0
 22 44  1  0  0  0  0
 22 45  1  0  0  0  0
 23 24  1  0  0  0  0
 23 46  1  0  0  0  0
 24 25  1  0  0  0  0
 24 29  2  0  0  0  0
 25 47  1  0  0  0  0
 25 48  1  0  0  0  0
 25 49  1  0  0  0  0
 26 50  1  0  0  0  0
 26 51  1  0  0  0  0
 26 52  1  0  0  0  0
 27 53  1  0  0  0  0
 27 54  1  0  0  0  0
 27 55  1  0  0  0  0
M  END
>  <DRUGBANK_ID>
DB07059

>  <COMMON_NAME>
N-{2-[6-(2,4-DIAMINO-6-ETHYLPYRIMIDIN-5-YL)-2,2-DIMETHYL-3-OXO-2,3-DIHYDRO-4H-1,4-BENZOXAZIN-4-YL]ETHYL}ACETAMIDE

$$$$
