
 OpenBabel10282417072D

 46 48  0  0  1  0  0  0  0  0999 V2000
    4.5079    0.8107    0.0000 O   0  0  0  0  0  0  0  0  0  0  0  0
    2.3644   -0.4268    0.0000 N   0  0  0  0  0  0  0  0  0  0  0  0
    3.0790   -0.8393    0.0000 C   0  0  1  0  0  0  0  0  0  0  0  0
    3.7934   -0.4268    0.0000 C   0  0  0  0  0  0  0  0  0  0  0  0
    3.0790   -1.6643    0.0000 C   0  0  0  0  0  0  0  0  0  0  0  0
    3.7934    0.3982    0.0000 C   0  0  0  0  0  0  0  0  0  0  0  0
    1.6500   -0.8393    0.0000 C   0  0  0  0  0  0  0  0  0  0  0  0
    2.3644    0.3982    0.0000 C   0  0  0  0  0  0  0  0  0  0  0  0
    3.7934   -2.0768    0.0000 C   0  0  0  0  0  0  0  0  0  0  0  0
    2.3644   -2.0768    0.0000 C   0  0  0  0  0  0  0  0  0  0  0  0
    4.5079    1.6357    0.0000 C   0  0  0  0  0  0  0  0  0  0  0  0
    5.2223    2.0482    0.0000 C   0  0  0  0  0  0  0  0  0  0  0  0
    3.7934   -2.9018    0.0000 C   0  0  0  0  0  0  0  0  0  0  0  0
    2.3644   -2.9018    0.0000 C   0  0  0  0  0  0  0  0  0  0  0  0
    5.2223    2.8732    0.0000 C   0  0  0  0  0  0  0  0  0  0  0  0
    3.0790   -3.3143    0.0000 C   0  0  0  0  0  0  0  0  0  0  0  0
    3.7934    2.0482    0.0000 C   0  0  0  0  0  0  0  0  0  0  0  0
    5.9599    1.6071    0.0000 C   0  0  0  0  0  0  0  0  0  0  0  0
    4.5079    3.2857    0.0000 C   0  0  0  0  0  0  0  0  0  0  0  0
    3.7934    2.8732    0.0000 C   0  0  0  0  0  0  0  0  0  0  0  0
    5.9599    3.3143    0.0000 C   0  0  0  0  0  0  0  0  0  0  0  0
    6.7073    2.0311    0.0000 C   0  0  0  0  0  0  0  0  0  0  0  0
    6.7073    2.8904    0.0000 C   0  0  0  0  0  0  0  0  0  0  0  0
    3.0789    0.2307    0.0000 H   0  0  0  0  0  0  0  0  0  0  0  0
    4.7201   -0.9618    0.0000 H   0  0  0  0  0  0  0  0  0  0  0  0
    4.7200    0.1082    0.0000 H   0  0  0  0  0  0  0  0  0  0  0  0
    2.8668    0.9332    0.0000 H   0  0  0  0  0  0  0  0  0  0  0  0
    2.8668   -0.1368    0.0000 H   0  0  0  0  0  0  0  0  0  0  0  0
    0.7233   -0.3043    0.0000 H   0  0  0  0  0  0  0  0  0  0  0  0
    1.6500   -1.9093    0.0000 H   0  0  0  0  0  0  0  0  0  0  0  0
    0.7234   -1.3743    0.0000 H   0  0  0  0  0  0  0  0  0  0  0  0
    3.2910    0.9332    0.0000 H   0  0  0  0  0  0  0  0  0  0  0  0
    1.4378    0.9332    0.0000 H   0  0  0  0  0  0  0  0  0  0  0  0
    2.3644    1.4682    0.0000 H   0  0  0  0  0  0  0  0  0  0  0  0
    4.6871   -1.5608    0.0000 H   0  0  0  0  0  0  0  0  0  0  0  0
    1.4707   -1.5608    0.0000 H   0  0  0  0  0  0  0  0  0  0  0  0
    4.6871   -3.4178    0.0000 H   0  0  0  0  0  0  0  0  0  0  0  0
    1.4707   -3.4178    0.0000 H   0  0  0  0  0  0  0  0  0  0  0  0
    3.0791   -4.3463    0.0000 H   0  0  0  0  0  0  0  0  0  0  0  0
    2.8997    1.5322    0.0000 H   0  0  0  0  0  0  0  0  0  0  0  0
    5.9481    0.5752    0.0000 H   0  0  0  0  0  0  0  0  0  0  0  0
    4.5079    4.3177    0.0000 H   0  0  0  0  0  0  0  0  0  0  0  0
    2.8997    3.3892    0.0000 H   0  0  0  0  0  0  0  0  0  0  0  0
    5.9480    4.3462    0.0000 H   0  0  0  0  0  0  0  0  0  0  0  0
    7.5991    1.5117    0.0000 H   0  0  0  0  0  0  0  0  0  0  0  0
    7.5991    3.4098    0.0000 H   0  0  0  0  0  0  0  0  0  0  0  0
  1  6  1  0  0  0  0
  1 11  1  0  0  0  0
  2  7  1  0  0  0  0
  2  8  1  0  0  0  0
  3  2  1  0  0  0  0
  3  4  1  0  0  0  0
  3  5  1  0  0  0  0
  3 24  1  6  0  0  0
  4  6  1  0  0  0  0
  4 25  1  0  0  0  0
  4 26  1  0  0  0  0
  5  9  2  0  0  0  0
  5 10  1  0  0  0  0
  6 27  1  0  0  0  0
  6 28  1  0  0  0  0
  7 29  1  0  0  0  0
  7 30  1  0  0  0  0
  7 31  1  0  0  0  0
  8 32  1  0  0  0  0
  8 33  1  0  0  0  0
  8 34  1  0  0  0  0
  9 13  1  0  0  0  0
  9 35  1  0  0  0  0
 10 14  2  0  0  0  0
 10 36  1  0  0  0  0
 11 12  1  0  0  0  0
 11 17  2  0  0  0  0
 12 15  1  0  0  0  0
 12 18  2  0  0  0  0
 13 16  2  0  0  0  0
 13 37  1  0  0  0  0
 14 16  1  0  0  0  0
 14 38  1  0  0  0  0
 15 19  1  0  0  0  0
 15 21  2  0  0  0  0
 16 39  1  0  0  0  0
 17 20  1  0  0  0  0
 17 40  1  0  0  0  0
 18 22  1  0  0  0  0
 18 41  1  0  0  0  0
 19 20  2  0  0  0  0
 19 42  1  0  0  0  0
 20 43  1  0  0  0  0
 21 23  1  0  0  0  0
 21 44  1  0  0  0  0
 22 23  2  0  0  0  0
 22 45  1  0  0  0  0
 23 46  1  0  0  0  0
M  END
>  <DRUGBANK_ID>
DB04884

>  <COMMON_NAME>
Dapoxetine

>  <CAS_NUMBER>
119356-77-3

>  <UNII>
GB2433A4M3

>  <SYNONYMS>
Dapoxetina; Dapoxetine; Dapoxetinum

$$$$
