
 OpenBabel10282417072D

 24 24  0  0  1  0  0  0  0  0999 V2000
    1.8098    1.4608    0.0000 O   0  0  0  0  0  0  0  0  0  0  0  0
    1.8098    0.6358    0.0000 C   0  0  0  0  0  0  0  0  0  0  0  0
    2.5243    0.2233    0.0000 O   0  0  0  0  0  0  0  0  0  0  0  0
    1.0953    0.2233    0.0000 C   0  0  2  0  0  0  0  0  0  0  0  0
    1.0953   -0.6017    0.0000 N   0  0  0  0  0  0  0  0  0  0  0  0
    0.3809    0.6358    0.0000 C   0  0  0  0  0  0  0  0  0  0  0  0
   -0.3336    0.2233    0.0000 C   0  0  0  0  0  0  0  0  0  0  0  0
   -0.3336   -0.6017    0.0000 C   0  0  0  0  0  0  0  0  0  0  0  0
   -1.0481    0.6358    0.0000 C   0  0  0  0  0  0  0  0  0  0  0  0
   -1.7625    0.2233    0.0000 C   0  0  0  0  0  0  0  0  0  0  0  0
   -1.0481   -1.0142    0.0000 C   0  0  0  0  0  0  0  0  0  0  0  0
   -1.7625   -0.6017    0.0000 C   0  0  0  0  0  0  0  0  0  0  0  0
   -2.4770   -1.0142    0.0000 O   0  0  0  0  0  0  0  0  0  0  0  0
    2.5243   -0.7137    0.0000 H   0  0  0  0  0  0  0  0  0  0  0  0
    2.0219   -0.3117    0.0000 H   0  0  0  0  0  0  0  0  0  0  0  0
    0.2120   -1.1117    0.0000 H   0  0  0  0  0  0  0  0  0  0  0  0
    1.9786   -1.1117    0.0000 H   0  0  0  0  0  0  0  0  0  0  0  0
    0.3809    1.7058    0.0000 H   0  0  0  0  0  0  0  0  0  0  0  0
   -0.5457    1.1708    0.0000 H   0  0  0  0  0  0  0  0  0  0  0  0
    0.5601   -1.1177    0.0000 H   0  0  0  0  0  0  0  0  0  0  0  0
   -1.0481    1.6678    0.0000 H   0  0  0  0  0  0  0  0  0  0  0  0
   -2.6562    0.7393    0.0000 H   0  0  0  0  0  0  0  0  0  0  0  0
   -1.0481   -2.0462    0.0000 H   0  0  0  0  0  0  0  0  0  0  0  0
   -3.2885   -0.5457    0.0000 H   0  0  0  0  0  0  0  0  0  0  0  0
  2  1  2  0  0  0  0
  3  2  1  0  0  0  0
  3 14  1  0  0  0  0
  4  2  1  0  0  0  0
  4  5  1  0  0  0  0
  4 15  1  1  0  0  0
  5 16  1  0  0  0  0
  5 17  1  0  0  0  0
  6  4  1  0  0  0  0
  6 18  1  0  0  0  0
  6 19  1  0  0  0  0
  7  6  1  0  0  0  0
  8  7  1  0  0  0  0
  8 20  1  0  0  0  0
  9  7  2  0  0  0  0
  9 21  1  0  0  0  0
 10  9  1  0  0  0  0
 10 22  1  0  0  0  0
 11  8  2  0  0  0  0
 11 12  1  0  0  0  0
 11 23  1  0  0  0  0
 12 10  2  0  0  0  0
 13 12  1  0  0  0  0
 13 24  1  0  0  0  0
M  END
>  <DRUGBANK_ID>
DB03839

>  <SECONDARY_ACCESSION_NUMBERS>
EXPT01295

>  <COMMON_NAME>
D-Tyrosine

>  <CAS_NUMBER>
556-02-5

>  <UNII>
WQ5G9JQ7GC

>  <SYNONYMS>
(R)-2-Amino-3-(p-hydroxyphenyl)propionic acid; (R)-3-(p-Hydroxyphenyl)alanine; D-Tyr; D-Tyrosin

$$$$
