
 OpenBabel10282417072D

 51 54  0  0  0  0  0  0  0  0999 V2000
   -1.5395   -1.8414    0.0000 C   0  0  0  0  0  0  0  0  0  0  0  0
   -0.7145   -1.8414    0.0000 C   0  0  0  0  0  0  0  0  0  0  0  0
   -0.3020   -2.5559    0.0000 C   0  0  0  0  0  0  0  0  0  0  0  0
    0.5230   -2.5559    0.0000 C   0  0  0  0  0  0  0  0  0  0  0  0
    0.9355   -1.8414    0.0000 C   0  0  0  0  0  0  0  0  0  0  0  0
    0.5230   -1.1270    0.0000 C   0  0  0  0  0  0  0  0  0  0  0  0
   -0.3020   -1.1270    0.0000 C   0  0  0  0  0  0  0  0  0  0  0  0
   -0.7145   -0.4125    0.0000 C   0  0  0  0  0  0  0  0  0  0  0  0
   -1.1270    0.3020    0.0000 C   0  0  0  0  0  0  0  0  0  0  0  0
   -0.7145    1.0164    0.0000 C   0  0  0  0  0  0  0  0  0  0  0  0
   -1.1270    1.7309    0.0000 C   0  0  0  0  0  0  0  0  0  0  0  0
   -1.9520    1.7309    0.0000 C   0  0  0  0  0  0  0  0  0  0  0  0
   -2.3645    1.0164    0.0000 C   0  0  0  0  0  0  0  0  0  0  0  0
   -1.9520    0.3020    0.0000 C   0  0  0  0  0  0  0  0  0  0  0  0
   -2.3645   -0.4125    0.0000 C   0  0  0  0  0  0  0  0  0  0  0  0
   -0.0000    0.0000    0.0000 C   0  0  3  0  0  0  0  0  0  0  0  0
    0.0000    0.8250    0.0000 C   0  0  0  0  0  0  0  0  0  0  0  0
    0.7145    1.2375    0.0000 N   0  0  3  0  0  0  0  0  0  0  0  0
    1.4289    0.8250    0.0000 C   0  0  0  0  0  0  0  0  0  0  0  0
    1.4289    0.0000    0.0000 C   0  0  0  0  0  0  0  0  0  0  0  0
    0.7145   -0.4125    0.0000 C   0  0  3  0  0  0  0  0  0  0  0  0
    0.8520    0.1375    0.0000 C   0  0  0  0  0  0  0  0  0  0  0  0
    0.8520    0.6875    0.0000 C   0  0  0  0  0  0  0  0  0  0  0  0
   -1.4289   -0.8250    0.0000 O   0  0  0  0  0  0  0  0  0  0  0  0
   -2.0745   -0.9148    0.0000 H   0  0  0  0  0  0  0  0  0  0  0  0
   -2.0745   -2.7680    0.0000 H   0  0  0  0  0  0  0  0  0  0  0  0
   -2.6095   -1.8414    0.0000 H   0  0  0  0  0  0  0  0  0  0  0  0
   -0.8180   -3.4496    0.0000 H   0  0  0  0  0  0  0  0  0  0  0  0
    1.0390   -3.4496    0.0000 H   0  0  0  0  0  0  0  0  0  0  0  0
    1.9675   -1.8414    0.0000 H   0  0  0  0  0  0  0  0  0  0  0  0
    1.0390   -0.2333    0.0000 H   0  0  0  0  0  0  0  0  0  0  0  0
    0.3175    1.0164    0.0000 H   0  0  0  0  0  0  0  0  0  0  0  0
   -0.6110    2.6246    0.0000 H   0  0  0  0  0  0  0  0  0  0  0  0
   -2.4680    2.6246    0.0000 H   0  0  0  0  0  0  0  0  0  0  0  0
   -3.3965    1.0164    0.0000 H   0  0  0  0  0  0  0  0  0  0  0  0
   -3.4345   -0.4125    0.0000 H   0  0  0  0  0  0  0  0  0  0  0  0
   -1.8295   -1.3391    0.0000 H   0  0  0  0  0  0  0  0  0  0  0  0
   -2.8995   -1.3392    0.0000 H   0  0  0  0  0  0  0  0  0  0  0  0
   -0.9266    0.5350    0.0000 H   0  0  0  0  0  0  0  0  0  0  0  0
   -0.9266    1.3600    0.0000 H   0  0  0  0  0  0  0  0  0  0  0  0
    0.0000    1.8950    0.0000 H   0  0  0  0  0  0  0  0  0  0  0  0
    2.3556    1.3600    0.0000 H   0  0  0  0  0  0  0  0  0  0  0  0
    2.3555    0.2900    0.0000 H   0  0  0  0  0  0  0  0  0  0  0  0
    2.3556   -0.5350    0.0000 H   0  0  0  0  0  0  0  0  0  0  0  0
    1.4289   -1.0700    0.0000 H   0  0  0  0  0  0  0  0  0  0  0  0
    0.7145    0.6575    0.0000 H   0  0  0  0  0  0  0  0  0  0  0  0
    1.9140    0.0068    0.0000 H   0  0  0  0  0  0  0  0  0  0  0  0
    1.6535    0.8464    0.0000 H   0  0  0  0  0  0  0  0  0  0  0  0
    1.9140    0.8182    0.0000 H   0  0  0  0  0  0  0  0  0  0  0  0
    1.4576    1.5696    0.0000 H   0  0  0  0  0  0  0  0  0  0  0  0
   -2.2690   -0.3400    0.0000 H   0  0  0  0  0  0  0  0  0  0  0  0
  1  2  1  0  0  0  0
  1 25  1  0  0  0  0
  1 26  1  0  0  0  0
  1 27  1  0  0  0  0
  2  3  2  0  0  0  0
  2  7  1  0  0  0  0
  3  4  1  0  0  0  0
  3 28  1  0  0  0  0
  4  5  2  0  0  0  0
  4 29  1  0  0  0  0
  5  6  1  0  0  0  0
  5 30  1  0  0  0  0
  6  7  2  0  0  0  0
  6 31  1  0  0  0  0
  7  8  1  0  0  0  0
  8  9  1  0  0  0  0
  8 16  1  0  0  0  0
  8 24  1  0  0  0  0
  9 10  2  0  0  0  0
  9 14  1  0  0  0  0
 10 11  1  0  0  0  0
 10 32  1  0  0  0  0
 11 12  2  0  0  0  0
 11 33  1  0  0  0  0
 12 13  1  0  0  0  0
 12 34  1  0  0  0  0
 13 14  2  0  0  0  0
 13 35  1  0  0  0  0
 14 15  1  0  0  0  0
 15 36  1  0  0  0  0
 15 37  1  0  0  0  0
 15 38  1  0  0  0  0
 16 17  1  0  0  0  0
 16 21  1  0  0  0  0
 16 39  1  0  0  0  0
 17 18  1  0  0  0  0
 17 40  1  0  0  0  0
 17 41  1  0  0  0  0
 18 19  1  0  0  0  0
 18 23  1  0  0  0  0
 19 20  1  0  0  0  0
 19 42  1  0  0  0  0
 19 43  1  0  0  0  0
 20 21  1  0  0  0  0
 20 44  1  0  0  0  0
 20 45  1  0  0  0  0
 21 22  1  0  0  0  0
 21 46  1  0  0  0  0
 22 23  1  0  0  0  0
 22 47  1  0  0  0  0
 22 48  1  0  0  0  0
 23 49  1  0  0  0  0
 23 50  1  0  0  0  0
 24 51  1  0  0  0  0
M  END
>  <DRUGBANK_ID>
DB13566

>  <COMMON_NAME>
Sequifenadine

>  <CAS_NUMBER>
57734-69-7

>  <UNII>
C7Q3TBR3FP

>  <SYNONYMS>
Sequifenadine

$$$$
