
 OpenBabel10282417072D

 76 80  0  0  1  0  0  0  0  0999 V2000
    7.8592   -0.4125    0.0000 C   0  0  0  0  0  0  0  0  0  0  0  0
    7.1447   -0.8250    0.0000 C   0  0  1  0  0  0  0  0  0  0  0  0
    7.1447   -1.6500    0.0000 C   0  0  0  0  0  0  0  0  0  0  0  0
    6.4302   -2.0625    0.0000 C   0  0  1  0  0  0  0  0  0  0  0  0
    6.4302   -2.8875    0.0000 C   0  0  0  0  0  0  0  0  0  0  0  0
    5.7158   -1.6500    0.0000 C   0  0  0  0  0  0  0  0  0  0  0  0
    5.7158   -0.8250    0.0000 N   0  0  0  0  0  0  0  0  0  0  0  0
    6.4302   -0.4125    0.0000 C   0  0  0  0  0  0  0  0  0  0  0  0
    5.0013   -0.4125    0.0000 S   0  0  0  0  0  0  0  0  0  0  0  0
    5.4138    0.3020    0.0000 O   0  0  0  0  0  0  0  0  0  0  0  0
    4.5888   -1.1270    0.0000 O   0  0  0  0  0  0  0  0  0  0  0  0
    4.2868   -0.0000    0.0000 C   0  0  0  0  0  0  0  0  0  0  0  0
    4.2868    0.8250    0.0000 C   0  0  0  0  0  0  0  0  0  0  0  0
    3.5724    1.2375    0.0000 C   0  0  0  0  0  0  0  0  0  0  0  0
    2.8579    0.8250    0.0000 C   0  0  0  0  0  0  0  0  0  0  0  0
    2.8579    0.0000    0.0000 C   0  0  0  0  0  0  0  0  0  0  0  0
    3.5724   -0.4125    0.0000 C   0  0  0  0  0  0  0  0  0  0  0  0
    2.1434   -0.4125    0.0000 C   0  0  0  0  0  0  0  0  0  0  0  0
    2.1434   -1.2375    0.0000 N   0  0  0  0  0  0  0  0  0  0  0  0
    1.4289   -1.6500    0.0000 O   0  0  0  0  0  0  0  0  0  0  0  0
    1.4289   -0.0000    0.0000 C   0  0  0  0  0  0  0  0  0  0  0  0
    0.7145   -0.4125    0.0000 C   0  0  0  0  0  0  0  0  0  0  0  0
   -0.0000    0.0000    0.0000 C   0  0  0  0  0  0  0  0  0  0  0  0
    0.0000    0.8250    0.0000 C   0  0  0  0  0  0  0  0  0  0  0  0
    0.7145    1.2375    0.0000 C   0  0  0  0  0  0  0  0  0  0  0  0
    1.4289    0.8250    0.0000 C   0  0  0  0  0  0  0  0  0  0  0  0
    2.1434    1.2375    0.0000 C   0  0  0  0  0  0  0  0  0  0  0  0
    2.1434    2.0625    0.0000 N   0  0  0  0  0  0  0  0  0  0  0  0
    2.8579    2.4750    0.0000 O   0  0  0  0  0  0  0  0  0  0  0  0
   -0.7145   -0.4125    0.0000 S   0  0  0  0  0  0  0  0  0  0  0  0
   -1.1270    0.3020    0.0000 O   0  0  0  0  0  0  0  0  0  0  0  0
   -0.3020   -1.1270    0.0000 O   0  0  0  0  0  0  0  0  0  0  0  0
   -1.4289   -0.8250    0.0000 N   0  0  0  0  0  0  0  0  0  0  0  0
   -1.4289   -1.6500    0.0000 C   0  0  0  0  0  0  0  0  0  0  0  0
   -2.1434   -2.0625    0.0000 C   0  0  1  0  0  0  0  0  0  0  0  0
   -2.1434   -2.8875    0.0000 C   0  0  0  0  0  0  0  0  0  0  0  0
   -2.8579   -1.6500    0.0000 C   0  0  0  0  0  0  0  0  0  0  0  0
   -2.8579   -0.8250    0.0000 C   0  0  1  0  0  0  0  0  0  0  0  0
   -3.5724   -0.4125    0.0000 C   0  0  0  0  0  0  0  0  0  0  0  0
   -2.1434   -0.4125    0.0000 C   0  0  0  0  0  0  0  0  0  0  0  0
    8.7858   -0.9475    0.0000 H   0  0  0  0  0  0  0  0  0  0  0  0
    7.8592    0.6575    0.0000 H   0  0  0  0  0  0  0  0  0  0  0  0
    8.7859    0.1225    0.0000 H   0  0  0  0  0  0  0  0  0  0  0  0
    8.0713   -1.3600    0.0000 H   0  0  0  0  0  0  0  0  0  0  0  0
    8.0713   -2.1850    0.0000 H   0  0  0  0  0  0  0  0  0  0  0  0
    7.1447   -2.7200    0.0000 H   0  0  0  0  0  0  0  0  0  0  0  0
    7.3568   -2.5975    0.0000 H   0  0  0  0  0  0  0  0  0  0  0  0
    5.5036   -3.4225    0.0000 H   0  0  0  0  0  0  0  0  0  0  0  0
    7.3568   -3.4225    0.0000 H   0  0  0  0  0  0  0  0  0  0  0  0
    6.4302   -3.9575    0.0000 H   0  0  0  0  0  0  0  0  0  0  0  0
    4.7891   -2.1850    0.0000 H   0  0  0  0  0  0  0  0  0  0  0  0
    4.7892   -1.1150    0.0000 H   0  0  0  0  0  0  0  0  0  0  0  0
    6.4302    0.6575    0.0000 H   0  0  0  0  0  0  0  0  0  0  0  0
    7.3568    0.1225    0.0000 H   0  0  0  0  0  0  0  0  0  0  0  0
    5.1805    1.3410    0.0000 H   0  0  0  0  0  0  0  0  0  0  0  0
    3.5724    2.2695    0.0000 H   0  0  0  0  0  0  0  0  0  0  0  0
    3.5724   -1.4445    0.0000 H   0  0  0  0  0  0  0  0  0  0  0  0
    0.6174   -1.1815    0.0000 H   0  0  0  0  0  0  0  0  0  0  0  0
    0.7145   -1.4445    0.0000 H   0  0  0  0  0  0  0  0  0  0  0  0
   -0.8937    1.3410    0.0000 H   0  0  0  0  0  0  0  0  0  0  0  0
    0.7145    2.2695    0.0000 H   0  0  0  0  0  0  0  0  0  0  0  0
    3.6694    2.0065    0.0000 H   0  0  0  0  0  0  0  0  0  0  0  0
   -0.5023   -2.1850    0.0000 H   0  0  0  0  0  0  0  0  0  0  0  0
   -1.4289   -2.7200    0.0000 H   0  0  0  0  0  0  0  0  0  0  0  0
   -1.2168   -2.5975    0.0000 H   0  0  0  0  0  0  0  0  0  0  0  0
   -3.0700   -3.4225    0.0000 H   0  0  0  0  0  0  0  0  0  0  0  0
   -1.2168   -3.4225    0.0000 H   0  0  0  0  0  0  0  0  0  0  0  0
   -2.1434   -3.9575    0.0000 H   0  0  0  0  0  0  0  0  0  0  0  0
   -3.7845   -2.1850    0.0000 H   0  0  0  0  0  0  0  0  0  0  0  0
   -3.7845   -1.1150    0.0000 H   0  0  0  0  0  0  0  0  0  0  0  0
   -3.7845   -1.3600    0.0000 H   0  0  0  0  0  0  0  0  0  0  0  0
   -3.5724    0.6575    0.0000 H   0  0  0  0  0  0  0  0  0  0  0  0
   -4.4990   -0.9475    0.0000 H   0  0  0  0  0  0  0  0  0  0  0  0
   -4.4991    0.1225    0.0000 H   0  0  0  0  0  0  0  0  0  0  0  0
   -2.1434    0.6575    0.0000 H   0  0  0  0  0  0  0  0  0  0  0  0
   -1.2168    0.1225    0.0000 H   0  0  0  0  0  0  0  0  0  0  0  0
  1 41  1  0  0  0  0
  1 42  1  0  0  0  0
  1 43  1  0  0  0  0
  2  1  1  0  0  0  0
  2  3  1  0  0  0  0
  2  8  1  0  0  0  0
  2 44  1  6  0  0  0
  3 45  1  0  0  0  0
  3 46  1  0  0  0  0
  4  3  1  0  0  0  0
  4  5  1  0  0  0  0
  4  6  1  0  0  0  0
  4 47  1  6  0  0  0
  5 48  1  0  0  0  0
  5 49  1  0  0  0  0
  5 50  1  0  0  0  0
  6  7  1  0  0  0  0
  6 51  1  0  0  0  0
  6 52  1  0  0  0  0
  7  8  1  0  0  0  0
  7  9  1  0  0  0  0
  8 53  1  0  0  0  0
  8 54  1  0  0  0  0
  9 10  2  0  0  0  0
  9 11  2  0  0  0  0
  9 12  1  0  0  0  0
 12 13  2  0  0  0  0
 12 17  1  0  0  0  0
 13 14  1  0  0  0  0
 13 55  1  0  0  0  0
 14 15  2  0  0  0  0
 14 56  1  0  0  0  0
 15 16  1  0  0  0  0
 15 27  1  0  0  0  0
 16 17  2  0  0  0  0
 16 18  1  0  0  0  0
 17 57  1  0  0  0  0
 18 19  2  0  0  0  0
 18 21  1  0  0  0  0
 19 20  1  0  0  0  0
 20 58  1  0  0  0  0
 21 22  2  0  0  0  0
 21 26  1  0  0  0  0
 22 23  1  0  0  0  0
 22 59  1  0  0  0  0
 23 24  2  0  0  0  0
 23 30  1  0  0  0  0
 24 25  1  0  0  0  0
 24 60  1  0  0  0  0
 25 26  2  0  0  0  0
 25 61  1  0  0  0  0
 26 27  1  0  0  0  0
 27 28  2  0  0  0  0
 28 29  1  0  0  0  0
 29 62  1  0  0  0  0
 30 31  2  0  0  0  0
 30 32  2  0  0  0  0
 30 33  1  0  0  0  0
 33 34  1  0  0  0  0
 33 40  1  0  0  0  0
 34 63  1  0  0  0  0
 34 64  1  0  0  0  0
 35 34  1  0  0  0  0
 35 36  1  0  0  0  0
 35 37  1  0  0  0  0
 35 65  1  6  0  0  0
 36 66  1  0  0  0  0
 36 67  1  0  0  0  0
 36 68  1  0  0  0  0
 37 69  1  0  0  0  0
 37 70  1  0  0  0  0
 38 37  1  0  0  0  0
 38 39  1  0  0  0  0
 38 40  1  0  0  0  0
 38 71  1  6  0  0  0
 39 72  1  0  0  0  0
 39 73  1  0  0  0  0
 39 74  1  0  0  0  0
 40 75  1  0  0  0  0
 40 76  1  0  0  0  0
M  END
>  <DRUGBANK_ID>
DB17109

>  <COMMON_NAME>
Tegavivint

>  <CAS_NUMBER>
1227637-23-1

>  <UNII>
18AP231HUP

>  <SYNONYMS>
9,10-anthracenedione, 2,7-bis(((3r,5s)-3,5-dimethyl-1-piperidinyl)sulfonyl)-, 9,10-dioxime, rel-; Tegavivint

$$$$
