
 OpenBabel10282417072D

 54 57  0  0  0  0  0  0  0  0999 V2000
   -3.6907   -0.5138    0.0000 C   0  0  0  0  0  0  0  0  0  0  0  0
   -3.0587    0.0165    0.0000 C   0  0  0  0  0  0  0  0  0  0  0  0
   -2.6462    0.7310    0.0000 C   0  0  0  0  0  0  0  0  0  0  0  0
   -1.8212    0.7310    0.0000 C   0  0  0  0  0  0  0  0  0  0  0  0
   -1.4087    0.0165    0.0000 N   0  0  0  0  0  0  0  0  0  0  0  0
   -1.8212   -0.6979    0.0000 C   0  0  0  0  0  0  0  0  0  0  0  0
   -2.6462   -0.6979    0.0000 C   0  0  0  0  0  0  0  0  0  0  0  0
   -0.5837    0.0165    0.0000 C   0  0  0  0  0  0  0  0  0  0  0  0
   -0.1712    0.7310    0.0000 O   0  0  0  0  0  0  0  0  0  0  0  0
   -0.1712   -0.6979    0.0000 N   0  0  0  0  0  0  0  0  0  0  0  0
    0.6538   -0.6979    0.0000 C   0  0  0  0  0  0  0  0  0  0  0  0
    1.1387   -0.0305    0.0000 N   0  0  0  0  0  0  0  0  0  0  0  0
    1.9233   -0.2854    0.0000 C   0  0  0  0  0  0  0  0  0  0  0  0
    2.6378    0.1271    0.0000 C   0  0  0  0  0  0  0  0  0  0  0  0
    3.3523   -0.2854    0.0000 C   0  0  0  0  0  0  0  0  0  0  0  0
    3.3523   -1.1104    0.0000 C   0  0  0  0  0  0  0  0  0  0  0  0
    2.6378   -1.5229    0.0000 C   0  0  0  0  0  0  0  0  0  0  0  0
    1.9233   -1.1104    0.0000 C   0  0  0  0  0  0  0  0  0  0  0  0
    1.1387   -1.3654    0.0000 S   0  0  0  0  0  0  0  0  0  0  0  0
    2.6378   -2.3479    0.0000 N   0  0  0  0  0  0  0  0  0  0  0  0
    3.3523   -2.7604    0.0000 C   0  0  0  0  0  0  0  0  0  0  0  0
    3.3523   -3.5854    0.0000 C   0  0  0  0  0  0  0  0  0  0  0  0
    2.6378   -3.9979    0.0000 O   0  0  0  0  0  0  0  0  0  0  0  0
    1.9233   -3.5854    0.0000 C   0  0  0  0  0  0  0  0  0  0  0  0
    1.9233   -2.7604    0.0000 C   0  0  0  0  0  0  0  0  0  0  0  0
    2.6378    0.9521    0.0000 O   0  0  0  0  0  0  0  0  0  0  0  0
    3.3523    1.3646    0.0000 C   0  0  0  0  0  0  0  0  0  0  0  0
   -3.6907    0.5468    0.0000 O   0  0  0  0  0  0  0  0  0  0  0  0
   -4.6962   -0.1478    0.0000 H   0  0  0  0  0  0  0  0  0  0  0  0
   -3.5049   -1.5675    0.0000 H   0  0  0  0  0  0  0  0  0  0  0  0
   -4.5104   -1.2016    0.0000 H   0  0  0  0  0  0  0  0  0  0  0  0
   -3.1812    1.6576    0.0000 H   0  0  0  0  0  0  0  0  0  0  0  0
   -2.1112    1.6576    0.0000 H   0  0  0  0  0  0  0  0  0  0  0  0
   -1.2862    1.6576    0.0000 H   0  0  0  0  0  0  0  0  0  0  0  0
   -0.7512    0.7310    0.0000 H   0  0  0  0  0  0  0  0  0  0  0  0
   -1.2862   -1.6246    0.0000 H   0  0  0  0  0  0  0  0  0  0  0  0
   -2.3562   -1.6245    0.0000 H   0  0  0  0  0  0  0  0  0  0  0  0
   -3.1812   -1.6246    0.0000 H   0  0  0  0  0  0  0  0  0  0  0  0
   -3.7162   -0.6979    0.0000 H   0  0  0  0  0  0  0  0  0  0  0  0
   -0.6634   -1.5505    0.0000 H   0  0  0  0  0  0  0  0  0  0  0  0
    4.2460    0.2306    0.0000 H   0  0  0  0  0  0  0  0  0  0  0  0
    4.2460   -1.6264    0.0000 H   0  0  0  0  0  0  0  0  0  0  0  0
    4.2789   -2.2254    0.0000 H   0  0  0  0  0  0  0  0  0  0  0  0
    4.2789   -3.2954    0.0000 H   0  0  0  0  0  0  0  0  0  0  0  0
    4.2789   -4.1204    0.0000 H   0  0  0  0  0  0  0  0  0  0  0  0
    3.3523   -4.6554    0.0000 H   0  0  0  0  0  0  0  0  0  0  0  0
    0.9967   -4.1204    0.0000 H   0  0  0  0  0  0  0  0  0  0  0  0
    0.9967   -3.0504    0.0000 H   0  0  0  0  0  0  0  0  0  0  0  0
    0.9967   -2.2254    0.0000 H   0  0  0  0  0  0  0  0  0  0  0  0
    1.9233   -1.6904    0.0000 H   0  0  0  0  0  0  0  0  0  0  0  0
    4.2789    0.8296    0.0000 H   0  0  0  0  0  0  0  0  0  0  0  0
    3.3523    2.4346    0.0000 H   0  0  0  0  0  0  0  0  0  0  0  0
    4.2790    1.8996    0.0000 H   0  0  0  0  0  0  0  0  0  0  0  0
   -3.5223    1.5021    0.0000 H   0  0  0  0  0  0  0  0  0  0  0  0
  1  2  1  0  0  0  0
  1 29  1  0  0  0  0
  1 30  1  0  0  0  0
  1 31  1  0  0  0  0
  2  3  1  0  0  0  0
  2  7  1  0  0  0  0
  2 28  1  0  0  0  0
  3  4  1  0  0  0  0
  3 32  1  0  0  0  0
  3 33  1  0  0  0  0
  4  5  1  0  0  0  0
  4 34  1  0  0  0  0
  4 35  1  0  0  0  0
  5  6  1  0  0  0  0
  5  8  1  0  0  0  0
  6  7  1  0  0  0  0
  6 36  1  0  0  0  0
  6 37  1  0  0  0  0
  7 38  1  0  0  0  0
  7 39  1  0  0  0  0
  8  9  2  0  0  0  0
  8 10  1  0  0  0  0
 10 11  1  0  0  0  0
 10 40  1  0  0  0  0
 11 12  2  0  0  0  0
 11 19  1  0  0  0  0
 12 13  1  0  0  0  0
 13 14  2  0  0  0  0
 13 18  1  0  0  0  0
 14 15  1  0  0  0  0
 14 26  1  0  0  0  0
 15 16  2  0  0  0  0
 15 41  1  0  0  0  0
 16 17  1  0  0  0  0
 16 42  1  0  0  0  0
 17 18  2  0  0  0  0
 17 20  1  0  0  0  0
 18 19  1  0  0  0  0
 20 21  1  0  0  0  0
 20 25  1  0  0  0  0
 21 22  1  0  0  0  0
 21 43  1  0  0  0  0
 21 44  1  0  0  0  0
 22 23  1  0  0  0  0
 22 45  1  0  0  0  0
 22 46  1  0  0  0  0
 23 24  1  0  0  0  0
 24 25  1  0  0  0  0
 24 47  1  0  0  0  0
 24 48  1  0  0  0  0
 25 49  1  0  0  0  0
 25 50  1  0  0  0  0
 26 27  1  0  0  0  0
 27 51  1  0  0  0  0
 27 52  1  0  0  0  0
 27 53  1  0  0  0  0
 28 54  1  0  0  0  0
M  END
>  <DRUGBANK_ID>
DB12203

>  <COMMON_NAME>
Tozadenant

>  <CAS_NUMBER>
870070-55-6

>  <UNII>
D9K857J81I

>  <SYNONYMS>
Tozadenant

$$$$
