565
 OpenBabel10282417072D

 44 45  0  0  0  0  0  0  0  0999 V2000
   -1.5897    0.5984    0.0000 C   0  0  0  0  0  0  0  0  0  0  0  0
   -0.8752    1.0109    0.0000 C   0  0  0  0  0  0  0  0  0  0  0  0
   -0.1607    0.5984    0.0000 C   0  0  0  0  0  0  0  0  0  0  0  0
   -0.1607   -0.2266    0.0000 C   0  0  0  0  0  0  0  0  0  0  0  0
   -0.8752   -0.6391    0.0000 C   0  0  0  0  0  0  0  0  0  0  0  0
   -1.5897   -0.2266    0.0000 C   0  0  0  0  0  0  0  0  0  0  0  0
   -0.8752   -1.4641    0.0000 F   0  0  0  0  0  0  0  0  0  0  0  0
   -0.8752    1.8359    0.0000 F   0  0  0  0  0  0  0  0  0  0  0  0
    0.5537    1.0109    0.0000 C   0  0  0  0  0  0  0  0  0  0  0  0
    1.2682    0.5984    0.0000 C   0  0  2  0  0  0  0  0  0  0  0  0
    1.9827    1.0109    0.0000 C   0  0  0  0  0  0  0  0  0  0  0  0
    2.6971    0.5984    0.0000 C   0  0  0  0  0  0  0  0  0  0  0  0
    3.4116    1.0109    0.0000 N   0  0  0  0  0  0  0  0  0  0  0  0
    1.2682   -0.2266    0.0000 N   0  0  0  0  0  0  0  0  0  0  0  0
    2.6971   -0.2266    0.0000 O   0  0  0  0  0  0  0  0  0  0  0  0
    3.3500    1.8336    0.0000 C   0  0  0  0  0  0  0  0  0  0  0  0
    3.9547    2.3947    0.0000 C   0  0  0  0  0  0  0  0  0  0  0  0
    4.7705    2.2718    0.0000 C   0  0  0  0  0  0  0  0  0  0  0  0
    5.1830    1.5573    0.0000 N   0  0  0  0  0  0  0  0  0  0  0  0
    4.8816    0.7893    0.0000 C   0  0  0  0  0  0  0  0  0  0  0  0
    4.0933    0.5461    0.0000 C   0  0  1  0  0  0  0  0  0  0  0  0
    3.9703   -0.2696    0.0000 C   0  0  0  0  0  0  0  0  0  0  0  0
    5.4428    0.1845    0.0000 O   0  0  0  0  0  0  0  0  0  0  0  0
   -2.3041   -0.6391    0.0000 F   0  0  0  0  0  0  0  0  0  0  0  0
    0.7625    0.3064    0.0000 H   0  0  0  0  0  0  0  0  0  0  0  0
    3.5581    0.3126    0.0000 H   0  0  0  0  0  0  0  0  0  0  0  0
   -2.4834    1.1144    0.0000 H   0  0  0  0  0  0  0  0  0  0  0  0
    0.7330   -0.7426    0.0000 H   0  0  0  0  0  0  0  0  0  0  0  0
    0.5537    2.0809    0.0000 H   0  0  0  0  0  0  0  0  0  0  0  0
    1.4803    1.5459    0.0000 H   0  0  0  0  0  0  0  0  0  0  0  0
    1.9827    2.0809    0.0000 H   0  0  0  0  0  0  0  0  0  0  0  0
    2.9094    1.5459    0.0000 H   0  0  0  0  0  0  0  0  0  0  0  0
    0.3849   -0.7366    0.0000 H   0  0  0  0  0  0  0  0  0  0  0  0
    2.1515   -0.7366    0.0000 H   0  0  0  0  0  0  0  0  0  0  0  0
    2.3540    2.2245    0.0000 H   0  0  0  0  0  0  0  0  0  0  0  0
    3.1511    2.8849    0.0000 H   0  0  0  0  0  0  0  0  0  0  0  0
    3.6393    3.4171    0.0000 H   0  0  0  0  0  0  0  0  0  0  0  0
    4.6526    3.2058    0.0000 H   0  0  0  0  0  0  0  0  0  0  0  0
    5.3732    3.1559    0.0000 H   0  0  0  0  0  0  0  0  0  0  0  0
    5.8398    2.2318    0.0000 H   0  0  0  0  0  0  0  0  0  0  0  0
    6.1647    1.6309    0.0000 H   0  0  0  0  0  0  0  0  0  0  0  0
    2.9742   -0.6605    0.0000 H   0  0  0  0  0  0  0  0  0  0  0  0
    4.8068   -0.9368    0.0000 H   0  0  0  0  0  0  0  0  0  0  0  0
    3.8108   -1.3276    0.0000 H   0  0  0  0  0  0  0  0  0  0  0  0
  1  2  1  0  0  0  0
  1  6  2  0  0  0  0
  1 27  1  0  0  0  0
  2  8  1  0  0  0  0
  2  3  2  0  0  0  0
  3  9  1  0  0  0  0
  3  4  1  0  0  0  0
  4  5  2  0  0  0  0
  4 28  1  0  0  0  0
  5  6  1  0  0  0  0
  5  7  1  0  0  0  0
  6 24  1  0  0  0  0
  9 10  1  0  0  0  0
  9 29  1  0  0  0  0
  9 30  1  0  0  0  0
 10 14  1  0  0  0  0
 10 11  1  0  0  0  0
 10 25  1  1  0  0  0
 11 12  1  0  0  0  0
 11 31  1  0  0  0  0
 11 32  1  0  0  0  0
 12 13  1  0  0  0  0
 12 15  2  0  0  0  0
 13 16  1  0  0  0  0
 13 21  1  0  0  0  0
 14 33  1  0  0  0  0
 14 34  1  0  0  0  0
 16 17  1  0  0  0  0
 16 35  1  0  0  0  0
 16 36  1  0  0  0  0
 17 18  1  0  0  0  0
 17 37  1  0  0  0  0
 17 38  1  0  0  0  0
 18 19  1  0  0  0  0
 18 39  1  0  0  0  0
 18 40  1  0  0  0  0
 19 20  1  0  0  0  0
 19 41  1  0  0  0  0
 20 23  2  0  0  0  0
 20 21  1  0  0  0  0
 21 22  1  0  0  0  0
 21 26  1  6  0  0  0
 22 42  1  0  0  0  0
 22 43  1  0  0  0  0
 22 44  1  0  0  0  0
M  END
>  <DRUGBANK_ID>
DB07154

>  <COMMON_NAME>
(3R)-4-[(3R)-3-AMINO-4-(2,4,5-TRIFLUOROPHENYL)BUTANOYL]-3-METHYL-1,4-DIAZEPAN-2-ONE

$$$$
