
 OpenBabel10282417072D

 13 13  0  0  0  0  0  0  0  0999 V2000
    0.0000    0.0000    0.0000 C   0  0  0  0  0  0  0  0  0  0  0  0
   -0.7145   -0.4125    0.0000 C   0  0  0  0  0  0  0  0  0  0  0  0
    0.0000    0.8250    0.0000 C   0  0  0  0  0  0  0  0  0  0  0  0
    0.7145   -0.4125    0.0000 C   0  0  0  0  0  0  0  0  0  0  0  0
   -1.4290    0.0000    0.0000 C   0  0  0  0  0  0  0  0  0  0  0  0
   -0.7145    1.2375    0.0000 N   0  0  0  0  0  0  0  0  0  0  0  0
    1.4290    0.0000    0.0000 O   0  0  0  0  0  0  0  0  0  0  0  0
   -1.4290    0.8250    0.0000 C   0  0  0  0  0  0  0  0  0  0  0  0
    0.7145   -1.2375    0.0000 H   0  0  0  0  0  0  0  0  0  0  0  0
   -0.7145   -1.4445    0.0000 H   0  0  0  0  0  0  0  0  0  0  0  0
    0.8937    1.3410    0.0000 H   0  0  0  0  0  0  0  0  0  0  0  0
   -2.3227   -0.5160    0.0000 H   0  0  0  0  0  0  0  0  0  0  0  0
   -2.3227    1.3410    0.0000 H   0  0  0  0  0  0  0  0  0  0  0  0
  1  2  1  0  0  0  0
  1  3  2  0  0  0  0
  1  4  1  0  0  0  0
  2  5  2  0  0  0  0
  2 10  1  0  0  0  0
  3  6  1  0  0  0  0
  3 11  1  0  0  0  0
  4  7  2  0  0  0  0
  4  9  1  0  0  0  0
  5  8  1  0  0  0  0
  5 12  1  0  0  0  0
  6  8  2  0  0  0  0
  8 13  1  0  0  0  0
M  END
>  <DRUGBANK_ID>
DB15905

>  <COMMON_NAME>
Nicotinaldehyde

>  <CAS_NUMBER>
500-22-1

>  <UNII>
840R4IDQ1T

>  <SYNONYMS>
3-Formylpyridine; 3-Pyridinaldehyde; 3-Pyridinecarboxaldehyde; Nicotinic aldehyde

$$$$
