65B
 OpenBabel10282417072D

 43 45  0  0  0  0  0  0  0  0999 V2000
    2.0516   -0.7771    0.0000 C   0  0  0  0  0  0  0  0  0  0  0  0
    2.0516    0.0479    0.0000 O   0  0  0  0  0  0  0  0  0  0  0  0
    2.7660   -1.1896    0.0000 C   0  0  0  0  0  0  0  0  0  0  0  0
    3.4805   -0.7771    0.0000 C   0  0  0  0  0  0  0  0  0  0  0  0
    2.7660   -2.0146    0.0000 C   0  0  0  0  0  0  0  0  0  0  0  0
    2.0516   -2.4271    0.0000 C   0  0  0  0  0  0  0  0  0  0  0  0
    1.3371   -2.0146    0.0000 C   0  0  0  0  0  0  0  0  0  0  0  0
    1.3371   -1.1896    0.0000 C   0  0  0  0  0  0  0  0  0  0  0  0
    0.6226   -0.7771    0.0000 C   0  0  0  0  0  0  0  0  0  0  0  0
    1.3371    0.4604    0.0000 C   0  0  0  0  0  0  0  0  0  0  0  0
    0.6226    0.0479    0.0000 N   0  0  0  0  0  0  0  0  0  0  0  0
   -0.0918    0.4604    0.0000 C   0  0  0  0  0  0  0  0  0  0  0  0
   -0.8063    0.0479    0.0000 N   0  0  0  0  0  0  0  0  0  0  0  0
   -0.0918    1.2854    0.0000 N   0  0  0  0  0  0  0  0  0  0  0  0
    0.6226    1.6979    0.0000 C   0  0  0  0  0  0  0  0  0  0  0  0
    0.6226    2.5229    0.0000 N   0  0  0  0  0  0  0  0  0  0  0  0
    1.3371    1.2854    0.0000 C   0  0  0  0  0  0  0  0  0  0  0  0
   -1.5208    0.4604    0.0000 C   0  0  0  0  0  0  0  0  0  0  0  0
   -2.2353    0.0479    0.0000 C   0  0  0  0  0  0  0  0  0  0  0  0
   -2.9497    0.4604    0.0000 C   0  0  0  0  0  0  0  0  0  0  0  0
   -2.9497    1.2854    0.0000 C   0  0  0  0  0  0  0  0  0  0  0  0
   -2.2353    1.6979    0.0000 C   0  0  0  0  0  0  0  0  0  0  0  0
   -1.5208    1.2854    0.0000 C   0  0  0  0  0  0  0  0  0  0  0  0
   -3.6642    1.6979    0.0000 C   0  0  0  0  0  0  0  0  0  0  0  0
   -4.3787    2.1104    0.0000 N   0  0  0  0  0  0  0  0  0  0  0  0
    2.0516   -3.2521    0.0000 C   0  0  0  0  0  0  0  0  0  0  0  0
    2.0516   -4.0771    0.0000 N   0  0  0  0  0  0  0  0  0  0  0  0
    2.0516    1.6979    0.0000 Br  0  0  0  0  0  0  0  0  0  0  0  0
    4.4071   -1.3121    0.0000 H   0  0  0  0  0  0  0  0  0  0  0  0
    3.4805    0.2929    0.0000 H   0  0  0  0  0  0  0  0  0  0  0  0
    4.4072   -0.2421    0.0000 H   0  0  0  0  0  0  0  0  0  0  0  0
    3.6597   -2.5306    0.0000 H   0  0  0  0  0  0  0  0  0  0  0  0
    0.4434   -2.5306    0.0000 H   0  0  0  0  0  0  0  0  0  0  0  0
    0.6226    0.2929    0.0000 H   0  0  0  0  0  0  0  0  0  0  0  0
   -0.3040   -1.3121    0.0000 H   0  0  0  0  0  0  0  0  0  0  0  0
   -0.3041   -0.2421    0.0000 H   0  0  0  0  0  0  0  0  0  0  0  0
   -0.8063   -0.9366    0.0000 H   0  0  0  0  0  0  0  0  0  0  0  0
    1.4752    3.0152    0.0000 H   0  0  0  0  0  0  0  0  0  0  0  0
   -0.2300    3.0151    0.0000 H   0  0  0  0  0  0  0  0  0  0  0  0
   -2.2353   -0.9841    0.0000 H   0  0  0  0  0  0  0  0  0  0  0  0
   -3.8434   -0.0556    0.0000 H   0  0  0  0  0  0  0  0  0  0  0  0
   -2.2353    2.7299    0.0000 H   0  0  0  0  0  0  0  0  0  0  0  0
   -0.6271    1.8014    0.0000 H   0  0  0  0  0  0  0  0  0  0  0  0
  1  2  1  0  0  0  0
  1  3  1  0  0  0  0
  1  8  2  0  0  0  0
  2 10  1  0  0  0  0
  3  4  1  0  0  0  0
  3  5  2  0  0  0  0
  4 29  1  0  0  0  0
  4 30  1  0  0  0  0
  4 31  1  0  0  0  0
  5  6  1  0  0  0  0
  5 32  1  0  0  0  0
  6  7  2  0  0  0  0
  6 26  1  0  0  0  0
  7  8  1  0  0  0  0
  7 33  1  0  0  0  0
  8  9  1  0  0  0  0
  9 34  1  0  0  0  0
  9 35  1  0  0  0  0
  9 36  1  0  0  0  0
 10 11  1  0  0  0  0
 10 17  2  0  0  0  0
 11 12  2  0  0  0  0
 12 13  1  0  0  0  0
 12 14  1  0  0  0  0
 13 18  1  0  0  0  0
 13 37  1  0  0  0  0
 14 15  2  0  0  0  0
 15 16  1  0  0  0  0
 15 17  1  0  0  0  0
 16 38  1  0  0  0  0
 16 39  1  0  0  0  0
 17 28  1  0  0  0  0
 18 19  1  0  0  0  0
 18 23  2  0  0  0  0
 19 20  2  0  0  0  0
 19 40  1  0  0  0  0
 20 21  1  0  0  0  0
 20 41  1  0  0  0  0
 21 22  2  0  0  0  0
 21 24  1  0  0  0  0
 22 23  1  0  0  0  0
 22 42  1  0  0  0  0
 23 43  1  0  0  0  0
 24 25  3  0  0  0  0
 26 27  3  0  0  0  0
M  END
>  <DRUGBANK_ID>
DB06414

>  <SECONDARY_ACCESSION_NUMBERS>
DB07191

>  <COMMON_NAME>
Etravirine

>  <CAS_NUMBER>
269055-15-4

>  <UNII>
0C50HW4FO1

>  <SYNONYMS>
Etravirina; Etravirine

$$$$
