E04
 OpenBabel10282417072D

 62 66  0  0  0  0  0  0  0  0999 V2000
    3.8730    0.5125    0.0000 O   0  0  0  0  0  0  0  0  0  0  0  0
    3.1114    0.1953    0.0000 C   0  0  0  0  0  0  0  0  0  0  0  0
    3.0053   -0.6229    0.0000 C   0  0  0  0  0  0  0  0  0  0  0  0
    3.8294   -0.5853    0.0000 C   0  0  0  0  0  0  0  0  0  0  0  0
    3.1854   -1.4280    0.0000 C   0  0  0  0  0  0  0  0  0  0  0  0
    2.2437   -0.9400    0.0000 C   0  0  0  0  0  0  0  0  0  0  0  0
    1.5882   -0.4390    0.0000 C   0  0  0  0  0  0  0  0  0  0  0  0
    1.6943    0.3791    0.0000 C   0  0  1  0  0  0  0  0  0  0  0  0
    2.4559    0.6963    0.0000 O   0  0  0  0  0  0  0  0  0  0  0  0
    0.9037    0.1433    0.0000 C   0  0  2  0  0  0  0  0  0  0  0  0
    1.2209   -0.6183    0.0000 C   0  0  0  0  0  0  0  0  0  0  0  0
    0.4352    0.8223    0.0000 C   0  0  1  0  0  0  0  0  0  0  0  0
    0.9362    1.4778    0.0000 C   0  0  0  0  0  0  0  0  0  0  0  0
    1.7144    1.2039    0.0000 C   0  0  0  0  0  0  0  0  0  0  0  0
   -0.3872    0.7560    0.0000 C   0  0  1  0  0  0  0  0  0  0  0  0
   -0.7409    0.0107    0.0000 C   0  0  2  0  0  0  0  0  0  0  0  0
   -0.2723   -0.6683    0.0000 C   0  0  0  0  0  0  0  0  0  0  0  0
    0.5500   -0.6020    0.0000 C   0  0  0  0  0  0  0  0  0  0  0  0
   -1.5632   -0.0556    0.0000 C   0  0  0  0  0  0  0  0  0  0  0  0
   -1.9170   -0.8009    0.0000 C   0  0  0  0  0  0  0  0  0  0  0  0
   -2.7393   -0.8672    0.0000 C   0  0  0  0  0  0  0  0  0  0  0  0
   -3.2079   -0.1882    0.0000 C   0  0  0  0  0  0  0  0  0  0  0  0
   -4.0302   -0.2545    0.0000 C   0  0  0  0  0  0  0  0  0  0  0  0
   -4.3840   -0.9998    0.0000 O   0  0  0  0  0  0  0  0  0  0  0  0
   -4.4988    0.4246    0.0000 N   0  0  0  0  0  0  0  0  0  0  0  0
   -2.8542    0.5571    0.0000 C   0  0  0  0  0  0  0  0  0  0  0  0
   -2.0318    0.6234    0.0000 C   0  0  0  0  0  0  0  0  0  0  0  0
   -1.6781    1.3687    0.0000 C   0  0  0  0  0  0  0  0  0  0  0  0
   -0.8557    1.4350    0.0000 C   0  0  0  0  0  0  0  0  0  0  0  0
    0.1556    1.3349    0.0000 H   0  0  0  0  0  0  0  0  0  0  0  0
   -0.1368    1.2835    0.0000 H   0  0  0  0  0  0  0  0  0  0  0  0
   -0.9913   -0.5168    0.0000 H   0  0  0  0  0  0  0  0  0  0  0  0
    4.4061   -1.4866    0.0000 H   0  0  0  0  0  0  0  0  0  0  0  0
    4.3216    0.3648    0.0000 H   0  0  0  0  0  0  0  0  0  0  0  0
    4.8983   -0.5365    0.0000 H   0  0  0  0  0  0  0  0  0  0  0  0
    2.3979   -2.1524    0.0000 H   0  0  0  0  0  0  0  0  0  0  0  0
    4.2065   -1.7478    0.0000 H   0  0  0  0  0  0  0  0  0  0  0  0
    3.4190   -2.4722    0.0000 H   0  0  0  0  0  0  0  0  0  0  0  0
    2.1060   -2.0011    0.0000 H   0  0  0  0  0  0  0  0  0  0  0  0
    1.2559   -1.3513    0.0000 H   0  0  0  0  0  0  0  0  0  0  0  0
    0.6004   -0.8504    0.0000 H   0  0  0  0  0  0  0  0  0  0  0  0
    0.7381    0.2107    0.0000 H   0  0  0  0  0  0  0  0  0  0  0  0
    0.5712   -1.4685    0.0000 H   0  0  0  0  0  0  0  0  0  0  0  0
    2.2820   -0.7559    0.0000 H   0  0  0  0  0  0  0  0  0  0  0  0
    1.6323   -1.6061    0.0000 H   0  0  0  0  0  0  0  0  0  0  0  0
    0.6303    2.5032    0.0000 H   0  0  0  0  0  0  0  0  0  0  0  0
    1.7109    2.2158    0.0000 H   0  0  0  0  0  0  0  0  0  0  0  0
    2.5951    1.8116    0.0000 H   0  0  0  0  0  0  0  0  0  0  0  0
    1.5727    2.2645    0.0000 H   0  0  0  0  0  0  0  0  0  0  0  0
   -0.7311   -1.6350    0.0000 H   0  0  0  0  0  0  0  0  0  0  0  0
    0.3354   -1.5490    0.0000 H   0  0  0  0  0  0  0  0  0  0  0  0
    1.1578   -1.4826    0.0000 H   0  0  0  0  0  0  0  0  0  0  0  0
    0.0912   -1.5687    0.0000 H   0  0  0  0  0  0  0  0  0  0  0  0
   -1.3309   -1.6503    0.0000 H   0  0  0  0  0  0  0  0  0  0  0  0
   -3.1818   -1.7995    0.0000 H   0  0  0  0  0  0  0  0  0  0  0  0
   -4.0766    1.3140    0.0000 H   0  0  0  0  0  0  0  0  0  0  0  0
   -5.4801    0.3455    0.0000 H   0  0  0  0  0  0  0  0  0  0  0  0
   -3.4404    1.4065    0.0000 H   0  0  0  0  0  0  0  0  0  0  0  0
   -2.2859    2.2493    0.0000 H   0  0  0  0  0  0  0  0  0  0  0  0
   -1.2193    2.3353    0.0000 H   0  0  0  0  0  0  0  0  0  0  0  0
   -0.3969    2.4016    0.0000 H   0  0  0  0  0  0  0  0  0  0  0  0
   -1.4634    2.3157    0.0000 H   0  0  0  0  0  0  0  0  0  0  0  0
  1  2  2  0  0  0  0
  2  3  1  0  0  0  0
  2  9  1  0  0  0  0
  3  4  1  0  0  0  0
  3  5  1  0  0  0  0
  3  6  1  0  0  0  0
  4 33  1  0  0  0  0
  4 34  1  0  0  0  0
  4 35  1  0  0  0  0
  5 36  1  0  0  0  0
  5 37  1  0  0  0  0
  5 38  1  0  0  0  0
  6  7  1  0  0  0  0
  6 39  1  0  0  0  0
  6 40  1  0  0  0  0
  7  8  1  0  0  0  0
  7 41  1  0  0  0  0
  7 42  1  0  0  0  0
  8  9  1  6  0  0  0
  8 10  1  0  0  0  0
  8 14  1  0  0  0  0
 10 11  1  6  0  0  0
 10 12  1  0  0  0  0
 10 18  1  0  0  0  0
 11 43  1  0  0  0  0
 11 44  1  0  0  0  0
 11 45  1  0  0  0  0
 12 13  1  0  0  0  0
 12 15  1  0  0  0  0
 12 30  1  1  0  0  0
 13 14  1  0  0  0  0
 13 46  1  0  0  0  0
 13 47  1  0  0  0  0
 14 48  1  0  0  0  0
 14 49  1  0  0  0  0
 15 16  1  0  0  0  0
 15 29  1  0  0  0  0
 15 31  1  6  0  0  0
 16 17  1  0  0  0  0
 16 19  1  0  0  0  0
 16 32  1  1  0  0  0
 17 18  1  0  0  0  0
 17 50  1  0  0  0  0
 17 51  1  0  0  0  0
 18 52  1  0  0  0  0
 18 53  1  0  0  0  0
 19 20  2  0  0  0  0
 19 27  1  0  0  0  0
 20 21  1  0  0  0  0
 20 54  1  0  0  0  0
 21 22  2  0  0  0  0
 21 55  1  0  0  0  0
 22 23  1  0  0  0  0
 22 26  1  0  0  0  0
 23 24  2  0  0  0  0
 23 25  1  0  0  0  0
 25 56  1  0  0  0  0
 25 57  1  0  0  0  0
 26 27  2  0  0  0  0
 26 58  1  0  0  0  0
 27 28  1  0  0  0  0
 28 29  1  0  0  0  0
 28 59  1  0  0  0  0
 28 60  1  0  0  0  0
 29 61  1  0  0  0  0
 29 62  1  0  0  0  0
M  END
>  <DRUGBANK_ID>
DB07700

>  <COMMON_NAME>
3-carboxamido-1,3,5(10)-estratrien-17(R)-spiro-2'(5',5'-dimethyl-6'oxo)tetrahydropyran

$$$$
