
 OpenBabel10282417072D

 42 43  0  0  1  0  0  0  0  0999 V2000
    0.2214    1.0312    0.0000 O   0  0  0  0  0  0  0  0  0  0  0  0
    0.2214   -2.2687    0.0000 O   0  0  0  0  0  0  0  0  0  0  0  0
    0.9359   -0.2062    0.0000 O   0  0  0  0  0  0  0  0  0  0  0  0
   -0.4930   -0.2062    0.0000 N   0  0  0  0  0  0  0  0  0  0  0  0
    1.6503   -1.4437    0.0000 N   0  3  0  0  0  0  0  0  0  0  0  0
    2.3649   -1.8562    0.0000 N   0  0  0  0  0  0  0  0  0  0  0  0
   -0.4930   -1.0312    0.0000 C   0  0  2  0  0  0  0  0  0  0  0  0
   -1.2075   -1.4437    0.0000 C   0  0  0  0  0  0  0  0  0  0  0  0
   -1.2075   -2.2687    0.0000 C   0  0  0  0  0  0  0  0  0  0  0  0
    0.2214   -1.4437    0.0000 C   0  0  0  0  0  0  0  0  0  0  0  0
   -1.9219   -2.6812    0.0000 C   0  0  0  0  0  0  0  0  0  0  0  0
   -0.4930   -2.6812    0.0000 C   0  0  0  0  0  0  0  0  0  0  0  0
    0.9359   -1.0312    0.0000 C   0  0  0  0  0  0  0  0  0  0  0  0
    0.2214    0.2062    0.0000 C   0  0  0  0  0  0  0  0  0  0  0  0
   -1.9219   -3.5062    0.0000 C   0  0  0  0  0  0  0  0  0  0  0  0
   -0.4930   -3.5062    0.0000 C   0  0  0  0  0  0  0  0  0  0  0  0
   -1.2075   -3.9187    0.0000 C   0  0  0  0  0  0  0  0  0  0  0  0
    0.9359    1.4437    0.0000 C   0  0  0  0  0  0  0  0  0  0  0  0
    0.9359    2.2687    0.0000 C   0  0  0  0  0  0  0  0  0  0  0  0
    0.2214    2.6812    0.0000 C   0  0  0  0  0  0  0  0  0  0  0  0
    1.6503    2.6812    0.0000 C   0  0  0  0  0  0  0  0  0  0  0  0
    0.2214    3.5062    0.0000 C   0  0  0  0  0  0  0  0  0  0  0  0
    1.6503    3.5062    0.0000 C   0  0  0  0  0  0  0  0  0  0  0  0
    0.9359    3.9187    0.0000 C   0  0  0  0  0  0  0  0  0  0  0  0
   -1.3456    0.2861    0.0000 H   0  0  0  0  0  0  0  0  0  0  0  0
   -1.4196   -0.4962    0.0000 H   0  0  0  0  0  0  0  0  0  0  0  0
   -2.1341   -0.9087    0.0000 H   0  0  0  0  0  0  0  0  0  0  0  0
   -2.1341   -1.9787    0.0000 H   0  0  0  0  0  0  0  0  0  0  0  0
   -2.8156   -2.1652    0.0000 H   0  0  0  0  0  0  0  0  0  0  0  0
    0.4007   -2.1652    0.0000 H   0  0  0  0  0  0  0  0  0  0  0  0
    0.9359    0.0388    0.0000 H   0  0  0  0  0  0  0  0  0  0  0  0
    0.0093   -0.4962    0.0000 H   0  0  0  0  0  0  0  0  0  0  0  0
   -2.8156   -4.0222    0.0000 H   0  0  0  0  0  0  0  0  0  0  0  0
    0.4007   -4.0222    0.0000 H   0  0  0  0  0  0  0  0  0  0  0  0
   -1.2075   -4.9507    0.0000 H   0  0  0  0  0  0  0  0  0  0  0  0
    1.8625    0.9087    0.0000 H   0  0  0  0  0  0  0  0  0  0  0  0
    1.8625    1.9787    0.0000 H   0  0  0  0  0  0  0  0  0  0  0  0
   -0.6723    2.1652    0.0000 H   0  0  0  0  0  0  0  0  0  0  0  0
    2.5440    2.1652    0.0000 H   0  0  0  0  0  0  0  0  0  0  0  0
   -0.6723    4.0222    0.0000 H   0  0  0  0  0  0  0  0  0  0  0  0
    2.5440    4.0222    0.0000 H   0  0  0  0  0  0  0  0  0  0  0  0
    0.9359    4.9507    0.0000 H   0  0  0  0  0  0  0  0  0  0  0  0
  1 14  1  0  0  0  0
  1 18  1  0  0  0  0
  2 10  2  0  0  0  0
  3 14  2  0  0  0  0
  4 14  1  0  0  0  0
  4 25  1  0  0  0  0
  5  6  3  0  0  0  0
  5 13  1  0  0  0  0
  7  4  1  0  0  0  0
  7  8  1  0  0  0  0
  7 10  1  0  0  0  0
  7 26  1  6  0  0  0
  8  9  1  0  0  0  0
  8 27  1  0  0  0  0
  8 28  1  0  0  0  0
  9 11  2  0  0  0  0
  9 12  1  0  0  0  0
 10 13  1  0  0  0  0
 11 15  1  0  0  0  0
 11 29  1  0  0  0  0
 12 16  2  0  0  0  0
 12 30  1  0  0  0  0
 13 31  1  0  0  0  0
 13 32  1  0  0  0  0
 15 17  2  0  0  0  0
 15 33  1  0  0  0  0
 16 17  1  0  0  0  0
 16 34  1  0  0  0  0
 17 35  1  0  0  0  0
 18 19  1  0  0  0  0
 18 36  1  0  0  0  0
 18 37  1  0  0  0  0
 19 20  2  0  0  0  0
 19 21  1  0  0  0  0
 20 22  1  0  0  0  0
 20 38  1  0  0  0  0
 21 23  2  0  0  0  0
 21 39  1  0  0  0  0
 22 24  2  0  0  0  0
 22 40  1  0  0  0  0
 23 24  1  0  0  0  0
 23 41  1  0  0  0  0
 24 42  1  0  0  0  0
M  CHG  1   5   1
M  END
>  <DRUGBANK_ID>
DB02766

>  <SECONDARY_ACCESSION_NUMBERS>
EXPT03288

>  <COMMON_NAME>
(3R)-3-{[(Benzyloxy)carbonyl]amino}-2-oxo-4-phenylbutane-1-diazonium

$$$$
