
 OpenBabel10282417072D

 29 28  0  0  0  0  0  0  0  0999 V2000
    3.9039    3.0789    0.0000 C   0  0  0  0  0  0  0  0  0  0  0  0
    3.1895    2.6664    0.0000 C   0  0  0  0  0  0  0  0  0  0  0  0
    2.4750    3.0789    0.0000 C   0  0  0  0  0  0  0  0  0  0  0  0
    3.1895    1.8414    0.0000 C   0  0  3  0  0  0  0  0  0  0  0  0
    2.4750    1.4289    0.0000 C   0  0  0  0  0  0  0  0  0  0  0  0
    1.7605    1.8414    0.0000 C   0  0  0  0  0  0  0  0  0  0  0  0
    1.0461    1.4289    0.0000 C   0  0  0  0  0  0  0  0  0  0  0  0
    3.9039    1.4289    0.0000 C   0  0  0  0  0  0  0  0  0  0  0  0
    3.9039    0.6039    0.0000 O   0  0  0  0  0  0  0  0  0  0  0  0
    4.6184    1.8414    0.0000 N   0  0  0  0  0  0  0  0  0  0  0  0
    5.3329    1.4289    0.0000 C   0  0  0  0  0  0  0  0  0  0  0  0
    6.0474    1.8414    0.0000 O   0  0  0  0  0  0  0  0  0  0  0  0
    5.3329    0.6039    0.0000 N   0  0  0  0  0  0  0  0  0  0  0  0
    4.8306    2.5439    0.0000 H   0  0  0  0  0  0  0  0  0  0  0  0
    3.9039    4.1489    0.0000 H   0  0  0  0  0  0  0  0  0  0  0  0
    4.8305    3.6139    0.0000 H   0  0  0  0  0  0  0  0  0  0  0  0
    2.2629    2.1314    0.0000 H   0  0  0  0  0  0  0  0  0  0  0  0
    2.4750    4.1489    0.0000 H   0  0  0  0  0  0  0  0  0  0  0  0
    1.5484    2.5439    0.0000 H   0  0  0  0  0  0  0  0  0  0  0  0
    1.5483    3.6139    0.0000 H   0  0  0  0  0  0  0  0  0  0  0  0
    2.2629    2.3764    0.0000 H   0  0  0  0  0  0  0  0  0  0  0  0
    2.4750    0.3589    0.0000 H   0  0  0  0  0  0  0  0  0  0  0  0
    1.5484    0.8939    0.0000 H   0  0  0  0  0  0  0  0  0  0  0  0
    1.7605    2.8734    0.0000 H   0  0  0  0  0  0  0  0  0  0  0  0
    0.1523    1.9449    0.0000 H   0  0  0  0  0  0  0  0  0  0  0  0
    1.0461    0.3969    0.0000 H   0  0  0  0  0  0  0  0  0  0  0  0
    4.6184    2.8259    0.0000 H   0  0  0  0  0  0  0  0  0  0  0  0
    4.4803    0.1116    0.0000 H   0  0  0  0  0  0  0  0  0  0  0  0
    6.1855    0.1117    0.0000 H   0  0  0  0  0  0  0  0  0  0  0  0
  1  2  1  0  0  0  0
  1 14  1  0  0  0  0
  1 15  1  0  0  0  0
  1 16  1  0  0  0  0
  2  3  1  0  0  0  0
  2  4  1  0  0  0  0
  2 17  1  0  0  0  0
  3 18  1  0  0  0  0
  3 19  1  0  0  0  0
  3 20  1  0  0  0  0
  4  5  1  0  0  0  0
  4  8  1  0  0  0  0
  4 21  1  0  0  0  0
  5  6  1  0  0  0  0
  5 22  1  0  0  0  0
  5 23  1  0  0  0  0
  6  7  2  0  0  0  0
  6 24  1  0  0  0  0
  7 25  1  0  0  0  0
  7 26  1  0  0  0  0
  8  9  2  0  0  0  0
  8 10  1  0  0  0  0
 10 11  1  0  0  0  0
 10 27  1  0  0  0  0
 11 12  2  0  0  0  0
 11 13  1  0  0  0  0
 13 28  1  0  0  0  0
 13 29  1  0  0  0  0
M  END
>  <DRUGBANK_ID>
DB13221

>  <COMMON_NAME>
Apronalide

>  <CAS_NUMBER>
528-92-7

>  <UNII>
V18J24E25E

>  <SYNONYMS>
Apronal

$$$$
