
 OpenBabel10282417072D

 54 57  0  0  1  0  0  0  0  0999 V2000
   19.9901   -3.2203    0.0000 O   0  0  0  0  0  0  0  0  0  0  0  0
   14.5045   -6.7736    0.0000 O   0  0  0  0  0  0  0  0  0  0  0  0
   17.5244   -5.0808    0.0000 C   0  0  1  0  0  0  0  0  0  0  0  0
   18.2389   -5.4932    0.0000 C   0  0  2  0  0  0  0  0  0  0  0  0
   16.7738   -5.4988    0.0000 C   0  0  2  0  0  0  0  0  0  0  0  0
   18.9532   -5.0808    0.0000 C   0  0  1  0  0  0  0  0  0  0  0  0
   18.9532   -4.2559    0.0000 C   0  0  2  0  0  0  0  0  0  0  0  0
   16.7672   -6.3580    0.0000 C   0  0  1  0  0  0  0  0  0  0  0  0
   17.5244   -4.2559    0.0000 C   0  0  0  0  0  0  0  0  0  0  0  0
   18.2389   -3.8434    0.0000 C   0  0  0  0  0  0  0  0  0  0  0  0
   18.2521   -6.3523    0.0000 C   0  0  0  0  0  0  0  0  0  0  0  0
   19.7338   -5.3320    0.0000 C   0  0  0  0  0  0  0  0  0  0  0  0
   19.7338   -4.0044    0.0000 C   0  0  2  0  0  0  0  0  0  0  0  0
   16.0093   -5.0334    0.0000 C   0  0  2  0  0  0  0  0  0  0  0  0
   17.5113   -6.7876    0.0000 C   0  0  0  0  0  0  0  0  0  0  0  0
   20.2152   -4.6683    0.0000 C   0  0  0  0  0  0  0  0  0  0  0  0
   16.7801   -4.6739    0.0000 C   0  0  0  0  0  0  0  0  0  0  0  0
   15.9956   -6.8114    0.0000 C   0  0  0  0  0  0  0  0  0  0  0  0
   18.9532   -3.4310    0.0000 C   0  0  0  0  0  0  0  0  0  0  0  0
   15.2273   -5.4690    0.0000 C   0  0  0  0  0  0  0  0  0  0  0  0
   15.2204   -6.3639    0.0000 C   0  0  0  0  0  0  0  0  0  0  0  0
   16.0252   -4.2087    0.0000 C   0  0  0  0  0  0  0  0  0  0  0  0
   17.5599   -5.9469    0.0000 H   0  0  0  0  0  0  0  0  0  0  0  0
   18.2629   -4.6776    0.0000 H   0  0  0  0  0  0  0  0  0  0  0  0
   19.0231   -5.9844    0.0000 H   0  0  0  0  0  0  0  0  0  0  0  0
   16.7697   -7.0179    0.0000 H   0  0  0  0  0  0  0  0  0  0  0  0
   20.9393   -3.0203    0.0000 H   0  0  0  0  0  0  0  0  0  0  0  0
   16.5978   -3.7209    0.0000 H   0  0  0  0  0  0  0  0  0  0  0  0
   17.5244   -3.1859    0.0000 H   0  0  0  0  0  0  0  0  0  0  0  0
   18.2390   -2.7734    0.0000 H   0  0  0  0  0  0  0  0  0  0  0  0
   17.3123   -3.3084    0.0000 H   0  0  0  0  0  0  0  0  0  0  0  0
   19.1848   -6.8766    0.0000 H   0  0  0  0  0  0  0  0  0  0  0  0
   18.2624   -7.4223    0.0000 H   0  0  0  0  0  0  0  0  0  0  0  0
   20.0663   -6.3490    0.0000 H   0  0  0  0  0  0  0  0  0  0  0  0
   20.7908   -5.4980    0.0000 H   0  0  0  0  0  0  0  0  0  0  0  0
   18.9788   -3.2462    0.0000 H   0  0  0  0  0  0  0  0  0  0  0  0
   16.9471   -4.5182    0.0000 H   0  0  0  0  0  0  0  0  0  0  0  0
   17.5154   -7.8576    0.0000 H   0  0  0  0  0  0  0  0  0  0  0  0
   18.4410   -7.3173    0.0000 H   0  0  0  0  0  0  0  0  0  0  0  0
   21.2852   -4.6684    0.0000 H   0  0  0  0  0  0  0  0  0  0  0  0
   20.7015   -3.7152    0.0000 H   0  0  0  0  0  0  0  0  0  0  0  0
   17.7108   -4.1460    0.0000 H   0  0  0  0  0  0  0  0  0  0  0  0
   15.8576   -4.1318    0.0000 H   0  0  0  0  0  0  0  0  0  0  0  0
   16.7883   -3.6039    0.0000 H   0  0  0  0  0  0  0  0  0  0  0  0
   15.9997   -7.8814    0.0000 H   0  0  0  0  0  0  0  0  0  0  0  0
   15.0700   -7.3482    0.0000 H   0  0  0  0  0  0  0  0  0  0  0  0
   19.8798   -2.8960    0.0000 H   0  0  0  0  0  0  0  0  0  0  0  0
   18.0266   -2.8960    0.0000 H   0  0  0  0  0  0  0  0  0  0  0  0
   18.9532   -2.3610    0.0000 H   0  0  0  0  0  0  0  0  0  0  0  0
   14.3069   -4.9233    0.0000 H   0  0  0  0  0  0  0  0  0  0  0  0
   14.2955   -5.9951    0.0000 H   0  0  0  0  0  0  0  0  0  0  0  0
   16.9620   -3.6917    0.0000 H   0  0  0  0  0  0  0  0  0  0  0  0
   15.1090   -3.6559    0.0000 H   0  0  0  0  0  0  0  0  0  0  0  0
   16.0458   -3.1389    0.0000 H   0  0  0  0  0  0  0  0  0  0  0  0
  1 27  1  0  0  0  0
  2 21  2  0  0  0  0
  3  4  1  0  0  0  0
  3  5  1  0  0  0  0
  3  9  1  0  0  0  0
  3 23  1  6  0  0  0
  4  6  1  0  0  0  0
  4 11  1  0  0  0  0
  4 24  1  1  0  0  0
  5  8  1  0  0  0  0
  5 14  1  0  0  0  0
  5 17  1  1  0  0  0
  6  7  1  0  0  0  0
  6 12  1  0  0  0  0
  6 25  1  6  0  0  0
  7 10  1  0  0  0  0
  7 13  1  0  0  0  0
  7 19  1  1  0  0  0
  8 15  1  0  0  0  0
  8 18  1  0  0  0  0
  8 26  1  6  0  0  0
  9 10  1  0  0  0  0
  9 28  1  0  0  0  0
  9 29  1  0  0  0  0
 10 30  1  0  0  0  0
 10 31  1  0  0  0  0
 11 15  1  0  0  0  0
 11 32  1  0  0  0  0
 11 33  1  0  0  0  0
 12 16  1  0  0  0  0
 12 34  1  0  0  0  0
 12 35  1  0  0  0  0
 13  1  1  0  0  0  0
 13 16  1  0  0  0  0
 13 36  1  6  0  0  0
 14 20  1  0  0  0  0
 14 22  1  0  0  0  0
 14 37  1  1  0  0  0
 15 38  1  0  0  0  0
 15 39  1  0  0  0  0
 16 40  1  0  0  0  0
 16 41  1  0  0  0  0
 17 42  1  0  0  0  0
 17 43  1  0  0  0  0
 17 44  1  0  0  0  0
 18 21  1  0  0  0  0
 18 45  1  0  0  0  0
 18 46  1  0  0  0  0
 19 47  1  0  0  0  0
 19 48  1  0  0  0  0
 19 49  1  0  0  0  0
 20 21  1  0  0  0  0
 20 50  1  0  0  0  0
 20 51  1  0  0  0  0
 22 52  1  0  0  0  0
 22 53  1  0  0  0  0
 22 54  1  0  0  0  0
M  END
>  <DRUGBANK_ID>
DB13587

>  <COMMON_NAME>
Mesterolone

>  <CAS_NUMBER>
1424-00-6

>  <UNII>
0SRQ75X9I9

>  <SYNONYMS>
Mesterolona; Mesterolone

$$$$
