
 OpenBabel10282417072D

 21 22  0  0  0  0  0  0  0  0999 V2000
    1.0717   -1.6500    0.0000 Cl  0  0  0  0  0  0  0  0  0  0  0  0
    2.5006    0.8250    0.0000 Cl  0  0  0  0  0  0  0  0  0  0  0  0
   -0.3572   -1.6500    0.0000 O   0  0  0  0  0  0  0  0  0  0  0  0
   -2.5006    0.4125    0.0000 O   0  0  0  0  0  0  0  0  0  0  0  0
   -1.7861    1.6500    0.0000 O   0  0  0  0  0  0  0  0  0  0  0  0
   -0.3572    0.8250    0.0000 N   0  0  0  0  0  0  0  0  0  0  0  0
    0.3572   -0.4125    0.0000 C   0  0  0  0  0  0  0  0  0  0  0  0
    0.3572    0.4125    0.0000 C   0  0  0  0  0  0  0  0  0  0  0  0
   -0.3572   -0.8250    0.0000 C   0  0  0  0  0  0  0  0  0  0  0  0
    1.0717   -0.8250    0.0000 C   0  0  0  0  0  0  0  0  0  0  0  0
   -1.0717    0.4125    0.0000 C   0  0  0  0  0  0  0  0  0  0  0  0
   -1.0717   -0.4125    0.0000 C   0  0  0  0  0  0  0  0  0  0  0  0
    1.0717    0.8250    0.0000 C   0  0  0  0  0  0  0  0  0  0  0  0
    1.7861    0.4125    0.0000 C   0  0  0  0  0  0  0  0  0  0  0  0
    1.7861   -0.4125    0.0000 C   0  0  0  0  0  0  0  0  0  0  0  0
   -1.7861    0.8250    0.0000 C   0  0  0  0  0  0  0  0  0  0  0  0
   -1.1687   -2.1185    0.0000 H   0  0  0  0  0  0  0  0  0  0  0  0
   -0.9746    2.1185    0.0000 H   0  0  0  0  0  0  0  0  0  0  0  0
   -1.9654   -0.9285    0.0000 H   0  0  0  0  0  0  0  0  0  0  0  0
    1.0717    1.8570    0.0000 H   0  0  0  0  0  0  0  0  0  0  0  0
    2.6798   -0.9285    0.0000 H   0  0  0  0  0  0  0  0  0  0  0  0
  1 10  1  0  0  0  0
  2 14  1  0  0  0  0
  3  9  1  0  0  0  0
  3 17  1  0  0  0  0
  4 16  2  0  0  0  0
  5 16  1  0  0  0  0
  5 18  1  0  0  0  0
  6  8  2  0  0  0  0
  6 11  1  0  0  0  0
  7  8  1  0  0  0  0
  7  9  2  0  0  0  0
  7 10  1  0  0  0  0
  8 13  1  0  0  0  0
  9 12  1  0  0  0  0
 10 15  2  0  0  0  0
 11 12  2  0  0  0  0
 11 16  1  0  0  0  0
 12 19  1  0  0  0  0
 13 14  2  0  0  0  0
 13 20  1  0  0  0  0
 14 15  1  0  0  0  0
 15 21  1  0  0  0  0
M  END
>  <DRUGBANK_ID>
DB01931

>  <SECONDARY_ACCESSION_NUMBERS>
EXPT01212

>  <COMMON_NAME>
5,7-Dichlorokynurenic acid

>  <CAS_NUMBER>
131123-76-7

>  <UNII>
T61ORK73PY

>  <SYNONYMS>
5,7-Dcka; 5,7-Dichloroquinurenic acid; 5,7-Dichorokynurenic acid

$$$$
