
 OpenBabel10282417072D

 57 62  0  0  0  0  0  0  0  0999 V2000
   -4.2068   -8.4778    0.0000 C   0  0  0  0  0  0  0  0  0  0  0  0
   -3.6548   -7.8647    0.0000 N   0  0  0  0  0  0  0  0  0  0  0  0
   -3.9097   -7.0801    0.0000 C   0  0  0  0  0  0  0  0  0  0  0  0
   -3.3577   -6.4670    0.0000 C   0  0  0  0  0  0  0  0  0  0  0  0
   -2.5507   -6.6385    0.0000 N   0  0  0  0  0  0  0  0  0  0  0  0
   -2.2958   -7.4231    0.0000 C   0  0  0  0  0  0  0  0  0  0  0  0
   -2.8478   -8.0362    0.0000 C   0  0  0  0  0  0  0  0  0  0  0  0
   -1.9987   -6.0254    0.0000 C   0  0  0  0  0  0  0  0  0  0  0  0
   -2.2536   -5.2408    0.0000 C   0  0  0  0  0  0  0  0  0  0  0  0
   -1.7016   -4.6277    0.0000 C   0  0  0  0  0  0  0  0  0  0  0  0
   -0.8946   -4.7992    0.0000 C   0  0  0  0  0  0  0  0  0  0  0  0
   -0.6397   -5.5838    0.0000 C   0  0  0  0  0  0  0  0  0  0  0  0
   -1.1917   -6.1969    0.0000 C   0  0  0  0  0  0  0  0  0  0  0  0
   -0.3426   -4.1861    0.0000 C   0  0  0  0  0  0  0  0  0  0  0  0
   -0.5975   -3.4015    0.0000 C   0  0  0  0  0  0  0  0  0  0  0  0
   -0.0455   -2.7884    0.0000 C   0  0  0  0  0  0  0  0  0  0  0  0
    0.7615   -2.9599    0.0000 N   0  0  0  0  0  0  0  0  0  0  0  0
    1.4289   -2.4750    0.0000 C   0  0  0  0  0  0  0  0  0  0  0  0
    2.0964   -2.9599    0.0000 C   0  0  0  0  0  0  0  0  0  0  0  0
    1.8414   -3.7445    0.0000 N   0  0  0  0  0  0  0  0  0  0  0  0
    1.0164   -3.7445    0.0000 C   0  0  0  0  0  0  0  0  0  0  0  0
    0.4644   -4.3576    0.0000 C   0  0  0  0  0  0  0  0  0  0  0  0
    1.4289   -1.6500    0.0000 C   0  0  0  0  0  0  0  0  0  0  0  0
    0.7145   -1.2375    0.0000 C   0  0  0  0  0  0  0  0  0  0  0  0
    0.7145   -0.4125    0.0000 C   0  0  0  0  0  0  0  0  0  0  0  0
    1.4289    0.0000    0.0000 N   0  0  0  0  0  0  0  0  0  0  0  0
    2.1434   -0.4125    0.0000 C   0  0  0  0  0  0  0  0  0  0  0  0
    2.8579    0.0000    0.0000 C   0  0  0  0  0  0  0  0  0  0  0  0
    2.8579    0.8250    0.0000 F   0  0  0  0  0  0  0  0  0  0  0  0
    3.5724   -0.4125    0.0000 C   0  0  0  0  0  0  0  0  0  0  0  0
    3.5724   -1.2375    0.0000 C   0  0  0  0  0  0  0  0  0  0  0  0
    2.8579   -1.6500    0.0000 C   0  0  0  0  0  0  0  0  0  0  0  0
    2.1434   -1.2375    0.0000 C   0  0  0  0  0  0  0  0  0  0  0  0
   -5.2534   -8.2554    0.0000 H   0  0  0  0  0  0  0  0  0  0  0  0
   -3.8761   -9.4954    0.0000 H   0  0  0  0  0  0  0  0  0  0  0  0
   -4.9227   -9.2730    0.0000 H   0  0  0  0  0  0  0  0  0  0  0  0
   -4.9563   -6.8576    0.0000 H   0  0  0  0  0  0  0  0  0  0  0  0
   -4.2404   -6.0625    0.0000 H   0  0  0  0  0  0  0  0  0  0  0  0
   -3.6884   -5.4494    0.0000 H   0  0  0  0  0  0  0  0  0  0  0  0
   -2.6418   -5.6718    0.0000 H   0  0  0  0  0  0  0  0  0  0  0  0
   -1.2492   -7.6456    0.0000 H   0  0  0  0  0  0  0  0  0  0  0  0
   -1.9651   -8.4407    0.0000 H   0  0  0  0  0  0  0  0  0  0  0  0
   -2.5171   -9.0538    0.0000 H   0  0  0  0  0  0  0  0  0  0  0  0
   -3.5637   -8.8314    0.0000 H   0  0  0  0  0  0  0  0  0  0  0  0
   -3.2630   -5.0262    0.0000 H   0  0  0  0  0  0  0  0  0  0  0  0
   -2.0205   -3.6462    0.0000 H   0  0  0  0  0  0  0  0  0  0  0  0
    0.3697   -5.7984    0.0000 H   0  0  0  0  0  0  0  0  0  0  0  0
   -0.8728   -7.1784    0.0000 H   0  0  0  0  0  0  0  0  0  0  0  0
   -1.6069   -3.1869    0.0000 H   0  0  0  0  0  0  0  0  0  0  0  0
   -0.3644   -1.8069    0.0000 H   0  0  0  0  0  0  0  0  0  0  0  0
    3.0779   -2.6410    0.0000 H   0  0  0  0  0  0  0  0  0  0  0  0
    0.7833   -5.3391    0.0000 H   0  0  0  0  0  0  0  0  0  0  0  0
   -0.1792   -1.7535    0.0000 H   0  0  0  0  0  0  0  0  0  0  0  0
   -0.1792    0.1035    0.0000 H   0  0  0  0  0  0  0  0  0  0  0  0
    4.4661    0.1035    0.0000 H   0  0  0  0  0  0  0  0  0  0  0  0
    4.4661   -1.7535    0.0000 H   0  0  0  0  0  0  0  0  0  0  0  0
    2.8579   -2.6820    0.0000 H   0  0  0  0  0  0  0  0  0  0  0  0
  1  2  1  0  0  0  0
  1 34  1  0  0  0  0
  1 35  1  0  0  0  0
  1 36  1  0  0  0  0
  2  3  1  0  0  0  0
  2  7  1  0  0  0  0
  3  4  1  0  0  0  0
  3 37  1  0  0  0  0
  3 38  1  0  0  0  0
  4  5  1  0  0  0  0
  4 39  1  0  0  0  0
  4 40  1  0  0  0  0
  5  6  1  0  0  0  0
  5  8  1  0  0  0  0
  6  7  1  0  0  0  0
  6 41  1  0  0  0  0
  6 42  1  0  0  0  0
  7 43  1  0  0  0  0
  7 44  1  0  0  0  0
  8  9  2  0  0  0  0
  8 13  1  0  0  0  0
  9 10  1  0  0  0  0
  9 45  1  0  0  0  0
 10 11  2  0  0  0  0
 10 46  1  0  0  0  0
 11 12  1  0  0  0  0
 11 14  1  0  0  0  0
 12 13  2  0  0  0  0
 12 47  1  0  0  0  0
 13 48  1  0  0  0  0
 14 15  1  0  0  0  0
 14 22  2  0  0  0  0
 15 16  2  0  0  0  0
 15 49  1  0  0  0  0
 16 17  1  0  0  0  0
 16 50  1  0  0  0  0
 17 18  1  0  0  0  0
 17 21  1  0  0  0  0
 18 19  2  0  0  0  0
 18 23  1  0  0  0  0
 19 20  1  0  0  0  0
 19 51  1  0  0  0  0
 20 21  2  0  0  0  0
 21 22  1  0  0  0  0
 22 52  1  0  0  0  0
 23 24  2  0  0  0  0
 23 33  1  0  0  0  0
 24 25  1  0  0  0  0
 24 53  1  0  0  0  0
 25 26  2  0  0  0  0
 25 54  1  0  0  0  0
 26 27  1  0  0  0  0
 27 28  2  0  0  0  0
 27 33  1  0  0  0  0
 28 29  1  0  0  0  0
 28 30  1  0  0  0  0
 30 31  2  0  0  0  0
 30 55  1  0  0  0  0
 31 32  1  0  0  0  0
 31 56  1  0  0  0  0
 32 33  2  0  0  0  0
 32 57  1  0  0  0  0
M  END
>  <DRUGBANK_ID>
DB18034

>  <COMMON_NAME>
3-(4-(8-Fluoroquinoline) imidazole(1,2-a)pyridine-7-(1-phenyl-4-(1-(4-methyl piperazine)

>  <CAS_NUMBER>
1589086-32-7

>  <UNII>
0PD95Q5DD1

>  <SYNONYMS>
3-(4-(8-fluoroquinoline)imidazole(1,2-a)pyridine-7-(1-phenyl-4-(1-(4-methyl piperazine); Quinoline, 8-fluoro-4-(7-(4-(4-methyl-1-piperazinyl)phenyl)imidazo(1,2-a)pyridin-3-yl)-

$$$$
