
 OpenBabel10282417072D

 46 48  0  0  1  0  0  0  0  0999 V2000
   12.1808    6.5281    0.0000 C   0  0  0  0  0  0  0  0  0  0  0  0
    7.1795    5.2906    0.0000 C   0  0  0  0  0  0  0  0  0  0  0  0
   17.5819    6.6951    0.0000 C   0  0  0  0  0  0  0  0  0  0  0  0
   17.1694    7.4095    0.0000 C   0  0  0  0  0  0  0  0  0  0  0  0
    9.3229    5.7031    0.0000 C   0  0  0  0  0  0  0  0  0  0  0  0
   17.1694    5.9806    0.0000 C   0  0  0  0  0  0  0  0  0  0  0  0
   16.3444    7.4095    0.0000 C   0  0  0  0  0  0  0  0  0  0  0  0
   11.4663    4.4656    0.0000 C   0  0  0  0  0  0  0  0  0  0  0  0
   12.1808    4.0531    0.0000 C   0  0  0  0  0  0  0  0  0  0  0  0
    8.6084    5.2906    0.0000 C   0  0  0  0  0  0  0  0  0  0  0  0
   10.0374    5.2906    0.0000 C   0  0  0  0  0  0  0  0  0  0  0  0
   13.6097    5.7031    0.0000 C   0  0  0  0  0  0  0  0  0  0  0  0
   12.1808    5.7031    0.0000 C   0  0  0  0  0  0  0  0  0  0  0  0
   16.3444    5.9806    0.0000 C   0  0  0  0  0  0  0  0  0  0  0  0
   15.9319    6.6951    0.0000 C   0  0  0  0  0  0  0  0  0  0  0  0
   12.8953    5.2906    0.0000 C   0  0  0  0  0  0  0  0  0  0  0  0
   11.4663    5.2906    0.0000 C   0  0  0  0  0  0  0  0  0  0  0  0
   15.0387    5.7031    0.0000 C   0  0  0  0  0  0  0  0  0  0  0  0
   12.8953    4.4656    0.0000 N   0  0  0  0  0  0  0  0  0  0  0  0
   15.7924    5.3675    0.0000 N   0  0  0  0  0  0  0  0  0  0  0  0
   15.1249    6.5235    0.0000 N   0  0  0  0  0  0  0  0  0  0  0  0
   14.3242    4.4656    0.0000 O   0  0  0  0  0  0  0  0  0  0  0  0
    7.8940    5.7031    0.0000 O   0  0  0  0  0  0  0  0  0  0  0  0
   10.7519    5.7031    0.0000 O   0  0  0  0  0  0  0  0  0  0  0  0
   14.3242    5.2906    0.0000 S   0  0  2  0  0  0  0  0  0  0  0  0
   13.1074    7.0631    0.0000 H   0  0  0  0  0  0  0  0  0  0  0  0
   11.2542    7.0631    0.0000 H   0  0  0  0  0  0  0  0  0  0  0  0
   12.1808    7.5981    0.0000 H   0  0  0  0  0  0  0  0  0  0  0  0
    6.2529    5.8256    0.0000 H   0  0  0  0  0  0  0  0  0  0  0  0
    7.1795    4.2206    0.0000 H   0  0  0  0  0  0  0  0  0  0  0  0
    6.2528    4.7556    0.0000 H   0  0  0  0  0  0  0  0  0  0  0  0
   18.6139    6.6951    0.0000 H   0  0  0  0  0  0  0  0  0  0  0  0
   17.6854    8.3032    0.0000 H   0  0  0  0  0  0  0  0  0  0  0  0
    9.3229    6.7731    0.0000 H   0  0  0  0  0  0  0  0  0  0  0  0
   10.2495    6.2381    0.0000 H   0  0  0  0  0  0  0  0  0  0  0  0
   17.6854    5.0869    0.0000 H   0  0  0  0  0  0  0  0  0  0  0  0
   15.8284    8.3032    0.0000 H   0  0  0  0  0  0  0  0  0  0  0  0
   10.5726    3.9496    0.0000 H   0  0  0  0  0  0  0  0  0  0  0  0
   12.1808    3.0211    0.0000 H   0  0  0  0  0  0  0  0  0  0  0  0
    8.6084    4.2206    0.0000 H   0  0  0  0  0  0  0  0  0  0  0  0
    7.6817    4.7556    0.0000 H   0  0  0  0  0  0  0  0  0  0  0  0
   10.0374    4.2206    0.0000 H   0  0  0  0  0  0  0  0  0  0  0  0
   10.9640    4.7556    0.0000 H   0  0  0  0  0  0  0  0  0  0  0  0
   13.6097    6.7731    0.0000 H   0  0  0  0  0  0  0  0  0  0  0  0
   14.5363    6.2381    0.0000 H   0  0  0  0  0  0  0  0  0  0  0  0
   14.3932    7.1822    0.0000 H   0  0  0  0  0  0  0  0  0  0  0  0
  1 26  1  0  0  0  0
  1 27  1  0  0  0  0
  1 28  1  0  0  0  0
  2 29  1  0  0  0  0
  2 30  1  0  0  0  0
  2 31  1  0  0  0  0
  3 32  1  0  0  0  0
  4  3  2  0  0  0  0
  4 33  1  0  0  0  0
  5 34  1  0  0  0  0
  5 35  1  0  0  0  0
  6  3  1  0  0  0  0
  6 36  1  0  0  0  0
  7  4  1  0  0  0  0
  7 37  1  0  0  0  0
  8 38  1  0  0  0  0
  9  8  1  0  0  0  0
  9 39  1  0  0  0  0
 10  5  1  0  0  0  0
 10 40  1  0  0  0  0
 10 41  1  0  0  0  0
 11  5  1  0  0  0  0
 11 42  1  0  0  0  0
 11 43  1  0  0  0  0
 12 44  1  0  0  0  0
 12 45  1  0  0  0  0
 13  1  1  0  0  0  0
 14  6  2  0  0  0  0
 15  7  2  0  0  0  0
 15 14  1  0  0  0  0
 16 12  1  0  0  0  0
 16 13  2  0  0  0  0
 17  8  2  0  0  0  0
 17 13  1  0  0  0  0
 19  9  2  0  0  0  0
 19 16  1  0  0  0  0
 20 14  1  0  0  0  0
 20 18  2  0  0  0  0
 21 15  1  0  0  0  0
 21 18  1  0  0  0  0
 21 46  1  0  0  0  0
 23  2  1  0  0  0  0
 23 10  1  0  0  0  0
 24 11  1  0  0  0  0
 24 17  1  0  0  0  0
 25 12  1  0  0  0  0
 25 18  1  0  0  0  0
 25 22  2  6  0  0  0
M  END
>  <DRUGBANK_ID>
DB13762

>  <COMMON_NAME>
Dexrabeprazole

>  <CAS_NUMBER>
177795-60-7

>  <UNII>
65JK8810RM

>  <SYNONYMS>
Rabeprazole, (r)-

$$$$
