
 OpenBabel10282417072D

 23 22  0  0  0  0  0  0  0  0999 V2000
   -2.1434    0.2062    0.0000 C   0  0  0  0  0  0  0  0  0  0  0  0
   -1.4289   -1.0312    0.0000 C   0  0  0  0  0  0  0  0  0  0  0  0
    2.1434    0.2062    0.0000 C   0  0  0  0  0  0  0  0  0  0  0  0
    1.4289   -1.0312    0.0000 C   0  0  0  0  0  0  0  0  0  0  0  0
   -0.7144    0.2062    0.0000 C   0  0  0  0  0  0  0  0  0  0  0  0
    0.7144    0.2062    0.0000 C   0  0  0  0  0  0  0  0  0  0  0  0
   -1.4289   -0.2062    0.0000 N   0  0  0  0  0  0  0  0  0  0  0  0
    1.4289   -0.2062    0.0000 N   0  0  0  0  0  0  0  0  0  0  0  0
   -0.7144    1.0312    0.0000 S   0  0  0  0  0  0  0  0  0  0  0  0
    0.7144    1.0312    0.0000 S   0  0  0  0  0  0  0  0  0  0  0  0
    0.0000   -0.2062    0.0000 S   0  0  0  0  0  0  0  0  0  0  0  0
   -2.1435    1.2762    0.0000 H   0  0  0  0  0  0  0  0  0  0  0  0
   -3.0700   -0.3289    0.0000 H   0  0  0  0  0  0  0  0  0  0  0  0
   -3.0701    0.7411    0.0000 H   0  0  0  0  0  0  0  0  0  0  0  0
   -2.3555   -1.5662    0.0000 H   0  0  0  0  0  0  0  0  0  0  0  0
   -0.5023   -1.5662    0.0000 H   0  0  0  0  0  0  0  0  0  0  0  0
   -1.4289   -2.1012    0.0000 H   0  0  0  0  0  0  0  0  0  0  0  0
    3.0700   -0.3289    0.0000 H   0  0  0  0  0  0  0  0  0  0  0  0
    2.1435    1.2762    0.0000 H   0  0  0  0  0  0  0  0  0  0  0  0
    3.0701    0.7411    0.0000 H   0  0  0  0  0  0  0  0  0  0  0  0
    0.5023   -1.5662    0.0000 H   0  0  0  0  0  0  0  0  0  0  0  0
    2.3555   -1.5662    0.0000 H   0  0  0  0  0  0  0  0  0  0  0  0
    1.4289   -2.1012    0.0000 H   0  0  0  0  0  0  0  0  0  0  0  0
  1 12  1  0  0  0  0
  1 13  1  0  0  0  0
  1 14  1  0  0  0  0
  2 15  1  0  0  0  0
  2 16  1  0  0  0  0
  2 17  1  0  0  0  0
  3 18  1  0  0  0  0
  3 19  1  0  0  0  0
  3 20  1  0  0  0  0
  4 21  1  0  0  0  0
  4 22  1  0  0  0  0
  4 23  1  0  0  0  0
  7  1  1  0  0  0  0
  7  2  1  0  0  0  0
  7  5  1  0  0  0  0
  8  3  1  0  0  0  0
  8  4  1  0  0  0  0
  8  6  1  0  0  0  0
  9  5  2  0  0  0  0
 10  6  2  0  0  0  0
 11  5  1  0  0  0  0
 11  6  1  0  0  0  0
M  END
>  <DRUGBANK_ID>
DB14178

>  <COMMON_NAME>
Tetramethylthiuram monosulfide

>  <CAS_NUMBER>
97-74-5

>  <UNII>
01W430XXSQ

>  <SYNONYMS>
Bis(dimethylthiocarbamoyl) sulfide; TMTM; TMTMS

$$$$
