887
 OpenBabel10282417072D

 45 46  0  0  0  0  0  0  0  0999 V2000
    5.5540    2.2771    0.0000 S   0  0  0  0  0  0  0  0  0  0  0  0
    4.1250    1.4521    0.0000 O   0  0  0  0  0  0  0  0  0  0  0  0
    4.7290    2.2771    0.0000 O   0  0  0  0  0  0  0  0  0  0  0  0
    6.3790    2.2771    0.0000 O   0  0  0  0  0  0  0  0  0  0  0  0
    6.9829   -1.0229    0.0000 O   0  0  0  0  0  0  0  0  0  0  0  0
    7.6973    0.2146    0.0000 O   0  0  0  0  0  0  0  0  0  0  0  0
    4.4269   -0.4999    0.0000 N   0  0  0  0  0  0  0  0  0  0  0  0
    5.5540    3.1021    0.0000 N   0  0  0  0  0  0  0  0  0  0  0  0
    4.8395   -1.2144    0.0000 C   0  0  0  0  0  0  0  0  0  0  0  0
    4.4269   -1.9289    0.0000 C   0  0  0  0  0  0  0  0  0  0  0  0
    4.8395    0.2146    0.0000 C   0  0  0  0  0  0  0  0  0  0  0  0
    4.8395    1.0396    0.0000 C   0  0  0  0  0  0  0  0  0  0  0  0
    5.5540    1.4521    0.0000 C   0  0  0  0  0  0  0  0  0  0  0  0
    4.8395   -2.6433    0.0000 C   0  0  0  0  0  0  0  0  0  0  0  0
    5.5540   -0.1979    0.0000 C   0  0  0  0  0  0  0  0  0  0  0  0
    6.2684    0.2146    0.0000 C   0  0  0  0  0  0  0  0  0  0  0  0
    6.2684    1.0396    0.0000 C   0  0  0  0  0  0  0  0  0  0  0  0
    4.4269   -3.3578    0.0000 C   0  0  0  0  0  0  0  0  0  0  0  0
    3.3000    1.4521    0.0000 C   0  0  0  0  0  0  0  0  0  0  0  0
    6.9829   -0.1979    0.0000 C   0  0  0  0  0  0  0  0  0  0  0  0
    2.8875    0.7375    0.0000 C   0  0  0  0  0  0  0  0  0  0  0  0
    2.8876    2.1666    0.0000 C   0  0  0  0  0  0  0  0  0  0  0  0
    2.0625    0.7375    0.0000 C   0  0  0  0  0  0  0  0  0  0  0  0
    2.0625    2.1666    0.0000 C   0  0  0  0  0  0  0  0  0  0  0  0
    1.6500    1.4521    0.0000 C   0  0  0  0  0  0  0  0  0  0  0  0
    6.1714   -1.4914    0.0000 H   0  0  0  0  0  0  0  0  0  0  0  0
    3.4424   -0.4999    0.0000 H   0  0  0  0  0  0  0  0  0  0  0  0
    6.4373    3.6121    0.0000 H   0  0  0  0  0  0  0  0  0  0  0  0
    4.6707    3.6121    0.0000 H   0  0  0  0  0  0  0  0  0  0  0  0
    5.9095   -1.2144    0.0000 H   0  0  0  0  0  0  0  0  0  0  0  0
    5.3745   -2.1411    0.0000 H   0  0  0  0  0  0  0  0  0  0  0  0
    3.3569   -1.9289    0.0000 H   0  0  0  0  0  0  0  0  0  0  0  0
    3.8920   -2.8556    0.0000 H   0  0  0  0  0  0  0  0  0  0  0  0
    5.9095   -2.6433    0.0000 H   0  0  0  0  0  0  0  0  0  0  0  0
    5.3745   -3.5700    0.0000 H   0  0  0  0  0  0  0  0  0  0  0  0
    5.5540   -1.2299    0.0000 H   0  0  0  0  0  0  0  0  0  0  0  0
    7.1621    1.5556    0.0000 H   0  0  0  0  0  0  0  0  0  0  0  0
    3.3569   -3.3577    0.0000 H   0  0  0  0  0  0  0  0  0  0  0  0
    4.9618   -4.2845    0.0000 H   0  0  0  0  0  0  0  0  0  0  0  0
    3.8918   -4.2844    0.0000 H   0  0  0  0  0  0  0  0  0  0  0  0
    3.4035   -0.1562    0.0000 H   0  0  0  0  0  0  0  0  0  0  0  0
    3.4037    3.0603    0.0000 H   0  0  0  0  0  0  0  0  0  0  0  0
    1.5465   -0.1562    0.0000 H   0  0  0  0  0  0  0  0  0  0  0  0
    1.5465    3.0603    0.0000 H   0  0  0  0  0  0  0  0  0  0  0  0
    0.6180    1.4521    0.0000 H   0  0  0  0  0  0  0  0  0  0  0  0
  1  3  2  0  0  0  0
  1  4  2  0  0  0  0
  1  8  1  0  0  0  0
  1 13  1  0  0  0  0
  2 12  1  0  0  0  0
  2 19  1  0  0  0  0
  5 20  1  0  0  0  0
  5 26  1  0  0  0  0
  6 20  2  0  0  0  0
  7  9  1  0  0  0  0
  7 11  1  0  0  0  0
  7 27  1  0  0  0  0
  8 28  1  0  0  0  0
  8 29  1  0  0  0  0
  9 10  1  0  0  0  0
  9 30  1  0  0  0  0
  9 31  1  0  0  0  0
 10 14  1  0  0  0  0
 10 32  1  0  0  0  0
 10 33  1  0  0  0  0
 11 12  2  0  0  0  0
 11 15  1  0  0  0  0
 12 13  1  0  0  0  0
 13 17  2  0  0  0  0
 14 18  1  0  0  0  0
 14 34  1  0  0  0  0
 14 35  1  0  0  0  0
 15 16  2  0  0  0  0
 15 36  1  0  0  0  0
 16 17  1  0  0  0  0
 16 20  1  0  0  0  0
 17 37  1  0  0  0  0
 18 38  1  0  0  0  0
 18 39  1  0  0  0  0
 18 40  1  0  0  0  0
 19 21  2  0  0  0  0
 19 22  1  0  0  0  0
 21 23  1  0  0  0  0
 21 41  1  0  0  0  0
 22 24  2  0  0  0  0
 22 42  1  0  0  0  0
 23 25  2  0  0  0  0
 23 43  1  0  0  0  0
 24 25  1  0  0  0  0
 24 44  1  0  0  0  0
 25 45  1  0  0  0  0
M  END
>  <DRUGBANK_ID>
DB00887

>  <SECONDARY_ACCESSION_NUMBERS>
APRD00294

>  <COMMON_NAME>
Bumetanide

>  <CAS_NUMBER>
28395-03-1

>  <UNII>
0Y2S3XUQ5H

>  <SYNONYMS>
3-(aminosulfonyl)-5-(butylamino)-4-phenoxybenzoic acid; 3-butylamino-4-(phenoxy)-5-sulfamoylbenzoic acid; 3-butylamino-4-phenoxy-5-sulfamoyl-benzoic acid; 3-butylamino-4-phenoxy-5-sulfamoylbenzoic acid; Bumetanida; Bumetanide; Bumetanidum

$$$$
