
 OpenBabel10282417072D

 75 79  0  0  1  0  0  0  0  0999 V2000
    3.9849    1.1270    0.0000 C   0  0  0  0  0  0  0  0  0  0  0  0
    3.9849    1.9520    0.0000 S   0  0  0  0  0  0  0  0  0  0  0  0
    4.8099    1.9520    0.0000 O   0  0  0  0  0  0  0  0  0  0  0  0
    3.1599    1.9520    0.0000 O   0  0  0  0  0  0  0  0  0  0  0  0
    3.9849    2.7770    0.0000 N   0  0  0  0  0  0  0  0  0  0  0  0
    4.6993    3.1895    0.0000 C   0  0  0  0  0  0  0  0  0  0  0  0
    4.6993    4.0145    0.0000 C   0  0  0  0  0  0  0  0  0  0  0  0
    5.4138    4.4270    0.0000 C   0  0  0  0  0  0  0  0  0  0  0  0
    6.1283    4.0145    0.0000 C   0  0  0  0  0  0  0  0  0  0  0  0
    6.1283    3.1895    0.0000 C   0  0  0  0  0  0  0  0  0  0  0  0
    5.4138    2.7770    0.0000 C   0  0  0  0  0  0  0  0  0  0  0  0
    5.4138    1.9520    0.0000 O   0  0  0  0  0  0  0  0  0  0  0  0
    6.1283    1.5395    0.0000 C   0  0  0  0  0  0  0  0  0  0  0  0
    6.1283    0.7145    0.0000 C   0  0  0  0  0  0  0  0  0  0  0  0
    6.5408    0.0000    0.0000 C   0  0  0  0  0  0  0  0  0  0  0  0
    5.7158    0.0000    0.0000 C   0  0  0  0  0  0  0  0  0  0  0  0
    6.8427    4.4270    0.0000 C   0  0  0  0  0  0  0  0  0  0  0  0
    7.5572    4.0145    0.0000 O   0  0  0  0  0  0  0  0  0  0  0  0
    6.8427    5.2520    0.0000 O   0  0  0  0  0  0  0  0  0  0  0  0
    7.5572    5.6645    0.0000 C   0  0  1  0  0  0  0  0  0  0  0  0
    7.5572    6.4895    0.0000 C   0  0  0  0  0  0  0  0  0  0  0  0
    6.8427    6.9020    0.0000 C   0  0  0  0  0  0  0  0  0  0  0  0
    6.1283    6.4895    0.0000 C   0  0  0  0  0  0  0  0  0  0  0  0
    5.4138    6.9020    0.0000 C   0  0  0  0  0  0  0  0  0  0  0  0
    5.4138    7.7270    0.0000 N   0  3  0  0  0  0  0  0  0  0  0  0
    6.1283    8.1395    0.0000 C   0  0  0  0  0  0  0  0  0  0  0  0
    6.8427    7.7270    0.0000 C   0  0  0  0  0  0  0  0  0  0  0  0
    7.5572    8.1395    0.0000 Cl  0  0  0  0  0  0  0  0  0  0  0  0
    4.6993    8.1395    0.0000 O   0  5  0  0  0  0  0  0  0  0  0  0
    6.1283    5.6645    0.0000 Cl  0  0  0  0  0  0  0  0  0  0  0  0
    8.2717    5.2520    0.0000 C   0  0  0  0  0  0  0  0  0  0  0  0
    8.9862    5.6645    0.0000 C   0  0  0  0  0  0  0  0  0  0  0  0
    9.7006    5.2520    0.0000 C   0  0  0  0  0  0  0  0  0  0  0  0
    9.7006    4.4270    0.0000 C   0  0  0  0  0  0  0  0  0  0  0  0
    8.9862    4.0145    0.0000 C   0  0  0  0  0  0  0  0  0  0  0  0
    8.2717    4.4270    0.0000 C   0  0  0  0  0  0  0  0  0  0  0  0
    8.9862    3.1895    0.0000 O   0  0  0  0  0  0  0  0  0  0  0  0
    9.7006    2.7770    0.0000 C   0  0  0  0  0  0  0  0  0  0  0  0
    9.7006    1.9520    0.0000 C   0  0  0  0  0  0  0  0  0  0  0  0
   10.1131    1.2375    0.0000 C   0  0  0  0  0  0  0  0  0  0  0  0
    9.2881    1.2375    0.0000 C   0  0  0  0  0  0  0  0  0  0  0  0
   10.4151    4.0145    0.0000 O   0  0  0  0  0  0  0  0  0  0  0  0
   11.1296    4.4270    0.0000 C   0  0  0  0  0  0  0  0  0  0  0  0
   11.1296    5.2520    0.0000 F   0  0  0  0  0  0  0  0  0  0  0  0
   11.8440    4.0145    0.0000 F   0  0  0  0  0  0  0  0  0  0  0  0
    3.0583    0.5920    0.0000 H   0  0  0  0  0  0  0  0  0  0  0  0
    4.9115    0.5920    0.0000 H   0  0  0  0  0  0  0  0  0  0  0  0
    3.9849    0.0570    0.0000 H   0  0  0  0  0  0  0  0  0  0  0  0
    3.1323    3.2692    0.0000 H   0  0  0  0  0  0  0  0  0  0  0  0
    3.8056    4.5305    0.0000 H   0  0  0  0  0  0  0  0  0  0  0  0
    5.4138    5.4590    0.0000 H   0  0  0  0  0  0  0  0  0  0  0  0
    7.0220    2.6735    0.0000 H   0  0  0  0  0  0  0  0  0  0  0  0
    7.0549    2.0745    0.0000 H   0  0  0  0  0  0  0  0  0  0  0  0
    7.0549    1.0045    0.0000 H   0  0  0  0  0  0  0  0  0  0  0  0
    6.1283   -0.3555    0.0000 H   0  0  0  0  0  0  0  0  0  0  0  0
    7.4674   -0.5350    0.0000 H   0  0  0  0  0  0  0  0  0  0  0  0
    6.2639   -1.0335    0.0000 H   0  0  0  0  0  0  0  0  0  0  0  0
    4.7892   -0.5350    0.0000 H   0  0  0  0  0  0  0  0  0  0  0  0
    4.9592    0.7566    0.0000 H   0  0  0  0  0  0  0  0  0  0  0  0
    6.6306    6.1995    0.0000 H   0  0  0  0  0  0  0  0  0  0  0  0
    8.4838    7.0245    0.0000 H   0  0  0  0  0  0  0  0  0  0  0  0
    7.5572    7.5595    0.0000 H   0  0  0  0  0  0  0  0  0  0  0  0
    4.5201    6.3860    0.0000 H   0  0  0  0  0  0  0  0  0  0  0  0
    6.1283    9.1715    0.0000 H   0  0  0  0  0  0  0  0  0  0  0  0
    8.9862    6.6965    0.0000 H   0  0  0  0  0  0  0  0  0  0  0  0
   10.5943    5.7680    0.0000 H   0  0  0  0  0  0  0  0  0  0  0  0
    7.3780    3.9110    0.0000 H   0  0  0  0  0  0  0  0  0  0  0  0
   10.6273    3.3120    0.0000 H   0  0  0  0  0  0  0  0  0  0  0  0
   10.6272    2.2420    0.0000 H   0  0  0  0  0  0  0  0  0  0  0  0
    9.7006    0.8820    0.0000 H   0  0  0  0  0  0  0  0  0  0  0  0
   11.0397    0.7025    0.0000 H   0  0  0  0  0  0  0  0  0  0  0  0
    9.8362    0.2040    0.0000 H   0  0  0  0  0  0  0  0  0  0  0  0
    8.3615    0.7025    0.0000 H   0  0  0  0  0  0  0  0  0  0  0  0
    8.5315    1.9941    0.0000 H   0  0  0  0  0  0  0  0  0  0  0  0
   12.0563    4.9620    0.0000 H   0  0  0  0  0  0  0  0  0  0  0  0
  1  2  1  0  0  0  0
  1 46  1  0  0  0  0
  1 47  1  0  0  0  0
  1 48  1  0  0  0  0
  2  3  2  0  0  0  0
  2  4  2  0  0  0  0
  2  5  1  0  0  0  0
  5  6  1  0  0  0  0
  5 49  1  0  0  0  0
  6  7  2  0  0  0  0
  6 11  1  0  0  0  0
  7  8  1  0  0  0  0
  7 50  1  0  0  0  0
  8  9  2  0  0  0  0
  8 51  1  0  0  0  0
  9 10  1  0  0  0  0
  9 17  1  0  0  0  0
 10 11  2  0  0  0  0
 10 52  1  0  0  0  0
 11 12  1  0  0  0  0
 12 13  1  0  0  0  0
 13 14  1  0  0  0  0
 13 53  1  0  0  0  0
 13 54  1  0  0  0  0
 14 15  1  0  0  0  0
 14 16  1  0  0  0  0
 14 55  1  0  0  0  0
 15 16  1  0  0  0  0
 15 56  1  0  0  0  0
 15 57  1  0  0  0  0
 16 58  1  0  0  0  0
 16 59  1  0  0  0  0
 17 18  2  0  0  0  0
 17 19  1  0  0  0  0
 20 19  1  0  0  0  0
 20 21  1  0  0  0  0
 20 31  1  0  0  0  0
 20 60  1  6  0  0  0
 21 22  1  0  0  0  0
 21 61  1  0  0  0  0
 21 62  1  0  0  0  0
 22 23  2  0  0  0  0
 22 27  1  0  0  0  0
 23 24  1  0  0  0  0
 23 30  1  0  0  0  0
 24 25  2  0  0  0  0
 24 63  1  0  0  0  0
 25 26  1  0  0  0  0
 25 29  1  0  0  0  0
 26 27  2  0  0  0  0
 26 64  1  0  0  0  0
 27 28  1  0  0  0  0
 31 32  2  0  0  0  0
 31 36  1  0  0  0  0
 32 33  1  0  0  0  0
 32 65  1  0  0  0  0
 33 34  2  0  0  0  0
 33 66  1  0  0  0  0
 34 35  1  0  0  0  0
 34 42  1  0  0  0  0
 35 36  2  0  0  0  0
 35 37  1  0  0  0  0
 36 67  1  0  0  0  0
 37 38  1  0  0  0  0
 38 39  1  0  0  0  0
 38 68  1  0  0  0  0
 38 69  1  0  0  0  0
 39 40  1  0  0  0  0
 39 41  1  0  0  0  0
 39 70  1  0  0  0  0
 40 41  1  0  0  0  0
 40 71  1  0  0  0  0
 40 72  1  0  0  0  0
 41 73  1  0  0  0  0
 41 74  1  0  0  0  0
 42 43  1  0  0  0  0
 43 44  1  0  0  0  0
 43 45  1  0  0  0  0
 43 75  1  0  0  0  0
M  CHG  2  25   1  29  -1
M  END
>  <DRUGBANK_ID>
DB12800

>  <COMMON_NAME>
CHF-6001

>  <CAS_NUMBER>
1239278-59-1

>  <UNII>
0984EU6E2F

$$$$
