
 OpenBabel10282417072D

123128  0  0  1  0  0  0  0  0999 V2000
   15.4059  -12.0930    0.0000 C   0  0  0  0  0  0  0  0  0  0  0  0
   15.4016  -12.9194    0.0000 C   0  0  0  0  0  0  0  0  0  0  0  0
   16.1124  -13.3342    0.0000 C   0  0  0  0  0  0  0  0  0  0  0  0
   16.8314  -12.9268    0.0000 N   0  0  0  0  0  0  0  0  0  0  0  0
   16.8357  -12.1004    0.0000 C   0  0  0  0  0  0  0  0  0  0  0  0
   16.1209  -11.6814    0.0000 C   0  0  0  0  0  0  0  0  0  0  0  0
   13.2682  -10.0248    0.0000 C   0  0  0  0  0  0  0  0  0  0  0  0
   13.2646  -10.8513    0.0000 C   0  0  0  0  0  0  0  0  0  0  0  0
   12.5536  -11.2665    0.0000 C   0  0  0  0  0  0  0  0  0  0  0  0
   12.5544  -12.0946    0.0000 C   0  0  0  0  0  0  0  0  0  0  0  0
   11.8339  -10.8606    0.0000 C   0  0  0  0  0  0  0  0  0  0  0  0
   11.1256   -9.6211    0.0000 C   0  0  1  0  0  0  0  0  0  0  0  0
   11.8360  -10.0403    0.0000 C   0  0  0  0  0  0  0  0  0  0  0  0
   12.5488   -9.6329    0.0000 C   0  0  0  0  0  0  0  0  0  0  0  0
   11.1324   -8.7985    0.0000 C   0  0  2  0  0  0  0  0  0  0  0  0
   11.8496   -8.3953    0.0000 C   0  0  1  0  0  0  0  0  0  0  0  0
   12.5703   -7.1689    0.0000 C   0  0  1  0  0  0  0  0  0  0  0  0
   11.8580   -7.5699    0.0000 C   0  0  1  0  0  0  0  0  0  0  0  0
   13.2785   -7.5845    0.0000 C   0  0  1  0  0  0  0  0  0  0  0  0
   13.2692   -8.4061    0.0000 O   0  0  0  0  0  0  0  0  0  0  0  0
   13.9923   -7.1861    0.0000 C   0  0  2  0  0  0  0  0  0  0  0  0
   14.6967   -7.6006    0.0000 C   0  0  0  0  0  0  0  0  0  0  0  0
   16.0992   -8.4325    0.0000 C   0  0  0  0  0  0  0  0  0  0  0  0
   16.1052   -7.6184    0.0000 C   0  0  0  0  0  0  0  0  0  0  0  0
   15.4082   -7.2048    0.0000 C   0  0  0  0  0  0  0  0  0  0  0  0
   15.3877   -8.8326    0.0000 C   0  0  0  0  0  0  0  0  0  0  0  0
   13.9679   -9.6167    0.0000 C   0  0  0  0  0  0  0  0  0  0  0  0
   14.6630  -10.0363    0.0000 C   0  0  0  0  0  0  0  0  0  0  0  0
   15.3729   -9.6422    0.0000 N   0  0  0  0  0  0  0  0  0  0  0  0
   13.1416  -12.6764    0.0000 O   0  0  0  0  0  0  0  0  0  0  0  0
   10.4061  -10.0335    0.0000 C   0  0  2  0  0  0  0  0  0  0  0  0
   10.4040  -10.8568    0.0000 C   0  0  0  0  0  0  0  0  0  0  0  0
    9.6890  -11.2643    0.0000 C   0  0  0  0  0  0  0  0  0  0  0  0
    9.6832  -12.0853    0.0000 O   0  0  0  0  0  0  0  0  0  0  0  0
   11.1078  -12.0953    0.0000 C   0  0  1  0  0  0  0  0  0  0  0  0
   11.1136  -11.2742    0.0000 O   0  0  0  0  0  0  0  0  0  0  0  0
   11.1027  -12.9194    0.0000 C   0  0  0  0  0  0  0  0  0  0  0  0
   16.8067   -8.8567    0.0000 C   0  0  0  0  0  0  0  0  0  0  0  0
    9.6905   -9.6157    0.0000 O   0  0  0  0  0  0  0  0  0  0  0  0
    8.9762  -10.0285    0.0000 C   0  0  0  0  0  0  0  0  0  0  0  0
   10.4046   -9.2070    0.0000 C   0  0  0  0  0  0  0  0  0  0  0  0
   12.5787   -6.3425    0.0000 C   0  0  0  0  0  0  0  0  0  0  0  0
   14.0016   -6.3598    0.0000 C   0  0  0  0  0  0  0  0  0  0  0  0
   10.4187   -8.3816    0.0000 O   0  0  0  0  0  0  0  0  0  0  0  0
   11.1461   -7.1457    0.0000 O   0  0  0  0  0  0  0  0  0  0  0  0
    9.6982   -7.9652    0.0000 C   0  0  0  0  0  0  0  0  0  0  0  0
    8.9816   -8.3815    0.0000 C   0  0  0  0  0  0  0  0  0  0  0  0
    9.6973   -7.1389    0.0000 O   0  0  0  0  0  0  0  0  0  0  0  0
   13.9742   -8.7902    0.0000 O   0  0  0  0  0  0  0  0  0  0  0  0
   12.5413   -8.8045    0.0000 O   0  0  0  0  0  0  0  0  0  0  0  0
   11.1284   -7.9781    0.0000 C   0  0  0  0  0  0  0  0  0  0  0  0
   14.6771   -8.4064    0.0000 O   0  0  0  0  0  0  0  0  0  0  0  0
   14.6987  -10.8530    0.0000 C   0  0  0  0  0  0  0  0  0  0  0  0
   13.9807  -11.2640    0.0000 C   0  0  0  0  0  0  0  0  0  0  0  0
   13.9766  -12.0892    0.0000 N   0  0  0  0  0  0  0  0  0  0  0  0
   15.4126  -11.2711    0.0000 N   0  0  0  0  0  0  0  0  0  0  0  0
   17.5465  -13.3416    0.0000 C   0  0  0  0  0  0  0  0  0  0  0  0
   18.2657  -12.9342    0.0000 C   0  0  0  0  0  0  0  0  0  0  0  0
   18.9806  -13.3490    0.0000 C   0  0  0  0  0  0  0  0  0  0  0  0
   18.2700  -12.1078    0.0000 C   0  0  0  0  0  0  0  0  0  0  0  0
   11.8306   -9.1899    0.0000 C   0  0  0  0  0  0  0  0  0  0  0  0
   14.4723  -13.4498    0.0000 H   0  0  0  0  0  0  0  0  0  0  0  0
   15.3965  -13.9894    0.0000 H   0  0  0  0  0  0  0  0  0  0  0  0
   16.1056  -14.4042    0.0000 H   0  0  0  0  0  0  0  0  0  0  0  0
   17.0352  -13.8759    0.0000 H   0  0  0  0  0  0  0  0  0  0  0  0
   17.7655  -11.5709    0.0000 H   0  0  0  0  0  0  0  0  0  0  0  0
   17.7594  -12.6405    0.0000 H   0  0  0  0  0  0  0  0  0  0  0  0
   16.1251  -10.6114    0.0000 H   0  0  0  0  0  0  0  0  0  0  0  0
   15.1956  -11.1440    0.0000 H   0  0  0  0  0  0  0  0  0  0  0  0
   10.5934   -8.6929    0.0000 H   0  0  0  0  0  0  0  0  0  0  0  0
   11.1412   -7.7285    0.0000 H   0  0  0  0  0  0  0  0  0  0  0  0
   10.7796   -8.3887    0.0000 H   0  0  0  0  0  0  0  0  0  0  0  0
   13.5015   -6.6419    0.0000 H   0  0  0  0  0  0  0  0  0  0  0  0
   11.8712   -6.5000    0.0000 H   0  0  0  0  0  0  0  0  0  0  0  0
   12.3470   -8.1109    0.0000 H   0  0  0  0  0  0  0  0  0  0  0  0
   12.4237   -8.8816    0.0000 H   0  0  0  0  0  0  0  0  0  0  0  0
   14.9241   -6.6602    0.0000 H   0  0  0  0  0  0  0  0  0  0  0  0
   14.6842   -8.6325    0.0000 H   0  0  0  0  0  0  0  0  0  0  0  0
   17.0039   -7.1111    0.0000 H   0  0  0  0  0  0  0  0  0  0  0  0
   15.4226   -6.1729    0.0000 H   0  0  0  0  0  0  0  0  0  0  0  0
   16.2167  -10.1493    0.0000 H   0  0  0  0  0  0  0  0  0  0  0  0
    9.4775  -10.5651    0.0000 H   0  0  0  0  0  0  0  0  0  0  0  0
   11.2956  -11.3764    0.0000 H   0  0  0  0  0  0  0  0  0  0  0  0
    8.7985  -10.7427    0.0000 H   0  0  0  0  0  0  0  0  0  0  0  0
   10.1728  -13.4487    0.0000 H   0  0  0  0  0  0  0  0  0  0  0  0
   12.0260  -13.4601    0.0000 H   0  0  0  0  0  0  0  0  0  0  0  0
   11.0961  -13.9894    0.0000 H   0  0  0  0  0  0  0  0  0  0  0  0
   16.7890   -9.9266    0.0000 H   0  0  0  0  0  0  0  0  0  0  0  0
   17.7421   -8.3371    0.0000 H   0  0  0  0  0  0  0  0  0  0  0  0
   17.7244   -9.4069    0.0000 H   0  0  0  0  0  0  0  0  0  0  0  0
    8.0493   -9.4939    0.0000 H   0  0  0  0  0  0  0  0  0  0  0  0
    8.9766  -11.0985    0.0000 H   0  0  0  0  0  0  0  0  0  0  0  0
    8.0498  -10.5639    0.0000 H   0  0  0  0  0  0  0  0  0  0  0  0
   10.4022   -8.1370    0.0000 H   0  0  0  0  0  0  0  0  0  0  0  0
    9.4792   -9.7441    0.0000 H   0  0  0  0  0  0  0  0  0  0  0  0
    9.4767   -8.6741    0.0000 H   0  0  0  0  0  0  0  0  0  0  0  0
   13.5107   -5.8169    0.0000 H   0  0  0  0  0  0  0  0  0  0  0  0
   11.6575   -5.7981    0.0000 H   0  0  0  0  0  0  0  0  0  0  0  0
   12.5896   -5.2726    0.0000 H   0  0  0  0  0  0  0  0  0  0  0  0
   14.9342   -5.8353    0.0000 H   0  0  0  0  0  0  0  0  0  0  0  0
   13.0810   -5.8144    0.0000 H   0  0  0  0  0  0  0  0  0  0  0  0
   14.0136   -5.2899    0.0000 H   0  0  0  0  0  0  0  0  0  0  0  0
   11.1595   -6.1758    0.0000 H   0  0  0  0  0  0  0  0  0  0  0  0
    8.0535   -7.8490    0.0000 H   0  0  0  0  0  0  0  0  0  0  0  0
    8.9845   -9.4515    0.0000 H   0  0  0  0  0  0  0  0  0  0  0  0
    8.0564   -8.9190    0.0000 H   0  0  0  0  0  0  0  0  0  0  0  0
   13.3485   -8.3287    0.0000 H   0  0  0  0  0  0  0  0  0  0  0  0
   11.1293   -6.9081    0.0000 H   0  0  0  0  0  0  0  0  0  0  0  0
   10.2013   -8.5123    0.0000 H   0  0  0  0  0  0  0  0  0  0  0  0
   10.2022   -7.4423    0.0000 H   0  0  0  0  0  0  0  0  0  0  0  0
   16.2687  -10.7850    0.0000 H   0  0  0  0  0  0  0  0  0  0  0  0
   17.5410  -14.4116    0.0000 H   0  0  0  0  0  0  0  0  0  0  0  0
   18.4696  -13.8828    0.0000 H   0  0  0  0  0  0  0  0  0  0  0  0
   19.1943  -12.4026    0.0000 H   0  0  0  0  0  0  0  0  0  0  0  0
   18.9783  -14.4190    0.0000 H   0  0  0  0  0  0  0  0  0  0  0  0
   19.9084  -12.8160    0.0000 H   0  0  0  0  0  0  0  0  0  0  0  0
   19.9061  -13.8860    0.0000 H   0  0  0  0  0  0  0  0  0  0  0  0
   19.1994  -11.5776    0.0000 H   0  0  0  0  0  0  0  0  0  0  0  0
   17.3461  -11.5680    0.0000 H   0  0  0  0  0  0  0  0  0  0  0  0
   18.2756  -11.0378    0.0000 H   0  0  0  0  0  0  0  0  0  0  0  0
   12.7538   -8.6490    0.0000 H   0  0  0  0  0  0  0  0  0  0  0  0
   10.9006   -8.6608    0.0000 H   0  0  0  0  0  0  0  0  0  0  0  0
   11.8238   -8.1199    0.0000 H   0  0  0  0  0  0  0  0  0  0  0  0
  1  2  1  0  0  0  0
  1 56  1  0  0  0  0
  2  3  1  0  0  0  0
  2 62  1  0  0  0  0
  2 63  1  0  0  0  0
  3  4  1  0  0  0  0
  3 64  1  0  0  0  0
  3 65  1  0  0  0  0
  4  5  1  0  0  0  0
  4 57  1  0  0  0  0
  5  6  1  0  0  0  0
  5 66  1  0  0  0  0
  5 67  1  0  0  0  0
  6  1  1  0  0  0  0
  6 68  1  0  0  0  0
  6 69  1  0  0  0  0
  7 14  1  0  0  0  0
  7  8  2  0  0  0  0
  8 54  1  0  0  0  0
  9  8  1  0  0  0  0
  9 11  2  0  0  0  0
 10 30  2  0  0  0  0
 10  9  1  0  0  0  0
 11 13  1  0  0  0  0
 12 41  1  0  0  0  0
 12 31  1  0  0  0  0
 12 70  1  6  0  0  0
 13 14  2  0  0  0  0
 13 61  1  0  0  0  0
 14 50  1  0  0  0  0
 15 12  1  0  0  0  0
 15 44  1  0  0  0  0
 15 71  1  6  0  0  0
 16 15  1  0  0  0  0
 16 51  1  0  0  0  0
 16 72  1  1  0  0  0
 17 18  1  0  0  0  0
 17 42  1  0  0  0  0
 17 73  1  1  0  0  0
 18 45  1  0  0  0  0
 18 16  1  0  0  0  0
 18 74  1  1  0  0  0
 19 17  1  0  0  0  0
 19 20  1  0  0  0  0
 19 75  1  1  0  0  0
 20 76  1  0  0  0  0
 21 43  1  0  0  0  0
 21 19  1  0  0  0  0
 21 77  1  6  0  0  0
 22 21  1  0  0  0  0
 22 78  1  0  0  0  0
 23 38  1  0  0  0  0
 23 24  2  0  0  0  0
 24 25  1  0  0  0  0
 24 79  1  0  0  0  0
 25 22  2  0  0  0  0
 25 80  1  0  0  0  0
 26 52  2  0  0  0  0
 26 23  1  0  0  0  0
 27  7  1  0  0  0  0
 27 49  2  0  0  0  0
 27 28  1  0  0  0  0
 28 29  1  0  0  0  0
 29 26  1  0  0  0  0
 29 81  1  0  0  0  0
 31 39  1  0  0  0  0
 31 82  1  1  0  0  0
 32 31  1  0  0  0  0
 32 33  2  0  0  0  0
 32 83  1  0  0  0  0
 33 34  1  0  0  0  0
 33 84  1  0  0  0  0
 34 35  1  0  0  0  0
 35 36  1  0  0  0  0
 35 10  1  0  0  0  0
 35 37  1  6  0  0  0
 36 11  1  0  0  0  0
 37 85  1  0  0  0  0
 37 86  1  0  0  0  0
 37 87  1  0  0  0  0
 38 88  1  0  0  0  0
 38 89  1  0  0  0  0
 38 90  1  0  0  0  0
 39 40  1  0  0  0  0
 40 91  1  0  0  0  0
 40 92  1  0  0  0  0
 40 93  1  0  0  0  0
 41 94  1  0  0  0  0
 41 95  1  0  0  0  0
 41 96  1  0  0  0  0
 42 97  1  0  0  0  0
 42 98  1  0  0  0  0
 42 99  1  0  0  0  0
 43100  1  0  0  0  0
 43101  1  0  0  0  0
 43102  1  0  0  0  0
 44 46  1  0  0  0  0
 45103  1  0  0  0  0
 46 47  1  0  0  0  0
 46 48  2  0  0  0  0
 47104  1  0  0  0  0
 47105  1  0  0  0  0
 47106  1  0  0  0  0
 50107  1  0  0  0  0
 51108  1  0  0  0  0
 51109  1  0  0  0  0
 51110  1  0  0  0  0
 53 28  2  0  0  0  0
 53 54  1  0  0  0  0
 54 55  2  0  0  0  0
 55  1  1  0  0  0  0
 56 53  1  0  0  0  0
 56111  1  0  0  0  0
 57 58  1  0  0  0  0
 57112  1  0  0  0  0
 57113  1  0  0  0  0
 58 59  1  0  0  0  0
 58 60  1  0  0  0  0
 58114  1  0  0  0  0
 59115  1  0  0  0  0
 59116  1  0  0  0  0
 59117  1  0  0  0  0
 60118  1  0  0  0  0
 60119  1  0  0  0  0
 60120  1  0  0  0  0
 61121  1  0  0  0  0
 61122  1  0  0  0  0
 61123  1  0  0  0  0
M  END
>  <DRUGBANK_ID>
DB00615

>  <SECONDARY_ACCESSION_NUMBERS>
APRD00094

>  <COMMON_NAME>
Rifabutin

>  <CAS_NUMBER>
72559-06-9

>  <UNII>
1W306TDA6S

>  <SYNONYMS>
1,4-Dihydro-1-deoxy-1',4-didehydro-5'-(2-methylpropyl)-1-oxorifamycin XIV; 4-Deoxo-3,4-(2-spiro(N-isobutyl-4-piperidyl)-2,5-dihydro-1H-imidazo)-rifamycin S; 4-N-isobutylspiropiperidylrifamycin S; Ansamicin; Ansamycin; Rifabutin; Rifabutina; Rifabutine; Rifabutinum

$$$$
