
 OpenBabel10282417072D

 43 46  0  0  0  0  0  0  0  0999 V2000
   -6.3235    3.5277    0.0000 C   0  0  0  0  0  0  0  0  0  0  0  0
   -8.4669    5.5902    0.0000 C   0  0  0  0  0  0  0  0  0  0  0  0
   -5.6091    3.1152    0.0000 C   0  0  0  0  0  0  0  0  0  0  0  0
   -6.3235    4.3527    0.0000 C   0  0  0  0  0  0  0  0  0  0  0  0
   -7.7525    6.0027    0.0000 C   0  0  0  0  0  0  0  0  0  0  0  0
   -9.1814    6.0027    0.0000 C   0  0  0  0  0  0  0  0  0  0  0  0
   -4.8946    6.0027    0.0000 C   0  0  0  0  0  0  0  0  0  0  0  0
   -4.8946    6.8277    0.0000 C   0  0  0  0  0  0  0  0  0  0  0  0
   -4.8946    4.3527    0.0000 C   0  0  0  0  0  0  0  0  0  0  0  0
   -8.4669    7.2402    0.0000 C   0  0  0  0  0  0  0  0  0  0  0  0
   -4.1801    3.1152    0.0000 C   0  0  0  0  0  0  0  0  0  0  0  0
   -4.5926    1.0206    0.0000 C   0  0  0  0  0  0  0  0  0  0  0  0
   -3.5127    1.8053    0.0000 C   0  0  0  0  0  0  0  0  0  0  0  0
   -4.8946    3.5277    0.0000 C   0  0  0  0  0  0  0  0  0  0  0  0
   -5.6091    4.7652    0.0000 C   0  0  0  0  0  0  0  0  0  0  0  0
   -7.7525    6.8277    0.0000 C   0  0  0  0  0  0  0  0  0  0  0  0
   -9.1814    6.8277    0.0000 C   0  0  0  0  0  0  0  0  0  0  0  0
   -5.6091    5.5902    0.0000 C   0  0  0  0  0  0  0  0  0  0  0  0
   -6.3235    6.8277    0.0000 C   0  0  0  0  0  0  0  0  0  0  0  0
   -3.7676    1.0206    0.0000 N   0  0  0  0  0  0  0  0  0  0  0  0
   -5.6091    7.2402    0.0000 N   0  0  0  0  0  0  0  0  0  0  0  0
   -4.8476    1.8053    0.0000 N   0  0  0  0  0  0  0  0  0  0  0  0
   -7.0380    7.2402    0.0000 N   0  0  0  0  0  0  0  0  0  0  0  0
   -6.3235    6.0027    0.0000 N   0  0  0  0  0  0  0  0  0  0  0  0
   -4.1801    2.2902    0.0000 N   0  0  0  0  0  0  0  0  0  0  0  0
   -9.8959    7.2402    0.0000 N   0  0  0  0  0  0  0  0  0  0  0  0
  -10.6104    6.8277    0.0000 O   0  0  0  0  0  0  0  0  0  0  0  0
   -9.8959    8.0652    0.0000 O   0  0  0  0  0  0  0  0  0  0  0  0
   -7.2172    3.0117    0.0000 H   0  0  0  0  0  0  0  0  0  0  0  0
   -8.4669    4.5582    0.0000 H   0  0  0  0  0  0  0  0  0  0  0  0
   -5.6091    2.0832    0.0000 H   0  0  0  0  0  0  0  0  0  0  0  0
   -7.2172    4.8687    0.0000 H   0  0  0  0  0  0  0  0  0  0  0  0
   -6.8588    5.4867    0.0000 H   0  0  0  0  0  0  0  0  0  0  0  0
  -10.0751    5.4867    0.0000 H   0  0  0  0  0  0  0  0  0  0  0  0
   -3.9680    5.4677    0.0000 H   0  0  0  0  0  0  0  0  0  0  0  0
   -4.8946    4.9327    0.0000 H   0  0  0  0  0  0  0  0  0  0  0  0
   -4.0009    7.3437    0.0000 H   0  0  0  0  0  0  0  0  0  0  0  0
   -4.0009    4.8687    0.0000 H   0  0  0  0  0  0  0  0  0  0  0  0
   -8.4669    8.2722    0.0000 H   0  0  0  0  0  0  0  0  0  0  0  0
   -3.2535    3.6502    0.0000 H   0  0  0  0  0  0  0  0  0  0  0  0
   -3.2535    2.5802    0.0000 H   0  0  0  0  0  0  0  0  0  0  0  0
   -5.1992    0.1857    0.0000 H   0  0  0  0  0  0  0  0  0  0  0  0
   -2.5312    2.1242    0.0000 H   0  0  0  0  0  0  0  0  0  0  0  0
  1 29  1  0  0  0  0
  2 30  1  0  0  0  0
  3  1  2  0  0  0  0
  3 31  1  0  0  0  0
  4  1  1  0  0  0  0
  4 32  1  0  0  0  0
  5  2  2  0  0  0  0
  5 33  1  0  0  0  0
  6  2  1  0  0  0  0
  6 34  1  0  0  0  0
  7 35  1  0  0  0  0
  7 36  1  0  0  0  0
  8  7  1  0  0  0  0
  8 37  1  0  0  0  0
  9 38  1  0  0  0  0
 10 39  1  0  0  0  0
 11 40  1  0  0  0  0
 11 41  1  0  0  0  0
 12 42  1  0  0  0  0
 13 43  1  0  0  0  0
 14  3  1  0  0  0  0
 14  9  2  0  0  0  0
 14 11  1  0  0  0  0
 15  4  2  0  0  0  0
 15  9  1  0  0  0  0
 16  5  1  0  0  0  0
 16 10  2  0  0  0  0
 17  6  2  0  0  0  0
 17 10  1  0  0  0  0
 18  7  1  0  0  0  0
 18 15  1  0  0  0  0
 20 12  1  0  0  0  0
 20 13  2  0  0  0  0
 21  8  2  0  0  0  0
 21 19  1  0  0  0  0
 22 12  2  0  0  0  0
 23 16  1  0  0  0  0
 23 19  2  0  0  0  0
 24 18  2  0  0  0  0
 24 19  1  0  0  0  0
 25 11  1  0  0  0  0
 25 13  1  0  0  0  0
 25 22  1  0  0  0  0
 26 17  1  0  0  0  0
 27 26  2  0  0  0  0
 28 26  2  0  0  0  0
M  END
>  <DRUGBANK_ID>
DB08218

>  <COMMON_NAME>
HYDROXY(OXO)(3-{[(2Z)-4-[3-(1H-1,2,4-TRIAZOL-1-YLMETHYL)PHENYL]PYRIMIDIN-2(5H)-YLIDENE]AMINO}PHENYL)AMMONIUM

$$$$
