1205
 OpenBabel10282417072D

 36 38  0  0  0  0  0  0  0  0999 V2000
    1.6500    0.4818    0.0000 F   0  0  0  0  0  0  0  0  0  0  0  0
    4.0454    1.9376    0.0000 O   0  0  0  0  0  0  0  0  0  0  0  0
    7.4456   -1.3934    0.0000 O   0  0  0  0  0  0  0  0  0  0  0  0
    7.2562    0.0229    0.0000 O   0  0  0  0  0  0  0  0  0  0  0  0
    4.8158   -0.6130    0.0000 N   0  0  0  0  0  0  0  0  0  0  0  0
    5.2283    1.1943    0.0000 N   0  0  0  0  0  0  0  0  0  0  0  0
    5.7351   -1.5711    0.0000 N   0  0  0  0  0  0  0  0  0  0  0  0
    5.5592   -0.2550    0.0000 C   0  0  0  0  0  0  0  0  0  0  0  0
    5.7427    0.5493    0.0000 C   0  0  0  0  0  0  0  0  0  0  0  0
    4.0726   -0.2550    0.0000 C   0  0  0  0  0  0  0  0  0  0  0  0
    3.8889    0.5493    0.0000 C   0  0  0  0  0  0  0  0  0  0  0  0
    6.1244   -0.8493    0.0000 C   0  0  0  0  0  0  0  0  0  0  0  0
    4.4033    1.1943    0.0000 C   0  0  0  0  0  0  0  0  0  0  0  0
    4.9280   -1.4253    0.0000 C   0  0  0  0  0  0  0  0  0  0  0  0
    3.4517   -0.8492    0.0000 C   0  0  0  0  0  0  0  0  0  0  0  0
    5.5863    1.9376    0.0000 C   0  0  0  0  0  0  0  0  0  0  0  0
    3.0718    0.8153    0.0000 C   0  0  0  0  0  0  0  0  0  0  0  0
    2.6286   -0.6022    0.0000 C   0  0  0  0  0  0  0  0  0  0  0  0
    6.9421   -0.7399    0.0000 C   0  0  0  0  0  0  0  0  0  0  0  0
    2.4374    0.2356    0.0000 C   0  0  0  0  0  0  0  0  0  0  0  0
    8.2633   -1.2841    0.0000 C   0  0  0  0  0  0  0  0  0  0  0  0
    8.7669   -1.9376    0.0000 C   0  0  0  0  0  0  0  0  0  0  0  0
    6.7859    0.7875    0.0000 H   0  0  0  0  0  0  0  0  0  0  0  0
    6.4994   -0.2072    0.0000 H   0  0  0  0  0  0  0  0  0  0  0  0
    4.1833   -2.1398    0.0000 H   0  0  0  0  0  0  0  0  0  0  0  0
    3.6929   -1.8526    0.0000 H   0  0  0  0  0  0  0  0  0  0  0  0
    6.6533    2.0175    0.0000 H   0  0  0  0  0  0  0  0  0  0  0  0
    4.9836    2.8217    0.0000 H   0  0  0  0  0  0  0  0  0  0  0  0
    6.0506    2.9016    0.0000 H   0  0  0  0  0  0  0  0  0  0  0  0
    2.8538    1.8240    0.0000 H   0  0  0  0  0  0  0  0  0  0  0  0
    1.8748   -1.3070    0.0000 H   0  0  0  0  0  0  0  0  0  0  0  0
    8.6708   -0.2947    0.0000 H   0  0  0  0  0  0  0  0  0  0  0  0
    9.3239   -1.1423    0.0000 H   0  0  0  0  0  0  0  0  0  0  0  0
    8.3595   -2.9270    0.0000 H   0  0  0  0  0  0  0  0  0  0  0  0
    9.8275   -1.7957    0.0000 H   0  0  0  0  0  0  0  0  0  0  0  0
    9.4200   -2.7851    0.0000 H   0  0  0  0  0  0  0  0  0  0  0  0
  1 20  1  0  0  0  0
  2 13  2  0  0  0  0
  3 19  1  0  0  0  0
  3 21  1  0  0  0  0
  4 19  2  0  0  0  0
  5  8  1  0  0  0  0
  5 10  1  0  0  0  0
  5 14  1  0  0  0  0
  6  9  1  0  0  0  0
  6 13  1  0  0  0  0
  6 16  1  0  0  0  0
  7 12  1  0  0  0  0
  7 14  2  0  0  0  0
  8  9  1  0  0  0  0
  8 12  2  0  0  0  0
  9 23  1  0  0  0  0
  9 24  1  0  0  0  0
 10 11  2  0  0  0  0
 10 15  1  0  0  0  0
 11 13  1  0  0  0  0
 11 17  1  0  0  0  0
 12 19  1  0  0  0  0
 14 25  1  0  0  0  0
 15 18  2  0  0  0  0
 15 26  1  0  0  0  0
 16 27  1  0  0  0  0
 16 28  1  0  0  0  0
 16 29  1  0  0  0  0
 17 20  2  0  0  0  0
 17 30  1  0  0  0  0
 18 20  1  0  0  0  0
 18 31  1  0  0  0  0
 21 22  1  0  0  0  0
 21 32  1  0  0  0  0
 21 33  1  0  0  0  0
 22 34  1  0  0  0  0
 22 35  1  0  0  0  0
 22 36  1  0  0  0  0
M  END
>  <DRUGBANK_ID>
DB01205

>  <SECONDARY_ACCESSION_NUMBERS>
APRD00974

>  <COMMON_NAME>
Flumazenil

>  <CAS_NUMBER>
78755-81-4

>  <UNII>
40P7XK9392

>  <SYNONYMS>
Flumazenil; Flumazenilo; Flumazenilum; Flumazepil

$$$$
