
 OpenBabel10282417072D

 53 54  0  0  0  0  0  0  0  0999 V2000
    2.6539   -3.1233    0.0000 P   0  0  0  0  0  0  0  0  0  0  0  0
    1.0776    1.4079    0.0000 O   0  0  0  0  0  0  0  0  0  0  0  0
    0.2319    3.4202    0.0000 O   0  0  0  0  0  0  0  0  0  0  0  0
    0.7695    0.4036    0.0000 O   0  0  0  0  0  0  0  0  0  0  0  0
    2.1412    2.3622    0.0000 O   0  0  0  0  0  0  0  0  0  0  0  0
   -2.0320   -1.2464    0.0000 O   0  0  0  0  0  0  0  0  0  0  0  0
    2.6539    3.9306    0.0000 O   0  0  0  0  0  0  0  0  0  0  0  0
    1.8465   -2.9531    0.0000 O   0  0  0  0  0  0  0  0  0  0  0  0
   -3.4611    1.2287    0.0000 O   0  0  0  0  0  0  0  0  0  0  0  0
    2.4837   -3.9306    0.0000 O   0  0  0  0  0  0  0  0  0  0  0  0
    3.4611   -3.2934    0.0000 O   0  0  0  0  0  0  0  0  0  0  0  0
    2.8240   -2.3159    0.0000 O   0  0  0  0  0  0  0  0  0  0  0  0
   -0.5369    1.0676    0.0000 N   0  0  0  0  0  0  0  0  0  0  0  0
   -0.5369   -0.2602    0.0000 N   0  0  0  0  0  0  0  0  0  0  0  0
   -2.0320    1.2287    0.0000 N   0  0  0  0  0  0  0  0  0  0  0  0
   -2.7467   -0.0088    0.0000 N   0  0  0  0  0  0  0  0  0  0  0  0
   -0.2806    1.8517    0.0000 C   0  0  0  0  0  0  0  0  0  0  0  0
    0.5266    2.0219    0.0000 C   0  0  2  0  0  0  0  0  0  0  0  0
   -1.3176    0.8162    0.0000 C   0  0  0  0  0  0  0  0  0  0  0  0
   -1.3176   -0.0088    0.0000 C   0  0  0  0  0  0  0  0  0  0  0  0
    0.7828    2.8062    0.0000 C   0  0  1  0  0  0  0  0  0  0  0  0
   -0.0554    0.4036    0.0000 C   0  0  0  0  0  0  0  0  0  0  0  0
   -0.2806   -1.0445    0.0000 C   0  0  0  0  0  0  0  0  0  0  0  0
    1.5902    2.9763    0.0000 C   0  0  1  0  0  0  0  0  0  0  0  0
    0.5266   -1.2146    0.0000 C   0  0  0  0  0  0  0  0  0  0  0  0
   -2.0320   -0.4213    0.0000 C   0  0  0  0  0  0  0  0  0  0  0  0
    0.7828   -1.9988    0.0000 C   0  0  0  0  0  0  0  0  0  0  0  0
    1.8465    3.7605    0.0000 C   0  0  0  0  0  0  0  0  0  0  0  0
   -2.7467    0.8162    0.0000 C   0  0  0  0  0  0  0  0  0  0  0  0
    1.5902   -2.1689    0.0000 C   0  0  0  0  0  0  0  0  0  0  0  0
   -2.0320    1.7402    0.0000 H   0  0  0  0  0  0  0  0  0  0  0  0
   -3.1896   -0.2645    0.0000 H   0  0  0  0  0  0  0  0  0  0  0  0
    0.7763    0.4859    0.0000 H   0  0  0  0  0  0  0  0  0  0  0  0
    0.5333    4.3422    0.0000 H   0  0  0  0  0  0  0  0  0  0  0  0
    1.8398    1.4402    0.0000 H   0  0  0  0  0  0  0  0  0  0  0  0
    3.3017    3.2086    0.0000 H   0  0  0  0  0  0  0  0  0  0  0  0
    1.5617   -4.2319    0.0000 H   0  0  0  0  0  0  0  0  0  0  0  0
    3.7625   -4.2154    0.0000 H   0  0  0  0  0  0  0  0  0  0  0  0
   -0.9952    2.6481    0.0000 H   0  0  0  0  0  0  0  0  0  0  0  0
    0.0517    2.8688    0.0000 H   0  0  0  0  0  0  0  0  0  0  0  0
    0.1943    1.0048    0.0000 H   0  0  0  0  0  0  0  0  0  0  0  0
   -0.2642    2.5855    0.0000 H   0  0  0  0  0  0  0  0  0  0  0  0
   -0.9952   -1.8409    0.0000 H   0  0  0  0  0  0  0  0  0  0  0  0
    0.0518   -2.0616    0.0000 H   0  0  0  0  0  0  0  0  0  0  0  0
    1.2577    1.9593    0.0000 H   0  0  0  0  0  0  0  0  0  0  0  0
    1.2412   -0.4182    0.0000 H   0  0  0  0  0  0  0  0  0  0  0  0
    1.5736   -1.4353    0.0000 H   0  0  0  0  0  0  0  0  0  0  0  0
    0.0682   -2.7952    0.0000 H   0  0  0  0  0  0  0  0  0  0  0  0
    1.1152   -3.0158    0.0000 H   0  0  0  0  0  0  0  0  0  0  0  0
    1.1319    4.5569    0.0000 H   0  0  0  0  0  0  0  0  0  0  0  0
    0.7995    3.5399    0.0000 H   0  0  0  0  0  0  0  0  0  0  0  0
    2.3048   -1.3725    0.0000 H   0  0  0  0  0  0  0  0  0  0  0  0
    1.2577   -1.1519    0.0000 H   0  0  0  0  0  0  0  0  0  0  0  0
  1  8  1  0  0  0  0
  1 10  1  0  0  0  0
  1 11  1  0  0  0  0
  1 12  2  0  0  0  0
  2 33  1  0  0  0  0
  3 34  1  0  0  0  0
  4 22  2  0  0  0  0
  5 35  1  0  0  0  0
  6 26  2  0  0  0  0
  7 28  1  0  0  0  0
  7 36  1  0  0  0  0
  8 30  1  0  0  0  0
  9 29  2  0  0  0  0
 10 37  1  0  0  0  0
 11 38  1  0  0  0  0
 13 17  1  0  0  0  0
 13 19  1  0  0  0  0
 13 22  1  0  0  0  0
 14 20  1  0  0  0  0
 14 22  1  0  0  0  0
 14 23  1  0  0  0  0
 15 19  1  0  0  0  0
 15 29  1  0  0  0  0
 15 31  1  0  0  0  0
 16 26  1  0  0  0  0
 16 29  1  0  0  0  0
 16 32  1  0  0  0  0
 17 18  1  0  0  0  0
 17 39  1  0  0  0  0
 17 40  1  0  0  0  0
 18  2  1  0  0  0  0
 18 21  1  0  0  0  0
 18 41  1  1  0  0  0
 19 20  2  0  0  0  0
 20 26  1  0  0  0  0
 21  3  1  0  0  0  0
 21 24  1  0  0  0  0
 21 42  1  1  0  0  0
 23 25  1  0  0  0  0
 23 43  1  0  0  0  0
 23 44  1  0  0  0  0
 24  5  1  0  0  0  0
 24 28  1  0  0  0  0
 24 45  1  6  0  0  0
 25 27  1  0  0  0  0
 25 46  1  0  0  0  0
 25 47  1  0  0  0  0
 27 30  1  0  0  0  0
 27 48  1  0  0  0  0
 27 49  1  0  0  0  0
 28 50  1  0  0  0  0
 28 51  1  0  0  0  0
 30 52  1  0  0  0  0
 30 53  1  0  0  0  0
M  END
>  <DRUGBANK_ID>
DB02135

>  <SECONDARY_ACCESSION_NUMBERS>
EXPT03118

>  <COMMON_NAME>
1-deoxy-1-{2,6,8-trioxo-7-[4-(phosphonooxy)butyl]-1,2,3,6,7,8-hexahydro-9H-purin-9-yl}-D-arabinitol

>  <SYNONYMS>
4-[2,6,8-trioxo-9-[(2R,3S,4R)-2,3,4,5-tetrahydroxypentyl]-3H-purin-7-yl]butyl dihydrogen phosphate

$$$$
