
 OpenBabel10282417072D

 87 91  0  0  0  0  0  0  0  0999 V2000
    2.3019    0.1309    0.0000 C   0  0  0  0  0  0  0  0  0  0  0  0
    2.7698    1.3782    0.0000 C   0  0  0  0  0  0  0  0  0  0  0  0
    3.1698    0.1201    0.0000 N   0  0  0  0  0  0  0  0  0  0  0  0
    1.8753   -0.4619    0.0000 O   0  0  0  0  0  0  0  0  0  0  0  0
    3.4225    0.9906    0.0000 C   0  0  1  0  0  0  0  0  0  0  0  0
    3.5824   -0.5943    0.0000 C   0  0  1  0  0  0  0  0  0  0  0  0
    4.1006    1.4646    0.0000 C   0  0  1  0  0  0  0  0  0  0  0  0
    3.1694   -1.3091    0.0000 O   0  0  0  0  0  0  0  0  0  0  0  0
    4.3986   -0.5943    0.0000 C   0  0  0  0  0  0  0  0  0  0  0  0
    4.0945    2.1148    0.0000 C   0  0  0  0  0  0  0  0  0  0  0  0
    4.8279    1.0265    0.0000 C   0  0  0  0  0  0  0  0  0  0  0  0
    3.5711   -2.0224    0.0000 C   0  0  2  0  0  0  0  0  0  0  0  0
    4.8096   -1.3080    0.0000 C   0  0  0  0  0  0  0  0  0  0  0  0
    4.9034    2.5106    0.0000 N   0  0  0  0  0  0  0  0  0  0  0  0
    3.3015    2.5403    0.0000 O   0  0  0  0  0  0  0  0  0  0  0  0
    4.3980   -2.0187    0.0000 C   0  0  2  0  0  0  0  0  0  0  0  0
    3.1644   -2.7401    0.0000 C   0  0  0  0  0  0  0  0  0  0  0  0
    5.7139    2.1085    0.0000 C   0  0  0  0  0  0  0  0  0  0  0  0
    4.8089   -2.7325    0.0000 O   0  0  0  0  0  0  0  0  0  0  0  0
    4.1683    0.5567    0.0000 H   0  0  0  0  0  0  0  0  0  0  0  0
    2.7698    2.2032    0.0000 O   0  0  0  0  0  0  0  0  0  0  0  0
    2.1046    0.9192    0.0000 C   0  0  0  0  0  0  0  0  0  0  0  0
    1.3899    1.3317    0.0000 C   0  0  0  0  0  0  0  0  0  0  0  0
    1.3899    2.1567    0.0000 O   0  0  0  0  0  0  0  0  0  0  0  0
    0.6755    0.9192    0.0000 C   0  0  0  0  0  0  0  0  0  0  0  0
   -0.0389    1.3317    0.0000 C   0  0  0  0  0  0  0  0  0  0  0  0
   -0.7535    0.9192    0.0000 C   0  0  0  0  0  0  0  0  0  0  0  0
   -1.4680    1.3317    0.0000 C   0  0  0  0  0  0  0  0  0  0  0  0
   -0.7535    0.0941    0.0000 C   0  0  0  0  0  0  0  0  0  0  0  0
   -2.1824    0.9192    0.0000 C   0  0  2  0  0  0  0  0  0  0  0  0
   -2.8970    1.3317    0.0000 C   0  0  2  0  0  0  0  0  0  0  0  0
   -2.1824    0.0941    0.0000 C   0  0  0  0  0  0  0  0  0  0  0  0
   -2.8970    2.1567    0.0000 C   0  0  2  0  0  0  0  0  0  0  0  0
   -3.4804    2.7401    0.0000 C   0  0  1  0  0  0  0  0  0  0  0  0
   -4.3055    2.7401    0.0000 C   0  0  0  0  0  0  0  0  0  0  0  0
   -4.8888    2.1567    0.0000 C   0  0  0  0  0  0  0  0  0  0  0  0
   -4.3055    0.7483    0.0000 C   0  0  2  0  0  0  0  0  0  0  0  0
   -3.4804    0.7483    0.0000 O   0  0  0  0  0  0  0  0  0  0  0  0
   -2.1907    1.7309    0.0000 H   0  0  0  0  0  0  0  0  0  0  0  0
   -2.1348    2.4724    0.0000 C   0  0  0  0  0  0  0  0  0  0  0  0
   -5.3014    0.6171    0.0000 C   0  0  0  0  0  0  0  0  0  0  0  0
   -5.7139    1.3317    0.0000 O   0  0  0  0  0  0  0  0  0  0  0  0
   -4.8888    1.3317    0.0000 C   0  0  2  0  0  0  0  0  0  0  0  0
   -3.6012    1.6162    0.0000 O   0  0  0  0  0  0  0  0  0  0  0  0
   -4.5190   -0.0485    0.0000 C   0  0  0  0  0  0  0  0  0  0  0  0
    2.5124   -0.5942    0.0000 H   0  0  0  0  0  0  0  0  0  0  0  0
    3.1494    1.9546    0.0000 H   0  0  0  0  0  0  0  0  0  0  0  0
    4.9341    0.3321    0.0000 H   0  0  0  0  0  0  0  0  0  0  0  0
    5.4686   -0.5952    0.0000 H   0  0  0  0  0  0  0  0  0  0  0  0
    4.8080   -0.0433    0.0000 H   0  0  0  0  0  0  0  0  0  0  0  0
    5.7643    1.5442    0.0000 H   0  0  0  0  0  0  0  0  0  0  0  0
    5.7445    0.4744    0.0000 H   0  0  0  0  0  0  0  0  0  0  0  0
    2.5011   -2.0210    0.0000 H   0  0  0  0  0  0  0  0  0  0  0  0
    5.8796   -1.3093    0.0000 H   0  0  0  0  0  0  0  0  0  0  0  0
    5.3434   -2.2353    0.0000 H   0  0  0  0  0  0  0  0  0  0  0  0
    4.9061    3.4951    0.0000 H   0  0  0  0  0  0  0  0  0  0  0  0
    3.8645   -2.9462    0.0000 H   0  0  0  0  0  0  0  0  0  0  0  0
    2.0944   -2.7487    0.0000 H   0  0  0  0  0  0  0  0  0  0  0  0
    3.7068   -3.6624    0.0000 H   0  0  0  0  0  0  0  0  0  0  0  0
    2.6369   -3.6710    0.0000 H   0  0  0  0  0  0  0  0  0  0  0  0
    5.7813    1.0406    0.0000 H   0  0  0  0  0  0  0  0  0  0  0  0
    6.6050    2.7008    0.0000 H   0  0  0  0  0  0  0  0  0  0  0  0
    6.6724    1.6330    0.0000 H   0  0  0  0  0  0  0  0  0  0  0  0
    4.3228   -3.5719    0.0000 H   0  0  0  0  0  0  0  0  0  0  0  0
    2.2014    2.6252    0.0000 H   0  0  0  0  0  0  0  0  0  0  0  0
    0.6755   -0.1128    0.0000 H   0  0  0  0  0  0  0  0  0  0  0  0
   -0.0388    2.3637    0.0000 H   0  0  0  0  0  0  0  0  0  0  0  0
   -1.4680    2.3637    0.0000 H   0  0  0  0  0  0  0  0  0  0  0  0
   -1.6801   -0.4409    0.0000 H   0  0  0  0  0  0  0  0  0  0  0  0
    0.1731   -0.4409    0.0000 H   0  0  0  0  0  0  0  0  0  0  0  0
   -0.7535   -0.9759    0.0000 H   0  0  0  0  0  0  0  0  0  0  0  0
   -1.2557    0.3842    0.0000 H   0  0  0  0  0  0  0  0  0  0  0  0
   -3.1090   -0.4409    0.0000 H   0  0  0  0  0  0  0  0  0  0  0  0
   -1.2558   -0.4409    0.0000 H   0  0  0  0  0  0  0  0  0  0  0  0
   -2.1824   -0.9759    0.0000 H   0  0  0  0  0  0  0  0  0  0  0  0
   -2.0073    1.5622    0.0000 H   0  0  0  0  0  0  0  0  0  0  0  0
   -3.1244    1.7311    0.0000 H   0  0  0  0  0  0  0  0  0  0  0  0
   -4.7005    3.6935    0.0000 H   0  0  0  0  0  0  0  0  0  0  0  0
   -5.8423    2.5516    0.0000 H   0  0  0  0  0  0  0  0  0  0  0  0
   -1.2859    1.8210    0.0000 H   0  0  0  0  0  0  0  0  0  0  0  0
   -1.9951    3.5332    0.0000 H   0  0  0  0  0  0  0  0  0  0  0  0
   -1.1462    2.8819    0.0000 H   0  0  0  0  0  0  0  0  0  0  0  0
   -5.3015   -0.4529    0.0000 H   0  0  0  0  0  0  0  0  0  0  0  0
   -4.2679    0.3401    0.0000 H   0  0  0  0  0  0  0  0  0  0  0  0
   -5.5525   -0.3254    0.0000 H   0  0  0  0  0  0  0  0  0  0  0  0
   -3.7624   -0.8051    0.0000 H   0  0  0  0  0  0  0  0  0  0  0  0
   -4.7959   -1.0820    0.0000 H   0  0  0  0  0  0  0  0  0  0  0  0
  1  3  1  0  0  0  0
  1  4  2  0  0  0  0
  2  5  1  0  0  0  0
  2 21  2  0  0  0  0
  3  5  1  0  0  0  0
  5  7  1  0  0  0  0
  5 20  1  1  0  0  0
  6  8  1  0  0  0  0
  6  9  1  0  0  0  0
  6  3  1  0  0  0  0
  6 46  1  1  0  0  0
  7 10  1  0  0  0  0
  7 11  1  0  0  0  0
  7 47  1  6  0  0  0
  8 12  1  0  0  0  0
  9 13  1  0  0  0  0
  9 48  1  0  0  0  0
  9 49  1  0  0  0  0
 10 14  1  0  0  0  0
 10 15  2  0  0  0  0
 11 50  1  0  0  0  0
 11 51  1  0  0  0  0
 11 52  1  0  0  0  0
 12 16  1  0  0  0  0
 12 17  1  0  0  0  0
 12 53  1  1  0  0  0
 13 16  1  0  0  0  0
 13 54  1  0  0  0  0
 13 55  1  0  0  0  0
 14 18  1  0  0  0  0
 14 56  1  0  0  0  0
 16 19  1  0  0  0  0
 16 57  1  1  0  0  0
 17 58  1  0  0  0  0
 17 59  1  0  0  0  0
 17 60  1  0  0  0  0
 18 61  1  0  0  0  0
 18 62  1  0  0  0  0
 18 63  1  0  0  0  0
 19 64  1  0  0  0  0
 22  1  1  0  0  0  0
 22  2  1  0  0  0  0
 22 23  2  0  0  0  0
 23 24  1  0  0  0  0
 23 25  1  0  0  0  0
 24 65  1  0  0  0  0
 25 26  2  0  0  0  0
 25 66  1  0  0  0  0
 26 27  1  0  0  0  0
 26 67  1  0  0  0  0
 27 28  2  0  0  0  0
 27 29  1  0  0  0  0
 28 30  1  0  0  0  0
 28 68  1  0  0  0  0
 29 69  1  0  0  0  0
 29 70  1  0  0  0  0
 29 71  1  0  0  0  0
 30 31  1  0  0  0  0
 30 32  1  0  0  0  0
 30 72  1  6  0  0  0
 31 33  1  0  0  0  0
 31 39  1  6  0  0  0
 32 73  1  0  0  0  0
 32 74  1  0  0  0  0
 32 75  1  0  0  0  0
 33 34  1  0  0  0  0
 33 40  1  0  0  0  0
 33 76  1  1  0  0  0
 34 35  1  0  0  0  0
 34 44  1  0  0  0  0
 34 77  1  1  0  0  0
 35 36  2  0  0  0  0
 35 78  1  0  0  0  0
 36 79  1  0  0  0  0
 37 38  1  0  0  0  0
 37 44  1  0  0  0  0
 37 45  1  1  0  0  0
 38 31  1  0  0  0  0
 40 80  1  0  0  0  0
 40 81  1  0  0  0  0
 40 82  1  0  0  0  0
 41 42  1  0  0  0  0
 41 83  1  0  0  0  0
 41 84  1  0  0  0  0
 43 36  1  6  0  0  0
 43 37  1  0  0  0  0
 43 42  1  0  0  0  0
 43 41  1  0  0  0  0
 45 85  1  0  0  0  0
 45 86  1  0  0  0  0
 45 87  1  0  0  0  0
M  END
>  <DRUGBANK_ID>
DB04785

>  <COMMON_NAME>
Streptolydigin

>  <CAS_NUMBER>
7229-50-7

>  <UNII>
6MON4029Q8

>  <SYNONYMS>
Afragilimycin A; Portamycin

$$$$
