L13
 OpenBabel10282417072D

 24 25  0  0  0  0  0  0  0  0999 V2000
    1.5290    0.7769    0.0000 N   0  0  0  0  0  0  0  0  0  0  0  0
    1.5290   -0.0481    0.0000 N   0  0  0  0  0  0  0  0  0  0  0  0
    2.1964   -0.5330    0.0000 C   0  0  0  0  0  0  0  0  0  0  0  0
    2.9811   -0.2780    0.0000 S   0  0  0  0  0  0  0  0  0  0  0  0
    1.9415   -1.3176    0.0000 N   0  0  0  0  0  0  0  0  0  0  0  0
    1.1165   -1.3176    0.0000 N   0  0  0  0  0  0  0  0  0  0  0  0
    0.8616   -0.5330    0.0000 C   0  0  0  0  0  0  0  0  0  0  0  0
    0.0769   -0.2780    0.0000 C   0  0  0  0  0  0  0  0  0  0  0  0
   -0.5362   -0.8301    0.0000 C   0  0  0  0  0  0  0  0  0  0  0  0
   -1.3208   -0.5751    0.0000 C   0  0  0  0  0  0  0  0  0  0  0  0
   -1.4923    0.2318    0.0000 C   0  0  0  0  0  0  0  0  0  0  0  0
   -0.8792    0.7839    0.0000 C   0  0  0  0  0  0  0  0  0  0  0  0
   -0.0946    0.5289    0.0000 C   0  0  0  0  0  0  0  0  0  0  0  0
    0.5185    1.0810    0.0000 C   0  0  0  0  0  0  0  0  0  0  0  0
    2.3816    1.2692    0.0000 H   0  0  0  0  0  0  0  0  0  0  0  0
    0.6764    1.2691    0.0000 H   0  0  0  0  0  0  0  0  0  0  0  0
    2.5202   -2.1141    0.0000 H   0  0  0  0  0  0  0  0  0  0  0  0
   -0.3216   -1.8396    0.0000 H   0  0  0  0  0  0  0  0  0  0  0  0
   -2.0878   -1.2656    0.0000 H   0  0  0  0  0  0  0  0  0  0  0  0
   -2.4738    0.5507    0.0000 H   0  0  0  0  0  0  0  0  0  0  0  0
   -1.0938    1.7934    0.0000 H   0  0  0  0  0  0  0  0  0  0  0  0
    1.5361    0.7504    0.0000 H   0  0  0  0  0  0  0  0  0  0  0  0
    0.2960    2.1276    0.0000 H   0  0  0  0  0  0  0  0  0  0  0  0
    1.3136    1.7970    0.0000 H   0  0  0  0  0  0  0  0  0  0  0  0
  1  2  1  0  0  0  0
  1 15  1  0  0  0  0
  1 16  1  0  0  0  0
  2  3  1  0  0  0  0
  2  7  1  0  0  0  0
  3  4  2  0  0  0  0
  3  5  1  0  0  0  0
  5  6  1  0  0  0  0
  5 17  1  0  0  0  0
  6  7  2  0  0  0  0
  7  8  1  0  0  0  0
  8  9  2  0  0  0  0
  8 13  1  0  0  0  0
  9 10  1  0  0  0  0
  9 18  1  0  0  0  0
 10 11  2  0  0  0  0
 10 19  1  0  0  0  0
 11 12  1  0  0  0  0
 11 20  1  0  0  0  0
 12 13  2  0  0  0  0
 12 21  1  0  0  0  0
 13 14  1  0  0  0  0
 14 22  1  0  0  0  0
 14 23  1  0  0  0  0
 14 24  1  0  0  0  0
M  END
>  <DRUGBANK_ID>
DB08069

>  <COMMON_NAME>
4-AMINO-5-(2-METHYLPHENYL)-2,4-DIHYDRO-3H-1,2,4-TRIAZOLE-3-THIONE

>  <UNII>
9GLA8V58ZZ

$$$$
