1438
 OpenBabel10282417072D

 27 28  0  0  0  0  0  0  0  0999 V2000
    5.2223   -1.8067    0.0000 N   0  0  0  0  0  0  0  0  0  0  0  0
    3.7934   -0.1568    0.0000 N   0  0  0  0  0  0  0  0  0  0  0  0
    3.7934    0.6683    0.0000 N   0  0  0  0  0  0  0  0  0  0  0  0
    3.7934   -1.8067    0.0000 N   0  0  0  0  0  0  0  0  0  0  0  0
    6.6513   -1.8067    0.0000 N   0  0  0  0  0  0  0  0  0  0  0  0
    4.5079   -0.5692    0.0000 C   0  0  0  0  0  0  0  0  0  0  0  0
    4.5079   -1.3942    0.0000 C   0  0  0  0  0  0  0  0  0  0  0  0
    5.2223   -0.1568    0.0000 C   0  0  0  0  0  0  0  0  0  0  0  0
    5.9369   -0.5692    0.0000 C   0  0  0  0  0  0  0  0  0  0  0  0
    5.9369   -1.3942    0.0000 C   0  0  0  0  0  0  0  0  0  0  0  0
    3.0790    1.0808    0.0000 C   0  0  0  0  0  0  0  0  0  0  0  0
    2.3644    0.6683    0.0000 C   0  0  0  0  0  0  0  0  0  0  0  0
    3.0790    1.9058    0.0000 C   0  0  0  0  0  0  0  0  0  0  0  0
    1.6500    1.0808    0.0000 C   0  0  0  0  0  0  0  0  0  0  0  0
    2.3644    2.3182    0.0000 C   0  0  0  0  0  0  0  0  0  0  0  0
    1.6500    1.9058    0.0000 C   0  0  0  0  0  0  0  0  0  0  0  0
    2.9408   -1.3144    0.0000 H   0  0  0  0  0  0  0  0  0  0  0  0
    3.7934   -2.7912    0.0000 H   0  0  0  0  0  0  0  0  0  0  0  0
    6.6513   -2.7912    0.0000 H   0  0  0  0  0  0  0  0  0  0  0  0
    7.5039   -1.3145    0.0000 H   0  0  0  0  0  0  0  0  0  0  0  0
    5.2222    0.8752    0.0000 H   0  0  0  0  0  0  0  0  0  0  0  0
    6.8306   -0.0531    0.0000 H   0  0  0  0  0  0  0  0  0  0  0  0
    2.3643   -0.3637    0.0000 H   0  0  0  0  0  0  0  0  0  0  0  0
    3.9727    2.4219    0.0000 H   0  0  0  0  0  0  0  0  0  0  0  0
    0.7563    0.5648    0.0000 H   0  0  0  0  0  0  0  0  0  0  0  0
    2.3643    3.3502    0.0000 H   0  0  0  0  0  0  0  0  0  0  0  0
    0.7563    2.4218    0.0000 H   0  0  0  0  0  0  0  0  0  0  0  0
  1  7  1  0  0  0  0
  1 10  2  0  0  0  0
  2  3  2  0  0  0  0
  2  6  1  0  0  0  0
  3 11  1  0  0  0  0
  4  7  1  0  0  0  0
  4 17  1  0  0  0  0
  4 18  1  0  0  0  0
  5 10  1  0  0  0  0
  5 19  1  0  0  0  0
  5 20  1  0  0  0  0
  6  7  2  0  0  0  0
  6  8  1  0  0  0  0
  8  9  2  0  0  0  0
  8 21  1  0  0  0  0
  9 10  1  0  0  0  0
  9 22  1  0  0  0  0
 11 12  2  0  0  0  0
 11 13  1  0  0  0  0
 12 14  1  0  0  0  0
 12 23  1  0  0  0  0
 13 15  2  0  0  0  0
 13 24  1  0  0  0  0
 14 16  2  0  0  0  0
 14 25  1  0  0  0  0
 15 16  1  0  0  0  0
 15 26  1  0  0  0  0
 16 27  1  0  0  0  0
M  END
>  <DRUGBANK_ID>
DB01438

>  <COMMON_NAME>
Phenazopyridine

>  <CAS_NUMBER>
94-78-0

>  <UNII>
K2J09EMJ52

>  <SYNONYMS>
2,6-Diamino-3-(phenylazo)pyridine; 2,6-Diamino-3-phenylazopyridine; 3-(Phenylazo)-2,6-pyridinediamine; Fenazopiridina; Phenazopyridine; Ph√©nazopyridine; Phenazopyridinum

$$$$
