
 OpenBabel10282417072D

 28 29  0  0  0  0  0  0  0  0999 V2000
   -0.6340   -0.5232    0.0000 C   0  0  0  0  0  0  0  0  0  0  0  0
   -0.6340   -1.3482    0.0000 C   0  0  0  0  0  0  0  0  0  0  0  0
   -1.3484   -1.7608    0.0000 C   0  0  0  0  0  0  0  0  0  0  0  0
   -2.0629   -1.3482    0.0000 C   0  0  0  0  0  0  0  0  0  0  0  0
   -2.0629   -0.5232    0.0000 C   0  0  0  0  0  0  0  0  0  0  0  0
   -1.3484   -0.1107    0.0000 C   0  0  0  0  0  0  0  0  0  0  0  0
    0.0804   -0.1107    0.0000 S   0  0  0  0  0  0  0  0  0  0  0  0
   -2.7774   -1.7608    0.0000 N   0  0  0  0  0  0  0  0  0  0  0  0
    0.7950   -0.5232    0.0000 N   0  0  0  0  0  0  0  0  0  0  0  0
    1.5104   -0.1105    0.0000 C   0  0  0  0  0  0  0  0  0  0  0  0
   -0.3320    0.6037    0.0000 O   0  0  0  0  0  0  0  0  0  0  0  0
    0.4930    0.6037    0.0000 O   0  0  0  0  0  0  0  0  0  0  0  0
    1.5050    0.7144    0.0000 C   0  0  0  0  0  0  0  0  0  0  0  0
    2.2967   -0.3603    0.0000 N   0  0  0  0  0  0  0  0  0  0  0  0
    2.2879    0.9745    0.0000 C   0  0  0  0  0  0  0  0  0  0  0  0
    2.7774    0.3103    0.0000 O   0  0  0  0  0  0  0  0  0  0  0  0
    2.5378    1.7608    0.0000 C   0  0  0  0  0  0  0  0  0  0  0  0
    0.2598   -1.8641    0.0000 H   0  0  0  0  0  0  0  0  0  0  0  0
   -1.3484   -2.7928    0.0000 H   0  0  0  0  0  0  0  0  0  0  0  0
   -2.9566   -0.0072    0.0000 H   0  0  0  0  0  0  0  0  0  0  0  0
   -1.3484    0.9213    0.0000 H   0  0  0  0  0  0  0  0  0  0  0  0
   -3.6300   -1.2686    0.0000 H   0  0  0  0  0  0  0  0  0  0  0  0
   -2.7773   -2.7453    0.0000 H   0  0  0  0  0  0  0  0  0  0  0  0
    0.7949   -1.5077    0.0000 H   0  0  0  0  0  0  0  0  0  0  0  0
    0.6661    1.3155    0.0000 H   0  0  0  0  0  0  0  0  0  0  0  0
    3.5830    1.9900    0.0000 H   0  0  0  0  0  0  0  0  0  0  0  0
    1.8167    2.5513    0.0000 H   0  0  0  0  0  0  0  0  0  0  0  0
    2.8619    2.7805    0.0000 H   0  0  0  0  0  0  0  0  0  0  0  0
  1  2  1  0  0  0  0
  1  7  1  0  0  0  0
  2  3  2  0  0  0  0
  2 18  1  0  0  0  0
  3  4  1  0  0  0  0
  3 19  1  0  0  0  0
  4  5  2  0  0  0  0
  4  8  1  0  0  0  0
  5  6  1  0  0  0  0
  5 20  1  0  0  0  0
  6  1  2  0  0  0  0
  6 21  1  0  0  0  0
  8 22  1  0  0  0  0
  8 23  1  0  0  0  0
  9 10  1  0  0  0  0
  9  7  1  0  0  0  0
  9 24  1  0  0  0  0
 11  7  2  0  0  0  0
 12  7  2  0  0  0  0
 13 10  1  0  0  0  0
 13 25  1  0  0  0  0
 14 10  2  0  0  0  0
 15 13  2  0  0  0  0
 15 17  1  0  0  0  0
 16 14  1  0  0  0  0
 16 15  1  0  0  0  0
 17 26  1  0  0  0  0
 17 27  1  0  0  0  0
 17 28  1  0  0  0  0
M  END
>  <DRUGBANK_ID>
DB01015

>  <SECONDARY_ACCESSION_NUMBERS>
APRD00076

>  <COMMON_NAME>
Sulfamethoxazole

>  <CAS_NUMBER>
723-46-6

>  <UNII>
JE42381TNV

>  <SYNONYMS>
3-(p-Aminophenylsulfonamido)-5-methylisoxazole; 3-Sulfanilamido-5-methylisoxazole; 4-Amino-N-(5-methyl-3-isoxazolyl)benzenesulfonamide; SMX; Sulfamethoxazole; Sulfametoxazol; Sulphamethoxazole

$$$$
