
 OpenBabel10282417072D

 49 51  0  0  0  0  0  0  0  0999 V2000
   -4.3261   -0.0748    0.0000 C   0  0  0  0  0  0  0  0  0  0  0  0
   -3.6116   -0.4873    0.0000 N   0  0  0  0  0  0  0  0  0  0  0  0
   -3.6116   -1.3123    0.0000 C   0  0  0  0  0  0  0  0  0  0  0  0
   -2.8971   -0.0748    0.0000 C   0  0  0  0  0  0  0  0  0  0  0  0
   -2.1827   -0.4873    0.0000 C   0  0  0  0  0  0  0  0  0  0  0  0
   -1.4682   -0.0748    0.0000 C   0  0  0  0  0  0  0  0  0  0  0  0
   -0.7537   -0.4873    0.0000 N   0  0  0  0  0  0  0  0  0  0  0  0
   -0.6675   -1.3078    0.0000 C   0  0  0  0  0  0  0  0  0  0  0  0
   -1.2195   -1.9209    0.0000 C   0  0  0  0  0  0  0  0  0  0  0  0
   -0.9646   -2.7055    0.0000 C   0  0  0  0  0  0  0  0  0  0  0  0
   -0.1576   -2.8770    0.0000 C   0  0  0  0  0  0  0  0  0  0  0  0
    0.3944   -2.2639    0.0000 C   0  0  0  0  0  0  0  0  0  0  0  0
    0.1395   -1.4793    0.0000 C   0  0  0  0  0  0  0  0  0  0  0  0
    0.5520   -0.7648    0.0000 C   0  0  0  0  0  0  0  0  0  0  0  0
   -0.0001   -0.1517    0.0000 C   0  0  0  0  0  0  0  0  0  0  0  0
    0.0431    0.6721    0.0000 C   0  0  0  0  0  0  0  0  0  0  0  0
    0.6562    1.2242    0.0000 C   0  0  0  0  0  0  0  0  0  0  0  0
    1.4801    1.1810    0.0000 C   0  0  0  0  0  0  0  0  0  0  0  0
    2.0321    0.5679    0.0000 C   0  0  0  0  0  0  0  0  0  0  0  0
    1.9889   -0.2560    0.0000 C   0  0  0  0  0  0  0  0  0  0  0  0
    1.3758   -0.8080    0.0000 C   0  0  0  0  0  0  0  0  0  0  0  0
   -4.3261    0.9952    0.0000 H   0  0  0  0  0  0  0  0  0  0  0  0
   -5.2527   -0.6098    0.0000 H   0  0  0  0  0  0  0  0  0  0  0  0
   -5.2528    0.4602    0.0000 H   0  0  0  0  0  0  0  0  0  0  0  0
   -4.5382   -1.8473    0.0000 H   0  0  0  0  0  0  0  0  0  0  0  0
   -2.6850   -1.8473    0.0000 H   0  0  0  0  0  0  0  0  0  0  0  0
   -3.6116   -2.3823    0.0000 H   0  0  0  0  0  0  0  0  0  0  0  0
   -2.8971    0.9952    0.0000 H   0  0  0  0  0  0  0  0  0  0  0  0
   -1.9704    0.4602    0.0000 H   0  0  0  0  0  0  0  0  0  0  0  0
   -2.1827   -1.5573    0.0000 H   0  0  0  0  0  0  0  0  0  0  0  0
   -1.2561   -1.0223    0.0000 H   0  0  0  0  0  0  0  0  0  0  0  0
   -1.4682    0.9952    0.0000 H   0  0  0  0  0  0  0  0  0  0  0  0
   -0.5416    0.4602    0.0000 H   0  0  0  0  0  0  0  0  0  0  0  0
   -2.2289   -1.7063    0.0000 H   0  0  0  0  0  0  0  0  0  0  0  0
   -1.6551   -3.4724    0.0000 H   0  0  0  0  0  0  0  0  0  0  0  0
    0.1613   -3.8585    0.0000 H   0  0  0  0  0  0  0  0  0  0  0  0
    1.4038   -2.4785    0.0000 H   0  0  0  0  0  0  0  0  0  0  0  0
   -0.9227    1.1327    0.0000 H   0  0  0  0  0  0  0  0  0  0  0  0
   -0.1105    1.7310    0.0000 H   0  0  0  0  0  0  0  0  0  0  0  0
    0.2990    2.2328    0.0000 H   0  0  0  0  0  0  0  0  0  0  0  0
    1.2964    2.0815    0.0000 H   0  0  0  0  0  0  0  0  0  0  0  0
    1.9408    2.1468    0.0000 H   0  0  0  0  0  0  0  0  0  0  0  0
    2.5390    1.3345    0.0000 H   0  0  0  0  0  0  0  0  0  0  0  0
    3.0407    0.9250    0.0000 H   0  0  0  0  0  0  0  0  0  0  0  0
    2.8894   -0.0723    0.0000 H   0  0  0  0  0  0  0  0  0  0  0  0
    2.9547   -0.7167    0.0000 H   0  0  0  0  0  0  0  0  0  0  0  0
    2.1424   -1.3149    0.0000 H   0  0  0  0  0  0  0  0  0  0  0  0
    1.7329   -1.8166    0.0000 H   0  0  0  0  0  0  0  0  0  0  0  0
    0.7356   -1.6653    0.0000 H   0  0  0  0  0  0  0  0  0  0  0  0
  1  2  1  0  0  0  0
  1 22  1  0  0  0  0
  1 23  1  0  0  0  0
  1 24  1  0  0  0  0
  2  3  1  0  0  0  0
  2  4  1  0  0  0  0
  3 25  1  0  0  0  0
  3 26  1  0  0  0  0
  3 27  1  0  0  0  0
  4  5  1  0  0  0  0
  4 28  1  0  0  0  0
  4 29  1  0  0  0  0
  5  6  1  0  0  0  0
  5 30  1  0  0  0  0
  5 31  1  0  0  0  0
  6  7  1  0  0  0  0
  6 32  1  0  0  0  0
  6 33  1  0  0  0  0
  7  8  1  0  0  0  0
  7 15  1  0  0  0  0
  8  9  2  0  0  0  0
  8 13  1  0  0  0  0
  9 10  1  0  0  0  0
  9 34  1  0  0  0  0
 10 11  2  0  0  0  0
 10 35  1  0  0  0  0
 11 12  1  0  0  0  0
 11 36  1  0  0  0  0
 12 13  2  0  0  0  0
 12 37  1  0  0  0  0
 13 14  1  0  0  0  0
 14 15  2  0  0  0  0
 14 21  1  0  0  0  0
 15 16  1  0  0  0  0
 16 17  1  0  0  0  0
 16 38  1  0  0  0  0
 16 39  1  0  0  0  0
 17 18  1  0  0  0  0
 17 40  1  0  0  0  0
 17 41  1  0  0  0  0
 18 19  1  0  0  0  0
 18 42  1  0  0  0  0
 18 43  1  0  0  0  0
 19 20  1  0  0  0  0
 19 44  1  0  0  0  0
 19 45  1  0  0  0  0
 20 21  1  0  0  0  0
 20 46  1  0  0  0  0
 20 47  1  0  0  0  0
 21 48  1  0  0  0  0
 21 49  1  0  0  0  0
M  END
>  <DRUGBANK_ID>
DB13496

>  <COMMON_NAME>
Iprindole

>  <CAS_NUMBER>
5560-72-5

>  <UNII>
69U0IKR8FP

>  <SYNONYMS>
Iprindole

$$$$
