1481
 OpenBabel10282417072D

 49 52  0  0  1  0  0  0  0  0999 V2000
    7.1353    1.7429    0.0000 O   0  0  0  0  0  0  0  0  0  0  0  0
    1.6498   -1.8105    0.0000 O   0  0  0  0  0  0  0  0  0  0  0  0
    6.0985   -0.1176    0.0000 C   0  0  1  0  0  0  0  0  0  0  0  0
    5.3842   -0.5300    0.0000 C   0  0  1  0  0  0  0  0  0  0  0  0
    6.0985    0.7073    0.0000 C   0  0  2  0  0  0  0  0  0  0  0  0
    4.6697   -0.1176    0.0000 C   0  0  1  0  0  0  0  0  0  0  0  0
    3.9191   -0.5356    0.0000 C   0  0  1  0  0  0  0  0  0  0  0  0
    5.3842    1.1197    0.0000 C   0  0  0  0  0  0  0  0  0  0  0  0
    4.6697    0.7073    0.0000 C   0  0  0  0  0  0  0  0  0  0  0  0
    6.8790    0.9588    0.0000 C   0  0  2  0  0  0  0  0  0  0  0  0
    6.8790   -0.3689    0.0000 C   0  0  0  0  0  0  0  0  0  0  0  0
    5.3974   -1.3891    0.0000 C   0  0  0  0  0  0  0  0  0  0  0  0
    3.9125   -1.3948    0.0000 C   0  0  1  0  0  0  0  0  0  0  0  0
    7.3604    0.2949    0.0000 C   0  0  0  0  0  0  0  0  0  0  0  0
    4.6566   -1.8245    0.0000 C   0  0  0  0  0  0  0  0  0  0  0  0
    6.0985    1.5322    0.0000 C   0  0  0  0  0  0  0  0  0  0  0  0
    3.9254    0.2893    0.0000 C   0  0  0  0  0  0  0  0  0  0  0  0
    3.1546   -0.0703    0.0000 C   0  0  0  0  0  0  0  0  0  0  0  0
    3.1409   -1.8482    0.0000 C   0  0  0  0  0  0  0  0  0  0  0  0
    2.3726   -0.5058    0.0000 C   0  0  0  0  0  0  0  0  0  0  0  0
    2.3657   -1.4007    0.0000 C   0  0  0  0  0  0  0  0  0  0  0  0
    6.1683   -0.7738    0.0000 H   0  0  0  0  0  0  0  0  0  0  0  0
    5.9581   -0.8555    0.0000 H   0  0  0  0  0  0  0  0  0  0  0  0
    5.2413    0.2124    0.0000 H   0  0  0  0  0  0  0  0  0  0  0  0
    3.9150   -2.0547    0.0000 H   0  0  0  0  0  0  0  0  0  0  0  0
    8.0845    1.9429    0.0000 H   0  0  0  0  0  0  0  0  0  0  0  0
    5.3843    2.1897    0.0000 H   0  0  0  0  0  0  0  0  0  0  0  0
    4.4576    1.6548    0.0000 H   0  0  0  0  0  0  0  0  0  0  0  0
    3.7431    1.2424    0.0000 H   0  0  0  0  0  0  0  0  0  0  0  0
    4.6698    1.7773    0.0000 H   0  0  0  0  0  0  0  0  0  0  0  0
    6.1240    1.7170    0.0000 H   0  0  0  0  0  0  0  0  0  0  0  0
    7.2114   -1.3859    0.0000 H   0  0  0  0  0  0  0  0  0  0  0  0
    7.9360   -0.5349    0.0000 H   0  0  0  0  0  0  0  0  0  0  0  0
    6.3302   -1.9134    0.0000 H   0  0  0  0  0  0  0  0  0  0  0  0
    5.4077   -2.4591    0.0000 H   0  0  0  0  0  0  0  0  0  0  0  0
    8.4304    0.2949    0.0000 H   0  0  0  0  0  0  0  0  0  0  0  0
    7.8466   -0.6583    0.0000 H   0  0  0  0  0  0  0  0  0  0  0  0
    4.6607   -2.8945    0.0000 H   0  0  0  0  0  0  0  0  0  0  0  0
    3.7310   -2.3612    0.0000 H   0  0  0  0  0  0  0  0  0  0  0  0
    7.0251    2.0672    0.0000 H   0  0  0  0  0  0  0  0  0  0  0  0
    5.1719    2.0672    0.0000 H   0  0  0  0  0  0  0  0  0  0  0  0
    6.0985    2.6022    0.0000 H   0  0  0  0  0  0  0  0  0  0  0  0
    4.8561    0.8172    0.0000 H   0  0  0  0  0  0  0  0  0  0  0  0
    3.0029    0.8314    0.0000 H   0  0  0  0  0  0  0  0  0  0  0  0
    3.9336    1.3593    0.0000 H   0  0  0  0  0  0  0  0  0  0  0  0
    3.1745    0.9615    0.0000 H   0  0  0  0  0  0  0  0  0  0  0  0
    3.1450   -2.9182    0.0000 H   0  0  0  0  0  0  0  0  0  0  0  0
    2.2153   -2.3850    0.0000 H   0  0  0  0  0  0  0  0  0  0  0  0
    1.4849    0.0205    0.0000 H   0  0  0  0  0  0  0  0  0  0  0  0
  1 26  1  0  0  0  0
  2 21  2  0  0  0  0
  3  4  1  0  0  0  0
  3  5  1  0  0  0  0
  3 11  1  0  0  0  0
  3 22  1  6  0  0  0
  4  6  1  0  0  0  0
  4 12  1  0  0  0  0
  4 23  1  1  0  0  0
  5  8  1  0  0  0  0
  5 10  1  0  0  0  0
  5 16  1  1  0  0  0
  6  7  1  0  0  0  0
  6  9  1  0  0  0  0
  6 24  1  6  0  0  0
  7 13  1  0  0  0  0
  7 17  1  1  0  0  0
  7 18  1  0  0  0  0
  8  9  1  0  0  0  0
  8 27  1  0  0  0  0
  8 28  1  0  0  0  0
  9 29  1  0  0  0  0
  9 30  1  0  0  0  0
 10  1  1  0  0  0  0
 10 14  1  0  0  0  0
 10 31  1  6  0  0  0
 11 14  1  0  0  0  0
 11 32  1  0  0  0  0
 11 33  1  0  0  0  0
 12 15  1  0  0  0  0
 12 34  1  0  0  0  0
 12 35  1  0  0  0  0
 13 15  1  0  0  0  0
 13 19  1  0  0  0  0
 13 25  1  6  0  0  0
 14 36  1  0  0  0  0
 14 37  1  0  0  0  0
 15 38  1  0  0  0  0
 15 39  1  0  0  0  0
 16 40  1  0  0  0  0
 16 41  1  0  0  0  0
 16 42  1  0  0  0  0
 17 43  1  0  0  0  0
 17 44  1  0  0  0  0
 17 45  1  0  0  0  0
 18 20  2  0  0  0  0
 18 46  1  0  0  0  0
 19 21  1  0  0  0  0
 19 47  1  0  0  0  0
 19 48  1  0  0  0  0
 20 21  1  0  0  0  0
 20 49  1  0  0  0  0
M  END
>  <DRUGBANK_ID>
DB01481

>  <COMMON_NAME>
1-Testosterone

>  <CAS_NUMBER>
65-06-5

>  <UNII>
Y984BV1Q0G

>  <SYNONYMS>
1-T; 1-Testo; 17beta-hydroxy-5alpha-androst-1-en-3-one; Androstendolone; delta1-Dihydrotestosterone

$$$$
