
 OpenBabel10282417072D

 70 74  0  0  0  0  0  0  0  0999 V2000
   -6.8159   -2.8414    0.0000 C   0  0  0  0  0  0  0  0  0  0  0  0
   -6.4034   -2.1269    0.0000 O   0  0  0  0  0  0  0  0  0  0  0  0
   -5.5784   -2.1269    0.0000 C   0  0  0  0  0  0  0  0  0  0  0  0
   -5.1659   -1.4124    0.0000 C   0  0  0  0  0  0  0  0  0  0  0  0
   -4.3409   -1.4124    0.0000 N   0  0  0  0  0  0  0  0  0  0  0  0
   -3.9284   -0.6979    0.0000 C   0  0  0  0  0  0  0  0  0  0  0  0
   -3.1034   -0.6979    0.0000 C   0  0  0  0  0  0  0  0  0  0  0  0
   -2.6909    0.0165    0.0000 C   0  0  0  0  0  0  0  0  0  0  0  0
   -1.8659    0.0165    0.0000 C   0  0  0  0  0  0  0  0  0  0  0  0
   -1.4534   -0.6979    0.0000 C   0  0  0  0  0  0  0  0  0  0  0  0
   -1.8659   -1.4124    0.0000 N   0  0  0  0  0  0  0  0  0  0  0  0
   -2.6909   -1.4124    0.0000 C   0  0  0  0  0  0  0  0  0  0  0  0
   -0.6284   -0.6979    0.0000 C   0  0  0  0  0  0  0  0  0  0  0  0
   -0.1435   -1.3654    0.0000 C   0  0  0  0  0  0  0  0  0  0  0  0
    0.6411   -1.1104    0.0000 C   0  0  0  0  0  0  0  0  0  0  0  0
    0.6411   -0.2854    0.0000 C   0  0  0  0  0  0  0  0  0  0  0  0
   -0.1435   -0.0305    0.0000 S   0  0  0  0  0  0  0  0  0  0  0  0
    1.3556    0.1271    0.0000 C   0  0  0  0  0  0  0  0  0  0  0  0
    2.0701   -0.2854    0.0000 C   0  0  0  0  0  0  0  0  0  0  0  0
    2.0701   -1.1104    0.0000 C   0  0  0  0  0  0  0  0  0  0  0  0
    1.3556   -1.5229    0.0000 N   0  0  0  0  0  0  0  0  0  0  0  0
    1.3556    0.9521    0.0000 O   0  0  0  0  0  0  0  0  0  0  0  0
    2.0701    1.3646    0.0000 C   0  0  0  0  0  0  0  0  0  0  0  0
    2.0701    2.1896    0.0000 C   0  0  0  0  0  0  0  0  0  0  0  0
    2.7845    2.6021    0.0000 C   0  0  0  0  0  0  0  0  0  0  0  0
    3.4990    2.1896    0.0000 C   0  0  0  0  0  0  0  0  0  0  0  0
    3.4990    1.3646    0.0000 C   0  0  0  0  0  0  0  0  0  0  0  0
    2.7845    0.9521    0.0000 C   0  0  0  0  0  0  0  0  0  0  0  0
    2.7845    0.1271    0.0000 F   0  0  0  0  0  0  0  0  0  0  0  0
    4.2135    2.6021    0.0000 N   0  0  0  0  0  0  0  0  0  0  0  0
    4.9279    2.1896    0.0000 C   0  0  0  0  0  0  0  0  0  0  0  0
    4.9279    1.3646    0.0000 S   0  0  0  0  0  0  0  0  0  0  0  0
    5.6424    2.6021    0.0000 N   0  0  0  0  0  0  0  0  0  0  0  0
    6.3569    2.1896    0.0000 C   0  0  0  0  0  0  0  0  0  0  0  0
    6.3569    1.3646    0.0000 O   0  0  0  0  0  0  0  0  0  0  0  0
    7.0714    2.6021    0.0000 C   0  0  0  0  0  0  0  0  0  0  0  0
    7.7858    2.1896    0.0000 C   0  0  0  0  0  0  0  0  0  0  0  0
    8.5003    2.6021    0.0000 C   0  0  0  0  0  0  0  0  0  0  0  0
    9.2148    2.1896    0.0000 C   0  0  0  0  0  0  0  0  0  0  0  0
    9.2148    1.3646    0.0000 C   0  0  0  0  0  0  0  0  0  0  0  0
    8.5003    0.9521    0.0000 C   0  0  0  0  0  0  0  0  0  0  0  0
    7.7858    1.3646    0.0000 C   0  0  0  0  0  0  0  0  0  0  0  0
    9.9292    0.9521    0.0000 F   0  0  0  0  0  0  0  0  0  0  0  0
   -7.8859   -2.8414    0.0000 H   0  0  0  0  0  0  0  0  0  0  0  0
   -6.2809   -3.7680    0.0000 H   0  0  0  0  0  0  0  0  0  0  0  0
   -7.3509   -3.7681    0.0000 H   0  0  0  0  0  0  0  0  0  0  0  0
   -5.0434   -3.0535    0.0000 H   0  0  0  0  0  0  0  0  0  0  0  0
   -4.5084   -2.1269    0.0000 H   0  0  0  0  0  0  0  0  0  0  0  0
   -5.7009   -0.4858    0.0000 H   0  0  0  0  0  0  0  0  0  0  0  0
   -4.6309   -0.4858    0.0000 H   0  0  0  0  0  0  0  0  0  0  0  0
   -3.8309   -2.2957    0.0000 H   0  0  0  0  0  0  0  0  0  0  0  0
   -4.4634    0.2287    0.0000 H   0  0  0  0  0  0  0  0  0  0  0  0
   -3.3934    0.2287    0.0000 H   0  0  0  0  0  0  0  0  0  0  0  0
   -3.2069    0.9102    0.0000 H   0  0  0  0  0  0  0  0  0  0  0  0
   -1.3499    0.9102    0.0000 H   0  0  0  0  0  0  0  0  0  0  0  0
   -3.2069   -2.3061    0.0000 H   0  0  0  0  0  0  0  0  0  0  0  0
   -0.4624   -2.3469    0.0000 H   0  0  0  0  0  0  0  0  0  0  0  0
    2.9638    0.2306    0.0000 H   0  0  0  0  0  0  0  0  0  0  0  0
    2.9638   -1.6264    0.0000 H   0  0  0  0  0  0  0  0  0  0  0  0
    1.1764    2.7056    0.0000 H   0  0  0  0  0  0  0  0  0  0  0  0
    2.7845    3.6341    0.0000 H   0  0  0  0  0  0  0  0  0  0  0  0
    4.3927    0.8486    0.0000 H   0  0  0  0  0  0  0  0  0  0  0  0
    4.2135    3.5866    0.0000 H   0  0  0  0  0  0  0  0  0  0  0  0
    5.6424    3.5866    0.0000 H   0  0  0  0  0  0  0  0  0  0  0  0
    7.0714    3.6721    0.0000 H   0  0  0  0  0  0  0  0  0  0  0  0
    7.9981    3.1371    0.0000 H   0  0  0  0  0  0  0  0  0  0  0  0
    8.5003    3.6341    0.0000 H   0  0  0  0  0  0  0  0  0  0  0  0
   10.1085    2.7056    0.0000 H   0  0  0  0  0  0  0  0  0  0  0  0
    8.5003   -0.0799    0.0000 H   0  0  0  0  0  0  0  0  0  0  0  0
    6.8921    0.8486    0.0000 H   0  0  0  0  0  0  0  0  0  0  0  0
  1  2  1  0  0  0  0
  1 44  1  0  0  0  0
  1 45  1  0  0  0  0
  1 46  1  0  0  0  0
  2  3  1  0  0  0  0
  3  4  1  0  0  0  0
  3 47  1  0  0  0  0
  3 48  1  0  0  0  0
  4  5  1  0  0  0  0
  4 49  1  0  0  0  0
  4 50  1  0  0  0  0
  5  6  1  0  0  0  0
  5 51  1  0  0  0  0
  6  7  1  0  0  0  0
  6 52  1  0  0  0  0
  6 53  1  0  0  0  0
  7  8  2  0  0  0  0
  7 12  1  0  0  0  0
  8  9  1  0  0  0  0
  8 54  1  0  0  0  0
  9 10  2  0  0  0  0
  9 55  1  0  0  0  0
 10 11  1  0  0  0  0
 10 13  1  0  0  0  0
 11 12  2  0  0  0  0
 12 56  1  0  0  0  0
 13 14  2  0  0  0  0
 13 17  1  0  0  0  0
 14 15  1  0  0  0  0
 14 57  1  0  0  0  0
 15 16  1  0  0  0  0
 15 21  2  0  0  0  0
 16 17  1  0  0  0  0
 16 18  2  0  0  0  0
 18 19  1  0  0  0  0
 18 22  1  0  0  0  0
 19 20  2  0  0  0  0
 19 58  1  0  0  0  0
 20 21  1  0  0  0  0
 20 59  1  0  0  0  0
 22 23  1  0  0  0  0
 23 24  2  0  0  0  0
 23 28  1  0  0  0  0
 24 25  1  0  0  0  0
 24 60  1  0  0  0  0
 25 26  2  0  0  0  0
 25 61  1  0  0  0  0
 26 27  1  0  0  0  0
 26 30  1  0  0  0  0
 27 28  2  0  0  0  0
 27 62  1  0  0  0  0
 28 29  1  0  0  0  0
 30 31  1  0  0  0  0
 30 63  1  0  0  0  0
 31 32  2  0  0  0  0
 31 33  1  0  0  0  0
 33 34  1  0  0  0  0
 33 64  1  0  0  0  0
 34 35  2  0  0  0  0
 34 36  1  0  0  0  0
 36 37  1  0  0  0  0
 36 65  1  0  0  0  0
 36 66  1  0  0  0  0
 37 38  2  0  0  0  0
 37 42  1  0  0  0  0
 38 39  1  0  0  0  0
 38 67  1  0  0  0  0
 39 40  2  0  0  0  0
 39 68  1  0  0  0  0
 40 41  1  0  0  0  0
 40 43  1  0  0  0  0
 41 42  2  0  0  0  0
 41 69  1  0  0  0  0
 42 70  1  0  0  0  0
M  END
>  <DRUGBANK_ID>
DB06302

>  <COMMON_NAME>
Glesatinib

>  <CAS_NUMBER>
936694-12-1

>  <UNII>
7Q29OXD98N

>  <SYNONYMS>
Glesatinib

$$$$
