DEB
 OpenBabel10282417072D

 65 65  0  0  0  0  0  0  0  0999 V2000
    1.4084    0.8918    0.0000 C   0  0  0  0  0  0  0  0  0  0  0  0
    2.0029    0.3197    0.0000 C   0  0  1  0  0  0  0  0  0  0  0  0
    1.8047   -0.4811    0.0000 C   0  0  2  0  0  0  0  0  0  0  0  0
    1.0121   -0.7099    0.0000 C   0  0  1  0  0  0  0  0  0  0  0  0
    0.8139   -1.5108    0.0000 C   0  0  2  0  0  0  0  0  0  0  0  0
    0.0213   -1.7396    0.0000 C   0  0  2  0  0  0  0  0  0  0  0  0
   -0.5732   -1.1676    0.0000 C   0  0  0  0  0  0  0  0  0  0  0  0
   -1.3658   -1.3964    0.0000 C   0  0  2  0  0  0  0  0  0  0  0  0
   -1.9603   -0.8243    0.0000 C   0  0  0  0  0  0  0  0  0  0  0  0
   -1.7621   -0.0235    0.0000 C   0  0  1  0  0  0  0  0  0  0  0  0
   -0.9695    0.2053    0.0000 C   0  0  2  0  0  0  0  0  0  0  0  0
   -0.7713    1.0062    0.0000 C   0  0  2  0  0  0  0  0  0  0  0  0
    0.0213    1.2350    0.0000 C   0  0  1  0  0  0  0  0  0  0  0  0
    0.2195    2.0358    0.0000 C   0  0  0  0  0  0  0  0  0  0  0  0
    1.0121    2.2646    0.0000 C   0  0  0  0  0  0  0  0  0  0  0  0
    0.6158    0.6630    0.0000 O   0  0  0  0  0  0  0  0  0  0  0  0
    1.6066    1.6926    0.0000 O   0  0  0  0  0  0  0  0  0  0  0  0
    2.7955    0.5485    0.0000 C   0  0  0  0  0  0  0  0  0  0  0  0
    2.3992   -1.0532    0.0000 O   0  0  0  0  0  0  0  0  0  0  0  0
    0.4176   -0.1379    0.0000 C   0  0  0  0  0  0  0  0  0  0  0  0
    1.4084   -2.0828    0.0000 O   0  0  0  0  0  0  0  0  0  0  0  0
   -0.1769   -2.5404    0.0000 C   0  0  0  0  0  0  0  0  0  0  0  0
   -1.5640   -2.1972    0.0000 C   0  0  0  0  0  0  0  0  0  0  0  0
   -2.7529   -1.0532    0.0000 O   0  0  0  0  0  0  0  0  0  0  0  0
   -2.3566    0.5485    0.0000 C   0  0  0  0  0  0  0  0  0  0  0  0
   -0.3750   -0.3667    0.0000 O   0  0  0  0  0  0  0  0  0  0  0  0
   -1.3658    1.5782    0.0000 C   0  0  0  0  0  0  0  0  0  0  0  0
    2.1431    0.8866    0.0000 H   0  0  0  0  0  0  0  0  0  0  0  0
    2.3657   -0.3192    0.0000 H   0  0  0  0  0  0  0  0  0  0  0  0
    1.1523   -0.1431    0.0000 H   0  0  0  0  0  0  0  0  0  0  0  0
    1.3749   -1.3488    0.0000 H   0  0  0  0  0  0  0  0  0  0  0  0
    0.4421   -2.1445    0.0000 H   0  0  0  0  0  0  0  0  0  0  0  0
   -0.9451   -1.8013    0.0000 H   0  0  0  0  0  0  0  0  0  0  0  0
   -2.3232   -0.1854    0.0000 H   0  0  0  0  0  0  0  0  0  0  0  0
   -1.1098   -0.3615    0.0000 H   0  0  0  0  0  0  0  0  0  0  0  0
   -1.3324    0.8442    0.0000 H   0  0  0  0  0  0  0  0  0  0  0  0
   -0.3995    1.6399    0.0000 H   0  0  0  0  0  0  0  0  0  0  0  0
   -0.3162   -0.1289    0.0000 H   0  0  0  0  0  0  0  0  0  0  0  0
   -1.3442   -0.4257    0.0000 H   0  0  0  0  0  0  0  0  0  0  0  0
   -0.5515    2.7777    0.0000 H   0  0  0  0  0  0  0  0  0  0  0  0
    0.4765    3.0745    0.0000 H   0  0  0  0  0  0  0  0  0  0  0  0
    1.7831    1.5227    0.0000 H   0  0  0  0  0  0  0  0  0  0  0  0
    1.2691    3.3033    0.0000 H   0  0  0  0  0  0  0  0  0  0  0  0
    2.0401    2.5614    0.0000 H   0  0  0  0  0  0  0  0  0  0  0  0
    3.5665   -0.1934    0.0000 H   0  0  0  0  0  0  0  0  0  0  0  0
    3.0525    1.5872    0.0000 H   0  0  0  0  0  0  0  0  0  0  0  0
    3.8235    0.8453    0.0000 H   0  0  0  0  0  0  0  0  0  0  0  0
    2.1662   -1.9948    0.0000 H   0  0  0  0  0  0  0  0  0  0  0  0
    0.6746    0.9008    0.0000 H   0  0  0  0  0  0  0  0  0  0  0  0
   -0.6104   -0.4347    0.0000 H   0  0  0  0  0  0  0  0  0  0  0  0
   -0.3535    0.6040    0.0000 H   0  0  0  0  0  0  0  0  0  0  0  0
    1.1755   -3.0244    0.0000 H   0  0  0  0  0  0  0  0  0  0  0  0
   -1.2049   -2.8371    0.0000 H   0  0  0  0  0  0  0  0  0  0  0  0
    0.5941   -3.2824    0.0000 H   0  0  0  0  0  0  0  0  0  0  0  0
   -0.4340   -3.5791    0.0000 H   0  0  0  0  0  0  0  0  0  0  0  0
   -2.5920   -2.4939    0.0000 H   0  0  0  0  0  0  0  0  0  0  0  0
   -0.7930   -2.9392    0.0000 H   0  0  0  0  0  0  0  0  0  0  0  0
   -1.8211   -3.2359    0.0000 H   0  0  0  0  0  0  0  0  0  0  0  0
   -2.0996    1.5872    0.0000 H   0  0  0  0  0  0  0  0  0  0  0  0
   -3.3846    0.2517    0.0000 H   0  0  0  0  0  0  0  0  0  0  0  0
   -3.1277    1.2904    0.0000 H   0  0  0  0  0  0  0  0  0  0  0  0
   -0.6079   -1.3083    0.0000 H   0  0  0  0  0  0  0  0  0  0  0  0
   -1.1088    2.6169    0.0000 H   0  0  0  0  0  0  0  0  0  0  0  0
   -2.3938    1.2814    0.0000 H   0  0  0  0  0  0  0  0  0  0  0  0
   -2.1369    2.3201    0.0000 H   0  0  0  0  0  0  0  0  0  0  0  0
  1  2  1  0  0  0  0
  1 16  1  0  0  0  0
  1 17  2  0  0  0  0
  2  3  1  0  0  0  0
  2 18  1  0  0  0  0
  2 28  1  1  0  0  0
  3  4  1  0  0  0  0
  3 19  1  0  0  0  0
  3 29  1  6  0  0  0
  4  5  1  0  0  0  0
  4 20  1  0  0  0  0
  4 30  1  6  0  0  0
  5  6  1  0  0  0  0
  5 21  1  0  0  0  0
  5 31  1  6  0  0  0
  6  7  1  0  0  0  0
  6 22  1  0  0  0  0
  6 32  1  6  0  0  0
  7  8  1  0  0  0  0
  7 38  1  0  0  0  0
  7 39  1  0  0  0  0
  8  9  1  0  0  0  0
  8 23  1  0  0  0  0
  8 33  1  6  0  0  0
  9 10  1  0  0  0  0
  9 24  2  0  0  0  0
 10 11  1  0  0  0  0
 10 25  1  0  0  0  0
 10 34  1  1  0  0  0
 11 12  1  0  0  0  0
 11 26  1  0  0  0  0
 11 35  1  1  0  0  0
 12 13  1  0  0  0  0
 12 27  1  0  0  0  0
 12 36  1  6  0  0  0
 13 14  1  0  0  0  0
 13 16  1  0  0  0  0
 13 37  1  6  0  0  0
 14 15  1  0  0  0  0
 14 40  1  0  0  0  0
 14 41  1  0  0  0  0
 15 42  1  0  0  0  0
 15 43  1  0  0  0  0
 15 44  1  0  0  0  0
 18 45  1  0  0  0  0
 18 46  1  0  0  0  0
 18 47  1  0  0  0  0
 19 48  1  0  0  0  0
 20 49  1  0  0  0  0
 20 50  1  0  0  0  0
 20 51  1  0  0  0  0
 21 52  1  0  0  0  0
 22 53  1  0  0  0  0
 22 54  1  0  0  0  0
 22 55  1  0  0  0  0
 23 56  1  0  0  0  0
 23 57  1  0  0  0  0
 23 58  1  0  0  0  0
 25 59  1  0  0  0  0
 25 60  1  0  0  0  0
 25 61  1  0  0  0  0
 26 62  1  0  0  0  0
 27 63  1  0  0  0  0
 27 64  1  0  0  0  0
 27 65  1  0  0  0  0
M  END
>  <DRUGBANK_ID>
DB04070

>  <SECONDARY_ACCESSION_NUMBERS>
EXPT01153

>  <COMMON_NAME>
6-Deoxyerythronolide B

$$$$
