1712095
 OpenBabel10282417072D

 60 62  0  0  0  0  0  0  0  0999 V2000
    3.0788    2.4932    0.0000 O   0  0  0  0  0  0  0  0  0  0  0  0
    3.0788    0.8432    0.0000 O   0  0  0  0  0  0  0  0  0  0  0  0
    7.3502   -2.5015    0.0000 O   0  0  0  0  0  0  0  0  0  0  0  0
    8.7885   -1.6932    0.0000 O   0  0  0  0  0  0  0  0  0  0  0  0
    6.7071    1.2385    0.0000 N   0  0  0  0  0  0  0  0  0  0  0  0
    5.9596    2.5217    0.0000 C   0  0  0  0  0  0  0  0  0  0  0  0
    5.2221    2.0808    0.0000 C   0  0  0  0  0  0  0  0  0  0  0  0
    5.2221    1.2557    0.0000 C   0  0  0  0  0  0  0  0  0  0  0  0
    6.7071    2.0979    0.0000 C   0  0  0  0  0  0  0  0  0  0  0  0
    5.9596    0.8146    0.0000 C   0  0  0  0  0  0  0  0  0  0  0  0
    4.5077    2.4932    0.0000 C   0  0  0  0  0  0  0  0  0  0  0  0
    4.5077    0.8432    0.0000 C   0  0  0  0  0  0  0  0  0  0  0  0
    3.7933    2.0808    0.0000 C   0  0  0  0  0  0  0  0  0  0  0  0
    3.7933    1.2557    0.0000 C   0  0  0  0  0  0  0  0  0  0  0  0
    5.9500   -0.0102    0.0000 C   0  0  0  0  0  0  0  0  0  0  0  0
    6.6597   -0.4310    0.0000 C   0  0  0  0  0  0  0  0  0  0  0  0
    6.6502   -1.2559    0.0000 C   0  0  0  0  0  0  0  0  0  0  0  0
    7.3788   -0.0268    0.0000 C   0  0  0  0  0  0  0  0  0  0  0  0
    7.3597   -1.6766    0.0000 C   0  0  0  0  0  0  0  0  0  0  0  0
    3.0788    3.3182    0.0000 C   0  0  0  0  0  0  0  0  0  0  0  0
    2.3644    1.2557    0.0000 C   0  0  0  0  0  0  0  0  0  0  0  0
    8.0790   -1.2724    0.0000 C   0  0  0  0  0  0  0  0  0  0  0  0
    8.0885   -0.4475    0.0000 C   0  0  0  0  0  0  0  0  0  0  0  0
    2.3644    3.7307    0.0000 C   0  0  0  0  0  0  0  0  0  0  0  0
    1.6499    0.8432    0.0000 C   0  0  0  0  0  0  0  0  0  0  0  0
    6.6311   -2.9057    0.0000 C   0  0  0  0  0  0  0  0  0  0  0  0
    9.5077   -1.2889    0.0000 C   0  0  0  0  0  0  0  0  0  0  0  0
    6.6215   -3.7307    0.0000 C   0  0  0  0  0  0  0  0  0  0  0  0
   10.2174   -1.7097    0.0000 C   0  0  0  0  0  0  0  0  0  0  0  0
    7.5578    0.7430    0.0000 H   0  0  0  0  0  0  0  0  0  0  0  0
    5.9473    3.5916    0.0000 H   0  0  0  0  0  0  0  0  0  0  0  0
    6.8810    3.0656    0.0000 H   0  0  0  0  0  0  0  0  0  0  0  0
    7.6316    2.6365    0.0000 H   0  0  0  0  0  0  0  0  0  0  0  0
    6.7008    3.1679    0.0000 H   0  0  0  0  0  0  0  0  0  0  0  0
    4.5077    3.5252    0.0000 H   0  0  0  0  0  0  0  0  0  0  0  0
    4.5077   -0.1888    0.0000 H   0  0  0  0  0  0  0  0  0  0  0  0
    5.0503   -0.5158    0.0000 H   0  0  0  0  0  0  0  0  0  0  0  0
    5.7506   -1.7615    0.0000 H   0  0  0  0  0  0  0  0  0  0  0  0
    7.3907    1.0051    0.0000 H   0  0  0  0  0  0  0  0  0  0  0  0
    4.0055    3.8532    0.0000 H   0  0  0  0  0  0  0  0  0  0  0  0
    3.0788    4.3882    0.0000 H   0  0  0  0  0  0  0  0  0  0  0  0
    2.3644    2.3257    0.0000 H   0  0  0  0  0  0  0  0  0  0  0  0
    1.4378    1.7907    0.0000 H   0  0  0  0  0  0  0  0  0  0  0  0
    8.9881    0.0582    0.0000 H   0  0  0  0  0  0  0  0  0  0  0  0
    2.3644    4.8007    0.0000 H   0  0  0  0  0  0  0  0  0  0  0  0
    1.4377    3.1957    0.0000 H   0  0  0  0  0  0  0  0  0  0  0  0
    1.4378    4.2657    0.0000 H   0  0  0  0  0  0  0  0  0  0  0  0
    0.7233    1.3782    0.0000 H   0  0  0  0  0  0  0  0  0  0  0  0
    1.6499   -0.2268    0.0000 H   0  0  0  0  0  0  0  0  0  0  0  0
    0.7232    0.3082    0.0000 H   0  0  0  0  0  0  0  0  0  0  0  0
    5.7107   -2.3600    0.0000 H   0  0  0  0  0  0  0  0  0  0  0  0
    5.6983   -3.4299    0.0000 H   0  0  0  0  0  0  0  0  0  0  0  0
    9.5200   -0.2190    0.0000 H   0  0  0  0  0  0  0  0  0  0  0  0
   10.4405   -0.7647    0.0000 H   0  0  0  0  0  0  0  0  0  0  0  0
    5.6887   -4.2549    0.0000 H   0  0  0  0  0  0  0  0  0  0  0  0
    7.5419   -4.2764    0.0000 H   0  0  0  0  0  0  0  0  0  0  0  0
    6.6090   -4.8006    0.0000 H   0  0  0  0  0  0  0  0  0  0  0  0
   10.2050   -2.7796    0.0000 H   0  0  0  0  0  0  0  0  0  0  0  0
   11.1502   -1.1855    0.0000 H   0  0  0  0  0  0  0  0  0  0  0  0
   11.1378   -2.2554    0.0000 H   0  0  0  0  0  0  0  0  0  0  0  0
  1 13  1  0  0  0  0
  1 20  1  0  0  0  0
  2 14  1  0  0  0  0
  2 21  1  0  0  0  0
  3 19  1  0  0  0  0
  3 26  1  0  0  0  0
  4 22  1  0  0  0  0
  4 27  1  0  0  0  0
  5  9  1  0  0  0  0
  5 10  1  0  0  0  0
  5 30  1  0  0  0  0
  6  7  1  0  0  0  0
  6  9  1  0  0  0  0
  6 31  1  0  0  0  0
  6 32  1  0  0  0  0
  7  8  1  0  0  0  0
  7 11  2  0  0  0  0
  8 10  1  0  0  0  0
  8 12  2  0  0  0  0
  9 33  1  0  0  0  0
  9 34  1  0  0  0  0
 10 15  2  0  0  0  0
 11 13  1  0  0  0  0
 11 35  1  0  0  0  0
 12 14  1  0  0  0  0
 12 36  1  0  0  0  0
 13 14  2  0  0  0  0
 15 16  1  0  0  0  0
 15 37  1  0  0  0  0
 16 17  2  0  0  0  0
 16 18  1  0  0  0  0
 17 19  1  0  0  0  0
 17 38  1  0  0  0  0
 18 23  2  0  0  0  0
 18 39  1  0  0  0  0
 19 22  2  0  0  0  0
 20 24  1  0  0  0  0
 20 40  1  0  0  0  0
 20 41  1  0  0  0  0
 21 25  1  0  0  0  0
 21 42  1  0  0  0  0
 21 43  1  0  0  0  0
 22 23  1  0  0  0  0
 23 44  1  0  0  0  0
 24 45  1  0  0  0  0
 24 46  1  0  0  0  0
 24 47  1  0  0  0  0
 25 48  1  0  0  0  0
 25 49  1  0  0  0  0
 25 50  1  0  0  0  0
 26 28  1  0  0  0  0
 26 51  1  0  0  0  0
 26 52  1  0  0  0  0
 27 29  1  0  0  0  0
 27 53  1  0  0  0  0
 27 54  1  0  0  0  0
 28 55  1  0  0  0  0
 28 56  1  0  0  0  0
 28 57  1  0  0  0  0
 29 58  1  0  0  0  0
 29 59  1  0  0  0  0
 29 60  1  0  0  0  0
M  END
>  <DRUGBANK_ID>
DB06751

>  <COMMON_NAME>
Drotaverine

>  <CAS_NUMBER>
14009-24-6

>  <UNII>
98QS4N58TW

>  <SYNONYMS>
Drotaverin; Drotaverina; Drotaverine; Drotaverinum

$$$$
