
 OpenBabel10282417072D

 25 26  0  0  0  0  0  0  0  0999 V2000
   -0.3375    0.8240    0.0000 O   0  0  0  0  0  0  0  0  0  0  0  0
    1.0821    0.8191    0.0000 O   0  0  0  0  0  0  0  0  0  0  0  0
    1.7821    0.4120    0.0000 O   0  0  0  0  0  0  0  0  0  0  0  0
    0.3772   -0.4121    0.0000 N   0  0  0  0  0  0  0  0  0  0  0  0
    2.4820   -0.8191    0.0000 N   0  0  0  0  0  0  0  0  0  0  0  0
   -1.0523   -0.4121    0.0000 C   0  0  0  0  0  0  0  0  0  0  0  0
   -1.0523    0.4120    0.0000 C   0  0  0  0  0  0  0  0  0  0  0  0
    0.3772    0.4120    0.0000 C   0  0  0  0  0  0  0  0  0  0  0  0
   -0.3375   -0.8240    0.0000 C   0  0  0  0  0  0  0  0  0  0  0  0
    1.0821   -0.8191    0.0000 C   0  0  0  0  0  0  0  0  0  0  0  0
   -1.7672   -0.8240    0.0000 C   0  0  0  0  0  0  0  0  0  0  0  0
   -1.7672    0.8240    0.0000 C   0  0  0  0  0  0  0  0  0  0  0  0
    1.7821   -0.4170    0.0000 C   0  0  0  0  0  0  0  0  0  0  0  0
   -2.4820   -0.4121    0.0000 C   0  0  0  0  0  0  0  0  0  0  0  0
   -2.4820    0.4120    0.0000 C   0  0  0  0  0  0  0  0  0  0  0  0
    2.4841   -1.8036    0.0000 H   0  0  0  0  0  0  0  0  0  0  0  0
    3.3336   -0.3250    0.0000 H   0  0  0  0  0  0  0  0  0  0  0  0
   -0.3375   -1.8940    0.0000 H   0  0  0  0  0  0  0  0  0  0  0  0
   -1.2639   -1.3594    0.0000 H   0  0  0  0  0  0  0  0  0  0  0  0
    1.0809   -1.8891    0.0000 H   0  0  0  0  0  0  0  0  0  0  0  0
    2.0079   -1.3556    0.0000 H   0  0  0  0  0  0  0  0  0  0  0  0
   -1.7672   -1.8560    0.0000 H   0  0  0  0  0  0  0  0  0  0  0  0
   -1.7672    1.8560    0.0000 H   0  0  0  0  0  0  0  0  0  0  0  0
   -3.3755   -0.9285    0.0000 H   0  0  0  0  0  0  0  0  0  0  0  0
   -3.3756    0.9283    0.0000 H   0  0  0  0  0  0  0  0  0  0  0  0
  1  7  1  0  0  0  0
  1  8  1  0  0  0  0
  2  8  2  0  0  0  0
  3 13  2  0  0  0  0
  4  8  1  0  0  0  0
  4  9  1  0  0  0  0
  4 10  1  0  0  0  0
  5 13  1  0  0  0  0
  5 16  1  0  0  0  0
  5 17  1  0  0  0  0
  6  7  1  0  0  0  0
  6  9  1  0  0  0  0
  6 11  2  0  0  0  0
  7 12  2  0  0  0  0
  9 18  1  0  0  0  0
  9 19  1  0  0  0  0
 10 13  1  0  0  0  0
 10 20  1  0  0  0  0
 10 21  1  0  0  0  0
 11 14  1  0  0  0  0
 11 22  1  0  0  0  0
 12 15  1  0  0  0  0
 12 23  1  0  0  0  0
 14 15  2  0  0  0  0
 14 24  1  0  0  0  0
 15 25  1  0  0  0  0
M  END
>  <DRUGBANK_ID>
DB09254

>  <COMMON_NAME>
Caroxazone

>  <CAS_NUMBER>
18464-39-6

>  <UNII>
807N226MNL

>  <SYNONYMS>
Caroxazone

$$$$
