
 OpenBabel10282417072D

 34 36  0  0  0  0  0  0  0  0999 V2000
   -1.7861    0.8250    0.0000 C   0  0  0  0  0  0  0  0  0  0  0  0
   -1.7861    1.6500    0.0000 C   0  0  0  0  0  0  0  0  0  0  0  0
   -1.0717    0.4125    0.0000 C   0  0  0  0  0  0  0  0  0  0  0  0
   -1.0717    2.0625    0.0000 C   0  0  0  0  0  0  0  0  0  0  0  0
   -0.3572   -0.8250    0.0000 C   0  0  0  0  0  0  0  0  0  0  0  0
    1.0717    0.8250    0.0000 C   0  0  0  0  0  0  0  0  0  0  0  0
   -0.3572   -1.6500    0.0000 C   0  0  0  0  0  0  0  0  0  0  0  0
    1.0717    1.6500    0.0000 C   0  0  0  0  0  0  0  0  0  0  0  0
    1.0717   -0.8250    0.0000 C   0  0  0  0  0  0  0  0  0  0  0  0
    0.3572   -0.4125    0.0000 C   0  0  0  0  0  0  0  0  0  0  0  0
    0.3572    0.4125    0.0000 C   0  0  1  0  0  0  0  0  0  0  0  0
   -0.3572    0.8250    0.0000 C   0  0  0  0  0  0  0  0  0  0  0  0
   -0.3572    1.6500    0.0000 C   0  0  0  0  0  0  0  0  0  0  0  0
    0.3572   -2.0625    0.0000 C   0  0  0  0  0  0  0  0  0  0  0  0
    1.0717   -1.6500    0.0000 C   0  0  0  0  0  0  0  0  0  0  0  0
    0.3572    2.0625    0.0000 C   0  0  1  0  0  0  0  0  0  0  0  0
    0.3572   -2.8875    0.0000 Cl  0  0  0  0  0  0  0  0  0  0  0  0
    1.7861   -2.0625    0.0000 Cl  0  0  0  0  0  0  0  0  0  0  0  0
    0.3572    2.8875    0.0000 N   0  0  0  0  0  0  0  0  0  0  0  0
   -0.3572    0.0000    0.0000 H   0  0  0  0  0  0  0  0  0  0  0  0
    1.0717    2.4750    0.0000 H   0  0  0  0  0  0  0  0  0  0  0  0
   -2.6798    0.3090    0.0000 H   0  0  0  0  0  0  0  0  0  0  0  0
   -2.6798    2.1660    0.0000 H   0  0  0  0  0  0  0  0  0  0  0  0
   -1.0717   -0.6195    0.0000 H   0  0  0  0  0  0  0  0  0  0  0  0
   -1.0717    3.0945    0.0000 H   0  0  0  0  0  0  0  0  0  0  0  0
   -1.2509   -0.3090    0.0000 H   0  0  0  0  0  0  0  0  0  0  0  0
    1.9983    0.2900    0.0000 H   0  0  0  0  0  0  0  0  0  0  0  0
    1.0717   -0.2450    0.0000 H   0  0  0  0  0  0  0  0  0  0  0  0
   -1.2509   -2.1660    0.0000 H   0  0  0  0  0  0  0  0  0  0  0  0
    1.9983    2.1850    0.0000 H   0  0  0  0  0  0  0  0  0  0  0  0
    1.0717    2.7200    0.0000 H   0  0  0  0  0  0  0  0  0  0  0  0
    1.9654   -0.3090    0.0000 H   0  0  0  0  0  0  0  0  0  0  0  0
    1.2405    3.3975    0.0000 H   0  0  0  0  0  0  0  0  0  0  0  0
   -0.5261    3.3975    0.0000 H   0  0  0  0  0  0  0  0  0  0  0  0
  1 22  1  0  0  0  0
  2  1  2  0  0  0  0
  2 23  1  0  0  0  0
  3  1  1  0  0  0  0
  3 24  1  0  0  0  0
  4  2  1  0  0  0  0
  4 25  1  0  0  0  0
  5 26  1  0  0  0  0
  6 27  1  0  0  0  0
  6 28  1  0  0  0  0
  7  5  2  0  0  0  0
  7 29  1  0  0  0  0
  8  6  1  0  0  0  0
  8 30  1  0  0  0  0
  8 31  1  0  0  0  0
  9 32  1  0  0  0  0
 10  5  1  0  0  0  0
 10  9  2  0  0  0  0
 11  6  1  0  0  0  0
 11 10  1  0  0  0  0
 11 12  1  0  0  0  0
 11 20  1  6  0  0  0
 12  3  2  0  0  0  0
 13  4  2  0  0  0  0
 13 12  1  0  0  0  0
 14  7  1  0  0  0  0
 15  9  1  0  0  0  0
 15 14  2  0  0  0  0
 16  8  1  0  0  0  0
 16 13  1  0  0  0  0
 16 19  1  0  0  0  0
 16 21  1  6  0  0  0
 17 14  1  0  0  0  0
 18 15  1  0  0  0  0
 19 33  1  0  0  0  0
 19 34  1  0  0  0  0
M  END
>  <DRUGBANK_ID>
DB14071

>  <COMMON_NAME>
Desmethylsertraline

>  <CAS_NUMBER>
87857-41-8

>  <UNII>
CJJ71O9BE8

>  <SYNONYMS>
Demethylsertraline; N-Demethylsertraline; N-Desmethylsertraline; Norsertraline

$$$$
