
 OpenBabel10282417072D

 34 34  0  0  1  0  0  0  0  0999 V2000
   19.0837  -11.5890    0.0000 O   0  0  0  0  0  0  0  0  0  0  0  0
   18.3137  -11.8325    0.0000 C   0  0  2  0  0  0  0  0  0  0  0  0
   17.6396  -11.3309    0.0000 O   0  0  0  0  0  0  0  0  0  0  0  0
   18.0591  -12.5752    0.0000 C   0  0  1  0  0  0  0  0  0  0  0  0
   16.9871  -11.7982    0.0000 C   0  0  1  0  0  0  0  0  0  0  0  0
   17.2410  -12.5752    0.0000 C   0  0  1  0  0  0  0  0  0  0  0  0
   18.3035  -13.3657    0.0000 O   0  0  0  0  0  0  0  0  0  0  0  0
   16.2170  -11.5580    0.0000 C   0  0  0  0  0  0  0  0  0  0  0  0
   16.9768  -13.3624    0.0000 O   0  0  0  0  0  0  0  0  0  0  0  0
   15.5567  -12.0529    0.0000 S   0  0  0  0  0  0  0  0  0  0  0  0
   14.8389  -11.6369    0.0000 C   0  0  0  0  0  0  0  0  0  0  0  0
   14.1203  -12.0495    0.0000 C   0  0  0  0  0  0  0  0  0  0  0  0
   13.4051  -11.6369    0.0000 C   0  0  1  0  0  0  0  0  0  0  0  0
   12.6866  -12.0495    0.0000 C   0  0  0  0  0  0  0  0  0  0  0  0
   13.4051  -10.8052    0.0000 N   0  0  0  0  0  0  0  0  0  0  0  0
   11.9723  -11.6369    0.0000 O   0  0  0  0  0  0  0  0  0  0  0  0
   12.6866  -12.8778    0.0000 O   0  0  0  0  0  0  0  0  0  0  0  0
   19.7994  -12.2437    0.0000 H   0  0  0  0  0  0  0  0  0  0  0  0
   18.4913  -10.7773    0.0000 H   0  0  0  0  0  0  0  0  0  0  0  0
   19.1290  -12.5915    0.0000 H   0  0  0  0  0  0  0  0  0  0  0  0
   16.8171  -10.7418    0.0000 H   0  0  0  0  0  0  0  0  0  0  0  0
   17.8657  -13.4439    0.0000 H   0  0  0  0  0  0  0  0  0  0  0  0
   17.6442  -14.0772    0.0000 H   0  0  0  0  0  0  0  0  0  0  0  0
   16.0355  -10.5035    0.0000 H   0  0  0  0  0  0  0  0  0  0  0  0
   15.2228  -11.1625    0.0000 H   0  0  0  0  0  0  0  0  0  0  0  0
   16.0261  -13.5549    0.0000 H   0  0  0  0  0  0  0  0  0  0  0  0
   14.8411  -10.5669    0.0000 H   0  0  0  0  0  0  0  0  0  0  0  0
   13.9134  -11.0999    0.0000 H   0  0  0  0  0  0  0  0  0  0  0  0
   14.1192  -13.1195    0.0000 H   0  0  0  0  0  0  0  0  0  0  0  0
   13.1935  -12.5842    0.0000 H   0  0  0  0  0  0  0  0  0  0  0  0
   14.3317  -11.1017    0.0000 H   0  0  0  0  0  0  0  0  0  0  0  0
   14.2884  -10.2952    0.0000 H   0  0  0  0  0  0  0  0  0  0  0  0
   12.5218  -10.2952    0.0000 H   0  0  0  0  0  0  0  0  0  0  0  0
   11.9725  -10.6999    0.0000 H   0  0  0  0  0  0  0  0  0  0  0  0
  1 18  1  0  0  0  0
  2  1  1  0  0  0  0
  2  3  1  0  0  0  0
  2  4  1  0  0  0  0
  2 19  1  6  0  0  0
  3  5  1  0  0  0  0
  4  6  1  0  0  0  0
  4  7  1  0  0  0  0
  4 20  1  1  0  0  0
  5  8  1  0  0  0  0
  5  6  1  0  0  0  0
  5 21  1  6  0  0  0
  6  9  1  0  0  0  0
  6 22  1  1  0  0  0
  7 23  1  0  0  0  0
  8 10  1  0  0  0  0
  8 24  1  0  0  0  0
  8 25  1  0  0  0  0
  9 26  1  0  0  0  0
 10 11  1  0  0  0  0
 11 12  1  0  0  0  0
 11 27  1  0  0  0  0
 11 28  1  0  0  0  0
 12 13  1  0  0  0  0
 12 29  1  0  0  0  0
 12 30  1  0  0  0  0
 13 14  1  0  0  0  0
 13 15  1  0  0  0  0
 13 31  1  6  0  0  0
 14 16  1  0  0  0  0
 14 17  2  0  0  0  0
 15 32  1  0  0  0  0
 15 33  1  0  0  0  0
 16 34  1  0  0  0  0
M  END
>  <DRUGBANK_ID>
DB02321

>  <SECONDARY_ACCESSION_NUMBERS>
EXPT02779

>  <COMMON_NAME>
5-(3-Amino-4,4-Dihyroxy-Butylsulfanylmethyl)-Tetrahydro-Furan-2,3,4-Triol

$$$$
