3B3
 OpenBabel10282417072D

 33 34  0  0  0  0  0  0  0  0999 V2000
   -0.8682    1.5327    0.0000 C   0  0  0  0  0  0  0  0  0  0  0  0
   -0.1538    1.9452    0.0000 C   0  0  0  0  0  0  0  0  0  0  0  0
    0.5607    1.5327    0.0000 C   0  0  0  0  0  0  0  0  0  0  0  0
    0.5607    0.7077    0.0000 N   0  0  0  0  0  0  0  0  0  0  0  0
   -0.1538    0.2952    0.0000 C   0  0  0  0  0  0  0  0  0  0  0  0
   -0.1538   -0.5298    0.0000 C   0  0  0  0  0  0  0  0  0  0  0  0
    0.5607   -0.9423    0.0000 N   0  0  0  0  0  0  0  0  0  0  0  0
    1.2752   -0.5298    0.0000 C   0  0  0  0  0  0  0  0  0  0  0  0
   -0.8682   -0.9423    0.0000 C   0  0  0  0  0  0  0  0  0  0  0  0
   -1.5827   -0.5298    0.0000 C   0  0  0  0  0  0  0  0  0  0  0  0
   -1.5827    0.2952    0.0000 C   0  0  0  0  0  0  0  0  0  0  0  0
   -0.8682    0.7077    0.0000 C   0  0  0  0  0  0  0  0  0  0  0  0
    1.9897   -0.9423    0.0000 C   0  0  2  0  0  0  0  0  0  0  0  0
    2.7041   -0.5298    0.0000 C   0  0  0  0  0  0  0  0  0  0  0  0
    3.4186   -0.9423    0.0000 N   0  0  0  0  0  0  0  0  0  0  0  0
   -3.0116    0.2952    0.0000 O   0  0  0  0  0  0  0  0  0  0  0  0
   -2.2972    1.5327    0.0000 O   0  5  0  0  0  0  0  0  0  0  0  0
   -2.2972    0.7077    0.0000 N   0  3  0  0  0  0  0  0  0  0  0  0
    1.9897   -1.7673    0.0000 O   0  0  0  0  0  0  0  0  0  0  0  0
    1.9897   -0.3584    0.0000 H   0  0  0  0  0  0  0  0  0  0  0  0
   -1.7619    2.0487    0.0000 H   0  0  0  0  0  0  0  0  0  0  0  0
   -0.1538    2.9772    0.0000 H   0  0  0  0  0  0  0  0  0  0  0  0
    1.4544    2.0487    0.0000 H   0  0  0  0  0  0  0  0  0  0  0  0
    0.5607   -1.9268    0.0000 H   0  0  0  0  0  0  0  0  0  0  0  0
    1.2752    0.5402    0.0000 H   0  0  0  0  0  0  0  0  0  0  0  0
    2.2018    0.0052    0.0000 H   0  0  0  0  0  0  0  0  0  0  0  0
   -0.8682   -1.9743    0.0000 H   0  0  0  0  0  0  0  0  0  0  0  0
   -2.4764   -1.0458    0.0000 H   0  0  0  0  0  0  0  0  0  0  0  0
    2.7041    0.5402    0.0000 H   0  0  0  0  0  0  0  0  0  0  0  0
    3.6307    0.0052    0.0000 H   0  0  0  0  0  0  0  0  0  0  0  0
    3.4186   -1.9623    0.0000 H   0  0  0  0  0  0  0  0  0  0  0  0
    4.3019   -0.4323    0.0000 H   0  0  0  0  0  0  0  0  0  0  0  0
    1.1497   -2.2523    0.0000 H   0  0  0  0  0  0  0  0  0  0  0  0
  1  2  2  0  0  0  0
  1 12  1  0  0  0  0
  1 21  1  0  0  0  0
  2  3  1  0  0  0  0
  2 22  1  0  0  0  0
  3  4  2  0  0  0  0
  3 23  1  0  0  0  0
  4  5  1  0  0  0  0
  5  6  2  0  0  0  0
  5 12  1  0  0  0  0
  6  7  1  0  0  0  0
  6  9  1  0  0  0  0
  7  8  1  0  0  0  0
  7 24  1  0  0  0  0
  8 13  1  0  0  0  0
  8 25  1  0  0  0  0
  8 26  1  0  0  0  0
  9 10  2  0  0  0  0
  9 27  1  0  0  0  0
 10 11  1  0  0  0  0
 10 28  1  0  0  0  0
 11 12  2  0  0  0  0
 11 18  1  0  0  0  0
 13 14  1  0  0  0  0
 13 19  1  0  0  0  0
 13 20  1  1  0  0  0
 14 15  1  0  0  0  0
 14 29  1  0  0  0  0
 14 30  1  0  0  0  0
 15 31  1  0  0  0  0
 15 32  1  0  0  0  0
 16 18  2  0  0  0  0
 17 18  1  0  0  0  0
 19 33  1  0  0  0  0
M  CHG  2  17  -1  18   1
M  END
>  <DRUGBANK_ID>
DB07037

>  <COMMON_NAME>
(2S)-1-AMINO-3-[(5-NITROQUINOLIN-8-YL)AMINO]PROPAN-2-OL

$$$$
