
 OpenBabel10282417072D

 36 36  0  0  0  0  0  0  0  0999 V2000
   -0.0771   -2.4908    0.0000 C   0  0  0  0  0  0  0  0  0  0  0  0
   -0.3465    1.1694    0.0000 O   0  0  0  0  0  0  0  0  0  0  0  0
    0.2247    0.8398    0.0000 C   0  0  0  0  0  0  0  0  0  0  0  0
    0.9390    1.2527    0.0000 O   0  0  0  0  0  0  0  0  0  0  0  0
    0.9390    2.0778    0.0000 C   0  0  0  0  0  0  0  0  0  0  0  0
    1.6533    2.4908    0.0000 C   0  0  0  0  0  0  0  0  0  0  0  0
    1.6667    1.6561    0.0000 C   0  0  0  0  0  0  0  0  0  0  0  0
    0.2244    2.4900    0.0000 C   0  0  0  0  0  0  0  0  0  0  0  0
    0.2248    0.0147    0.0000 N   0  0  0  0  0  0  0  0  0  0  0  0
   -0.4894   -0.3982    0.0000 C   0  0  1  0  0  0  0  0  0  0  0  0
   -1.2040    0.0140    0.0000 C   0  0  0  0  0  0  0  0  0  0  0  0
   -1.6665   -0.7007    0.0000 C   0  0  0  0  0  0  0  0  0  0  0  0
   -1.6667    0.7285    0.0000 C   0  0  0  0  0  0  0  0  0  0  0  0
   -0.4894   -1.2218    0.0000 C   0  0  0  0  0  0  0  0  0  0  0  0
    0.1776   -1.7065    0.0000 O   0  0  0  0  0  0  0  0  0  0  0  0
   -0.9017   -2.4908    0.0000 N   0  0  0  0  0  0  0  0  0  0  0  0
   -1.1564   -1.7065    0.0000 N   0  0  0  0  0  0  0  0  0  0  0  0
    0.7010   -0.2600    0.0000 H   0  0  0  0  0  0  0  0  0  0  0  0
   -0.4897    0.1514    0.0000 H   0  0  0  0  0  0  0  0  0  0  0  0
    0.5296   -3.3257    0.0000 H   0  0  0  0  0  0  0  0  0  0  0  0
    2.5803    1.9564    0.0000 H   0  0  0  0  0  0  0  0  0  0  0  0
    1.6526    3.5608    0.0000 H   0  0  0  0  0  0  0  0  0  0  0  0
    2.5796    3.0264    0.0000 H   0  0  0  0  0  0  0  0  0  0  0  0
    1.6650    0.5861    0.0000 H   0  0  0  0  0  0  0  0  0  0  0  0
    2.5942    2.1896    0.0000 H   0  0  0  0  0  0  0  0  0  0  0  0
    2.5925    1.1196    0.0000 H   0  0  0  0  0  0  0  0  0  0  0  0
    0.2240    3.5600    0.0000 H   0  0  0  0  0  0  0  0  0  0  0  0
   -0.7020    1.9546    0.0000 H   0  0  0  0  0  0  0  0  0  0  0  0
   -0.7025    3.0246    0.0000 H   0  0  0  0  0  0  0  0  0  0  0  0
   -2.2740    0.0138    0.0000 H   0  0  0  0  0  0  0  0  0  0  0  0
   -2.7351   -0.6464    0.0000 H   0  0  0  0  0  0  0  0  0  0  0  0
   -1.1792   -1.6533    0.0000 H   0  0  0  0  0  0  0  0  0  0  0  0
   -2.2478   -1.5990    0.0000 H   0  0  0  0  0  0  0  0  0  0  0  0
   -1.1797    1.6813    0.0000 H   0  0  0  0  0  0  0  0  0  0  0  0
   -2.7353    0.6739    0.0000 H   0  0  0  0  0  0  0  0  0  0  0  0
   -2.2483    1.6266    0.0000 H   0  0  0  0  0  0  0  0  0  0  0  0
  1 15  1  0  0  0  0
  1 16  2  0  0  0  0
  1 20  1  0  0  0  0
  3  2  2  0  0  0  0
  3  9  1  0  0  0  0
  3  4  1  0  0  0  0
  5  4  1  0  0  0  0
  5  6  1  0  0  0  0
  5  7  1  0  0  0  0
  5  8  1  0  0  0  0
  6 21  1  0  0  0  0
  6 22  1  0  0  0  0
  6 23  1  0  0  0  0
  7 24  1  0  0  0  0
  7 25  1  0  0  0  0
  7 26  1  0  0  0  0
  8 27  1  0  0  0  0
  8 28  1  0  0  0  0
  8 29  1  0  0  0  0
 10  9  1  0  0  0  0
 10 19  1  1  0  0  0
 11 10  1  0  0  0  0
 11 12  1  0  0  0  0
 11 13  1  0  0  0  0
 11 30  1  0  0  0  0
 12 31  1  0  0  0  0
 12 32  1  0  0  0  0
 12 33  1  0  0  0  0
 13 34  1  0  0  0  0
 13 35  1  0  0  0  0
 13 36  1  0  0  0  0
 14 10  1  0  0  0  0
 14 15  1  0  0  0  0
 14 17  2  0  0  0  0
 17 16  1  0  0  0  0
 18  9  1  0  0  0  0
M  END
>  <DRUGBANK_ID>
DB08337

>  <COMMON_NAME>
2-Methyl-2-propanyl [(1S)-2-methyl-1-(1,3,4-oxadiazol-2-yl)propyl]carbamate

$$$$
