
 OpenBabel10282417072D

 70 74  0  0  0  0  0  0  0  0999 V2000
   -4.1568   -1.7861    0.0000 N   0  0  0  0  0  0  0  0  0  0  0  0
   -4.5693   -1.0717    0.0000 C   0  0  0  0  0  0  0  0  0  0  0  0
   -3.3318   -1.7861    0.0000 C   0  0  0  0  0  0  0  0  0  0  0  0
   -2.9193   -1.0717    0.0000 C   0  0  0  0  0  0  0  0  0  0  0  0
   -2.9193   -2.5006    0.0000 C   0  0  0  0  0  0  0  0  0  0  0  0
   -2.0943   -1.0717    0.0000 N   0  0  0  0  0  0  0  0  0  0  0  0
   -3.3318   -0.3572    0.0000 C   0  0  0  0  0  0  0  0  0  0  0  0
   -4.1568   -0.3572    0.0000 C   0  0  0  0  0  0  0  0  0  0  0  0
   -1.6818   -0.3572    0.0000 C   0  0  0  0  0  0  0  0  0  0  0  0
   -0.8568   -0.3572    0.0000 C   0  0  0  0  0  0  0  0  0  0  0  0
   -0.4443    0.3572    0.0000 C   0  0  0  0  0  0  0  0  0  0  0  0
    0.3806    0.3572    0.0000 C   0  0  0  0  0  0  0  0  0  0  0  0
    0.7931   -0.3572    0.0000 C   0  0  0  0  0  0  0  0  0  0  0  0
    1.6181   -0.3572    0.0000 C   0  0  2  0  0  0  0  0  0  0  0  0
    1.2056    0.3572    0.0000 C   0  0  0  0  0  0  0  0  0  0  0  0
    1.6181    1.0717    0.0000 C   0  0  0  0  0  0  0  0  0  0  0  0
    2.4431    1.0717    0.0000 C   0  0  0  0  0  0  0  0  0  0  0  0
    2.8556    1.7861    0.0000 C   0  0  0  0  0  0  0  0  0  0  0  0
    2.4431    2.5006    0.0000 C   0  0  0  0  0  0  0  0  0  0  0  0
    1.6181    2.5006    0.0000 C   0  0  0  0  0  0  0  0  0  0  0  0
    1.2056    1.7861    0.0000 C   0  0  0  0  0  0  0  0  0  0  0  0
    2.0306    0.3572    0.0000 C   0  0  0  0  0  0  0  0  0  0  0  0
    2.8556    0.3572    0.0000 C   0  0  0  0  0  0  0  0  0  0  0  0
    3.9001    0.1730    0.0000 O   0  0  0  0  0  0  0  0  0  0  0  0
    3.2681   -0.3572    0.0000 C   0  0  1  0  0  0  0  0  0  0  0  0
    2.8556   -1.0717    0.0000 C   0  0  0  0  0  0  0  0  0  0  0  0
    2.0306   -1.0717    0.0000 C   0  0  1  0  0  0  0  0  0  0  0  0
    1.6181   -1.7861    0.0000 C   0  0  0  0  0  0  0  0  0  0  0  0
    0.7931   -1.7861    0.0000 C   0  0  0  0  0  0  0  0  0  0  0  0
    0.3806   -1.0717    0.0000 C   0  0  0  0  0  0  0  0  0  0  0  0
   -0.4443   -1.0717    0.0000 C   0  0  0  0  0  0  0  0  0  0  0  0
   -2.0943    0.3572    0.0000 O   0  0  0  0  0  0  0  0  0  0  0  0
    3.7569    0.9855    0.0000 P   0  0  0  0  0  0  0  0  0  0  0  0
    3.6136    1.7979    0.0000 O   0  0  0  0  0  0  0  0  0  0  0  0
    4.5693    1.1287    0.0000 O   0  0  0  0  0  0  0  0  0  0  0  0
    2.9444    0.8422    0.0000 O   0  0  0  0  0  0  0  0  0  0  0  0
    2.4431   -1.7861    0.0000 H   0  0  0  0  0  0  0  0  0  0  0  0
    3.9001   -0.8875    0.0000 C   0  0  0  0  0  0  0  0  0  0  0  0
    4.5321   -1.4178    0.0000 F   0  0  0  0  0  0  0  0  0  0  0  0
    3.3698   -1.5195    0.0000 F   0  0  0  0  0  0  0  0  0  0  0  0
    4.4304   -0.2555    0.0000 F   0  0  0  0  0  0  0  0  0  0  0  0
   -5.6013   -1.0717    0.0000 H   0  0  0  0  0  0  0  0  0  0  0  0
   -3.4543   -3.4272    0.0000 H   0  0  0  0  0  0  0  0  0  0  0  0
   -1.8493   -2.5006    0.0000 H   0  0  0  0  0  0  0  0  0  0  0  0
   -2.3843   -3.4273    0.0000 H   0  0  0  0  0  0  0  0  0  0  0  0
   -1.6020   -1.9243    0.0000 H   0  0  0  0  0  0  0  0  0  0  0  0
   -2.8158    0.5365    0.0000 H   0  0  0  0  0  0  0  0  0  0  0  0
   -4.6728    0.5365    0.0000 H   0  0  0  0  0  0  0  0  0  0  0  0
   -0.9603    1.2509    0.0000 H   0  0  0  0  0  0  0  0  0  0  0  0
    0.8966    1.2509    0.0000 H   0  0  0  0  0  0  0  0  0  0  0  0
    0.1356    0.3572    0.0000 H   0  0  0  0  0  0  0  0  0  0  0  0
    0.6706    1.2838    0.0000 H   0  0  0  0  0  0  0  0  0  0  0  0
    2.9591    0.1780    0.0000 H   0  0  0  0  0  0  0  0  0  0  0  0
    3.8876    1.7861    0.0000 H   0  0  0  0  0  0  0  0  0  0  0  0
    2.9591    3.3943    0.0000 H   0  0  0  0  0  0  0  0  0  0  0  0
    1.1021    3.3943    0.0000 H   0  0  0  0  0  0  0  0  0  0  0  0
    0.1736    1.7861    0.0000 H   0  0  0  0  0  0  0  0  0  0  0  0
    1.4956    1.2839    0.0000 H   0  0  0  0  0  0  0  0  0  0  0  0
    0.9606    0.3572    0.0000 H   0  0  0  0  0  0  0  0  0  0  0  0
    3.3906    1.2839    0.0000 H   0  0  0  0  0  0  0  0  0  0  0  0
    3.9256    0.3572    0.0000 H   0  0  0  0  0  0  0  0  0  0  0  0
    3.3906   -1.9983    0.0000 H   0  0  0  0  0  0  0  0  0  0  0  0
    2.3206   -1.9983    0.0000 H   0  0  0  0  0  0  0  0  0  0  0  0
    2.1531   -2.7128    0.0000 H   0  0  0  0  0  0  0  0  0  0  0  0
    2.6881   -1.7861    0.0000 H   0  0  0  0  0  0  0  0  0  0  0  0
    0.2581   -2.7128    0.0000 H   0  0  0  0  0  0  0  0  0  0  0  0
   -0.2769   -1.7861    0.0000 H   0  0  0  0  0  0  0  0  0  0  0  0
   -0.9603   -1.9654    0.0000 H   0  0  0  0  0  0  0  0  0  0  0  0
    5.1928    0.3856    0.0000 H   0  0  0  0  0  0  0  0  0  0  0  0
    2.3209    1.5852    0.0000 H   0  0  0  0  0  0  0  0  0  0  0  0
  1  2  2  0  0  0  0
  1  3  1  0  0  0  0
  2  8  1  0  0  0  0
  2 42  1  0  0  0  0
  3  4  2  0  0  0  0
  4  6  1  0  0  0  0
  5  3  1  0  0  0  0
  5 43  1  0  0  0  0
  5 44  1  0  0  0  0
  5 45  1  0  0  0  0
  6  9  1  0  0  0  0
  6 46  1  0  0  0  0
  7  4  1  0  0  0  0
  7 47  1  0  0  0  0
  8  7  2  0  0  0  0
  8 48  1  0  0  0  0
  9 32  2  0  0  0  0
 10  9  1  0  0  0  0
 10 31  2  0  0  0  0
 11 10  1  0  0  0  0
 11 12  2  0  0  0  0
 11 49  1  0  0  0  0
 12 50  1  0  0  0  0
 13 12  1  0  0  0  0
 13 14  1  0  0  0  0
 14 15  1  1  0  0  0
 15 51  1  0  0  0  0
 15 52  1  0  0  0  0
 16 15  1  0  0  0  0
 17 16  2  0  0  0  0
 17 18  1  0  0  0  0
 17 53  1  0  0  0  0
 18 19  2  0  0  0  0
 18 54  1  0  0  0  0
 19 20  1  0  0  0  0
 19 55  1  0  0  0  0
 20 21  2  0  0  0  0
 20 56  1  0  0  0  0
 21 16  1  0  0  0  0
 21 57  1  0  0  0  0
 22 23  1  0  0  0  0
 22 14  1  0  0  0  0
 22 58  1  0  0  0  0
 22 59  1  0  0  0  0
 23 60  1  0  0  0  0
 23 61  1  0  0  0  0
 24 33  1  0  0  0  0
 25 24  1  1  0  0  0
 25 26  1  0  0  0  0
 25 23  1  0  0  0  0
 25 38  1  0  0  0  0
 26 62  1  0  0  0  0
 26 63  1  0  0  0  0
 27 14  1  0  0  0  0
 27 26  1  0  0  0  0
 27 37  1  6  0  0  0
 28 29  1  0  0  0  0
 28 27  1  0  0  0  0
 28 64  1  0  0  0  0
 28 65  1  0  0  0  0
 29 30  1  0  0  0  0
 29 66  1  0  0  0  0
 29 67  1  0  0  0  0
 30 13  2  0  0  0  0
 31 30  1  0  0  0  0
 31 68  1  0  0  0  0
 33 34  2  0  0  0  0
 35 33  1  0  0  0  0
 35 69  1  0  0  0  0
 36 33  1  0  0  0  0
 36 70  1  0  0  0  0
 38 39  1  0  0  0  0
 38 40  1  0  0  0  0
 38 41  1  0  0  0  0
M  END
>  <DRUGBANK_ID>
DB12198

>  <COMMON_NAME>
Fosdagrocorat

>  <CAS_NUMBER>
1044535-58-1

>  <UNII>
HPI19004QS

>  <SYNONYMS>
Fosdagrocorat

$$$$
