FLX
 OpenBabel10282417072D

 57 59  0  0  0  0  0  0  0  0999 V2000
   -0.6134    2.1483    0.0000 N   0  0  0  0  0  0  0  0  0  0  0  0
   -1.3278    2.5608    0.0000 C   0  0  0  0  0  0  0  0  0  0  0  0
   -2.0423    2.1483    0.0000 O   0  0  0  0  0  0  0  0  0  0  0  0
   -1.3278    3.3858    0.0000 C   0  0  0  0  0  0  0  0  0  0  0  0
   -1.9953    3.8707    0.0000 O   0  0  0  0  0  0  0  0  0  0  0  0
   -0.6604    3.8707    0.0000 C   0  0  0  0  0  0  0  0  0  0  0  0
   -0.9153    4.6553    0.0000 C   0  0  0  0  0  0  0  0  0  0  0  0
   -1.7403    4.6553    0.0000 C   0  0  0  0  0  0  0  0  0  0  0  0
   -0.6134    1.3233    0.0000 C   0  0  1  0  0  0  0  0  0  0  0  0
   -1.3278    0.9108    0.0000 C   0  0  0  0  0  0  0  0  0  0  0  0
   -1.3278    0.0858    0.0000 C   0  0  0  0  0  0  0  0  0  0  0  0
   -2.0423   -0.3267    0.0000 C   0  0  0  0  0  0  0  0  0  0  0  0
   -0.6134   -0.3267    0.0000 C   0  0  0  0  0  0  0  0  0  0  0  0
    0.1011    0.9108    0.0000 C   0  0  0  0  0  0  0  0  0  0  0  0
    0.8156    1.3233    0.0000 O   0  0  0  0  0  0  0  0  0  0  0  0
    0.1011    0.0858    0.0000 N   0  0  0  0  0  0  0  0  0  0  0  0
    0.8156   -0.3267    0.0000 C   0  0  1  0  0  0  0  0  0  0  0  0
    0.8156   -1.1517    0.0000 C   0  0  0  0  0  0  0  0  0  0  0  0
    1.5300   -1.5642    0.0000 C   0  0  0  0  0  0  0  0  0  0  0  0
    1.6163   -2.3847    0.0000 C   0  0  0  0  0  0  0  0  0  0  0  0
    2.4233   -2.5562    0.0000 C   0  0  0  0  0  0  0  0  0  0  0  0
    1.0643   -2.9978    0.0000 C   0  0  0  0  0  0  0  0  0  0  0  0
    2.2837   -1.2287    0.0000 C   0  0  0  0  0  0  0  0  0  0  0  0
    2.8358   -1.8418    0.0000 N   0  0  0  0  0  0  0  0  0  0  0  0
    2.6782   -3.3409    0.0000 C   0  0  0  0  0  0  0  0  0  0  0  0
    1.3192   -3.7824    0.0000 C   0  0  0  0  0  0  0  0  0  0  0  0
    2.1262   -3.9540    0.0000 C   0  0  0  0  0  0  0  0  0  0  0  0
    1.5300    0.0858    0.0000 P   0  0  0  0  0  0  0  0  0  0  0  0
    1.9425   -0.6287    0.0000 O   0  0  0  0  0  0  0  0  0  0  0  0
    1.1175    0.8002    0.0000 O   0  0  0  0  0  0  0  0  0  0  0  0
    2.2445    0.4983    0.0000 O   0  0  0  0  0  0  0  0  0  0  0  0
   -1.1191    1.6152    0.0000 H   0  0  0  0  0  0  0  0  0  0  0  0
    0.3099   -0.6187    0.0000 H   0  0  0  0  0  0  0  0  0  0  0  0
    0.2392    2.6405    0.0000 H   0  0  0  0  0  0  0  0  0  0  0  0
    0.3211    3.5518    0.0000 H   0  0  0  0  0  0  0  0  0  0  0  0
   -0.3087    5.4902    0.0000 H   0  0  0  0  0  0  0  0  0  0  0  0
   -2.3469    5.4902    0.0000 H   0  0  0  0  0  0  0  0  0  0  0  0
   -2.2545    1.4458    0.0000 H   0  0  0  0  0  0  0  0  0  0  0  0
   -2.2544    0.3758    0.0000 H   0  0  0  0  0  0  0  0  0  0  0  0
   -1.3278   -0.9842    0.0000 H   0  0  0  0  0  0  0  0  0  0  0  0
   -2.9689    0.2083    0.0000 H   0  0  0  0  0  0  0  0  0  0  0  0
   -2.0423   -1.3967    0.0000 H   0  0  0  0  0  0  0  0  0  0  0  0
   -2.9690   -0.8617    0.0000 H   0  0  0  0  0  0  0  0  0  0  0  0
   -0.6134   -1.3967    0.0000 H   0  0  0  0  0  0  0  0  0  0  0  0
    0.3133    0.2083    0.0000 H   0  0  0  0  0  0  0  0  0  0  0  0
    0.3132   -0.8617    0.0000 H   0  0  0  0  0  0  0  0  0  0  0  0
   -0.7515   -0.4065    0.0000 H   0  0  0  0  0  0  0  0  0  0  0  0
   -0.1111   -1.6867    0.0000 H   0  0  0  0  0  0  0  0  0  0  0  0
    0.8156   -2.2217    0.0000 H   0  0  0  0  0  0  0  0  0  0  0  0
    0.0549   -2.7832    0.0000 H   0  0  0  0  0  0  0  0  0  0  0  0
    2.4983   -0.2193    0.0000 H   0  0  0  0  0  0  0  0  0  0  0  0
    3.8149   -1.7389    0.0000 H   0  0  0  0  0  0  0  0  0  0  0  0
    3.6876   -3.5555    0.0000 H   0  0  0  0  0  0  0  0  0  0  0  0
    0.6286   -4.5493    0.0000 H   0  0  0  0  0  0  0  0  0  0  0  0
    2.4451   -4.9355    0.0000 H   0  0  0  0  0  0  0  0  0  0  0  0
    1.6025    1.6403    0.0000 H   0  0  0  0  0  0  0  0  0  0  0  0
    3.0845    0.0133    0.0000 H   0  0  0  0  0  0  0  0  0  0  0  0
  1  2  1  0  0  0  0
  1 34  1  0  0  0  0
  2  3  2  0  0  0  0
  2  4  1  0  0  0  0
  4  5  1  0  0  0  0
  4  6  2  0  0  0  0
  5  8  1  0  0  0  0
  6  7  1  0  0  0  0
  6 35  1  0  0  0  0
  7  8  2  0  0  0  0
  7 36  1  0  0  0  0
  8 37  1  0  0  0  0
  9  1  1  0  0  0  0
  9 10  1  0  0  0  0
  9 14  1  0  0  0  0
  9 32  1  1  0  0  0
 10 11  1  0  0  0  0
 10 38  1  0  0  0  0
 10 39  1  0  0  0  0
 11 12  1  0  0  0  0
 11 13  1  0  0  0  0
 11 40  1  0  0  0  0
 12 41  1  0  0  0  0
 12 42  1  0  0  0  0
 12 43  1  0  0  0  0
 13 44  1  0  0  0  0
 13 45  1  0  0  0  0
 13 46  1  0  0  0  0
 14 15  2  0  0  0  0
 14 16  1  0  0  0  0
 16 47  1  0  0  0  0
 17 16  1  0  0  0  0
 17 18  1  0  0  0  0
 17 28  1  0  0  0  0
 17 33  1  1  0  0  0
 18 19  1  0  0  0  0
 18 48  1  0  0  0  0
 18 49  1  0  0  0  0
 19 20  1  0  0  0  0
 19 23  2  0  0  0  0
 20 21  2  0  0  0  0
 20 22  1  0  0  0  0
 21 24  1  0  0  0  0
 21 25  1  0  0  0  0
 22 26  2  0  0  0  0
 22 50  1  0  0  0  0
 23 24  1  0  0  0  0
 23 51  1  0  0  0  0
 24 52  1  0  0  0  0
 25 27  2  0  0  0  0
 25 53  1  0  0  0  0
 26 27  1  0  0  0  0
 26 54  1  0  0  0  0
 27 55  1  0  0  0  0
 28 29  2  0  0  0  0
 28 30  1  0  0  0  0
 28 31  1  0  0  0  0
 30 56  1  0  0  0  0
 31 57  1  0  0  0  0
M  END
>  <DRUGBANK_ID>
DB02046

>  <SECONDARY_ACCESSION_NUMBERS>
EXPT01449

>  <COMMON_NAME>
N-[(Furan-2-Yl)Carbonyl]-(S)-Leucyl-(R)-[1-Amino-2(1h-Indol-3-Yl)Ethyl]-Phosphonic Acid

$$$$
