
 OpenBabel10282417072D

 27 28  0  0  0  0  0  0  0  0999 V2000
    3.3523    1.1104    0.0000 C   0  0  0  0  0  0  0  0  0  0  0  0
    3.3523    1.9354    0.0000 C   0  0  0  0  0  0  0  0  0  0  0  0
    2.6378    0.6979    0.0000 C   0  0  0  0  0  0  0  0  0  0  0  0
    1.1387    0.8555    0.0000 C   0  0  0  0  0  0  0  0  0  0  0  0
    2.6378    2.3479    0.0000 C   0  0  2  0  0  0  0  0  0  0  0  0
    0.6538    1.5229    0.0000 C   0  0  2  0  0  0  0  0  0  0  0  0
    1.9233    1.9354    0.0000 C   0  0  2  0  0  0  0  0  0  0  0  0
    1.1387    2.1904    0.0000 C   0  0  2  0  0  0  0  0  0  0  0  0
    1.9233    1.1104    0.0000 N   0  0  3  0  0  0  0  0  0  0  0  0
    2.6378    3.1729    0.0000 O   0  0  0  0  0  0  0  0  0  0  0  0
   -0.1712    1.5229    0.0000 O   0  0  0  0  0  0  0  0  0  0  0  0
    0.8838    2.9750    0.0000 O   0  0  0  0  0  0  0  0  0  0  0  0
    3.3523    2.7604    0.0000 H   0  0  0  0  0  0  0  0  0  0  0  0
    0.2793    0.7879    0.0000 H   0  0  0  0  0  0  0  0  0  0  0  0
    1.8371    2.7559    0.0000 H   0  0  0  0  0  0  0  0  0  0  0  0
    0.3239    2.3194    0.0000 H   0  0  0  0  0  0  0  0  0  0  0  0
    4.2789    0.5754    0.0000 H   0  0  0  0  0  0  0  0  0  0  0  0
    3.3523    0.0404    0.0000 H   0  0  0  0  0  0  0  0  0  0  0  0
    4.2789    2.4704    0.0000 H   0  0  0  0  0  0  0  0  0  0  0  0
    3.3523    3.0054    0.0000 H   0  0  0  0  0  0  0  0  0  0  0  0
    2.6378   -0.3721    0.0000 H   0  0  0  0  0  0  0  0  0  0  0  0
    1.7112    0.1629    0.0000 H   0  0  0  0  0  0  0  0  0  0  0  0
    0.8080   -0.1621    0.0000 H   0  0  0  0  0  0  0  0  0  0  0  0
    1.8953    0.0989    0.0000 H   0  0  0  0  0  0  0  0  0  0  0  0
    3.4778    3.6579    0.0000 H   0  0  0  0  0  0  0  0  0  0  0  0
   -0.6562    2.3629    0.0000 H   0  0  0  0  0  0  0  0  0  0  0  0
    1.5329    3.6958    0.0000 H   0  0  0  0  0  0  0  0  0  0  0  0
  1 17  1  0  0  0  0
  1 18  1  0  0  0  0
  2  1  1  0  0  0  0
  2 19  1  0  0  0  0
  2 20  1  0  0  0  0
  3  1  1  0  0  0  0
  3 21  1  0  0  0  0
  3 22  1  0  0  0  0
  4 23  1  0  0  0  0
  4 24  1  0  0  0  0
  5  2  1  0  0  0  0
  5 10  1  0  0  0  0
  5 13  1  1  0  0  0
  6  4  1  0  0  0  0
  6 11  1  0  0  0  0
  6 14  1  6  0  0  0
  7  5  1  0  0  0  0
  7 15  1  6  0  0  0
  8  6  1  0  0  0  0
  8  7  1  0  0  0  0
  8 12  1  0  0  0  0
  8 16  1  6  0  0  0
  9  3  1  0  0  0  0
  9  4  1  0  0  0  0
  9  7  1  0  0  0  0
 10 25  1  0  0  0  0
 11 26  1  0  0  0  0
 12 27  1  0  0  0  0
M  END
>  <DRUGBANK_ID>
DB02034

>  <SECONDARY_ACCESSION_NUMBERS>
EXPT02983; DB06425

>  <COMMON_NAME>
Tridolgosir

>  <CAS_NUMBER>
72741-87-8

>  <UNII>
RSY4RK37KQ

>  <SYNONYMS>
(1S,2R,8R,8AR)-octahydro-1,2,8-indolizinetriol; Swainosine; Tridolgosir

$$$$
