MHB
 OpenBabel10282417072D

 31 32  0  0  0  0  0  0  0  0999 V2000
    0.4739   -1.3993    0.0000 C   0  0  0  0  0  0  0  0  0  0  0  0
    1.1884   -1.8118    0.0000 C   0  0  0  0  0  0  0  0  0  0  0  0
    1.1884   -2.6368    0.0000 C   0  0  0  0  0  0  0  0  0  0  0  0
    0.4739   -3.0493    0.0000 C   0  0  0  0  0  0  0  0  0  0  0  0
   -0.2405   -2.6368    0.0000 C   0  0  0  0  0  0  0  0  0  0  0  0
   -0.2405   -1.8118    0.0000 C   0  0  0  0  0  0  0  0  0  0  0  0
   -0.2405    0.6632    0.0000 C   0  0  0  0  0  0  0  0  0  0  0  0
   -0.9550    1.0757    0.0000 C   0  0  0  0  0  0  0  0  0  0  0  0
   -0.9550    1.9007    0.0000 C   0  0  0  0  0  0  0  0  0  0  0  0
   -0.2405    2.3132    0.0000 C   0  0  0  0  0  0  0  0  0  0  0  0
    0.4739    1.9007    0.0000 C   0  0  0  0  0  0  0  0  0  0  0  0
    0.4739    1.0757    0.0000 C   0  0  0  0  0  0  0  0  0  0  0  0
    1.9029   -1.3993    0.0000 C   0  0  0  0  0  0  0  0  0  0  0  0
   -1.6695    2.3132    0.0000 C   0  0  0  0  0  0  0  0  0  0  0  0
    0.4739   -0.5743    0.0000 N   0  0  0  0  0  0  0  0  0  0  0  0
   -0.2405   -0.1618    0.0000 N   0  0  0  0  0  0  0  0  0  0  0  0
    2.6173   -1.8118    0.0000 O   0  0  0  0  0  0  0  0  0  0  0  0
    1.9029   -0.5743    0.0000 O   0  0  0  0  0  0  0  0  0  0  0  0
   -0.2405    3.1382    0.0000 O   0  0  0  0  0  0  0  0  0  0  0  0
    2.0821   -3.1528    0.0000 H   0  0  0  0  0  0  0  0  0  0  0  0
    0.4739   -4.0813    0.0000 H   0  0  0  0  0  0  0  0  0  0  0  0
   -1.1342   -3.1528    0.0000 H   0  0  0  0  0  0  0  0  0  0  0  0
   -1.1342   -1.2958    0.0000 H   0  0  0  0  0  0  0  0  0  0  0  0
   -1.8487    0.5597    0.0000 H   0  0  0  0  0  0  0  0  0  0  0  0
    1.3676    2.4167    0.0000 H   0  0  0  0  0  0  0  0  0  0  0  0
    1.3676    0.5597    0.0000 H   0  0  0  0  0  0  0  0  0  0  0  0
   -1.6695    3.3832    0.0000 H   0  0  0  0  0  0  0  0  0  0  0  0
   -2.5961    1.7782    0.0000 H   0  0  0  0  0  0  0  0  0  0  0  0
   -2.5962    2.8482    0.0000 H   0  0  0  0  0  0  0  0  0  0  0  0
    2.7144   -0.1058    0.0000 H   0  0  0  0  0  0  0  0  0  0  0  0
    0.5710    3.6067    0.0000 H   0  0  0  0  0  0  0  0  0  0  0  0
  1  2  1  0  0  0  0
  1  6  2  0  0  0  0
  1 15  1  0  0  0  0
  2  3  2  0  0  0  0
  2 13  1  0  0  0  0
  3  4  1  0  0  0  0
  3 20  1  0  0  0  0
  4  5  2  0  0  0  0
  4 21  1  0  0  0  0
  5  6  1  0  0  0  0
  5 22  1  0  0  0  0
  6 23  1  0  0  0  0
  7  8  1  0  0  0  0
  7 12  2  0  0  0  0
  7 16  1  0  0  0  0
  8  9  2  0  0  0  0
  8 24  1  0  0  0  0
  9 10  1  0  0  0  0
  9 14  1  0  0  0  0
 10 11  2  0  0  0  0
 10 19  1  0  0  0  0
 11 12  1  0  0  0  0
 11 25  1  0  0  0  0
 12 26  1  0  0  0  0
 13 17  2  0  0  0  0
 13 18  1  0  0  0  0
 14 27  1  0  0  0  0
 14 28  1  0  0  0  0
 14 29  1  0  0  0  0
 15 16  2  0  0  0  0
 18 30  1  0  0  0  0
 19 31  1  0  0  0  0
M  END
>  <DRUGBANK_ID>
DB08181

>  <COMMON_NAME>
2-((3'-METHYL-4'-HYDROXYPHENYL)AZO)BENZOIC ACID

$$$$
