
 OpenBabel10282417072D

 61 64  0  0  0  0  0  0  0  0999 V2000
   -2.6848    1.4409    0.0000 C   0  0  0  0  0  0  0  0  0  0  0  0
   -3.2151    0.8089    0.0000 C   0  0  0  0  0  0  0  0  0  0  0  0
   -3.9296    0.3964    0.0000 C   0  0  0  0  0  0  0  0  0  0  0  0
   -3.9296   -0.4285    0.0000 C   0  0  0  0  0  0  0  0  0  0  0  0
   -3.2151   -0.8410    0.0000 C   0  0  0  0  0  0  0  0  0  0  0  0
   -2.5006   -0.4285    0.0000 C   0  0  0  0  0  0  0  0  0  0  0  0
   -2.5006    0.3964    0.0000 C   0  0  0  0  0  0  0  0  0  0  0  0
   -1.7861    0.8089    0.0000 C   0  0  0  0  0  0  0  0  0  0  0  0
   -1.0716    0.3964    0.0000 C   0  0  0  0  0  0  0  0  0  0  0  0
   -1.0716   -0.4285    0.0000 C   0  0  0  0  0  0  0  0  0  0  0  0
   -1.7861   -0.8410    0.0000 C   0  0  0  0  0  0  0  0  0  0  0  0
   -0.3572   -0.8410    0.0000 C   0  0  0  0  0  0  0  0  0  0  0  0
    0.3573   -0.4285    0.0000 C   0  0  0  0  0  0  0  0  0  0  0  0
    1.0717   -0.8410    0.0000 C   0  0  0  0  0  0  0  0  0  0  0  0
    1.7861   -0.4285    0.0000 C   0  0  0  0  0  0  0  0  0  0  0  0
    2.5006   -0.8410    0.0000 C   0  0  0  0  0  0  0  0  0  0  0  0
    2.5006   -1.6660    0.0000 C   0  0  0  0  0  0  0  0  0  0  0  0
    1.7861   -2.0785    0.0000 C   0  0  0  0  0  0  0  0  0  0  0  0
    1.0717   -1.6660    0.0000 C   0  0  0  0  0  0  0  0  0  0  0  0
    3.2151   -2.0785    0.0000 C   0  0  0  0  0  0  0  0  0  0  0  0
    3.9296   -1.6660    0.0000 O   0  0  0  0  0  0  0  0  0  0  0  0
    3.2151   -2.9035    0.0000 O   0  0  0  0  0  0  0  0  0  0  0  0
   -0.3572    0.8089    0.0000 C   0  0  0  0  0  0  0  0  0  0  0  0
   -0.3572    1.6339    0.0000 N   0  0  0  0  0  0  0  0  0  0  0  0
   -1.0247    2.1189    0.0000 C   0  0  0  0  0  0  0  0  0  0  0  0
   -0.7697    2.9035    0.0000 C   0  0  0  0  0  0  0  0  0  0  0  0
    0.0553    2.9035    0.0000 C   0  0  0  0  0  0  0  0  0  0  0  0
    0.3102    2.1189    0.0000 N   0  0  0  0  0  0  0  0  0  0  0  0
   -2.8278   -1.5694    0.0000 C   0  0  0  0  0  0  0  0  0  0  0  0
   -3.6024   -1.5694    0.0000 C   0  0  0  0  0  0  0  0  0  0  0  0
   -3.7454    1.4409    0.0000 C   0  0  0  0  0  0  0  0  0  0  0  0
   -1.6311    1.2551    0.0000 H   0  0  0  0  0  0  0  0  0  0  0  0
   -3.0508    2.4464    0.0000 H   0  0  0  0  0  0  0  0  0  0  0  0
   -1.9970    2.2606    0.0000 H   0  0  0  0  0  0  0  0  0  0  0  0
   -4.8562    0.9314    0.0000 H   0  0  0  0  0  0  0  0  0  0  0  0
   -4.8562   -0.1386    0.0000 H   0  0  0  0  0  0  0  0  0  0  0  0
   -4.8562   -0.9635    0.0000 H   0  0  0  0  0  0  0  0  0  0  0  0
   -3.9296   -1.4985    0.0000 H   0  0  0  0  0  0  0  0  0  0  0  0
   -1.7861    1.8409    0.0000 H   0  0  0  0  0  0  0  0  0  0  0  0
   -1.7861   -1.8730    0.0000 H   0  0  0  0  0  0  0  0  0  0  0  0
   -0.3572   -1.8730    0.0000 H   0  0  0  0  0  0  0  0  0  0  0  0
    0.3573    0.6035    0.0000 H   0  0  0  0  0  0  0  0  0  0  0  0
    1.7861    0.6035    0.0000 H   0  0  0  0  0  0  0  0  0  0  0  0
    3.3943   -0.3250    0.0000 H   0  0  0  0  0  0  0  0  0  0  0  0
    1.7861   -3.1105    0.0000 H   0  0  0  0  0  0  0  0  0  0  0  0
    0.1780   -2.1820    0.0000 H   0  0  0  0  0  0  0  0  0  0  0  0
    2.4036   -3.3720    0.0000 H   0  0  0  0  0  0  0  0  0  0  0  0
    0.5695    0.2739    0.0000 H   0  0  0  0  0  0  0  0  0  0  0  0
    0.5694    1.3439    0.0000 H   0  0  0  0  0  0  0  0  0  0  0  0
   -2.0062    1.8000    0.0000 H   0  0  0  0  0  0  0  0  0  0  0  0
   -1.3763    3.7384    0.0000 H   0  0  0  0  0  0  0  0  0  0  0  0
    0.6619    3.7384    0.0000 H   0  0  0  0  0  0  0  0  0  0  0  0
   -3.3948   -2.4768    0.0000 H   0  0  0  0  0  0  0  0  0  0  0  0
   -1.7585   -1.6067    0.0000 H   0  0  0  0  0  0  0  0  0  0  0  0
   -2.3255   -2.5142    0.0000 H   0  0  0  0  0  0  0  0  0  0  0  0
   -4.6717   -1.6067    0.0000 H   0  0  0  0  0  0  0  0  0  0  0  0
   -3.0354   -2.4768    0.0000 H   0  0  0  0  0  0  0  0  0  0  0  0
   -4.1047   -2.5142    0.0000 H   0  0  0  0  0  0  0  0  0  0  0  0
   -3.3794    2.4464    0.0000 H   0  0  0  0  0  0  0  0  0  0  0  0
   -4.7991    1.2551    0.0000 H   0  0  0  0  0  0  0  0  0  0  0  0
   -4.4332    2.2606    0.0000 H   0  0  0  0  0  0  0  0  0  0  0  0
  1  2  1  0  0  0  0
  1 32  1  0  0  0  0
  1 33  1  0  0  0  0
  1 34  1  0  0  0  0
  2  3  1  0  0  0  0
  2  7  1  0  0  0  0
  2 31  1  0  0  0  0
  3  4  1  0  0  0  0
  3 35  1  0  0  0  0
  3 36  1  0  0  0  0
  4  5  1  0  0  0  0
  4 37  1  0  0  0  0
  4 38  1  0  0  0  0
  5  6  1  0  0  0  0
  5 29  1  0  0  0  0
  5 30  1  0  0  0  0
  6  7  2  0  0  0  0
  6 11  1  0  0  0  0
  7  8  1  0  0  0  0
  8  9  2  0  0  0  0
  8 39  1  0  0  0  0
  9 10  1  0  0  0  0
  9 23  1  0  0  0  0
 10 11  2  0  0  0  0
 10 12  1  0  0  0  0
 11 40  1  0  0  0  0
 12 13  2  0  0  0  0
 12 41  1  0  0  0  0
 13 14  1  0  0  0  0
 13 42  1  0  0  0  0
 14 15  2  0  0  0  0
 14 19  1  0  0  0  0
 15 16  1  0  0  0  0
 15 43  1  0  0  0  0
 16 17  2  0  0  0  0
 16 44  1  0  0  0  0
 17 18  1  0  0  0  0
 17 20  1  0  0  0  0
 18 19  2  0  0  0  0
 18 45  1  0  0  0  0
 19 46  1  0  0  0  0
 20 21  2  0  0  0  0
 20 22  1  0  0  0  0
 22 47  1  0  0  0  0
 23 24  1  0  0  0  0
 23 48  1  0  0  0  0
 23 49  1  0  0  0  0
 24 25  1  0  0  0  0
 24 28  1  0  0  0  0
 25 26  2  0  0  0  0
 25 50  1  0  0  0  0
 26 27  1  0  0  0  0
 26 51  1  0  0  0  0
 27 28  2  0  0  0  0
 27 52  1  0  0  0  0
 29 53  1  0  0  0  0
 29 54  1  0  0  0  0
 29 55  1  0  0  0  0
 30 56  1  0  0  0  0
 30 57  1  0  0  0  0
 30 58  1  0  0  0  0
 31 59  1  0  0  0  0
 31 60  1  0  0  0  0
 31 61  1  0  0  0  0
M  END
>  <DRUGBANK_ID>
DB05467

>  <SECONDARY_ACCESSION_NUMBERS>
DB12320; DB16749

>  <COMMON_NAME>
Palovarotene

>  <CAS_NUMBER>
410528-02-8

>  <UNII>
28K6I5M16G

>  <SYNONYMS>
Palovarotene

$$$$
