HPO
 OpenBabel10282417072D

 27 26  0  0  0  0  0  0  0  0999 V2000
   -2.7577   -0.1638    0.0000 C   0  0  0  0  0  0  0  0  0  0  0  0
   -2.0433    0.2487    0.0000 C   0  0  0  0  0  0  0  0  0  0  0  0
   -1.3287   -0.1638    0.0000 C   0  0  0  0  0  0  0  0  0  0  0  0
   -0.6141    0.2487    0.0000 C   0  0  0  0  0  0  0  0  0  0  0  0
    0.1004   -0.1638    0.0000 C   0  0  0  0  0  0  0  0  0  0  0  0
    0.8149    0.2487    0.0000 C   0  0  0  0  0  0  0  0  0  0  0  0
    1.5294   -0.1638    0.0000 C   0  0  0  0  0  0  0  0  0  0  0  0
    0.8149    1.0738    0.0000 O   0  0  0  0  0  0  0  0  0  0  0  0
    2.2440    0.2487    0.0000 P   0  0  0  0  0  0  0  0  0  0  0  0
    2.9584    0.6612    0.0000 O   0  0  0  0  0  0  0  0  0  0  0  0
    2.6565   -0.4658    0.0000 O   0  0  0  0  0  0  0  0  0  0  0  0
    1.8314    0.9632    0.0000 O   0  0  0  0  0  0  0  0  0  0  0  0
   -3.6844    0.3712    0.0000 H   0  0  0  0  0  0  0  0  0  0  0  0
   -2.7577   -1.2338    0.0000 H   0  0  0  0  0  0  0  0  0  0  0  0
   -3.6843   -0.6988    0.0000 H   0  0  0  0  0  0  0  0  0  0  0  0
   -2.0434    1.3187    0.0000 H   0  0  0  0  0  0  0  0  0  0  0  0
   -1.1167    0.7838    0.0000 H   0  0  0  0  0  0  0  0  0  0  0  0
   -1.3287   -1.2338    0.0000 H   0  0  0  0  0  0  0  0  0  0  0  0
   -0.4021   -0.6988    0.0000 H   0  0  0  0  0  0  0  0  0  0  0  0
   -0.6141    1.3187    0.0000 H   0  0  0  0  0  0  0  0  0  0  0  0
    0.3126    0.7837    0.0000 H   0  0  0  0  0  0  0  0  0  0  0  0
    0.1004   -1.2338    0.0000 H   0  0  0  0  0  0  0  0  0  0  0  0
    1.0270   -0.6988    0.0000 H   0  0  0  0  0  0  0  0  0  0  0  0
    1.5294   -1.2338    0.0000 H   0  0  0  0  0  0  0  0  0  0  0  0
    2.4560   -0.6989    0.0000 H   0  0  0  0  0  0  0  0  0  0  0  0
    2.1715   -1.3058    0.0000 H   0  0  0  0  0  0  0  0  0  0  0  0
    2.3163    1.8033    0.0000 H   0  0  0  0  0  0  0  0  0  0  0  0
  1  2  1  0  0  0  0
  1 13  1  0  0  0  0
  1 14  1  0  0  0  0
  1 15  1  0  0  0  0
  2  3  1  0  0  0  0
  2 16  1  0  0  0  0
  2 17  1  0  0  0  0
  3  4  1  0  0  0  0
  3 18  1  0  0  0  0
  3 19  1  0  0  0  0
  4  5  1  0  0  0  0
  4 20  1  0  0  0  0
  4 21  1  0  0  0  0
  5  6  1  0  0  0  0
  5 22  1  0  0  0  0
  5 23  1  0  0  0  0
  6  7  1  0  0  0  0
  6  8  2  0  0  0  0
  7  9  1  0  0  0  0
  7 24  1  0  0  0  0
  7 25  1  0  0  0  0
  9 10  2  0  0  0  0
  9 11  1  0  0  0  0
  9 12  1  0  0  0  0
 11 26  1  0  0  0  0
 12 27  1  0  0  0  0
M  END
>  <DRUGBANK_ID>
DB07912

>  <COMMON_NAME>
2-OXOHEPTYLPHOSPHONIC ACID

>  <UNII>
E9NR6YG6JA

$$$$
