1342
 OpenBabel10282417072D

 59 62  0  0  0  0  0  0  0  0999 V2000
    5.2679    0.7791    0.0000 N   0  0  0  0  0  0  0  0  0  0  0  0
    4.3747   -0.2130    0.0000 N   0  0  0  0  0  0  0  0  0  0  0  0
    4.5142    1.1146    0.0000 N   0  0  0  0  0  0  0  0  0  0  0  0
    7.4114   -0.4585    0.0000 N   0  0  0  0  0  0  0  0  0  0  0  0
    8.8873    1.2640    0.0000 N   0  0  0  0  0  0  0  0  0  0  0  0
   10.2223    1.2640    0.0000 N   0  0  0  0  0  0  0  0  0  0  0  0
    9.1423    2.0486    0.0000 N   0  0  0  0  0  0  0  0  0  0  0  0
    9.9673    2.0486    0.0000 N   0  0  0  0  0  0  0  0  0  0  0  0
    5.7948   -0.5935    0.0000 C   0  0  0  0  0  0  0  0  0  0  0  0
    5.1817   -0.0415    0.0000 C   0  0  0  0  0  0  0  0  0  0  0  0
    5.6232   -1.4005    0.0000 C   0  0  0  0  0  0  0  0  0  0  0  0
    3.1417    0.5877    0.0000 C   0  0  0  0  0  0  0  0  0  0  0  0
    5.9824    1.1916    0.0000 C   0  0  0  0  0  0  0  0  0  0  0  0
    3.9621    0.5015    0.0000 C   0  0  0  0  0  0  0  0  0  0  0  0
    2.8061    1.3414    0.0000 C   0  0  0  0  0  0  0  0  0  0  0  0
    4.8386   -1.6555    0.0000 C   0  0  0  0  0  0  0  0  0  0  0  0
    6.6968    0.7791    0.0000 C   0  0  0  0  0  0  0  0  0  0  0  0
    1.9856    1.4277    0.0000 C   0  0  0  0  0  0  0  0  0  0  0  0
    4.6670   -2.4624    0.0000 C   0  0  0  0  0  0  0  0  0  0  0  0
    7.4114    1.1916    0.0000 C   0  0  0  0  0  0  0  0  0  0  0  0
    6.6968   -0.0460    0.0000 C   0  0  0  0  0  0  0  0  0  0  0  0
    1.6500    2.1813    0.0000 C   0  0  0  0  0  0  0  0  0  0  0  0
    8.1259   -0.0460    0.0000 C   0  0  0  0  0  0  0  0  0  0  0  0
    8.1259    0.7791    0.0000 C   0  0  0  0  0  0  0  0  0  0  0  0
    8.8403   -0.4585    0.0000 C   0  0  0  0  0  0  0  0  0  0  0  0
    9.5548   -0.0460    0.0000 C   0  0  0  0  0  0  0  0  0  0  0  0
    8.8403   -1.2835    0.0000 C   0  0  0  0  0  0  0  0  0  0  0  0
   10.2693   -0.4585    0.0000 C   0  0  0  0  0  0  0  0  0  0  0  0
    9.5548   -1.6960    0.0000 C   0  0  0  0  0  0  0  0  0  0  0  0
    9.5548    0.7791    0.0000 C   0  0  0  0  0  0  0  0  0  0  0  0
   10.2693   -1.2835    0.0000 C   0  0  0  0  0  0  0  0  0  0  0  0
    8.5637    2.8451    0.0000 H   0  0  0  0  0  0  0  0  0  0  0  0
    6.8124   -0.2629    0.0000 H   0  0  0  0  0  0  0  0  0  0  0  0
    6.5899   -1.3095    0.0000 H   0  0  0  0  0  0  0  0  0  0  0  0
    6.4184   -2.1165    0.0000 H   0  0  0  0  0  0  0  0  0  0  0  0
    5.4008   -2.4471    0.0000 H   0  0  0  0  0  0  0  0  0  0  0  0
    2.5128   -0.2780    0.0000 H   0  0  0  0  0  0  0  0  0  0  0  0
    2.0776    0.6995    0.0000 H   0  0  0  0  0  0  0  0  0  0  0  0
    5.9824    2.2616    0.0000 H   0  0  0  0  0  0  0  0  0  0  0  0
    6.9091    1.7266    0.0000 H   0  0  0  0  0  0  0  0  0  0  0  0
    3.4350    2.2070    0.0000 H   0  0  0  0  0  0  0  0  0  0  0  0
    2.3709    2.3189    0.0000 H   0  0  0  0  0  0  0  0  0  0  0  0
    4.0434   -0.9395    0.0000 H   0  0  0  0  0  0  0  0  0  0  0  0
    3.8210   -1.9861    0.0000 H   0  0  0  0  0  0  0  0  0  0  0  0
    1.3567    0.5620    0.0000 H   0  0  0  0  0  0  0  0  0  0  0  0
    0.9215    1.5395    0.0000 H   0  0  0  0  0  0  0  0  0  0  0  0
    3.6493   -2.7929    0.0000 H   0  0  0  0  0  0  0  0  0  0  0  0
    5.4621   -3.1785    0.0000 H   0  0  0  0  0  0  0  0  0  0  0  0
    4.4444   -3.5090    0.0000 H   0  0  0  0  0  0  0  0  0  0  0  0
    7.4114    2.2236    0.0000 H   0  0  0  0  0  0  0  0  0  0  0  0
    5.8031   -0.5620    0.0000 H   0  0  0  0  0  0  0  0  0  0  0  0
    2.2789    3.0470    0.0000 H   0  0  0  0  0  0  0  0  0  0  0  0
    0.5859    2.2931    0.0000 H   0  0  0  0  0  0  0  0  0  0  0  0
    1.2147    3.1588    0.0000 H   0  0  0  0  0  0  0  0  0  0  0  0
    9.0196    1.2951    0.0000 H   0  0  0  0  0  0  0  0  0  0  0  0
    7.9466   -1.7995    0.0000 H   0  0  0  0  0  0  0  0  0  0  0  0
   11.1630    0.0575    0.0000 H   0  0  0  0  0  0  0  0  0  0  0  0
    9.5548   -2.7280    0.0000 H   0  0  0  0  0  0  0  0  0  0  0  0
   11.1630   -1.7995    0.0000 H   0  0  0  0  0  0  0  0  0  0  0  0
  1  3  1  0  0  0  0
  1 10  1  0  0  0  0
  1 13  1  0  0  0  0
  2 10  2  0  0  0  0
  2 14  1  0  0  0  0
  3 14  2  0  0  0  0
  4 21  1  0  0  0  0
  4 23  2  0  0  0  0
  5  7  1  0  0  0  0
  5 30  2  0  0  0  0
  6  8  2  0  0  0  0
  6 30  1  0  0  0  0
  7  8  1  0  0  0  0
  7 32  1  0  0  0  0
  9 10  1  0  0  0  0
  9 11  1  0  0  0  0
  9 33  1  0  0  0  0
  9 34  1  0  0  0  0
 11 16  1  0  0  0  0
 11 35  1  0  0  0  0
 11 36  1  0  0  0  0
 12 14  1  0  0  0  0
 12 15  1  0  0  0  0
 12 37  1  0  0  0  0
 12 38  1  0  0  0  0
 13 17  1  0  0  0  0
 13 39  1  0  0  0  0
 13 40  1  0  0  0  0
 15 18  1  0  0  0  0
 15 41  1  0  0  0  0
 15 42  1  0  0  0  0
 16 19  1  0  0  0  0
 16 43  1  0  0  0  0
 16 44  1  0  0  0  0
 17 20  1  0  0  0  0
 17 21  2  0  0  0  0
 18 22  1  0  0  0  0
 18 45  1  0  0  0  0
 18 46  1  0  0  0  0
 19 47  1  0  0  0  0
 19 48  1  0  0  0  0
 19 49  1  0  0  0  0
 20 24  2  0  0  0  0
 20 50  1  0  0  0  0
 21 51  1  0  0  0  0
 22 52  1  0  0  0  0
 22 53  1  0  0  0  0
 22 54  1  0  0  0  0
 23 24  1  0  0  0  0
 23 25  1  0  0  0  0
 24 55  1  0  0  0  0
 25 26  1  0  0  0  0
 25 27  2  0  0  0  0
 26 28  2  0  0  0  0
 26 30  1  0  0  0  0
 27 29  1  0  0  0  0
 27 56  1  0  0  0  0
 28 31  1  0  0  0  0
 28 57  1  0  0  0  0
 29 31  2  0  0  0  0
 29 58  1  0  0  0  0
 31 59  1  0  0  0  0
M  END
>  <DRUGBANK_ID>
DB01342

>  <COMMON_NAME>
Forasartan

>  <CAS_NUMBER>
145216-43-9

>  <UNII>
065F7WPT0B

>  <SYNONYMS>
forasartÃ¡n; Forasartan

$$$$
