
 OpenBabel10282417072D

159159  0  0  1  0  0  0  0  0999 V2000
  -16.4328   -2.8875    0.0000 C   0  0  0  0  0  0  0  0  0  0  0  0
  -15.7184   -2.4750    0.0000 C   0  0  0  0  0  0  0  0  0  0  0  0
  -15.0039   -2.8875    0.0000 C   0  0  0  0  0  0  0  0  0  0  0  0
  -14.2894   -2.4750    0.0000 C   0  0  0  0  0  0  0  0  0  0  0  0
  -13.5749   -2.8875    0.0000 C   0  0  0  0  0  0  0  0  0  0  0  0
  -12.8605   -2.4750    0.0000 C   0  0  0  0  0  0  0  0  0  0  0  0
  -12.1460   -2.8875    0.0000 C   0  0  0  0  0  0  0  0  0  0  0  0
  -11.4315   -2.4750    0.0000 C   0  0  0  0  0  0  0  0  0  0  0  0
  -10.7171   -2.8875    0.0000 C   0  0  0  0  0  0  0  0  0  0  0  0
  -10.0026   -2.4750    0.0000 C   0  0  0  0  0  0  0  0  0  0  0  0
   -9.2881   -2.8875    0.0000 C   0  0  0  0  0  0  0  0  0  0  0  0
   -8.5737   -2.4750    0.0000 C   0  0  0  0  0  0  0  0  0  0  0  0
   -7.8592   -2.8875    0.0000 C   0  0  0  0  0  0  0  0  0  0  0  0
   -7.1447   -2.4750    0.0000 C   0  0  0  0  0  0  0  0  0  0  0  0
   -6.4302   -2.8875    0.0000 C   0  0  0  0  0  0  0  0  0  0  0  0
   -5.7158   -2.4750    0.0000 C   0  0  0  0  0  0  0  0  0  0  0  0
   -5.0013   -2.8875    0.0000 C   0  0  0  0  0  0  0  0  0  0  0  0
   -4.2868   -2.4750    0.0000 C   0  0  0  0  0  0  0  0  0  0  0  0
   -3.5724   -2.8875    0.0000 C   0  0  0  0  0  0  0  0  0  0  0  0
   -2.8579   -2.4750    0.0000 C   0  0  0  0  0  0  0  0  0  0  0  0
   -2.1434   -2.8875    0.0000 C   0  0  0  0  0  0  0  0  0  0  0  0
   -1.4289   -2.4750    0.0000 C   0  0  0  0  0  0  0  0  0  0  0  0
   -0.7145   -2.8875    0.0000 C   0  0  0  0  0  0  0  0  0  0  0  0
    0.0000   -2.4750    0.0000 C   0  0  0  0  0  0  0  0  0  0  0  0
    0.0000   -1.6500    0.0000 O   0  0  0  0  0  0  0  0  0  0  0  0
    0.7145   -2.8875    0.0000 N   0  0  0  0  0  0  0  0  0  0  0  0
    1.4289   -2.4750    0.0000 C   0  0  1  0  0  0  0  0  0  0  0  0
    1.4289   -1.6500    0.0000 C   0  0  0  0  0  0  0  0  0  0  0  0
    0.7145   -1.2375    0.0000 O   0  0  0  0  0  0  0  0  0  0  0  0
    0.7145   -0.4125    0.0000 C   0  0  1  0  0  0  0  0  0  0  0  0
    0.0000   -0.0000    0.0000 O   0  0  0  0  0  0  0  0  0  0  0  0
    0.0000    0.8250    0.0000 C   0  0  2  0  0  0  0  0  0  0  0  0
   -0.7145    1.2375    0.0000 C   0  0  0  0  0  0  0  0  0  0  0  0
   -0.7145    2.0625    0.0000 N   0  0  0  0  0  0  0  0  0  0  0  0
   -1.4289    2.4750    0.0000 C   0  0  0  0  0  0  0  0  0  0  0  0
   -2.1434    2.0625    0.0000 C   0  0  0  0  0  0  0  0  0  0  0  0
   -1.4289    3.3000    0.0000 O   0  0  0  0  0  0  0  0  0  0  0  0
    0.7145    1.2375    0.0000 C   0  0  2  0  0  0  0  0  0  0  0  0
    0.7145    2.0625    0.0000 O   0  0  0  0  0  0  0  0  0  0  0  0
    1.4289    0.8250    0.0000 C   0  0  2  0  0  0  0  0  0  0  0  0
    2.1434    1.2375    0.0000 O   0  0  0  0  0  0  0  0  0  0  0  0
    1.4289   -0.0000    0.0000 C   0  0  1  0  0  0  0  0  0  0  0  0
    2.1434   -0.4125    0.0000 O   0  0  0  0  0  0  0  0  0  0  0  0
    2.1434   -2.8875    0.0000 C   0  0  2  0  0  0  0  0  0  0  0  0
    2.1434   -3.7125    0.0000 O   0  0  0  0  0  0  0  0  0  0  0  0
    2.8579   -2.4750    0.0000 C   0  0  2  0  0  0  0  0  0  0  0  0
    2.8579   -1.6500    0.0000 O   0  0  0  0  0  0  0  0  0  0  0  0
    3.5724   -2.8875    0.0000 C   0  0  0  0  0  0  0  0  0  0  0  0
    4.2868   -2.4750    0.0000 C   0  0  0  0  0  0  0  0  0  0  0  0
    5.0013   -2.8875    0.0000 C   0  0  0  0  0  0  0  0  0  0  0  0
    5.7158   -2.4750    0.0000 C   0  0  0  0  0  0  0  0  0  0  0  0
    6.4302   -2.8875    0.0000 C   0  0  0  0  0  0  0  0  0  0  0  0
    7.1447   -2.4750    0.0000 C   0  0  0  0  0  0  0  0  0  0  0  0
    7.8592   -2.8875    0.0000 C   0  0  0  0  0  0  0  0  0  0  0  0
    8.5737   -2.4750    0.0000 C   0  0  0  0  0  0  0  0  0  0  0  0
    9.2881   -2.8875    0.0000 C   0  0  0  0  0  0  0  0  0  0  0  0
   10.0026   -2.4750    0.0000 C   0  0  0  0  0  0  0  0  0  0  0  0
   10.7171   -2.8875    0.0000 C   0  0  0  0  0  0  0  0  0  0  0  0
   11.4315   -2.4750    0.0000 C   0  0  0  0  0  0  0  0  0  0  0  0
   12.1460   -2.8875    0.0000 C   0  0  0  0  0  0  0  0  0  0  0  0
   12.8605   -2.4750    0.0000 C   0  0  0  0  0  0  0  0  0  0  0  0
  -17.3595   -2.3525    0.0000 H   0  0  0  0  0  0  0  0  0  0  0  0
  -16.4328   -3.9575    0.0000 H   0  0  0  0  0  0  0  0  0  0  0  0
  -17.3594   -3.4225    0.0000 H   0  0  0  0  0  0  0  0  0  0  0  0
  -15.7184   -1.4050    0.0000 H   0  0  0  0  0  0  0  0  0  0  0  0
  -14.7918   -1.9400    0.0000 H   0  0  0  0  0  0  0  0  0  0  0  0
  -15.0039   -3.9575    0.0000 H   0  0  0  0  0  0  0  0  0  0  0  0
  -14.0773   -3.4225    0.0000 H   0  0  0  0  0  0  0  0  0  0  0  0
  -14.2894   -1.4050    0.0000 H   0  0  0  0  0  0  0  0  0  0  0  0
  -13.3628   -1.9400    0.0000 H   0  0  0  0  0  0  0  0  0  0  0  0
  -13.5749   -3.9575    0.0000 H   0  0  0  0  0  0  0  0  0  0  0  0
  -12.6482   -3.4225    0.0000 H   0  0  0  0  0  0  0  0  0  0  0  0
  -12.8605   -1.4050    0.0000 H   0  0  0  0  0  0  0  0  0  0  0  0
  -11.9339   -1.9400    0.0000 H   0  0  0  0  0  0  0  0  0  0  0  0
  -12.1460   -3.9575    0.0000 H   0  0  0  0  0  0  0  0  0  0  0  0
  -11.2194   -3.4225    0.0000 H   0  0  0  0  0  0  0  0  0  0  0  0
  -11.4315   -1.4050    0.0000 H   0  0  0  0  0  0  0  0  0  0  0  0
  -10.5048   -1.9400    0.0000 H   0  0  0  0  0  0  0  0  0  0  0  0
  -10.7171   -3.9575    0.0000 H   0  0  0  0  0  0  0  0  0  0  0  0
   -9.7905   -3.4225    0.0000 H   0  0  0  0  0  0  0  0  0  0  0  0
  -10.0026   -1.4050    0.0000 H   0  0  0  0  0  0  0  0  0  0  0  0
   -9.0760   -1.9400    0.0000 H   0  0  0  0  0  0  0  0  0  0  0  0
   -9.2881   -3.9575    0.0000 H   0  0  0  0  0  0  0  0  0  0  0  0
   -8.3614   -3.4225    0.0000 H   0  0  0  0  0  0  0  0  0  0  0  0
   -8.5737   -1.4050    0.0000 H   0  0  0  0  0  0  0  0  0  0  0  0
   -7.6471   -1.9400    0.0000 H   0  0  0  0  0  0  0  0  0  0  0  0
   -7.8592   -3.9575    0.0000 H   0  0  0  0  0  0  0  0  0  0  0  0
   -6.9326   -3.4225    0.0000 H   0  0  0  0  0  0  0  0  0  0  0  0
   -7.1447   -1.4050    0.0000 H   0  0  0  0  0  0  0  0  0  0  0  0
   -6.2181   -1.9400    0.0000 H   0  0  0  0  0  0  0  0  0  0  0  0
   -6.4302   -3.9575    0.0000 H   0  0  0  0  0  0  0  0  0  0  0  0
   -5.5035   -3.4225    0.0000 H   0  0  0  0  0  0  0  0  0  0  0  0
   -5.7158   -1.4050    0.0000 H   0  0  0  0  0  0  0  0  0  0  0  0
   -4.7892   -1.9400    0.0000 H   0  0  0  0  0  0  0  0  0  0  0  0
   -5.0013   -3.9575    0.0000 H   0  0  0  0  0  0  0  0  0  0  0  0
   -4.0747   -3.4225    0.0000 H   0  0  0  0  0  0  0  0  0  0  0  0
   -4.2868   -1.4050    0.0000 H   0  0  0  0  0  0  0  0  0  0  0  0
   -3.3601   -1.9400    0.0000 H   0  0  0  0  0  0  0  0  0  0  0  0
   -3.5724   -3.9575    0.0000 H   0  0  0  0  0  0  0  0  0  0  0  0
   -2.6458   -3.4225    0.0000 H   0  0  0  0  0  0  0  0  0  0  0  0
   -2.8579   -1.4050    0.0000 H   0  0  0  0  0  0  0  0  0  0  0  0
   -1.9313   -1.9400    0.0000 H   0  0  0  0  0  0  0  0  0  0  0  0
   -2.1434   -3.9575    0.0000 H   0  0  0  0  0  0  0  0  0  0  0  0
   -1.2168   -3.4225    0.0000 H   0  0  0  0  0  0  0  0  0  0  0  0
   -1.4289   -1.4050    0.0000 H   0  0  0  0  0  0  0  0  0  0  0  0
   -0.5022   -1.9400    0.0000 H   0  0  0  0  0  0  0  0  0  0  0  0
   -0.7145   -3.9575    0.0000 H   0  0  0  0  0  0  0  0  0  0  0  0
    0.2121   -3.4225    0.0000 H   0  0  0  0  0  0  0  0  0  0  0  0
    0.7145   -3.8720    0.0000 H   0  0  0  0  0  0  0  0  0  0  0  0
    0.5022   -1.9400    0.0000 H   0  0  0  0  0  0  0  0  0  0  0  0
    2.3556   -1.1150    0.0000 H   0  0  0  0  0  0  0  0  0  0  0  0
    1.4289   -0.5800    0.0000 H   0  0  0  0  0  0  0  0  0  0  0  0
   -0.2121   -0.9475    0.0000 H   0  0  0  0  0  0  0  0  0  0  0  0
   -0.9266    0.2900    0.0000 H   0  0  0  0  0  0  0  0  0  0  0  0
   -1.6411    0.7025    0.0000 H   0  0  0  0  0  0  0  0  0  0  0  0
   -1.6411    1.7725    0.0000 H   0  0  0  0  0  0  0  0  0  0  0  0
    0.1381    2.5547    0.0000 H   0  0  0  0  0  0  0  0  0  0  0  0
   -3.0700    2.5975    0.0000 H   0  0  0  0  0  0  0  0  0  0  0  0
   -2.1434    0.9925    0.0000 H   0  0  0  0  0  0  0  0  0  0  0  0
   -3.0701    1.5275    0.0000 H   0  0  0  0  0  0  0  0  0  0  0  0
   -0.2121    1.7725    0.0000 H   0  0  0  0  0  0  0  0  0  0  0  0
    1.5545    2.5475    0.0000 H   0  0  0  0  0  0  0  0  0  0  0  0
    1.4289    1.8950    0.0000 H   0  0  0  0  0  0  0  0  0  0  0  0
    2.9834    0.7525    0.0000 H   0  0  0  0  0  0  0  0  0  0  0  0
    2.3555    0.5350    0.0000 H   0  0  0  0  0  0  0  0  0  0  0  0
    2.1434   -1.3825    0.0000 H   0  0  0  0  0  0  0  0  0  0  0  0
    1.2168   -3.4225    0.0000 H   0  0  0  0  0  0  0  0  0  0  0  0
    1.3034   -4.1975    0.0000 H   0  0  0  0  0  0  0  0  0  0  0  0
    1.9313   -1.9400    0.0000 H   0  0  0  0  0  0  0  0  0  0  0  0
    3.6979   -1.1650    0.0000 H   0  0  0  0  0  0  0  0  0  0  0  0
    3.5724   -3.9575    0.0000 H   0  0  0  0  0  0  0  0  0  0  0  0
    4.4991   -3.4225    0.0000 H   0  0  0  0  0  0  0  0  0  0  0  0
    4.2868   -1.4050    0.0000 H   0  0  0  0  0  0  0  0  0  0  0  0
    5.2134   -1.9400    0.0000 H   0  0  0  0  0  0  0  0  0  0  0  0
    5.0013   -3.9575    0.0000 H   0  0  0  0  0  0  0  0  0  0  0  0
    5.9279   -3.4225    0.0000 H   0  0  0  0  0  0  0  0  0  0  0  0
    5.7158   -1.4050    0.0000 H   0  0  0  0  0  0  0  0  0  0  0  0
    6.6425   -1.9400    0.0000 H   0  0  0  0  0  0  0  0  0  0  0  0
    6.4302   -3.9575    0.0000 H   0  0  0  0  0  0  0  0  0  0  0  0
    7.3568   -3.4225    0.0000 H   0  0  0  0  0  0  0  0  0  0  0  0
    7.1447   -1.4050    0.0000 H   0  0  0  0  0  0  0  0  0  0  0  0
    8.0713   -1.9400    0.0000 H   0  0  0  0  0  0  0  0  0  0  0  0
    7.8592   -3.9575    0.0000 H   0  0  0  0  0  0  0  0  0  0  0  0
    8.7858   -3.4225    0.0000 H   0  0  0  0  0  0  0  0  0  0  0  0
    8.5737   -1.4050    0.0000 H   0  0  0  0  0  0  0  0  0  0  0  0
    9.5004   -1.9400    0.0000 H   0  0  0  0  0  0  0  0  0  0  0  0
    9.2881   -3.9575    0.0000 H   0  0  0  0  0  0  0  0  0  0  0  0
   10.2147   -3.4225    0.0000 H   0  0  0  0  0  0  0  0  0  0  0  0
   10.0026   -1.4050    0.0000 H   0  0  0  0  0  0  0  0  0  0  0  0
   10.9292   -1.9400    0.0000 H   0  0  0  0  0  0  0  0  0  0  0  0
   10.7171   -3.9575    0.0000 H   0  0  0  0  0  0  0  0  0  0  0  0
   11.6438   -3.4225    0.0000 H   0  0  0  0  0  0  0  0  0  0  0  0
   11.4315   -1.4050    0.0000 H   0  0  0  0  0  0  0  0  0  0  0  0
   12.3581   -1.9400    0.0000 H   0  0  0  0  0  0  0  0  0  0  0  0
   12.1460   -3.9575    0.0000 H   0  0  0  0  0  0  0  0  0  0  0  0
   13.0726   -3.4225    0.0000 H   0  0  0  0  0  0  0  0  0  0  0  0
   13.7871   -3.0100    0.0000 H   0  0  0  0  0  0  0  0  0  0  0  0
   12.8605   -1.4050    0.0000 H   0  0  0  0  0  0  0  0  0  0  0  0
   13.7872   -1.9400    0.0000 H   0  0  0  0  0  0  0  0  0  0  0  0
  1  2  1  0  0  0  0
  1 62  1  0  0  0  0
  1 63  1  0  0  0  0
  1 64  1  0  0  0  0
  2  3  1  0  0  0  0
  2 65  1  0  0  0  0
  2 66  1  0  0  0  0
  3  4  1  0  0  0  0
  3 67  1  0  0  0  0
  3 68  1  0  0  0  0
  4  5  1  0  0  0  0
  4 69  1  0  0  0  0
  4 70  1  0  0  0  0
  5  6  1  0  0  0  0
  5 71  1  0  0  0  0
  5 72  1  0  0  0  0
  6  7  1  0  0  0  0
  6 73  1  0  0  0  0
  6 74  1  0  0  0  0
  7  8  1  0  0  0  0
  7 75  1  0  0  0  0
  7 76  1  0  0  0  0
  8  9  1  0  0  0  0
  8 77  1  0  0  0  0
  8 78  1  0  0  0  0
  9 10  1  0  0  0  0
  9 79  1  0  0  0  0
  9 80  1  0  0  0  0
 10 11  1  0  0  0  0
 10 81  1  0  0  0  0
 10 82  1  0  0  0  0
 11 12  1  0  0  0  0
 11 83  1  0  0  0  0
 11 84  1  0  0  0  0
 12 13  1  0  0  0  0
 12 85  1  0  0  0  0
 12 86  1  0  0  0  0
 13 14  1  0  0  0  0
 13 87  1  0  0  0  0
 13 88  1  0  0  0  0
 14 15  1  0  0  0  0
 14 89  1  0  0  0  0
 14 90  1  0  0  0  0
 15 16  1  0  0  0  0
 15 91  1  0  0  0  0
 15 92  1  0  0  0  0
 16 17  1  0  0  0  0
 16 93  1  0  0  0  0
 16 94  1  0  0  0  0
 17 18  1  0  0  0  0
 17 95  1  0  0  0  0
 17 96  1  0  0  0  0
 18 19  1  0  0  0  0
 18 97  1  0  0  0  0
 18 98  1  0  0  0  0
 19 20  1  0  0  0  0
 19 99  1  0  0  0  0
 19100  1  0  0  0  0
 20 21  1  0  0  0  0
 20101  1  0  0  0  0
 20102  1  0  0  0  0
 21 22  1  0  0  0  0
 21103  1  0  0  0  0
 21104  1  0  0  0  0
 22 23  1  0  0  0  0
 22105  1  0  0  0  0
 22106  1  0  0  0  0
 23 24  1  0  0  0  0
 23107  1  0  0  0  0
 23108  1  0  0  0  0
 24 25  2  0  0  0  0
 24 26  1  0  0  0  0
 26109  1  0  0  0  0
 27 26  1  0  0  0  0
 27 28  1  0  0  0  0
 27110  1  6  0  0  0
 28 29  1  0  0  0  0
 28111  1  0  0  0  0
 28112  1  0  0  0  0
 30 29  1  0  0  0  0
 30 31  1  0  0  0  0
 30113  1  6  0  0  0
 32 31  1  0  0  0  0
 32 33  1  0  0  0  0
 32114  1  1  0  0  0
 33 34  1  0  0  0  0
 33115  1  0  0  0  0
 33116  1  0  0  0  0
 34 35  1  0  0  0  0
 34117  1  0  0  0  0
 35 36  1  0  0  0  0
 35 37  2  0  0  0  0
 36118  1  0  0  0  0
 36119  1  0  0  0  0
 36120  1  0  0  0  0
 38 32  1  0  0  0  0
 38 39  1  0  0  0  0
 38 40  1  0  0  0  0
 38121  1  1  0  0  0
 39122  1  0  0  0  0
 40 41  1  0  0  0  0
 40 42  1  0  0  0  0
 40123  1  1  0  0  0
 41124  1  0  0  0  0
 42 30  1  0  0  0  0
 42 43  1  0  0  0  0
 42125  1  6  0  0  0
 43126  1  0  0  0  0
 44 27  1  0  0  0  0
 44 45  1  0  0  0  0
 44 46  1  0  0  0  0
 44127  1  6  0  0  0
 45128  1  0  0  0  0
 46 47  1  0  0  0  0
 46 48  1  0  0  0  0
 46129  1  1  0  0  0
 47130  1  0  0  0  0
 48 49  1  0  0  0  0
 48131  1  0  0  0  0
 48132  1  0  0  0  0
 49 50  1  0  0  0  0
 49133  1  0  0  0  0
 49134  1  0  0  0  0
 50 51  1  0  0  0  0
 50135  1  0  0  0  0
 50136  1  0  0  0  0
 51 52  1  0  0  0  0
 51137  1  0  0  0  0
 51138  1  0  0  0  0
 52 53  1  0  0  0  0
 52139  1  0  0  0  0
 52140  1  0  0  0  0
 53 54  1  0  0  0  0
 53141  1  0  0  0  0
 53142  1  0  0  0  0
 54 55  1  0  0  0  0
 54143  1  0  0  0  0
 54144  1  0  0  0  0
 55 56  1  0  0  0  0
 55145  1  0  0  0  0
 55146  1  0  0  0  0
 56 57  1  0  0  0  0
 56147  1  0  0  0  0
 56148  1  0  0  0  0
 57 58  1  0  0  0  0
 57149  1  0  0  0  0
 57150  1  0  0  0  0
 58 59  1  0  0  0  0
 58151  1  0  0  0  0
 58152  1  0  0  0  0
 59 60  1  0  0  0  0
 59153  1  0  0  0  0
 59154  1  0  0  0  0
 60 61  1  0  0  0  0
 60155  1  0  0  0  0
 60156  1  0  0  0  0
 61157  1  0  0  0  0
 61158  1  0  0  0  0
 61159  1  0  0  0  0
M  END
>  <DRUGBANK_ID>
DB16339

>  <COMMON_NAME>
ABX-196

>  <CAS_NUMBER>
1161877-58-2

>  <UNII>
SOI87F7GN2

$$$$
