
 OpenBabel10282417072D

 97 99  0  0  1  0  0  0  0  0999 V2000
   -1.9991    1.1946    0.0000 H   0  0  0  0  0  0  0  0  0  0  0  0
   -1.7291    0.4151    0.0000 C   0  0  0  0  0  0  0  0  0  0  0  0
   -0.9190    0.2592    0.0000 C   0  0  1  0  0  0  0  0  0  0  0  0
   -0.3789    0.8828    0.0000 C   0  0  0  0  0  0  0  0  0  0  0  0
    0.4313    0.7269    0.0000 C   0  0  0  0  0  0  0  0  0  0  0  0
    0.7013   -0.0527    0.0000 C   0  0  0  0  0  0  0  0  0  0  0  0
    0.1612   -0.6763    0.0000 C   0  0  1  0  0  0  0  0  0  0  0  0
    0.4313   -1.4559    0.0000 C   0  0  0  0  0  0  0  0  0  0  0  0
   -0.1088   -2.0795    0.0000 H   0  0  0  0  0  0  0  0  0  0  0  0
   -0.6489   -0.5204    0.0000 N   0  0  0  0  0  0  0  0  0  0  0  0
   -1.1890   -1.1440    0.0000 C   0  0  0  0  0  0  0  0  0  0  0  0
   -0.9190   -1.9236    0.0000 O   0  0  0  0  0  0  0  0  0  0  0  0
   -1.9991   -0.9881    0.0000 N   0  0  0  0  0  0  0  0  0  0  0  0
   -2.5392   -1.6118    0.0000 C   0  0  1  0  0  0  0  0  0  0  0  0
   -3.3494   -1.4559    0.0000 C   0  0  0  0  0  0  0  0  0  0  0  0
   -3.6194   -0.6763    0.0000 C   0  0  0  0  0  0  0  0  0  0  0  0
   -2.8399   -0.4063    0.0000 C   0  0  0  0  0  0  0  0  0  0  0  0
   -4.3990   -0.9463    0.0000 C   0  0  0  0  0  0  0  0  0  0  0  0
   -3.8895    0.1032    0.0000 C   0  0  0  0  0  0  0  0  0  0  0  0
   -2.2692   -2.3913    0.0000 C   0  0  0  0  0  0  0  0  0  0  0  0
   -1.4591   -2.5472    0.0000 O   0  0  0  0  0  0  0  0  0  0  0  0
   -2.8093   -3.0150    0.0000 N   0  0  0  0  0  0  0  0  0  0  0  0
   -2.5392   -3.7945    0.0000 C   0  0  2  0  0  0  0  0  0  0  0  0
   -3.0793   -4.4182    0.0000 C   0  0  0  0  0  0  0  0  0  0  0  0
   -3.8895   -4.2622    0.0000 C   0  0  0  0  0  0  0  0  0  0  0  0
   -4.2395   -3.5152    0.0000 C   0  0  0  0  0  0  0  0  0  0  0  0
   -5.0582   -3.6173    0.0000 N   0  0  0  0  0  0  0  0  0  0  0  0
   -5.6219   -3.0149    0.0000 C   0  0  0  0  0  0  0  0  0  0  0  0
   -6.4255   -3.2020    0.0000 O   0  0  0  0  0  0  0  0  0  0  0  0
   -5.3822   -2.2255    0.0000 O   0  0  0  0  0  0  0  0  0  0  0  0
   -4.5787   -2.0385    0.0000 C   0  0  0  0  0  0  0  0  0  0  0  0
   -5.2141   -4.4274    0.0000 C   0  0  0  0  0  0  0  0  0  0  0  0
   -4.4918   -4.8260    0.0000 C   0  0  0  0  0  0  0  0  0  0  0  0
   -4.4758   -5.6509    0.0000 C   0  0  0  0  0  0  0  0  0  0  0  0
   -5.1822   -6.0771    0.0000 C   0  0  0  0  0  0  0  0  0  0  0  0
   -5.9045   -5.6785    0.0000 C   0  0  0  0  0  0  0  0  0  0  0  0
   -5.9205   -4.8536    0.0000 C   0  0  0  0  0  0  0  0  0  0  0  0
   -1.7291   -3.9504    0.0000 C   0  0  0  0  0  0  0  0  0  0  0  0
   -1.4591   -4.7300    0.0000 O   0  0  0  0  0  0  0  0  0  0  0  0
   -1.1890   -3.3268    0.0000 N   0  0  0  0  0  0  0  0  0  0  0  0
   -0.3789   -3.4827    0.0000 C   0  0  2  0  0  0  0  0  0  0  0  0
    0.1612   -2.8590    0.0000 C   0  0  0  0  0  0  0  0  0  0  0  0
    0.9713   -3.0150    0.0000 C   0  0  0  0  0  0  0  0  0  0  0  0
    1.5114   -2.3913    0.0000 C   0  0  0  0  0  0  0  0  0  0  0  0
    2.3216   -2.5472    0.0000 C   0  0  0  0  0  0  0  0  0  0  0  0
   -0.1088   -4.2622    0.0000 C   0  0  0  0  0  0  0  0  0  0  0  0
    0.7013   -4.4182    0.0000 O   0  0  0  0  0  0  0  0  0  0  0  0
   -0.6489   -4.8859    0.0000 O   0  0  0  0  0  0  0  0  0  0  0  0
   -2.4296   -0.3937    0.0000 H   0  0  0  0  0  0  0  0  0  0  0  0
   -1.3789   -0.5960    0.0000 H   0  0  0  0  0  0  0  0  0  0  0  0
   -1.2692    1.2703    0.0000 H   0  0  0  0  0  0  0  0  0  0  0  0
   -0.7291    1.8939    0.0000 H   0  0  0  0  0  0  0  0  0  0  0  0
    0.3216    1.6917    0.0000 H   0  0  0  0  0  0  0  0  0  0  0  0
    1.1318    1.5357    0.0000 H   0  0  0  0  0  0  0  0  0  0  0  0
    1.4820    0.5246    0.0000 H   0  0  0  0  0  0  0  0  0  0  0  0
    1.7520   -0.2550    0.0000 H   0  0  0  0  0  0  0  0  0  0  0  0
    1.0515   -1.0638    0.0000 H   0  0  0  0  0  0  0  0  0  0  0  0
    1.2119   -0.8785    0.0000 H   0  0  0  0  0  0  0  0  0  0  0  0
    1.4820   -1.6581    0.0000 H   0  0  0  0  0  0  0  0  0  0  0  0
    0.7815   -2.4670    0.0000 H   0  0  0  0  0  0  0  0  0  0  0  0
   -2.3214   -0.0578    0.0000 H   0  0  0  0  0  0  0  0  0  0  0  0
   -2.8895   -0.6008    0.0000 H   0  0  0  0  0  0  0  0  0  0  0  0
   -4.0499   -2.2647    0.0000 H   0  0  0  0  0  0  0  0  0  0  0  0
   -4.4001   -1.2536    0.0000 H   0  0  0  0  0  0  0  0  0  0  0  0
   -2.0311   -1.1068    0.0000 H   0  0  0  0  0  0  0  0  0  0  0  0
   -2.6377    0.6444    0.0000 H   0  0  0  0  0  0  0  0  0  0  0  0
   -1.8288   -0.0561    0.0000 H   0  0  0  0  0  0  0  0  0  0  0  0
   -5.2078   -0.2458    0.0000 H   0  0  0  0  0  0  0  0  0  0  0  0
   -4.6013   -1.9970    0.0000 H   0  0  0  0  0  0  0  0  0  0  0  0
   -5.4101   -1.2965    0.0000 H   0  0  0  0  0  0  0  0  0  0  0  0
   -3.1891    0.9121    0.0000 H   0  0  0  0  0  0  0  0  0  0  0  0
   -4.9402    0.3053    0.0000 H   0  0  0  0  0  0  0  0  0  0  0  0
   -4.2398    1.1142    0.0000 H   0  0  0  0  0  0  0  0  0  0  0  0
   -3.7761   -2.8290    0.0000 H   0  0  0  0  0  0  0  0  0  0  0  0
   -3.5899   -3.5924    0.0000 H   0  0  0  0  0  0  0  0  0  0  0  0
   -2.7291   -5.4293    0.0000 H   0  0  0  0  0  0  0  0  0  0  0  0
   -3.7798   -5.2270    0.0000 H   0  0  0  0  0  0  0  0  0  0  0  0
   -3.7409   -2.6117    0.0000 H   0  0  0  0  0  0  0  0  0  0  0  0
   -3.8476   -2.8198    0.0000 H   0  0  0  0  0  0  0  0  0  0  0  0
   -4.2677   -1.0147    0.0000 H   0  0  0  0  0  0  0  0  0  0  0  0
   -3.5366   -1.7960    0.0000 H   0  0  0  0  0  0  0  0  0  0  0  0
   -3.5723   -6.1495    0.0000 H   0  0  0  0  0  0  0  0  0  0  0  0
   -5.1623   -7.1089    0.0000 H   0  0  0  0  0  0  0  0  0  0  0  0
   -6.7881   -6.2117    0.0000 H   0  0  0  0  0  0  0  0  0  0  0  0
   -6.8240   -4.3550    0.0000 H   0  0  0  0  0  0  0  0  0  0  0  0
   -1.5112   -2.3965    0.0000 H   0  0  0  0  0  0  0  0  0  0  0  0
   -0.7292   -2.4717    0.0000 H   0  0  0  0  0  0  0  0  0  0  0  0
   -0.1890   -1.8479    0.0000 H   0  0  0  0  0  0  0  0  0  0  0  0
    0.8617   -2.0502    0.0000 H   0  0  0  0  0  0  0  0  0  0  0  0
    1.3215   -4.0261    0.0000 H   0  0  0  0  0  0  0  0  0  0  0  0
    2.0220   -3.2172    0.0000 H   0  0  0  0  0  0  0  0  0  0  0  0
    1.1611   -1.3803    0.0000 H   0  0  0  0  0  0  0  0  0  0  0  0
    2.2119   -1.5824    0.0000 H   0  0  0  0  0  0  0  0  0  0  0  0
    2.6719   -3.5582    0.0000 H   0  0  0  0  0  0  0  0  0  0  0  0
    3.0221   -1.7383    0.0000 H   0  0  0  0  0  0  0  0  0  0  0  0
    3.3723   -2.7494    0.0000 H   0  0  0  0  0  0  0  0  0  0  0  0
    1.0079   -5.3036    0.0000 H   0  0  0  0  0  0  0  0  0  0  0  0
  1  2  1  0  0  0  0
  2 49  1  0  0  0  0
  2 50  1  0  0  0  0
  3  2  1  0  0  0  0
  3  4  1  0  0  0  0
  3 10  1  0  0  0  0
  3 51  1  6  0  0  0
  4  5  1  0  0  0  0
  4 52  1  0  0  0  0
  4 53  1  0  0  0  0
  5  6  1  0  0  0  0
  5 54  1  0  0  0  0
  5 55  1  0  0  0  0
  6 56  1  0  0  0  0
  6 57  1  0  0  0  0
  7  6  1  0  0  0  0
  7  8  1  0  0  0  0
  7 10  1  0  0  0  0
  7 58  1  6  0  0  0
  8  9  1  0  0  0  0
  8 59  1  0  0  0  0
  8 60  1  0  0  0  0
 10 11  1  0  0  0  0
 11 12  2  0  0  0  0
 11 13  1  0  0  0  0
 13 61  1  0  0  0  0
 14 13  1  0  0  0  0
 14 15  1  0  0  0  0
 14 20  1  0  0  0  0
 14 62  1  1  0  0  0
 15 16  1  0  0  0  0
 15 63  1  0  0  0  0
 15 64  1  0  0  0  0
 16 17  1  0  0  0  0
 16 18  1  0  0  0  0
 16 19  1  0  0  0  0
 17 65  1  0  0  0  0
 17 66  1  0  0  0  0
 17 67  1  0  0  0  0
 18 68  1  0  0  0  0
 18 69  1  0  0  0  0
 18 70  1  0  0  0  0
 19 71  1  0  0  0  0
 19 72  1  0  0  0  0
 19 73  1  0  0  0  0
 20 21  2  0  0  0  0
 20 22  1  0  0  0  0
 22 74  1  0  0  0  0
 23 22  1  0  0  0  0
 23 24  1  0  0  0  0
 23 38  1  0  0  0  0
 23 75  1  6  0  0  0
 24 25  1  0  0  0  0
 24 76  1  0  0  0  0
 24 77  1  0  0  0  0
 25 26  2  0  0  0  0
 25 33  1  0  0  0  0
 26 27  1  0  0  0  0
 26 78  1  0  0  0  0
 27 28  1  0  0  0  0
 27 32  1  0  0  0  0
 28 29  2  0  0  0  0
 28 30  1  0  0  0  0
 30 31  1  0  0  0  0
 31 79  1  0  0  0  0
 31 80  1  0  0  0  0
 31 81  1  0  0  0  0
 32 33  2  0  0  0  0
 32 37  1  0  0  0  0
 33 34  1  0  0  0  0
 34 35  2  0  0  0  0
 34 82  1  0  0  0  0
 35 36  1  0  0  0  0
 35 83  1  0  0  0  0
 36 37  2  0  0  0  0
 36 84  1  0  0  0  0
 37 85  1  0  0  0  0
 38 39  2  0  0  0  0
 38 40  1  0  0  0  0
 40 86  1  0  0  0  0
 41 40  1  0  0  0  0
 41 42  1  0  0  0  0
 41 46  1  0  0  0  0
 41 87  1  1  0  0  0
 42 43  1  0  0  0  0
 42 88  1  0  0  0  0
 42 89  1  0  0  0  0
 43 44  1  0  0  0  0
 43 90  1  0  0  0  0
 43 91  1  0  0  0  0
 44 45  1  0  0  0  0
 44 92  1  0  0  0  0
 44 93  1  0  0  0  0
 45 94  1  0  0  0  0
 45 95  1  0  0  0  0
 45 96  1  0  0  0  0
 46 47  1  0  0  0  0
 46 48  2  0  0  0  0
 47 97  1  0  0  0  0
M  ISO  2   1   2   9   2
M  END
>  <DRUGBANK_ID>
DB17410

>  <COMMON_NAME>
Vodudeutentan

>  <CAS_NUMBER>
2364365-83-1

>  <UNII>
2YCH69X4OX

>  <SYNONYMS>
BQ-788 free acid, di(methyl-d)-; D-norleucine, n-((cis-2,6-di(methyl-d)-1-piperidinyl)carbonyl)-4-methyl-l-leucyl-1-(methoxycarbonyl)-d-tryptophyl-; Vodudeutentan

$$$$
