
 OpenBabel10282417072D

 42 42  0  0  0  0  0  0  0  0999 V2000
   -1.0716   -0.2062    0.0000 C   0  0  0  0  0  0  0  0  0  0  0  0
   -1.0716    0.6187    0.0000 C   0  0  0  0  0  0  0  0  0  0  0  0
   -1.7861   -0.6187    0.0000 C   0  0  0  0  0  0  0  0  0  0  0  0
   -0.3572   -0.6187    0.0000 N   0  0  0  0  0  0  0  0  0  0  0  0
   -1.7861    1.0312    0.0000 C   0  0  0  0  0  0  0  0  0  0  0  0
   -0.3572    1.0312    0.0000 C   0  0  0  0  0  0  0  0  0  0  0  0
   -2.5006   -0.2062    0.0000 C   0  0  0  0  0  0  0  0  0  0  0  0
   -1.7861   -1.4437    0.0000 C   0  0  0  0  0  0  0  0  0  0  0  0
    0.3572   -0.2062    0.0000 C   0  0  0  0  0  0  0  0  0  0  0  0
   -2.5006    0.6187    0.0000 C   0  0  0  0  0  0  0  0  0  0  0  0
   -1.7861    1.8562    0.0000 Br  0  0  0  0  0  0  0  0  0  0  0  0
    1.0717   -0.6187    0.0000 C   0  0  0  0  0  0  0  0  0  0  0  0
    0.3572    0.6187    0.0000 O   0  0  0  0  0  0  0  0  0  0  0  0
   -3.2151    1.0312    0.0000 C   0  0  0  0  0  0  0  0  0  0  0  0
    1.7861   -0.2062    0.0000 N   0  0  0  0  0  0  0  0  0  0  0  0
    2.5006   -0.6187    0.0000 C   0  0  0  0  0  0  0  0  0  0  0  0
    1.7861    0.6187    0.0000 C   0  0  0  0  0  0  0  0  0  0  0  0
    2.5006   -1.4437    0.0000 C   0  0  0  0  0  0  0  0  0  0  0  0
    2.5006    1.0312    0.0000 C   0  0  0  0  0  0  0  0  0  0  0  0
    3.2151   -1.8562    0.0000 O   0  0  0  0  0  0  0  0  0  0  0  0
    1.7861   -1.8562    0.0000 O   0  0  0  0  0  0  0  0  0  0  0  0
    3.2151    0.6187    0.0000 O   0  0  0  0  0  0  0  0  0  0  0  0
    2.5006    1.8562    0.0000 O   0  0  0  0  0  0  0  0  0  0  0  0
   -0.3572   -1.6032    0.0000 H   0  0  0  0  0  0  0  0  0  0  0  0
    0.5695    0.4962    0.0000 H   0  0  0  0  0  0  0  0  0  0  0  0
   -0.3572    2.1012    0.0000 H   0  0  0  0  0  0  0  0  0  0  0  0
    0.5694    1.5662    0.0000 H   0  0  0  0  0  0  0  0  0  0  0  0
   -3.3943   -0.7222    0.0000 H   0  0  0  0  0  0  0  0  0  0  0  0
   -2.7127   -1.9787    0.0000 H   0  0  0  0  0  0  0  0  0  0  0  0
   -0.8595   -1.9787    0.0000 H   0  0  0  0  0  0  0  0  0  0  0  0
   -1.7861   -2.5137    0.0000 H   0  0  0  0  0  0  0  0  0  0  0  0
    1.0717   -1.6887    0.0000 H   0  0  0  0  0  0  0  0  0  0  0  0
    1.9984   -1.1537    0.0000 H   0  0  0  0  0  0  0  0  0  0  0  0
   -3.2151    2.1012    0.0000 H   0  0  0  0  0  0  0  0  0  0  0  0
   -4.1417    0.4962    0.0000 H   0  0  0  0  0  0  0  0  0  0  0  0
   -4.1418    1.5662    0.0000 H   0  0  0  0  0  0  0  0  0  0  0  0
    3.4272   -0.0837    0.0000 H   0  0  0  0  0  0  0  0  0  0  0  0
    3.4272   -1.1537    0.0000 H   0  0  0  0  0  0  0  0  0  0  0  0
    0.8595    1.1537    0.0000 H   0  0  0  0  0  0  0  0  0  0  0  0
    1.7861    1.6887    0.0000 H   0  0  0  0  0  0  0  0  0  0  0  0
    3.2151   -2.7932    0.0000 H   0  0  0  0  0  0  0  0  0  0  0  0
    3.2151   -0.3183    0.0000 H   0  0  0  0  0  0  0  0  0  0  0  0
  1  2  2  0  0  0  0
  1  3  1  0  0  0  0
  1  4  1  0  0  0  0
  2  5  1  0  0  0  0
  2  6  1  0  0  0  0
  3  7  2  0  0  0  0
  3  8  1  0  0  0  0
  4  9  1  0  0  0  0
  4 24  1  0  0  0  0
  5 10  2  0  0  0  0
  5 11  1  0  0  0  0
  6 25  1  0  0  0  0
  6 26  1  0  0  0  0
  6 27  1  0  0  0  0
  7 10  1  0  0  0  0
  7 28  1  0  0  0  0
  8 29  1  0  0  0  0
  8 30  1  0  0  0  0
  8 31  1  0  0  0  0
  9 12  1  0  0  0  0
  9 13  2  0  0  0  0
 10 14  1  0  0  0  0
 12 15  1  0  0  0  0
 12 32  1  0  0  0  0
 12 33  1  0  0  0  0
 14 34  1  0  0  0  0
 14 35  1  0  0  0  0
 14 36  1  0  0  0  0
 15 16  1  0  0  0  0
 15 17  1  0  0  0  0
 16 18  1  0  0  0  0
 16 37  1  0  0  0  0
 16 38  1  0  0  0  0
 17 19  1  0  0  0  0
 17 39  1  0  0  0  0
 17 40  1  0  0  0  0
 18 20  1  0  0  0  0
 18 21  2  0  0  0  0
 19 22  1  0  0  0  0
 19 23  2  0  0  0  0
 20 41  1  0  0  0  0
 22 42  1  0  0  0  0
M  END
>  <DRUGBANK_ID>
DB15779

>  <COMMON_NAME>
Mebrofenin

>  <CAS_NUMBER>
78266-06-5

>  <UNII>
7PV0B6ED98

>  <SYNONYMS>
Mebrofenin; Mebrofenine; Mebrofenino; Mebrofeninum

$$$$
