
 OpenBabel10282417072D

 33 34  0  0  0  0  0  0  0  0999 V2000
    4.5615   -4.9343    0.0000 C   0  0  0  0  0  0  0  0  0  0  0  0
    3.8470   -4.5218    0.0000 C   0  0  0  0  0  0  0  0  0  0  0  0
    5.2760   -3.6968    0.0000 C   0  0  0  0  0  0  0  0  0  0  0  0
    5.2760   -4.5218    0.0000 C   0  0  0  0  0  0  0  0  0  0  0  0
    4.5615   -3.2843    0.0000 C   0  0  0  0  0  0  0  0  0  0  0  0
    3.8470   -3.6968    0.0000 C   0  0  0  0  0  0  0  0  0  0  0  0
    6.0605   -4.7767    0.0000 N   0  0  0  0  0  0  0  0  0  0  0  0
    6.5454   -4.1093    0.0000 C   0  0  0  0  0  0  0  0  0  0  0  0
    7.1224   -2.4857    0.0000 C   0  0  0  0  0  0  0  0  0  0  0  0
    6.0605   -3.4419    0.0000 C   0  0  0  0  0  0  0  0  0  0  0  0
    6.3154   -2.6573    0.0000 C   0  0  0  0  0  0  0  0  0  0  0  0
    8.1843   -1.5297    0.0000 C   0  0  0  0  0  0  0  0  0  0  0  0
    7.3773   -1.7012    0.0000 N   0  0  0  0  0  0  0  0  0  0  0  0
    8.7363   -2.1427    0.0000 O   0  0  0  0  0  0  0  0  0  0  0  0
    8.4393   -0.7450    0.0000 C   0  0  0  0  0  0  0  0  0  0  0  0
    3.1326   -3.2843    0.0000 O   0  0  0  0  0  0  0  0  0  0  0  0
    2.4181   -3.6968    0.0000 C   0  0  0  0  0  0  0  0  0  0  0  0
    4.5615   -5.9663    0.0000 H   0  0  0  0  0  0  0  0  0  0  0  0
    2.9533   -5.0378    0.0000 H   0  0  0  0  0  0  0  0  0  0  0  0
    4.5615   -2.2523    0.0000 H   0  0  0  0  0  0  0  0  0  0  0  0
    6.3647   -5.7130    0.0000 H   0  0  0  0  0  0  0  0  0  0  0  0
    7.5774   -4.1093    0.0000 H   0  0  0  0  0  0  0  0  0  0  0  0
    7.8384   -3.2808    0.0000 H   0  0  0  0  0  0  0  0  0  0  0  0
    6.7918   -3.5034    0.0000 H   0  0  0  0  0  0  0  0  0  0  0  0
    5.5994   -1.8622    0.0000 H   0  0  0  0  0  0  0  0  0  0  0  0
    5.2688   -2.8798    0.0000 H   0  0  0  0  0  0  0  0  0  0  0  0
    6.7186   -0.9696    0.0000 H   0  0  0  0  0  0  0  0  0  0  0  0
    9.4859   -0.5226    0.0000 H   0  0  0  0  0  0  0  0  0  0  0  0
    7.7234    0.0502    0.0000 H   0  0  0  0  0  0  0  0  0  0  0  0
    8.7700    0.2726    0.0000 H   0  0  0  0  0  0  0  0  0  0  0  0
    1.4915   -3.1618    0.0000 H   0  0  0  0  0  0  0  0  0  0  0  0
    2.4181   -4.7668    0.0000 H   0  0  0  0  0  0  0  0  0  0  0  0
    1.4914   -4.2318    0.0000 H   0  0  0  0  0  0  0  0  0  0  0  0
  1  4  2  0  0  0  0
  1 18  1  0  0  0  0
  2  1  1  0  0  0  0
  2  6  2  0  0  0  0
  2 19  1  0  0  0  0
  4  3  1  0  0  0  0
  4  7  1  0  0  0  0
  5  3  2  0  0  0  0
  5 20  1  0  0  0  0
  6  5  1  0  0  0  0
  7 21  1  0  0  0  0
  8  7  1  0  0  0  0
  8 22  1  0  0  0  0
  9 11  1  0  0  0  0
  9 23  1  0  0  0  0
  9 24  1  0  0  0  0
 10  3  1  0  0  0  0
 10  8  2  0  0  0  0
 11 10  1  0  0  0  0
 11 25  1  0  0  0  0
 11 26  1  0  0  0  0
 13  9  1  0  0  0  0
 13 12  1  0  0  0  0
 13 27  1  0  0  0  0
 14 12  2  0  0  0  0
 15 12  1  0  0  0  0
 15 28  1  0  0  0  0
 15 29  1  0  0  0  0
 15 30  1  0  0  0  0
 16  6  1  0  0  0  0
 16 17  1  0  0  0  0
 17 31  1  0  0  0  0
 17 32  1  0  0  0  0
 17 33  1  0  0  0  0
M  END
>  <DRUGBANK_ID>
DB01065

>  <SECONDARY_ACCESSION_NUMBERS>
APRD00742; DB08189

>  <COMMON_NAME>
Melatonin

>  <CAS_NUMBER>
73-31-4

>  <UNII>
JL5DK93RCL

>  <SYNONYMS>
5-methoxy-N-acetyltryptamine; Melatonin; Melatonina; MÃ©latonine; N-[2-(5-methoxyindol-3-yl)ethyl]acetamide; N-Acetyl-5-methoxytryptamine

$$$$
