
 OpenBabel10282417072D

 26 28  0  0  1  0  0  0  0  0999 V2000
    5.0807    0.3730    0.0000 O   0  0  0  0  0  0  0  0  0  0  0  0
    4.4568    0.9128    0.0000 C   0  0  0  0  0  0  0  0  0  0  0  0
    3.6774    0.6425    0.0000 C   0  0  1  0  0  0  0  0  0  0  0  0
    3.0005    1.1142    0.0000 O   0  0  0  0  0  0  0  0  0  0  0  0
    2.3427    0.6162    0.0000 C   0  0  2  0  0  0  0  0  0  0  0  0
    2.6131   -0.1633    0.0000 C   0  0  1  0  0  0  0  0  0  0  0  0
    1.9554   -0.6613    0.0000 O   0  0  0  0  0  0  0  0  0  0  0  0
    1.2785   -0.1896    0.0000 C   0  0  0  0  0  0  0  0  0  0  0  0
    0.4750   -0.3770    0.0000 N   0  0  0  0  0  0  0  0  0  0  0  0
   -0.0890    0.2251    0.0000 C   0  0  0  0  0  0  0  0  0  0  0  0
   -0.8924    0.0377    0.0000 O   0  0  0  0  0  0  0  0  0  0  0  0
    0.1505    1.0146    0.0000 C   0  0  0  0  0  0  0  0  0  0  0  0
    0.9539    1.2020    0.0000 C   0  0  0  0  0  0  0  0  0  0  0  0
    1.5179    0.5999    0.0000 N   0  0  0  0  0  0  0  0  0  0  0  0
    3.4379   -0.1470    0.0000 C   0  0  2  0  0  0  0  0  0  0  0  0
    3.9359   -0.8048    0.0000 O   0  0  0  0  0  0  0  0  0  0  0  0
    4.8978   -0.5796    0.0000 H   0  0  0  0  0  0  0  0  0  0  0  0
    4.6586    1.9636    0.0000 H   0  0  0  0  0  0  0  0  0  0  0  0
    3.6477    1.6130    0.0000 H   0  0  0  0  0  0  0  0  0  0  0  0
    3.8239    1.7024    0.0000 H   0  0  0  0  0  0  0  0  0  0  0  0
    3.3667    0.3057    0.0000 H   0  0  0  0  0  0  0  0  0  0  0  0
    1.5891    0.1472    0.0000 H   0  0  0  0  0  0  0  0  0  0  0  0
   -0.5550    1.7678    0.0000 H   0  0  0  0  0  0  0  0  0  0  0  0
    1.2534    2.1896    0.0000 H   0  0  0  0  0  0  0  0  0  0  0  0
    2.9710   -1.1098    0.0000 H   0  0  0  0  0  0  0  0  0  0  0  0
    3.5589   -1.6985    0.0000 H   0  0  0  0  0  0  0  0  0  0  0  0
  1  2  1  0  0  0  0
  1 17  1  0  0  0  0
  2 18  1  0  0  0  0
  2 19  1  0  0  0  0
  3  2  1  0  0  0  0
  3  4  1  0  0  0  0
  3 15  1  0  0  0  0
  3 20  1  1  0  0  0
  5  4  1  0  0  0  0
  5  6  1  0  0  0  0
  5 14  1  0  0  0  0
  5 21  1  1  0  0  0
  6  7  1  0  0  0  0
  6 15  1  0  0  0  0
  6 22  1  1  0  0  0
  7  8  1  0  0  0  0
  8  9  2  0  0  0  0
  8 14  1  0  0  0  0
  9 10  1  0  0  0  0
 10 11  2  0  0  0  0
 10 12  1  0  0  0  0
 12 13  2  0  0  0  0
 12 23  1  0  0  0  0
 13 14  1  0  0  0  0
 13 24  1  0  0  0  0
 15 16  1  0  0  0  0
 15 25  1  6  0  0  0
 16 26  1  0  0  0  0
M  END
>  <DRUGBANK_ID>
DB04627

>  <COMMON_NAME>
Cyclouridine

>  <CAS_NUMBER>
3736-77-4

>  <UNII>
N9APX1AAR4

>  <SYNONYMS>
2,2'-Anhydrouridine; 2,2'-O-Cyclouridine; O2,2'-Cyclouridine

$$$$
