CRZ
 OpenBabel10282417072D

 34 36  0  0  0  0  0  0  0  0999 V2000
   -3.4005   -0.7154    0.0000 O   0  0  0  0  0  0  0  0  0  0  0  0
   -2.6861   -0.3029    0.0000 C   0  0  0  0  0  0  0  0  0  0  0  0
   -2.6861    0.5221    0.0000 O   0  0  0  0  0  0  0  0  0  0  0  0
   -1.9716   -0.7154    0.0000 C   0  0  0  0  0  0  0  0  0  0  0  0
   -1.2571   -0.3029    0.0000 C   0  0  0  0  0  0  0  0  0  0  0  0
   -0.5427   -0.7154    0.0000 C   0  0  0  0  0  0  0  0  0  0  0  0
    0.1718   -0.3029    0.0000 N   0  0  0  0  0  0  0  0  0  0  0  0
    0.9255   -0.6385    0.0000 C   0  0  0  0  0  0  0  0  0  0  0  0
    1.1804   -1.4231    0.0000 C   0  0  0  0  0  0  0  0  0  0  0  0
    1.4775   -0.0254    0.0000 C   0  0  0  0  0  0  0  0  0  0  0  0
    2.2845   -0.1969    0.0000 C   0  0  0  0  0  0  0  0  0  0  0  0
    2.5394   -0.9815    0.0000 C   0  0  0  0  0  0  0  0  0  0  0  0
    1.9874   -1.5946    0.0000 C   0  0  0  0  0  0  0  0  0  0  0  0
    1.0650    0.6891    0.0000 C   0  0  0  0  0  0  0  0  0  0  0  0
    0.2580    0.5175    0.0000 C   0  0  0  0  0  0  0  0  0  0  0  0
   -0.2940    1.1306    0.0000 C   0  0  0  0  0  0  0  0  0  0  0  0
    1.3200    1.4737    0.0000 C   0  0  0  0  0  0  0  0  0  0  0  0
    0.7679    2.0868    0.0000 C   0  0  0  0  0  0  0  0  0  0  0  0
   -0.0391    1.9153    0.0000 C   0  0  0  0  0  0  0  0  0  0  0  0
   -4.2120   -0.2469    0.0000 H   0  0  0  0  0  0  0  0  0  0  0  0
   -1.9716   -1.7854    0.0000 H   0  0  0  0  0  0  0  0  0  0  0  0
   -1.0450   -1.2504    0.0000 H   0  0  0  0  0  0  0  0  0  0  0  0
   -1.2571    0.7671    0.0000 H   0  0  0  0  0  0  0  0  0  0  0  0
   -0.3304    0.2321    0.0000 H   0  0  0  0  0  0  0  0  0  0  0  0
   -0.5427   -1.7854    0.0000 H   0  0  0  0  0  0  0  0  0  0  0  0
    0.3839   -1.2504    0.0000 H   0  0  0  0  0  0  0  0  0  0  0  0
    0.4899   -2.1900    0.0000 H   0  0  0  0  0  0  0  0  0  0  0  0
    2.9750    0.5700    0.0000 H   0  0  0  0  0  0  0  0  0  0  0  0
    3.5488   -1.1961    0.0000 H   0  0  0  0  0  0  0  0  0  0  0  0
    2.3063   -2.5761    0.0000 H   0  0  0  0  0  0  0  0  0  0  0  0
   -1.3034    0.9160    0.0000 H   0  0  0  0  0  0  0  0  0  0  0  0
    2.3295    1.6883    0.0000 H   0  0  0  0  0  0  0  0  0  0  0  0
    1.0868    3.0683    0.0000 H   0  0  0  0  0  0  0  0  0  0  0  0
   -0.7297    2.6822    0.0000 H   0  0  0  0  0  0  0  0  0  0  0  0
  1  2  1  0  0  0  0
  1 20  1  0  0  0  0
  2  3  2  0  0  0  0
  2  4  1  0  0  0  0
  4  5  1  0  0  0  0
  4 21  1  0  0  0  0
  4 22  1  0  0  0  0
  5  6  1  0  0  0  0
  5 23  1  0  0  0  0
  5 24  1  0  0  0  0
  6  7  1  0  0  0  0
  6 25  1  0  0  0  0
  6 26  1  0  0  0  0
  7  8  1  0  0  0  0
  7 15  1  0  0  0  0
  8  9  2  0  0  0  0
  8 10  1  0  0  0  0
  9 13  1  0  0  0  0
  9 27  1  0  0  0  0
 10 11  2  0  0  0  0
 10 14  1  0  0  0  0
 11 12  1  0  0  0  0
 11 28  1  0  0  0  0
 12 13  2  0  0  0  0
 12 29  1  0  0  0  0
 13 30  1  0  0  0  0
 14 15  2  0  0  0  0
 14 17  1  0  0  0  0
 15 16  1  0  0  0  0
 16 19  2  0  0  0  0
 16 31  1  0  0  0  0
 17 18  2  0  0  0  0
 17 32  1  0  0  0  0
 18 19  1  0  0  0  0
 18 33  1  0  0  0  0
 19 34  1  0  0  0  0
M  END
>  <DRUGBANK_ID>
DB03851

>  <SECONDARY_ACCESSION_NUMBERS>
EXPT01028

>  <COMMON_NAME>
Carbazole Butanoic Acid

$$$$
