6IN
 OpenBabel10282417072D

 52 54  0  0  0  0  0  0  0  0999 V2000
    0.8492   -1.3827    0.0000 C   0  0  0  0  0  0  0  0  0  0  0  0
    0.1347   -1.7952    0.0000 C   0  0  0  0  0  0  0  0  0  0  0  0
   -0.5798   -1.3827    0.0000 C   0  0  0  0  0  0  0  0  0  0  0  0
   -0.5798   -0.5577    0.0000 C   0  0  0  0  0  0  0  0  0  0  0  0
    0.1347   -0.1452    0.0000 C   0  0  0  0  0  0  0  0  0  0  0  0
    0.8492   -0.5577    0.0000 C   0  0  0  0  0  0  0  0  0  0  0  0
   -1.1929   -0.0056    0.0000 N   0  0  0  0  0  0  0  0  0  0  0  0
   -0.8573    0.7481    0.0000 C   0  0  0  0  0  0  0  0  0  0  0  0
   -0.0368    0.6618    0.0000 C   0  0  0  0  0  0  0  0  0  0  0  0
   -1.9998   -0.1772    0.0000 C   0  0  0  0  0  0  0  0  0  0  0  0
   -2.5519    0.4359    0.0000 C   0  0  0  0  0  0  0  0  0  0  0  0
   -3.3588    0.2644    0.0000 C   0  0  0  0  0  0  0  0  0  0  0  0
   -3.9109    0.8775    0.0000 C   0  0  0  0  0  0  0  0  0  0  0  0
   -3.6559    1.6621    0.0000 C   0  0  0  0  0  0  0  0  0  0  0  0
   -2.8490    1.8337    0.0000 C   0  0  0  0  0  0  0  0  0  0  0  0
   -2.2969    1.2206    0.0000 C   0  0  0  0  0  0  0  0  0  0  0  0
   -1.2698    1.4625    0.0000 C   0  0  0  0  0  0  0  0  0  0  0  0
    0.5152    1.2749    0.0000 C   0  0  0  0  0  0  0  0  0  0  0  0
    0.2603    2.0595    0.0000 C   0  0  0  0  0  0  0  0  0  0  0  0
   -0.5467    2.2311    0.0000 N   0  0  0  0  0  0  0  0  0  0  0  0
    0.8123    2.6726    0.0000 O   0  0  0  0  0  0  0  0  0  0  0  0
    1.5637   -1.7952    0.0000 O   0  0  0  0  0  0  0  0  0  0  0  0
    2.2781   -1.3827    0.0000 C   0  0  0  0  0  0  0  0  0  0  0  0
    2.9926   -1.7952    0.0000 C   0  0  0  0  0  0  0  0  0  0  0  0
    3.7071   -1.3827    0.0000 C   0  0  0  0  0  0  0  0  0  0  0  0
    4.4215   -1.7952    0.0000 C   0  0  0  0  0  0  0  0  0  0  0  0
    5.1360   -1.3827    0.0000 O   0  0  0  0  0  0  0  0  0  0  0  0
    4.4215   -2.6202    0.0000 O   0  0  0  0  0  0  0  0  0  0  0  0
    0.1347   -2.8272    0.0000 H   0  0  0  0  0  0  0  0  0  0  0  0
   -1.4735   -1.8987    0.0000 H   0  0  0  0  0  0  0  0  0  0  0  0
    1.7429   -0.0417    0.0000 H   0  0  0  0  0  0  0  0  0  0  0  0
   -2.3304   -1.1949    0.0000 H   0  0  0  0  0  0  0  0  0  0  0  0
   -3.0464   -0.3997    0.0000 H   0  0  0  0  0  0  0  0  0  0  0  0
   -3.6777   -0.7171    0.0000 H   0  0  0  0  0  0  0  0  0  0  0  0
   -4.9204    0.6629    0.0000 H   0  0  0  0  0  0  0  0  0  0  0  0
   -4.3465    2.4290    0.0000 H   0  0  0  0  0  0  0  0  0  0  0  0
   -2.5302    2.8152    0.0000 H   0  0  0  0  0  0  0  0  0  0  0  0
   -1.2875    1.4352    0.0000 H   0  0  0  0  0  0  0  0  0  0  0  0
   -0.7348    2.3892    0.0000 H   0  0  0  0  0  0  0  0  0  0  0  0
   -2.3398    1.4625    0.0000 H   0  0  0  0  0  0  0  0  0  0  0  0
   -1.8048    2.3891    0.0000 H   0  0  0  0  0  0  0  0  0  0  0  0
    1.5618    1.0524    0.0000 H   0  0  0  0  0  0  0  0  0  0  0  0
    1.2312    2.0701    0.0000 H   0  0  0  0  0  0  0  0  0  0  0  0
   -0.8509    3.1674    0.0000 H   0  0  0  0  0  0  0  0  0  0  0  0
   -1.2055    1.4995    0.0000 H   0  0  0  0  0  0  0  0  0  0  0  0
    2.2781   -0.3127    0.0000 H   0  0  0  0  0  0  0  0  0  0  0  0
    3.2047   -0.8477    0.0000 H   0  0  0  0  0  0  0  0  0  0  0  0
    2.9926   -2.8652    0.0000 H   0  0  0  0  0  0  0  0  0  0  0  0
    3.9192   -2.3302    0.0000 H   0  0  0  0  0  0  0  0  0  0  0  0
    3.7071   -0.3127    0.0000 H   0  0  0  0  0  0  0  0  0  0  0  0
    4.6338   -0.8477    0.0000 H   0  0  0  0  0  0  0  0  0  0  0  0
    5.9475   -1.8512    0.0000 H   0  0  0  0  0  0  0  0  0  0  0  0
  1  2  1  0  0  0  0
  1  6  2  0  0  0  0
  1 22  1  0  0  0  0
  2  3  2  0  0  0  0
  2 29  1  0  0  0  0
  3  4  1  0  0  0  0
  3 30  1  0  0  0  0
  4  5  2  0  0  0  0
  4  7  1  0  0  0  0
  5  6  1  0  0  0  0
  5  9  1  0  0  0  0
  6 31  1  0  0  0  0
  7  8  1  0  0  0  0
  7 10  1  0  0  0  0
  8  9  2  0  0  0  0
  8 17  1  0  0  0  0
  9 18  1  0  0  0  0
 10 11  1  0  0  0  0
 10 32  1  0  0  0  0
 10 33  1  0  0  0  0
 11 12  2  0  0  0  0
 11 16  1  0  0  0  0
 12 13  1  0  0  0  0
 12 34  1  0  0  0  0
 13 14  2  0  0  0  0
 13 35  1  0  0  0  0
 14 15  1  0  0  0  0
 14 36  1  0  0  0  0
 15 16  2  0  0  0  0
 15 37  1  0  0  0  0
 16 38  1  0  0  0  0
 17 39  1  0  0  0  0
 17 40  1  0  0  0  0
 17 41  1  0  0  0  0
 18 19  1  0  0  0  0
 18 42  1  0  0  0  0
 18 43  1  0  0  0  0
 19 20  1  0  0  0  0
 19 21  2  0  0  0  0
 20 44  1  0  0  0  0
 20 45  1  0  0  0  0
 22 23  1  0  0  0  0
 23 24  1  0  0  0  0
 23 46  1  0  0  0  0
 23 47  1  0  0  0  0
 24 25  1  0  0  0  0
 24 48  1  0  0  0  0
 24 49  1  0  0  0  0
 25 26  1  0  0  0  0
 25 50  1  0  0  0  0
 25 51  1  0  0  0  0
 26 27  1  0  0  0  0
 26 28  2  0  0  0  0
 27 52  1  0  0  0  0
M  END
>  <DRUGBANK_ID>
DB02936

>  <SECONDARY_ACCESSION_NUMBERS>
EXPT00286

>  <COMMON_NAME>
4-(1-Benzyl-3-Carbamoylmethyl-2-Methyl-1h-Indol-5-Yloxy)-Butyric Acid

$$$$
