
 OpenBabel10282417072D

 53 56  0  0  0  0  0  0  0  0999 V2000
    5.9705    2.7269    0.0000 O   0  0  0  0  0  0  0  0  0  0  0  0
    5.1635    2.5554    0.0000 C   0  0  0  0  0  0  0  0  0  0  0  0
    4.9086    1.7708    0.0000 N   0  0  0  0  0  0  0  0  0  0  0  0
    5.4606    1.1577    0.0000 C   0  0  0  0  0  0  0  0  0  0  0  0
    6.2676    1.3292    0.0000 C   0  0  0  0  0  0  0  0  0  0  0  0
    6.8196    0.7161    0.0000 C   0  0  0  0  0  0  0  0  0  0  0  0
    6.5647   -0.0685    0.0000 C   0  0  0  0  0  0  0  0  0  0  0  0
    5.7577   -0.2401    0.0000 C   0  0  0  0  0  0  0  0  0  0  0  0
    5.2057    0.3730    0.0000 C   0  0  0  0  0  0  0  0  0  0  0  0
    7.1167   -0.6816    0.0000 C   0  0  0  0  0  0  0  0  0  0  0  0
    7.7841   -1.1665    0.0000 C   0  0  0  0  0  0  0  0  0  0  0  0
    7.5292   -1.9512    0.0000 C   0  0  0  0  0  0  0  0  0  0  0  0
    6.7042   -1.9512    0.0000 C   0  0  0  0  0  0  0  0  0  0  0  0
    6.4493   -1.1665    0.0000 C   0  0  0  0  0  0  0  0  0  0  0  0
    7.6687   -0.0685    0.0000 C   0  0  0  0  0  0  0  0  0  0  0  0
    8.2208    0.5446    0.0000 N   0  0  0  0  0  0  0  0  0  0  0  0
    4.6115    3.1685    0.0000 C   0  0  0  0  0  0  0  0  0  0  0  0
    3.8045    2.9969    0.0000 C   0  0  0  0  0  0  0  0  0  0  0  0
    3.2525    3.6100    0.0000 C   0  0  0  0  0  0  0  0  0  0  0  0
    3.5074    4.3947    0.0000 C   0  0  0  0  0  0  0  0  0  0  0  0
    4.3144    4.5662    0.0000 N   0  0  0  0  0  0  0  0  0  0  0  0
    4.8664    3.9531    0.0000 C   0  0  0  0  0  0  0  0  0  0  0  0
    5.6734    4.1246    0.0000 N   0  0  0  0  0  0  0  0  0  0  0  0
    5.9283    4.9092    0.0000 C   0  0  0  0  0  0  0  0  0  0  0  0
    6.7353    5.0808    0.0000 C   0  0  0  0  0  0  0  0  0  0  0  0
    6.9902    5.8654    0.0000 C   0  0  0  0  0  0  0  0  0  0  0  0
    7.7972    6.0369    0.0000 C   0  0  0  0  0  0  0  0  0  0  0  0
    8.3492    5.4238    0.0000 N   0  0  0  0  0  0  0  0  0  0  0  0
    8.0943    4.6392    0.0000 C   0  0  0  0  0  0  0  0  0  0  0  0
    7.2873    4.4677    0.0000 C   0  0  0  0  0  0  0  0  0  0  0  0
    3.9456    1.5661    0.0000 H   0  0  0  0  0  0  0  0  0  0  0  0
    6.5865    2.3107    0.0000 H   0  0  0  0  0  0  0  0  0  0  0  0
    7.8290    0.9307    0.0000 H   0  0  0  0  0  0  0  0  0  0  0  0
    5.4388   -1.2216    0.0000 H   0  0  0  0  0  0  0  0  0  0  0  0
    4.1963    0.1584    0.0000 H   0  0  0  0  0  0  0  0  0  0  0  0
    8.8017   -0.8358    0.0000 H   0  0  0  0  0  0  0  0  0  0  0  0
    8.5407   -1.9231    0.0000 H   0  0  0  0  0  0  0  0  0  0  0  0
    8.1582   -2.8168    0.0000 H   0  0  0  0  0  0  0  0  0  0  0  0
    7.0434   -2.9046    0.0000 H   0  0  0  0  0  0  0  0  0  0  0  0
    6.0752   -2.8168    0.0000 H   0  0  0  0  0  0  0  0  0  0  0  0
    5.6474   -1.7838    0.0000 H   0  0  0  0  0  0  0  0  0  0  0  0
    5.4317   -0.8358    0.0000 H   0  0  0  0  0  0  0  0  0  0  0  0
    6.2819   -0.1097    0.0000 H   0  0  0  0  0  0  0  0  0  0  0  0
    3.4856    2.0154    0.0000 H   0  0  0  0  0  0  0  0  0  0  0  0
    2.2431    3.3954    0.0000 H   0  0  0  0  0  0  0  0  0  0  0  0
    2.8168    5.1616    0.0000 H   0  0  0  0  0  0  0  0  0  0  0  0
    6.3322    3.3930    0.0000 H   0  0  0  0  0  0  0  0  0  0  0  0
    5.2123    5.7043    0.0000 H   0  0  0  0  0  0  0  0  0  0  0  0
    6.2589    5.9269    0.0000 H   0  0  0  0  0  0  0  0  0  0  0  0
    6.2997    6.6323    0.0000 H   0  0  0  0  0  0  0  0  0  0  0  0
    8.1161    7.0184    0.0000 H   0  0  0  0  0  0  0  0  0  0  0  0
    8.7848    3.8723    0.0000 H   0  0  0  0  0  0  0  0  0  0  0  0
    6.9684    3.4862    0.0000 H   0  0  0  0  0  0  0  0  0  0  0  0
  1  2  2  0  0  0  0
  2  3  1  0  0  0  0
  2 17  1  0  0  0  0
  3  4  1  0  0  0  0
  3 31  1  0  0  0  0
  4  5  2  0  0  0  0
  4  9  1  0  0  0  0
  5  6  1  0  0  0  0
  5 32  1  0  0  0  0
  6  7  2  0  0  0  0
  6 33  1  0  0  0  0
  7  8  1  0  0  0  0
  7 10  1  0  0  0  0
  8  9  2  0  0  0  0
  8 34  1  0  0  0  0
  9 35  1  0  0  0  0
 10 11  1  0  0  0  0
 10 14  1  0  0  0  0
 10 15  1  0  0  0  0
 11 12  1  0  0  0  0
 11 36  1  0  0  0  0
 11 37  1  0  0  0  0
 12 13  1  0  0  0  0
 12 38  1  0  0  0  0
 12 39  1  0  0  0  0
 13 14  1  0  0  0  0
 13 40  1  0  0  0  0
 13 41  1  0  0  0  0
 14 42  1  0  0  0  0
 14 43  1  0  0  0  0
 15 16  3  0  0  0  0
 17 18  2  0  0  0  0
 17 22  1  0  0  0  0
 18 19  1  0  0  0  0
 18 44  1  0  0  0  0
 19 20  2  0  0  0  0
 19 45  1  0  0  0  0
 20 21  1  0  0  0  0
 20 46  1  0  0  0  0
 21 22  2  0  0  0  0
 22 23  1  0  0  0  0
 23 24  1  0  0  0  0
 23 47  1  0  0  0  0
 24 25  1  0  0  0  0
 24 48  1  0  0  0  0
 24 49  1  0  0  0  0
 25 26  2  0  0  0  0
 25 30  1  0  0  0  0
 26 27  1  0  0  0  0
 26 50  1  0  0  0  0
 27 28  2  0  0  0  0
 27 51  1  0  0  0  0
 28 29  1  0  0  0  0
 29 30  2  0  0  0  0
 29 52  1  0  0  0  0
 30 53  1  0  0  0  0
M  END
>  <DRUGBANK_ID>
DB14765

>  <COMMON_NAME>
Rivoceranib

>  <CAS_NUMBER>
811803-05-1

>  <UNII>
5S371K6132

>  <SYNONYMS>
Apatinib; Rivoceranib; YN968D1 free base

$$$$
