
 OpenBabel10282417072D

 64 67  0  0  1  0  0  0  0  0999 V2000
    3.5724    5.3625    0.0000 C   0  0  0  0  0  0  0  0  0  0  0  0
    4.2868    4.1250    0.0000 C   0  0  0  0  0  0  0  0  0  0  0  0
   -1.0396    7.2104    0.0000 C   0  0  0  0  0  0  0  0  0  0  0  0
    0.7145    2.8875    0.0000 C   0  0  0  0  0  0  0  0  0  0  0  0
    2.1434    2.8875    0.0000 C   0  0  0  0  0  0  0  0  0  0  0  0
    0.7145    2.0625    0.0000 C   0  0  0  0  0  0  0  0  0  0  0  0
    2.1434    2.0625    0.0000 C   0  0  0  0  0  0  0  0  0  0  0  0
   -0.0000    6.6000    0.0000 C   0  0  0  0  0  0  0  0  0  0  0  0
    1.4289    6.6000    0.0000 C   0  0  0  0  0  0  0  0  0  0  0  0
   -0.0000    5.7750    0.0000 C   0  0  0  0  0  0  0  0  0  0  0  0
    1.4289    5.7750    0.0000 C   0  0  0  0  0  0  0  0  0  0  0  0
   -1.2695    8.6625    0.0000 C   0  0  0  0  0  0  0  0  0  0  0  0
    2.1434    4.5375    0.0000 C   0  0  0  0  0  0  0  0  0  0  0  0
    1.4289    9.0750    0.0000 C   0  0  0  0  0  0  0  0  0  0  0  0
    3.5724    4.5375    0.0000 C   0  0  0  0  0  0  0  0  0  0  0  0
   -0.7846    7.9951    0.0000 C   0  0  2  0  0  0  0  0  0  0  0  0
    1.4289    3.3000    0.0000 C   0  0  0  0  0  0  0  0  0  0  0  0
    1.4289    1.6500    0.0000 C   0  0  0  0  0  0  0  0  0  0  0  0
    1.4289    4.1250    0.0000 C   0  0  2  0  0  0  0  0  0  0  0  0
   -0.7846    9.3299    0.0000 C   0  0  2  0  0  0  0  0  0  0  0  0
   -0.0000    8.2500    0.0000 C   0  0  0  0  0  0  0  0  0  0  0  0
   -0.0000    9.0750    0.0000 C   0  0  0  0  0  0  0  0  0  0  0  0
    0.7145    7.8375    0.0000 C   0  0  0  0  0  0  0  0  0  0  0  0
    0.7145    4.5375    0.0000 C   0  0  0  0  0  0  0  0  0  0  0  0
    1.4289    0.8250    0.0000 Cl  0  0  0  0  0  0  0  0  0  0  0  0
    2.8579    4.1250    0.0000 N   0  0  0  0  0  0  0  0  0  0  0  0
    0.7145    9.4875    0.0000 N   0  0  0  0  0  0  0  0  0  0  0  0
    1.4289    8.2500    0.0000 N   0  0  0  0  0  0  0  0  0  0  0  0
    0.7145    7.0125    0.0000 N   0  0  0  0  0  0  0  0  0  0  0  0
    0.7145    5.3625    0.0000 N   0  0  0  0  0  0  0  0  0  0  0  0
   -1.0396   10.1146    0.0000 O   0  0  0  0  0  0  0  0  0  0  0  0
   -0.0000    4.1250    0.0000 O   0  0  0  0  0  0  0  0  0  0  0  0
   -1.5995    7.8660    0.0000 H   0  0  0  0  0  0  0  0  0  0  0  0
    2.1434    3.7125    0.0000 H   0  0  0  0  0  0  0  0  0  0  0  0
   -1.5995    9.4590    0.0000 H   0  0  0  0  0  0  0  0  0  0  0  0
    4.4990    5.8975    0.0000 H   0  0  0  0  0  0  0  0  0  0  0  0
    2.6458    5.8975    0.0000 H   0  0  0  0  0  0  0  0  0  0  0  0
    3.5724    6.4325    0.0000 H   0  0  0  0  0  0  0  0  0  0  0  0
    4.2868    3.0550    0.0000 H   0  0  0  0  0  0  0  0  0  0  0  0
    5.2135    4.6600    0.0000 H   0  0  0  0  0  0  0  0  0  0  0  0
    5.2134    3.5900    0.0000 H   0  0  0  0  0  0  0  0  0  0  0  0
   -2.0862    6.9880    0.0000 H   0  0  0  0  0  0  0  0  0  0  0  0
   -0.3237    6.4152    0.0000 H   0  0  0  0  0  0  0  0  0  0  0  0
   -1.3703    6.1928    0.0000 H   0  0  0  0  0  0  0  0  0  0  0  0
   -0.1792    3.4035    0.0000 H   0  0  0  0  0  0  0  0  0  0  0  0
    3.0371    3.4035    0.0000 H   0  0  0  0  0  0  0  0  0  0  0  0
   -0.1792    1.5465    0.0000 H   0  0  0  0  0  0  0  0  0  0  0  0
    3.0371    1.5465    0.0000 H   0  0  0  0  0  0  0  0  0  0  0  0
   -0.9266    7.1350    0.0000 H   0  0  0  0  0  0  0  0  0  0  0  0
    0.0000    7.6700    0.0000 H   0  0  0  0  0  0  0  0  0  0  0  0
    2.3556    7.1350    0.0000 H   0  0  0  0  0  0  0  0  0  0  0  0
    1.4289    7.6700    0.0000 H   0  0  0  0  0  0  0  0  0  0  0  0
   -0.9266    5.2400    0.0000 H   0  0  0  0  0  0  0  0  0  0  0  0
    0.0000    4.7050    0.0000 H   0  0  0  0  0  0  0  0  0  0  0  0
    2.3556    5.2400    0.0000 H   0  0  0  0  0  0  0  0  0  0  0  0
    1.4289    4.7050    0.0000 H   0  0  0  0  0  0  0  0  0  0  0  0
   -2.3395    8.6625    0.0000 H   0  0  0  0  0  0  0  0  0  0  0  0
   -1.7553    9.6159    0.0000 H   0  0  0  0  0  0  0  0  0  0  0  0
    2.1434    5.6075    0.0000 H   0  0  0  0  0  0  0  0  0  0  0  0
    3.0700    5.0725    0.0000 H   0  0  0  0  0  0  0  0  0  0  0  0
    2.3226    9.5910    0.0000 H   0  0  0  0  0  0  0  0  0  0  0  0
    3.5724    3.4675    0.0000 H   0  0  0  0  0  0  0  0  0  0  0  0
    2.8579    3.1050    0.0000 H   0  0  0  0  0  0  0  0  0  0  0  0
   -0.3906   10.8355    0.0000 H   0  0  0  0  0  0  0  0  0  0  0  0
  1 36  1  0  0  0  0
  1 37  1  0  0  0  0
  1 38  1  0  0  0  0
  2 39  1  0  0  0  0
  2 40  1  0  0  0  0
  2 41  1  0  0  0  0
  3 42  1  0  0  0  0
  3 43  1  0  0  0  0
  3 44  1  0  0  0  0
  4 45  1  0  0  0  0
  5 46  1  0  0  0  0
  6  4  1  0  0  0  0
  6 47  1  0  0  0  0
  7  5  2  0  0  0  0
  7 48  1  0  0  0  0
  8 49  1  0  0  0  0
  8 50  1  0  0  0  0
  9 51  1  0  0  0  0
  9 52  1  0  0  0  0
 10  8  1  0  0  0  0
 10 53  1  0  0  0  0
 10 54  1  0  0  0  0
 11  9  1  0  0  0  0
 11 55  1  0  0  0  0
 11 56  1  0  0  0  0
 12 57  1  0  0  0  0
 12 58  1  0  0  0  0
 13 59  1  0  0  0  0
 13 60  1  0  0  0  0
 14 61  1  0  0  0  0
 15  1  1  0  0  0  0
 15  2  1  0  0  0  0
 15 62  1  0  0  0  0
 16  3  1  0  0  0  0
 16 12  1  0  0  0  0
 16 33  1  1  0  0  0
 17  4  2  0  0  0  0
 17  5  1  0  0  0  0
 18  6  2  0  0  0  0
 18  7  1  0  0  0  0
 19 13  1  0  0  0  0
 19 17  1  0  0  0  0
 19 24  1  0  0  0  0
 19 34  1  1  0  0  0
 20 12  1  0  0  0  0
 20 31  1  0  0  0  0
 20 35  1  6  0  0  0
 21 16  1  0  0  0  0
 22 20  1  0  0  0  0
 22 21  2  0  0  0  0
 23 21  1  0  0  0  0
 25 18  1  0  0  0  0
 26 13  1  0  0  0  0
 26 15  1  0  0  0  0
 26 63  1  0  0  0  0
 27 14  2  0  0  0  0
 27 22  1  0  0  0  0
 28 14  1  0  0  0  0
 28 23  2  0  0  0  0
 29  8  1  0  0  0  0
 29  9  1  0  0  0  0
 29 23  1  0  0  0  0
 30 10  1  0  0  0  0
 30 11  1  0  0  0  0
 30 24  1  0  0  0  0
 31 64  1  0  0  0  0
 32 24  2  0  0  0  0
M  END
>  <DRUGBANK_ID>
DB11743

>  <COMMON_NAME>
Ipatasertib

>  <CAS_NUMBER>
1001264-89-6

>  <UNII>
524Y3IB4HQ

>  <SYNONYMS>
Ipatasertib

$$$$
