
 OpenBabel10282417072D

  9  8  0  0  0  0  0  0  0  0999 V2000
    3.5219    0.4909    0.0000 N   0  0  0  0  0  0  0  0  0  0  0  0
    2.0929    0.4909    0.0000 N   0  0  0  0  0  0  0  0  0  0  0  0
    2.8075   -0.7466    0.0000 N   0  0  0  0  0  0  0  0  0  0  0  0
    2.8075    0.0784    0.0000 C   0  0  0  0  0  0  0  0  0  0  0  0
    4.3745   -0.0013    0.0000 H   0  0  0  0  0  0  0  0  0  0  0  0
    3.5219    1.4754    0.0000 H   0  0  0  0  0  0  0  0  0  0  0  0
    2.0928    1.4754    0.0000 H   0  0  0  0  0  0  0  0  0  0  0  0
    1.2403   -0.0014    0.0000 H   0  0  0  0  0  0  0  0  0  0  0  0
    1.9549   -1.2389    0.0000 H   0  0  0  0  0  0  0  0  0  0  0  0
  1  4  1  0  0  0  0
  1  5  1  0  0  0  0
  1  6  1  0  0  0  0
  2  4  1  0  0  0  0
  2  7  1  0  0  0  0
  2  8  1  0  0  0  0
  3  4  2  0  0  0  0
  3  9  1  0  0  0  0
M  END
>  <DRUGBANK_ID>
DB00536

>  <SECONDARY_ACCESSION_NUMBERS>
APRD01008; EXPT01546

>  <COMMON_NAME>
Guanidine

>  <CAS_NUMBER>
113-00-8

>  <UNII>
JU58VJ6Y3B

>  <SYNONYMS>
Aminomethanamidine; Gu; Guanidin; Guanidine; Imidourea; Iminourea

$$$$
