
 OpenBabel10282417072D

 46 49  0  0  0  0  0  0  0  0999 V2000
    7.7254    1.5548    0.0000 O   0  0  0  0  0  0  0  0  0  0  0  0
    2.3626   -1.9994    0.0000 O   0  0  0  0  0  0  0  0  0  0  0  0
    6.8116    0.5185    0.0000 C   0  0  1  0  0  0  0  0  0  0  0  0
    6.8116   -0.3064    0.0000 C   0  0  2  0  0  0  0  0  0  0  0  0
    6.0971   -0.7188    0.0000 C   0  0  2  0  0  0  0  0  0  0  0  0
    7.5921    0.7699    0.0000 C   0  0  2  0  0  0  0  0  0  0  0  0
    6.0971    0.9310    0.0000 C   0  0  0  0  0  0  0  0  0  0  0  0
    7.5921   -0.5577    0.0000 C   0  0  0  0  0  0  0  0  0  0  0  0
    5.3827    0.5185    0.0000 C   0  0  0  0  0  0  0  0  0  0  0  0
    8.0734    0.1061    0.0000 C   0  0  0  0  0  0  0  0  0  0  0  0
    6.1102   -1.5781    0.0000 C   0  0  0  0  0  0  0  0  0  0  0  0
    6.8116    1.3434    0.0000 C   0  0  0  0  0  0  0  0  0  0  0  0
    4.6321   -0.7245    0.0000 C   0  0  0  0  0  0  0  0  0  0  0  0
    5.3696   -2.0134    0.0000 C   0  0  0  0  0  0  0  0  0  0  0  0
    4.6255   -1.5838    0.0000 C   0  0  0  0  0  0  0  0  0  0  0  0
    8.2602    0.9263    0.0000 C   0  0  0  0  0  0  0  0  0  0  0  0
    3.8674   -0.2592    0.0000 C   0  0  0  0  0  0  0  0  0  0  0  0
    3.8538   -2.0372    0.0000 C   0  0  0  0  0  0  0  0  0  0  0  0
    3.0855   -0.6947    0.0000 C   0  0  0  0  0  0  0  0  0  0  0  0
    3.0785   -1.5898    0.0000 C   0  0  0  0  0  0  0  0  0  0  0  0
    9.0774    1.0528    0.0000 C   0  0  0  0  0  0  0  0  0  0  0  0
    6.0759    0.0864    0.0000 H   0  0  0  0  0  0  0  0  0  0  0  0
    5.3827   -0.3064    0.0000 C   0  0  2  0  0  0  0  0  0  0  0  0
    5.3762   -1.1312    0.0000 H   0  0  0  0  0  0  0  0  0  0  0  0
    6.8988   -1.1266    0.0000 H   0  0  0  0  0  0  0  0  0  0  0  0
    8.6348    1.8923    0.0000 H   0  0  0  0  0  0  0  0  0  0  0  0
    1.5530   -1.5277    0.0000 H   0  0  0  0  0  0  0  0  0  0  0  0
    6.0971    2.0010    0.0000 H   0  0  0  0  0  0  0  0  0  0  0  0
    5.1704    1.4660    0.0000 H   0  0  0  0  0  0  0  0  0  0  0  0
    7.9246   -1.5747    0.0000 H   0  0  0  0  0  0  0  0  0  0  0  0
    8.6492   -0.7236    0.0000 H   0  0  0  0  0  0  0  0  0  0  0  0
    4.4560    1.0535    0.0000 H   0  0  0  0  0  0  0  0  0  0  0  0
    4.4561   -0.0165    0.0000 H   0  0  0  0  0  0  0  0  0  0  0  0
    9.1434    0.1061    0.0000 H   0  0  0  0  0  0  0  0  0  0  0  0
    8.5596   -0.8470    0.0000 H   0  0  0  0  0  0  0  0  0  0  0  0
    7.0429   -2.1024    0.0000 H   0  0  0  0  0  0  0  0  0  0  0  0
    6.1205   -2.6481    0.0000 H   0  0  0  0  0  0  0  0  0  0  0  0
    7.7382    1.8784    0.0000 H   0  0  0  0  0  0  0  0  0  0  0  0
    5.8850    1.8784    0.0000 H   0  0  0  0  0  0  0  0  0  0  0  0
    6.8116    2.4134    0.0000 H   0  0  0  0  0  0  0  0  0  0  0  0
    5.3738   -3.0834    0.0000 H   0  0  0  0  0  0  0  0  0  0  0  0
    4.4440   -2.5502    0.0000 H   0  0  0  0  0  0  0  0  0  0  0  0
    3.8872    0.7726    0.0000 H   0  0  0  0  0  0  0  0  0  0  0  0
    3.8578   -3.0692    0.0000 H   0  0  0  0  0  0  0  0  0  0  0  0
    2.1978   -0.1684    0.0000 H   0  0  0  0  0  0  0  0  0  0  0  0
   10.0597    1.2049    0.0000 H   0  0  0  0  0  0  0  0  0  0  0  0
  1 26  1  0  0  0  0
  2 20  1  0  0  0  0
  2 27  1  0  0  0  0
  3  4  1  0  0  0  0
  3  6  1  0  0  0  0
  3  7  1  0  0  0  0
  3 12  1  1  0  0  0
  4  5  1  0  0  0  0
  4  8  1  0  0  0  0
  4 25  1  6  0  0  0
  5 11  1  0  0  0  0
  5 22  1  1  0  0  0
  5 23  1  0  0  0  0
  6  1  1  0  0  0  0
  6 10  1  0  0  0  0
  6 16  1  6  0  0  0
  7  9  1  0  0  0  0
  7 28  1  0  0  0  0
  7 29  1  0  0  0  0
  8 10  1  0  0  0  0
  8 30  1  0  0  0  0
  8 31  1  0  0  0  0
  9 32  1  0  0  0  0
  9 33  1  0  0  0  0
 10 34  1  0  0  0  0
 10 35  1  0  0  0  0
 11 14  1  0  0  0  0
 11 36  1  0  0  0  0
 11 37  1  0  0  0  0
 12 38  1  0  0  0  0
 12 39  1  0  0  0  0
 12 40  1  0  0  0  0
 13 15  2  0  0  0  0
 13 17  1  0  0  0  0
 14 15  1  0  0  0  0
 14 41  1  0  0  0  0
 14 42  1  0  0  0  0
 15 18  1  0  0  0  0
 16 21  3  0  0  0  0
 17 19  2  0  0  0  0
 17 43  1  0  0  0  0
 18 20  2  0  0  0  0
 18 44  1  0  0  0  0
 19 20  1  0  0  0  0
 19 45  1  0  0  0  0
 21 46  1  0  0  0  0
 23  9  1  0  0  0  0
 23 13  1  0  0  0  0
 23 24  1  6  0  0  0
M  END
>  <DRUGBANK_ID>
DB00977

>  <SECONDARY_ACCESSION_NUMBERS>
APRD00691

>  <COMMON_NAME>
Ethinylestradiol

>  <CAS_NUMBER>
57-63-6

>  <UNII>
423D2T571U

>  <SYNONYMS>
17-ethinyl-3,17-estradiol; 17-ethinyl-3,17-oestradiol; 17-ethinylestradiol; 17alpha-Ethinyl estradiol; 17Î±-ethynylestradiol; Ethinyl estradiol; Ethinylestradiol; Ethinylestradiolum; Ethinyloestradiol; Ethynyl estradiol; Etinilestradiol

$$$$
