73V
 OpenBabel10282417072D

 69 71  0  0  0  0  0  0  0  0999 V2000
   -5.6529   -3.6064    0.0000 C   0  0  0  0  0  0  0  0  0  0  0  0
   -5.2404   -2.8919    0.0000 C   0  0  0  0  0  0  0  0  0  0  0  0
   -4.4154   -2.8919    0.0000 C   0  0  0  0  0  0  0  0  0  0  0  0
   -4.0029   -2.1775    0.0000 N   0  0  0  0  0  0  0  0  0  0  0  0
    2.3282    3.8413    0.0000 C   0  0  0  0  0  0  0  0  0  0  0  0
    2.0733    4.6260    0.0000 C   0  0  0  0  0  0  0  0  0  0  0  0
    2.6253    5.2390    0.0000 C   0  0  0  0  0  0  0  0  0  0  0  0
    3.4323    5.0675    0.0000 C   0  0  0  0  0  0  0  0  0  0  0  0
    3.6872    4.2829    0.0000 C   0  0  0  0  0  0  0  0  0  0  0  0
    3.1352    3.6698    0.0000 C   0  0  0  0  0  0  0  0  0  0  0  0
    1.7762    3.2282    0.0000 C   0  0  0  0  0  0  0  0  0  0  0  0
   -2.7654   -0.6380    0.0000 O   0  0  0  0  0  0  0  0  0  0  0  0
   -2.0509   -1.0505    0.0000 C   0  0  2  0  0  0  0  0  0  0  0  0
   -1.2259   -1.0505    0.0000 C   0  0  0  0  0  0  0  0  0  0  0  0
   -0.8134   -1.7650    0.0000 O   0  0  0  0  0  0  0  0  0  0  0  0
   -2.7654   -1.4630    0.0000 C   0  0  1  0  0  0  0  0  0  0  0  0
   -3.1779   -2.1775    0.0000 C   0  0  0  0  0  0  0  0  0  0  0  0
   -2.7654   -2.8919    0.0000 O   0  0  0  0  0  0  0  0  0  0  0  0
   -0.8134   -0.3360    0.0000 N   0  0  0  0  0  0  0  0  0  0  0  0
    0.0116   -0.3360    0.0000 C   0  0  2  0  0  0  0  0  0  0  0  0
    0.4241    0.3785    0.0000 C   0  0  0  0  0  0  0  0  0  0  0  0
    0.0116    1.0929    0.0000 O   0  0  0  0  0  0  0  0  0  0  0  0
    0.4241   -1.0505    0.0000 C   0  0  2  0  0  0  0  0  0  0  0  0
    1.2491   -1.0505    0.0000 C   0  0  0  0  0  0  0  0  0  0  0  0
    0.0116   -1.7650    0.0000 C   0  0  0  0  0  0  0  0  0  0  0  0
    1.6616   -1.7650    0.0000 C   0  0  0  0  0  0  0  0  0  0  0  0
    1.2491    0.3785    0.0000 N   0  0  0  0  0  0  0  0  0  0  0  0
    1.7340    1.0459    0.0000 C   0  0  2  0  0  0  0  0  0  0  0  0
    1.4791    1.8305    0.0000 C   0  0  0  0  0  0  0  0  0  0  0  0
    2.0311    2.4436    0.0000 O   0  0  0  0  0  0  0  0  0  0  0  0
    0.6721    2.0020    0.0000 O   0  0  0  0  0  0  0  0  0  0  0  0
    2.5186    0.7910    0.0000 C   0  0  0  0  0  0  0  0  0  0  0  0
    2.5186   -0.0340    0.0000 C   0  0  0  0  0  0  0  0  0  0  0  0
    1.7340   -0.2890    0.0000 C   0  0  0  0  0  0  0  0  0  0  0  0
   -1.8998   -0.4865    0.0000 H   0  0  0  0  0  0  0  0  0  0  0  0
   -3.3294   -1.3119    0.0000 H   0  0  0  0  0  0  0  0  0  0  0  0
   -0.2804    0.1697    0.0000 H   0  0  0  0  0  0  0  0  0  0  0  0
    0.7161   -0.5448    0.0000 H   0  0  0  0  0  0  0  0  0  0  0  0
    1.1573    1.1372    0.0000 H   0  0  0  0  0  0  0  0  0  0  0  0
   -6.7229   -3.6064    0.0000 H   0  0  0  0  0  0  0  0  0  0  0  0
   -5.1179   -4.5330    0.0000 H   0  0  0  0  0  0  0  0  0  0  0  0
   -6.1879   -4.5331    0.0000 H   0  0  0  0  0  0  0  0  0  0  0  0
   -5.7754   -1.9653    0.0000 H   0  0  0  0  0  0  0  0  0  0  0  0
   -4.7054   -1.9653    0.0000 H   0  0  0  0  0  0  0  0  0  0  0  0
   -3.8804   -3.8186    0.0000 H   0  0  0  0  0  0  0  0  0  0  0  0
   -3.3454   -2.8919    0.0000 H   0  0  0  0  0  0  0  0  0  0  0  0
   -4.4951   -1.3249    0.0000 H   0  0  0  0  0  0  0  0  0  0  0  0
    1.0639    4.8406    0.0000 H   0  0  0  0  0  0  0  0  0  0  0  0
    2.3064    6.2205    0.0000 H   0  0  0  0  0  0  0  0  0  0  0  0
    4.1228    5.8344    0.0000 H   0  0  0  0  0  0  0  0  0  0  0  0
    4.6966    4.0683    0.0000 H   0  0  0  0  0  0  0  0  0  0  0  0
    3.4541    2.6883    0.0000 H   0  0  0  0  0  0  0  0  0  0  0  0
    0.7296    3.4507    0.0000 H   0  0  0  0  0  0  0  0  0  0  0  0
    1.0602    2.4330    0.0000 H   0  0  0  0  0  0  0  0  0  0  0  0
   -1.3057    0.5166    0.0000 H   0  0  0  0  0  0  0  0  0  0  0  0
    1.7841   -0.1239    0.0000 H   0  0  0  0  0  0  0  0  0  0  0  0
    2.3191   -1.0505    0.0000 H   0  0  0  0  0  0  0  0  0  0  0  0
   -1.0584   -1.7650    0.0000 H   0  0  0  0  0  0  0  0  0  0  0  0
    0.5466   -2.6916    0.0000 H   0  0  0  0  0  0  0  0  0  0  0  0
   -0.5234   -2.6917    0.0000 H   0  0  0  0  0  0  0  0  0  0  0  0
    1.1266   -2.6916    0.0000 H   0  0  0  0  0  0  0  0  0  0  0  0
    2.7316   -1.7650    0.0000 H   0  0  0  0  0  0  0  0  0  0  0  0
    2.1966   -2.6917    0.0000 H   0  0  0  0  0  0  0  0  0  0  0  0
    3.3842    1.4199    0.0000 H   0  0  0  0  0  0  0  0  0  0  0  0
    3.4720    0.3052    0.0000 H   0  0  0  0  0  0  0  0  0  0  0  0
    3.3843   -0.6629    0.0000 H   0  0  0  0  0  0  0  0  0  0  0  0
    2.3513   -1.0908    0.0000 H   0  0  0  0  0  0  0  0  0  0  0  0
    1.4034   -1.3066    0.0000 H   0  0  0  0  0  0  0  0  0  0  0  0
    2.4906   -1.0456    0.0000 H   0  0  0  0  0  0  0  0  0  0  0  0
  1  2  1  0  0  0  0
  1 40  1  0  0  0  0
  1 41  1  0  0  0  0
  1 42  1  0  0  0  0
  2  3  1  0  0  0  0
  2 43  1  0  0  0  0
  2 44  1  0  0  0  0
  3  4  1  0  0  0  0
  3 45  1  0  0  0  0
  3 46  1  0  0  0  0
  4 17  1  0  0  0  0
  4 47  1  0  0  0  0
  5  6  1  0  0  0  0
  5 10  2  0  0  0  0
  5 11  1  0  0  0  0
  6  7  2  0  0  0  0
  6 48  1  0  0  0  0
  7  8  1  0  0  0  0
  7 49  1  0  0  0  0
  8  9  2  0  0  0  0
  8 50  1  0  0  0  0
  9 10  1  0  0  0  0
  9 51  1  0  0  0  0
 10 52  1  0  0  0  0
 11 30  1  0  0  0  0
 11 53  1  0  0  0  0
 11 54  1  0  0  0  0
 12 13  1  0  0  0  0
 12 16  1  0  0  0  0
 13 14  1  0  0  0  0
 13 16  1  0  0  0  0
 13 35  1  1  0  0  0
 14 15  2  0  0  0  0
 14 19  1  0  0  0  0
 16 17  1  0  0  0  0
 16 36  1  6  0  0  0
 17 18  2  0  0  0  0
 19 55  1  0  0  0  0
 20 19  1  0  0  0  0
 20 21  1  0  0  0  0
 20 23  1  0  0  0  0
 20 37  1  1  0  0  0
 21 22  2  0  0  0  0
 21 27  1  0  0  0  0
 23 24  1  0  0  0  0
 23 25  1  0  0  0  0
 23 38  1  1  0  0  0
 24 26  1  0  0  0  0
 24 56  1  0  0  0  0
 24 57  1  0  0  0  0
 25 58  1  0  0  0  0
 25 59  1  0  0  0  0
 25 60  1  0  0  0  0
 26 61  1  0  0  0  0
 26 62  1  0  0  0  0
 26 63  1  0  0  0  0
 27 28  1  0  0  0  0
 27 34  1  0  0  0  0
 28 29  1  0  0  0  0
 28 32  1  0  0  0  0
 28 39  1  1  0  0  0
 29 30  1  0  0  0  0
 29 31  2  0  0  0  0
 32 33  1  0  0  0  0
 32 64  1  0  0  0  0
 32 65  1  0  0  0  0
 33 34  1  0  0  0  0
 33 66  1  0  0  0  0
 33 67  1  0  0  0  0
 34 68  1  0  0  0  0
 34 69  1  0  0  0  0
M  END
>  <DRUGBANK_ID>
DB07219

>  <COMMON_NAME>
BENZYL N-({(2S,3S)-3-[(PROPYLAMINO)CARBONYL]OXIRAN-2-YL}CARBONYL)-L-ISOLEUCYL-L-PROLINATE

$$$$
