
 OpenBabel10282417072D

 45 46  0  0  0  0  0  0  0  0999 V2000
   -1.7861   -1.2375    0.0000 C   0  0  0  0  0  0  0  0  0  0  0  0
   -1.0717   -1.6500    0.0000 C   0  0  0  0  0  0  0  0  0  0  0  0
   -1.0717   -2.4750    0.0000 C   0  0  0  0  0  0  0  0  0  0  0  0
   -1.7861   -2.8875    0.0000 C   0  0  0  0  0  0  0  0  0  0  0  0
   -1.7861   -3.7125    0.0000 C   0  0  0  0  0  0  0  0  0  0  0  0
   -2.5006   -2.4750    0.0000 C   0  0  0  0  0  0  0  0  0  0  0  0
   -2.5006   -1.6500    0.0000 C   0  0  0  0  0  0  0  0  0  0  0  0
   -0.3572   -1.2375    0.0000 C   0  0  0  0  0  0  0  0  0  0  0  0
   -1.7861   -0.4125    0.0000 N   0  0  0  0  0  0  0  0  0  0  0  0
   -1.0717    0.0000    0.0000 C   0  0  0  0  0  0  0  0  0  0  0  0
   -1.0717    0.8250    0.0000 N   0  0  0  0  0  0  0  0  0  0  0  0
   -0.3572    1.2375    0.0000 C   0  0  0  0  0  0  0  0  0  0  0  0
   -0.3572    2.0625    0.0000 N   0  0  0  0  0  0  0  0  0  0  0  0
    0.3572    2.4750    0.0000 C   0  0  0  0  0  0  0  0  0  0  0  0
    0.3572    3.3000    0.0000 C   0  0  0  0  0  0  0  0  0  0  0  0
    1.0717    3.7125    0.0000 C   0  0  0  0  0  0  0  0  0  0  0  0
    1.7861    3.3000    0.0000 C   0  0  0  0  0  0  0  0  0  0  0  0
    2.5006    3.7125    0.0000 C   0  0  0  0  0  0  0  0  0  0  0  0
    1.7861    2.4750    0.0000 C   0  0  0  0  0  0  0  0  0  0  0  0
    1.0717    2.0625    0.0000 C   0  0  0  0  0  0  0  0  0  0  0  0
   -0.3572    3.7125    0.0000 C   0  0  0  0  0  0  0  0  0  0  0  0
   -1.7861    1.2375    0.0000 C   0  0  0  0  0  0  0  0  0  0  0  0
   -0.1780   -2.9910    0.0000 H   0  0  0  0  0  0  0  0  0  0  0  0
   -2.7127   -4.2475    0.0000 H   0  0  0  0  0  0  0  0  0  0  0  0
   -0.8595   -4.2475    0.0000 H   0  0  0  0  0  0  0  0  0  0  0  0
   -1.7861   -4.7825    0.0000 H   0  0  0  0  0  0  0  0  0  0  0  0
   -3.3943   -2.9910    0.0000 H   0  0  0  0  0  0  0  0  0  0  0  0
   -3.3943   -1.1340    0.0000 H   0  0  0  0  0  0  0  0  0  0  0  0
    0.5694   -1.7725    0.0000 H   0  0  0  0  0  0  0  0  0  0  0  0
   -0.3572   -0.1675    0.0000 H   0  0  0  0  0  0  0  0  0  0  0  0
    0.5695   -0.7025    0.0000 H   0  0  0  0  0  0  0  0  0  0  0  0
   -0.1780   -0.5160    0.0000 H   0  0  0  0  0  0  0  0  0  0  0  0
    0.5365    0.7215    0.0000 H   0  0  0  0  0  0  0  0  0  0  0  0
    1.0717    4.7445    0.0000 H   0  0  0  0  0  0  0  0  0  0  0  0
    3.4272    3.1775    0.0000 H   0  0  0  0  0  0  0  0  0  0  0  0
    2.5006    4.7825    0.0000 H   0  0  0  0  0  0  0  0  0  0  0  0
    3.4273    4.2475    0.0000 H   0  0  0  0  0  0  0  0  0  0  0  0
    2.6798    1.9590    0.0000 H   0  0  0  0  0  0  0  0  0  0  0  0
    1.0717    1.0305    0.0000 H   0  0  0  0  0  0  0  0  0  0  0  0
   -0.3572    4.7825    0.0000 H   0  0  0  0  0  0  0  0  0  0  0  0
   -1.2839    3.1775    0.0000 H   0  0  0  0  0  0  0  0  0  0  0  0
   -1.2838    4.2475    0.0000 H   0  0  0  0  0  0  0  0  0  0  0  0
   -1.7861    2.3075    0.0000 H   0  0  0  0  0  0  0  0  0  0  0  0
   -2.7128    0.7025    0.0000 H   0  0  0  0  0  0  0  0  0  0  0  0
   -2.7127    1.7725    0.0000 H   0  0  0  0  0  0  0  0  0  0  0  0
  1  2  2  0  0  0  0
  1  7  1  0  0  0  0
  1  9  1  0  0  0  0
  2  3  1  0  0  0  0
  2  8  1  0  0  0  0
  3  4  2  0  0  0  0
  3 23  1  0  0  0  0
  4  5  1  0  0  0  0
  4  6  1  0  0  0  0
  5 24  1  0  0  0  0
  5 25  1  0  0  0  0
  5 26  1  0  0  0  0
  6  7  2  0  0  0  0
  6 27  1  0  0  0  0
  7 28  1  0  0  0  0
  8 29  1  0  0  0  0
  8 30  1  0  0  0  0
  8 31  1  0  0  0  0
  9 10  2  0  0  0  0
 10 11  1  0  0  0  0
 10 32  1  0  0  0  0
 11 12  1  0  0  0  0
 11 22  1  0  0  0  0
 12 13  2  0  0  0  0
 12 33  1  0  0  0  0
 13 14  1  0  0  0  0
 14 15  2  0  0  0  0
 14 20  1  0  0  0  0
 15 16  1  0  0  0  0
 15 21  1  0  0  0  0
 16 17  2  0  0  0  0
 16 34  1  0  0  0  0
 17 18  1  0  0  0  0
 17 19  1  0  0  0  0
 18 35  1  0  0  0  0
 18 36  1  0  0  0  0
 18 37  1  0  0  0  0
 19 20  2  0  0  0  0
 19 38  1  0  0  0  0
 20 39  1  0  0  0  0
 21 40  1  0  0  0  0
 21 41  1  0  0  0  0
 21 42  1  0  0  0  0
 22 43  1  0  0  0  0
 22 44  1  0  0  0  0
 22 45  1  0  0  0  0
M  END
>  <DRUGBANK_ID>
DB11373

>  <COMMON_NAME>
Amitraz

>  <CAS_NUMBER>
33089-61-1

>  <UNII>
33IAH5017S

>  <SYNONYMS>
1,5-di(2,4-dimethylphenyl)-3-methyl-1,3,5-triazapenta-1,4-diene; Amitraz; Amitraze; Amitrazum; N,N'-(methyliminodimethylidyne)bis-2,4-xylidine

$$$$
