
 OpenBabel10282417072D

134133  0  0  1  0  0  0  0  0999 V2000
    5.2224   -3.8174    0.0000 P   0  0  3  0  0  0  0  0  0  0  0  0
    4.5080   -4.2299    0.0000 O   0  0  0  0  0  0  0  0  0  0  0  0
    8.0804   -3.8174    0.0000 O   0  0  0  0  0  0  0  0  0  0  0  0
    5.9370   -3.4048    0.0000 O   0  0  0  0  0  0  0  0  0  0  0  0
    8.0804   -2.1673    0.0000 O   0  0  0  0  0  0  0  0  0  0  0  0
    8.7949   -2.5798    0.0000 O   0  0  0  0  0  0  0  0  0  0  0  0
    4.8099   -3.1029    0.0000 O   0  5  0  0  0  0  0  0  0  0  0  0
    5.6350   -4.5318    0.0000 O   0  0  0  0  0  0  0  0  0  0  0  0
    7.3659   -0.9298    0.0000 O   0  0  0  0  0  0  0  0  0  0  0  0
    2.3645   -3.8174    0.0000 N   0  3  0  0  0  0  0  0  0  0  0  0
   13.7963   -3.8174    0.0000 C   0  0  0  0  0  0  0  0  0  0  0  0
   14.5108   -3.4048    0.0000 C   0  0  0  0  0  0  0  0  0  0  0  0
   13.0818   -3.4048    0.0000 C   0  0  0  0  0  0  0  0  0  0  0  0
   15.2253   -3.8174    0.0000 C   0  0  0  0  0  0  0  0  0  0  0  0
   12.3674   -3.8174    0.0000 C   0  0  0  0  0  0  0  0  0  0  0  0
   15.9398   -3.4048    0.0000 C   0  0  0  0  0  0  0  0  0  0  0  0
   11.6529   -3.4048    0.0000 C   0  0  0  0  0  0  0  0  0  0  0  0
   16.6542   -3.8174    0.0000 C   0  0  0  0  0  0  0  0  0  0  0  0
   10.9383   -3.8174    0.0000 C   0  0  0  0  0  0  0  0  0  0  0  0
   17.3688   -3.4048    0.0000 C   0  0  0  0  0  0  0  0  0  0  0  0
    3.0791   -4.2299    0.0000 C   0  0  0  0  0  0  0  0  0  0  0  0
   10.2239   -3.4048    0.0000 C   0  0  0  0  0  0  0  0  0  0  0  0
   18.0832   -3.8174    0.0000 C   0  0  0  0  0  0  0  0  0  0  0  0
    1.6500   -3.4048    0.0000 C   0  0  0  0  0  0  0  0  0  0  0  0
    1.9520   -4.5318    0.0000 C   0  0  0  0  0  0  0  0  0  0  0  0
    2.7770   -3.1029    0.0000 C   0  0  0  0  0  0  0  0  0  0  0  0
    3.7935   -3.8174    0.0000 C   0  0  0  0  0  0  0  0  0  0  0  0
    9.5094   -3.8174    0.0000 C   0  0  0  0  0  0  0  0  0  0  0  0
   18.7977   -3.4048    0.0000 C   0  0  0  0  0  0  0  0  0  0  0  0
    9.5094    1.1327    0.0000 C   0  0  0  0  0  0  0  0  0  0  0  0
   10.2239    1.5453    0.0000 C   0  0  0  0  0  0  0  0  0  0  0  0
    9.5094    0.3077    0.0000 C   0  0  0  0  0  0  0  0  0  0  0  0
   14.5108    4.0203    0.0000 C   0  0  0  0  0  0  0  0  0  0  0  0
   13.7963    3.6078    0.0000 C   0  0  0  0  0  0  0  0  0  0  0  0
   10.2239    2.3703    0.0000 C   0  0  0  0  0  0  0  0  0  0  0  0
   15.2253    3.6078    0.0000 C   0  0  0  0  0  0  0  0  0  0  0  0
   13.0818    4.0203    0.0000 C   0  0  0  0  0  0  0  0  0  0  0  0
    8.7949   -3.4048    0.0000 C   0  0  0  0  0  0  0  0  0  0  0  0
    8.7949   -0.1048    0.0000 C   0  0  0  0  0  0  0  0  0  0  0  0
    7.3659   -3.4048    0.0000 C   0  0  3  0  0  0  0  0  0  0  0  0
   19.5122   -3.8174    0.0000 C   0  0  0  0  0  0  0  0  0  0  0  0
   10.9383    2.7828    0.0000 C   0  0  0  0  0  0  0  0  0  0  0  0
   15.9398    4.0203    0.0000 C   0  0  0  0  0  0  0  0  0  0  0  0
   12.3674    3.6078    0.0000 C   0  0  0  0  0  0  0  0  0  0  0  0
    8.7949   -0.9298    0.0000 C   0  0  0  0  0  0  0  0  0  0  0  0
    6.6515   -3.8174    0.0000 C   0  0  0  0  0  0  0  0  0  0  0  0
    7.3659   -2.5798    0.0000 C   0  0  0  0  0  0  0  0  0  0  0  0
   10.9383    3.6078    0.0000 C   0  0  0  0  0  0  0  0  0  0  0  0
   16.6542    3.6078    0.0000 C   0  0  0  0  0  0  0  0  0  0  0  0
   11.6529    4.0203    0.0000 C   0  0  0  0  0  0  0  0  0  0  0  0
    8.0804   -1.3423    0.0000 C   0  0  0  0  0  0  0  0  0  0  0  0
   17.3688    4.0203    0.0000 C   0  0  0  0  0  0  0  0  0  0  0  0
   13.7963   -4.8874    0.0000 H   0  0  0  0  0  0  0  0  0  0  0  0
   12.8696   -4.3524    0.0000 H   0  0  0  0  0  0  0  0  0  0  0  0
   14.5108   -2.3348    0.0000 H   0  0  0  0  0  0  0  0  0  0  0  0
   15.4375   -2.8698    0.0000 H   0  0  0  0  0  0  0  0  0  0  0  0
   13.0818   -2.3348    0.0000 H   0  0  0  0  0  0  0  0  0  0  0  0
   12.1551   -2.8699    0.0000 H   0  0  0  0  0  0  0  0  0  0  0  0
   15.2253   -4.8874    0.0000 H   0  0  0  0  0  0  0  0  0  0  0  0
   16.1520   -4.3524    0.0000 H   0  0  0  0  0  0  0  0  0  0  0  0
   12.3674   -4.8874    0.0000 H   0  0  0  0  0  0  0  0  0  0  0  0
   11.4407   -4.3524    0.0000 H   0  0  0  0  0  0  0  0  0  0  0  0
   15.9398   -2.3348    0.0000 H   0  0  0  0  0  0  0  0  0  0  0  0
   16.8665   -2.8699    0.0000 H   0  0  0  0  0  0  0  0  0  0  0  0
   11.6529   -2.3348    0.0000 H   0  0  0  0  0  0  0  0  0  0  0  0
   10.7263   -2.8698    0.0000 H   0  0  0  0  0  0  0  0  0  0  0  0
   16.6541   -4.8874    0.0000 H   0  0  0  0  0  0  0  0  0  0  0  0
   17.5808   -4.3524    0.0000 H   0  0  0  0  0  0  0  0  0  0  0  0
   10.9382   -4.8874    0.0000 H   0  0  0  0  0  0  0  0  0  0  0  0
   10.0116   -4.3523    0.0000 H   0  0  0  0  0  0  0  0  0  0  0  0
   17.3689   -2.3348    0.0000 H   0  0  0  0  0  0  0  0  0  0  0  0
   18.2955   -2.8699    0.0000 H   0  0  0  0  0  0  0  0  0  0  0  0
    3.0792   -5.2999    0.0000 H   0  0  0  0  0  0  0  0  0  0  0  0
    4.0058   -4.7649    0.0000 H   0  0  0  0  0  0  0  0  0  0  0  0
   10.2239   -2.3348    0.0000 H   0  0  0  0  0  0  0  0  0  0  0  0
    9.2972   -2.8698    0.0000 H   0  0  0  0  0  0  0  0  0  0  0  0
   18.0832   -4.8874    0.0000 H   0  0  0  0  0  0  0  0  0  0  0  0
   19.0099   -4.3524    0.0000 H   0  0  0  0  0  0  0  0  0  0  0  0
    1.6501   -2.3348    0.0000 H   0  0  0  0  0  0  0  0  0  0  0  0
    0.7233   -3.9397    0.0000 H   0  0  0  0  0  0  0  0  0  0  0  0
    0.7234   -2.8697    0.0000 H   0  0  0  0  0  0  0  0  0  0  0  0
    0.8820   -4.5318    0.0000 H   0  0  0  0  0  0  0  0  0  0  0  0
    2.4870   -5.4585    0.0000 H   0  0  0  0  0  0  0  0  0  0  0  0
    1.4170   -5.4584    0.0000 H   0  0  0  0  0  0  0  0  0  0  0  0
    3.8470   -3.1029    0.0000 H   0  0  0  0  0  0  0  0  0  0  0  0
    2.2420   -2.1763    0.0000 H   0  0  0  0  0  0  0  0  0  0  0  0
    3.3120   -2.1762    0.0000 H   0  0  0  0  0  0  0  0  0  0  0  0
    3.7935   -2.7474    0.0000 H   0  0  0  0  0  0  0  0  0  0  0  0
    2.8668   -3.2824    0.0000 H   0  0  0  0  0  0  0  0  0  0  0  0
    9.5094   -4.8874    0.0000 H   0  0  0  0  0  0  0  0  0  0  0  0
    8.5827   -4.3524    0.0000 H   0  0  0  0  0  0  0  0  0  0  0  0
   18.7977   -2.3348    0.0000 H   0  0  0  0  0  0  0  0  0  0  0  0
   19.7244   -2.8698    0.0000 H   0  0  0  0  0  0  0  0  0  0  0  0
    8.5827    1.6677    0.0000 H   0  0  0  0  0  0  0  0  0  0  0  0
    8.5828    0.5977    0.0000 H   0  0  0  0  0  0  0  0  0  0  0  0
   11.1506    1.0103    0.0000 H   0  0  0  0  0  0  0  0  0  0  0  0
   11.1505    2.0803    0.0000 H   0  0  0  0  0  0  0  0  0  0  0  0
   10.4360   -0.2273    0.0000 H   0  0  0  0  0  0  0  0  0  0  0  0
    9.5094   -0.7623    0.0000 H   0  0  0  0  0  0  0  0  0  0  0  0
   14.5108    5.0903    0.0000 H   0  0  0  0  0  0  0  0  0  0  0  0
   15.4374    4.5553    0.0000 H   0  0  0  0  0  0  0  0  0  0  0  0
   13.7963    2.5378    0.0000 H   0  0  0  0  0  0  0  0  0  0  0  0
   12.8697    3.0728    0.0000 H   0  0  0  0  0  0  0  0  0  0  0  0
    9.2972    2.9053    0.0000 H   0  0  0  0  0  0  0  0  0  0  0  0
   10.2239    3.4403    0.0000 H   0  0  0  0  0  0  0  0  0  0  0  0
   15.2253    2.5378    0.0000 H   0  0  0  0  0  0  0  0  0  0  0  0
   16.1519    3.0728    0.0000 H   0  0  0  0  0  0  0  0  0  0  0  0
   13.0818    5.0903    0.0000 H   0  0  0  0  0  0  0  0  0  0  0  0
   12.1551    4.5553    0.0000 H   0  0  0  0  0  0  0  0  0  0  0  0
    7.8683    0.4302    0.0000 H   0  0  0  0  0  0  0  0  0  0  0  0
    7.8683   -0.6398    0.0000 H   0  0  0  0  0  0  0  0  0  0  0  0
    7.3659   -4.4748    0.0000 H   0  0  0  0  0  0  0  0  0  0  0  0
   19.5121   -4.8874    0.0000 H   0  0  0  0  0  0  0  0  0  0  0  0
   20.4389   -3.2825    0.0000 H   0  0  0  0  0  0  0  0  0  0  0  0
   20.4388   -4.3525    0.0000 H   0  0  0  0  0  0  0  0  0  0  0  0
   11.8650    2.2478    0.0000 H   0  0  0  0  0  0  0  0  0  0  0  0
   11.8649    3.3178    0.0000 H   0  0  0  0  0  0  0  0  0  0  0  0
   15.9398    5.0903    0.0000 H   0  0  0  0  0  0  0  0  0  0  0  0
   16.8665    4.5553    0.0000 H   0  0  0  0  0  0  0  0  0  0  0  0
   12.3674    2.5378    0.0000 H   0  0  0  0  0  0  0  0  0  0  0  0
   11.4408    3.0728    0.0000 H   0  0  0  0  0  0  0  0  0  0  0  0
    9.7215   -1.4648    0.0000 H   0  0  0  0  0  0  0  0  0  0  0  0
    8.7949   -1.9998    0.0000 H   0  0  0  0  0  0  0  0  0  0  0  0
    6.6515   -4.8874    0.0000 H   0  0  0  0  0  0  0  0  0  0  0  0
    7.5782   -4.3523    0.0000 H   0  0  0  0  0  0  0  0  0  0  0  0
    6.4393   -2.0448    0.0000 H   0  0  0  0  0  0  0  0  0  0  0  0
    6.4393   -3.1148    0.0000 H   0  0  0  0  0  0  0  0  0  0  0  0
   10.0446    4.1238    0.0000 H   0  0  0  0  0  0  0  0  0  0  0  0
   16.6541    2.5378    0.0000 H   0  0  0  0  0  0  0  0  0  0  0  0
   17.5808    3.0727    0.0000 H   0  0  0  0  0  0  0  0  0  0  0  0
   11.6529    5.0523    0.0000 H   0  0  0  0  0  0  0  0  0  0  0  0
   18.2954    3.4852    0.0000 H   0  0  0  0  0  0  0  0  0  0  0  0
   17.3689    5.0903    0.0000 H   0  0  0  0  0  0  0  0  0  0  0  0
   18.2955    4.5552    0.0000 H   0  0  0  0  0  0  0  0  0  0  0  0
  1  2  1  0  0  0  0
  1  4  1  0  0  0  0
  1  7  1  0  0  0  0
  1  8  2  0  0  0  0
  2 27  1  0  0  0  0
  3 38  1  0  0  0  0
  3 40  1  0  0  0  0
  4 46  1  0  0  0  0
  5 47  1  0  0  0  0
  5 51  1  0  0  0  0
  6 38  2  0  0  0  0
  9 51  2  0  0  0  0
 10 21  1  0  0  0  0
 10 24  1  0  0  0  0
 10 25  1  0  0  0  0
 10 26  1  0  0  0  0
 11 12  1  0  0  0  0
 11 13  1  0  0  0  0
 11 53  1  0  0  0  0
 11 54  1  0  0  0  0
 12 14  1  0  0  0  0
 12 55  1  0  0  0  0
 12 56  1  0  0  0  0
 13 15  1  0  0  0  0
 13 57  1  0  0  0  0
 13 58  1  0  0  0  0
 14 16  1  0  0  0  0
 14 59  1  0  0  0  0
 14 60  1  0  0  0  0
 15 17  1  0  0  0  0
 15 61  1  0  0  0  0
 15 62  1  0  0  0  0
 16 18  1  0  0  0  0
 16 63  1  0  0  0  0
 16 64  1  0  0  0  0
 17 19  1  0  0  0  0
 17 65  1  0  0  0  0
 17 66  1  0  0  0  0
 18 20  1  0  0  0  0
 18 67  1  0  0  0  0
 18 68  1  0  0  0  0
 19 22  1  0  0  0  0
 19 69  1  0  0  0  0
 19 70  1  0  0  0  0
 20 23  1  0  0  0  0
 20 71  1  0  0  0  0
 20 72  1  0  0  0  0
 21 27  1  0  0  0  0
 21 73  1  0  0  0  0
 21 74  1  0  0  0  0
 22 28  1  0  0  0  0
 22 75  1  0  0  0  0
 22 76  1  0  0  0  0
 23 29  1  0  0  0  0
 23 77  1  0  0  0  0
 23 78  1  0  0  0  0
 24 79  1  0  0  0  0
 24 80  1  0  0  0  0
 24 81  1  0  0  0  0
 25 82  1  0  0  0  0
 25 83  1  0  0  0  0
 25 84  1  0  0  0  0
 26 85  1  0  0  0  0
 26 86  1  0  0  0  0
 26 87  1  0  0  0  0
 27 88  1  0  0  0  0
 27 89  1  0  0  0  0
 28 38  1  0  0  0  0
 28 90  1  0  0  0  0
 28 91  1  0  0  0  0
 29 41  1  0  0  0  0
 29 92  1  0  0  0  0
 29 93  1  0  0  0  0
 30 31  1  0  0  0  0
 30 32  1  0  0  0  0
 30 94  1  0  0  0  0
 30 95  1  0  0  0  0
 31 35  1  0  0  0  0
 31 96  1  0  0  0  0
 31 97  1  0  0  0  0
 32 39  1  0  0  0  0
 32 98  1  0  0  0  0
 32 99  1  0  0  0  0
 33 34  1  0  0  0  0
 33 36  1  0  0  0  0
 33100  1  0  0  0  0
 33101  1  0  0  0  0
 34 37  1  0  0  0  0
 34102  1  0  0  0  0
 34103  1  0  0  0  0
 35 42  1  0  0  0  0
 35104  1  0  0  0  0
 35105  1  0  0  0  0
 36 43  1  0  0  0  0
 36106  1  0  0  0  0
 36107  1  0  0  0  0
 37 44  1  0  0  0  0
 37108  1  0  0  0  0
 37109  1  0  0  0  0
 39 45  1  0  0  0  0
 39110  1  0  0  0  0
 39111  1  0  0  0  0
 40 46  1  0  0  0  0
 40 47  1  0  0  0  0
 40112  1  0  0  0  0
 41113  1  0  0  0  0
 41114  1  0  0  0  0
 41115  1  0  0  0  0
 42 48  1  0  0  0  0
 42116  1  0  0  0  0
 42117  1  0  0  0  0
 43 49  1  0  0  0  0
 43118  1  0  0  0  0
 43119  1  0  0  0  0
 44 50  1  0  0  0  0
 44120  1  0  0  0  0
 44121  1  0  0  0  0
 45 51  1  0  0  0  0
 45122  1  0  0  0  0
 45123  1  0  0  0  0
 46124  1  0  0  0  0
 46125  1  0  0  0  0
 47126  1  0  0  0  0
 47127  1  0  0  0  0
 48 50  2  0  0  0  0
 48128  1  0  0  0  0
 49 52  1  0  0  0  0
 49129  1  0  0  0  0
 49130  1  0  0  0  0
 50131  1  0  0  0  0
 52132  1  0  0  0  0
 52133  1  0  0  0  0
 52134  1  0  0  0  0
M  CHG  2   7  -1  10   1
M  END
>  <DRUGBANK_ID>
DB05456

>  <COMMON_NAME>
ETC-588

$$$$
