
 OpenBabel10282417072D

 48 47  0  0  0  0  0  0  0  0999 V2000
    2.9439    0.7615    0.0000 C   0  0  0  0  0  0  0  0  0  0  0  0
    2.4589    1.4289    0.0000 C   0  0  0  0  0  0  0  0  0  0  0  0
    2.9439    2.0963    0.0000 N   0  0  0  0  0  0  0  0  0  0  0  0
    3.7285    1.8414    0.0000 C   0  0  0  0  0  0  0  0  0  0  0  0
    3.7285    1.0164    0.0000 N   0  0  0  0  0  0  0  0  0  0  0  0
    1.6339    1.4289    0.0000 C   0  0  0  0  0  0  0  0  0  0  0  0
    1.2214    0.7144    0.0000 C   0  0  1  0  0  0  0  0  0  0  0  0
    0.3964    0.7144    0.0000 C   0  0  0  0  0  0  0  0  0  0  0  0
   -0.0160    1.4289    0.0000 O   0  0  0  0  0  0  0  0  0  0  0  0
   -0.0160    0.0000    0.0000 N   0  0  0  0  0  0  0  0  0  0  0  0
   -0.8410    0.0000    0.0000 C   0  0  1  0  0  0  0  0  0  0  0  0
   -1.2535   -0.7144    0.0000 C   0  0  0  0  0  0  0  0  0  0  0  0
   -2.0785   -0.7144    0.0000 C   0  0  0  0  0  0  0  0  0  0  0  0
   -2.4910   -1.4289    0.0000 C   0  0  0  0  0  0  0  0  0  0  0  0
   -3.3160   -1.4289    0.0000 C   0  0  0  0  0  0  0  0  0  0  0  0
   -3.7285   -2.1434    0.0000 N   0  0  0  0  0  0  0  0  0  0  0  0
   -1.2535    0.7144    0.0000 C   0  0  0  0  0  0  0  0  0  0  0  0
   -2.0785    0.7144    0.0000 O   0  0  0  0  0  0  0  0  0  0  0  0
   -0.8410    1.4289    0.0000 O   0  5  0  0  0  0  0  0  0  0  0  0
    1.6339    0.0000    0.0000 N   0  0  0  0  0  0  0  0  0  0  0  0
    1.2214   -0.7144    0.0000 C   0  0  0  0  0  0  0  0  0  0  0  0
    0.3964   -0.7144    0.0000 O   0  0  0  0  0  0  0  0  0  0  0  0
    1.6339   -1.4289    0.0000 C   0  0  0  0  0  0  0  0  0  0  0  0
    1.2214   -2.1434    0.0000 N   0  0  0  0  0  0  0  0  0  0  0  0
   -0.4285    2.1434    0.0000 Cu  0  2  0  0  0  0  0  0  0  0  0  0
    2.6250   -0.2200    0.0000 H   0  0  0  0  0  0  0  0  0  0  0  0
    2.6397    3.0326    0.0000 H   0  0  0  0  0  0  0  0  0  0  0  0
    4.5634    2.4480    0.0000 H   0  0  0  0  0  0  0  0  0  0  0  0
    1.0989    2.3555    0.0000 H   0  0  0  0  0  0  0  0  0  0  0  0
    0.5639    1.4289    0.0000 H   0  0  0  0  0  0  0  0  0  0  0  0
    2.2914    0.7144    0.0000 H   0  0  0  0  0  0  0  0  0  0  0  0
    0.4763   -0.8526    0.0000 H   0  0  0  0  0  0  0  0  0  0  0  0
   -0.3060   -0.9267    0.0000 H   0  0  0  0  0  0  0  0  0  0  0  0
   -0.7185   -1.6411    0.0000 H   0  0  0  0  0  0  0  0  0  0  0  0
   -1.7885   -1.6410    0.0000 H   0  0  0  0  0  0  0  0  0  0  0  0
   -2.6135    0.2122    0.0000 H   0  0  0  0  0  0  0  0  0  0  0  0
   -3.1485   -0.7144    0.0000 H   0  0  0  0  0  0  0  0  0  0  0  0
   -1.9560   -2.3555    0.0000 H   0  0  0  0  0  0  0  0  0  0  0  0
   -3.0260   -2.3555    0.0000 H   0  0  0  0  0  0  0  0  0  0  0  0
   -3.8510   -0.5023    0.0000 H   0  0  0  0  0  0  0  0  0  0  0  0
   -4.3860   -1.4289    0.0000 H   0  0  0  0  0  0  0  0  0  0  0  0
   -4.7485   -2.1434    0.0000 H   0  0  0  0  0  0  0  0  0  0  0  0
   -3.2185   -3.0267    0.0000 H   0  0  0  0  0  0  0  0  0  0  0  0
    2.6184    0.0000    0.0000 H   0  0  0  0  0  0  0  0  0  0  0  0
    2.7039   -1.4289    0.0000 H   0  0  0  0  0  0  0  0  0  0  0  0
    2.1689   -2.3555    0.0000 H   0  0  0  0  0  0  0  0  0  0  0  0
    0.2014   -2.1434    0.0000 H   0  0  0  0  0  0  0  0  0  0  0  0
    1.7314   -3.0267    0.0000 H   0  0  0  0  0  0  0  0  0  0  0  0
  1  2  2  0  0  0  0
  1  5  1  0  0  0  0
  1 26  1  0  0  0  0
  2  3  1  0  0  0  0
  2  6  1  0  0  0  0
  3  4  1  0  0  0  0
  3 27  1  0  0  0  0
  4  5  2  0  0  0  0
  4 28  1  0  0  0  0
  6  7  1  0  0  0  0
  6 29  1  0  0  0  0
  6 30  1  0  0  0  0
  7  8  1  0  0  0  0
  7 20  1  0  0  0  0
  7 31  1  1  0  0  0
  8  9  2  0  0  0  0
  8 10  1  0  0  0  0
 10 32  1  0  0  0  0
 11 10  1  0  0  0  0
 11 12  1  0  0  0  0
 11 17  1  0  0  0  0
 11 33  1  6  0  0  0
 12 13  1  0  0  0  0
 12 34  1  0  0  0  0
 12 35  1  0  0  0  0
 13 14  1  0  0  0  0
 13 36  1  0  0  0  0
 13 37  1  0  0  0  0
 14 15  1  0  0  0  0
 14 38  1  0  0  0  0
 14 39  1  0  0  0  0
 15 16  1  0  0  0  0
 15 40  1  0  0  0  0
 15 41  1  0  0  0  0
 16 42  1  0  0  0  0
 16 43  1  0  0  0  0
 17 18  2  0  0  0  0
 17 19  1  0  0  0  0
 20 21  1  0  0  0  0
 20 44  1  0  0  0  0
 21 22  2  0  0  0  0
 21 23  1  0  0  0  0
 23 24  1  0  0  0  0
 23 45  1  0  0  0  0
 23 46  1  0  0  0  0
 24 47  1  0  0  0  0
 24 48  1  0  0  0  0
M  CHG  2  19  -1  25   2
M  END
>  <DRUGBANK_ID>
DB14683

>  <SECONDARY_ACCESSION_NUMBERS>
DBSALT002419

>  <COMMON_NAME>
Prezatide copper

>  <CAS_NUMBER>
89030-95-5

>  <UNII>
6BJQ43T1I9

>  <SYNONYMS>
CG-copper peptide; Copper tripeptide-1; GHK complex with copper; GHK copper

$$$$
