II4
 OpenBabel10282417072D

 30 32  0  0  0  0  0  0  0  0999 V2000
    1.4367   -1.5029    0.0000 C   0  0  0  0  0  0  0  0  0  0  0  0
    0.7222   -1.9154    0.0000 C   0  0  0  0  0  0  0  0  0  0  0  0
    0.0077   -1.5029    0.0000 C   0  0  0  0  0  0  0  0  0  0  0  0
    0.0077   -0.6779    0.0000 C   0  0  0  0  0  0  0  0  0  0  0  0
    0.7222   -0.2654    0.0000 C   0  0  0  0  0  0  0  0  0  0  0  0
   -0.1827    2.3725    0.0000 C   0  0  0  0  0  0  0  0  0  0  0  0
   -0.7769   -0.4229    0.0000 N   0  0  0  0  0  0  0  0  0  0  0  0
   -1.2618   -1.0904    0.0000 C   0  0  0  0  0  0  0  0  0  0  0  0
   -0.7769   -1.7578    0.0000 N   0  0  0  0  0  0  0  0  0  0  0  0
    2.1511   -1.9154    0.0000 N   0  0  0  0  0  0  0  0  0  0  0  0
   -0.7347    1.7594    0.0000 C   0  0  0  0  0  0  0  0  0  0  0  0
   -0.4798    0.9748    0.0000 C   0  0  0  0  0  0  0  0  0  0  0  0
    1.4367   -0.6779    0.0000 C   0  0  0  0  0  0  0  0  0  0  0  0
   -1.8388    0.5332    0.0000 C   0  0  0  0  0  0  0  0  0  0  0  0
   -1.0318    0.3617    0.0000 C   0  0  0  0  0  0  0  0  0  0  0  0
   -2.0937    1.3178    0.0000 C   0  0  0  0  0  0  0  0  0  0  0  0
   -1.5417    1.9309    0.0000 C   0  0  0  0  0  0  0  0  0  0  0  0
    0.7222   -2.9474    0.0000 H   0  0  0  0  0  0  0  0  0  0  0  0
    0.7222    0.7666    0.0000 H   0  0  0  0  0  0  0  0  0  0  0  0
    0.8639    2.1501    0.0000 H   0  0  0  0  0  0  0  0  0  0  0  0
   -0.5134    3.3901    0.0000 H   0  0  0  0  0  0  0  0  0  0  0  0
    0.5332    3.1677    0.0000 H   0  0  0  0  0  0  0  0  0  0  0  0
   -2.2938   -1.0904    0.0000 H   0  0  0  0  0  0  0  0  0  0  0  0
    2.1511   -2.8999    0.0000 H   0  0  0  0  0  0  0  0  0  0  0  0
    3.0037   -1.4232    0.0000 H   0  0  0  0  0  0  0  0  0  0  0  0
    0.5296    0.7602    0.0000 H   0  0  0  0  0  0  0  0  0  0  0  0
    2.3304   -0.1619    0.0000 H   0  0  0  0  0  0  0  0  0  0  0  0
   -2.5293   -0.2337    0.0000 H   0  0  0  0  0  0  0  0  0  0  0  0
   -3.1031    1.5324    0.0000 H   0  0  0  0  0  0  0  0  0  0  0  0
   -1.8606    2.9124    0.0000 H   0  0  0  0  0  0  0  0  0  0  0  0
  1  2  1  0  0  0  0
  1 10  1  0  0  0  0
  1 13  2  0  0  0  0
  2  3  2  0  0  0  0
  2 18  1  0  0  0  0
  3  4  1  0  0  0  0
  3  9  1  0  0  0  0
  4  5  2  0  0  0  0
  4  7  1  0  0  0  0
  5 13  1  0  0  0  0
  5 19  1  0  0  0  0
  6 11  1  0  0  0  0
  6 20  1  0  0  0  0
  6 21  1  0  0  0  0
  6 22  1  0  0  0  0
  7  8  1  0  0  0  0
  7 15  1  0  0  0  0
  8  9  2  0  0  0  0
  8 23  1  0  0  0  0
 10 24  1  0  0  0  0
 10 25  1  0  0  0  0
 11 12  1  0  0  0  0
 11 17  2  0  0  0  0
 12 15  2  0  0  0  0
 12 26  1  0  0  0  0
 13 27  1  0  0  0  0
 14 15  1  0  0  0  0
 14 16  2  0  0  0  0
 14 28  1  0  0  0  0
 16 17  1  0  0  0  0
 16 29  1  0  0  0  0
 17 30  1  0  0  0  0
M  END
>  <DRUGBANK_ID>
DB07972

>  <COMMON_NAME>
1-(3-METHYLPHENYL)-1H-BENZIMIDAZOL-5-AMINE

$$$$
