
 OpenBabel10282417072D

 52 55  0  0  0  0  0  0  0  0999 V2000
    5.2520    1.1270    0.0000 C   0  0  0  0  0  0  0  0  0  0  0  0
    4.8395    0.4125    0.0000 C   0  0  3  0  0  0  0  0  0  0  0  0
    4.0145    0.4125    0.0000 C   0  0  0  0  0  0  0  0  0  0  0  0
    3.6020   -0.3020    0.0000 C   0  0  0  0  0  0  0  0  0  0  0  0
    2.7770   -0.3020    0.0000 C   0  0  0  0  0  0  0  0  0  0  0  0
    2.3645    0.4125    0.0000 C   0  0  0  0  0  0  0  0  0  0  0  0
    2.7770    1.1270    0.0000 C   0  0  0  0  0  0  0  0  0  0  0  0
    3.6020    1.1270    0.0000 C   0  0  0  0  0  0  0  0  0  0  0  0
    2.3645    1.8414    0.0000 C   0  0  0  0  0  0  0  0  0  0  0  0
    2.7770    2.5559    0.0000 O   0  0  0  0  0  0  0  0  0  0  0  0
    1.5395    1.8414    0.0000 O   0  0  0  0  0  0  0  0  0  0  0  0
    1.1270    1.1270    0.0000 C   0  0  0  0  0  0  0  0  0  0  0  0
    1.5395    0.4125    0.0000 C   0  0  0  0  0  0  0  0  0  0  0  0
    1.1270   -0.3020    0.0000 C   0  0  0  0  0  0  0  0  0  0  0  0
    0.3020   -0.3020    0.0000 C   0  0  0  0  0  0  0  0  0  0  0  0
   -0.1105    0.4125    0.0000 C   0  0  0  0  0  0  0  0  0  0  0  0
    0.3020    1.1270    0.0000 C   0  0  0  0  0  0  0  0  0  0  0  0
   -0.9355    0.4125    0.0000 O   0  0  0  0  0  0  0  0  0  0  0  0
   -1.3480   -0.3020    0.0000 C   0  0  0  0  0  0  0  0  0  0  0  0
   -2.1730   -0.3020    0.0000 C   0  0  0  0  0  0  0  0  0  0  0  0
   -2.5855   -1.0164    0.0000 C   0  0  0  0  0  0  0  0  0  0  0  0
   -3.4105   -1.0164    0.0000 C   0  0  0  0  0  0  0  0  0  0  0  0
   -3.8230   -0.3020    0.0000 C   0  0  0  0  0  0  0  0  0  0  0  0
   -3.4105    0.4125    0.0000 C   0  0  0  0  0  0  0  0  0  0  0  0
   -2.5855    0.4125    0.0000 C   0  0  0  0  0  0  0  0  0  0  0  0
   -4.6480   -0.3020    0.0000 O   0  0  0  0  0  0  0  0  0  0  0  0
   -5.0605   -1.0164    0.0000 C   0  0  0  0  0  0  0  0  0  0  0  0
   -0.1105   -1.0164    0.0000 O   0  0  0  0  0  0  0  0  0  0  0  0
   -0.9355   -1.0164    0.0000 C   0  0  0  0  0  0  0  0  0  0  0  0
    5.2520   -0.3020    0.0000 O   0  0  0  0  0  0  0  0  0  0  0  0
    6.3220    1.1270    0.0000 H   0  0  0  0  0  0  0  0  0  0  0  0
    4.7170    2.0536    0.0000 H   0  0  0  0  0  0  0  0  0  0  0  0
    5.7870    2.0537    0.0000 H   0  0  0  0  0  0  0  0  0  0  0  0
    4.3045    1.3391    0.0000 H   0  0  0  0  0  0  0  0  0  0  0  0
    4.1180   -1.1957    0.0000 H   0  0  0  0  0  0  0  0  0  0  0  0
    2.2610   -1.1957    0.0000 H   0  0  0  0  0  0  0  0  0  0  0  0
    4.1180    2.0207    0.0000 H   0  0  0  0  0  0  0  0  0  0  0  0
    1.6430   -1.1957    0.0000 H   0  0  0  0  0  0  0  0  0  0  0  0
   -0.2140    2.0207    0.0000 H   0  0  0  0  0  0  0  0  0  0  0  0
   -0.8130   -1.2286    0.0000 H   0  0  0  0  0  0  0  0  0  0  0  0
   -1.8830   -1.2286    0.0000 H   0  0  0  0  0  0  0  0  0  0  0  0
   -2.0695   -1.9101    0.0000 H   0  0  0  0  0  0  0  0  0  0  0  0
   -3.9265   -1.9101    0.0000 H   0  0  0  0  0  0  0  0  0  0  0  0
   -3.9265    1.3062    0.0000 H   0  0  0  0  0  0  0  0  0  0  0  0
   -2.0695    1.3062    0.0000 H   0  0  0  0  0  0  0  0  0  0  0  0
   -6.1305   -1.0164    0.0000 H   0  0  0  0  0  0  0  0  0  0  0  0
   -4.5255   -1.9431    0.0000 H   0  0  0  0  0  0  0  0  0  0  0  0
   -5.5955   -1.9430    0.0000 H   0  0  0  0  0  0  0  0  0  0  0  0
   -1.4705   -0.0898    0.0000 H   0  0  0  0  0  0  0  0  0  0  0  0
   -1.4705   -1.9430    0.0000 H   0  0  0  0  0  0  0  0  0  0  0  0
   -2.0055   -1.0164    0.0000 H   0  0  0  0  0  0  0  0  0  0  0  0
    4.7670   -1.1420    0.0000 H   0  0  0  0  0  0  0  0  0  0  0  0
  1  2  1  0  0  0  0
  1 31  1  0  0  0  0
  1 32  1  0  0  0  0
  1 33  1  0  0  0  0
  2  3  1  0  0  0  0
  2 30  1  0  0  0  0
  2 34  1  0  0  0  0
  3  4  2  0  0  0  0
  3  8  1  0  0  0  0
  4  5  1  0  0  0  0
  4 35  1  0  0  0  0
  5  6  2  0  0  0  0
  5 36  1  0  0  0  0
  6  7  1  0  0  0  0
  6 13  1  0  0  0  0
  7  8  2  0  0  0  0
  7  9  1  0  0  0  0
  8 37  1  0  0  0  0
  9 10  2  0  0  0  0
  9 11  1  0  0  0  0
 11 12  1  0  0  0  0
 12 13  1  0  0  0  0
 12 17  2  0  0  0  0
 13 14  2  0  0  0  0
 14 15  1  0  0  0  0
 14 38  1  0  0  0  0
 15 16  2  0  0  0  0
 15 28  1  0  0  0  0
 16 17  1  0  0  0  0
 16 18  1  0  0  0  0
 17 39  1  0  0  0  0
 18 19  1  0  0  0  0
 19 20  1  0  0  0  0
 19 40  1  0  0  0  0
 19 41  1  0  0  0  0
 20 21  2  0  0  0  0
 20 25  1  0  0  0  0
 21 22  1  0  0  0  0
 21 42  1  0  0  0  0
 22 23  2  0  0  0  0
 22 43  1  0  0  0  0
 23 24  1  0  0  0  0
 23 26  1  0  0  0  0
 24 25  2  0  0  0  0
 24 44  1  0  0  0  0
 25 45  1  0  0  0  0
 26 27  1  0  0  0  0
 27 46  1  0  0  0  0
 27 47  1  0  0  0  0
 27 48  1  0  0  0  0
 28 29  1  0  0  0  0
 29 49  1  0  0  0  0
 29 50  1  0  0  0  0
 29 51  1  0  0  0  0
 30 52  1  0  0  0  0
M  END
>  <DRUGBANK_ID>
DB12812

>  <COMMON_NAME>
Palomid 529

>  <CAS_NUMBER>
914913-88-5

>  <UNII>
XV9409EWG4

>  <SYNONYMS>
6H-DIBENZO(B,D)PYRAN-6-ONE, 8-(1-HYDROXYETHYL)-2-METHOXY-3-((4-METHOXYPHENYL)METHOXY)-; 8-(1-HYDROXY-ETHYL)-2-METHOXY-3-(4-METHOXY-BENZYLOXY)-BENZO(C)CHROMEN-6-ONE; 8-(1-Hydroxy-ethyl)-2-methoxy-3-(4-methoxy-benzyloxy)-benzo[c]chromen-6-one; PALOMID-529

$$$$
