
 OpenBabel10282417072D

 23 22  0  0  0  0  0  0  0  0999 V2000
    2.5007    1.0675    0.0000 N   0  0  0  0  0  0  0  0  0  0  0  0
    1.7862    0.6550    0.0000 C   0  0  0  0  0  0  0  0  0  0  0  0
    1.0718    1.0675    0.0000 C   0  0  0  0  0  0  0  0  0  0  0  0
    0.3572    0.6550    0.0000 C   0  0  0  0  0  0  0  0  0  0  0  0
   -0.3571    1.0675    0.0000 C   0  0  0  0  0  0  0  0  0  0  0  0
   -1.0716    0.6550    0.0000 N   0  0  0  0  0  0  0  0  0  0  0  0
   -1.7861    1.0675    0.0000 C   0  0  0  0  0  0  0  0  0  0  0  0
   -2.5006    0.6550    0.0000 N   0  0  0  0  0  0  0  0  0  0  0  0
   -1.7861    1.8925    0.0000 N   0  0  0  0  0  0  0  0  0  0  0  0
    3.3840    0.5575    0.0000 H   0  0  0  0  0  0  0  0  0  0  0  0
    2.5007    2.0875    0.0000 H   0  0  0  0  0  0  0  0  0  0  0  0
    1.7862   -0.4150    0.0000 H   0  0  0  0  0  0  0  0  0  0  0  0
    0.8595    0.1200    0.0000 H   0  0  0  0  0  0  0  0  0  0  0  0
    1.0719    2.1375    0.0000 H   0  0  0  0  0  0  0  0  0  0  0  0
    0.1452    1.6026    0.0000 H   0  0  0  0  0  0  0  0  0  0  0  0
    0.3571   -0.4150    0.0000 H   0  0  0  0  0  0  0  0  0  0  0  0
   -0.5695    0.1201    0.0000 H   0  0  0  0  0  0  0  0  0  0  0  0
   -0.3570    2.1375    0.0000 H   0  0  0  0  0  0  0  0  0  0  0  0
   -1.2837    1.6025    0.0000 H   0  0  0  0  0  0  0  0  0  0  0  0
   -1.0716   -0.3295    0.0000 H   0  0  0  0  0  0  0  0  0  0  0  0
   -3.3532    1.1473    0.0000 H   0  0  0  0  0  0  0  0  0  0  0  0
   -2.5006   -0.3295    0.0000 H   0  0  0  0  0  0  0  0  0  0  0  0
   -0.9335    2.3848    0.0000 H   0  0  0  0  0  0  0  0  0  0  0  0
  1  2  1  0  0  0  0
  1 10  1  0  0  0  0
  1 11  1  0  0  0  0
  2  3  1  0  0  0  0
  2 12  1  0  0  0  0
  2 13  1  0  0  0  0
  3  4  1  0  0  0  0
  3 14  1  0  0  0  0
  3 15  1  0  0  0  0
  4  5  1  0  0  0  0
  4 16  1  0  0  0  0
  4 17  1  0  0  0  0
  5  6  1  0  0  0  0
  5 18  1  0  0  0  0
  5 19  1  0  0  0  0
  6  7  1  0  0  0  0
  6 20  1  0  0  0  0
  7  8  1  0  0  0  0
  7  9  2  0  0  0  0
  8 21  1  0  0  0  0
  8 22  1  0  0  0  0
  9 23  1  0  0  0  0
M  END
>  <DRUGBANK_ID>
DB08838

>  <COMMON_NAME>
Agmatine

>  <CAS_NUMBER>
306-60-5

>  <UNII>
70J407ZL5Q

>  <SYNONYMS>
(4-aminobutyl) guanidine; (4-aminobutyl)guanidine; 1-amino-4-guanidobutane; N-(4-aminobutyl)guanidine

$$$$
