
 OpenBabel10282417072D

 54 55  0  0  1  0  0  0  0  0999 V2000
   -3.2929   -2.2370    0.0000 C   0  0  0  0  0  0  0  0  0  0  0  0
   -2.5785   -1.8245    0.0000 C   0  0  0  0  0  0  0  0  0  0  0  0
   -2.5785   -0.9995    0.0000 C   0  0  0  0  0  0  0  0  0  0  0  0
   -1.8640   -2.2370    0.0000 C   0  0  0  0  0  0  0  0  0  0  0  0
   -1.8640   -3.0620    0.0000 O   0  0  0  0  0  0  0  0  0  0  0  0
   -1.1495   -1.8245    0.0000 O   0  0  0  0  0  0  0  0  0  0  0  0
   -0.4351   -2.2370    0.0000 C   0  0  0  0  0  0  0  0  0  0  0  0
    0.2794   -1.8245    0.0000 C   0  0  1  0  0  0  0  0  0  0  0  0
    0.6150   -2.5782    0.0000 C   0  0  0  0  0  0  0  0  0  0  0  0
    0.1300   -3.2456    0.0000 Cl  0  0  0  0  0  0  0  0  0  0  0  0
   -0.2055   -1.1571    0.0000 O   0  0  0  0  0  0  0  0  0  0  0  0
    0.2794   -0.4896    0.0000 C   0  0  2  0  0  0  0  0  0  0  0  0
    1.0640   -0.7446    0.0000 C   0  0  2  0  0  0  0  0  0  0  0  0
    1.7315   -0.2596    0.0000 F   0  0  0  0  0  0  0  0  0  0  0  0
    1.0640   -1.5696    0.0000 C   0  0  2  0  0  0  0  0  0  0  0  0
    1.7315   -2.0545    0.0000 O   0  0  0  0  0  0  0  0  0  0  0  0
    1.6452   -2.8750    0.0000 C   0  0  0  0  0  0  0  0  0  0  0  0
    0.8916   -3.2105    0.0000 O   0  0  0  0  0  0  0  0  0  0  0  0
    2.3127   -3.3599    0.0000 C   0  0  0  0  0  0  0  0  0  0  0  0
    3.0663   -3.0243    0.0000 C   0  0  0  0  0  0  0  0  0  0  0  0
    2.2264   -4.1804    0.0000 C   0  0  0  0  0  0  0  0  0  0  0  0
    0.0245    0.2950    0.0000 N   0  0  0  0  0  0  0  0  0  0  0  0
   -0.7825    0.4665    0.0000 C   0  0  0  0  0  0  0  0  0  0  0  0
   -1.0374    1.2511    0.0000 C   0  0  0  0  0  0  0  0  0  0  0  0
   -0.4854    1.8642    0.0000 C   0  0  0  0  0  0  0  0  0  0  0  0
   -0.7403    2.6489    0.0000 N   0  0  0  0  0  0  0  0  0  0  0  0
    0.3216    1.6927    0.0000 N   0  0  0  0  0  0  0  0  0  0  0  0
    0.5765    0.9081    0.0000 C   0  0  0  0  0  0  0  0  0  0  0  0
    1.3835    0.7366    0.0000 O   0  0  0  0  0  0  0  0  0  0  0  0
   -4.2196   -1.7020    0.0000 H   0  0  0  0  0  0  0  0  0  0  0  0
   -3.2929   -3.3070    0.0000 H   0  0  0  0  0  0  0  0  0  0  0  0
   -4.2195   -2.7720    0.0000 H   0  0  0  0  0  0  0  0  0  0  0  0
   -1.6519   -1.2895    0.0000 H   0  0  0  0  0  0  0  0  0  0  0  0
   -1.6519   -0.4645    0.0000 H   0  0  0  0  0  0  0  0  0  0  0  0
   -3.5051   -0.4645    0.0000 H   0  0  0  0  0  0  0  0  0  0  0  0
   -2.5785    0.0705    0.0000 H   0  0  0  0  0  0  0  0  0  0  0  0
   -0.4351   -3.3070    0.0000 H   0  0  0  0  0  0  0  0  0  0  0  0
    0.4915   -2.7720    0.0000 H   0  0  0  0  0  0  0  0  0  0  0  0
    1.6791   -2.6901    0.0000 H   0  0  0  0  0  0  0  0  0  0  0  0
    1.0501   -3.5557    0.0000 H   0  0  0  0  0  0  0  0  0  0  0  0
   -0.7774   -0.3222    0.0000 H   0  0  0  0  0  0  0  0  0  0  0  0
    0.8966    0.3122    0.0000 H   0  0  0  0  0  0  0  0  0  0  0  0
    2.0174   -1.0838    0.0000 H   0  0  0  0  0  0  0  0  0  0  0  0
    3.1784   -3.9888    0.0000 H   0  0  0  0  0  0  0  0  0  0  0  0
    3.9320   -3.6532    0.0000 H   0  0  0  0  0  0  0  0  0  0  0  0
    3.1781   -1.9602    0.0000 H   0  0  0  0  0  0  0  0  0  0  0  0
    4.0438   -2.5890    0.0000 H   0  0  0  0  0  0  0  0  0  0  0  0
    1.2489   -4.6155    0.0000 H   0  0  0  0  0  0  0  0  0  0  0  0
    3.0920   -4.8094    0.0000 H   0  0  0  0  0  0  0  0  0  0  0  0
    2.1145   -5.2445    0.0000 H   0  0  0  0  0  0  0  0  0  0  0  0
   -1.4730   -0.3004    0.0000 H   0  0  0  0  0  0  0  0  0  0  0  0
   -2.0468    1.4657    0.0000 H   0  0  0  0  0  0  0  0  0  0  0  0
   -0.0815    3.3805    0.0000 H   0  0  0  0  0  0  0  0  0  0  0  0
   -1.7033    2.8537    0.0000 H   0  0  0  0  0  0  0  0  0  0  0  0
  1  2  1  0  0  0  0
  1 30  1  0  0  0  0
  1 31  1  0  0  0  0
  1 32  1  0  0  0  0
  2  3  1  0  0  0  0
  2  4  1  0  0  0  0
  2 33  1  0  0  0  0
  3 34  1  0  0  0  0
  3 35  1  0  0  0  0
  3 36  1  0  0  0  0
  4  5  2  0  0  0  0
  4  6  1  0  0  0  0
  6  7  1  0  0  0  0
  7 37  1  0  0  0  0
  7 38  1  0  0  0  0
  8  7  1  1  0  0  0
  8  9  1  0  0  0  0
  8 11  1  0  0  0  0
  9 10  1  0  0  0  0
  9 39  1  0  0  0  0
  9 40  1  0  0  0  0
 12 11  1  0  0  0  0
 12 22  1  0  0  0  0
 12 41  1  6  0  0  0
 13 12  1  0  0  0  0
 13 14  1  0  0  0  0
 13 15  1  0  0  0  0
 13 42  1  1  0  0  0
 15  8  1  0  0  0  0
 15 16  1  0  0  0  0
 15 43  1  1  0  0  0
 16 17  1  0  0  0  0
 17 18  2  0  0  0  0
 17 19  1  0  0  0  0
 19 20  1  0  0  0  0
 19 21  1  0  0  0  0
 19 44  1  0  0  0  0
 20 45  1  0  0  0  0
 20 46  1  0  0  0  0
 20 47  1  0  0  0  0
 21 48  1  0  0  0  0
 21 49  1  0  0  0  0
 21 50  1  0  0  0  0
 22 23  1  0  0  0  0
 22 28  1  0  0  0  0
 23 24  2  0  0  0  0
 23 51  1  0  0  0  0
 24 25  1  0  0  0  0
 24 52  1  0  0  0  0
 25 26  1  0  0  0  0
 25 27  2  0  0  0  0
 26 53  1  0  0  0  0
 26 54  1  0  0  0  0
 27 28  1  0  0  0  0
 28 29  2  0  0  0  0
M  END
>  <DRUGBANK_ID>
DB14808

>  <COMMON_NAME>
Lumicitabine

>  <CAS_NUMBER>
1445385-02-3

>  <UNII>
BNW5PQ52G1

>  <SYNONYMS>
ALS-008176; Lumicitabine

$$$$
