
 OpenBabel10282417072D

 63 66  0  0  0  0  0  0  0  0999 V2000
    4.4448   -0.8335    0.0000 C   0  0  2  0  0  0  0  0  0  0  0  0
    3.7774   -0.3485    0.0000 O   0  0  0  0  0  0  0  0  0  0  0  0
    4.1899   -1.6180    0.0000 C   0  0  1  0  0  0  0  0  0  0  0  0
    3.3649   -1.6180    0.0000 C   0  0  2  0  0  0  0  0  0  0  0  0
    4.6025   -2.3325    0.0000 O   0  0  0  0  0  0  0  0  0  0  0  0
    2.9524   -2.3325    0.0000 O   0  0  0  0  0  0  0  0  0  0  0  0
    3.1100   -0.8335    0.0000 C   0  0  1  0  0  0  0  0  0  0  0  0
    2.3955   -0.4210    0.0000 C   0  0  0  0  0  0  0  0  0  0  0  0
    1.5705   -0.4210    0.0000 O   0  0  0  0  0  0  0  0  0  0  0  0
    0.7455    0.4039    0.0000 O   0  0  0  0  0  0  0  0  0  0  0  0
    0.7455   -0.4210    0.0000 P   0  0  3  0  0  0  0  0  0  0  0  0
    0.7455   -1.2460    0.0000 O   0  0  0  0  0  0  0  0  0  0  0  0
   -0.0794   -0.4210    0.0000 O   0  0  0  0  0  0  0  0  0  0  0  0
   -0.9045    0.4039    0.0000 O   0  0  0  0  0  0  0  0  0  0  0  0
   -0.9045   -0.4210    0.0000 P   0  0  3  0  0  0  0  0  0  0  0  0
   -0.8731   -1.2460    0.0000 O   0  0  0  0  0  0  0  0  0  0  0  0
   -1.7295   -0.4210    0.0000 O   0  0  0  0  0  0  0  0  0  0  0  0
   -2.4439   -0.8335    0.0000 C   0  0  1  0  0  0  0  0  0  0  0  0
   -3.1583   -0.4209    0.0000 O   0  0  0  0  0  0  0  0  0  0  0  0
   -2.4439   -1.6585    0.0000 C   0  0  1  0  0  0  0  0  0  0  0  0
   -1.7295   -2.0710    0.0000 O   0  0  0  0  0  0  0  0  0  0  0  0
   -3.1583   -2.0710    0.0000 C   0  0  1  0  0  0  0  0  0  0  0  0
   -3.1583   -2.8961    0.0000 O   0  0  0  0  0  0  0  0  0  0  0  0
   -3.8729   -1.6585    0.0000 C   0  0  2  0  0  0  0  0  0  0  0  0
   -4.5874   -2.0710    0.0000 O   0  0  0  0  0  0  0  0  0  0  0  0
   -3.8729   -0.8335    0.0000 C   0  0  1  0  0  0  0  0  0  0  0  0
   -4.5874    0.4039    0.0000 O   0  0  0  0  0  0  0  0  0  0  0  0
   -4.5874   -0.4210    0.0000 C   0  0  0  0  0  0  0  0  0  0  0  0
   -5.3018   -0.8335    0.0000 O   0  0  0  0  0  0  0  0  0  0  0  0
    5.3018    1.2459    0.0000 C   0  0  0  0  0  0  0  0  0  0  0  0
    4.8169    0.5784    0.0000 N   0  0  0  0  0  0  0  0  0  0  0  0
    4.0323    0.8334    0.0000 C   0  0  0  0  0  0  0  0  0  0  0  0
    4.0323    1.6585    0.0000 C   0  0  0  0  0  0  0  0  0  0  0  0
    2.6032    0.8334    0.0000 C   0  0  0  0  0  0  0  0  0  0  0  0
    1.8888    0.4209    0.0000 N   0  0  0  0  0  0  0  0  0  0  0  0
    3.3177    2.0710    0.0000 C   0  0  0  0  0  0  0  0  0  0  0  0
    3.3177    2.8961    0.0000 O   0  0  0  0  0  0  0  0  0  0  0  0
    2.6032    1.6585    0.0000 N   0  0  0  0  0  0  0  0  0  0  0  0
    3.3177    0.4209    0.0000 N   0  0  0  0  0  0  0  0  0  0  0  0
    4.8169    1.9135    0.0000 N   0  0  0  0  0  0  0  0  0  0  0  0
    4.0856    0.1744    0.0000 H   0  0  0  0  0  0  0  0  0  0  0  0
    3.6549   -2.5447    0.0000 H   0  0  0  0  0  0  0  0  0  0  0  0
    2.3008   -1.5062    0.0000 H   0  0  0  0  0  0  0  0  0  0  0  0
    4.1176   -3.1726    0.0000 H   0  0  0  0  0  0  0  0  0  0  0  0
    1.9824   -2.3325    0.0000 H   0  0  0  0  0  0  0  0  0  0  0  0
    3.0539    0.2350    0.0000 H   0  0  0  0  0  0  0  0  0  0  0  0
    2.6724    0.6125    0.0000 H   0  0  0  0  0  0  0  0  0  0  0  0
    1.7441    0.4279    0.0000 H   0  0  0  0  0  0  0  0  0  0  0  0
   -0.0945   -1.7310    0.0000 H   0  0  0  0  0  0  0  0  0  0  0  0
   -1.6941   -1.7626    0.0000 H   0  0  0  0  0  0  0  0  0  0  0  0
   -1.5172   -1.3685    0.0000 H   0  0  0  0  0  0  0  0  0  0  0  0
   -1.5172   -1.1235    0.0000 H   0  0  0  0  0  0  0  0  0  0  0  0
   -1.7295   -3.0410    0.0000 H   0  0  0  0  0  0  0  0  0  0  0  0
   -4.0849   -2.6060    0.0000 H   0  0  0  0  0  0  0  0  0  0  0  0
   -3.9983   -3.3811    0.0000 H   0  0  0  0  0  0  0  0  0  0  0  0
   -4.7995   -1.1235    0.0000 H   0  0  0  0  0  0  0  0  0  0  0  0
   -5.4274   -1.5860    0.0000 H   0  0  0  0  0  0  0  0  0  0  0  0
   -3.8729    0.2365    0.0000 H   0  0  0  0  0  0  0  0  0  0  0  0
   -6.1133   -0.3650    0.0000 H   0  0  0  0  0  0  0  0  0  0  0  0
    6.3338    1.2459    0.0000 H   0  0  0  0  0  0  0  0  0  0  0  0
    1.0362    0.9131    0.0000 H   0  0  0  0  0  0  0  0  0  0  0  0
    1.8888   -0.5636    0.0000 H   0  0  0  0  0  0  0  0  0  0  0  0
    1.7506    2.1508    0.0000 H   0  0  0  0  0  0  0  0  0  0  0  0
  1 31  1  0  0  0  0
  1 41  1  6  0  0  0
  2  7  1  0  0  0  0
  2  1  1  0  0  0  0
  3  1  1  0  0  0  0
  3  5  1  0  0  0  0
  3 42  1  1  0  0  0
  4  3  1  0  0  0  0
  4  6  1  0  0  0  0
  4 43  1  1  0  0  0
  5 44  1  0  0  0  0
  6 45  1  0  0  0  0
  7  4  1  0  0  0  0
  7  8  1  0  0  0  0
  7 46  1  6  0  0  0
  8  9  1  0  0  0  0
  8 47  1  0  0  0  0
  8 48  1  0  0  0  0
  9 11  1  0  0  0  0
 11 13  1  0  0  0  0
 11 10  2  0  0  0  0
 11 12  1  0  0  0  0
 12 49  1  0  0  0  0
 13 15  1  0  0  0  0
 15 17  1  0  0  0  0
 15 14  2  0  0  0  0
 15 16  1  0  0  0  0
 16 50  1  0  0  0  0
 18 17  1  0  0  0  0
 18 51  1  1  0  0  0
 19 18  1  0  0  0  0
 19 26  1  0  0  0  0
 20 18  1  0  0  0  0
 20 21  1  0  0  0  0
 20 52  1  6  0  0  0
 21 53  1  0  0  0  0
 22 20  1  0  0  0  0
 22 23  1  0  0  0  0
 22 54  1  6  0  0  0
 23 55  1  0  0  0  0
 24 22  1  0  0  0  0
 24 25  1  0  0  0  0
 24 56  1  1  0  0  0
 25 57  1  0  0  0  0
 26 24  1  0  0  0  0
 26 28  1  0  0  0  0
 26 58  1  6  0  0  0
 28 27  2  0  0  0  0
 28 29  1  0  0  0  0
 29 59  1  0  0  0  0
 30 60  1  0  0  0  0
 31 30  1  0  0  0  0
 32 31  1  0  0  0  0
 32 33  2  0  0  0  0
 34 39  2  0  0  0  0
 34 35  1  0  0  0  0
 35 61  1  0  0  0  0
 35 62  1  0  0  0  0
 36 33  1  0  0  0  0
 36 38  1  0  0  0  0
 36 37  2  0  0  0  0
 38 34  1  0  0  0  0
 38 63  1  0  0  0  0
 39 32  1  0  0  0  0
 40 33  1  0  0  0  0
 40 30  2  0  0  0  0
M  END
>  <DRUGBANK_ID>
DB04023

>  <SECONDARY_ACCESSION_NUMBERS>
EXPT01577

>  <COMMON_NAME>
GDP-alpha-D-mannuronic acid

>  <SYNONYMS>
GDP-Î±-D-mannuronic acid

$$$$
