PPB
 OpenBabel10282417072D

 59 61  0  0  0  0  0  0  0  0999 V2000
   -2.6196    0.9862    0.0000 C   0  0  0  0  0  0  0  0  0  0  0  0
   -3.3341    0.5737    0.0000 C   0  0  0  0  0  0  0  0  0  0  0  0
   -1.1907    0.9862    0.0000 N   0  0  0  0  0  0  0  0  0  0  0  0
   -1.9052   -0.2513    0.0000 B   0  0  0  0  0  0  0  0  0  0  0  0
   -1.9052    0.5737    0.0000 C   0  0  2  0  0  0  0  0  0  0  0  0
   -1.1907   -0.6638    0.0000 O   0  0  0  0  0  0  0  0  0  0  0  0
   -2.6196   -0.6638    0.0000 O   0  0  0  0  0  0  0  0  0  0  0  0
    0.9919    0.6507    0.0000 N   0  0  0  0  0  0  0  0  0  0  0  0
    0.2382    0.9862    0.0000 C   0  0  2  0  0  0  0  0  0  0  0  0
   -0.4762    0.5737    0.0000 C   0  0  0  0  0  0  0  0  0  0  0  0
   -0.4762   -0.2513    0.0000 O   0  0  0  0  0  0  0  0  0  0  0  0
    0.3245    1.8067    0.0000 C   0  0  0  0  0  0  0  0  0  0  0  0
    1.1314    1.9783    0.0000 C   0  0  0  0  0  0  0  0  0  0  0  0
    1.5439    1.2638    0.0000 C   0  0  0  0  0  0  0  0  0  0  0  0
    1.1634   -0.1563    0.0000 C   0  0  0  0  0  0  0  0  0  0  0  0
    0.5503   -0.7083    0.0000 O   0  0  0  0  0  0  0  0  0  0  0  0
    1.9481   -0.4112    0.0000 C   0  0  1  0  0  0  0  0  0  0  0  0
   -3.3341   -0.2513    0.0000 C   0  0  0  0  0  0  0  0  0  0  0  0
   -4.0486   -0.6638    0.0000 C   0  0  0  0  0  0  0  0  0  0  0  0
   -4.0486    0.9862    0.0000 C   0  0  0  0  0  0  0  0  0  0  0  0
   -4.7631    0.5737    0.0000 C   0  0  0  0  0  0  0  0  0  0  0  0
   -4.7631   -0.2513    0.0000 C   0  0  0  0  0  0  0  0  0  0  0  0
   -4.0486   -1.4888    0.0000 C   0  0  0  0  0  0  0  0  0  0  0  0
   -4.0486   -2.3138    0.0000 N   0  0  0  0  0  0  0  0  0  0  0  0
    2.1196   -1.2182    0.0000 C   0  0  0  0  0  0  0  0  0  0  0  0
    2.5612    0.1408    0.0000 N   0  0  0  0  0  0  0  0  0  0  0  0
    4.3019   -1.1760    0.0000 C   0  0  0  0  0  0  0  0  0  0  0  0
    4.4735   -1.9830    0.0000 C   0  0  0  0  0  0  0  0  0  0  0  0
    3.8604   -2.5350    0.0000 C   0  0  0  0  0  0  0  0  0  0  0  0
    3.0757   -2.2801    0.0000 C   0  0  0  0  0  0  0  0  0  0  0  0
    2.9042   -1.4731    0.0000 C   0  0  0  0  0  0  0  0  0  0  0  0
    3.5173   -0.9211    0.0000 C   0  0  0  0  0  0  0  0  0  0  0  0
   -1.9052    1.1577    0.0000 H   0  0  0  0  0  0  0  0  0  0  0  0
    0.2688    0.4031    0.0000 H   0  0  0  0  0  0  0  0  0  0  0  0
    1.5141   -0.8019    0.0000 H   0  0  0  0  0  0  0  0  0  0  0  0
   -2.6196    2.0562    0.0000 H   0  0  0  0  0  0  0  0  0  0  0  0
   -1.6929    1.5212    0.0000 H   0  0  0  0  0  0  0  0  0  0  0  0
   -1.1907    1.9707    0.0000 H   0  0  0  0  0  0  0  0  0  0  0  0
   -1.1907   -1.6338    0.0000 H   0  0  0  0  0  0  0  0  0  0  0  0
   -3.4597   -0.1788    0.0000 H   0  0  0  0  0  0  0  0  0  0  0  0
   -0.4707    2.5227    0.0000 H   0  0  0  0  0  0  0  0  0  0  0  0
    0.6014    2.8403    0.0000 H   0  0  0  0  0  0  0  0  0  0  0  0
    1.5666    2.9558    0.0000 H   0  0  0  0  0  0  0  0  0  0  0  0
    2.1999    2.0343    0.0000 H   0  0  0  0  0  0  0  0  0  0  0  0
    2.6080    1.1520    0.0000 H   0  0  0  0  0  0  0  0  0  0  0  0
    2.1267    2.1612    0.0000 H   0  0  0  0  0  0  0  0  0  0  0  0
   -2.4404   -0.7673    0.0000 H   0  0  0  0  0  0  0  0  0  0  0  0
   -4.0486    2.0182    0.0000 H   0  0  0  0  0  0  0  0  0  0  0  0
   -5.6568    1.0897    0.0000 H   0  0  0  0  0  0  0  0  0  0  0  0
   -5.6568   -0.7673    0.0000 H   0  0  0  0  0  0  0  0  0  0  0  0
    1.3244   -1.9342    0.0000 H   0  0  0  0  0  0  0  0  0  0  0  0
    2.3421   -2.2648    0.0000 H   0  0  0  0  0  0  0  0  0  0  0  0
    3.5313   -0.1744    0.0000 H   0  0  0  0  0  0  0  0  0  0  0  0
    2.3492    1.1385    0.0000 H   0  0  0  0  0  0  0  0  0  0  0  0
    5.0688   -0.4854    0.0000 H   0  0  0  0  0  0  0  0  0  0  0  0
    5.4550   -2.3019    0.0000 H   0  0  0  0  0  0  0  0  0  0  0  0
    4.0750   -3.5444    0.0000 H   0  0  0  0  0  0  0  0  0  0  0  0
    2.3088   -2.9707    0.0000 H   0  0  0  0  0  0  0  0  0  0  0  0
    3.3027    0.0883    0.0000 H   0  0  0  0  0  0  0  0  0  0  0  0
  1  2  1  0  0  0  0
  1  5  1  0  0  0  0
  1 36  1  0  0  0  0
  1 37  1  0  0  0  0
  2 18  2  0  0  0  0
  2 20  1  0  0  0  0
  3  5  1  0  0  0  0
  3 10  1  0  0  0  0
  3 38  1  0  0  0  0
  4  6  1  0  0  0  0
  4  7  1  0  0  0  0
  5  4  1  0  0  0  0
  5 33  1  1  0  0  0
  6 39  1  0  0  0  0
  7 40  1  0  0  0  0
  8  9  1  0  0  0  0
  8 14  1  0  0  0  0
  8 15  1  0  0  0  0
  9 10  1  0  0  0  0
  9 12  1  0  0  0  0
  9 34  1  1  0  0  0
 10 11  2  0  0  0  0
 12 13  1  0  0  0  0
 12 41  1  0  0  0  0
 12 42  1  0  0  0  0
 13 14  1  0  0  0  0
 13 43  1  0  0  0  0
 13 44  1  0  0  0  0
 14 45  1  0  0  0  0
 14 46  1  0  0  0  0
 15 16  2  0  0  0  0
 15 17  1  0  0  0  0
 17 25  1  0  0  0  0
 17 26  1  0  0  0  0
 17 35  1  1  0  0  0
 18 19  1  0  0  0  0
 18 47  1  0  0  0  0
 19 22  2  0  0  0  0
 19 23  1  0  0  0  0
 20 21  2  0  0  0  0
 20 48  1  0  0  0  0
 21 22  1  0  0  0  0
 21 49  1  0  0  0  0
 22 50  1  0  0  0  0
 23 24  3  0  0  0  0
 25 31  1  0  0  0  0
 25 51  1  0  0  0  0
 25 52  1  0  0  0  0
 26 53  1  0  0  0  0
 26 54  1  0  0  0  0
 27 28  2  0  0  0  0
 27 32  1  0  0  0  0
 27 55  1  0  0  0  0
 28 29  1  0  0  0  0
 28 56  1  0  0  0  0
 29 30  2  0  0  0  0
 29 57  1  0  0  0  0
 30 31  1  0  0  0  0
 30 58  1  0  0  0  0
 31 32  2  0  0  0  0
 32 59  1  0  0  0  0
M  END
>  <DRUGBANK_ID>
DB08420

>  <COMMON_NAME>
1-{[1-(2-AMINO-3-PHENYL-PROPIONYL)-PYRROLIDINE-2-CARBONYL]-AMINO}-2-(3-CYANO-PHENYL)-ETHANEBORONIC ACID

$$$$
