I06
 OpenBabel10282417072D

 34 36  0  0  0  0  0  0  0  0999 V2000
   -3.1962    0.0777    0.0000 C   0  0  0  0  0  0  0  0  0  0  0  0
   -2.4817   -0.3348    0.0000 C   0  0  0  0  0  0  0  0  0  0  0  0
   -1.7672    0.0777    0.0000 C   0  0  0  0  0  0  0  0  0  0  0  0
   -1.7672    0.9027    0.0000 C   0  0  0  0  0  0  0  0  0  0  0  0
   -2.4817    1.3152    0.0000 C   0  0  0  0  0  0  0  0  0  0  0  0
   -3.1962    0.9027    0.0000 C   0  0  0  0  0  0  0  0  0  0  0  0
   -1.0528   -0.3348    0.0000 C   0  0  0  0  0  0  0  0  0  0  0  0
   -1.0528   -1.1598    0.0000 O   0  0  0  0  0  0  0  0  0  0  0  0
   -0.3383    0.0777    0.0000 N   0  0  0  0  0  0  0  0  0  0  0  0
   -0.3383    0.9027    0.0000 N   0  0  0  0  0  0  0  0  0  0  0  0
   -1.0528    1.3152    0.0000 C   0  0  0  0  0  0  0  0  0  0  0  0
   -1.0528    2.1402    0.0000 O   0  0  0  0  0  0  0  0  0  0  0  0
    0.3762   -0.3348    0.0000 C   0  0  0  0  0  0  0  0  0  0  0  0
    1.0907    0.0777    0.0000 C   0  0  0  0  0  0  0  0  0  0  0  0
    1.8051   -0.3348    0.0000 C   0  0  0  0  0  0  0  0  0  0  0  0
    2.5196    0.0777    0.0000 C   0  0  0  0  0  0  0  0  0  0  0  0
    1.8051   -1.1598    0.0000 C   0  0  0  0  0  0  0  0  0  0  0  0
    3.2341   -0.3348    0.0000 C   0  0  0  0  0  0  0  0  0  0  0  0
    2.5196   -1.5723    0.0000 C   0  0  0  0  0  0  0  0  0  0  0  0
    3.2341   -1.1598    0.0000 C   0  0  0  0  0  0  0  0  0  0  0  0
   -4.0899   -0.4383    0.0000 H   0  0  0  0  0  0  0  0  0  0  0  0
   -2.4817   -1.3668    0.0000 H   0  0  0  0  0  0  0  0  0  0  0  0
   -2.4817    2.3472    0.0000 H   0  0  0  0  0  0  0  0  0  0  0  0
   -4.0899    1.4187    0.0000 H   0  0  0  0  0  0  0  0  0  0  0  0
    0.5143    1.3950    0.0000 H   0  0  0  0  0  0  0  0  0  0  0  0
    0.3762   -1.4048    0.0000 H   0  0  0  0  0  0  0  0  0  0  0  0
    1.3028   -0.8698    0.0000 H   0  0  0  0  0  0  0  0  0  0  0  0
    1.0907    1.1477    0.0000 H   0  0  0  0  0  0  0  0  0  0  0  0
    2.0174    0.6127    0.0000 H   0  0  0  0  0  0  0  0  0  0  0  0
    2.5196    1.1097    0.0000 H   0  0  0  0  0  0  0  0  0  0  0  0
    0.9114   -1.6758    0.0000 H   0  0  0  0  0  0  0  0  0  0  0  0
    4.1278    0.1812    0.0000 H   0  0  0  0  0  0  0  0  0  0  0  0
    2.5196   -2.6043    0.0000 H   0  0  0  0  0  0  0  0  0  0  0  0
    4.1278   -1.6758    0.0000 H   0  0  0  0  0  0  0  0  0  0  0  0
  1  2  2  0  0  0  0
  1  6  1  0  0  0  0
  1 21  1  0  0  0  0
  2  3  1  0  0  0  0
  2 22  1  0  0  0  0
  3  4  2  0  0  0  0
  3  7  1  0  0  0  0
  4  5  1  0  0  0  0
  4 11  1  0  0  0  0
  5  6  2  0  0  0  0
  5 23  1  0  0  0  0
  6 24  1  0  0  0  0
  7  8  2  0  0  0  0
  7  9  1  0  0  0  0
  9 10  1  0  0  0  0
  9 13  1  0  0  0  0
 10 11  1  0  0  0  0
 10 25  1  0  0  0  0
 11 12  2  0  0  0  0
 13 14  1  0  0  0  0
 13 26  1  0  0  0  0
 13 27  1  0  0  0  0
 14 15  1  0  0  0  0
 14 28  1  0  0  0  0
 14 29  1  0  0  0  0
 15 16  2  0  0  0  0
 15 17  1  0  0  0  0
 16 18  1  0  0  0  0
 16 30  1  0  0  0  0
 17 19  2  0  0  0  0
 17 31  1  0  0  0  0
 18 20  2  0  0  0  0
 18 32  1  0  0  0  0
 19 20  1  0  0  0  0
 19 33  1  0  0  0  0
 20 34  1  0  0  0  0
M  END
>  <DRUGBANK_ID>
DB03421

>  <SECONDARY_ACCESSION_NUMBERS>
EXPT01806

>  <COMMON_NAME>
2-Phenethyl-2,3-Dihydro-Phthalazine-1,4-Dione

$$$$
