820
 OpenBabel10282417072D

 48 53  0  0  1  0  0  0  0  0999 V2000
    7.2908    0.5262    0.0000 O   0  0  0  0  0  0  0  0  0  0  0  0
    4.3835    2.2047    0.0000 O   0  0  0  0  0  0  0  0  0  0  0  0
    2.7999    2.9805    0.0000 O   0  0  0  0  0  0  0  0  0  0  0  0
    1.6500    2.3166    0.0000 O   0  0  0  0  0  0  0  0  0  0  0  0
    5.1159    0.9412    0.0000 N   0  0  0  0  0  0  0  0  0  0  0  0
    3.7934   -0.8466    0.0000 N   0  0  0  0  0  0  0  0  0  0  0  0
    6.5878    1.8063    0.0000 N   0  0  0  0  0  0  0  0  0  0  0  0
    5.8304    0.5287    0.0000 C   0  0  2  0  0  0  0  0  0  0  0  0
    4.4015    0.5287    0.0000 C   0  0  1  0  0  0  0  0  0  0  0  0
    5.8304   -0.2963    0.0000 C   0  0  0  0  0  0  0  0  0  0  0  0
    4.4015   -0.2963    0.0000 C   0  0  0  0  0  0  0  0  0  0  0  0
    5.1159   -0.7088    0.0000 C   0  0  0  0  0  0  0  0  0  0  0  0
    6.5811    0.9469    0.0000 C   0  0  0  0  0  0  0  0  0  0  0  0
    4.9433   -1.5105    0.0000 C   0  0  0  0  0  0  0  0  0  0  0  0
    5.1027    1.8005    0.0000 C   0  0  0  0  0  0  0  0  0  0  0  0
    3.6870    0.9412    0.0000 C   0  0  0  0  0  0  0  0  0  0  0  0
    5.8436    2.2359    0.0000 C   0  0  0  0  0  0  0  0  0  0  0  0
    4.1276   -1.5955    0.0000 C   0  0  0  0  0  0  0  0  0  0  0  0
    5.4555   -2.1943    0.0000 C   0  0  0  0  0  0  0  0  0  0  0  0
    3.6870    1.7662    0.0000 C   0  0  0  0  0  0  0  0  0  0  0  0
    2.9725    0.5287    0.0000 C   0  0  0  0  0  0  0  0  0  0  0  0
    3.7675   -2.3701    0.0000 C   0  0  0  0  0  0  0  0  0  0  0  0
    7.3038    2.2160    0.0000 C   0  0  0  0  0  0  0  0  0  0  0  0
    2.9725    2.1787    0.0000 C   0  0  0  0  0  0  0  0  0  0  0  0
    5.1134   -2.9770    0.0000 C   0  0  0  0  0  0  0  0  0  0  0  0
    2.2580    0.9412    0.0000 C   0  0  0  0  0  0  0  0  0  0  0  0
    4.2637   -3.0655    0.0000 C   0  0  0  0  0  0  0  0  0  0  0  0
    2.2580    1.7662    0.0000 C   0  0  0  0  0  0  0  0  0  0  0  0
    1.9842    3.0655    0.0000 C   0  0  0  0  0  0  0  0  0  0  0  0
    6.3994    0.1944    0.0000 H   0  0  0  0  0  0  0  0  0  0  0  0
    2.8301   -0.6435    0.0000 H   0  0  0  0  0  0  0  0  0  0  0  0
    4.4015    1.5987    0.0000 H   0  0  0  0  0  0  0  0  0  0  0  0
    6.7570   -0.8313    0.0000 H   0  0  0  0  0  0  0  0  0  0  0  0
    5.8304   -1.3663    0.0000 H   0  0  0  0  0  0  0  0  0  0  0  0
    5.8394    3.3059    0.0000 H   0  0  0  0  0  0  0  0  0  0  0  0
    4.9139    2.7655    0.0000 H   0  0  0  0  0  0  0  0  0  0  0  0
    6.4806   -2.0755    0.0000 H   0  0  0  0  0  0  0  0  0  0  0  0
    4.5807    2.2822    0.0000 H   0  0  0  0  0  0  0  0  0  0  0  0
    2.9725   -0.5033    0.0000 H   0  0  0  0  0  0  0  0  0  0  0  0
    2.7399   -2.4652    0.0000 H   0  0  0  0  0  0  0  0  0  0  0  0
    8.2284    1.6774    0.0000 H   0  0  0  0  0  0  0  0  0  0  0  0
    7.3079    3.2860    0.0000 H   0  0  0  0  0  0  0  0  0  0  0  0
    8.2325    2.7474    0.0000 H   0  0  0  0  0  0  0  0  0  0  0  0
    5.7224   -3.8101    0.0000 H   0  0  0  0  0  0  0  0  0  0  0  0
    1.3643    0.4252    0.0000 H   0  0  0  0  0  0  0  0  0  0  0  0
    3.8395   -4.0063    0.0000 H   0  0  0  0  0  0  0  0  0  0  0  0
    1.4492    3.9921    0.0000 H   0  0  0  0  0  0  0  0  0  0  0  0
    0.9156    3.0099    0.0000 H   0  0  0  0  0  0  0  0  0  0  0  0
  1 13  2  0  0  0  0
  2 15  2  0  0  0  0
  3 24  1  0  0  0  0
  3 29  1  0  0  0  0
  4 28  1  0  0  0  0
  4 29  1  0  0  0  0
  5  8  1  0  0  0  0
  5  9  1  0  0  0  0
  5 15  1  0  0  0  0
  6 11  1  0  0  0  0
  6 18  1  0  0  0  0
  6 31  1  0  0  0  0
  7 13  1  0  0  0  0
  7 17  1  0  0  0  0
  7 23  1  0  0  0  0
  8 10  1  0  0  0  0
  8 13  1  0  0  0  0
  8 30  1  6  0  0  0
  9 11  1  0  0  0  0
  9 16  1  0  0  0  0
  9 32  1  6  0  0  0
 10 12  1  0  0  0  0
 10 33  1  0  0  0  0
 10 34  1  0  0  0  0
 11 12  2  0  0  0  0
 12 14  1  0  0  0  0
 14 18  1  0  0  0  0
 14 19  2  0  0  0  0
 15 17  1  0  0  0  0
 16 20  2  0  0  0  0
 16 21  1  0  0  0  0
 17 35  1  0  0  0  0
 17 36  1  0  0  0  0
 18 22  2  0  0  0  0
 19 25  1  0  0  0  0
 19 37  1  0  0  0  0
 20 24  1  0  0  0  0
 20 38  1  0  0  0  0
 21 26  2  0  0  0  0
 21 39  1  0  0  0  0
 22 27  1  0  0  0  0
 22 40  1  0  0  0  0
 23 41  1  0  0  0  0
 23 42  1  0  0  0  0
 23 43  1  0  0  0  0
 24 28  2  0  0  0  0
 25 27  2  0  0  0  0
 25 44  1  0  0  0  0
 26 28  1  0  0  0  0
 26 45  1  0  0  0  0
 27 46  1  0  0  0  0
 29 47  1  0  0  0  0
 29 48  1  0  0  0  0
M  END
>  <DRUGBANK_ID>
DB00820

>  <SECONDARY_ACCESSION_NUMBERS>
APRD00071

>  <COMMON_NAME>
Tadalafil

>  <CAS_NUMBER>
171596-29-5

>  <UNII>
742SXX0ICT

>  <SYNONYMS>
(6R-trans)-6-(1,3-Benzodioxol-5-yl)-2,3,6,7,12,12a-hexahydro-2-methyl-pyrazino(1',2':1,6)pyrido(3,4-b)indole-1,4-dione; (6R,12aR)-2,3,6,7,12,12a-Hexahydro-2-methyl-6-(3,4-(methylenedioxy)phenyl) pyrazino(1',2':1,6)pyrido(3,4-b)indole-1,4-dione; Tadalafil; Tadalafilo

$$$$
