
 OpenBabel10282417072D

 60 62  0  0  1  0  0  0  0  0999 V2000
   14.6775  -14.2322    0.0000 P   0  0  1  0  0  0  0  0  0  0  0  0
   15.3921  -12.9946    0.0000 P   0  0  2  0  0  0  0  0  0  0  0  0
   16.9072  -10.5241    0.0000 O   0  0  0  0  0  0  0  0  0  0  0  0
   13.2486  -15.0572    0.0000 O   0  0  0  0  0  0  0  0  0  0  0  0
   17.7463  -12.4872    0.0000 O   0  0  0  0  0  0  0  0  0  0  0  0
   18.9473  -11.1533    0.0000 O   0  0  0  0  0  0  0  0  0  0  0  0
   14.6775  -15.0572    0.0000 O   0  0  0  0  0  0  0  0  0  0  0  0
   13.2486  -17.5322    0.0000 O   0  0  0  0  0  0  0  0  0  0  0  0
   11.8196  -16.7072    0.0000 O   0  0  0  0  0  0  0  0  0  0  0  0
   16.1065  -12.5821    0.0000 O   0  0  0  0  0  0  0  0  0  0  0  0
   14.6775  -16.7072    0.0000 O   0  0  0  0  0  0  0  0  0  0  0  0
   14.6775  -13.4071    0.0000 O   0  0  0  0  0  0  0  0  0  0  0  0
   11.8196  -14.2322    0.0000 O   0  0  0  0  0  0  0  0  0  0  0  0
   19.3552  -10.1801    0.0000 O   0  0  0  0  0  0  0  0  0  0  0  0
   15.5026  -14.2322    0.0000 O   0  0  0  0  0  0  0  0  0  0  0  0
   14.9796  -12.2802    0.0000 O   0  0  0  0  0  0  0  0  0  0  0  0
   13.8525  -14.2322    0.0000 O   0  0  0  0  0  0  0  0  0  0  0  0
   15.8046  -13.7091    0.0000 O   0  0  0  0  0  0  0  0  0  0  0  0
   19.0565   -7.3378    0.0000 O   0  0  0  0  0  0  0  0  0  0  0  0
   18.0498   -9.5989    0.0000 N   0  0  0  0  0  0  0  0  0  0  0  0
   19.2059   -8.7590    0.0000 N   0  0  0  0  0  0  0  0  0  0  0  0
   17.5748  -11.6801    0.0000 C   0  0  1  0  0  0  0  0  0  0  0  0
   18.1268  -11.0671    0.0000 C   0  0  2  0  0  0  0  0  0  0  0  0
   16.8210  -11.3446    0.0000 C   0  0  1  0  0  0  0  0  0  0  0  0
   17.7143  -10.3526    0.0000 C   0  0  1  0  0  0  0  0  0  0  0  0
   13.2486  -16.7072    0.0000 C   0  0  1  0  0  0  0  0  0  0  0  0
   12.5341  -16.2947    0.0000 C   0  0  2  0  0  0  0  0  0  0  0  0
   13.9631  -16.2947    0.0000 C   0  0  2  0  0  0  0  0  0  0  0  0
   12.5341  -15.4697    0.0000 C   0  0  1  0  0  0  0  0  0  0  0  0
   13.9631  -15.4697    0.0000 C   0  0  2  0  0  0  0  0  0  0  0  0
   16.1065  -11.7571    0.0000 C   0  0  0  0  0  0  0  0  0  0  0  0
   11.8196  -15.0572    0.0000 C   0  0  0  0  0  0  0  0  0  0  0  0
   18.8703   -9.5126    0.0000 C   0  0  0  0  0  0  0  0  0  0  0  0
   17.5648   -8.9314    0.0000 C   0  0  0  0  0  0  0  0  0  0  0  0
   17.9005   -8.1778    0.0000 C   0  0  0  0  0  0  0  0  0  0  0  0
   18.7209   -8.0915    0.0000 C   0  0  0  0  0  0  0  0  0  0  0  0
   17.0254  -13.1362    0.0000 H   0  0  0  0  0  0  0  0  0  0  0  0
   19.3419  -12.0394    0.0000 H   0  0  0  0  0  0  0  0  0  0  0  0
   12.4086  -18.0172    0.0000 H   0  0  0  0  0  0  0  0  0  0  0  0
   10.9796  -16.2222    0.0000 H   0  0  0  0  0  0  0  0  0  0  0  0
   14.6775  -17.6772    0.0000 H   0  0  0  0  0  0  0  0  0  0  0  0
   12.6596  -13.7472    0.0000 H   0  0  0  0  0  0  0  0  0  0  0  0
   15.9876  -15.0722    0.0000 H   0  0  0  0  0  0  0  0  0  0  0  0
   15.4646  -11.4401    0.0000 H   0  0  0  0  0  0  0  0  0  0  0  0
   20.1850   -8.6561    0.0000 H   0  0  0  0  0  0  0  0  0  0  0  0
   18.6083  -11.9571    0.0000 H   0  0  0  0  0  0  0  0  0  0  0  0
   18.5103  -12.0660    0.0000 H   0  0  0  0  0  0  0  0  0  0  0  0
   15.9236  -10.7618    0.0000 H   0  0  0  0  0  0  0  0  0  0  0  0
   17.0409   -9.5211    0.0000 H   0  0  0  0  0  0  0  0  0  0  0  0
   12.3220  -17.2422    0.0000 H   0  0  0  0  0  0  0  0  0  0  0  0
   12.5341  -17.3647    0.0000 H   0  0  0  0  0  0  0  0  0  0  0  0
   13.9631  -17.3647    0.0000 H   0  0  0  0  0  0  0  0  0  0  0  0
   12.5341  -14.3997    0.0000 H   0  0  0  0  0  0  0  0  0  0  0  0
   13.9631  -14.3997    0.0000 H   0  0  0  0  0  0  0  0  0  0  0  0
   15.1799  -11.2221    0.0000 H   0  0  0  0  0  0  0  0  0  0  0  0
   16.1065  -10.6871    0.0000 H   0  0  0  0  0  0  0  0  0  0  0  0
   10.8930  -15.5922    0.0000 H   0  0  0  0  0  0  0  0  0  0  0  0
   11.8196  -16.1272    0.0000 H   0  0  0  0  0  0  0  0  0  0  0  0
   16.5384   -9.0392    0.0000 H   0  0  0  0  0  0  0  0  0  0  0  0
   17.2940   -7.3429    0.0000 H   0  0  0  0  0  0  0  0  0  0  0  0
  1  7  1  0  0  0  0
  1 12  1  0  0  0  0
  1 15  1  0  0  0  0
  1 17  2  6  0  0  0
  2 10  1  0  0  0  0
  2 12  1  0  0  0  0
  2 16  1  0  0  0  0
  2 18  2  1  0  0  0
  3 24  1  0  0  0  0
  3 25  1  0  0  0  0
  4 29  1  0  0  0  0
  4 30  1  0  0  0  0
  5 37  1  0  0  0  0
  6 38  1  0  0  0  0
  8 39  1  0  0  0  0
  9 40  1  0  0  0  0
 10 31  1  0  0  0  0
 11 41  1  0  0  0  0
 13 32  1  0  0  0  0
 13 42  1  0  0  0  0
 14 33  2  0  0  0  0
 15 43  1  0  0  0  0
 16 44  1  0  0  0  0
 19 36  2  0  0  0  0
 20 33  1  0  0  0  0
 20 34  1  0  0  0  0
 21 33  1  0  0  0  0
 21 36  1  0  0  0  0
 21 45  1  0  0  0  0
 22  5  1  0  0  0  0
 22 23  1  0  0  0  0
 22 24  1  0  0  0  0
 22 46  1  1  0  0  0
 23  6  1  0  0  0  0
 23 25  1  0  0  0  0
 23 47  1  1  0  0  0
 24 31  1  0  0  0  0
 24 48  1  6  0  0  0
 25 20  1  0  0  0  0
 25 49  1  6  0  0  0
 26  8  1  0  0  0  0
 26 27  1  0  0  0  0
 26 28  1  0  0  0  0
 26 50  1  6  0  0  0
 27  9  1  0  0  0  0
 27 29  1  0  0  0  0
 27 51  1  6  0  0  0
 28 11  1  0  0  0  0
 28 30  1  0  0  0  0
 28 52  1  1  0  0  0
 29 32  1  0  0  0  0
 29 53  1  6  0  0  0
 30  7  1  0  0  0  0
 30 54  1  1  0  0  0
 31 55  1  0  0  0  0
 31 56  1  0  0  0  0
 32 57  1  0  0  0  0
 32 58  1  0  0  0  0
 34 35  2  0  0  0  0
 34 59  1  0  0  0  0
 35 36  1  0  0  0  0
 35 60  1  0  0  0  0
M  END
>  <DRUGBANK_ID>
DB03501

>  <SECONDARY_ACCESSION_NUMBERS>
EXPT01576

>  <COMMON_NAME>
Galactose-uridine-5'-diphosphate

>  <CAS_NUMBER>
2956-16-3

>  <UNII>
O2HY4WY2W1

>  <SYNONYMS>
UDP galactose; UDP-alpha-D-galactose; UDP-D-galactopyranose; UDP-galactose; UDP-α-D-galactopyranose; UDP-α-D-galactose; UDPgal; Uridine diphosphate galactose; Uridine diphosphategalactose; Uridine diphosphogalactose; Uridine pyrophosphogalactose; Uridinediphosphogalactose

$$$$
