
 OpenBabel10282417072D

 50 53  0  0  0  0  0  0  0  0999 V2000
   -2.0051    3.2704    0.0000 C   0  0  0  0  0  0  0  0  0  0  0  0
   -2.4176    2.5559    0.0000 C   0  0  0  0  0  0  0  0  0  0  0  0
   -1.1801    3.2704    0.0000 C   0  0  0  0  0  0  0  0  0  0  0  0
   -2.0051    1.8414    0.0000 C   0  0  0  0  0  0  0  0  0  0  0  0
   -0.7676    2.5559    0.0000 C   0  0  0  0  0  0  0  0  0  0  0  0
    3.9934    0.8250    0.0000 C   0  0  0  0  0  0  0  0  0  0  0  0
    3.2789    1.2375    0.0000 C   0  0  0  0  0  0  0  0  0  0  0  0
   -1.1801   -1.0164    0.0000 C   0  0  0  0  0  0  0  0  0  0  0  0
   -0.7676   -1.7309    0.0000 C   0  0  0  0  0  0  0  0  0  0  0  0
   -1.1801    0.4125    0.0000 C   0  0  0  0  0  0  0  0  0  0  0  0
    0.0574   -0.3020    0.0000 C   0  0  0  0  0  0  0  0  0  0  0  0
    3.2789   -0.4125    0.0000 C   0  0  0  0  0  0  0  0  0  0  0  0
   -0.7676   -0.3020    0.0000 C   0  0  0  0  0  0  0  0  0  0  0  0
   -1.1801    1.8414    0.0000 C   0  0  0  0  0  0  0  0  0  0  0  0
    3.9934    0.0000    0.0000 C   0  0  0  0  0  0  0  0  0  0  0  0
   -0.7676    1.1270    0.0000 C   0  0  0  0  0  0  0  0  0  0  0  0
    0.4699    0.4125    0.0000 C   0  0  0  0  0  0  0  0  0  0  0  0
    2.5645    0.8250    0.0000 C   0  0  0  0  0  0  0  0  0  0  0  0
    2.5645    0.0000    0.0000 C   0  0  0  0  0  0  0  0  0  0  0  0
    0.0574    1.1270    0.0000 C   0  0  0  0  0  0  0  0  0  0  0  0
    4.7079   -0.4125    0.0000 C   0  0  0  0  0  0  0  0  0  0  0  0
    1.2949    0.4125    0.0000 C   0  0  0  0  0  0  0  0  0  0  0  0
   -1.1801   -2.4454    0.0000 N   0  3  0  0  0  0  0  0  0  0  0  0
    5.4223   -0.0000    0.0000 N   0  0  0  0  0  0  0  0  0  0  0  0
    4.7079   -1.2375    0.0000 N   0  0  0  0  0  0  0  0  0  0  0  0
    1.7798    1.0799    0.0000 N   0  0  0  0  0  0  0  0  0  0  0  0
    1.7798   -0.2549    0.0000 N   0  0  0  0  0  0  0  0  0  0  0  0
    0.4699    1.8414    0.0000 O   0  0  0  0  0  0  0  0  0  0  0  0
   -2.5211    4.1641    0.0000 H   0  0  0  0  0  0  0  0  0  0  0  0
   -3.4496    2.5559    0.0000 H   0  0  0  0  0  0  0  0  0  0  0  0
   -0.6641    4.1641    0.0000 H   0  0  0  0  0  0  0  0  0  0  0  0
   -2.5211    0.9477    0.0000 H   0  0  0  0  0  0  0  0  0  0  0  0
    0.2644    2.5559    0.0000 H   0  0  0  0  0  0  0  0  0  0  0  0
    4.8871    1.3410    0.0000 H   0  0  0  0  0  0  0  0  0  0  0  0
    3.2789    2.2695    0.0000 H   0  0  0  0  0  0  0  0  0  0  0  0
   -2.2501   -1.0164    0.0000 H   0  0  0  0  0  0  0  0  0  0  0  0
   -1.7151   -0.0897    0.0000 H   0  0  0  0  0  0  0  0  0  0  0  0
    0.3024   -1.7309    0.0000 H   0  0  0  0  0  0  0  0  0  0  0  0
   -0.2326   -2.6575    0.0000 H   0  0  0  0  0  0  0  0  0  0  0  0
   -2.2121    0.4125    0.0000 H   0  0  0  0  0  0  0  0  0  0  0  0
    0.5734   -1.1957    0.0000 H   0  0  0  0  0  0  0  0  0  0  0  0
    3.2789   -1.4445    0.0000 H   0  0  0  0  0  0  0  0  0  0  0  0
   -2.2001   -2.4454    0.0000 H   0  0  0  0  0  0  0  0  0  0  0  0
   -0.6701   -3.3287    0.0000 H   0  0  0  0  0  0  0  0  0  0  0  0
   -1.6901   -3.3288    0.0000 H   0  0  0  0  0  0  0  0  0  0  0  0
    6.2749   -0.4922    0.0000 H   0  0  0  0  0  0  0  0  0  0  0  0
    3.8553   -1.7298    0.0000 H   0  0  0  0  0  0  0  0  0  0  0  0
    5.5605   -1.7297    0.0000 H   0  0  0  0  0  0  0  0  0  0  0  0
    1.4755   -1.1912    0.0000 H   0  0  0  0  0  0  0  0  0  0  0  0
    1.4069    1.8414    0.0000 H   0  0  0  0  0  0  0  0  0  0  0  0
  1 29  1  0  0  0  0
  2  1  2  0  0  0  0
  2 30  1  0  0  0  0
  3  1  1  0  0  0  0
  3 31  1  0  0  0  0
  4  2  1  0  0  0  0
  4 32  1  0  0  0  0
  5  3  2  0  0  0  0
  5 33  1  0  0  0  0
  6 34  1  0  0  0  0
  7  6  2  0  0  0  0
  7 35  1  0  0  0  0
  8 36  1  0  0  0  0
  8 37  1  0  0  0  0
  9  8  1  0  0  0  0
  9 38  1  0  0  0  0
  9 39  1  0  0  0  0
 10 40  1  0  0  0  0
 11 41  1  0  0  0  0
 12 42  1  0  0  0  0
 13  8  1  0  0  0  0
 13 10  2  0  0  0  0
 13 11  1  0  0  0  0
 14  4  2  0  0  0  0
 14  5  1  0  0  0  0
 15  6  1  0  0  0  0
 15 12  2  0  0  0  0
 16 10  1  0  0  0  0
 16 14  1  0  0  0  0
 17 11  2  0  0  0  0
 18  7  1  0  0  0  0
 19 12  1  0  0  0  0
 19 18  2  0  0  0  0
 20 16  2  0  0  0  0
 20 17  1  0  0  0  0
 21 15  1  0  0  0  0
 22 17  1  0  0  0  0
 23  9  1  0  0  0  0
 23 43  1  0  0  0  0
 23 44  1  0  0  0  0
 23 45  1  0  0  0  0
 24 21  2  0  0  0  0
 24 46  1  0  0  0  0
 25 21  1  0  0  0  0
 25 47  1  0  0  0  0
 25 48  1  0  0  0  0
 26 18  1  0  0  0  0
 26 22  2  0  0  0  0
 27 19  1  0  0  0  0
 27 22  1  0  0  0  0
 27 49  1  0  0  0  0
 28 20  1  0  0  0  0
 28 50  1  0  0  0  0
M  CHG  1  23   1
M  END
>  <DRUGBANK_ID>
DB04246

>  <SECONDARY_ACCESSION_NUMBERS>
EXPT00268

>  <COMMON_NAME>
CRA_23653

$$$$
