
 OpenBabel10282417072D

 30 30  0  0  0  0  0  0  0  0999 V2000
    1.6500   -0.9529    0.0000 O   0  5  0  0  0  0  0  0  0  0  0  0
    2.3645    0.2846    0.0000 O   0  0  0  0  0  0  0  0  0  0  0  0
    3.7935    0.2846    0.0000 N   0  0  0  0  0  0  0  0  0  0  0  0
    5.2224    2.7597    0.0000 N   0  0  0  0  0  0  0  0  0  0  0  0
    2.3645   -0.5404    0.0000 N   0  3  0  0  0  0  0  0  0  0  0  0
    4.5080    0.6971    0.0000 C   0  0  0  0  0  0  0  0  0  0  0  0
    4.5080    1.5222    0.0000 C   0  0  0  0  0  0  0  0  0  0  0  0
    3.7935   -0.5404    0.0000 C   0  0  0  0  0  0  0  0  0  0  0  0
    5.2224    1.9347    0.0000 C   0  0  0  0  0  0  0  0  0  0  0  0
    3.0791   -0.9529    0.0000 C   0  0  0  0  0  0  0  0  0  0  0  0
    4.5080   -0.9529    0.0000 C   0  0  0  0  0  0  0  0  0  0  0  0
    3.7935   -2.1904    0.0000 C   0  0  0  0  0  0  0  0  0  0  0  0
    3.0791   -1.7779    0.0000 C   0  0  0  0  0  0  0  0  0  0  0  0
    4.5080   -1.7779    0.0000 C   0  0  0  0  0  0  0  0  0  0  0  0
    3.7935   -3.0154    0.0000 C   0  0  0  0  0  0  0  0  0  0  0  0
    2.9409    0.7769    0.0000 H   0  0  0  0  0  0  0  0  0  0  0  0
    6.1057    3.2697    0.0000 H   0  0  0  0  0  0  0  0  0  0  0  0
    4.3391    3.2697    0.0000 H   0  0  0  0  0  0  0  0  0  0  0  0
    5.4346    0.1621    0.0000 H   0  0  0  0  0  0  0  0  0  0  0  0
    5.4346    1.2321    0.0000 H   0  0  0  0  0  0  0  0  0  0  0  0
    3.5813    2.0572    0.0000 H   0  0  0  0  0  0  0  0  0  0  0  0
    4.5080    2.5922    0.0000 H   0  0  0  0  0  0  0  0  0  0  0  0
    6.1491    1.3997    0.0000 H   0  0  0  0  0  0  0  0  0  0  0  0
    5.2224    0.8647    0.0000 H   0  0  0  0  0  0  0  0  0  0  0  0
    5.4017   -0.4369    0.0000 H   0  0  0  0  0  0  0  0  0  0  0  0
    2.1854   -2.2939    0.0000 H   0  0  0  0  0  0  0  0  0  0  0  0
    5.4017   -2.2939    0.0000 H   0  0  0  0  0  0  0  0  0  0  0  0
    2.8669   -3.5504    0.0000 H   0  0  0  0  0  0  0  0  0  0  0  0
    4.7201   -3.5504    0.0000 H   0  0  0  0  0  0  0  0  0  0  0  0
    3.7935   -4.0854    0.0000 H   0  0  0  0  0  0  0  0  0  0  0  0
  1  5  1  0  0  0  0
  2  5  2  0  0  0  0
  3  6  1  0  0  0  0
  3  8  1  0  0  0  0
  3 16  1  0  0  0  0
  4  9  1  0  0  0  0
  4 17  1  0  0  0  0
  4 18  1  0  0  0  0
  5 10  1  0  0  0  0
  6  7  1  0  0  0  0
  6 19  1  0  0  0  0
  6 20  1  0  0  0  0
  7  9  1  0  0  0  0
  7 21  1  0  0  0  0
  7 22  1  0  0  0  0
  8 10  2  0  0  0  0
  8 11  1  0  0  0  0
  9 23  1  0  0  0  0
  9 24  1  0  0  0  0
 10 13  1  0  0  0  0
 11 14  2  0  0  0  0
 11 25  1  0  0  0  0
 12 13  2  0  0  0  0
 12 14  1  0  0  0  0
 12 15  1  0  0  0  0
 13 26  1  0  0  0  0
 14 27  1  0  0  0  0
 15 28  1  0  0  0  0
 15 29  1  0  0  0  0
 15 30  1  0  0  0  0
M  CHG  2   1  -1   5   1
M  END
>  <DRUGBANK_ID>
DB05492

>  <SECONDARY_ACCESSION_NUMBERS>
DB08290

>  <COMMON_NAME>
Epicept NP-1

$$$$
