
 OpenBabel10282417072D

 28 30  0  0  1  0  0  0  0  0999 V2000
   -2.8893    0.2263    0.0000 C   0  0  0  0  0  0  0  0  0  0  0  0
   -2.2218   -0.2586    0.0000 N   0  0  0  0  0  0  0  0  0  0  0  0
   -1.4681    0.0769    0.0000 C   0  0  2  0  0  0  0  0  0  0  0  0
   -0.8007   -0.4080    0.0000 C   0  0  0  0  0  0  0  0  0  0  0  0
   -0.0470   -0.0724    0.0000 C   0  0  0  0  0  0  0  0  0  0  0  0
    0.8791   -0.4080    0.0000 C   0  0  0  0  0  0  0  0  0  0  0  0
    1.5466    0.0769    0.0000 C   0  0  0  0  0  0  0  0  0  0  0  0
    1.4603    0.8974    0.0000 C   0  0  0  0  0  0  0  0  0  0  0  0
    0.7066    1.2330    0.0000 C   0  0  0  0  0  0  0  0  0  0  0  0
    0.0392    0.7481    0.0000 C   0  0  0  0  0  0  0  0  0  0  0  0
   -0.6282    1.2330    0.0000 N   0  0  0  0  0  0  0  0  0  0  0  0
   -0.3733    2.0176    0.0000 C   0  0  0  0  0  0  0  0  0  0  0  0
   -0.8582    2.6850    0.0000 O   0  0  0  0  0  0  0  0  0  0  0  0
    0.4517    2.0176    0.0000 N   0  0  0  0  0  0  0  0  0  0  0  0
   -1.3819    0.8974    0.0000 C   0  0  0  0  0  0  0  0  0  0  0  0
   -2.7775    1.2904    0.0000 H   0  0  0  0  0  0  0  0  0  0  0  0
   -3.8668   -0.2090    0.0000 H   0  0  0  0  0  0  0  0  0  0  0  0
   -3.7550    0.8552    0.0000 H   0  0  0  0  0  0  0  0  0  0  0  0
   -2.3284   -1.2730    0.0000 H   0  0  0  0  0  0  0  0  0  0  0  0
   -1.5800   -0.9872    0.0000 H   0  0  0  0  0  0  0  0  0  0  0  0
   -0.9125   -1.4721    0.0000 H   0  0  0  0  0  0  0  0  0  0  0  0
    0.0650   -1.0369    0.0000 H   0  0  0  0  0  0  0  0  0  0  0  0
    1.0234   -1.4299    0.0000 H   0  0  0  0  0  0  0  0  0  0  0  0
    2.4894   -0.3428    0.0000 H   0  0  0  0  0  0  0  0  0  0  0  0
    2.2952    1.5040    0.0000 H   0  0  0  0  0  0  0  0  0  0  0  0
    1.0304    2.8141    0.0000 H   0  0  0  0  0  0  0  0  0  0  0  0
   -2.2476    1.5263    0.0000 H   0  0  0  0  0  0  0  0  0  0  0  0
   -2.3594    0.4621    0.0000 H   0  0  0  0  0  0  0  0  0  0  0  0
  1  2  1  0  0  0  0
  1 16  1  0  0  0  0
  1 17  1  0  0  0  0
  1 18  1  0  0  0  0
  2 19  1  0  0  0  0
  3  2  1  0  0  0  0
  3  4  1  0  0  0  0
  3 15  1  0  0  0  0
  3 20  1  6  0  0  0
  4  5  1  0  0  0  0
  4 21  1  0  0  0  0
  4 22  1  0  0  0  0
  5  6  1  0  0  0  0
  5 10  2  0  0  0  0
  6  7  2  0  0  0  0
  6 23  1  0  0  0  0
  7  8  1  0  0  0  0
  7 24  1  0  0  0  0
  8  9  2  0  0  0  0
  8 25  1  0  0  0  0
  9 10  1  0  0  0  0
  9 14  1  0  0  0  0
 10 11  1  0  0  0  0
 11 12  1  0  0  0  0
 11 15  1  0  0  0  0
 12 13  2  0  0  0  0
 12 14  1  0  0  0  0
 14 26  1  0  0  0  0
 15 27  1  0  0  0  0
 15 28  1  0  0  0  0
M  END
>  <DRUGBANK_ID>
DB06477

>  <COMMON_NAME>
Sumanirole

>  <CAS_NUMBER>
179386-43-7

>  <UNII>
3E93IV1U45

>  <SYNONYMS>
Sumanirole

$$$$
