AAF
 OpenBabel10282417072D

 58 60  0  0  0  0  0  0  0  0999 V2000
   -3.0458    0.2218    0.0000 C   0  0  0  0  0  0  0  0  0  0  0  0
   -2.2253    0.3080    0.0000 C   0  0  2  0  0  0  0  0  0  0  0  0
   -1.8128    1.0225    0.0000 C   0  0  0  0  0  0  0  0  0  0  0  0
   -1.0059    0.8510    0.0000 C   0  0  0  0  0  0  0  0  0  0  0  0
   -0.9196    0.0305    0.0000 C   0  0  2  0  0  0  0  0  0  0  0  0
   -0.2052   -0.3820    0.0000 C   0  0  0  0  0  0  0  0  0  0  0  0
   -3.3814   -0.5319    0.0000 O   0  0  0  0  0  0  0  0  0  0  0  0
   -1.6733   -0.3051    0.0000 N   0  0  0  0  0  0  0  0  0  0  0  0
   -3.5307    0.8892    0.0000 N   0  0  0  0  0  0  0  0  0  0  0  0
   -4.3557    0.8892    0.0000 C   0  0  1  0  0  0  0  0  0  0  0  0
   -4.6107    1.6739    0.0000 C   0  0  0  0  0  0  0  0  0  0  0  0
   -3.9432    2.1588    0.0000 C   0  0  0  0  0  0  0  0  0  0  0  0
   -3.2758    1.6739    0.0000 C   0  0  0  0  0  0  0  0  0  0  0  0
   -4.8407    0.2218    0.0000 C   0  0  0  0  0  0  0  0  0  0  0  0
    0.5093    0.0305    0.0000 N   0  0  0  0  0  0  0  0  0  0  0  0
    1.2238   -0.3820    0.0000 C   0  0  0  0  0  0  0  0  0  0  0  0
    1.2238   -1.2070    0.0000 O   0  0  0  0  0  0  0  0  0  0  0  0
   -5.6611    0.3080    0.0000 N   0  0  0  0  0  0  0  0  0  0  0  0
    1.9383    0.0305    0.0000 N   0  0  0  0  0  0  0  0  0  0  0  0
    2.6527   -0.3820    0.0000 C   0  0  0  0  0  0  0  0  0  0  0  0
    3.3672    0.0305    0.0000 C   0  0  0  0  0  0  0  0  0  0  0  0
    4.0817   -0.3820    0.0000 C   0  0  0  0  0  0  0  0  0  0  0  0
    4.0817   -1.2070    0.0000 C   0  0  0  0  0  0  0  0  0  0  0  0
    3.3672   -1.6195    0.0000 C   0  0  0  0  0  0  0  0  0  0  0  0
    2.6527   -1.2070    0.0000 C   0  0  0  0  0  0  0  0  0  0  0  0
    4.7961   -1.6195    0.0000 C   0  0  0  0  0  0  0  0  0  0  0  0
    5.5106   -1.2070    0.0000 O   0  0  0  0  0  0  0  0  0  0  0  0
    4.7961   -2.4445    0.0000 O   0  0  0  0  0  0  0  0  0  0  0  0
    5.5106   -2.8570    0.0000 C   0  0  0  0  0  0  0  0  0  0  0  0
   -2.5434    0.7977    0.0000 H   0  0  0  0  0  0  0  0  0  0  0  0
   -0.4299    0.3485    0.0000 H   0  0  0  0  0  0  0  0  0  0  0  0
   -4.0906    0.3689    0.0000 H   0  0  0  0  0  0  0  0  0  0  0  0
   -2.2480    2.0000    0.0000 H   0  0  0  0  0  0  0  0  0  0  0  0
   -1.1394    1.8541    0.0000 H   0  0  0  0  0  0  0  0  0  0  0  0
   -0.2108    1.5670    0.0000 H   0  0  0  0  0  0  0  0  0  0  0  0
   -0.0069    0.4676    0.0000 H   0  0  0  0  0  0  0  0  0  0  0  0
   -0.2052   -1.4520    0.0000 H   0  0  0  0  0  0  0  0  0  0  0  0
    0.7214   -0.9170    0.0000 H   0  0  0  0  0  0  0  0  0  0  0  0
   -1.8854   -1.3028    0.0000 H   0  0  0  0  0  0  0  0  0  0  0  0
   -5.6283    2.0046    0.0000 H   0  0  0  0  0  0  0  0  0  0  0  0
   -4.7780    2.7307    0.0000 H   0  0  0  0  0  0  0  0  0  0  0  0
   -3.9432    3.2288    0.0000 H   0  0  0  0  0  0  0  0  0  0  0  0
   -2.9898    2.6446    0.0000 H   0  0  0  0  0  0  0  0  0  0  0  0
   -2.2582    2.0046    0.0000 H   0  0  0  0  0  0  0  0  0  0  0  0
   -3.1084    2.7307    0.0000 H   0  0  0  0  0  0  0  0  0  0  0  0
   -4.4055   -0.7557    0.0000 H   0  0  0  0  0  0  0  0  0  0  0  0
   -5.4696   -0.6438    0.0000 H   0  0  0  0  0  0  0  0  0  0  0  0
    0.5093    1.0150    0.0000 H   0  0  0  0  0  0  0  0  0  0  0  0
   -6.0760    1.2398    0.0000 H   0  0  0  0  0  0  0  0  0  0  0  0
   -6.2606   -0.5172    0.0000 H   0  0  0  0  0  0  0  0  0  0  0  0
    1.9383    1.0150    0.0000 H   0  0  0  0  0  0  0  0  0  0  0  0
    3.3672    1.0625    0.0000 H   0  0  0  0  0  0  0  0  0  0  0  0
    4.9754    0.1340    0.0000 H   0  0  0  0  0  0  0  0  0  0  0  0
    3.3672   -2.6515    0.0000 H   0  0  0  0  0  0  0  0  0  0  0  0
    1.7590   -1.7230    0.0000 H   0  0  0  0  0  0  0  0  0  0  0  0
    5.5106   -3.9270    0.0000 H   0  0  0  0  0  0  0  0  0  0  0  0
    6.4372   -2.3220    0.0000 H   0  0  0  0  0  0  0  0  0  0  0  0
    6.4373   -3.3920    0.0000 H   0  0  0  0  0  0  0  0  0  0  0  0
  1  7  2  0  0  0  0
  1  9  1  0  0  0  0
  2  1  1  0  0  0  0
  2  3  1  0  0  0  0
  2  8  1  0  0  0  0
  2 30  1  1  0  0  0
  3  4  1  0  0  0  0
  3 33  1  0  0  0  0
  3 34  1  0  0  0  0
  4  5  1  0  0  0  0
  4 35  1  0  0  0  0
  4 36  1  0  0  0  0
  5  6  1  0  0  0  0
  5  8  1  0  0  0  0
  5 31  1  1  0  0  0
  6 15  1  0  0  0  0
  6 37  1  0  0  0  0
  6 38  1  0  0  0  0
  8 39  1  0  0  0  0
  9 10  1  0  0  0  0
  9 13  1  0  0  0  0
 10 11  1  0  0  0  0
 10 14  1  0  0  0  0
 10 32  1  1  0  0  0
 11 12  1  0  0  0  0
 11 40  1  0  0  0  0
 11 41  1  0  0  0  0
 12 13  1  0  0  0  0
 12 42  1  0  0  0  0
 12 43  1  0  0  0  0
 13 44  1  0  0  0  0
 13 45  1  0  0  0  0
 14 18  1  0  0  0  0
 14 46  1  0  0  0  0
 14 47  1  0  0  0  0
 15 16  1  0  0  0  0
 15 48  1  0  0  0  0
 16 17  2  0  0  0  0
 16 19  1  0  0  0  0
 18 49  1  0  0  0  0
 18 50  1  0  0  0  0
 19 20  1  0  0  0  0
 19 51  1  0  0  0  0
 20 21  1  0  0  0  0
 20 25  2  0  0  0  0
 21 22  2  0  0  0  0
 21 52  1  0  0  0  0
 22 23  1  0  0  0  0
 22 53  1  0  0  0  0
 23 24  2  0  0  0  0
 23 26  1  0  0  0  0
 24 25  1  0  0  0  0
 24 54  1  0  0  0  0
 25 55  1  0  0  0  0
 26 27  2  0  0  0  0
 26 28  1  0  0  0  0
 28 29  1  0  0  0  0
 29 56  1  0  0  0  0
 29 57  1  0  0  0  0
 29 58  1  0  0  0  0
M  END
>  <DRUGBANK_ID>
DB07328

>  <COMMON_NAME>
METHYL 4-{[({[(2R,5S)-5-{[(2S)-2-(AMINOMETHYL)PYRROLIDIN-1-YL]CARBONYL}PYRROLIDIN-2-YL]METHYL}AMINO)CARBONYL]AMINO}BENZOATE

$$$$
