24244
 OpenBabel10282417072D

 98102  0  0  1  0  0  0  0  0999 V2000
    9.1370    3.7174    0.0000 I   0  5  0  0  0  0  0  0  0  0  0  0
    9.1370    5.7939    0.0000 I   0  5  0  0  0  0  0  0  0  0  0  0
    3.4756    6.1314    0.0000 O   0  0  0  0  0  0  0  0  0  0  0  0
    4.8937    3.1151    0.0000 O   0  0  0  0  0  0  0  0  0  0  0  0
    1.8283    6.9254    0.0000 O   0  0  0  0  0  0  0  0  0  0  0  0
    1.8283    8.5810    0.0000 O   0  0  0  0  0  0  0  0  0  0  0  0
    5.0620    1.3259    0.0000 O   0  0  0  0  0  0  0  0  0  0  0  0
    6.1301    3.2687    0.0000 O   0  0  0  0  0  0  0  0  0  0  0  0
    5.4054    7.3406    0.0000 N   0  3  0  0  0  0  0  0  0  0  0  0
    1.3259    1.9379    0.0000 N   0  3  0  0  0  0  0  0  0  0  0  0
    4.6910    6.9282    0.0000 C   0  0  1  0  0  0  0  0  0  0  0  0
    1.9594    2.4662    0.0000 C   0  0  2  0  0  0  0  0  0  0  0  0
    5.4054    8.1657    0.0000 C   0  0  0  0  0  0  0  0  0  0  0  0
    1.4665    1.1251    0.0000 C   0  0  0  0  0  0  0  0  0  0  0  0
    3.9765    7.3406    0.0000 C   0  0  0  0  0  0  0  0  0  0  0  0
    4.6910    8.5782    0.0000 C   0  0  0  0  0  0  0  0  0  0  0  0
    2.7339    2.1817    0.0000 C   0  0  0  0  0  0  0  0  0  0  0  0
    4.4774    6.1314    0.0000 C   0  0  0  0  0  0  0  0  0  0  0  0
    3.9765    8.1657    0.0000 C   0  0  0  0  0  0  0  0  0  0  0  0
    2.2409    0.8405    0.0000 C   0  0  0  0  0  0  0  0  0  0  0  0
    6.2359    7.3406    0.0000 C   0  0  0  0  0  0  0  0  0  0  0  0
    5.8207    6.6214    0.0000 C   0  0  0  0  0  0  0  0  0  0  0  0
    1.8256    3.2736    0.0000 C   0  0  0  0  0  0  0  0  0  0  0  0
    2.8744    1.3688    0.0000 C   0  0  0  0  0  0  0  0  0  0  0  0
    0.5075    1.7963    0.0000 C   0  0  0  0  0  0  0  0  0  0  0  0
    0.7939    2.5760    0.0000 C   0  0  0  0  0  0  0  0  0  0  0  0
    3.2621    6.9282    0.0000 C   0  0  0  0  0  0  0  0  0  0  0  0
    4.8899    5.4169    0.0000 C   0  0  0  0  0  0  0  0  0  0  0  0
    3.3674    2.7100    0.0000 C   0  0  0  0  0  0  0  0  0  0  0  0
    3.2621    8.5782    0.0000 C   0  0  0  0  0  0  0  0  0  0  0  0
    2.2381    3.9880    0.0000 C   0  0  0  0  0  0  0  0  0  0  0  0
    3.6489    1.0842    0.0000 C   0  0  0  0  0  0  0  0  0  0  0  0
    2.5476    7.3406    0.0000 C   0  0  0  0  0  0  0  0  0  0  0  0
    4.1417    2.4253    0.0000 C   0  0  0  0  0  0  0  0  0  0  0  0
    2.5476    8.1657    0.0000 C   0  0  0  0  0  0  0  0  0  0  0  0
    4.2824    1.6125    0.0000 C   0  0  0  0  0  0  0  0  0  0  0  0
    4.4774    4.7025    0.0000 C   0  0  0  0  0  0  0  0  0  0  0  0
    5.7149    5.4169    0.0000 C   0  0  0  0  0  0  0  0  0  0  0  0
    1.8256    4.7025    0.0000 C   0  0  0  0  0  0  0  0  0  0  0  0
    3.0631    3.9880    0.0000 C   0  0  0  0  0  0  0  0  0  0  0  0
    3.0631    5.4169    0.0000 C   0  0  0  0  0  0  0  0  0  0  0  0
    4.8899    3.9880    0.0000 C   0  0  0  0  0  0  0  0  0  0  0  0
    2.2381    5.4169    0.0000 C   0  0  0  0  0  0  0  0  0  0  0  0
    3.4756    4.7025    0.0000 C   0  0  0  0  0  0  0  0  0  0  0  0
    6.1273    4.7025    0.0000 C   0  0  0  0  0  0  0  0  0  0  0  0
    5.7149    3.9880    0.0000 C   0  0  0  0  0  0  0  0  0  0  0  0
    1.1090    7.3406    0.0000 C   0  0  0  0  0  0  0  0  0  0  0  0
    1.8283    9.4116    0.0000 C   0  0  0  0  0  0  0  0  0  0  0  0
    5.2036    0.5075    0.0000 C   0  0  0  0  0  0  0  0  0  0  0  0
    6.9608    3.2687    0.0000 C   0  0  0  0  0  0  0  0  0  0  0  0
    5.2565    6.5056    0.0000 H   0  0  0  0  0  0  0  0  0  0  0  0
    1.2977    2.7122    0.0000 H   0  0  0  0  0  0  0  0  0  0  0  0
    6.3321    8.7007    0.0000 H   0  0  0  0  0  0  0  0  0  0  0  0
    5.4054    9.2357    0.0000 H   0  0  0  0  0  0  0  0  0  0  0  0
    0.6446    0.4399    0.0000 H   0  0  0  0  0  0  0  0  0  0  0  0
    1.6490    0.0708    0.0000 H   0  0  0  0  0  0  0  0  0  0  0  0
    4.6910    9.6482    0.0000 H   0  0  0  0  0  0  0  0  0  0  0  0
    3.7644    9.1132    0.0000 H   0  0  0  0  0  0  0  0  0  0  0  0
    3.4165    5.9918    0.0000 H   0  0  0  0  0  0  0  0  0  0  0  0
    4.0041    5.1718    0.0000 H   0  0  0  0  0  0  0  0  0  0  0  0
    2.4235   -0.2138    0.0000 H   0  0  0  0  0  0  0  0  0  0  0  0
    3.2452    0.4715    0.0000 H   0  0  0  0  0  0  0  0  0  0  0  0
    6.7709    6.4140    0.0000 H   0  0  0  0  0  0  0  0  0  0  0  0
    6.7709    8.2672    0.0000 H   0  0  0  0  0  0  0  0  0  0  0  0
    7.3059    7.3406    0.0000 H   0  0  0  0  0  0  0  0  0  0  0  0
    5.2858    5.6947    0.0000 H   0  0  0  0  0  0  0  0  0  0  0  0
    6.8907    6.6215    0.0000 H   0  0  0  0  0  0  0  0  0  0  0  0
    6.3558    5.6948    0.0000 H   0  0  0  0  0  0  0  0  0  0  0  0
    0.7728    3.4649    0.0000 H   0  0  0  0  0  0  0  0  0  0  0  0
    1.3759    4.2445    0.0000 H   0  0  0  0  0  0  0  0  0  0  0  0
   -0.1776    2.6182    0.0000 H   0  0  0  0  0  0  0  0  0  0  0  0
    0.1383    0.7920    0.0000 H   0  0  0  0  0  0  0  0  0  0  0  0
   -0.5468    1.6139    0.0000 H   0  0  0  0  0  0  0  0  0  0  0  0
    1.1630    3.5803    0.0000 H   0  0  0  0  0  0  0  0  0  0  0  0
   -0.2604    2.3935    0.0000 H   0  0  0  0  0  0  0  0  0  0  0  0
    0.1087    3.3978    0.0000 H   0  0  0  0  0  0  0  0  0  0  0  0
    3.1914    3.7269    0.0000 H   0  0  0  0  0  0  0  0  0  0  0  0
    3.2621    9.6102    0.0000 H   0  0  0  0  0  0  0  0  0  0  0  0
    3.8250    0.0673    0.0000 H   0  0  0  0  0  0  0  0  0  0  0  0
    3.4454    4.7025    0.0000 H   0  0  0  0  0  0  0  0  0  0  0  0
    6.2309    6.3106    0.0000 H   0  0  0  0  0  0  0  0  0  0  0  0
    0.7936    4.7025    0.0000 H   0  0  0  0  0  0  0  0  0  0  0  0
    3.5791    3.0943    0.0000 H   0  0  0  0  0  0  0  0  0  0  0  0
    1.7221    6.3106    0.0000 H   0  0  0  0  0  0  0  0  0  0  0  0
    4.5076    4.7025    0.0000 H   0  0  0  0  0  0  0  0  0  0  0  0
    7.1593    4.7025    0.0000 H   0  0  0  0  0  0  0  0  0  0  0  0
    1.1089    8.4106    0.0000 H   0  0  0  0  0  0  0  0  0  0  0  0
    0.1824    6.8055    0.0000 H   0  0  0  0  0  0  0  0  0  0  0  0
    0.1823    7.8755    0.0000 H   0  0  0  0  0  0  0  0  0  0  0  0
    2.7549    9.9466    0.0000 H   0  0  0  0  0  0  0  0  0  0  0  0
    0.9017    9.9466    0.0000 H   0  0  0  0  0  0  0  0  0  0  0  0
    1.8283   10.4816    0.0000 H   0  0  0  0  0  0  0  0  0  0  0  0
    4.3817   -0.1776    0.0000 H   0  0  0  0  0  0  0  0  0  0  0  0
    6.2079    0.1383    0.0000 H   0  0  0  0  0  0  0  0  0  0  0  0
    5.3860   -0.5468    0.0000 H   0  0  0  0  0  0  0  0  0  0  0  0
    7.4958    2.3421    0.0000 H   0  0  0  0  0  0  0  0  0  0  0  0
    7.4958    4.1953    0.0000 H   0  0  0  0  0  0  0  0  0  0  0  0
    8.0308    3.2687    0.0000 H   0  0  0  0  0  0  0  0  0  0  0  0
  3 27  1  0  0  0  0
  3 41  1  0  0  0  0
  4 34  1  0  0  0  0
  4 42  1  0  0  0  0
  5 33  1  0  0  0  0
  5 47  1  0  0  0  0
  6 35  1  0  0  0  0
  6 48  1  0  0  0  0
  7 36  1  0  0  0  0
  7 49  1  0  0  0  0
  8 46  1  0  0  0  0
  8 50  1  0  0  0  0
  9 11  1  0  0  0  0
  9 13  1  0  0  0  0
  9 21  1  0  0  0  0
  9 22  1  0  0  0  0
 10 12  1  0  0  0  0
 10 14  1  0  0  0  0
 10 25  1  0  0  0  0
 10 26  1  0  0  0  0
 11 15  1  0  0  0  0
 11 18  1  0  0  0  0
 11 51  1  1  0  0  0
 12 17  1  0  0  0  0
 12 23  1  0  0  0  0
 12 52  1  6  0  0  0
 13 16  1  0  0  0  0
 13 53  1  0  0  0  0
 13 54  1  0  0  0  0
 14 20  1  0  0  0  0
 14 55  1  0  0  0  0
 14 56  1  0  0  0  0
 15 19  1  0  0  0  0
 15 27  2  0  0  0  0
 16 19  1  0  0  0  0
 16 57  1  0  0  0  0
 16 58  1  0  0  0  0
 17 24  1  0  0  0  0
 17 29  2  0  0  0  0
 18 28  1  0  0  0  0
 18 59  1  0  0  0  0
 18 60  1  0  0  0  0
 19 30  2  0  0  0  0
 20 24  1  0  0  0  0
 20 61  1  0  0  0  0
 20 62  1  0  0  0  0
 21 63  1  0  0  0  0
 21 64  1  0  0  0  0
 21 65  1  0  0  0  0
 22 66  1  0  0  0  0
 22 67  1  0  0  0  0
 22 68  1  0  0  0  0
 23 31  1  0  0  0  0
 23 69  1  0  0  0  0
 23 70  1  0  0  0  0
 24 32  2  0  0  0  0
 25 71  1  0  0  0  0
 25 72  1  0  0  0  0
 25 73  1  0  0  0  0
 26 74  1  0  0  0  0
 26 75  1  0  0  0  0
 26 76  1  0  0  0  0
 27 33  1  0  0  0  0
 28 37  2  0  0  0  0
 28 38  1  0  0  0  0
 29 34  1  0  0  0  0
 29 77  1  0  0  0  0
 30 35  1  0  0  0  0
 30 78  1  0  0  0  0
 31 39  2  0  0  0  0
 31 40  1  0  0  0  0
 32 36  1  0  0  0  0
 32 79  1  0  0  0  0
 33 35  2  0  0  0  0
 34 36  2  0  0  0  0
 37 42  1  0  0  0  0
 37 80  1  0  0  0  0
 38 45  2  0  0  0  0
 38 81  1  0  0  0  0
 39 43  1  0  0  0  0
 39 82  1  0  0  0  0
 40 44  2  0  0  0  0
 40 83  1  0  0  0  0
 41 43  2  0  0  0  0
 41 44  1  0  0  0  0
 42 46  2  0  0  0  0
 43 84  1  0  0  0  0
 44 85  1  0  0  0  0
 45 46  1  0  0  0  0
 45 86  1  0  0  0  0
 47 87  1  0  0  0  0
 47 88  1  0  0  0  0
 47 89  1  0  0  0  0
 48 90  1  0  0  0  0
 48 91  1  0  0  0  0
 48 92  1  0  0  0  0
 49 93  1  0  0  0  0
 49 94  1  0  0  0  0
 49 95  1  0  0  0  0
 50 96  1  0  0  0  0
 50 97  1  0  0  0  0
 50 98  1  0  0  0  0
M  CHG  4   1  -1   2  -1   9   1  10   1
M  END
>  <DRUGBANK_ID>
DB00416

>  <SECONDARY_ACCESSION_NUMBERS>
APRD01318

>  <COMMON_NAME>
Metocurine iodide

>  <CAS_NUMBER>
7601-55-0

>  <UNII>
O0U0E87X7F

>  <SYNONYMS>
Dimethyl tubocurarine iodide; Dimethylchondrocurarine iodide; Dimethyltubocurarinium iodide; Metocurine iodide; Metocurini iodidum; Metubine iodide

$$$$
