
 OpenBabel10282417072D

 60 65  0  0  1  0  0  0  0  0999 V2000
   -1.7224    5.7750    0.0000 C   0  0  0  0  0  0  0  0  0  0  0  0
   -1.7224    4.9500    0.0000 C   0  0  0  0  0  0  0  0  0  0  0  0
   -2.4368    4.5375    0.0000 C   0  0  0  0  0  0  0  0  0  0  0  0
   -1.0079    4.5375    0.0000 N   0  0  0  0  0  0  0  0  0  0  0  0
   -1.0079    3.7125    0.0000 C   0  0  0  0  0  0  0  0  0  0  0  0
   -0.2934    3.3000    0.0000 C   0  0  2  0  0  0  0  0  0  0  0  0
   -0.4997    4.1250    0.0000 C   0  0  0  0  0  0  0  0  0  0  0  0
   -0.2934    4.9500    0.0000 C   0  0  1  0  0  0  0  0  0  0  0  0
    0.4210    4.5375    0.0000 C   0  0  0  0  0  0  0  0  0  0  0  0
    0.4210    3.7125    0.0000 N   0  0  0  0  0  0  0  0  0  0  0  0
    1.1355    3.3000    0.0000 C   0  0  0  0  0  0  0  0  0  0  0  0
    1.8500    3.7125    0.0000 C   0  0  0  0  0  0  0  0  0  0  0  0
    2.5645    3.3000    0.0000 C   0  0  0  0  0  0  0  0  0  0  0  0
    2.5645    2.4750    0.0000 C   0  0  0  0  0  0  0  0  0  0  0  0
    3.2789    2.0625    0.0000 N   0  0  0  0  0  0  0  0  0  0  0  0
    3.2789    1.2375    0.0000 C   0  0  0  0  0  0  0  0  0  0  0  0
    3.9934    0.8250    0.0000 N   0  0  0  0  0  0  0  0  0  0  0  0
    3.9934    0.0000    0.0000 C   0  0  0  0  0  0  0  0  0  0  0  0
    3.2789   -0.4125    0.0000 C   0  0  0  0  0  0  0  0  0  0  0  0
    2.5645    0.0000    0.0000 N   0  0  0  0  0  0  0  0  0  0  0  0
    1.7798   -0.2549    0.0000 N   0  0  0  0  0  0  0  0  0  0  0  0
    1.2949    0.4125    0.0000 C   0  0  0  0  0  0  0  0  0  0  0  0
    1.7798    1.0799    0.0000 N   0  0  0  0  0  0  0  0  0  0  0  0
    2.5645    0.8250    0.0000 C   0  0  0  0  0  0  0  0  0  0  0  0
    3.2789   -1.2375    0.0000 C   0  0  0  0  0  0  0  0  0  0  0  0
    3.9464   -1.7224    0.0000 C   0  0  0  0  0  0  0  0  0  0  0  0
    3.6914   -2.5070    0.0000 O   0  0  0  0  0  0  0  0  0  0  0  0
    2.8664   -2.5070    0.0000 C   0  0  0  0  0  0  0  0  0  0  0  0
    2.6115   -1.7224    0.0000 C   0  0  0  0  0  0  0  0  0  0  0  0
    2.3815   -3.1745    0.0000 C   0  0  0  0  0  0  0  0  0  0  0  0
    2.7171   -3.9282    0.0000 N   0  0  0  0  0  0  0  0  0  0  0  0
    1.5610   -3.0882    0.0000 O   0  0  0  0  0  0  0  0  0  0  0  0
    1.8500    2.0625    0.0000 C   0  0  0  0  0  0  0  0  0  0  0  0
    1.1355    2.4750    0.0000 C   0  0  0  0  0  0  0  0  0  0  0  0
   -0.7958    6.3100    0.0000 H   0  0  0  0  0  0  0  0  0  0  0  0
   -2.6490    6.3100    0.0000 H   0  0  0  0  0  0  0  0  0  0  0  0
   -1.7224    6.8450    0.0000 H   0  0  0  0  0  0  0  0  0  0  0  0
   -1.7224    3.8800    0.0000 H   0  0  0  0  0  0  0  0  0  0  0  0
   -3.3635    5.0725    0.0000 H   0  0  0  0  0  0  0  0  0  0  0  0
   -2.4368    3.4675    0.0000 H   0  0  0  0  0  0  0  0  0  0  0  0
   -3.3634    4.0025    0.0000 H   0  0  0  0  0  0  0  0  0  0  0  0
   -1.9345    3.1775    0.0000 H   0  0  0  0  0  0  0  0  0  0  0  0
   -1.0079    2.6425    0.0000 H   0  0  0  0  0  0  0  0  0  0  0  0
   -0.9376    4.1543    0.0000 H   0  0  0  0  0  0  0  0  0  0  0  0
   -1.5697    4.1250    0.0000 H   0  0  0  0  0  0  0  0  0  0  0  0
   -1.1582    4.9684    0.0000 H   0  0  0  0  0  0  0  0  0  0  0  0
   -0.9376    4.0957    0.0000 H   0  0  0  0  0  0  0  0  0  0  0  0
    1.3477    5.0725    0.0000 H   0  0  0  0  0  0  0  0  0  0  0  0
    1.3476    4.0025    0.0000 H   0  0  0  0  0  0  0  0  0  0  0  0
    1.8500    4.7445    0.0000 H   0  0  0  0  0  0  0  0  0  0  0  0
    3.4582    3.8160    0.0000 H   0  0  0  0  0  0  0  0  0  0  0  0
    4.1315    2.5547    0.0000 H   0  0  0  0  0  0  0  0  0  0  0  0
    4.8871   -0.5160    0.0000 H   0  0  0  0  0  0  0  0  0  0  0  0
    0.2629    0.4125    0.0000 H   0  0  0  0  0  0  0  0  0  0  0  0
    4.9279   -1.4035    0.0000 H   0  0  0  0  0  0  0  0  0  0  0  0
    1.6300   -1.4035    0.0000 H   0  0  0  0  0  0  0  0  0  0  0  0
    2.1385   -4.7247    0.0000 H   0  0  0  0  0  0  0  0  0  0  0  0
    3.6962   -4.0311    0.0000 H   0  0  0  0  0  0  0  0  0  0  0  0
    1.8500    1.0305    0.0000 H   0  0  0  0  0  0  0  0  0  0  0  0
    0.2418    1.9590    0.0000 H   0  0  0  0  0  0  0  0  0  0  0  0
  1  2  1  0  0  0  0
  1 35  1  0  0  0  0
  1 36  1  0  0  0  0
  1 37  1  0  0  0  0
  2  3  1  0  0  0  0
  2  4  1  0  0  0  0
  2 38  1  0  0  0  0
  3 39  1  0  0  0  0
  3 40  1  0  0  0  0
  3 41  1  0  0  0  0
  4  5  1  0  0  0  0
  5 42  1  0  0  0  0
  5 43  1  0  0  0  0
  6  5  1  0  0  0  0
  6  7  1  0  0  0  0
  6 10  1  0  0  0  0
  6 44  1  1  0  0  0
  7 45  1  0  0  0  0
  7 46  1  0  0  0  0
  8  7  1  0  0  0  0
  8  4  1  0  0  0  0
  8  9  1  0  0  0  0
  8 47  1  1  0  0  0
  9 10  1  0  0  0  0
  9 48  1  0  0  0  0
  9 49  1  0  0  0  0
 10 11  1  0  0  0  0
 11 12  2  0  0  0  0
 11 34  1  0  0  0  0
 12 13  1  0  0  0  0
 12 50  1  0  0  0  0
 13 14  2  0  0  0  0
 13 51  1  0  0  0  0
 14 15  1  0  0  0  0
 14 33  1  0  0  0  0
 15 16  1  0  0  0  0
 15 52  1  0  0  0  0
 16 17  2  0  0  0  0
 16 24  1  0  0  0  0
 17 18  1  0  0  0  0
 18 19  2  0  0  0  0
 18 53  1  0  0  0  0
 19 20  1  0  0  0  0
 19 25  1  0  0  0  0
 20 21  1  0  0  0  0
 20 24  1  0  0  0  0
 21 22  2  0  0  0  0
 22 23  1  0  0  0  0
 22 54  1  0  0  0  0
 23 24  2  0  0  0  0
 25 26  2  0  0  0  0
 25 29  1  0  0  0  0
 26 27  1  0  0  0  0
 26 55  1  0  0  0  0
 27 28  1  0  0  0  0
 28 29  2  0  0  0  0
 28 30  1  0  0  0  0
 29 56  1  0  0  0  0
 30 31  1  0  0  0  0
 30 32  2  0  0  0  0
 31 57  1  0  0  0  0
 31 58  1  0  0  0  0
 33 34  2  0  0  0  0
 33 59  1  0  0  0  0
 34 60  1  0  0  0  0
M  END
>  <DRUGBANK_ID>
DB15190

>  <COMMON_NAME>
GLPG-0259

>  <CAS_NUMBER>
1195065-29-2

>  <UNII>
52EG7RFE6Y

$$$$
