
 OpenBabel10282417072D

 20 12  0  0  0  0  0  0  0  0999 V2000
    0.0000    0.0000    0.0000 O   0  0  0  0  0  0  0  0  0  0  0  0
    2.3571    0.0000    0.0000 O   0  0  0  0  0  0  0  0  0  0  0  0
    0.8250   -2.4750    0.0000 O   0  5  0  0  0  0  0  0  0  0  0  0
   -0.0000   -2.4750    0.0000 S   0  0  0  0  0  0  0  0  0  0  0  0
   -0.0000   -1.6500    0.0000 O   0  0  0  0  0  0  0  0  0  0  0  0
   -0.0000   -3.3000    0.0000 O   0  0  0  0  0  0  0  0  0  0  0  0
   -0.8250   -2.4750    0.0000 S   0  5  0  0  0  0  0  0  0  0  0  0
    6.4821   -2.4750    0.0000 O   0  5  0  0  0  0  0  0  0  0  0  0
    5.6571   -2.4750    0.0000 S   0  0  0  0  0  0  0  0  0  0  0  0
    5.6571   -1.6500    0.0000 O   0  0  0  0  0  0  0  0  0  0  0  0
    5.6571   -3.3000    0.0000 O   0  0  0  0  0  0  0  0  0  0  0  0
    4.8321   -2.4750    0.0000 S   0  5  0  0  0  0  0  0  0  0  0  0
    1.6500   -2.4750    0.0000 Na  0  3  0  0  0  0  0  0  0  0  0  0
   -1.6500   -2.4750    0.0000 Na  0  3  0  0  0  0  0  0  0  0  0  0
    7.3071   -2.4750    0.0000 Na  0  3  0  0  0  0  0  0  0  0  0  0
    4.0071   -2.4750    0.0000 Au  0  3  0  0  0  0  0  0  0  0  0  0
    0.9700    0.0000    0.0000 H   0  0  0  0  0  0  0  0  0  0  0  0
   -0.4850    0.8400    0.0000 H   0  0  0  0  0  0  0  0  0  0  0  0
    3.3271    0.0000    0.0000 H   0  0  0  0  0  0  0  0  0  0  0  0
    1.8721    0.8400    0.0000 H   0  0  0  0  0  0  0  0  0  0  0  0
  1 17  1  0  0  0  0
  1 18  1  0  0  0  0
  2 19  1  0  0  0  0
  2 20  1  0  0  0  0
  3  4  1  0  0  0  0
  4  5  2  0  0  0  0
  4  6  2  0  0  0  0
  4  7  1  0  0  0  0
  8  9  1  0  0  0  0
  9 10  2  0  0  0  0
  9 11  2  0  0  0  0
  9 12  1  0  0  0  0
M  CHG  8   3  -1   7  -1   8  -1  12  -1  13   1  14   1  15   1  16   1
M  END
>  <DRUGBANK_ID>
DB13743

>  <COMMON_NAME>
Sodium aurotiosulfate

>  <CAS_NUMBER>
33614-49-2

>  <UNII>
CKS1YQ9W1J

>  <SYNONYMS>
Gold sodium thiosulfate; Sodium aurotiosulfate

$$$$
