
 OpenBabel10282417072D

 80 84  0  0  1  0  0  0  0  0999 V2000
   -0.1712    0.7310    0.0000 C   0  0  0  0  0  0  0  0  0  0  0  0
   -0.5837    0.0165    0.0000 C   0  0  0  0  0  0  0  0  0  0  0  0
   -0.1712   -0.6979    0.0000 O   0  0  0  0  0  0  0  0  0  0  0  0
    0.6538   -0.6979    0.0000 C   0  0  2  0  0  0  0  0  0  0  0  0
    1.1387   -0.0305    0.0000 C   0  0  0  0  0  0  0  0  0  0  0  0
    1.9233   -0.2854    0.0000 C   0  0  0  0  0  0  0  0  0  0  0  0
    2.6378    0.1271    0.0000 C   0  0  0  0  0  0  0  0  0  0  0  0
    3.3523   -0.2854    0.0000 C   0  0  0  0  0  0  0  0  0  0  0  0
    3.3523   -1.1104    0.0000 C   0  0  0  0  0  0  0  0  0  0  0  0
    2.6378   -1.5229    0.0000 C   0  0  0  0  0  0  0  0  0  0  0  0
    1.9233   -1.1104    0.0000 C   0  0  0  0  0  0  0  0  0  0  0  0
    1.1387   -1.3654    0.0000 C   0  0  1  0  0  0  0  0  0  0  0  0
    0.8838   -2.1500    0.0000 N   0  0  3  0  0  0  0  0  0  0  0  0
    1.4358   -2.7631    0.0000 C   0  0  0  0  0  0  0  0  0  0  0  0
    1.1809   -3.5477    0.0000 C   0  0  0  0  0  0  0  0  0  0  0  0
    0.3739   -3.7192    0.0000 N   0  0  3  0  0  0  0  0  0  0  0  0
   -0.1781   -3.1062    0.0000 C   0  0  0  0  0  0  0  0  0  0  0  0
    0.0768   -2.3215    0.0000 C   0  0  2  0  0  0  0  0  0  0  0  0
   -0.4752   -1.7084    0.0000 C   0  0  0  0  0  0  0  0  0  0  0  0
    0.1190   -4.5039    0.0000 C   0  0  0  0  0  0  0  0  0  0  0  0
    0.1478   -5.3284    0.0000 C   0  0  0  0  0  0  0  0  0  0  0  0
   -0.5519   -5.7655    0.0000 C   0  0  0  0  0  0  0  0  0  0  0  0
   -1.2803   -5.3782    0.0000 N   0  0  0  0  0  0  0  0  0  0  0  0
   -1.3091   -4.5537    0.0000 C   0  0  0  0  0  0  0  0  0  0  0  0
   -0.6095   -4.1166    0.0000 C   0  0  0  0  0  0  0  0  0  0  0  0
   -1.9800   -5.8154    0.0000 C   0  0  0  0  0  0  0  0  0  0  0  0
   -1.9512   -6.6399    0.0000 O   0  0  0  0  0  0  0  0  0  0  0  0
   -2.7084   -5.4281    0.0000 C   0  0  0  0  0  0  0  0  0  0  0  0
   -3.4080   -5.8653    0.0000 C   0  0  0  0  0  0  0  0  0  0  0  0
   -4.1365   -5.4780    0.0000 N   0  0  0  0  0  0  0  0  0  0  0  0
   -4.1652   -4.6535    0.0000 C   0  0  0  0  0  0  0  0  0  0  0  0
   -3.4656   -4.2163    0.0000 N   0  0  0  0  0  0  0  0  0  0  0  0
   -2.7372   -4.6036    0.0000 C   0  0  0  0  0  0  0  0  0  0  0  0
   -2.0375   -4.1664    0.0000 C   0  0  0  0  0  0  0  0  0  0  0  0
   -3.3792   -6.6898    0.0000 C   0  0  0  0  0  0  0  0  0  0  0  0
    0.9359   -4.6187    0.0000 C   0  0  0  0  0  0  0  0  0  0  0  0
    4.0668    0.1271    0.0000 C   0  0  0  0  0  0  0  0  0  0  0  0
    4.7812    0.5396    0.0000 F   0  0  0  0  0  0  0  0  0  0  0  0
    4.4793   -0.5874    0.0000 F   0  0  0  0  0  0  0  0  0  0  0  0
    3.6543    0.8415    0.0000 F   0  0  0  0  0  0  0  0  0  0  0  0
    0.8988    0.7310    0.0000 H   0  0  0  0  0  0  0  0  0  0  0  0
   -0.7062    1.6576    0.0000 H   0  0  0  0  0  0  0  0  0  0  0  0
    0.3638    1.6577    0.0000 H   0  0  0  0  0  0  0  0  0  0  0  0
   -1.6537    0.0165    0.0000 H   0  0  0  0  0  0  0  0  0  0  0  0
   -1.1187   -0.9102    0.0000 H   0  0  0  0  0  0  0  0  0  0  0  0
    0.1680    0.2555    0.0000 H   0  0  0  0  0  0  0  0  0  0  0  0
    0.8080    0.9871    0.0000 H   0  0  0  0  0  0  0  0  0  0  0  0
    1.8953    0.7261    0.0000 H   0  0  0  0  0  0  0  0  0  0  0  0
    2.6378    1.1591    0.0000 H   0  0  0  0  0  0  0  0  0  0  0  0
    4.2460   -1.6264    0.0000 H   0  0  0  0  0  0  0  0  0  0  0  0
    2.6378   -2.5549    0.0000 H   0  0  0  0  0  0  0  0  0  0  0  0
    1.8953   -2.1220    0.0000 H   0  0  0  0  0  0  0  0  0  0  0  0
    2.4824   -2.5406    0.0000 H   0  0  0  0  0  0  0  0  0  0  0  0
    2.1518   -3.5583    0.0000 H   0  0  0  0  0  0  0  0  0  0  0  0
    1.8969   -4.3429    0.0000 H   0  0  0  0  0  0  0  0  0  0  0  0
    0.8502   -4.5653    0.0000 H   0  0  0  0  0  0  0  0  0  0  0  0
   -1.2247   -3.3287    0.0000 H   0  0  0  0  0  0  0  0  0  0  0  0
   -0.8941   -2.3111    0.0000 H   0  0  0  0  0  0  0  0  0  0  0  0
   -0.9698   -2.5440    0.0000 H   0  0  0  0  0  0  0  0  0  0  0  0
   -0.1445   -0.6908    0.0000 H   0  0  0  0  0  0  0  0  0  0  0  0
   -1.5218   -1.9308    0.0000 H   0  0  0  0  0  0  0  0  0  0  0  0
   -1.1911   -0.9132    0.0000 H   0  0  0  0  0  0  0  0  0  0  0  0
    1.0925   -5.8308    0.0000 H   0  0  0  0  0  0  0  0  0  0  0  0
    0.1850   -6.3978    0.0000 H   0  0  0  0  0  0  0  0  0  0  0  0
   -0.5146   -6.8349    0.0000 H   0  0  0  0  0  0  0  0  0  0  0  0
   -1.4593   -6.3325    0.0000 H   0  0  0  0  0  0  0  0  0  0  0  0
   -2.2538   -4.0513    0.0000 H   0  0  0  0  0  0  0  0  0  0  0  0
   -1.3464   -3.4844    0.0000 H   0  0  0  0  0  0  0  0  0  0  0  0
   -0.6468   -3.0473    0.0000 H   0  0  0  0  0  0  0  0  0  0  0  0
    0.2979   -3.5496    0.0000 H   0  0  0  0  0  0  0  0  0  0  0  0
   -5.0764   -4.1690    0.0000 H   0  0  0  0  0  0  0  0  0  0  0  0
   -1.0928   -4.6688    0.0000 H   0  0  0  0  0  0  0  0  0  0  0  0
   -2.0748   -3.0971    0.0000 H   0  0  0  0  0  0  0  0  0  0  0  0
   -1.1301   -3.5994    0.0000 H   0  0  0  0  0  0  0  0  0  0  0  0
   -4.2866   -7.2568    0.0000 H   0  0  0  0  0  0  0  0  0  0  0  0
   -2.4344   -7.1921    0.0000 H   0  0  0  0  0  0  0  0  0  0  0  0
   -3.3418   -7.7591    0.0000 H   0  0  0  0  0  0  0  0  0  0  0  0
    1.3367   -5.6108    0.0000 H   0  0  0  0  0  0  0  0  0  0  0  0
    1.5946   -3.7755    0.0000 H   0  0  0  0  0  0  0  0  0  0  0  0
    1.9955   -4.7676    0.0000 H   0  0  0  0  0  0  0  0  0  0  0  0
  1  2  1  0  0  0  0
  1 41  1  0  0  0  0
  1 42  1  0  0  0  0
  1 43  1  0  0  0  0
  2  3  1  0  0  0  0
  2 44  1  0  0  0  0
  2 45  1  0  0  0  0
  4  3  1  0  0  0  0
  4  5  1  0  0  0  0
  4 12  1  0  0  0  0
  4 46  1  1  0  0  0
  5  6  1  0  0  0  0
  5 47  1  0  0  0  0
  5 48  1  0  0  0  0
  6  7  2  0  0  0  0
  6 11  1  0  0  0  0
  7  8  1  0  0  0  0
  7 49  1  0  0  0  0
  8  9  2  0  0  0  0
  8 37  1  0  0  0  0
  9 10  1  0  0  0  0
  9 50  1  0  0  0  0
 10 11  2  0  0  0  0
 10 51  1  0  0  0  0
 11 12  1  0  0  0  0
 12 13  1  0  0  0  0
 12 52  1  6  0  0  0
 13 14  1  0  0  0  0
 13 18  1  0  0  0  0
 14 15  1  0  0  0  0
 14 53  1  0  0  0  0
 14 54  1  0  0  0  0
 15 16  1  0  0  0  0
 15 55  1  0  0  0  0
 15 56  1  0  0  0  0
 16 17  1  0  0  0  0
 16 20  1  0  0  0  0
 17 18  1  0  0  0  0
 17 57  1  0  0  0  0
 17 58  1  0  0  0  0
 18 19  1  0  0  0  0
 18 59  1  1  0  0  0
 19 60  1  0  0  0  0
 19 61  1  0  0  0  0
 19 62  1  0  0  0  0
 20 21  1  0  0  0  0
 20 25  1  0  0  0  0
 20 36  1  0  0  0  0
 21 22  1  0  0  0  0
 21 63  1  0  0  0  0
 21 64  1  0  0  0  0
 22 23  1  0  0  0  0
 22 65  1  0  0  0  0
 22 66  1  0  0  0  0
 23 24  1  0  0  0  0
 23 26  1  0  0  0  0
 24 25  1  0  0  0  0
 24 67  1  0  0  0  0
 24 68  1  0  0  0  0
 25 69  1  0  0  0  0
 25 70  1  0  0  0  0
 26 27  2  0  0  0  0
 26 28  1  0  0  0  0
 28 29  2  0  0  0  0
 28 33  1  0  0  0  0
 29 30  1  0  0  0  0
 29 35  1  0  0  0  0
 30 31  2  0  0  0  0
 31 32  1  0  0  0  0
 31 71  1  0  0  0  0
 32 33  2  0  0  0  0
 33 34  1  0  0  0  0
 34 72  1  0  0  0  0
 34 73  1  0  0  0  0
 34 74  1  0  0  0  0
 35 75  1  0  0  0  0
 35 76  1  0  0  0  0
 35 77  1  0  0  0  0
 36 78  1  0  0  0  0
 36 79  1  0  0  0  0
 36 80  1  0  0  0  0
 37 38  1  0  0  0  0
 37 39  1  0  0  0  0
 37 40  1  0  0  0  0
M  END
>  <DRUGBANK_ID>
DB12960

>  <SECONDARY_ACCESSION_NUMBERS>
DB05062

>  <COMMON_NAME>
INCB-9471

>  <CAS_NUMBER>
869769-98-2

>  <UNII>
C5D4W25708

$$$$
