
 OpenBabel10282417072D

 95102  0  0  0  0  0  0  0  0999 V2000
    4.9681    8.0904    0.0000 N   0  0  0  0  0  0  0  0  0  0  0  0
    4.1431    8.0904    0.0000 C   0  0  0  0  0  0  0  0  0  0  0  0
    3.7306    7.3759    0.0000 C   0  0  0  0  0  0  0  0  0  0  0  0
    2.9056    7.3759    0.0000 C   0  0  0  0  0  0  0  0  0  0  0  0
    2.4931    8.0904    0.0000 C   0  0  0  0  0  0  0  0  0  0  0  0
    2.9056    8.8048    0.0000 C   0  0  0  0  0  0  0  0  0  0  0  0
    3.7306    8.8048    0.0000 C   0  0  0  0  0  0  0  0  0  0  0  0
    2.4931    9.5193    0.0000 C   0  0  0  0  0  0  0  0  0  0  0  0
    2.9056   10.2338    0.0000 C   0  0  0  0  0  0  0  0  0  0  0  0
    2.4931   10.9482    0.0000 C   0  0  0  0  0  0  0  0  0  0  0  0
    2.9056   11.6627    0.0000 C   0  0  0  0  0  0  0  0  0  0  0  0
    3.7306   11.6627    0.0000 C   0  0  0  0  0  0  0  0  0  0  0  0
    4.1431   10.9482    0.0000 C   0  0  0  0  0  0  0  0  0  0  0  0
    3.7306   10.2338    0.0000 C   0  0  0  0  0  0  0  0  0  0  0  0
    1.6681    9.5193    0.0000 N   0  3  0  0  0  0  0  0  0  0  0  0
    1.2556   10.2338    0.0000 C   0  0  0  0  0  0  0  0  0  0  0  0
    0.4306   10.2338    0.0000 C   0  0  0  0  0  0  0  0  0  0  0  0
    0.0181   10.9482    0.0000 C   0  0  0  0  0  0  0  0  0  0  0  0
   -0.8069   10.9482    0.0000 C   0  0  0  0  0  0  0  0  0  0  0  0
   -1.2194   11.6627    0.0000 C   0  0  0  0  0  0  0  0  0  0  0  0
   -2.0444   11.6627    0.0000 C   0  0  0  0  0  0  0  0  0  0  0  0
   -2.4569   12.3772    0.0000 C   0  0  0  0  0  0  0  0  0  0  0  0
   -3.2774   12.4634    0.0000 C   0  0  0  0  0  0  0  0  0  0  0  0
   -3.4489   13.2704    0.0000 N   0  0  0  0  0  0  0  0  0  0  0  0
   -4.2026   13.6059    0.0000 C   0  0  0  0  0  0  0  0  0  0  0  0
   -4.8701   13.1210    0.0000 C   0  0  0  0  0  0  0  0  0  0  0  0
   -5.6237   13.4566    0.0000 N   0  0  0  0  0  0  0  0  0  0  0  0
   -6.2912   12.9717    0.0000 C   0  0  0  0  0  0  0  0  0  0  0  0
   -7.0448   13.3072    0.0000 C   0  0  0  0  0  0  0  0  0  0  0  0
   -7.1311   14.1277    0.0000 C   0  0  0  0  0  0  0  0  0  0  0  0
   -7.8848   14.4633    0.0000 C   0  0  0  0  0  0  0  0  0  0  0  0
   -8.5522   13.9783    0.0000 C   0  0  0  0  0  0  0  0  0  0  0  0
   -8.4660   13.1578    0.0000 C   0  0  0  0  0  0  0  0  0  0  0  0
   -7.7123   12.8223    0.0000 C   0  0  0  0  0  0  0  0  0  0  0  0
   -7.6260   12.0018    0.0000 N   0  0  0  0  0  0  0  0  0  0  0  0
   -6.8724   11.6663    0.0000 C   0  0  0  0  0  0  0  0  0  0  0  0
   -6.2049   12.1512    0.0000 C   0  0  0  0  0  0  0  0  0  0  0  0
   -5.4513   11.8156    0.0000 C   0  0  0  0  0  0  0  0  0  0  0  0
   -5.3650   10.9951    0.0000 C   0  0  0  0  0  0  0  0  0  0  0  0
   -6.0325   10.5102    0.0000 C   0  0  0  0  0  0  0  0  0  0  0  0
   -6.7861   10.8458    0.0000 C   0  0  0  0  0  0  0  0  0  0  0  0
   -2.7345   13.6829    0.0000 N   0  0  0  0  0  0  0  0  0  0  0  0
   -2.1214   13.1309    0.0000 N   0  0  0  0  0  0  0  0  0  0  0  0
    1.2556    8.8048    0.0000 C   0  0  0  0  0  0  0  0  0  0  0  0
    1.6681    8.0904    0.0000 C   0  0  0  0  0  0  0  0  0  0  0  0
    1.2556    7.3759    0.0000 C   0  0  0  0  0  0  0  0  0  0  0  0
    0.4306    7.3759    0.0000 C   0  0  0  0  0  0  0  0  0  0  0  0
    0.0181    8.0904    0.0000 C   0  0  0  0  0  0  0  0  0  0  0  0
   -0.8069    8.0904    0.0000 N   0  0  0  0  0  0  0  0  0  0  0  0
    0.4306    8.8048    0.0000 C   0  0  0  0  0  0  0  0  0  0  0  0
    5.4604    7.2378    0.0000 H   0  0  0  0  0  0  0  0  0  0  0  0
    5.4604    8.9430    0.0000 H   0  0  0  0  0  0  0  0  0  0  0  0
    4.2466    6.4822    0.0000 H   0  0  0  0  0  0  0  0  0  0  0  0
    2.3896    6.4822    0.0000 H   0  0  0  0  0  0  0  0  0  0  0  0
    4.2466    9.6985    0.0000 H   0  0  0  0  0  0  0  0  0  0  0  0
    1.4611   10.9482    0.0000 H   0  0  0  0  0  0  0  0  0  0  0  0
    2.3896   12.5564    0.0000 H   0  0  0  0  0  0  0  0  0  0  0  0
    4.2466   12.5564    0.0000 H   0  0  0  0  0  0  0  0  0  0  0  0
    5.1751   10.9482    0.0000 H   0  0  0  0  0  0  0  0  0  0  0  0
    4.2466    9.3401    0.0000 H   0  0  0  0  0  0  0  0  0  0  0  0
    1.7906   11.1604    0.0000 H   0  0  0  0  0  0  0  0  0  0  0  0
    0.7206   11.1604    0.0000 H   0  0  0  0  0  0  0  0  0  0  0  0
   -0.1044    9.3071    0.0000 H   0  0  0  0  0  0  0  0  0  0  0  0
   -0.6394   10.2338    0.0000 H   0  0  0  0  0  0  0  0  0  0  0  0
    0.5531   11.8749    0.0000 H   0  0  0  0  0  0  0  0  0  0  0  0
   -0.5169   11.8748    0.0000 H   0  0  0  0  0  0  0  0  0  0  0  0
   -1.3419   10.0216    0.0000 H   0  0  0  0  0  0  0  0  0  0  0  0
   -1.8769   10.9482    0.0000 H   0  0  0  0  0  0  0  0  0  0  0  0
   -0.6844   12.5893    0.0000 H   0  0  0  0  0  0  0  0  0  0  0  0
   -1.7544   12.5893    0.0000 H   0  0  0  0  0  0  0  0  0  0  0  0
   -2.5794   10.7361    0.0000 H   0  0  0  0  0  0  0  0  0  0  0  0
   -3.1144   11.6627    0.0000 H   0  0  0  0  0  0  0  0  0  0  0  0
   -3.9679   11.6965    0.0000 H   0  0  0  0  0  0  0  0  0  0  0  0
   -4.3145   14.6700    0.0000 H   0  0  0  0  0  0  0  0  0  0  0  0
   -5.1801   14.0411    0.0000 H   0  0  0  0  0  0  0  0  0  0  0  0
   -4.7583   12.0569    0.0000 H   0  0  0  0  0  0  0  0  0  0  0  0
   -5.7358   12.4921    0.0000 H   0  0  0  0  0  0  0  0  0  0  0  0
   -5.7265   14.4357    0.0000 H   0  0  0  0  0  0  0  0  0  0  0  0
   -6.2655   14.7566    0.0000 H   0  0  0  0  0  0  0  0  0  0  0  0
   -7.2429   15.1918    0.0000 H   0  0  0  0  0  0  0  0  0  0  0  0
   -7.9967   15.5274    0.0000 H   0  0  0  0  0  0  0  0  0  0  0  0
   -8.8623   14.8984    0.0000 H   0  0  0  0  0  0  0  0  0  0  0  0
   -9.5297   14.4135    0.0000 H   0  0  0  0  0  0  0  0  0  0  0  0
   -9.4179   13.3494    0.0000 H   0  0  0  0  0  0  0  0  0  0  0  0
   -9.3316   12.5289    0.0000 H   0  0  0  0  0  0  0  0  0  0  0  0
   -8.3541   12.0937    0.0000 H   0  0  0  0  0  0  0  0  0  0  0  0
   -4.6164   12.4222    0.0000 H   0  0  0  0  0  0  0  0  0  0  0  0
   -4.4222   10.5754    0.0000 H   0  0  0  0  0  0  0  0  0  0  0  0
   -5.9247    9.4838    0.0000 H   0  0  0  0  0  0  0  0  0  0  0  0
   -7.6210   10.2392    0.0000 H   0  0  0  0  0  0  0  0  0  0  0  0
    1.7716    6.4822    0.0000 H   0  0  0  0  0  0  0  0  0  0  0  0
   -0.0854    6.4822    0.0000 H   0  0  0  0  0  0  0  0  0  0  0  0
   -1.2992    8.9430    0.0000 H   0  0  0  0  0  0  0  0  0  0  0  0
   -1.2991    7.2378    0.0000 H   0  0  0  0  0  0  0  0  0  0  0  0
   -0.0854    9.6985    0.0000 H   0  0  0  0  0  0  0  0  0  0  0  0
  1  2  1  0  0  0  0
  1 51  1  0  0  0  0
  1 52  1  0  0  0  0
  2  3  2  0  0  0  0
  2  7  1  0  0  0  0
  3  4  1  0  0  0  0
  3 53  1  0  0  0  0
  4  5  2  0  0  0  0
  4 54  1  0  0  0  0
  5  6  1  0  0  0  0
  5 45  1  0  0  0  0
  6  7  2  0  0  0  0
  6  8  1  0  0  0  0
  7 55  1  0  0  0  0
  8  9  1  0  0  0  0
  8 15  2  0  0  0  0
  9 10  2  0  0  0  0
  9 14  1  0  0  0  0
 10 11  1  0  0  0  0
 10 56  1  0  0  0  0
 11 12  2  0  0  0  0
 11 57  1  0  0  0  0
 12 13  1  0  0  0  0
 12 58  1  0  0  0  0
 13 14  2  0  0  0  0
 13 59  1  0  0  0  0
 14 60  1  0  0  0  0
 15 16  1  0  0  0  0
 15 44  1  0  0  0  0
 16 17  1  0  0  0  0
 16 61  1  0  0  0  0
 16 62  1  0  0  0  0
 17 18  1  0  0  0  0
 17 63  1  0  0  0  0
 17 64  1  0  0  0  0
 18 19  1  0  0  0  0
 18 65  1  0  0  0  0
 18 66  1  0  0  0  0
 19 20  1  0  0  0  0
 19 67  1  0  0  0  0
 19 68  1  0  0  0  0
 20 21  1  0  0  0  0
 20 69  1  0  0  0  0
 20 70  1  0  0  0  0
 21 22  1  0  0  0  0
 21 71  1  0  0  0  0
 21 72  1  0  0  0  0
 22 23  2  0  0  0  0
 22 43  1  0  0  0  0
 23 24  1  0  0  0  0
 23 73  1  0  0  0  0
 24 25  1  0  0  0  0
 24 42  1  0  0  0  0
 25 26  1  0  0  0  0
 25 74  1  0  0  0  0
 25 75  1  0  0  0  0
 26 27  1  0  0  0  0
 26 76  1  0  0  0  0
 26 77  1  0  0  0  0
 27 28  1  0  0  0  0
 27 78  1  0  0  0  0
 28 29  2  0  0  0  0
 28 37  1  0  0  0  0
 29 30  1  0  0  0  0
 29 34  1  0  0  0  0
 30 31  1  0  0  0  0
 30 79  1  0  0  0  0
 30 80  1  0  0  0  0
 31 32  1  0  0  0  0
 31 81  1  0  0  0  0
 31 82  1  0  0  0  0
 32 33  1  0  0  0  0
 32 83  1  0  0  0  0
 32 84  1  0  0  0  0
 33 34  1  0  0  0  0
 33 85  1  0  0  0  0
 33 86  1  0  0  0  0
 34 35  2  0  0  0  0
 35 36  1  0  0  0  0
 36 37  2  0  0  0  0
 36 41  1  0  0  0  0
 37 38  1  0  0  0  0
 38 39  2  0  0  0  0
 38 87  1  0  0  0  0
 39 40  1  0  0  0  0
 39 88  1  0  0  0  0
 40 41  2  0  0  0  0
 40 89  1  0  0  0  0
 41 90  1  0  0  0  0
 42 43  2  0  0  0  0
 44 45  2  0  0  0  0
 44 50  1  0  0  0  0
 45 46  1  0  0  0  0
 46 47  2  0  0  0  0
 46 91  1  0  0  0  0
 47 48  1  0  0  0  0
 47 92  1  0  0  0  0
 48 49  1  0  0  0  0
 48 50  2  0  0  0  0
 49 93  1  0  0  0  0
 49 94  1  0  0  0  0
 50 95  1  0  0  0  0
M  CHG  1  15   1
M  END
>  <DRUGBANK_ID>
DB02226

>  <SECONDARY_ACCESSION_NUMBERS>
EXPT03146

>  <COMMON_NAME>
3,8-Diamino-6-Phenyl-5-[6-[1-[2-[(1,2,3,4-Tetrahydro-9-Acridinyl)Amino]Ethyl]-1h-1,2,3-Triazol-4-Yl]Hexyl]-Phenanthridinium

$$$$
