
 OpenBabel10282417072D

333333  0  0  0  0  0  0  0  0999 V2000
    1.0634   -2.7069    0.0000 C   0  0  0  0  0  0  0  0  0  0  0  0
   -4.9262    8.1674    0.0000 C   0  0  0  0  0  0  0  0  0  0  0  0
   -4.8148    8.9848    0.0000 C   0  0  0  0  0  0  0  0  0  0  0  0
   -0.2787   -5.7216    0.0000 C   0  0  0  0  0  0  0  0  0  0  0  0
    0.3555   -7.8101    0.0000 C   0  0  0  0  0  0  0  0  0  0  0  0
   -6.5647    6.7253    0.0000 C   0  0  0  0  0  0  0  0  0  0  0  0
    3.6374   -7.4652    0.0000 C   0  0  0  0  0  0  0  0  0  0  0  0
    3.5249   -2.4482    0.0000 C   0  0  0  0  0  0  0  0  0  0  0  0
    6.6546   -4.7529    0.0000 C   0  0  0  0  0  0  0  0  0  0  0  0
    6.9995   -1.4710    0.0000 C   0  0  0  0  0  0  0  0  0  0  0  0
    5.2081    0.5609    0.0000 C   0  0  0  0  0  0  0  0  0  0  0  0
    2.3698   -1.8219    0.0000 C   0  0  0  0  0  0  0  0  0  0  0  0
   -7.0100    3.4555    0.0000 C   0  0  0  0  0  0  0  0  0  0  0  0
    2.1426    0.8423    0.0000 C   0  0  0  0  0  0  0  0  0  0  0  0
   -4.2739    7.6622    0.0000 C   0  0  0  0  0  0  0  0  0  0  0  0
    0.0567   -4.9679    0.0000 C   0  0  0  0  0  0  0  0  0  0  0  0
    1.1760   -7.7239    0.0000 C   0  0  0  0  0  0  0  0  0  0  0  0
   -6.6760    5.9078    0.0000 C   0  0  0  0  0  0  0  0  0  0  0  0
    3.9730   -6.7115    0.0000 C   0  0  0  0  0  0  0  0  0  0  0  0
    3.1893   -3.2019    0.0000 C   0  0  0  0  0  0  0  0  0  0  0  0
    6.7408   -3.9324    0.0000 C   0  0  0  0  0  0  0  0  0  0  0  0
    6.3321   -0.9861    0.0000 C   0  0  0  0  0  0  0  0  0  0  0  0
    4.4011    0.7324    0.0000 C   0  0  0  0  0  0  0  0  0  0  0  0
    2.6247   -1.0373    0.0000 C   0  0  0  0  0  0  0  0  0  0  0  0
   -6.3577    2.9503    0.0000 C   0  0  0  0  0  0  0  0  0  0  0  0
    1.4282    1.2548    0.0000 C   0  0  0  0  0  0  0  0  0  0  0  0
   -3.5730    0.0173    0.0000 C   0  0  0  0  0  0  0  0  0  0  0  0
   -4.2875   -0.3951    0.0000 C   0  0  0  0  0  0  0  0  0  0  0  0
   -5.4671    9.4900    0.0000 C   0  0  0  0  0  0  0  0  0  0  0  0
   -1.0992   -5.8078    0.0000 C   0  0  0  0  0  0  0  0  0  0  0  0
    0.0199   -8.5638    0.0000 C   0  0  0  0  0  0  0  0  0  0  0  0
   -7.2170    7.2304    0.0000 C   0  0  0  0  0  0  0  0  0  0  0  0
    4.1223   -8.1326    0.0000 C   0  0  0  0  0  0  0  0  0  0  0  0
    3.0399   -1.7807    0.0000 C   0  0  0  0  0  0  0  0  0  0  0  0
    7.3220   -5.2378    0.0000 C   0  0  0  0  0  0  0  0  0  0  0  0
    7.7532   -1.1354    0.0000 C   0  0  0  0  0  0  0  0  0  0  0  0
    5.7601    1.1740    0.0000 C   0  0  0  0  0  0  0  0  0  0  0  0
    2.9218   -2.4350    0.0000 C   0  0  0  0  0  0  0  0  0  0  0  0
   -7.7736    3.1432    0.0000 C   0  0  0  0  0  0  0  0  0  0  0  0
    2.8571    1.2548    0.0000 C   0  0  0  0  0  0  0  0  0  0  0  0
   -2.4284    5.3294    0.0000 C   0  0  0  0  0  0  0  0  0  0  0  0
   -3.2711    3.3493    0.0000 C   0  0  0  0  0  0  0  0  0  0  0  0
   -1.4296    2.0798    0.0000 C   0  0  0  0  0  0  0  0  0  0  0  0
    0.7279   -3.4606    0.0000 C   0  0  0  0  0  0  0  0  0  0  0  0
    0.8772   -4.8817    0.0000 C   0  0  2  0  0  0  0  0  0  0  0  0
   -4.3852    6.8448    0.0000 C   0  0  2  0  0  0  0  0  0  0  0  0
    1.5115   -6.9702    0.0000 C   0  0  2  0  0  0  0  0  0  0  0  0
   -6.0238    5.4027    0.0000 C   0  0  2  0  0  0  0  0  0  0  0  0
    3.4880   -6.0441    0.0000 C   0  0  2  0  0  0  0  0  0  0  0  0
    3.6742   -3.8693    0.0000 C   0  0  2  0  0  0  0  0  0  0  0  0
    6.0734   -3.4475    0.0000 C   0  0  2  0  0  0  0  0  0  0  0  0
    5.5784   -1.3216    0.0000 C   0  0  2  0  0  0  0  0  0  0  0  0
    3.8491    0.1194    0.0000 C   0  0  2  0  0  0  0  0  0  0  0  0
    2.0727   -0.4242    0.0000 C   0  0  2  0  0  0  0  0  0  0  0  0
   -5.5941    3.2627    0.0000 C   0  0  2  0  0  0  0  0  0  0  0  0
    0.7137    0.8423    0.0000 C   0  0  2  0  0  0  0  0  0  0  0  0
   -3.5730    0.8423    0.0000 C   0  0  2  0  0  0  0  0  0  0  0  0
   -2.3171    6.1468    0.0000 C   0  0  2  0  0  0  0  0  0  0  0  0
   -3.5260    2.5647    0.0000 C   0  0  2  0  0  0  0  0  0  0  0  0
   -1.4296    1.2548    0.0000 C   0  0  2  0  0  0  0  0  0  0  0  0
   -4.2875   -1.2201    0.0000 C   0  0  0  0  0  0  0  0  0  0  0  0
   -1.7761    4.8242    0.0000 C   0  0  0  0  0  0  0  0  0  0  0  0
    1.3622   -5.5491    0.0000 C   0  0  0  0  0  0  0  0  0  0  0  0
   -5.2602    5.7150    0.0000 C   0  0  0  0  0  0  0  0  0  0  0  0
    2.3320   -6.8840    0.0000 C   0  0  0  0  0  0  0  0  0  0  0  0
    3.8236   -5.2904    0.0000 C   0  0  0  0  0  0  0  0  0  0  0  0
    4.4947   -3.7831    0.0000 C   0  0  0  0  0  0  0  0  0  0  0  0
    6.1596   -2.6270    0.0000 C   0  0  0  0  0  0  0  0  0  0  0  0
    4.9110   -0.8367    0.0000 C   0  0  0  0  0  0  0  0  0  0  0  0
    3.1346    0.5319    0.0000 C   0  0  0  0  0  0  0  0  0  0  0  0
    1.2657   -0.5957    0.0000 C   0  0  0  0  0  0  0  0  0  0  0  0
   -5.4828    4.0801    0.0000 C   0  0  0  0  0  0  0  0  0  0  0  0
   -3.7330    6.3396    0.0000 C   0  0  0  0  0  0  0  0  0  0  0  0
   -0.0007    1.2548    0.0000 C   0  0  0  0  0  0  0  0  0  0  0  0
   -4.2875    1.2548    0.0000 C   0  0  0  0  0  0  0  0  0  0  0  0
   -4.1783    3.0698    0.0000 C   0  0  0  0  0  0  0  0  0  0  0  0
   -2.1441    0.8423    0.0000 C   0  0  0  0  0  0  0  0  0  0  0  0
   -1.5535    6.4591    0.0000 C   0  0  0  0  0  0  0  0  0  0  0  0
   -2.2552   -6.6477    0.0000 C   0  0  0  0  0  0  0  0  0  0  0  0
   -1.1360   -9.4037    0.0000 C   0  0  0  0  0  0  0  0  0  0  0  0
   -7.7579    8.5530    0.0000 C   0  0  0  0  0  0  0  0  0  0  0  0
    4.2717   -9.5538    0.0000 C   0  0  0  0  0  0  0  0  0  0  0  0
    3.1206   -0.2424    0.0000 C   0  0  0  0  0  0  0  0  0  0  0  0
    7.9032   -6.5432    0.0000 C   0  0  0  0  0  0  0  0  0  0  0  0
    9.1743   -1.2848    0.0000 C   0  0  0  0  0  0  0  0  0  0  0  0
    7.1191    1.6156    0.0000 C   0  0  0  0  0  0  0  0  0  0  0  0
    2.7531   -4.0401    0.0000 C   0  0  0  0  0  0  0  0  0  0  0  0
   -9.1895    3.3360    0.0000 C   0  0  0  0  0  0  0  0  0  0  0  0
    4.2860    1.2548    0.0000 C   0  0  0  0  0  0  0  0  0  0  0  0
   -5.3558   10.3074    0.0000 N   0  0  0  0  0  0  0  0  0  0  0  0
   -5.0020   -1.6326    0.0000 N   0  0  0  0  0  0  0  0  0  0  0  0
   -1.0125    5.1365    0.0000 N   0  0  0  0  0  0  0  0  0  0  0  0
   -2.5908   -7.4014    0.0000 N   0  0  0  0  0  0  0  0  0  0  0  0
   -2.7402   -5.9803    0.0000 N   0  0  0  0  0  0  0  0  0  0  0  0
   -0.6511  -10.0712    0.0000 N   0  0  0  0  0  0  0  0  0  0  0  0
   -1.9565   -9.4900    0.0000 N   0  0  0  0  0  0  0  0  0  0  0  0
   -8.5215    8.2407    0.0000 N   0  0  0  0  0  0  0  0  0  0  0  0
   -7.6466    9.3705    0.0000 N   0  0  0  0  0  0  0  0  0  0  0  0
    5.0922   -9.4675    0.0000 N   0  0  0  0  0  0  0  0  0  0  0  0
    3.9361  -10.3074    0.0000 N   0  0  0  0  0  0  0  0  0  0  0  0
    2.3136   -0.0709    0.0000 N   0  0  0  0  0  0  0  0  0  0  0  0
    3.6726    0.3705    0.0000 N   0  0  0  0  0  0  0  0  0  0  0  0
    8.6569   -6.2077    0.0000 N   0  0  0  0  0  0  0  0  0  0  0  0
    7.8170   -7.3637    0.0000 N   0  0  0  0  0  0  0  0  0  0  0  0
    9.2606   -0.4643    0.0000 N   0  0  0  0  0  0  0  0  0  0  0  0
    9.8418   -1.7697    0.0000 N   0  0  0  0  0  0  0  0  0  0  0  0
    6.8642    2.4002    0.0000 N   0  0  0  0  0  0  0  0  0  0  0  0
    7.9261    1.4441    0.0000 N   0  0  0  0  0  0  0  0  0  0  0  0
    2.4982   -4.8247    0.0000 N   0  0  0  0  0  0  0  0  0  0  0  0
    2.9246   -4.8471    0.0000 N   0  0  0  0  0  0  0  0  0  0  0  0
   -9.3008    2.5185    0.0000 N   0  0  0  0  0  0  0  0  0  0  0  0
   -9.8418    3.8411    0.0000 N   0  0  0  0  0  0  0  0  0  0  0  0
    5.0005    0.8423    0.0000 N   0  0  0  0  0  0  0  0  0  0  0  0
    4.2860    2.0798    0.0000 N   0  0  0  0  0  0  0  0  0  0  0  0
   -1.4347   -6.5615    0.0000 N   0  0  0  0  0  0  0  0  0  0  0  0
   -0.8005   -8.6501    0.0000 N   0  0  0  0  0  0  0  0  0  0  0  0
   -7.1056    8.0479    0.0000 N   0  0  0  0  0  0  0  0  0  0  0  0
    3.7868   -8.8863    0.0000 N   0  0  0  0  0  0  0  0  0  0  0  0
    3.3755   -1.0271    0.0000 N   0  0  0  0  0  0  0  0  0  0  0  0
    7.2358   -6.0583    0.0000 N   0  0  0  0  0  0  0  0  0  0  0  0
    8.4206   -1.6204    0.0000 N   0  0  0  0  0  0  0  0  0  0  0  0
    6.5671    1.0025    0.0000 N   0  0  0  0  0  0  0  0  0  0  0  0
    2.6669   -3.2196    0.0000 N   0  0  0  0  0  0  0  0  0  0  0  0
   -8.4259    3.6483    0.0000 N   0  0  0  0  0  0  0  0  0  0  0  0
    3.5716    0.8423    0.0000 N   0  0  0  0  0  0  0  0  0  0  0  0
    1.2128   -4.1280    0.0000 N   0  0  0  0  0  0  0  0  0  0  0  0
   -5.1488    6.5325    0.0000 N   0  0  0  0  0  0  0  0  0  0  0  0
    1.0266   -6.3028    0.0000 N   0  0  0  0  0  0  0  0  0  0  0  0
    2.6676   -6.1303    0.0000 N   0  0  0  0  0  0  0  0  0  0  0  0
    3.3387   -4.6230    0.0000 N   0  0  0  0  0  0  0  0  0  0  0  0
    5.3197   -3.7831    0.0000 N   0  0  0  0  0  0  0  0  0  0  0  0
    5.4922   -2.1421    0.0000 N   0  0  0  0  0  0  0  0  0  0  0  0
    4.1040   -0.6652    0.0000 N   0  0  0  0  0  0  0  0  0  0  0  0
    2.3276    0.3603    0.0000 N   0  0  0  0  0  0  0  0  0  0  0  0
   -6.1351    4.5853    0.0000 N   0  0  0  0  0  0  0  0  0  0  0  0
    0.7137    0.0173    0.0000 N   0  0  0  0  0  0  0  0  0  0  0  0
   -4.9419    2.7575    0.0000 N   0  0  0  0  0  0  0  0  0  0  0  0
   -2.8586    1.2548    0.0000 N   0  0  0  0  0  0  0  0  0  0  0  0
   -2.9694    6.6520    0.0000 N   0  0  0  0  0  0  0  0  0  0  0  0
   -0.7152    0.8423    0.0000 N   0  0  0  0  0  0  0  0  0  0  0  0
   -4.2875    2.0798    0.0000 N   0  0  0  0  0  0  0  0  0  0  0  0
   -0.0925   -3.5468    0.0000 O   0  0  0  0  0  0  0  0  0  0  0  0
   -3.5730   -1.6326    0.0000 O   0  0  0  0  0  0  0  0  0  0  0  0
   -1.8875    4.0068    0.0000 O   0  0  0  0  0  0  0  0  0  0  0  0
    2.1826   -5.4629    0.0000 O   0  0  0  0  0  0  0  0  0  0  0  0
   -4.6079    5.2099    0.0000 O   0  0  0  0  0  0  0  0  0  0  0  0
    2.8169   -7.5514    0.0000 O   0  0  0  0  0  0  0  0  0  0  0  0
    4.6441   -5.2042    0.0000 O   0  0  0  0  0  0  0  0  0  0  0  0
    4.0822   -3.0686    0.0000 O   0  0  0  0  0  0  0  0  0  0  0  0
    6.9133   -2.2915    0.0000 O   0  0  0  0  0  0  0  0  0  0  0  0
    4.9972   -0.0162    0.0000 O   0  0  0  0  0  0  0  0  0  0  0  0
    3.9192    0.7868    0.0000 O   0  0  0  0  0  0  0  0  0  0  0  0
    1.0108   -1.3803    0.0000 O   0  0  0  0  0  0  0  0  0  0  0  0
   -4.7192    4.3924    0.0000 O   0  0  0  0  0  0  0  0  0  0  0  0
   -3.8443    5.5222    0.0000 O   0  0  0  0  0  0  0  0  0  0  0  0
   -0.0007    2.0798    0.0000 O   0  0  0  0  0  0  0  0  0  0  0  0
   -5.0020    0.8423    0.0000 O   0  0  0  0  0  0  0  0  0  0  0  0
   -4.0669    3.8873    0.0000 O   0  0  0  0  0  0  0  0  0  0  0  0
   -2.1441    0.0173    0.0000 O   0  0  0  0  0  0  0  0  0  0  0  0
   -1.4422    7.2766    0.0000 O   0  0  0  0  0  0  0  0  0  0  0  0
   -0.9012    5.9540    0.0000 O   0  0  0  0  0  0  0  0  0  0  0  0
   -2.4461    3.3493    0.0000 S   0  0  0  0  0  0  0  0  0  0  0  0
   -2.1912    2.5647    0.0000 S   0  0  0  0  0  0  0  0  0  0  0  0
    0.5417   -5.6354    0.0000 H   0  0  0  0  0  0  0  0  0  0  0  0
   -3.6216    7.1571    0.0000 H   0  0  0  0  0  0  0  0  0  0  0  0
    1.9964   -7.6377    0.0000 H   0  0  0  0  0  0  0  0  0  0  0  0
   -5.9124    6.2202    0.0000 H   0  0  0  0  0  0  0  0  0  0  0  0
    4.3085   -5.9579    0.0000 H   0  0  0  0  0  0  0  0  0  0  0  0
    4.1591   -4.5367    0.0000 H   0  0  0  0  0  0  0  0  0  0  0  0
    6.8271   -3.1119    0.0000 H   0  0  0  0  0  0  0  0  0  0  0  0
    5.6647   -0.5011    0.0000 H   0  0  0  0  0  0  0  0  0  0  0  0
    4.6560   -0.0521    0.0000 H   0  0  0  0  0  0  0  0  0  0  0  0
    1.8177   -1.2088    0.0000 H   0  0  0  0  0  0  0  0  0  0  0  0
   -6.2464    3.7678    0.0000 H   0  0  0  0  0  0  0  0  0  0  0  0
    0.7137    1.6673    0.0000 H   0  0  0  0  0  0  0  0  0  0  0  0
   -4.2875    0.4298    0.0000 H   0  0  0  0  0  0  0  0  0  0  0  0
   -1.6648    5.6417    0.0000 H   0  0  0  0  0  0  0  0  0  0  0  0
   -2.8737    2.0595    0.0000 H   0  0  0  0  0  0  0  0  0  0  0  0
   -1.4296    0.4298    0.0000 H   0  0  0  0  0  0  0  0  0  0  0  0
    2.1275   -2.5950    0.0000 H   0  0  0  0  0  0  0  0  0  0  0  0
    0.4344   -1.8413    0.0000 H   0  0  0  0  0  0  0  0  0  0  0  0
    1.4985   -1.7294    0.0000 H   0  0  0  0  0  0  0  0  0  0  0  0
   -5.9166    7.7624    0.0000 H   0  0  0  0  0  0  0  0  0  0  0  0
   -5.0706    7.1072    0.0000 H   0  0  0  0  0  0  0  0  0  0  0  0
   -3.8244    9.3898    0.0000 H   0  0  0  0  0  0  0  0  0  0  0  0
   -4.6704   10.0450    0.0000 H   0  0  0  0  0  0  0  0  0  0  0  0
    0.3503   -6.5872    0.0000 H   0  0  0  0  0  0  0  0  0  0  0  0
   -0.7139   -6.6991    0.0000 H   0  0  0  0  0  0  0  0  0  0  0  0
   -0.2734   -6.9444    0.0000 H   0  0  0  0  0  0  0  0  0  0  0  0
   -0.7086   -7.9219    0.0000 H   0  0  0  0  0  0  0  0  0  0  0  0
   -5.5744    7.1304    0.0000 H   0  0  0  0  0  0  0  0  0  0  0  0
   -6.4204    7.7855    0.0000 H   0  0  0  0  0  0  0  0  0  0  0  0
    2.5733   -7.5770    0.0000 H   0  0  0  0  0  0  0  0  0  0  0  0
    3.2022   -8.4427    0.0000 H   0  0  0  0  0  0  0  0  0  0  0  0
    4.5890   -2.3364    0.0000 H   0  0  0  0  0  0  0  0  0  0  0  0
    3.9601   -1.4707    0.0000 H   0  0  0  0  0  0  0  0  0  0  0  0
    5.6771   -5.1881    0.0000 H   0  0  0  0  0  0  0  0  0  0  0  0
    6.5428   -5.8170    0.0000 H   0  0  0  0  0  0  0  0  0  0  0  0
    6.8877   -2.5351    0.0000 H   0  0  0  0  0  0  0  0  0  0  0  0
    7.8652   -2.0999    0.0000 H   0  0  0  0  0  0  0  0  0  0  0  0
    5.5388   -0.4567    0.0000 H   0  0  0  0  0  0  0  0  0  0  0  0
    6.2547    0.3385    0.0000 H   0  0  0  0  0  0  0  0  0  0  0  0
    1.3232   -2.0444    0.0000 H   0  0  0  0  0  0  0  0  0  0  0  0
    2.0391   -2.8395    0.0000 H   0  0  0  0  0  0  0  0  0  0  0  0
   -6.8656    4.5157    0.0000 H   0  0  0  0  0  0  0  0  0  0  0  0
   -7.8560    4.1107    0.0000 H   0  0  0  0  0  0  0  0  0  0  0  0
    2.1426   -0.2277    0.0000 H   0  0  0  0  0  0  0  0  0  0  0  0
    3.0692    0.3073    0.0000 H   0  0  0  0  0  0  0  0  0  0  0  0
   -3.2835    8.0673    0.0000 H   0  0  0  0  0  0  0  0  0  0  0  0
   -3.4279    7.0071    0.0000 H   0  0  0  0  0  0  0  0  0  0  0  0
   -0.5723   -4.1023    0.0000 H   0  0  0  0  0  0  0  0  0  0  0  0
    0.4919   -3.9904    0.0000 H   0  0  0  0  0  0  0  0  0  0  0  0
    1.8049   -8.5895    0.0000 H   0  0  0  0  0  0  0  0  0  0  0  0
    2.2401   -7.6120    0.0000 H   0  0  0  0  0  0  0  0  0  0  0  0
   -7.6664    5.5027    0.0000 H   0  0  0  0  0  0  0  0  0  0  0  0
   -6.8204    4.8476    0.0000 H   0  0  0  0  0  0  0  0  0  0  0  0
    5.0371   -6.5996    0.0000 H   0  0  0  0  0  0  0  0  0  0  0  0
    4.4081   -5.7340    0.0000 H   0  0  0  0  0  0  0  0  0  0  0  0
    2.1252   -3.3137    0.0000 H   0  0  0  0  0  0  0  0  0  0  0  0
    2.7541   -4.1794    0.0000 H   0  0  0  0  0  0  0  0  0  0  0  0
    7.7183   -3.4972    0.0000 H   0  0  0  0  0  0  0  0  0  0  0  0
    6.8526   -2.8683    0.0000 H   0  0  0  0  0  0  0  0  0  0  0  0
    6.4440    0.0780    0.0000 H   0  0  0  0  0  0  0  0  0  0  0  0
    5.4665   -0.3571    0.0000 H   0  0  0  0  0  0  0  0  0  0  0  0
    4.0705    1.7500    0.0000 H   0  0  0  0  0  0  0  0  0  0  0  0
    3.3545    0.9549    0.0000 H   0  0  0  0  0  0  0  0  0  0  0  0
    3.6713   -0.8148    0.0000 H   0  0  0  0  0  0  0  0  0  0  0  0
    2.9554   -0.0197    0.0000 H   0  0  0  0  0  0  0  0  0  0  0  0
   -6.5021    1.8901    0.0000 H   0  0  0  0  0  0  0  0  0  0  0  0
   -5.5117    2.2952    0.0000 H   0  0  0  0  0  0  0  0  0  0  0  0
    1.4282    2.3248    0.0000 H   0  0  0  0  0  0  0  0  0  0  0  0
    0.5016    1.7898    0.0000 H   0  0  0  0  0  0  0  0  0  0  0  0
   -2.6464   -0.5178    0.0000 H   0  0  0  0  0  0  0  0  0  0  0  0
   -2.6463    0.5523    0.0000 H   0  0  0  0  0  0  0  0  0  0  0  0
   -5.2141    0.1400    0.0000 H   0  0  0  0  0  0  0  0  0  0  0  0
   -5.2142   -0.9301    0.0000 H   0  0  0  0  0  0  0  0  0  0  0  0
   -6.4575    9.0849    0.0000 H   0  0  0  0  0  0  0  0  0  0  0  0
   -6.3131   10.1451    0.0000 H   0  0  0  0  0  0  0  0  0  0  0  0
   -1.7281   -4.9422    0.0000 H   0  0  0  0  0  0  0  0  0  0  0  0
   -2.1633   -5.9197    0.0000 H   0  0  0  0  0  0  0  0  0  0  0  0
    0.6489   -9.4294    0.0000 H   0  0  0  0  0  0  0  0  0  0  0  0
   -0.4153   -9.5413    0.0000 H   0  0  0  0  0  0  0  0  0  0  0  0
   -8.2074    6.8253    0.0000 H   0  0  0  0  0  0  0  0  0  0  0  0
   -8.0629    7.8856    0.0000 H   0  0  0  0  0  0  0  0  0  0  0  0
    5.1864   -8.0207    0.0000 H   0  0  0  0  0  0  0  0  0  0  0  0
    4.7513   -8.9982    0.0000 H   0  0  0  0  0  0  0  0  0  0  0  0
    1.9758   -1.8925    0.0000 H   0  0  0  0  0  0  0  0  0  0  0  0
    2.4110   -0.9150    0.0000 H   0  0  0  0  0  0  0  0  0  0  0  0
    8.2995   -4.8026    0.0000 H   0  0  0  0  0  0  0  0  0  0  0  0
    8.1877   -5.8667    0.0000 H   0  0  0  0  0  0  0  0  0  0  0  0
    7.8651   -0.0713    0.0000 H   0  0  0  0  0  0  0  0  0  0  0  0
    8.7307   -0.7003    0.0000 H   0  0  0  0  0  0  0  0  0  0  0  0
    5.4294    2.1916    0.0000 H   0  0  0  0  0  0  0  0  0  0  0  0
    6.4760    1.9692    0.0000 H   0  0  0  0  0  0  0  0  0  0  0  0
    3.9684   -2.2125    0.0000 H   0  0  0  0  0  0  0  0  0  0  0  0
    3.6378   -3.2302    0.0000 H   0  0  0  0  0  0  0  0  0  0  0  0
   -7.9180    2.0830    0.0000 H   0  0  0  0  0  0  0  0  0  0  0  0
   -8.7639    2.7381    0.0000 H   0  0  0  0  0  0  0  0  0  0  0  0
    2.8571    2.3248    0.0000 H   0  0  0  0  0  0  0  0  0  0  0  0
    3.7837    1.7898    0.0000 H   0  0  0  0  0  0  0  0  0  0  0  0
   -3.4188    4.9243    0.0000 H   0  0  0  0  0  0  0  0  0  0  0  0
   -2.5728    4.2692    0.0000 H   0  0  0  0  0  0  0  0  0  0  0  0
   -3.9000    4.2149    0.0000 H   0  0  0  0  0  0  0  0  0  0  0  0
   -2.7853    4.3027    0.0000 H   0  0  0  0  0  0  0  0  0  0  0  0
   -0.4916    2.5946    0.0000 H   0  0  0  0  0  0  0  0  0  0  0  0
   -1.3948    3.1492    0.0000 H   0  0  0  0  0  0  0  0  0  0  0  0
   -4.4117   10.6936    0.0000 H   0  0  0  0  0  0  0  0  0  0  0  0
   -6.1623   10.9319    0.0000 H   0  0  0  0  0  0  0  0  0  0  0  0
   -5.8546   -1.1403    0.0000 H   0  0  0  0  0  0  0  0  0  0  0  0
   -0.2341    4.5337    0.0000 H   0  0  0  0  0  0  0  0  0  0  0  0
   -3.5699   -7.5043    0.0000 H   0  0  0  0  0  0  0  0  0  0  0  0
   -2.3399   -5.0809    0.0000 H   0  0  0  0  0  0  0  0  0  0  0  0
   -3.7193   -6.0833    0.0000 H   0  0  0  0  0  0  0  0  0  0  0  0
   -1.0516  -10.9706    0.0000 H   0  0  0  0  0  0  0  0  0  0  0  0
   -2.5352   -8.6936    0.0000 H   0  0  0  0  0  0  0  0  0  0  0  0
   -2.3569  -10.3894    0.0000 H   0  0  0  0  0  0  0  0  0  0  0  0
   -9.2999    8.8435    0.0000 H   0  0  0  0  0  0  0  0  0  0  0  0
   -6.7354    9.7432    0.0000 H   0  0  0  0  0  0  0  0  0  0  0  0
   -8.4250    9.9733    0.0000 H   0  0  0  0  0  0  0  0  0  0  0  0
    5.6709  -10.2639    0.0000 H   0  0  0  0  0  0  0  0  0  0  0  0
    2.9570  -10.4102    0.0000 H   0  0  0  0  0  0  0  0  0  0  0  0
    4.5147  -11.1039    0.0000 H   0  0  0  0  0  0  0  0  0  0  0  0
    2.0093    0.8654    0.0000 H   0  0  0  0  0  0  0  0  0  0  0  0
    4.6356    0.1657    0.0000 H   0  0  0  0  0  0  0  0  0  0  0  0
    3.3685    1.3069    0.0000 H   0  0  0  0  0  0  0  0  0  0  0  0
    9.4533   -6.7864    0.0000 H   0  0  0  0  0  0  0  0  0  0  0  0
    6.9176   -7.7642    0.0000 H   0  0  0  0  0  0  0  0  0  0  0  0
    8.6135   -7.9423    0.0000 H   0  0  0  0  0  0  0  0  0  0  0  0
   10.1600   -0.0639    0.0000 H   0  0  0  0  0  0  0  0  0  0  0  0
    9.7390   -2.7488    0.0000 H   0  0  0  0  0  0  0  0  0  0  0  0
   10.7412   -1.3692    0.0000 H   0  0  0  0  0  0  0  0  0  0  0  0
    7.5230    3.1318    0.0000 H   0  0  0  0  0  0  0  0  0  0  0  0
    8.2304    0.5078    0.0000 H   0  0  0  0  0  0  0  0  0  0  0  0
    8.5848    2.1758    0.0000 H   0  0  0  0  0  0  0  0  0  0  0  0
    1.5352   -5.0294    0.0000 H   0  0  0  0  0  0  0  0  0  0  0  0
    2.1929   -5.5058    0.0000 H   0  0  0  0  0  0  0  0  0  0  0  0
    3.8609   -5.1514    0.0000 H   0  0  0  0  0  0  0  0  0  0  0  0
  -10.2120    2.1458    0.0000 H   0  0  0  0  0  0  0  0  0  0  0  0
   -9.7090    4.8166    0.0000 H   0  0  0  0  0  0  0  0  0  0  0  0
  -10.7530    3.4684    0.0000 H   0  0  0  0  0  0  0  0  0  0  0  0
    5.0005   -0.1422    0.0000 H   0  0  0  0  0  0  0  0  0  0  0  0
    5.1386    2.5720    0.0000 H   0  0  0  0  0  0  0  0  0  0  0  0
    3.4334    2.5720    0.0000 H   0  0  0  0  0  0  0  0  0  0  0  0
   -0.8560   -7.3580    0.0000 H   0  0  0  0  0  0  0  0  0  0  0  0
   -1.3792   -7.8537    0.0000 H   0  0  0  0  0  0  0  0  0  0  0  0
   -6.1944    8.4206    0.0000 H   0  0  0  0  0  0  0  0  0  0  0  0
    2.8077   -8.9892    0.0000 H   0  0  0  0  0  0  0  0  0  0  0  0
    4.3586   -1.0787    0.0000 H   0  0  0  0  0  0  0  0  0  0  0  0
    6.3364   -6.4588    0.0000 H   0  0  0  0  0  0  0  0  0  0  0  0
    8.3177   -2.5995    0.0000 H   0  0  0  0  0  0  0  0  0  0  0  0
    6.8714    0.0662    0.0000 H   0  0  0  0  0  0  0  0  0  0  0  0
    1.6878   -3.1167    0.0000 H   0  0  0  0  0  0  0  0  0  0  0  0
   -8.2931    4.6238    0.0000 H   0  0  0  0  0  0  0  0  0  0  0  0
    3.5716   -0.1422    0.0000 H   0  0  0  0  0  0  0  0  0  0  0  0
   -0.6432   -2.7887    0.0000 H   0  0  0  0  0  0  0  0  0  0  0  0
   -3.5730   -2.5696    0.0000 H   0  0  0  0  0  0  0  0  0  0  0  0
   -2.7548    3.6522    0.0000 H   0  0  0  0  0  0  0  0  0  0  0  0
    2.7333   -6.2210    0.0000 H   0  0  0  0  0  0  0  0  0  0  0  0
   -4.7343    4.2815    0.0000 H   0  0  0  0  0  0  0  0  0  0  0  0
    2.4358   -8.4074    0.0000 H   0  0  0  0  0  0  0  0  0  0  0  0
    5.1948   -5.9623    0.0000 H   0  0  0  0  0  0  0  0  0  0  0  0
    4.5507   -2.2571    0.0000 H   0  0  0  0  0  0  0  0  0  0  0  0
    7.6713   -2.8423    0.0000 H   0  0  0  0  0  0  0  0  0  0  0  0
    5.8532    0.3650    0.0000 H   0  0  0  0  0  0  0  0  0  0  0  0
    4.6155    0.1598    0.0000 H   0  0  0  0  0  0  0  0  0  0  0  0
    0.0943   -1.5751    0.0000 H   0  0  0  0  0  0  0  0  0  0  0  0
   -3.9784    3.8187    0.0000 H   0  0  0  0  0  0  0  0  0  0  0  0
   -4.7116    5.1675    0.0000 H   0  0  0  0  0  0  0  0  0  0  0  0
    0.8108    2.5483    0.0000 H   0  0  0  0  0  0  0  0  0  0  0  0
   -5.8135    1.3108    0.0000 H   0  0  0  0  0  0  0  0  0  0  0  0
   -3.1996    4.2419    0.0000 H   0  0  0  0  0  0  0  0  0  0  0  0
   -2.9556   -0.4512    0.0000 H   0  0  0  0  0  0  0  0  0  0  0  0
   -1.0276    5.0256    0.0000 H   0  0  0  0  0  0  0  0  0  0  0  0
  1180  1  0  0  0  0
  1181  1  0  0  0  0
  1182  1  0  0  0  0
  2183  1  0  0  0  0
  2184  1  0  0  0  0
  3  2  1  0  0  0  0
  3185  1  0  0  0  0
  3186  1  0  0  0  0
  4187  1  0  0  0  0
  4188  1  0  0  0  0
  5189  1  0  0  0  0
  5190  1  0  0  0  0
  6191  1  0  0  0  0
  6192  1  0  0  0  0
  7193  1  0  0  0  0
  7194  1  0  0  0  0
  8195  1  0  0  0  0
  8196  1  0  0  0  0
  9197  1  0  0  0  0
  9198  1  0  0  0  0
 10199  1  0  0  0  0
 10200  1  0  0  0  0
 11201  1  0  0  0  0
 11202  1  0  0  0  0
 12203  1  0  0  0  0
 12204  1  0  0  0  0
 13205  1  0  0  0  0
 13206  1  0  0  0  0
 14207  1  0  0  0  0
 14208  1  0  0  0  0
 15  2  1  0  0  0  0
 15209  1  0  0  0  0
 15210  1  0  0  0  0
 16  4  1  0  0  0  0
 16211  1  0  0  0  0
 16212  1  0  0  0  0
 17  5  1  0  0  0  0
 17213  1  0  0  0  0
 17214  1  0  0  0  0
 18  6  1  0  0  0  0
 18215  1  0  0  0  0
 18216  1  0  0  0  0
 19  7  1  0  0  0  0
 19217  1  0  0  0  0
 19218  1  0  0  0  0
 20  8  1  0  0  0  0
 20219  1  0  0  0  0
 20220  1  0  0  0  0
 21  9  1  0  0  0  0
 21221  1  0  0  0  0
 21222  1  0  0  0  0
 22 10  1  0  0  0  0
 22223  1  0  0  0  0
 22224  1  0  0  0  0
 23 11  1  0  0  0  0
 23225  1  0  0  0  0
 23226  1  0  0  0  0
 24 12  1  0  0  0  0
 24227  1  0  0  0  0
 24228  1  0  0  0  0
 25 13  1  0  0  0  0
 25229  1  0  0  0  0
 25230  1  0  0  0  0
 26 14  1  0  0  0  0
 26231  1  0  0  0  0
 26232  1  0  0  0  0
 27233  1  0  0  0  0
 27234  1  0  0  0  0
 28 27  1  0  0  0  0
 28235  1  0  0  0  0
 28236  1  0  0  0  0
 29  3  1  0  0  0  0
 29237  1  0  0  0  0
 29238  1  0  0  0  0
 30  4  1  0  0  0  0
 30239  1  0  0  0  0
 30240  1  0  0  0  0
 31  5  1  0  0  0  0
 31241  1  0  0  0  0
 31242  1  0  0  0  0
 32  6  1  0  0  0  0
 32243  1  0  0  0  0
 32244  1  0  0  0  0
 33  7  1  0  0  0  0
 33245  1  0  0  0  0
 33246  1  0  0  0  0
 34  8  1  0  0  0  0
 34247  1  0  0  0  0
 34248  1  0  0  0  0
 35  9  1  0  0  0  0
 35249  1  0  0  0  0
 35250  1  0  0  0  0
 36 10  1  0  0  0  0
 36251  1  0  0  0  0
 36252  1  0  0  0  0
 37 11  1  0  0  0  0
 37253  1  0  0  0  0
 37254  1  0  0  0  0
 38 12  1  0  0  0  0
 38255  1  0  0  0  0
 38256  1  0  0  0  0
 39 13  1  0  0  0  0
 39257  1  0  0  0  0
 39258  1  0  0  0  0
 40 14  1  0  0  0  0
 40259  1  0  0  0  0
 40260  1  0  0  0  0
 41261  1  0  0  0  0
 41262  1  0  0  0  0
 42263  1  0  0  0  0
 42264  1  0  0  0  0
 43265  1  0  0  0  0
 43266  1  0  0  0  0
 44  1  1  0  0  0  0
 45 16  1  0  0  0  0
 45 63  1  0  0  0  0
 45126  1  0  0  0  0
 45164  1  6  0  0  0
 46 15  1  0  0  0  0
 46 73  1  0  0  0  0
 46127  1  0  0  0  0
 46165  1  1  0  0  0
 47 17  1  0  0  0  0
 47 65  1  0  0  0  0
 47128  1  0  0  0  0
 47166  1  6  0  0  0
 48 18  1  0  0  0  0
 48 64  1  0  0  0  0
 48135  1  0  0  0  0
 48167  1  1  0  0  0
 49 19  1  0  0  0  0
 49 66  1  0  0  0  0
 49129  1  0  0  0  0
 49168  1  6  0  0  0
 50 20  1  0  0  0  0
 50 67  1  0  0  0  0
 50130  1  0  0  0  0
 50169  1  1  0  0  0
 51 21  1  0  0  0  0
 51 68  1  0  0  0  0
 51131  1  0  0  0  0
 51170  1  6  0  0  0
 52 22  1  0  0  0  0
 52 69  1  0  0  0  0
 52132  1  0  0  0  0
 52171  1  6  0  0  0
 53 23  1  0  0  0  0
 53 70  1  0  0  0  0
 53133  1  0  0  0  0
 53172  1  6  0  0  0
 54 24  1  0  0  0  0
 54 71  1  0  0  0  0
 54134  1  0  0  0  0
 54173  1  1  0  0  0
 55 25  1  0  0  0  0
 55 72  1  0  0  0  0
 55137  1  0  0  0  0
 55174  1  1  0  0  0
 56 26  1  0  0  0  0
 56 74  1  0  0  0  0
 56136  1  0  0  0  0
 56175  1  6  0  0  0
 57 27  1  0  0  0  0
 57 75  1  0  0  0  0
 57138  1  0  0  0  0
 57176  1  1  0  0  0
 58 41  1  0  0  0  0
 58 78  1  0  0  0  0
 58139  1  0  0  0  0
 58177  1  6  0  0  0
 59 42  1  0  0  0  0
 59 76  1  0  0  0  0
 59141  1  0  0  0  0
 59178  1  6  0  0  0
 60 43  1  0  0  0  0
 60 77  1  0  0  0  0
 60140  1  0  0  0  0
 60179  1  6  0  0  0
 61 28  1  0  0  0  0
 62 41  1  0  0  0  0
 63145  1  0  0  0  0
 64146  1  0  0  0  0
 65147  1  0  0  0  0
 66148  1  0  0  0  0
 67149  1  0  0  0  0
 68150  1  0  0  0  0
 69151  1  0  0  0  0
 70152  1  0  0  0  0
 71153  1  0  0  0  0
 72154  1  0  0  0  0
 73155  1  0  0  0  0
 74156  1  0  0  0  0
 75157  1  0  0  0  0
 76158  1  0  0  0  0
 77159  1  0  0  0  0
 90 29  1  0  0  0  0
 90267  1  0  0  0  0
 90268  1  0  0  0  0
 91 61  2  0  0  0  0
 91269  1  0  0  0  0
 92 62  2  0  0  0  0
 92270  1  0  0  0  0
 93 79  2  0  0  0  0
 93271  1  0  0  0  0
 94 79  1  0  0  0  0
 94272  1  0  0  0  0
 94273  1  0  0  0  0
 95 80  2  0  0  0  0
 95274  1  0  0  0  0
 96 80  1  0  0  0  0
 96275  1  0  0  0  0
 96276  1  0  0  0  0
 97 81  2  0  0  0  0
 97277  1  0  0  0  0
 98 81  1  0  0  0  0
 98278  1  0  0  0  0
 98279  1  0  0  0  0
 99 82  2  0  0  0  0
 99280  1  0  0  0  0
100 82  1  0  0  0  0
100281  1  0  0  0  0
100282  1  0  0  0  0
101 83  2  0  0  0  0
101283  1  0  0  0  0
102 83  1  0  0  0  0
102284  1  0  0  0  0
102285  1  0  0  0  0
103 84  2  0  0  0  0
103286  1  0  0  0  0
104 84  1  0  0  0  0
104287  1  0  0  0  0
104288  1  0  0  0  0
105 85  2  0  0  0  0
105289  1  0  0  0  0
106 85  1  0  0  0  0
106290  1  0  0  0  0
106291  1  0  0  0  0
107 86  2  0  0  0  0
107292  1  0  0  0  0
108 86  1  0  0  0  0
108293  1  0  0  0  0
108294  1  0  0  0  0
109 87  2  0  0  0  0
109295  1  0  0  0  0
110 87  1  0  0  0  0
110296  1  0  0  0  0
110297  1  0  0  0  0
111 88  2  0  0  0  0
111298  1  0  0  0  0
112 88  1  0  0  0  0
112299  1  0  0  0  0
112300  1  0  0  0  0
113 89  2  0  0  0  0
113301  1  0  0  0  0
114 89  1  0  0  0  0
114302  1  0  0  0  0
114303  1  0  0  0  0
115 30  1  0  0  0  0
115 79  1  0  0  0  0
115304  1  0  0  0  0
116 31  1  0  0  0  0
116 80  1  0  0  0  0
116305  1  0  0  0  0
117 32  1  0  0  0  0
117 81  1  0  0  0  0
117306  1  0  0  0  0
118 33  1  0  0  0  0
118 82  1  0  0  0  0
118307  1  0  0  0  0
119 34  1  0  0  0  0
119 83  1  0  0  0  0
119308  1  0  0  0  0
120 35  1  0  0  0  0
120 84  1  0  0  0  0
120309  1  0  0  0  0
121 36  1  0  0  0  0
121 85  1  0  0  0  0
121310  1  0  0  0  0
122 37  1  0  0  0  0
122 86  1  0  0  0  0
122311  1  0  0  0  0
123 38  1  0  0  0  0
123 87  1  0  0  0  0
123312  1  0  0  0  0
124 39  1  0  0  0  0
124 88  1  0  0  0  0
124313  1  0  0  0  0
125 40  1  0  0  0  0
125 89  1  0  0  0  0
125314  1  0  0  0  0
126 44  2  3  0  0  0
127 64  2  3  0  0  0
128 63  2  3  0  0  0
129 65  2  3  0  0  0
130 66  2  3  0  0  0
131 67  2  3  0  0  0
132 68  2  3  0  0  0
133 69  2  3  0  0  0
134 70  2  3  0  0  0
135 72  2  3  0  0  0
136 71  2  3  0  0  0
137 76  2  3  0  0  0
138 77  2  3  0  0  0
139 73  2  3  0  0  0
140 74  2  3  0  0  0
141 75  2  3  0  0  0
142 44  1  0  0  0  0
142315  1  0  0  0  0
143 61  1  0  0  0  0
143316  1  0  0  0  0
144 62  1  0  0  0  0
144317  1  0  0  0  0
145318  1  0  0  0  0
146319  1  0  0  0  0
147320  1  0  0  0  0
148321  1  0  0  0  0
149322  1  0  0  0  0
150323  1  0  0  0  0
151324  1  0  0  0  0
152325  1  0  0  0  0
153326  1  0  0  0  0
154327  1  0  0  0  0
155328  1  0  0  0  0
156329  1  0  0  0  0
157330  1  0  0  0  0
158331  1  0  0  0  0
159332  1  0  0  0  0
160 78  2  0  0  0  0
161 78  1  0  0  0  0
161333  1  0  0  0  0
162 42  1  0  0  0  0
163 43  1  0  0  0  0
163162  1  0  0  0  0
M  END
>  <DRUGBANK_ID>
DB15008

>  <COMMON_NAME>
GO-203-2C

>  <CAS_NUMBER>
1469735-88-3

>  <UNII>
5YSY733NA3

>  <SYNONYMS>
Acetyl-D-arginyl-D-arginyl-D-arginyl-D-arginyl-D-arginyl-D-arginyl-D-arginyl-D-arginyl-D-arginyl-D-cysteinyl-D-glutaminyl-D-cysteinyl-D-arginyl-D-arginyl-D-lysyl-dasparaginylamide disulfide

$$$$
