
 OpenBabel10282417072D

 67 72  0  0  1  0  0  0  0  0999 V2000
   -3.4712    4.3808    0.0000 C   0  0  0  0  0  0  0  0  0  0  0  0
   -3.8837    3.6664    0.0000 C   0  0  0  0  0  0  0  0  0  0  0  0
   -2.6462    4.3808    0.0000 C   0  0  0  0  0  0  0  0  0  0  0  0
    1.6003    4.0591    0.0000 C   0  0  0  0  0  0  0  0  0  0  0  0
    3.3523    1.1104    0.0000 C   0  0  0  0  0  0  0  0  0  0  0  0
    1.8552    3.2744    0.0000 C   0  0  0  0  0  0  0  0  0  0  0  0
    3.3523    1.9354    0.0000 C   0  0  0  0  0  0  0  0  0  0  0  0
   -1.4087    2.2374    0.0000 C   0  0  0  0  0  0  0  0  0  0  0  0
   -3.4712    2.9519    0.0000 C   0  0  0  0  0  0  0  0  0  0  0  0
   -2.2337    3.6664    0.0000 C   0  0  0  0  0  0  0  0  0  0  0  0
   -2.2337    2.2374    0.0000 C   0  0  0  0  0  0  0  0  0  0  0  0
    0.7933    4.2306    0.0000 C   0  0  0  0  0  0  0  0  0  0  0  0
    2.6378    0.6979    0.0000 C   0  0  0  0  0  0  0  0  0  0  0  0
    1.3032    2.6613    0.0000 C   0  0  0  0  0  0  0  0  0  0  0  0
    2.6378    2.3479    0.0000 C   0  0  0  0  0  0  0  0  0  0  0  0
   -1.6001    0.6979    0.0000 C   0  0  0  0  0  0  0  0  0  0  0  0
   -0.8857   -0.5396    0.0000 C   0  0  0  0  0  0  0  0  0  0  0  0
   -2.3146    0.2854    0.0000 C   0  0  0  0  0  0  0  0  0  0  0  0
   -1.6001   -0.9521    0.0000 C   0  0  0  0  0  0  0  0  0  0  0  0
   -0.9962    1.5229    0.0000 C   0  0  0  0  0  0  0  0  0  0  0  0
   -0.1712    0.6979    0.0000 C   0  0  0  0  0  0  0  0  0  0  0  0
   -2.6462    2.9519    0.0000 C   0  0  0  0  0  0  0  0  0  0  0  0
   -0.8857    0.2854    0.0000 C   0  0  0  0  0  0  0  0  0  0  0  0
   -2.3146   -0.5396    0.0000 C   0  0  0  0  0  0  0  0  0  0  0  0
    0.2413    3.6175    0.0000 C   0  0  0  0  0  0  0  0  0  0  0  0
    1.9233    1.1104    0.0000 C   0  0  0  0  0  0  0  0  0  0  0  0
    0.4962    2.8329    0.0000 C   0  0  0  0  0  0  0  0  0  0  0  0
    1.9233    1.9354    0.0000 C   0  0  0  0  0  0  0  0  0  0  0  0
    0.6538    1.5229    0.0000 C   0  0  0  0  0  0  0  0  0  0  0  0
   -0.1712    1.5229    0.0000 C   0  0  1  0  0  0  0  0  0  0  0  0
   -3.0291   -0.9521    0.0000 C   0  0  0  0  0  0  0  0  0  0  0  0
   -3.4416   -0.2376    0.0000 F   0  0  0  0  0  0  0  0  0  0  0  0
   -2.6166   -1.6665    0.0000 F   0  0  0  0  0  0  0  0  0  0  0  0
    1.1387    0.8555    0.0000 N   0  0  0  0  0  0  0  0  0  0  0  0
   -0.5837    3.6175    0.0000 N   0  0  0  0  0  0  0  0  0  0  0  0
   -0.8386    2.8329    0.0000 N   0  0  0  0  0  0  0  0  0  0  0  0
   -0.1712    2.3479    0.0000 N   0  0  0  0  0  0  0  0  0  0  0  0
   -4.4580   -1.7771    0.0000 O   0  0  0  0  0  0  0  0  0  0  0  0
   -4.1561   -0.6501    0.0000 O   0  0  0  0  0  0  0  0  0  0  0  0
   -3.3311   -2.0790    0.0000 O   0  0  0  0  0  0  0  0  0  0  0  0
   -3.7436   -1.3646    0.0000 P   0  0  0  0  0  0  0  0  0  0  0  0
    1.1387    2.1904    0.0000 S   0  0  0  0  0  0  0  0  0  0  0  0
   -0.9962    2.9519    0.0000 H   0  0  0  0  0  0  0  0  0  0  0  0
   -2.6462    1.5229    0.0000 H   0  0  0  0  0  0  0  0  0  0  0  0
   -3.9872    5.2745    0.0000 H   0  0  0  0  0  0  0  0  0  0  0  0
   -4.9157    3.6664    0.0000 H   0  0  0  0  0  0  0  0  0  0  0  0
   -2.1302    5.2745    0.0000 H   0  0  0  0  0  0  0  0  0  0  0  0
    2.2909    4.8260    0.0000 H   0  0  0  0  0  0  0  0  0  0  0  0
    4.2460    0.5944    0.0000 H   0  0  0  0  0  0  0  0  0  0  0  0
    2.8646    3.0598    0.0000 H   0  0  0  0  0  0  0  0  0  0  0  0
    4.2460    2.4514    0.0000 H   0  0  0  0  0  0  0  0  0  0  0  0
   -3.9872    2.0582    0.0000 H   0  0  0  0  0  0  0  0  0  0  0  0
   -1.2017    3.6664    0.0000 H   0  0  0  0  0  0  0  0  0  0  0  0
    0.4744    5.2121    0.0000 H   0  0  0  0  0  0  0  0  0  0  0  0
    2.6378   -0.3341    0.0000 H   0  0  0  0  0  0  0  0  0  0  0  0
    1.6221    1.6798    0.0000 H   0  0  0  0  0  0  0  0  0  0  0  0
    2.6378    3.3799    0.0000 H   0  0  0  0  0  0  0  0  0  0  0  0
   -1.6001    1.7299    0.0000 H   0  0  0  0  0  0  0  0  0  0  0  0
    0.0080   -1.0556    0.0000 H   0  0  0  0  0  0  0  0  0  0  0  0
   -3.2083    0.8014    0.0000 H   0  0  0  0  0  0  0  0  0  0  0  0
   -1.6001   -1.9841    0.0000 H   0  0  0  0  0  0  0  0  0  0  0  0
   -1.5312    0.5963    0.0000 H   0  0  0  0  0  0  0  0  0  0  0  0
   -0.4612    0.5963    0.0000 H   0  0  0  0  0  0  0  0  0  0  0  0
    0.7554    0.1629    0.0000 H   0  0  0  0  0  0  0  0  0  0  0  0
    0.7554    1.2329    0.0000 H   0  0  0  0  0  0  0  0  0  0  0  0
   -5.2981   -1.2921    0.0000 H   0  0  0  0  0  0  0  0  0  0  0  0
   -3.6711    0.1899    0.0000 H   0  0  0  0  0  0  0  0  0  0  0  0
  1 45  1  0  0  0  0
  2  1  2  0  0  0  0
  2 46  1  0  0  0  0
  3  1  1  0  0  0  0
  3 47  1  0  0  0  0
  4 48  1  0  0  0  0
  5 49  1  0  0  0  0
  6  4  2  0  0  0  0
  6 50  1  0  0  0  0
  7  5  2  0  0  0  0
  7 51  1  0  0  0  0
  9  2  1  0  0  0  0
  9 52  1  0  0  0  0
 10  3  2  0  0  0  0
 10 53  1  0  0  0  0
 11  8  2  0  0  0  0
 12  4  1  0  0  0  0
 12 54  1  0  0  0  0
 13  5  1  0  0  0  0
 13 55  1  0  0  0  0
 14  6  1  0  0  0  0
 14 56  1  0  0  0  0
 15  7  1  0  0  0  0
 15 57  1  0  0  0  0
 16 58  1  0  0  0  0
 17 59  1  0  0  0  0
 18 16  1  0  0  0  0
 18 60  1  0  0  0  0
 19 17  2  0  0  0  0
 19 61  1  0  0  0  0
 20  8  1  0  0  0  0
 20 62  1  0  0  0  0
 20 63  1  0  0  0  0
 21 64  1  0  0  0  0
 21 65  1  0  0  0  0
 22  9  2  0  0  0  0
 22 10  1  0  0  0  0
 22 11  1  0  0  0  0
 23 16  2  0  0  0  0
 23 17  1  0  0  0  0
 23 21  1  0  0  0  0
 24 18  2  0  0  0  0
 24 19  1  0  0  0  0
 25 12  2  0  0  0  0
 26 13  2  0  0  0  0
 27 14  2  0  0  0  0
 27 25  1  0  0  0  0
 28 15  2  0  0  0  0
 28 26  1  0  0  0  0
 30 20  1  6  0  0  0
 30 21  1  0  0  0  0
 30 29  1  0  0  0  0
 30 37  1  0  0  0  0
 31 24  1  0  0  0  0
 32 31  1  0  0  0  0
 33 31  1  0  0  0  0
 34 26  1  0  0  0  0
 34 29  2  0  0  0  0
 35 25  1  0  0  0  0
 36 35  2  0  0  0  0
 37 27  1  0  0  0  0
 37 36  1  0  0  0  0
 38 66  1  0  0  0  0
 39 67  1  0  0  0  0
 41 31  1  0  0  0  0
 41 38  1  0  0  0  0
 41 39  1  0  0  0  0
 41 40  2  0  0  0  0
 42 28  1  0  0  0  0
 42 29  1  0  0  0  0
 43  8  1  0  0  0  0
 44 11  1  0  0  0  0
M  END
>  <DRUGBANK_ID>
DB04285

>  <SECONDARY_ACCESSION_NUMBERS>
EXPT02484

>  <COMMON_NAME>
{4-[(2s,4e)-2-(1,3-Benzothiazol-2-Yl)-2-(1h-1,2,3-Benzotriazol-1-Yl)-5-Phenylpent-4-Enyl]Phenyl}(Difluoro)Methylphosphonic Acid

$$$$
