1162
 OpenBabel10282417072D

 53 56  0  0  1  0  0  0  0  0999 V2000
    2.8695    0.3387    0.0000 O   0  0  0  0  0  0  0  0  0  0  0  0
    3.6703    2.3967    0.0000 O   0  0  0  0  0  0  0  0  0  0  0  0
   10.1551    0.3540    0.0000 O   0  0  0  0  0  0  0  0  0  0  0  0
   10.1551   -1.3358    0.0000 O   0  0  0  0  0  0  0  0  0  0  0  0
    4.3847    1.1592    0.0000 N   0  0  0  0  0  0  0  0  0  0  0  0
    5.8137    0.3341    0.0000 N   0  0  0  0  0  0  0  0  0  0  0  0
    7.2427    0.3341    0.0000 N   0  0  0  0  0  0  0  0  0  0  0  0
    6.5282   -0.9034    0.0000 N   0  0  0  0  0  0  0  0  0  0  0  0
    7.2427   -2.1409    0.0000 N   0  0  0  0  0  0  0  0  0  0  0  0
    2.9558    1.1592    0.0000 C   0  0  3  0  0  0  0  0  0  0  0  0
    5.0993    1.5717    0.0000 C   0  0  0  0  0  0  0  0  0  0  0  0
    4.3847    0.3341    0.0000 C   0  0  0  0  0  0  0  0  0  0  0  0
    5.8137    1.1592    0.0000 C   0  0  0  0  0  0  0  0  0  0  0  0
    5.0993   -0.0784    0.0000 C   0  0  0  0  0  0  0  0  0  0  0  0
    2.2021    1.4947    0.0000 C   0  0  0  0  0  0  0  0  0  0  0  0
    3.6703    1.5717    0.0000 C   0  0  0  0  0  0  0  0  0  0  0  0
    1.6500    0.8816    0.0000 C   0  0  0  0  0  0  0  0  0  0  0  0
    2.0625    0.1671    0.0000 C   0  0  0  0  0  0  0  0  0  0  0  0
    6.5282   -0.0784    0.0000 C   0  0  0  0  0  0  0  0  0  0  0  0
    7.9572   -0.0784    0.0000 C   0  0  0  0  0  0  0  0  0  0  0  0
    7.9572   -0.9034    0.0000 C   0  0  0  0  0  0  0  0  0  0  0  0
    7.2427   -1.3159    0.0000 C   0  0  0  0  0  0  0  0  0  0  0  0
    8.6947    0.3628    0.0000 C   0  0  0  0  0  0  0  0  0  0  0  0
    8.6947   -1.3445    0.0000 C   0  0  0  0  0  0  0  0  0  0  0  0
    9.4423   -0.0612    0.0000 C   0  0  0  0  0  0  0  0  0  0  0  0
    9.4423   -0.9206    0.0000 C   0  0  0  0  0  0  0  0  0  0  0  0
   10.1519    1.1790    0.0000 C   0  0  0  0  0  0  0  0  0  0  0  0
   10.8712   -0.9261    0.0000 C   0  0  0  0  0  0  0  0  0  0  0  0
    6.3901   -2.6331    0.0000 H   0  0  0  0  0  0  0  0  0  0  0  0
    8.0953   -2.6331    0.0000 H   0  0  0  0  0  0  0  0  0  0  0  0
    2.0292    0.6242    0.0000 H   0  0  0  0  0  0  0  0  0  0  0  0
    5.0994    2.6417    0.0000 H   0  0  0  0  0  0  0  0  0  0  0  0
    6.0260    2.1067    0.0000 H   0  0  0  0  0  0  0  0  0  0  0  0
    3.4581   -0.2009    0.0000 H   0  0  0  0  0  0  0  0  0  0  0  0
    4.3848   -0.7359    0.0000 H   0  0  0  0  0  0  0  0  0  0  0  0
    6.7404    1.6942    0.0000 H   0  0  0  0  0  0  0  0  0  0  0  0
    5.8137    2.2292    0.0000 H   0  0  0  0  0  0  0  0  0  0  0  0
    5.0994   -1.1484    0.0000 H   0  0  0  0  0  0  0  0  0  0  0  0
    4.1727   -0.6135    0.0000 H   0  0  0  0  0  0  0  0  0  0  0  0
    1.9796    2.5413    0.0000 H   0  0  0  0  0  0  0  0  0  0  0  0
    1.1686    1.7717    0.0000 H   0  0  0  0  0  0  0  0  0  0  0  0
    0.5859    0.9935    0.0000 H   0  0  0  0  0  0  0  0  0  0  0  0
    1.0672   -0.0158    0.0000 H   0  0  0  0  0  0  0  0  0  0  0  0
    1.6273   -0.8104    0.0000 H   0  0  0  0  0  0  0  0  0  0  0  0
    0.9940    0.1111    0.0000 H   0  0  0  0  0  0  0  0  0  0  0  0
    8.6827    1.3947    0.0000 H   0  0  0  0  0  0  0  0  0  0  0  0
    8.6827   -2.3764    0.0000 H   0  0  0  0  0  0  0  0  0  0  0  0
   11.0765    1.7176    0.0000 H   0  0  0  0  0  0  0  0  0  0  0  0
    9.2232    1.7104    0.0000 H   0  0  0  0  0  0  0  0  0  0  0  0
   10.1477    2.2490    0.0000 H   0  0  0  0  0  0  0  0  0  0  0  0
   11.7957   -1.4647    0.0000 H   0  0  0  0  0  0  0  0  0  0  0  0
   10.8754    0.1439    0.0000 H   0  0  0  0  0  0  0  0  0  0  0  0
   11.7999   -0.3947    0.0000 H   0  0  0  0  0  0  0  0  0  0  0  0
  1 10  1  0  0  0  0
  1 18  1  0  0  0  0
  2 16  2  0  0  0  0
  3 25  1  0  0  0  0
  3 27  1  0  0  0  0
  4 26  1  0  0  0  0
  4 28  1  0  0  0  0
  5 11  1  0  0  0  0
  5 12  1  0  0  0  0
  5 16  1  0  0  0  0
  6 13  1  0  0  0  0
  6 14  1  0  0  0  0
  6 19  1  0  0  0  0
  7 19  2  0  0  0  0
  7 20  1  0  0  0  0
  8 19  1  0  0  0  0
  8 22  2  0  0  0  0
  9 22  1  0  0  0  0
  9 29  1  0  0  0  0
  9 30  1  0  0  0  0
 10 15  1  0  0  0  0
 10 16  1  0  0  0  0
 10 31  1  0  0  0  0
 11 13  1  0  0  0  0
 11 32  1  0  0  0  0
 11 33  1  0  0  0  0
 12 14  1  0  0  0  0
 12 34  1  0  0  0  0
 12 35  1  0  0  0  0
 13 36  1  0  0  0  0
 13 37  1  0  0  0  0
 14 38  1  0  0  0  0
 14 39  1  0  0  0  0
 15 17  1  0  0  0  0
 15 40  1  0  0  0  0
 15 41  1  0  0  0  0
 17 18  1  0  0  0  0
 17 42  1  0  0  0  0
 17 43  1  0  0  0  0
 18 44  1  0  0  0  0
 18 45  1  0  0  0  0
 20 21  1  0  0  0  0
 20 23  2  0  0  0  0
 21 22  1  0  0  0  0
 21 24  2  0  0  0  0
 23 25  1  0  0  0  0
 23 46  1  0  0  0  0
 24 26  1  0  0  0  0
 24 47  1  0  0  0  0
 25 26  2  0  0  0  0
 27 48  1  0  0  0  0
 27 49  1  0  0  0  0
 27 50  1  0  0  0  0
 28 51  1  0  0  0  0
 28 52  1  0  0  0  0
 28 53  1  0  0  0  0
M  END
>  <DRUGBANK_ID>
DB01162

>  <SECONDARY_ACCESSION_NUMBERS>
APRD00667

>  <COMMON_NAME>
Terazosin

>  <CAS_NUMBER>
63590-64-7

>  <UNII>
8L5014XET7

>  <SYNONYMS>
1-(4-Amino-6,7-dimethoxy-2-quinazolinyl)-4-((tetrahydro-2-furanyl)carbonyl)piperazine; Terazosin; Terazosina; Terazosine; TÃ©razosine; Terazosinum

$$$$
