
 OpenBabel10282417072D

 35 36  0  0  0  0  0  0  0  0999 V2000
   -0.7145    1.6500    0.0000 C   0  0  0  0  0  0  0  0  0  0  0  0
   -0.7145    0.8250    0.0000 C   0  0  0  0  0  0  0  0  0  0  0  0
    0.0000    2.0625    0.0000 O   0  0  0  0  0  0  0  0  0  0  0  0
   -1.4289    2.0625    0.0000 N   0  0  0  0  0  0  0  0  0  0  0  0
   -2.1434    1.6500    0.0000 O   0  0  0  0  0  0  0  0  0  0  0  0
    0.0000    0.4125    0.0000 S   0  0  3  0  0  0  0  0  0  0  0  0
    0.7144    0.8250    0.0000 O   0  0  0  0  0  0  0  0  0  0  0  0
    0.0000   -0.4125    0.0000 C   0  0  0  0  0  0  0  0  0  0  0  0
    0.7144   -0.8250    0.0000 C   0  0  0  0  0  0  0  0  0  0  0  0
    1.4289   -0.4125    0.0000 C   0  0  0  0  0  0  0  0  0  0  0  0
    2.1434   -0.8250    0.0000 C   0  0  0  0  0  0  0  0  0  0  0  0
    2.1434   -1.6500    0.0000 C   0  0  0  0  0  0  0  0  0  0  0  0
    1.4289   -2.0625    0.0000 C   0  0  0  0  0  0  0  0  0  0  0  0
    0.7144   -1.6500    0.0000 C   0  0  0  0  0  0  0  0  0  0  0  0
   -0.7145   -0.8250    0.0000 C   0  0  0  0  0  0  0  0  0  0  0  0
   -0.7145   -1.6500    0.0000 C   0  0  0  0  0  0  0  0  0  0  0  0
   -1.4289   -2.0625    0.0000 C   0  0  0  0  0  0  0  0  0  0  0  0
   -2.1434   -1.6500    0.0000 C   0  0  0  0  0  0  0  0  0  0  0  0
   -2.1434   -0.8250    0.0000 C   0  0  0  0  0  0  0  0  0  0  0  0
   -1.4289   -0.4125    0.0000 C   0  0  0  0  0  0  0  0  0  0  0  0
   -1.6411    0.2900    0.0000 H   0  0  0  0  0  0  0  0  0  0  0  0
   -0.7145   -0.2450    0.0000 H   0  0  0  0  0  0  0  0  0  0  0  0
   -1.4289    3.0470    0.0000 H   0  0  0  0  0  0  0  0  0  0  0  0
   -2.9834    2.1350    0.0000 H   0  0  0  0  0  0  0  0  0  0  0  0
   -0.9266    0.1225    0.0000 H   0  0  0  0  0  0  0  0  0  0  0  0
    1.4289    0.6195    0.0000 H   0  0  0  0  0  0  0  0  0  0  0  0
    3.0371   -0.3090    0.0000 H   0  0  0  0  0  0  0  0  0  0  0  0
    3.0371   -2.1660    0.0000 H   0  0  0  0  0  0  0  0  0  0  0  0
    1.4289   -3.0945    0.0000 H   0  0  0  0  0  0  0  0  0  0  0  0
   -0.1793   -2.1660    0.0000 H   0  0  0  0  0  0  0  0  0  0  0  0
    0.1792   -2.1660    0.0000 H   0  0  0  0  0  0  0  0  0  0  0  0
   -1.4289   -3.0945    0.0000 H   0  0  0  0  0  0  0  0  0  0  0  0
   -3.0371   -2.1660    0.0000 H   0  0  0  0  0  0  0  0  0  0  0  0
   -3.0371   -0.3090    0.0000 H   0  0  0  0  0  0  0  0  0  0  0  0
   -1.4289    0.6195    0.0000 H   0  0  0  0  0  0  0  0  0  0  0  0
  1  2  1  0  0  0  0
  1  3  2  0  0  0  0
  1  4  1  0  0  0  0
  2  6  1  0  0  0  0
  2 21  1  0  0  0  0
  2 22  1  0  0  0  0
  4  5  1  0  0  0  0
  4 23  1  0  0  0  0
  5 24  1  0  0  0  0
  6  7  2  0  0  0  0
  6  8  1  0  0  0  0
  8  9  1  0  0  0  0
  8 15  1  0  0  0  0
  8 25  1  0  0  0  0
  9 10  1  0  0  0  0
  9 14  2  0  0  0  0
 10 11  2  0  0  0  0
 10 26  1  0  0  0  0
 11 12  1  0  0  0  0
 11 27  1  0  0  0  0
 12 13  2  0  0  0  0
 12 28  1  0  0  0  0
 13 14  1  0  0  0  0
 13 29  1  0  0  0  0
 14 30  1  0  0  0  0
 15 16  1  0  0  0  0
 15 20  2  0  0  0  0
 16 17  2  0  0  0  0
 16 31  1  0  0  0  0
 17 18  1  0  0  0  0
 17 32  1  0  0  0  0
 18 19  2  0  0  0  0
 18 33  1  0  0  0  0
 19 20  1  0  0  0  0
 19 34  1  0  0  0  0
 20 35  1  0  0  0  0
M  END
>  <DRUGBANK_ID>
DB08925

>  <COMMON_NAME>
Adrafinil

>  <CAS_NUMBER>
63547-13-7

>  <UNII>
BI81Z4542G

>  <SYNONYMS>
Adrafinil; Adrafinilum

$$$$
