157
 OpenBabel10282417072D

 73 77  0  0  1  0  0  0  0  0999 V2000
    6.9922    1.8744    0.0000 P   0  0  1  0  0  0  0  0  0  0  0  0
    8.4135    2.0213    0.0000 P   0  0  2  0  0  0  0  0  0  0  0  0
    4.9010    0.4187    0.0000 O   0  0  0  0  0  0  0  0  0  0  0  0
   11.3032    2.2426    0.0000 O   0  0  0  0  0  0  0  0  0  0  0  0
    3.8647    2.2851    0.0000 O   0  0  0  0  0  0  0  0  0  0  0  0
    2.8071    0.8348    0.0000 O   0  0  0  0  0  0  0  0  0  0  0  0
   10.2050    0.4119    0.0000 O   0  0  0  0  0  0  0  0  0  0  0  0
   11.9898    0.2212    0.0000 O   0  0  0  0  0  0  0  0  0  0  0  0
    6.3238    1.3906    0.0000 O   0  0  0  0  0  0  0  0  0  0  0  0
    9.1667    1.6844    0.0000 O   0  0  0  0  0  0  0  0  0  0  0  0
    7.6604    2.3582    0.0000 O   0  0  0  0  0  0  0  0  0  0  0  0
    7.4759    1.2061    0.0000 O   0  0  0  0  0  0  0  0  0  0  0  0
    8.7504    2.7744    0.0000 O   0  0  0  0  0  0  0  0  0  0  0  0
    6.5084    2.5427    0.0000 O   0  0  0  0  0  0  0  0  0  0  0  0
    8.0766    1.2682    0.0000 O   0  0  0  0  0  0  0  0  0  0  0  0
   14.3756    0.0175    0.0000 O   0  0  0  0  0  0  0  0  0  0  0  0
    3.8597   -0.6191    0.0000 N   0  0  0  0  0  0  0  0  0  0  0  0
   12.7226    1.8597    0.0000 N   0  0  0  0  0  0  0  0  0  0  0  0
    3.8597   -1.9469    0.0000 N   0  0  0  0  0  0  0  0  0  0  0  0
    2.3645   -0.4580    0.0000 N   0  0  0  0  0  0  0  0  0  0  0  0
    1.6500   -1.6955    0.0000 N   0  0  0  0  0  0  0  0  0  0  0  0
    2.3645   -2.9330    0.0000 N   0  0  0  0  0  0  0  0  0  0  0  0
   15.4392    0.9718    0.0000 N   0  0  0  0  0  0  0  0  0  0  0  0
    4.1182    1.5000    0.0000 C   0  0  1  0  0  0  0  0  0  0  0  0
    3.6321    0.8334    0.0000 C   0  0  2  0  0  0  0  0  0  0  0  0
    4.9025    1.2437    0.0000 C   0  0  1  0  0  0  0  0  0  0  0  0
    4.1159    0.1652    0.0000 C   0  0  1  0  0  0  0  0  0  0  0  0
   10.7582    1.0241    0.0000 C   0  0  1  0  0  0  0  0  0  0  0  0
   11.5785    0.9364    0.0000 C   0  0  2  0  0  0  0  0  0  0  0  0
   10.5880    1.8314    0.0000 C   0  0  1  0  0  0  0  0  0  0  0  0
   11.9154    1.6895    0.0000 C   0  0  1  0  0  0  0  0  0  0  0  0
    5.5707    1.7275    0.0000 C   0  0  0  0  0  0  0  0  0  0  0  0
    9.8349    2.1682    0.0000 C   0  0  0  0  0  0  0  0  0  0  0  0
    3.0790   -0.8705    0.0000 C   0  0  0  0  0  0  0  0  0  0  0  0
   13.2737    1.2456    0.0000 C   0  0  0  0  0  0  0  0  0  0  0  0
    4.3411   -1.2830    0.0000 C   0  0  0  0  0  0  0  0  0  0  0  0
   12.9790    2.6438    0.0000 C   0  0  0  0  0  0  0  0  0  0  0  0
    3.0790   -1.6955    0.0000 C   0  0  0  0  0  0  0  0  0  0  0  0
   14.0809    1.4157    0.0000 C   0  0  0  0  0  0  0  0  0  0  0  0
   14.3372    2.1999    0.0000 C   0  0  0  0  0  0  0  0  0  0  0  0
   13.7862    2.8140    0.0000 C   0  0  0  0  0  0  0  0  0  0  0  0
    2.3645   -2.1080    0.0000 C   0  0  0  0  0  0  0  0  0  0  0  0
   14.6319    0.8017    0.0000 C   0  0  0  0  0  0  0  0  0  0  0  0
    1.6500   -0.8705    0.0000 C   0  0  0  0  0  0  0  0  0  0  0  0
    4.5151    3.0048    0.0000 H   0  0  0  0  0  0  0  0  0  0  0  0
    2.3235    1.6757    0.0000 H   0  0  0  0  0  0  0  0  0  0  0  0
    9.2566    0.6153    0.0000 H   0  0  0  0  0  0  0  0  0  0  0  0
   11.5034   -0.6180    0.0000 H   0  0  0  0  0  0  0  0  0  0  0  0
    7.0798    0.3207    0.0000 H   0  0  0  0  0  0  0  0  0  0  0  0
    9.7153    2.8741    0.0000 H   0  0  0  0  0  0  0  0  0  0  0  0
    1.5119   -3.4253    0.0000 H   0  0  0  0  0  0  0  0  0  0  0  0
    3.2171   -3.4252    0.0000 H   0  0  0  0  0  0  0  0  0  0  0  0
   16.0967    0.2390    0.0000 H   0  0  0  0  0  0  0  0  0  0  0  0
   15.7451    1.9076    0.0000 H   0  0  0  0  0  0  0  0  0  0  0  0
    3.0617    1.6693    0.0000 H   0  0  0  0  0  0  0  0  0  0  0  0
    3.1480    1.7876    0.0000 H   0  0  0  0  0  0  0  0  0  0  0  0
    5.8550    0.7563    0.0000 H   0  0  0  0  0  0  0  0  0  0  0  0
    4.8712   -0.5927    0.0000 H   0  0  0  0  0  0  0  0  0  0  0  0
   11.1399    0.0245    0.0000 H   0  0  0  0  0  0  0  0  0  0  0  0
   10.9942    0.0400    0.0000 H   0  0  0  0  0  0  0  0  0  0  0  0
   10.5339    2.9000    0.0000 H   0  0  0  0  0  0  0  0  0  0  0  0
   12.1941    2.7226    0.0000 H   0  0  0  0  0  0  0  0  0  0  0  0
    5.4607    2.7918    0.0000 H   0  0  0  0  0  0  0  0  0  0  0  0
    4.5939    2.1643    0.0000 H   0  0  0  0  0  0  0  0  0  0  0  0
    9.7248    3.2325    0.0000 H   0  0  0  0  0  0  0  0  0  0  0  0
   10.7016    2.7957    0.0000 H   0  0  0  0  0  0  0  0  0  0  0  0
   12.9531    0.2647    0.0000 H   0  0  0  0  0  0  0  0  0  0  0  0
    5.3731   -1.2830    0.0000 H   0  0  0  0  0  0  0  0  0  0  0  0
   12.2898    3.4119    0.0000 H   0  0  0  0  0  0  0  0  0  0  0  0
   15.3842    2.4205    0.0000 H   0  0  0  0  0  0  0  0  0  0  0  0
   14.6696    3.2170    0.0000 H   0  0  0  0  0  0  0  0  0  0  0  0
   14.1068    3.7950    0.0000 H   0  0  0  0  0  0  0  0  0  0  0  0
    0.7563   -0.3545    0.0000 H   0  0  0  0  0  0  0  0  0  0  0  0
  1  9  1  0  0  0  0
  1 11  1  0  0  0  0
  1 12  1  0  0  0  0
  1 14  2  6  0  0  0
  2 10  1  0  0  0  0
  2 11  1  0  0  0  0
  2 13  1  0  0  0  0
  2 15  2  1  0  0  0
  3 26  1  0  0  0  0
  3 27  1  0  0  0  0
  4 30  1  0  0  0  0
  4 31  1  0  0  0  0
  5 45  1  0  0  0  0
  6 46  1  0  0  0  0
  7 47  1  0  0  0  0
  8 48  1  0  0  0  0
  9 32  1  0  0  0  0
 10 33  1  0  0  0  0
 12 49  1  0  0  0  0
 13 50  1  0  0  0  0
 16 43  2  0  0  0  0
 17 34  1  0  0  0  0
 17 36  1  0  0  0  0
 18 35  1  0  0  0  0
 18 37  1  0  0  0  0
 19 36  2  0  0  0  0
 19 38  1  0  0  0  0
 20 34  2  0  0  0  0
 20 44  1  0  0  0  0
 21 42  1  0  0  0  0
 21 44  2  0  0  0  0
 22 42  1  0  0  0  0
 22 51  1  0  0  0  0
 22 52  1  0  0  0  0
 23 43  1  0  0  0  0
 23 53  1  0  0  0  0
 23 54  1  0  0  0  0
 24  5  1  0  0  0  0
 24 25  1  0  0  0  0
 24 26  1  0  0  0  0
 24 55  1  1  0  0  0
 25  6  1  0  0  0  0
 25 27  1  0  0  0  0
 25 56  1  1  0  0  0
 26 32  1  0  0  0  0
 26 57  1  6  0  0  0
 27 17  1  0  0  0  0
 27 58  1  6  0  0  0
 28  7  1  0  0  0  0
 28 29  1  0  0  0  0
 28 30  1  0  0  0  0
 28 59  1  1  0  0  0
 29  8  1  0  0  0  0
 29 31  1  0  0  0  0
 29 60  1  1  0  0  0
 30 33  1  0  0  0  0
 30 61  1  6  0  0  0
 31 18  1  0  0  0  0
 31 62  1  6  0  0  0
 32 63  1  0  0  0  0
 32 64  1  0  0  0  0
 33 65  1  0  0  0  0
 33 66  1  0  0  0  0
 34 38  1  0  0  0  0
 35 39  2  0  0  0  0
 35 67  1  0  0  0  0
 36 68  1  0  0  0  0
 37 41  2  0  0  0  0
 37 69  1  0  0  0  0
 38 42  2  0  0  0  0
 39 40  1  0  0  0  0
 39 43  1  0  0  0  0
 40 41  1  0  0  0  0
 40 70  1  0  0  0  0
 40 71  1  0  0  0  0
 41 72  1  0  0  0  0
 44 73  1  0  0  0  0
M  END
>  <DRUGBANK_ID>
DB00157

>  <SECONDARY_ACCESSION_NUMBERS>
NUTR00041; DB01907; EXPT02287; DB03527

>  <COMMON_NAME>
NADH

>  <CAS_NUMBER>
58-68-4

>  <UNII>
4J24DQ0916

>  <SYNONYMS>
1,4-dihydronicotinamide adenine dinucleotide; DPNH; NAD reduced form; Nicotinamide adenine dinucleotide (reduced); Nicotinamide-adenine dinucleotide, reduced; Reduced nicotinamide adenine diphosphate; Reduced nicotinamide-adenine dinucleotide

$$$$
