
 OpenBabel10282417072D

 49 51  0  0  0  0  0  0  0  0999 V2000
    1.1018   -4.4409    0.0000 C   0  0  0  0  0  0  0  0  0  0  0  0
    1.1018   -3.6159    0.0000 C   0  0  0  0  0  0  0  0  0  0  0  0
    1.9268   -3.6159    0.0000 C   0  0  0  0  0  0  0  0  0  0  0  0
    0.2768   -3.6159    0.0000 C   0  0  0  0  0  0  0  0  0  0  0  0
    1.1018   -2.7909    0.0000 N   0  0  0  0  0  0  0  0  0  0  0  0
    0.3873   -2.3784    0.0000 C   0  0  0  0  0  0  0  0  0  0  0  0
    0.3873   -1.5534    0.0000 C   0  0  0  0  0  0  0  0  0  0  0  0
    1.1018   -1.1409    0.0000 C   0  0  0  0  0  0  0  0  0  0  0  0
    1.8163   -1.5534    0.0000 C   0  0  0  0  0  0  0  0  0  0  0  0
    1.8163   -2.3784    0.0000 C   0  0  0  0  0  0  0  0  0  0  0  0
    0.5083   -0.5678    0.0000 C   0  0  0  0  0  0  0  0  0  0  0  0
   -0.2847   -0.7952    0.0000 C   0  0  0  0  0  0  0  0  0  0  0  0
   -0.8782   -0.2221    0.0000 C   0  0  0  0  0  0  0  0  0  0  0  0
   -0.6786    0.5783    0.0000 C   0  0  0  0  0  0  0  0  0  0  0  0
    0.1145    0.8057    0.0000 C   0  0  0  0  0  0  0  0  0  0  0  0
    0.7079    0.2327    0.0000 C   0  0  0  0  0  0  0  0  0  0  0  0
    1.4891   -0.4125    0.0000 C   0  0  0  0  0  0  0  0  0  0  0  0
    1.0519    0.2871    0.0000 C   0  0  0  0  0  0  0  0  0  0  0  0
    1.4392    1.0156    0.0000 C   0  0  0  0  0  0  0  0  0  0  0  0
    2.2637    1.0444    0.0000 C   0  0  0  0  0  0  0  0  0  0  0  0
    2.7009    0.3447    0.0000 C   0  0  0  0  0  0  0  0  0  0  0  0
    2.3136   -0.3837    0.0000 C   0  0  0  0  0  0  0  0  0  0  0  0
    0.1752   -4.9759    0.0000 H   0  0  0  0  0  0  0  0  0  0  0  0
    2.0284   -4.9759    0.0000 H   0  0  0  0  0  0  0  0  0  0  0  0
    1.1018   -5.5109    0.0000 H   0  0  0  0  0  0  0  0  0  0  0  0
    2.4618   -4.5425    0.0000 H   0  0  0  0  0  0  0  0  0  0  0  0
    2.4618   -2.6893    0.0000 H   0  0  0  0  0  0  0  0  0  0  0  0
    2.9968   -3.6159    0.0000 H   0  0  0  0  0  0  0  0  0  0  0  0
   -0.2582   -2.6893    0.0000 H   0  0  0  0  0  0  0  0  0  0  0  0
   -0.2582   -4.5425    0.0000 H   0  0  0  0  0  0  0  0  0  0  0  0
   -0.7932   -3.6159    0.0000 H   0  0  0  0  0  0  0  0  0  0  0  0
   -0.5393   -2.9134    0.0000 H   0  0  0  0  0  0  0  0  0  0  0  0
   -0.5393   -1.8434    0.0000 H   0  0  0  0  0  0  0  0  0  0  0  0
   -0.5393   -1.0184    0.0000 H   0  0  0  0  0  0  0  0  0  0  0  0
    0.3873   -0.4834    0.0000 H   0  0  0  0  0  0  0  0  0  0  0  0
    2.7429   -1.0184    0.0000 H   0  0  0  0  0  0  0  0  0  0  0  0
    2.7429   -2.0884    0.0000 H   0  0  0  0  0  0  0  0  0  0  0  0
    2.7429   -2.9134    0.0000 H   0  0  0  0  0  0  0  0  0  0  0  0
    1.8163   -3.4484    0.0000 H   0  0  0  0  0  0  0  0  0  0  0  0
   -0.5343   -1.7966    0.0000 H   0  0  0  0  0  0  0  0  0  0  0  0
   -1.8702   -0.5066    0.0000 H   0  0  0  0  0  0  0  0  0  0  0  0
   -1.4209    1.2952    0.0000 H   0  0  0  0  0  0  0  0  0  0  0  0
    0.3642    1.8070    0.0000 H   0  0  0  0  0  0  0  0  0  0  0  0
    1.6999    0.5172    0.0000 H   0  0  0  0  0  0  0  0  0  0  0  0
    0.0205    0.2510    0.0000 H   0  0  0  0  0  0  0  0  0  0  0  0
    0.8923    1.8908    0.0000 H   0  0  0  0  0  0  0  0  0  0  0  0
    2.7482    1.9556    0.0000 H   0  0  0  0  0  0  0  0  0  0  0  0
    3.7323    0.3807    0.0000 H   0  0  0  0  0  0  0  0  0  0  0  0
    2.8605   -1.2589    0.0000 H   0  0  0  0  0  0  0  0  0  0  0  0
  1  2  1  0  0  0  0
  1 23  1  0  0  0  0
  1 24  1  0  0  0  0
  1 25  1  0  0  0  0
  2  3  1  0  0  0  0
  2  4  1  0  0  0  0
  2  5  1  0  0  0  0
  3 26  1  0  0  0  0
  3 27  1  0  0  0  0
  3 28  1  0  0  0  0
  4 29  1  0  0  0  0
  4 30  1  0  0  0  0
  4 31  1  0  0  0  0
  5  6  1  0  0  0  0
  5 10  1  0  0  0  0
  6  7  1  0  0  0  0
  6 32  1  0  0  0  0
  6 33  1  0  0  0  0
  7  8  1  0  0  0  0
  7 34  1  0  0  0  0
  7 35  1  0  0  0  0
  8  9  1  0  0  0  0
  8 11  1  0  0  0  0
  8 17  1  0  0  0  0
  9 10  1  0  0  0  0
  9 36  1  0  0  0  0
  9 37  1  0  0  0  0
 10 38  1  0  0  0  0
 10 39  1  0  0  0  0
 11 12  2  0  0  0  0
 11 16  1  0  0  0  0
 12 13  1  0  0  0  0
 12 40  1  0  0  0  0
 13 14  2  0  0  0  0
 13 41  1  0  0  0  0
 14 15  1  0  0  0  0
 14 42  1  0  0  0  0
 15 16  2  0  0  0  0
 15 43  1  0  0  0  0
 16 44  1  0  0  0  0
 17 18  2  0  0  0  0
 17 22  1  0  0  0  0
 18 19  1  0  0  0  0
 18 45  1  0  0  0  0
 19 20  2  0  0  0  0
 19 46  1  0  0  0  0
 20 21  1  0  0  0  0
 20 47  1  0  0  0  0
 21 22  2  0  0  0  0
 21 48  1  0  0  0  0
 22 49  1  0  0  0  0
M  END
>  <DRUGBANK_ID>
DB13502

>  <COMMON_NAME>
Budipine

>  <CAS_NUMBER>
57982-78-2

>  <UNII>
L9026OPI2Z

>  <SYNONYMS>
Budipine

$$$$
