099
 OpenBabel10282417072D

 49 51  0  0  0  0  0  0  0  0999 V2000
    2.8281   -1.6539    0.0000 C   0  0  0  0  0  0  0  0  0  0  0  0
    1.2589   -2.1638    0.0000 C   0  0  0  0  0  0  0  0  0  0  0  0
   -0.2920    1.4540    0.0000 C   0  0  0  0  0  0  0  0  0  0  0  0
   -0.2920    2.8830    0.0000 C   0  0  0  0  0  0  0  0  0  0  0  0
   -1.5295    2.1685    0.0000 C   0  0  0  0  0  0  0  0  0  0  0  0
   -1.5295    0.7396    0.0000 C   0  0  0  0  0  0  0  0  0  0  0  0
   -1.1170    2.8830    0.0000 C   0  0  0  0  0  0  0  0  0  0  0  0
    1.4304   -1.3568    0.0000 C   0  0  0  0  0  0  0  0  0  0  0  0
   -0.2920    0.0251    0.0000 C   0  0  0  0  0  0  0  0  0  0  0  0
   -1.1170    0.0251    0.0000 C   0  0  1  0  0  0  0  0  0  0  0  0
    2.6566   -2.4609    0.0000 C   0  0  0  0  0  0  0  0  0  0  0  0
    1.8720   -2.7158    0.0000 C   0  0  0  0  0  0  0  0  0  0  0  0
    0.1205    2.1685    0.0000 C   0  0  0  0  0  0  0  0  0  0  0  0
    2.2150   -0.2769    0.0000 C   0  0  0  0  0  0  0  0  0  0  0  0
   -1.5295   -0.6894    0.0000 C   0  0  0  0  0  0  0  0  0  0  0  0
   -1.1170    1.4540    0.0000 C   0  0  0  0  0  0  0  0  0  0  0  0
    2.2150   -1.1019    0.0000 C   0  0  0  0  0  0  0  0  0  0  0  0
   -2.3545   -0.6894    0.0000 C   0  0  0  0  0  0  0  0  0  0  0  0
    1.4304   -0.0219    0.0000 C   0  0  2  0  0  0  0  0  0  0  0  0
    0.9455   -0.6894    0.0000 C   0  0  1  0  0  0  0  0  0  0  0  0
   -2.7670   -1.4038    0.0000 N   0  0  0  0  0  0  0  0  0  0  0  0
    0.1205   -0.6894    0.0000 N   0  0  0  0  0  0  0  0  0  0  0  0
   -1.5295    3.5975    0.0000 O   0  0  0  0  0  0  0  0  0  0  0  0
    1.1755    0.7627    0.0000 O   0  0  0  0  0  0  0  0  0  0  0  0
   -3.5920   -1.4038    0.0000 O   0  0  0  0  0  0  0  0  0  0  0  0
   -2.7670    0.0251    0.0000 O   0  0  0  0  0  0  0  0  0  0  0  0
    0.1205    0.7396    0.0000 O   0  0  0  0  0  0  0  0  0  0  0  0
   -0.8250    0.5308    0.0000 H   0  0  0  0  0  0  0  0  0  0  0  0
    1.8433    0.3910    0.0000 H   0  0  0  0  0  0  0  0  0  0  0  0
    0.6804   -1.2096    0.0000 H   0  0  0  0  0  0  0  0  0  0  0  0
    3.8096   -1.3350    0.0000 H   0  0  0  0  0  0  0  0  0  0  0  0
    0.2774   -2.4827    0.0000 H   0  0  0  0  0  0  0  0  0  0  0  0
    0.2240    0.5603    0.0000 H   0  0  0  0  0  0  0  0  0  0  0  0
    0.2240    3.7767    0.0000 H   0  0  0  0  0  0  0  0  0  0  0  0
   -2.5615    2.1685    0.0000 H   0  0  0  0  0  0  0  0  0  0  0  0
   -2.5995    0.7396    0.0000 H   0  0  0  0  0  0  0  0  0  0  0  0
   -2.0645    1.6663    0.0000 H   0  0  0  0  0  0  0  0  0  0  0  0
    3.4235   -3.1514    0.0000 H   0  0  0  0  0  0  0  0  0  0  0  0
    1.6574   -3.7252    0.0000 H   0  0  0  0  0  0  0  0  0  0  0  0
    1.1525    2.1685    0.0000 H   0  0  0  0  0  0  0  0  0  0  0  0
    3.0807    0.3520    0.0000 H   0  0  0  0  0  0  0  0  0  0  0  0
    2.0477    0.7799    0.0000 H   0  0  0  0  0  0  0  0  0  0  0  0
   -0.9945   -1.6160    0.0000 H   0  0  0  0  0  0  0  0  0  0  0  0
   -2.0645   -1.6160    0.0000 H   0  0  0  0  0  0  0  0  0  0  0  0
   -2.2748   -2.2564    0.0000 H   0  0  0  0  0  0  0  0  0  0  0  0
   -0.3718   -1.5420    0.0000 H   0  0  0  0  0  0  0  0  0  0  0  0
   -1.0610    4.4090    0.0000 H   0  0  0  0  0  0  0  0  0  0  0  0
    1.8246    1.4835    0.0000 H   0  0  0  0  0  0  0  0  0  0  0  0
   -4.0770   -0.5638    0.0000 H   0  0  0  0  0  0  0  0  0  0  0  0
  1 11  2  0  0  0  0
  1 17  1  0  0  0  0
  1 31  1  0  0  0  0
  2  8  1  0  0  0  0
  2 12  2  0  0  0  0
  2 32  1  0  0  0  0
  3 13  2  0  0  0  0
  3 16  1  0  0  0  0
  3 33  1  0  0  0  0
  4  7  2  0  0  0  0
  4 13  1  0  0  0  0
  4 34  1  0  0  0  0
  5  7  1  0  0  0  0
  5 16  2  0  0  0  0
  5 35  1  0  0  0  0
  6 10  1  0  0  0  0
  6 16  1  0  0  0  0
  6 36  1  0  0  0  0
  6 37  1  0  0  0  0
  7 23  1  0  0  0  0
  8 17  2  0  0  0  0
  8 20  1  0  0  0  0
  9 10  1  0  0  0  0
  9 22  1  0  0  0  0
  9 27  2  0  0  0  0
 10 15  1  0  0  0  0
 10 28  1  6  0  0  0
 11 12  1  0  0  0  0
 11 38  1  0  0  0  0
 12 39  1  0  0  0  0
 13 40  1  0  0  0  0
 14 17  1  0  0  0  0
 14 19  1  0  0  0  0
 14 41  1  0  0  0  0
 14 42  1  0  0  0  0
 15 18  1  0  0  0  0
 15 43  1  0  0  0  0
 15 44  1  0  0  0  0
 18 21  1  0  0  0  0
 18 26  2  0  0  0  0
 19 20  1  0  0  0  0
 19 24  1  0  0  0  0
 19 29  1  1  0  0  0
 20 22  1  0  0  0  0
 20 30  1  1  0  0  0
 21 25  1  0  0  0  0
 21 45  1  0  0  0  0
 22 46  1  0  0  0  0
 23 47  1  0  0  0  0
 24 48  1  0  0  0  0
 25 49  1  0  0  0  0
M  END
>  <DRUGBANK_ID>
DB06837

>  <COMMON_NAME>
(2R)-N~4~-hydroxy-2-(3-hydroxybenzyl)-N~1~-[(1S,2R)-2-hydroxy-2,3-dihydro-1H-inden-1-yl]butanediamide

$$$$
