
 OpenBabel10282417072D

 27 28  0  0  0  0  0  0  0  0999 V2000
    0.2184    0.4075    0.0000 C   0  0  2  0  0  0  0  0  0  0  0  0
    0.5997   -0.3838    0.0000 C   0  0  0  0  0  0  0  0  0  0  0  0
    0.2184   -1.2466    0.0000 C   0  0  1  0  0  0  0  0  0  0  0  0
   -0.4918   -0.8320    0.0000 C   0  0  1  0  0  0  0  0  0  0  0  0
   -0.4918   -0.0118    0.0000 C   0  0  0  0  0  0  0  0  0  0  0  0
   -1.2212    0.4075    0.0000 O   0  0  0  0  0  0  0  0  0  0  0  0
   -1.3960   -1.0767    0.0000 Br  0  0  0  0  0  0  0  0  0  0  0  0
    0.9289   -0.8320    0.0000 C   0  0  0  0  0  0  0  0  0  0  0  0
    0.9289   -0.0118    0.0000 C   0  0  0  0  0  0  0  0  0  0  0  0
    1.3960   -0.1120    0.0000 C   0  0  0  0  0  0  0  0  0  0  0  0
    1.3960   -0.6555    0.0000 C   0  0  0  0  0  0  0  0  0  0  0  0
    0.2184    1.2466    0.0000 C   0  0  0  0  0  0  0  0  0  0  0  0
   -0.1112   -0.2286    0.0000 H   0  0  0  0  0  0  0  0  0  0  0  0
   -0.6327   -1.8927    0.0000 H   0  0  0  0  0  0  0  0  0  0  0  0
    1.8568   -1.3649    0.0000 H   0  0  0  0  0  0  0  0  0  0  0  0
    1.8549   -0.2959    0.0000 H   0  0  0  0  0  0  0  0  0  0  0  0
    1.8581    0.5188    0.0000 H   0  0  0  0  0  0  0  0  0  0  0  0
    0.9366    1.0582    0.0000 H   0  0  0  0  0  0  0  0  0  0  0  0
    2.2017   -0.8161    0.0000 H   0  0  0  0  0  0  0  0  0  0  0  0
    1.6030    0.9378    0.0000 H   0  0  0  0  0  0  0  0  0  0  0  0
    2.4086    0.2336    0.0000 H   0  0  0  0  0  0  0  0  0  0  0  0
    1.6031   -1.7053    0.0000 H   0  0  0  0  0  0  0  0  0  0  0  0
    2.2016    0.0487    0.0000 H   0  0  0  0  0  0  0  0  0  0  0  0
    2.4087   -1.0010    0.0000 H   0  0  0  0  0  0  0  0  0  0  0  0
    1.1450    1.7816    0.0000 H   0  0  0  0  0  0  0  0  0  0  0  0
   -0.7082    1.7816    0.0000 H   0  0  0  0  0  0  0  0  0  0  0  0
    0.2184    2.3166    0.0000 H   0  0  0  0  0  0  0  0  0  0  0  0
  1  2  1  0  0  0  0
  1 12  1  1  0  0  0
  3  2  1  0  0  0  0
  3  4  1  0  0  0  0
  3 13  1  1  0  0  0
  4  5  1  0  0  0  0
  4  7  1  0  0  0  0
  4 14  1  1  0  0  0
  5  1  1  0  0  0  0
  6  5  2  0  0  0  0
  8  3  1  0  0  0  0
  8  9  1  0  0  0  0
  8 15  1  0  0  0  0
  8 16  1  0  0  0  0
  9  1  1  0  0  0  0
  9 17  1  0  0  0  0
  9 18  1  0  0  0  0
 10  2  1  0  0  0  0
 10 19  1  0  0  0  0
 10 20  1  0  0  0  0
 10 21  1  0  0  0  0
 11  2  1  0  0  0  0
 11 22  1  0  0  0  0
 11 23  1  0  0  0  0
 11 24  1  0  0  0  0
 12 25  1  0  0  0  0
 12 26  1  0  0  0  0
 12 27  1  0  0  0  0
M  END
>  <DRUGBANK_ID>
DB15915

>  <COMMON_NAME>
Camphor monobromide

>  <CAS_NUMBER>
76-29-9

>  <UNII>
NAY429URSN

>  <SYNONYMS>
3-Bromo-d-camphor; 3-Bromocamphor; Camphor bromide; Camphor, monobromated

$$$$
