FDI
 OpenBabel10282417072D

 41 41  0  0  0  0  0  0  0  0999 V2000
   -1.4283    1.6621    0.0000 C   0  0  0  0  0  0  0  0  0  0  0  0
   -0.7138    1.2496    0.0000 C   0  0  0  0  0  0  0  0  0  0  0  0
   -0.7138    0.4246    0.0000 C   0  0  0  0  0  0  0  0  0  0  0  0
   -1.4283    0.0121    0.0000 C   0  0  0  0  0  0  0  0  0  0  0  0
   -2.1427    0.4246    0.0000 C   0  0  0  0  0  0  0  0  0  0  0  0
   -2.1427    1.2496    0.0000 C   0  0  0  0  0  0  0  0  0  0  0  0
   -2.8572    0.0121    0.0000 C   0  0  0  0  0  0  0  0  0  0  0  0
   -3.5717    0.4246    0.0000 O   0  0  0  0  0  0  0  0  0  0  0  0
   -2.8572   -0.8129    0.0000 O   0  0  0  0  0  0  0  0  0  0  0  0
    0.0007    0.0121    0.0000 N   0  0  0  0  0  0  0  0  0  0  0  0
    0.0007   -0.8129    0.0000 C   0  0  0  0  0  0  0  0  0  0  0  0
    0.7152   -1.2254    0.0000 C   0  0  0  0  0  0  0  0  0  0  0  0
   -0.7138   -1.2254    0.0000 O   0  0  0  0  0  0  0  0  0  0  0  0
    0.7152   -2.0504    0.0000 C   0  0  0  0  0  0  0  0  0  0  0  0
    1.4296   -2.4629    0.0000 C   0  0  0  0  0  0  0  0  0  0  0  0
    1.4296   -0.8129    0.0000 C   0  0  0  0  0  0  0  0  0  0  0  0
    2.1441   -1.2254    0.0000 C   0  0  0  0  0  0  0  0  0  0  0  0
    0.0007    1.6621    0.0000 N   0  0  0  0  0  0  0  0  0  0  0  0
    0.0007    2.4871    0.0000 C   0  0  0  0  0  0  0  0  0  0  0  0
   -0.7138    2.8996    0.0000 C   0  0  0  0  0  0  0  0  0  0  0  0
    0.7152    2.8996    0.0000 O   0  0  0  0  0  0  0  0  0  0  0  0
   -1.4283    2.6941    0.0000 H   0  0  0  0  0  0  0  0  0  0  0  0
   -1.4283   -1.0199    0.0000 H   0  0  0  0  0  0  0  0  0  0  0  0
   -3.0364    1.7656    0.0000 H   0  0  0  0  0  0  0  0  0  0  0  0
   -3.5717    1.3616    0.0000 H   0  0  0  0  0  0  0  0  0  0  0  0
    0.8533    0.5044    0.0000 H   0  0  0  0  0  0  0  0  0  0  0  0
    1.6419   -1.7604    0.0000 H   0  0  0  0  0  0  0  0  0  0  0  0
   -0.2115   -2.5854    0.0000 H   0  0  0  0  0  0  0  0  0  0  0  0
    0.7152   -3.1204    0.0000 H   0  0  0  0  0  0  0  0  0  0  0  0
    1.4296   -3.5329    0.0000 H   0  0  0  0  0  0  0  0  0  0  0  0
    2.3563   -1.9279    0.0000 H   0  0  0  0  0  0  0  0  0  0  0  0
    2.3562   -2.9979    0.0000 H   0  0  0  0  0  0  0  0  0  0  0  0
    1.4296    0.2571    0.0000 H   0  0  0  0  0  0  0  0  0  0  0  0
    2.3562   -0.2779    0.0000 H   0  0  0  0  0  0  0  0  0  0  0  0
    2.1441   -2.2954    0.0000 H   0  0  0  0  0  0  0  0  0  0  0  0
    3.0707   -0.6904    0.0000 H   0  0  0  0  0  0  0  0  0  0  0  0
    3.0708   -1.7604    0.0000 H   0  0  0  0  0  0  0  0  0  0  0  0
    0.8533    1.1698    0.0000 H   0  0  0  0  0  0  0  0  0  0  0  0
   -0.7138    3.9696    0.0000 H   0  0  0  0  0  0  0  0  0  0  0  0
   -1.6404    2.3646    0.0000 H   0  0  0  0  0  0  0  0  0  0  0  0
   -1.6405    3.4346    0.0000 H   0  0  0  0  0  0  0  0  0  0  0  0
  1  2  2  0  0  0  0
  1  6  1  0  0  0  0
  1 22  1  0  0  0  0
  2  3  1  0  0  0  0
  2 18  1  0  0  0  0
  3  4  2  0  0  0  0
  3 10  1  0  0  0  0
  4  5  1  0  0  0  0
  4 23  1  0  0  0  0
  5  6  2  0  0  0  0
  5  7  1  0  0  0  0
  6 24  1  0  0  0  0
  7  8  1  0  0  0  0
  7  9  2  0  0  0  0
  8 25  1  0  0  0  0
 10 11  1  0  0  0  0
 10 26  1  0  0  0  0
 11 12  1  0  0  0  0
 11 13  2  0  0  0  0
 12 14  1  0  0  0  0
 12 16  1  0  0  0  0
 12 27  1  0  0  0  0
 14 15  1  0  0  0  0
 14 28  1  0  0  0  0
 14 29  1  0  0  0  0
 15 30  1  0  0  0  0
 15 31  1  0  0  0  0
 15 32  1  0  0  0  0
 16 17  1  0  0  0  0
 16 33  1  0  0  0  0
 16 34  1  0  0  0  0
 17 35  1  0  0  0  0
 17 36  1  0  0  0  0
 17 37  1  0  0  0  0
 18 19  1  0  0  0  0
 18 38  1  0  0  0  0
 19 20  1  0  0  0  0
 19 21  2  0  0  0  0
 20 39  1  0  0  0  0
 20 40  1  0  0  0  0
 20 41  1  0  0  0  0
M  END
>  <DRUGBANK_ID>
DB07762

>  <COMMON_NAME>
4-(N-ACETYLAMINO)-3-[N-(2-ETHYLBUTANOYLAMINO)]BENZOIC ACID

$$$$
