2BC
 OpenBabel10282417072D

 37 39  0  0  0  0  0  0  0  0999 V2000
    0.5115    0.3645    0.0000 C   0  0  0  0  0  0  0  0  0  0  0  0
    1.2260   -0.0480    0.0000 C   0  0  0  0  0  0  0  0  0  0  0  0
    1.9405    0.3645    0.0000 C   0  0  0  0  0  0  0  0  0  0  0  0
    2.6549   -0.0480    0.0000 C   0  0  0  0  0  0  0  0  0  0  0  0
    2.6549   -0.8730    0.0000 C   0  0  0  0  0  0  0  0  0  0  0  0
    1.9405   -1.2855    0.0000 C   0  0  0  0  0  0  0  0  0  0  0  0
    1.2260   -0.8730    0.0000 C   0  0  0  0  0  0  0  0  0  0  0  0
    0.5115   -1.2855    0.0000 C   0  0  0  0  0  0  0  0  0  0  0  0
   -0.2030   -0.8730    0.0000 C   0  0  0  0  0  0  0  0  0  0  0  0
   -0.2030   -0.0480    0.0000 C   0  0  0  0  0  0  0  0  0  0  0  0
   -0.9174    0.3645    0.0000 C   0  0  0  0  0  0  0  0  0  0  0  0
   -0.9174    1.1895    0.0000 O   0  0  0  0  0  0  0  0  0  0  0  0
   -1.6319   -0.0480    0.0000 N   0  0  0  0  0  0  0  0  0  0  0  0
   -2.3464    0.3645    0.0000 N   0  0  0  0  0  0  0  0  0  0  0  0
   -3.0608   -0.0480    0.0000 C   0  0  0  0  0  0  0  0  0  0  0  0
   -3.7753    0.3645    0.0000 C   0  0  0  0  0  0  0  0  0  0  0  0
   -4.4898   -0.0480    0.0000 C   0  0  0  0  0  0  0  0  0  0  0  0
   -5.2043    0.3645    0.0000 C   0  0  0  0  0  0  0  0  0  0  0  0
   -5.9187   -0.0480    0.0000 Br  0  0  0  0  0  0  0  0  0  0  0  0
   -5.2043    1.1895    0.0000 C   0  0  0  0  0  0  0  0  0  0  0  0
   -5.9187    1.6020    0.0000 O   0  0  0  0  0  0  0  0  0  0  0  0
   -4.4898    1.6020    0.0000 C   0  0  0  0  0  0  0  0  0  0  0  0
   -4.4898    2.4270    0.0000 Br  0  0  0  0  0  0  0  0  0  0  0  0
   -3.7753    1.1895    0.0000 C   0  0  0  0  0  0  0  0  0  0  0  0
   -3.0608    1.6020    0.0000 O   0  0  0  0  0  0  0  0  0  0  0  0
    0.5115    1.3965    0.0000 H   0  0  0  0  0  0  0  0  0  0  0  0
    1.9405    1.3965    0.0000 H   0  0  0  0  0  0  0  0  0  0  0  0
    3.5486    0.4680    0.0000 H   0  0  0  0  0  0  0  0  0  0  0  0
    3.5486   -1.3890    0.0000 H   0  0  0  0  0  0  0  0  0  0  0  0
    1.9405   -2.3175    0.0000 H   0  0  0  0  0  0  0  0  0  0  0  0
    0.5115   -2.3175    0.0000 H   0  0  0  0  0  0  0  0  0  0  0  0
   -1.0967   -1.3890    0.0000 H   0  0  0  0  0  0  0  0  0  0  0  0
   -1.6319   -1.0325    0.0000 H   0  0  0  0  0  0  0  0  0  0  0  0
   -3.0608   -1.0800    0.0000 H   0  0  0  0  0  0  0  0  0  0  0  0
   -4.4898   -1.0800    0.0000 H   0  0  0  0  0  0  0  0  0  0  0  0
   -5.9187    2.5390    0.0000 H   0  0  0  0  0  0  0  0  0  0  0  0
   -2.2493    1.1335    0.0000 H   0  0  0  0  0  0  0  0  0  0  0  0
  1  2  2  0  0  0  0
  1 10  1  0  0  0  0
  1 26  1  0  0  0  0
  2  3  1  0  0  0  0
  2  7  1  0  0  0  0
  3  4  2  0  0  0  0
  3 27  1  0  0  0  0
  4  5  1  0  0  0  0
  4 28  1  0  0  0  0
  5  6  2  0  0  0  0
  5 29  1  0  0  0  0
  6  7  1  0  0  0  0
  6 30  1  0  0  0  0
  7  8  2  0  0  0  0
  8  9  1  0  0  0  0
  8 31  1  0  0  0  0
  9 10  2  0  0  0  0
  9 32  1  0  0  0  0
 10 11  1  0  0  0  0
 11 12  2  0  0  0  0
 11 13  1  0  0  0  0
 13 14  1  0  0  0  0
 13 33  1  0  0  0  0
 14 15  2  0  0  0  0
 15 16  1  0  0  0  0
 15 34  1  0  0  0  0
 16 17  2  0  0  0  0
 16 24  1  0  0  0  0
 17 18  1  0  0  0  0
 17 35  1  0  0  0  0
 18 19  1  0  0  0  0
 18 20  2  0  0  0  0
 20 21  1  0  0  0  0
 20 22  1  0  0  0  0
 21 36  1  0  0  0  0
 22 23  1  0  0  0  0
 22 24  2  0  0  0  0
 24 25  1  0  0  0  0
 25 37  1  0  0  0  0
M  END
>  <DRUGBANK_ID>
DB06949

>  <COMMON_NAME>
N'-[(1E)-(3,5-dibromo-2,4-dihydroxyphenyl)methylidene]naphthalene-2-carbohydrazide

$$$$
