
 OpenBabel10282417072D

 91 93  0  0  1  0  0  0  0  0999 V2000
    2.1434   -2.0625    0.0000 C   0  0  0  0  0  0  0  0  0  0  0  0
    1.4289   -2.4750    0.0000 C   0  0  0  0  0  0  0  0  0  0  0  0
    0.7145   -2.0625    0.0000 O   0  0  0  0  0  0  0  0  0  0  0  0
    0.0000   -2.4750    0.0000 C   0  0  0  0  0  0  0  0  0  0  0  0
   -0.7145   -2.0625    0.0000 O   0  0  0  0  0  0  0  0  0  0  0  0
    0.0000   -3.3000    0.0000 N   0  0  0  0  0  0  0  0  0  0  0  0
    0.7145   -3.7125    0.0000 C   0  0  0  0  0  0  0  0  0  0  0  0
    0.7145   -4.5375    0.0000 C   0  0  0  0  0  0  0  0  0  0  0  0
    0.0000   -4.9500    0.0000 N   0  0  0  0  0  0  0  0  0  0  0  0
   -0.7145   -4.5375    0.0000 C   0  0  0  0  0  0  0  0  0  0  0  0
   -0.7145   -3.7125    0.0000 C   0  0  0  0  0  0  0  0  0  0  0  0
    0.0000   -5.7750    0.0000 C   0  0  0  0  0  0  0  0  0  0  0  0
   -0.7145   -6.1875    0.0000 O   0  0  0  0  0  0  0  0  0  0  0  0
    0.7145   -6.1875    0.0000 C   0  0  2  0  0  0  0  0  0  0  0  0
    0.7145   -7.0125    0.0000 C   0  0  0  0  0  0  0  0  0  0  0  0
   -0.0000   -7.4250    0.0000 C   0  0  0  0  0  0  0  0  0  0  0  0
   -0.0000   -8.2500    0.0000 C   0  0  0  0  0  0  0  0  0  0  0  0
   -0.7145   -8.6625    0.0000 C   0  0  0  0  0  0  0  0  0  0  0  0
   -1.4289   -8.2500    0.0000 C   0  0  0  0  0  0  0  0  0  0  0  0
   -1.4289   -7.4250    0.0000 C   0  0  0  0  0  0  0  0  0  0  0  0
   -0.7145   -7.0125    0.0000 C   0  0  0  0  0  0  0  0  0  0  0  0
   -2.1434   -7.0125    0.0000 C   0  0  0  0  0  0  0  0  0  0  0  0
   -2.1434   -6.1875    0.0000 N   0  0  0  0  0  0  0  0  0  0  0  0
   -1.4289   -5.7750    0.0000 O   0  0  0  0  0  0  0  0  0  0  0  0
   -2.8579   -7.4250    0.0000 N   0  0  0  0  0  0  0  0  0  0  0  0
    1.4289   -5.7750    0.0000 N   0  0  0  0  0  0  0  0  0  0  0  0
    2.1434   -6.1875    0.0000 S   0  0  0  0  0  0  0  0  0  0  0  0
    1.7309   -6.9020    0.0000 O   0  0  0  0  0  0  0  0  0  0  0  0
    2.5559   -5.4730    0.0000 O   0  0  0  0  0  0  0  0  0  0  0  0
    2.8579   -6.6000    0.0000 C   0  0  0  0  0  0  0  0  0  0  0  0
    3.5724   -6.1875    0.0000 C   0  0  0  0  0  0  0  0  0  0  0  0
    4.2868   -6.6000    0.0000 C   0  0  0  0  0  0  0  0  0  0  0  0
    4.2868   -7.4250    0.0000 C   0  0  0  0  0  0  0  0  0  0  0  0
    3.5724   -7.8375    0.0000 C   0  0  0  0  0  0  0  0  0  0  0  0
    2.8579   -7.4250    0.0000 C   0  0  0  0  0  0  0  0  0  0  0  0
    2.1434   -7.8375    0.0000 C   0  0  0  0  0  0  0  0  0  0  0  0
    1.4289   -7.4250    0.0000 C   0  0  0  0  0  0  0  0  0  0  0  0
    2.1434   -8.6625    0.0000 C   0  0  0  0  0  0  0  0  0  0  0  0
    5.0013   -7.8375    0.0000 C   0  0  0  0  0  0  0  0  0  0  0  0
    5.7158   -7.4250    0.0000 C   0  0  0  0  0  0  0  0  0  0  0  0
    5.0013   -8.6625    0.0000 C   0  0  0  0  0  0  0  0  0  0  0  0
    3.5724   -5.3625    0.0000 C   0  0  0  0  0  0  0  0  0  0  0  0
    4.2868   -4.9500    0.0000 C   0  0  0  0  0  0  0  0  0  0  0  0
    2.8579   -4.9500    0.0000 C   0  0  0  0  0  0  0  0  0  0  0  0
    3.0700   -2.5975    0.0000 H   0  0  0  0  0  0  0  0  0  0  0  0
    2.1434   -0.9925    0.0000 H   0  0  0  0  0  0  0  0  0  0  0  0
    3.0701   -1.5275    0.0000 H   0  0  0  0  0  0  0  0  0  0  0  0
    1.4289   -3.5450    0.0000 H   0  0  0  0  0  0  0  0  0  0  0  0
    0.5022   -3.0100    0.0000 H   0  0  0  0  0  0  0  0  0  0  0  0
    1.6411   -3.1775    0.0000 H   0  0  0  0  0  0  0  0  0  0  0  0
    1.6411   -4.2475    0.0000 H   0  0  0  0  0  0  0  0  0  0  0  0
    1.6411   -5.0725    0.0000 H   0  0  0  0  0  0  0  0  0  0  0  0
    0.7145   -5.6075    0.0000 H   0  0  0  0  0  0  0  0  0  0  0  0
   -1.6411   -5.0725    0.0000 H   0  0  0  0  0  0  0  0  0  0  0  0
   -1.6411   -4.0025    0.0000 H   0  0  0  0  0  0  0  0  0  0  0  0
   -1.6411   -3.1775    0.0000 H   0  0  0  0  0  0  0  0  0  0  0  0
   -0.7145   -2.6425    0.0000 H   0  0  0  0  0  0  0  0  0  0  0  0
    0.7145   -5.1175    0.0000 H   0  0  0  0  0  0  0  0  0  0  0  0
    1.6411   -7.5475    0.0000 H   0  0  0  0  0  0  0  0  0  0  0  0
    0.7145   -8.0825    0.0000 H   0  0  0  0  0  0  0  0  0  0  0  0
    0.8937   -8.7660    0.0000 H   0  0  0  0  0  0  0  0  0  0  0  0
   -0.7145   -9.6945    0.0000 H   0  0  0  0  0  0  0  0  0  0  0  0
   -2.3226   -8.7660    0.0000 H   0  0  0  0  0  0  0  0  0  0  0  0
   -0.7145   -5.9805    0.0000 H   0  0  0  0  0  0  0  0  0  0  0  0
   -0.6174   -6.2435    0.0000 H   0  0  0  0  0  0  0  0  0  0  0  0
   -3.7105   -6.9327    0.0000 H   0  0  0  0  0  0  0  0  0  0  0  0
   -2.8579   -8.4095    0.0000 H   0  0  0  0  0  0  0  0  0  0  0  0
    1.4289   -4.7550    0.0000 H   0  0  0  0  0  0  0  0  0  0  0  0
    5.1805   -6.0840    0.0000 H   0  0  0  0  0  0  0  0  0  0  0  0
    3.5724   -8.8695    0.0000 H   0  0  0  0  0  0  0  0  0  0  0  0
    1.2168   -8.3725    0.0000 H   0  0  0  0  0  0  0  0  0  0  0  0
    1.4289   -6.3550    0.0000 H   0  0  0  0  0  0  0  0  0  0  0  0
    0.5023   -7.9600    0.0000 H   0  0  0  0  0  0  0  0  0  0  0  0
    0.5022   -6.8900    0.0000 H   0  0  0  0  0  0  0  0  0  0  0  0
    1.2168   -9.1975    0.0000 H   0  0  0  0  0  0  0  0  0  0  0  0
    3.0700   -9.1975    0.0000 H   0  0  0  0  0  0  0  0  0  0  0  0
    2.1434   -9.7325    0.0000 H   0  0  0  0  0  0  0  0  0  0  0  0
    5.9279   -8.3725    0.0000 H   0  0  0  0  0  0  0  0  0  0  0  0
    6.6424   -7.9600    0.0000 H   0  0  0  0  0  0  0  0  0  0  0  0
    5.7158   -6.3550    0.0000 H   0  0  0  0  0  0  0  0  0  0  0  0
    6.6425   -6.8900    0.0000 H   0  0  0  0  0  0  0  0  0  0  0  0
    4.0747   -9.1975    0.0000 H   0  0  0  0  0  0  0  0  0  0  0  0
    5.9279   -9.1975    0.0000 H   0  0  0  0  0  0  0  0  0  0  0  0
    5.0013   -9.7325    0.0000 H   0  0  0  0  0  0  0  0  0  0  0  0
    3.5724   -4.2925    0.0000 H   0  0  0  0  0  0  0  0  0  0  0  0
    5.2135   -5.4850    0.0000 H   0  0  0  0  0  0  0  0  0  0  0  0
    4.2868   -3.8800    0.0000 H   0  0  0  0  0  0  0  0  0  0  0  0
    5.2134   -4.4150    0.0000 H   0  0  0  0  0  0  0  0  0  0  0  0
    2.8579   -3.8800    0.0000 H   0  0  0  0  0  0  0  0  0  0  0  0
    1.9313   -5.4850    0.0000 H   0  0  0  0  0  0  0  0  0  0  0  0
    1.9312   -4.4150    0.0000 H   0  0  0  0  0  0  0  0  0  0  0  0
  1  2  1  0  0  0  0
  1 45  1  0  0  0  0
  1 46  1  0  0  0  0
  1 47  1  0  0  0  0
  2  3  1  0  0  0  0
  2 48  1  0  0  0  0
  2 49  1  0  0  0  0
  3  4  1  0  0  0  0
  4  5  2  0  0  0  0
  4  6  1  0  0  0  0
  6  7  1  0  0  0  0
  6 11  1  0  0  0  0
  7  8  1  0  0  0  0
  7 50  1  0  0  0  0
  7 51  1  0  0  0  0
  8  9  1  0  0  0  0
  8 52  1  0  0  0  0
  8 53  1  0  0  0  0
  9 10  1  0  0  0  0
  9 12  1  0  0  0  0
 10 11  1  0  0  0  0
 10 54  1  0  0  0  0
 10 55  1  0  0  0  0
 11 56  1  0  0  0  0
 11 57  1  0  0  0  0
 12 13  2  0  0  0  0
 12 14  1  0  0  0  0
 14 15  1  0  0  0  0
 14 26  1  0  0  0  0
 14 58  1  6  0  0  0
 15 16  1  0  0  0  0
 15 59  1  0  0  0  0
 15 60  1  0  0  0  0
 16 17  2  0  0  0  0
 16 21  1  0  0  0  0
 17 18  1  0  0  0  0
 17 61  1  0  0  0  0
 18 19  2  0  0  0  0
 18 62  1  0  0  0  0
 19 20  1  0  0  0  0
 19 63  1  0  0  0  0
 20 21  2  0  0  0  0
 20 22  1  0  0  0  0
 21 64  1  0  0  0  0
 22 23  2  0  0  0  0
 22 25  1  0  0  0  0
 23 24  1  0  0  0  0
 24 65  1  0  0  0  0
 25 66  1  0  0  0  0
 25 67  1  0  0  0  0
 26 27  1  0  0  0  0
 26 68  1  0  0  0  0
 27 28  2  0  0  0  0
 27 29  2  0  0  0  0
 27 30  1  0  0  0  0
 30 31  2  0  0  0  0
 30 35  1  0  0  0  0
 31 32  1  0  0  0  0
 31 42  1  0  0  0  0
 32 33  2  0  0  0  0
 32 69  1  0  0  0  0
 33 34  1  0  0  0  0
 33 39  1  0  0  0  0
 34 35  2  0  0  0  0
 34 70  1  0  0  0  0
 35 36  1  0  0  0  0
 36 37  1  0  0  0  0
 36 38  1  0  0  0  0
 36 71  1  0  0  0  0
 37 72  1  0  0  0  0
 37 73  1  0  0  0  0
 37 74  1  0  0  0  0
 38 75  1  0  0  0  0
 38 76  1  0  0  0  0
 38 77  1  0  0  0  0
 39 40  1  0  0  0  0
 39 41  1  0  0  0  0
 39 78  1  0  0  0  0
 40 79  1  0  0  0  0
 40 80  1  0  0  0  0
 40 81  1  0  0  0  0
 41 82  1  0  0  0  0
 41 83  1  0  0  0  0
 41 84  1  0  0  0  0
 42 43  1  0  0  0  0
 42 44  1  0  0  0  0
 42 85  1  0  0  0  0
 43 86  1  0  0  0  0
 43 87  1  0  0  0  0
 43 88  1  0  0  0  0
 44 89  1  0  0  0  0
 44 90  1  0  0  0  0
 44 91  1  0  0  0  0
M  END
>  <DRUGBANK_ID>
DB13052

>  <SECONDARY_ACCESSION_NUMBERS>
DB05558

>  <COMMON_NAME>
Upamostat

>  <CAS_NUMBER>
1191101-18-4

>  <UNII>
S5M7KW6U17

>  <SYNONYMS>
Mesupron; Upamostat

$$$$
