4MF
 OpenBabel10282417072D

 40 42  0  0  0  0  0  0  0  0999 V2000
    0.5601   -3.3698    0.0000 O   0  0  0  0  0  0  0  0  0  0  0  0
    1.0897   -2.3303    0.0000 O   0  0  0  0  0  0  0  0  0  0  0  0
    0.3051   -2.5852    0.0000 P   0  0  0  0  0  0  0  0  0  0  0  0
   -0.4795   -2.8402    0.0000 O   0  0  0  0  0  0  0  0  0  0  0  0
    0.0502   -1.8006    0.0000 O   0  0  0  0  0  0  0  0  0  0  0  0
    0.6022   -1.1875    0.0000 C   0  0  0  0  0  0  0  0  0  0  0  0
    0.3473   -0.4029    0.0000 C   0  0  2  0  0  0  0  0  0  0  0  0
   -0.4374   -0.1479    0.0000 C   0  0  1  0  0  0  0  0  0  0  0  0
   -1.1048   -0.6329    0.0000 O   0  0  0  0  0  0  0  0  0  0  0  0
   -0.4374    0.6771    0.0000 C   0  0  0  0  0  0  0  0  0  0  0  0
    0.3473    0.9320    0.0000 C   0  0  1  0  0  0  0  0  0  0  0  0
    0.8322    0.2646    0.0000 O   0  0  0  0  0  0  0  0  0  0  0  0
    0.6022    1.7166    0.0000 N   0  0  0  0  0  0  0  0  0  0  0  0
    1.3868    1.9716    0.0000 C   0  0  0  0  0  0  0  0  0  0  0  0
    2.1013    1.5591    0.0000 C   0  0  0  0  0  0  0  0  0  0  0  0
    2.8158    1.9716    0.0000 C   0  0  0  0  0  0  0  0  0  0  0  0
    2.8158    2.7966    0.0000 C   0  0  0  0  0  0  0  0  0  0  0  0
    2.1013    3.2091    0.0000 C   0  0  0  0  0  0  0  0  0  0  0  0
    2.1013    4.0341    0.0000 C   0  0  0  0  0  0  0  0  0  0  0  0
    1.3868    2.7966    0.0000 C   0  0  0  0  0  0  0  0  0  0  0  0
    0.6022    3.0515    0.0000 C   0  0  0  0  0  0  0  0  0  0  0  0
    0.1173    2.3841    0.0000 C   0  0  0  0  0  0  0  0  0  0  0  0
   -0.0656   -0.8158    0.0000 H   0  0  0  0  0  0  0  0  0  0  0  0
   -0.3460   -0.7247    0.0000 H   0  0  0  0  0  0  0  0  0  0  0  0
   -0.0656    1.3449    0.0000 H   0  0  0  0  0  0  0  0  0  0  0  0
   -0.0889   -4.0907    0.0000 H   0  0  0  0  0  0  0  0  0  0  0  0
    1.8105   -2.9794    0.0000 H   0  0  0  0  0  0  0  0  0  0  0  0
    1.6488   -1.4100    0.0000 H   0  0  0  0  0  0  0  0  0  0  0  0
    1.3182   -0.3923    0.0000 H   0  0  0  0  0  0  0  0  0  0  0  0
   -1.9910   -0.2385    0.0000 H   0  0  0  0  0  0  0  0  0  0  0  0
   -1.3030    1.3061    0.0000 H   0  0  0  0  0  0  0  0  0  0  0  0
   -0.2700    1.7339    0.0000 H   0  0  0  0  0  0  0  0  0  0  0  0
    2.1013    0.5271    0.0000 H   0  0  0  0  0  0  0  0  0  0  0  0
    3.7095    1.4556    0.0000 H   0  0  0  0  0  0  0  0  0  0  0  0
    3.7095    3.3126    0.0000 H   0  0  0  0  0  0  0  0  0  0  0  0
    3.0279    4.5691    0.0000 H   0  0  0  0  0  0  0  0  0  0  0  0
    1.1747    4.5691    0.0000 H   0  0  0  0  0  0  0  0  0  0  0  0
    2.1013    5.1041    0.0000 H   0  0  0  0  0  0  0  0  0  0  0  0
    0.2833    4.0330    0.0000 H   0  0  0  0  0  0  0  0  0  0  0  0
   -0.9147    2.3841    0.0000 H   0  0  0  0  0  0  0  0  0  0  0  0
  1  3  1  0  0  0  0
  1 26  1  0  0  0  0
  2  3  1  0  0  0  0
  2 27  1  0  0  0  0
  3  4  2  0  0  0  0
  3  5  1  0  0  0  0
  5  6  1  0  0  0  0
  6 28  1  0  0  0  0
  6 29  1  0  0  0  0
  7  6  1  0  0  0  0
  7  8  1  0  0  0  0
  7 12  1  0  0  0  0
  7 23  1  1  0  0  0
  8 10  1  0  0  0  0
  8  9  1  0  0  0  0
  8 24  1  6  0  0  0
  9 30  1  0  0  0  0
 10 11  1  0  0  0  0
 10 31  1  0  0  0  0
 10 32  1  0  0  0  0
 11 13  1  0  0  0  0
 11 12  1  0  0  0  0
 11 25  1  1  0  0  0
 13 22  1  0  0  0  0
 13 14  1  0  0  0  0
 14 20  1  0  0  0  0
 14 15  2  0  0  0  0
 15 16  1  0  0  0  0
 15 33  1  0  0  0  0
 16 17  2  0  0  0  0
 16 34  1  0  0  0  0
 17 18  1  0  0  0  0
 17 35  1  0  0  0  0
 18 19  1  0  0  0  0
 18 20  2  0  0  0  0
 19 36  1  0  0  0  0
 19 37  1  0  0  0  0
 19 38  1  0  0  0  0
 20 21  1  0  0  0  0
 21 22  2  0  0  0  0
 21 39  1  0  0  0  0
 22 40  1  0  0  0  0
M  END
>  <DRUGBANK_ID>
DB07116

>  <COMMON_NAME>
1-(2-DEOXY-5-O-PHOSPHONO-BETA-D-ERYTHRO-PENTOFURANOSYL)-4-METHYL-1H-INDOLE

$$$$
