
 OpenBabel10282417072D

 31 32  0  0  0  0  0  0  0  0999 V2000
   -1.0676   -0.6213    0.0000 C   0  0  0  0  0  0  0  0  0  0  0  0
   -0.3536   -1.0298    0.0000 C   0  0  0  0  0  0  0  0  0  0  0  0
   -1.7817   -1.0298    0.0000 C   0  0  0  0  0  0  0  0  0  0  0  0
   -1.0676    0.2059    0.0000 C   0  0  0  0  0  0  0  0  0  0  0  0
    0.3570   -0.6179    0.0000 C   0  0  0  0  0  0  0  0  0  0  0  0
   -0.3536   -1.8538    0.0000 O   0  0  0  0  0  0  0  0  0  0  0  0
   -2.4990   -0.6213    0.0000 C   0  0  0  0  0  0  0  0  0  0  0  0
   -1.7817   -1.8572    0.0000 O   0  0  0  0  0  0  0  0  0  0  0  0
   -1.7817    0.6212    0.0000 C   0  0  0  0  0  0  0  0  0  0  0  0
    0.3570    0.2059    0.0000 C   0  0  0  0  0  0  0  0  0  0  0  0
   -2.4990    0.2059    0.0000 C   0  0  0  0  0  0  0  0  0  0  0  0
    1.0745    0.6212    0.0000 C   0  0  0  0  0  0  0  0  0  0  0  0
   -3.2132    0.6212    0.0000 O   0  0  0  0  0  0  0  0  0  0  0  0
    1.7852    0.2059    0.0000 C   0  0  0  0  0  0  0  0  0  0  0  0
    1.0676    1.4452    0.0000 C   0  0  0  0  0  0  0  0  0  0  0  0
    2.4991    0.6212    0.0000 C   0  0  0  0  0  0  0  0  0  0  0  0
    1.7818    1.8572    0.0000 C   0  0  0  0  0  0  0  0  0  0  0  0
    2.4991    1.4452    0.0000 C   0  0  0  0  0  0  0  0  0  0  0  0
    3.2132    1.8572    0.0000 O   0  0  0  0  0  0  0  0  0  0  0  0
   -0.1730    0.7205    0.0000 H   0  0  0  0  0  0  0  0  0  0  0  0
    1.2512   -1.1331    0.0000 H   0  0  0  0  0  0  0  0  0  0  0  0
   -3.3912   -1.1399    0.0000 H   0  0  0  0  0  0  0  0  0  0  0  0
   -2.5932   -2.3257    0.0000 H   0  0  0  0  0  0  0  0  0  0  0  0
   -1.7807    1.6532    0.0000 H   0  0  0  0  0  0  0  0  0  0  0  0
   -0.5370    0.7214    0.0000 H   0  0  0  0  0  0  0  0  0  0  0  0
   -3.2103    1.5582    0.0000 H   0  0  0  0  0  0  0  0  0  0  0  0
    1.7842   -0.8261    0.0000 H   0  0  0  0  0  0  0  0  0  0  0  0
    0.1718    1.9576    0.0000 H   0  0  0  0  0  0  0  0  0  0  0  0
    3.3937    0.1067    0.0000 H   0  0  0  0  0  0  0  0  0  0  0  0
    1.7808    2.8892    0.0000 H   0  0  0  0  0  0  0  0  0  0  0  0
    4.0245    1.3885    0.0000 H   0  0  0  0  0  0  0  0  0  0  0  0
  1  2  1  0  0  0  0
  1  3  2  0  0  0  0
  1  4  1  0  0  0  0
  2  5  1  0  0  0  0
  2  6  2  0  0  0  0
  3  7  1  0  0  0  0
  3  8  1  0  0  0  0
  4  9  2  0  0  0  0
  4 20  1  0  0  0  0
  5 10  2  0  0  0  0
  5 21  1  0  0  0  0
  7 11  2  0  0  0  0
  7 22  1  0  0  0  0
  8 23  1  0  0  0  0
  9 11  1  0  0  0  0
  9 24  1  0  0  0  0
 10 12  1  0  0  0  0
 10 25  1  0  0  0  0
 11 13  1  0  0  0  0
 12 14  2  0  0  0  0
 12 15  1  0  0  0  0
 13 26  1  0  0  0  0
 14 16  1  0  0  0  0
 14 27  1  0  0  0  0
 15 17  2  0  0  0  0
 15 28  1  0  0  0  0
 16 18  2  0  0  0  0
 16 29  1  0  0  0  0
 17 18  1  0  0  0  0
 17 30  1  0  0  0  0
 18 19  1  0  0  0  0
 19 31  1  0  0  0  0
M  END
>  <DRUGBANK_ID>
DB03285

>  <SECONDARY_ACCESSION_NUMBERS>
EXPT01707

>  <COMMON_NAME>
Isoliquiritigenin

>  <CAS_NUMBER>
961-29-5

>  <UNII>
B9CTI9GB8F

>  <SYNONYMS>
(E)-1-(2,4-Dihydroxy-phenyl)-3-(4-hydroxy-phenyl)-propenone; (E)-1-(2,4-dihydroxyphenyl)-3-(4-hydroxyphenyl)-2-propene-1-one; 2',4,4'-Trihydroxychalcone; 4,2',4'-Trihydroxychalcone; trans-2',4,4'-trihydroxychalcone

$$$$
