
 OpenBabel10282417072D

 24 24  0  0  0  0  0  0  0  0999 V2000
   -2.2820    0.5872    0.0000 C   0  0  0  0  0  0  0  0  0  0  0  0
   -0.3297   -0.8227    0.0000 C   0  0  0  0  0  0  0  0  0  0  0  0
    1.2352    0.6294    0.0000 C   0  0  0  0  0  0  0  0  0  0  0  0
   -0.8843    0.8843    0.0000 C   0  0  0  0  0  0  0  0  0  0  0  0
   -1.4974    0.3323    0.0000 C   0  0  3  0  0  0  0  0  0  0  0  0
    0.1553   -0.1553    0.0000 C   0  0  0  0  0  0  0  0  0  0  0  0
    0.5678    1.1143    0.0000 C   0  0  0  0  0  0  0  0  0  0  0  0
    0.9803   -0.1553    0.0000 N   0  0  0  0  0  0  0  0  0  0  0  0
   -0.0997    0.6294    0.0000 N   0  0  0  0  0  0  0  0  0  0  0  0
    0.5678    1.9393    0.0000 N   0  0  0  0  0  0  0  0  0  0  0  0
   -1.3259   -0.4747    0.0000 O   0  0  0  0  0  0  0  0  0  0  0  0
   -0.1467    2.3518    0.0000 O   0  0  0  0  0  0  0  0  0  0  0  0
    1.2822    2.3518    0.0000 O   0  0  0  0  0  0  0  0  0  0  0  0
   -2.5045    1.6338    0.0000 H   0  0  0  0  0  0  0  0  0  0  0  0
   -3.0771   -0.1288    0.0000 H   0  0  0  0  0  0  0  0  0  0  0  0
   -3.2996    0.9178    0.0000 H   0  0  0  0  0  0  0  0  0  0  0  0
   -1.3938   -0.7107    0.0000 H   0  0  0  0  0  0  0  0  0  0  0  0
    0.1054   -1.8002    0.0000 H   0  0  0  0  0  0  0  0  0  0  0  0
   -0.9587   -1.6883    0.0000 H   0  0  0  0  0  0  0  0  0  0  0  0
    2.2167    0.9483    0.0000 H   0  0  0  0  0  0  0  0  0  0  0  0
   -1.1068    1.9309    0.0000 H   0  0  0  0  0  0  0  0  0  0  0  0
   -0.0891    1.6003    0.0000 H   0  0  0  0  0  0  0  0  0  0  0  0
   -1.7199    1.3789    0.0000 H   0  0  0  0  0  0  0  0  0  0  0  0
   -2.0468   -1.1237    0.0000 H   0  0  0  0  0  0  0  0  0  0  0  0
  1 14  1  0  0  0  0
  1 15  1  0  0  0  0
  1 16  1  0  0  0  0
  2 17  1  0  0  0  0
  2 18  1  0  0  0  0
  2 19  1  0  0  0  0
  3 20  1  0  0  0  0
  4 21  1  0  0  0  0
  4 22  1  0  0  0  0
  5  1  1  0  0  0  0
  5  4  1  0  0  0  0
  5 23  1  0  0  0  0
  6  2  1  0  0  0  0
  7  3  2  0  0  0  0
  8  3  1  0  0  0  0
  8  6  2  0  0  0  0
  9  4  1  0  0  0  0
  9  6  1  0  0  0  0
  9  7  1  0  0  0  0
 10  7  1  0  0  0  0
 11  5  1  0  0  0  0
 11 24  1  0  0  0  0
 12 10  2  0  0  0  0
 13 10  2  0  0  0  0
M  END
>  <DRUGBANK_ID>
DB12834

>  <COMMON_NAME>
Secnidazole

>  <CAS_NUMBER>
3366-95-8

>  <UNII>
R3459K699K

>  <SYNONYMS>
1-(2­ hydroxypropyl)-2-methyl-5-nitroimidazole; 1-(2-methyl-5-nitro-1H-imidazol-1-yl) propan-2­ ol; Secnidazole

$$$$
