CJH
 OpenBabel10282417072D

 42 43  0  0  0  0  0  0  0  0999 V2000
   -2.3125    3.8221    0.0000 C   0  0  0  0  0  0  0  0  0  0  0  0
   -2.3125    2.9971    0.0000 C   0  0  0  0  0  0  0  0  0  0  0  0
   -1.5980    2.5846    0.0000 O   0  0  0  0  0  0  0  0  0  0  0  0
   -1.5980    1.7596    0.0000 C   0  0  0  0  0  0  0  0  0  0  0  0
   -0.8836    1.3471    0.0000 C   0  0  0  0  0  0  0  0  0  0  0  0
   -2.3125    1.3471    0.0000 C   0  0  0  0  0  0  0  0  0  0  0  0
   -2.3125    0.5221    0.0000 C   0  0  0  0  0  0  0  0  0  0  0  0
   -1.5980    0.1096    0.0000 C   0  0  0  0  0  0  0  0  0  0  0  0
   -0.8836    0.5221    0.0000 C   0  0  0  0  0  0  0  0  0  0  0  0
   -0.1691    0.1096    0.0000 C   0  0  0  0  0  0  0  0  0  0  0  0
    0.5454    0.5221    0.0000 C   0  0  0  0  0  0  0  0  0  0  0  0
    1.2599    0.1096    0.0000 C   0  0  0  0  0  0  0  0  0  0  0  0
   -0.1691   -0.7154    0.0000 C   0  0  0  0  0  0  0  0  0  0  0  0
    0.5454   -1.1279    0.0000 C   0  0  0  0  0  0  0  0  0  0  0  0
    1.2599   -0.7154    0.0000 C   0  0  0  0  0  0  0  0  0  0  0  0
    1.9743   -1.1279    0.0000 N   0  0  0  0  0  0  0  0  0  0  0  0
    1.9743   -1.9529    0.0000 C   0  0  0  0  0  0  0  0  0  0  0  0
    1.2599   -2.3654    0.0000 O   0  0  0  0  0  0  0  0  0  0  0  0
    2.6888   -2.3654    0.0000 C   0  0  0  0  0  0  0  0  0  0  0  0
    2.6888   -3.1904    0.0000 C   0  0  0  0  0  0  0  0  0  0  0  0
    2.6888   -4.0154    0.0000 N   0  0  0  0  0  0  0  0  0  0  0  0
    3.4033   -1.9529    0.0000 C   0  0  0  0  0  0  0  0  0  0  0  0
    4.1177   -2.3654    0.0000 C   0  0  0  0  0  0  0  0  0  0  0  0
    3.4033   -1.1279    0.0000 O   0  0  0  0  0  0  0  0  0  0  0  0
   -1.3859    4.3571    0.0000 H   0  0  0  0  0  0  0  0  0  0  0  0
   -3.2391    4.3571    0.0000 H   0  0  0  0  0  0  0  0  0  0  0  0
   -2.3125    4.8921    0.0000 H   0  0  0  0  0  0  0  0  0  0  0  0
   -3.2391    2.4621    0.0000 H   0  0  0  0  0  0  0  0  0  0  0  0
   -2.3125    1.9271    0.0000 H   0  0  0  0  0  0  0  0  0  0  0  0
    0.0101    1.8631    0.0000 H   0  0  0  0  0  0  0  0  0  0  0  0
   -3.2062    1.8631    0.0000 H   0  0  0  0  0  0  0  0  0  0  0  0
   -3.2062    0.0061    0.0000 H   0  0  0  0  0  0  0  0  0  0  0  0
   -1.5980   -0.9224    0.0000 H   0  0  0  0  0  0  0  0  0  0  0  0
    0.5454    1.5541    0.0000 H   0  0  0  0  0  0  0  0  0  0  0  0
    2.1536    0.6256    0.0000 H   0  0  0  0  0  0  0  0  0  0  0  0
   -1.0628   -1.2314    0.0000 H   0  0  0  0  0  0  0  0  0  0  0  0
    0.5454   -2.1599    0.0000 H   0  0  0  0  0  0  0  0  0  0  0  0
    2.8269   -0.6357    0.0000 H   0  0  0  0  0  0  0  0  0  0  0  0
    4.1177   -3.4354    0.0000 H   0  0  0  0  0  0  0  0  0  0  0  0
    5.0444   -1.8304    0.0000 H   0  0  0  0  0  0  0  0  0  0  0  0
    5.0443   -2.9004    0.0000 H   0  0  0  0  0  0  0  0  0  0  0  0
    4.2148   -0.6594    0.0000 H   0  0  0  0  0  0  0  0  0  0  0  0
  1  2  1  0  0  0  0
  1 25  1  0  0  0  0
  1 26  1  0  0  0  0
  1 27  1  0  0  0  0
  2  3  1  0  0  0  0
  2 28  1  0  0  0  0
  2 29  1  0  0  0  0
  3  4  1  0  0  0  0
  4  5  2  0  0  0  0
  4  6  1  0  0  0  0
  5  9  1  0  0  0  0
  5 30  1  0  0  0  0
  6  7  2  0  0  0  0
  6 31  1  0  0  0  0
  7  8  1  0  0  0  0
  7 32  1  0  0  0  0
  8  9  2  0  0  0  0
  8 33  1  0  0  0  0
  9 10  1  0  0  0  0
 10 11  2  0  0  0  0
 10 13  1  0  0  0  0
 11 12  1  0  0  0  0
 11 34  1  0  0  0  0
 12 15  2  0  0  0  0
 12 35  1  0  0  0  0
 13 14  2  0  0  0  0
 13 36  1  0  0  0  0
 14 15  1  0  0  0  0
 14 37  1  0  0  0  0
 15 16  1  0  0  0  0
 16 17  1  0  0  0  0
 16 38  1  0  0  0  0
 17 18  2  0  0  0  0
 17 19  1  0  0  0  0
 19 20  1  0  0  0  0
 19 22  2  0  0  0  0
 20 21  3  0  0  0  0
 22 23  1  0  0  0  0
 22 24  1  0  0  0  0
 23 39  1  0  0  0  0
 23 40  1  0  0  0  0
 23 41  1  0  0  0  0
 24 42  1  0  0  0  0
M  END
>  <DRUGBANK_ID>
DB07561

>  <COMMON_NAME>
(2Z)-2-cyano-N-(3'-ethoxybiphenyl-4-yl)-3-hydroxybut-2-enamide

$$$$
