
 OpenBabel10282417072D

 62 61  0  0  0  0  0  0  0  0999 V2000
   -0.0073   -0.2211    0.0000 C   0  0  0  0  0  0  0  0  0  0  0  0
   -0.6982   -0.5832    0.0000 C   0  0  0  0  0  0  0  0  0  0  0  0
    0.6946   -0.6087    0.0000 C   0  0  0  0  0  0  0  0  0  0  0  0
   -0.0036    0.6087    0.0000 C   0  0  0  0  0  0  0  0  0  0  0  0
   -1.4002   -0.1773    0.0000 C   0  0  0  0  0  0  0  0  0  0  0  0
    1.4221   -0.2211    0.0000 C   0  0  0  0  0  0  0  0  0  0  0  0
   -2.1533   -0.5905    0.0000 C   0  0  0  0  0  0  0  0  0  0  0  0
    2.1131   -0.6234    0.0000 C   0  0  0  0  0  0  0  0  0  0  0  0
   -2.8845   -0.1553    0.0000 C   0  0  0  0  0  0  0  0  0  0  0  0
    2.8443   -0.2505    0.0000 C   0  0  0  0  0  0  0  0  0  0  0  0
   -3.6049   -0.5575    0.0000 C   0  0  0  0  0  0  0  0  0  0  0  0
   -2.8845    0.6744    0.0000 C   0  0  0  0  0  0  0  0  0  0  0  0
    3.5902   -0.6745    0.0000 C   0  0  0  0  0  0  0  0  0  0  0  0
    2.8443    0.5465    0.0000 C   0  0  0  0  0  0  0  0  0  0  0  0
   -4.3433   -0.1152    0.0000 C   0  0  0  0  0  0  0  0  0  0  0  0
    4.3396   -0.2505    0.0000 C   0  0  0  0  0  0  0  0  0  0  0  0
   -5.0562   -0.5173    0.0000 C   0  0  0  0  0  0  0  0  0  0  0  0
    5.0013   -0.7074    0.0000 C   0  0  0  0  0  0  0  0  0  0  0  0
   -5.7691   -0.1152    0.0000 C   0  0  0  0  0  0  0  0  0  0  0  0
    5.7325   -0.3162    0.0000 C   0  0  0  0  0  0  0  0  0  0  0  0
   -6.5077   -0.4953    0.0000 C   0  0  0  0  0  0  0  0  0  0  0  0
   -5.7801    0.7074    0.0000 C   0  0  0  0  0  0  0  0  0  0  0  0
    6.5077   -0.6745    0.0000 C   0  0  0  0  0  0  0  0  0  0  0  0
    5.7399    0.5392    0.0000 O   0  0  0  0  0  0  0  0  0  0  0  0
   -0.7204   -1.6530    0.0000 H   0  0  0  0  0  0  0  0  0  0  0  0
   -1.6305   -1.1083    0.0000 H   0  0  0  0  0  0  0  0  0  0  0  0
    0.6869   -1.6407    0.0000 H   0  0  0  0  0  0  0  0  0  0  0  0
    0.9254    1.1396    0.0000 H   0  0  0  0  0  0  0  0  0  0  0  0
   -0.9279    1.1478    0.0000 H   0  0  0  0  0  0  0  0  0  0  0  0
    0.0012    1.6787    0.0000 H   0  0  0  0  0  0  0  0  0  0  0  0
   -1.3882    0.8926    0.0000 H   0  0  0  0  0  0  0  0  0  0  0  0
   -2.3179    0.3729    0.0000 H   0  0  0  0  0  0  0  0  0  0  0  0
    1.4423    0.8487    0.0000 H   0  0  0  0  0  0  0  0  0  0  0  0
    2.3547    0.3035    0.0000 H   0  0  0  0  0  0  0  0  0  0  0  0
   -2.1714   -1.6223    0.0000 H   0  0  0  0  0  0  0  0  0  0  0  0
    2.0833   -1.6930    0.0000 H   0  0  0  0  0  0  0  0  0  0  0  0
    3.0177   -1.1949    0.0000 H   0  0  0  0  0  0  0  0  0  0  0  0
   -3.6212   -1.6274    0.0000 H   0  0  0  0  0  0  0  0  0  0  0  0
   -4.5398   -1.0779    0.0000 H   0  0  0  0  0  0  0  0  0  0  0  0
   -1.9579    1.2094    0.0000 H   0  0  0  0  0  0  0  0  0  0  0  0
   -3.8111    1.2094    0.0000 H   0  0  0  0  0  0  0  0  0  0  0  0
   -2.8845    1.7444    0.0000 H   0  0  0  0  0  0  0  0  0  0  0  0
    3.5892   -1.7065    0.0000 H   0  0  0  0  0  0  0  0  0  0  0  0
    3.7709    1.0815    0.0000 H   0  0  0  0  0  0  0  0  0  0  0  0
    1.9177    1.0815    0.0000 H   0  0  0  0  0  0  0  0  0  0  0  0
    2.8443    1.6165    0.0000 H   0  0  0  0  0  0  0  0  0  0  0  0
   -4.3293    0.9547    0.0000 H   0  0  0  0  0  0  0  0  0  0  0  0
   -5.2637    0.4305    0.0000 H   0  0  0  0  0  0  0  0  0  0  0  0
    4.3874    0.8184    0.0000 H   0  0  0  0  0  0  0  0  0  0  0  0
    5.2980    0.2254    0.0000 H   0  0  0  0  0  0  0  0  0  0  0  0
   -5.0562   -1.5493    0.0000 H   0  0  0  0  0  0  0  0  0  0  0  0
    4.9408   -1.7757    0.0000 H   0  0  0  0  0  0  0  0  0  0  0  0
    5.9033   -1.2830    0.0000 H   0  0  0  0  0  0  0  0  0  0  0  0
   -7.4074    0.0838    0.0000 H   0  0  0  0  0  0  0  0  0  0  0  0
   -6.5594   -1.5641    0.0000 H   0  0  0  0  0  0  0  0  0  0  0  0
   -7.4591   -0.9849    0.0000 H   0  0  0  0  0  0  0  0  0  0  0  0
   -4.8607    1.2547    0.0000 H   0  0  0  0  0  0  0  0  0  0  0  0
   -6.7138    1.2300    0.0000 H   0  0  0  0  0  0  0  0  0  0  0  0
   -5.7944    1.7773    0.0000 H   0  0  0  0  0  0  0  0  0  0  0  0
    6.6046   -1.7401    0.0000 H   0  0  0  0  0  0  0  0  0  0  0  0
    7.3821   -0.0578    0.0000 H   0  0  0  0  0  0  0  0  0  0  0  0
    7.4790   -1.1234    0.0000 H   0  0  0  0  0  0  0  0  0  0  0  0
  1  2  1  0  0  0  0
  1  3  2  0  0  0  0
  1  4  1  0  0  0  0
  2  5  1  0  0  0  0
  2 25  1  0  0  0  0
  2 26  1  0  0  0  0
  3  6  1  0  0  0  0
  3 27  1  0  0  0  0
  4 28  1  0  0  0  0
  4 29  1  0  0  0  0
  4 30  1  0  0  0  0
  5  7  1  0  0  0  0
  5 31  1  0  0  0  0
  5 32  1  0  0  0  0
  6  8  1  0  0  0  0
  6 33  1  0  0  0  0
  6 34  1  0  0  0  0
  7  9  2  0  0  0  0
  7 35  1  0  0  0  0
  8 10  1  0  0  0  0
  8 36  1  0  0  0  0
  8 37  1  0  0  0  0
  9 11  1  0  0  0  0
  9 12  1  0  0  0  0
 10 13  2  0  0  0  0
 10 14  1  0  0  0  0
 11 15  1  0  0  0  0
 11 38  1  0  0  0  0
 11 39  1  0  0  0  0
 12 40  1  0  0  0  0
 12 41  1  0  0  0  0
 12 42  1  0  0  0  0
 13 16  1  0  0  0  0
 13 43  1  0  0  0  0
 14 44  1  0  0  0  0
 14 45  1  0  0  0  0
 14 46  1  0  0  0  0
 15 17  1  0  0  0  0
 15 47  1  0  0  0  0
 15 48  1  0  0  0  0
 16 18  1  0  0  0  0
 16 49  1  0  0  0  0
 16 50  1  0  0  0  0
 17 19  2  0  0  0  0
 17 51  1  0  0  0  0
 18 20  1  0  0  0  0
 18 52  1  0  0  0  0
 18 53  1  0  0  0  0
 19 21  1  0  0  0  0
 19 22  1  0  0  0  0
 20 23  1  0  0  0  0
 20 24  2  0  0  0  0
 21 54  1  0  0  0  0
 21 55  1  0  0  0  0
 21 56  1  0  0  0  0
 22 57  1  0  0  0  0
 22 58  1  0  0  0  0
 22 59  1  0  0  0  0
 23 60  1  0  0  0  0
 23 61  1  0  0  0  0
 23 62  1  0  0  0  0
M  END
>  <DRUGBANK_ID>
DB15955

>  <COMMON_NAME>
Teprenone

>  <CAS_NUMBER>
6809-52-5

>  <UNII>
57B67OXM8F

>  <SYNONYMS>
Geranylgeranylacetone; Teprenona; Teprenone; Teprenonum; Tetraprenylacetone

$$$$
