BBS
 OpenBabel10282417072D

 28 28  0  0  0  0  0  0  0  0999 V2000
   -0.0386    1.9390    0.0000 C   0  0  0  0  0  0  0  0  0  0  0  0
   -0.0386    1.1140    0.0000 C   0  0  0  0  0  0  0  0  0  0  0  0
   -0.8636    1.1140    0.0000 C   0  0  0  0  0  0  0  0  0  0  0  0
    0.7864    1.1140    0.0000 C   0  0  0  0  0  0  0  0  0  0  0  0
    0.6759   -0.1235    0.0000 C   0  0  0  0  0  0  0  0  0  0  0  0
    0.6759   -0.9485    0.0000 C   0  0  0  0  0  0  0  0  0  0  0  0
   -0.0386   -1.3610    0.0000 C   0  0  0  0  0  0  0  0  0  0  0  0
   -0.7531   -0.9485    0.0000 C   0  0  0  0  0  0  0  0  0  0  0  0
   -0.7531   -0.1235    0.0000 C   0  0  0  0  0  0  0  0  0  0  0  0
   -0.0386    0.2890    0.0000 C   0  0  0  0  0  0  0  0  0  0  0  0
   -0.0386   -2.1860    0.0000 S   0  0  0  0  0  0  0  0  0  0  0  0
   -0.0386   -3.0110    0.0000 O   0  0  0  0  0  0  0  0  0  0  0  0
   -0.8636   -2.1860    0.0000 O   0  0  0  0  0  0  0  0  0  0  0  0
    0.7864   -2.1860    0.0000 O   0  0  0  0  0  0  0  0  0  0  0  0
    0.8880    2.4740    0.0000 H   0  0  0  0  0  0  0  0  0  0  0  0
   -0.9652    2.4740    0.0000 H   0  0  0  0  0  0  0  0  0  0  0  0
   -0.0386    3.0090    0.0000 H   0  0  0  0  0  0  0  0  0  0  0  0
   -1.3986    2.0406    0.0000 H   0  0  0  0  0  0  0  0  0  0  0  0
   -1.3986    0.1874    0.0000 H   0  0  0  0  0  0  0  0  0  0  0  0
   -1.9336    1.1140    0.0000 H   0  0  0  0  0  0  0  0  0  0  0  0
    1.3214    0.1874    0.0000 H   0  0  0  0  0  0  0  0  0  0  0  0
    1.3214    2.0406    0.0000 H   0  0  0  0  0  0  0  0  0  0  0  0
    1.8564    1.1140    0.0000 H   0  0  0  0  0  0  0  0  0  0  0  0
    1.5696    0.3925    0.0000 H   0  0  0  0  0  0  0  0  0  0  0  0
    1.5696   -1.4645    0.0000 H   0  0  0  0  0  0  0  0  0  0  0  0
   -1.6468   -1.4645    0.0000 H   0  0  0  0  0  0  0  0  0  0  0  0
   -1.6468    0.3925    0.0000 H   0  0  0  0  0  0  0  0  0  0  0  0
    1.2714   -3.0260    0.0000 H   0  0  0  0  0  0  0  0  0  0  0  0
  1  2  1  0  0  0  0
  1 15  1  0  0  0  0
  1 16  1  0  0  0  0
  1 17  1  0  0  0  0
  2  3  1  0  0  0  0
  2  4  1  0  0  0  0
  2 10  1  0  0  0  0
  3 18  1  0  0  0  0
  3 19  1  0  0  0  0
  3 20  1  0  0  0  0
  4 21  1  0  0  0  0
  4 22  1  0  0  0  0
  4 23  1  0  0  0  0
  5  6  2  0  0  0  0
  5 10  1  0  0  0  0
  5 24  1  0  0  0  0
  6  7  1  0  0  0  0
  6 25  1  0  0  0  0
  7  8  2  0  0  0  0
  7 11  1  0  0  0  0
  8  9  1  0  0  0  0
  8 26  1  0  0  0  0
  9 10  2  0  0  0  0
  9 27  1  0  0  0  0
 11 12  2  0  0  0  0
 11 13  2  0  0  0  0
 11 14  1  0  0  0  0
 14 28  1  0  0  0  0
M  END
>  <DRUGBANK_ID>
DB07440

>  <COMMON_NAME>
4-TERT-BUTYLBENZENESULFONIC ACID

>  <UNII>
YV1D0UF57S

$$$$
