
 OpenBabel10282417072D

 39 38  0  0  0  0  0  0  0  0999 V2000
   -2.8875   -2.1434    0.0000 C   0  0  0  0  0  0  0  0  0  0  0  0
   -2.8875   -0.7145    0.0000 C   0  0  0  0  0  0  0  0  0  0  0  0
   -0.4125    0.7145    0.0000 C   0  0  0  0  0  0  0  0  0  0  0  0
   -1.2375   -0.7145    0.0000 C   0  0  0  0  0  0  0  0  0  0  0  0
   -1.6500   -1.4289    0.0000 C   0  0  0  0  0  0  0  0  0  0  0  0
   -0.4125   -0.7145    0.0000 C   0  0  0  0  0  0  0  0  0  0  0  0
    0.8250    0.0000    0.0000 C   0  0  0  0  0  0  0  0  0  0  0  0
    1.2375    0.7145    0.0000 C   0  0  0  0  0  0  0  0  0  0  0  0
   -2.4750   -1.4289    0.0000 C   0  0  0  0  0  0  0  0  0  0  0  0
    0.0000    0.0000    0.0000 C   0  0  0  0  0  0  0  0  0  0  0  0
    0.8250    4.2868    0.0000 O   0  0  0  0  0  0  0  0  0  0  0  0
    1.9520    3.9849    0.0000 O   0  0  0  0  0  0  0  0  0  0  0  0
    0.5230    3.1599    0.0000 O   0  0  0  0  0  0  0  0  0  0  0  0
    1.9520    1.7309    0.0000 O   0  0  0  0  0  0  0  0  0  0  0  0
    0.5230    2.5559    0.0000 O   0  0  0  0  0  0  0  0  0  0  0  0
    1.6500    2.8579    0.0000 O   0  0  0  0  0  0  0  0  0  0  0  0
    1.2375    3.5724    0.0000 P   0  0  0  0  0  0  0  0  0  0  0  0
    1.2375    2.1434    0.0000 P   0  0  3  0  0  0  0  0  0  0  0  0
    0.8250    1.4289    0.0000 S   0  0  0  0  0  0  0  0  0  0  0  0
    1.2375   -0.7145    0.0000 H   0  0  0  0  0  0  0  0  0  0  0  0
   -3.9575   -2.1434    0.0000 H   0  0  0  0  0  0  0  0  0  0  0  0
   -2.3525   -3.0700    0.0000 H   0  0  0  0  0  0  0  0  0  0  0  0
   -3.4225   -3.0701    0.0000 H   0  0  0  0  0  0  0  0  0  0  0  0
   -2.3525    0.2122    0.0000 H   0  0  0  0  0  0  0  0  0  0  0  0
   -3.9575   -0.7145    0.0000 H   0  0  0  0  0  0  0  0  0  0  0  0
   -3.4225    0.2121    0.0000 H   0  0  0  0  0  0  0  0  0  0  0  0
    0.1225    1.6411    0.0000 H   0  0  0  0  0  0  0  0  0  0  0  0
   -1.4825    0.7145    0.0000 H   0  0  0  0  0  0  0  0  0  0  0  0
   -0.9475    1.6412    0.0000 H   0  0  0  0  0  0  0  0  0  0  0  0
   -1.7725    0.2122    0.0000 H   0  0  0  0  0  0  0  0  0  0  0  0
   -0.7025    0.2121    0.0000 H   0  0  0  0  0  0  0  0  0  0  0  0
   -1.1340   -2.3226    0.0000 H   0  0  0  0  0  0  0  0  0  0  0  0
    0.1225   -1.6411    0.0000 H   0  0  0  0  0  0  0  0  0  0  0  0
    0.6575   -0.7145    0.0000 H   0  0  0  0  0  0  0  0  0  0  0  0
    2.3075    0.7145    0.0000 H   0  0  0  0  0  0  0  0  0  0  0  0
    1.7725    1.6412    0.0000 H   0  0  0  0  0  0  0  0  0  0  0  0
    1.3100    5.1269    0.0000 H   0  0  0  0  0  0  0  0  0  0  0  0
    2.7920    3.4999    0.0000 H   0  0  0  0  0  0  0  0  0  0  0  0
    1.9520    0.7609    0.0000 H   0  0  0  0  0  0  0  0  0  0  0  0
  1 21  1  0  0  0  0
  1 22  1  0  0  0  0
  1 23  1  0  0  0  0
  2 24  1  0  0  0  0
  2 25  1  0  0  0  0
  2 26  1  0  0  0  0
  3 27  1  0  0  0  0
  3 28  1  0  0  0  0
  3 29  1  0  0  0  0
  4 30  1  0  0  0  0
  4 31  1  0  0  0  0
  5  4  1  0  0  0  0
  5 32  1  0  0  0  0
  6  4  1  0  0  0  0
  6 33  1  0  0  0  0
  6 34  1  0  0  0  0
  8  7  1  0  0  0  0
  8 35  1  0  0  0  0
  8 36  1  0  0  0  0
  9  1  1  0  0  0  0
  9  2  1  0  0  0  0
  9  5  2  0  0  0  0
 10  3  1  0  0  0  0
 10  6  1  0  0  0  0
 10  7  2  0  0  0  0
 11 37  1  0  0  0  0
 12 38  1  0  0  0  0
 14 39  1  0  0  0  0
 17 11  1  0  0  0  0
 17 12  1  0  0  0  0
 17 13  2  0  0  0  0
 17 16  1  0  0  0  0
 18 14  1  0  0  0  0
 18 15  2  0  0  0  0
 18 16  1  0  0  0  0
 19  8  1  0  0  0  0
 19 18  1  0  0  0  0
 20  7  1  0  0  0  0
M  END
>  <DRUGBANK_ID>
DB04702

>  <COMMON_NAME>
S-[(2E)-3,7-DIMETHYLOCTA-2,6-DIENYL] TRIHYDROGENTHIODIPHOSPHATE

$$$$
