
 OpenBabel10282417072D

 60 62  0  0  0  0  0  0  0  0999 V2000
   -1.8562    1.9668    0.0000 O   0  0  0  0  0  0  0  0  0  0  0  0
   -1.4437    2.6812    0.0000 O   0  0  0  0  0  0  0  0  0  0  0  0
   -0.6187   -0.3977    0.0000 N   0  0  0  0  0  0  0  0  0  0  0  0
   -0.2062    1.9668    0.0000 N   0  0  0  0  0  0  0  0  0  0  0  0
   -0.6187    1.2522    0.0000 C   0  0  0  0  0  0  0  0  0  0  0  0
   -1.3332    0.8397    0.0000 C   0  0  0  0  0  0  0  0  0  0  0  0
    0.0957    0.8397    0.0000 C   0  0  0  0  0  0  0  0  0  0  0  0
   -1.3332    0.0147    0.0000 C   0  0  0  0  0  0  0  0  0  0  0  0
    0.0957    0.0147    0.0000 C   0  0  0  0  0  0  0  0  0  0  0  0
   -1.0312    1.9668    0.0000 C   0  0  0  0  0  0  0  0  0  0  0  0
   -0.6187   -1.2227    0.0000 C   0  0  0  0  0  0  0  0  0  0  0  0
    0.6187    1.9668    0.0000 C   0  0  0  0  0  0  0  0  0  0  0  0
   -0.6187    2.6812    0.0000 C   0  0  0  0  0  0  0  0  0  0  0  0
   -1.3332   -1.6352    0.0000 C   0  0  0  0  0  0  0  0  0  0  0  0
   -0.2062    3.3957    0.0000 C   0  0  0  0  0  0  0  0  0  0  0  0
    1.0312    2.6812    0.0000 C   0  0  0  0  0  0  0  0  0  0  0  0
    1.0312    1.2522    0.0000 C   0  0  0  0  0  0  0  0  0  0  0  0
   -1.3332   -2.4602    0.0000 C   0  0  0  0  0  0  0  0  0  0  0  0
   -2.2687    2.6812    0.0000 C   0  0  0  0  0  0  0  0  0  0  0  0
   -0.6187    4.1102    0.0000 C   0  0  0  0  0  0  0  0  0  0  0  0
    1.8562    2.6812    0.0000 C   0  0  0  0  0  0  0  0  0  0  0  0
    1.8562    1.2522    0.0000 C   0  0  0  0  0  0  0  0  0  0  0  0
   -0.6187   -2.8727    0.0000 C   0  0  0  0  0  0  0  0  0  0  0  0
   -2.0477   -2.8727    0.0000 C   0  0  0  0  0  0  0  0  0  0  0  0
    2.2687    1.9668    0.0000 C   0  0  0  0  0  0  0  0  0  0  0  0
   -0.6187   -3.6977    0.0000 C   0  0  0  0  0  0  0  0  0  0  0  0
   -2.0477   -3.6977    0.0000 C   0  0  0  0  0  0  0  0  0  0  0  0
   -1.3332   -4.1102    0.0000 C   0  0  0  0  0  0  0  0  0  0  0  0
   -2.2598    1.3747    0.0000 H   0  0  0  0  0  0  0  0  0  0  0  0
   -2.2598    0.3047    0.0000 H   0  0  0  0  0  0  0  0  0  0  0  0
    1.0224    1.3747    0.0000 H   0  0  0  0  0  0  0  0  0  0  0  0
    1.0223    0.3047    0.0000 H   0  0  0  0  0  0  0  0  0  0  0  0
   -2.2598   -0.5204    0.0000 H   0  0  0  0  0  0  0  0  0  0  0  0
   -2.2599    0.5497    0.0000 H   0  0  0  0  0  0  0  0  0  0  0  0
    1.0223   -0.5203    0.0000 H   0  0  0  0  0  0  0  0  0  0  0  0
    1.0224    0.5497    0.0000 H   0  0  0  0  0  0  0  0  0  0  0  0
   -0.4962    2.8934    0.0000 H   0  0  0  0  0  0  0  0  0  0  0  0
    0.0388    1.9667    0.0000 H   0  0  0  0  0  0  0  0  0  0  0  0
    0.3079   -1.7577    0.0000 H   0  0  0  0  0  0  0  0  0  0  0  0
   -0.6187   -2.2927    0.0000 H   0  0  0  0  0  0  0  0  0  0  0  0
   -2.2598   -1.1002    0.0000 H   0  0  0  0  0  0  0  0  0  0  0  0
   -2.2598   -2.1702    0.0000 H   0  0  0  0  0  0  0  0  0  0  0  0
    0.8638    3.3957    0.0000 H   0  0  0  0  0  0  0  0  0  0  0  0
    0.3288    4.3223    0.0000 H   0  0  0  0  0  0  0  0  0  0  0  0
    0.5152    3.5749    0.0000 H   0  0  0  0  0  0  0  0  0  0  0  0
    0.5152    0.3585    0.0000 H   0  0  0  0  0  0  0  0  0  0  0  0
   -1.7337    3.6079    0.0000 H   0  0  0  0  0  0  0  0  0  0  0  0
   -3.3387    2.6812    0.0000 H   0  0  0  0  0  0  0  0  0  0  0  0
   -2.8037    3.6078    0.0000 H   0  0  0  0  0  0  0  0  0  0  0  0
   -0.0837    5.0368    0.0000 H   0  0  0  0  0  0  0  0  0  0  0  0
   -1.6887    4.1102    0.0000 H   0  0  0  0  0  0  0  0  0  0  0  0
   -1.1537    5.0369    0.0000 H   0  0  0  0  0  0  0  0  0  0  0  0
    2.3722    3.5749    0.0000 H   0  0  0  0  0  0  0  0  0  0  0  0
    2.3722    0.3585    0.0000 H   0  0  0  0  0  0  0  0  0  0  0  0
    0.2750   -2.3567    0.0000 H   0  0  0  0  0  0  0  0  0  0  0  0
   -2.9414   -2.3567    0.0000 H   0  0  0  0  0  0  0  0  0  0  0  0
    3.3007    1.9669    0.0000 H   0  0  0  0  0  0  0  0  0  0  0  0
    0.2750   -4.2137    0.0000 H   0  0  0  0  0  0  0  0  0  0  0  0
   -2.9414   -4.2137    0.0000 H   0  0  0  0  0  0  0  0  0  0  0  0
   -1.3332   -5.1422    0.0000 H   0  0  0  0  0  0  0  0  0  0  0  0
  1 10  1  0  0  0  0
  1 19  1  0  0  0  0
  2 13  2  0  0  0  0
  3  8  1  0  0  0  0
  3  9  1  0  0  0  0
  3 11  1  0  0  0  0
  4  5  1  0  0  0  0
  4 12  1  0  0  0  0
  4 13  1  0  0  0  0
  5  6  1  0  0  0  0
  5  7  1  0  0  0  0
  5 10  1  0  0  0  0
  6  8  1  0  0  0  0
  6 29  1  0  0  0  0
  6 30  1  0  0  0  0
  7  9  1  0  0  0  0
  7 31  1  0  0  0  0
  7 32  1  0  0  0  0
  8 33  1  0  0  0  0
  8 34  1  0  0  0  0
  9 35  1  0  0  0  0
  9 36  1  0  0  0  0
 10 37  1  0  0  0  0
 10 38  1  0  0  0  0
 11 14  1  0  0  0  0
 11 39  1  0  0  0  0
 11 40  1  0  0  0  0
 12 16  2  0  0  0  0
 12 17  1  0  0  0  0
 13 15  1  0  0  0  0
 14 18  1  0  0  0  0
 14 41  1  0  0  0  0
 14 42  1  0  0  0  0
 15 20  1  0  0  0  0
 15 43  1  0  0  0  0
 15 44  1  0  0  0  0
 16 21  1  0  0  0  0
 16 45  1  0  0  0  0
 17 22  2  0  0  0  0
 17 46  1  0  0  0  0
 18 23  2  0  0  0  0
 18 24  1  0  0  0  0
 19 47  1  0  0  0  0
 19 48  1  0  0  0  0
 19 49  1  0  0  0  0
 20 50  1  0  0  0  0
 20 51  1  0  0  0  0
 20 52  1  0  0  0  0
 21 25  2  0  0  0  0
 21 53  1  0  0  0  0
 22 25  1  0  0  0  0
 22 54  1  0  0  0  0
 23 26  1  0  0  0  0
 23 55  1  0  0  0  0
 24 27  2  0  0  0  0
 24 56  1  0  0  0  0
 25 57  1  0  0  0  0
 26 28  2  0  0  0  0
 26 58  1  0  0  0  0
 27 28  1  0  0  0  0
 27 59  1  0  0  0  0
 28 60  1  0  0  0  0
M  END
>  <DRUGBANK_ID>
DB09179

>  <COMMON_NAME>
R-30490

>  <CAS_NUMBER>
60618-49-7

>  <UNII>
03DNV05OD4

$$$$
