
 OpenBabel10282417072D

 58 61  0  0  0  0  0  0  0  0999 V2000
   -1.2957   -3.2236    0.0000 C   0  0  0  0  0  0  0  0  0  0  0  0
   -1.7082   -2.5091    0.0000 C   0  0  0  0  0  0  0  0  0  0  0  0
   -2.5332   -2.5091    0.0000 C   0  0  0  0  0  0  0  0  0  0  0  0
   -1.2957   -1.7947    0.0000 C   0  0  0  0  0  0  0  0  0  0  0  0
   -0.4752   -1.7084    0.0000 C   0  0  0  0  0  0  0  0  0  0  0  0
    0.0768   -2.3215    0.0000 C   0  0  0  0  0  0  0  0  0  0  0  0
    0.8838   -2.1500    0.0000 C   0  0  0  0  0  0  0  0  0  0  0  0
    1.1387   -1.3654    0.0000 C   0  0  0  0  0  0  0  0  0  0  0  0
    0.6538   -0.6979    0.0000 N   0  0  0  0  0  0  0  0  0  0  0  0
    1.1387   -0.0305    0.0000 O   0  0  0  0  0  0  0  0  0  0  0  0
    1.9233   -0.2854    0.0000 C   0  0  0  0  0  0  0  0  0  0  0  0
    2.6378    0.1271    0.0000 C   0  0  0  0  0  0  0  0  0  0  0  0
    3.3523   -0.2854    0.0000 C   0  0  0  0  0  0  0  0  0  0  0  0
    4.0668    0.1271    0.0000 O   0  0  0  0  0  0  0  0  0  0  0  0
    4.7812   -0.2854    0.0000 C   0  0  0  0  0  0  0  0  0  0  0  0
    5.4957    0.1271    0.0000 C   0  0  0  0  0  0  0  0  0  0  0  0
    6.2102   -0.2854    0.0000 O   0  0  0  0  0  0  0  0  0  0  0  0
    5.4957    0.9521    0.0000 O   0  0  0  0  0  0  0  0  0  0  0  0
    3.3523   -1.1104    0.0000 C   0  0  0  0  0  0  0  0  0  0  0  0
    4.0668   -1.5229    0.0000 C   0  0  0  0  0  0  0  0  0  0  0  0
    2.6378   -1.5229    0.0000 C   0  0  0  0  0  0  0  0  0  0  0  0
    1.9233   -1.1104    0.0000 C   0  0  0  0  0  0  0  0  0  0  0  0
   -0.3037   -0.9015    0.0000 S   0  0  0  0  0  0  0  0  0  0  0  0
   -1.0182   -0.4890    0.0000 C   0  0  0  0  0  0  0  0  0  0  0  0
   -1.6313   -1.0410    0.0000 N   0  0  0  0  0  0  0  0  0  0  0  0
   -1.1044    0.3315    0.0000 C   0  0  0  0  0  0  0  0  0  0  0  0
   -1.8581    0.6671    0.0000 C   0  0  0  0  0  0  0  0  0  0  0  0
   -1.9443    1.4876    0.0000 C   0  0  0  0  0  0  0  0  0  0  0  0
   -1.2769    1.9725    0.0000 C   0  0  0  0  0  0  0  0  0  0  0  0
   -0.5232    1.6369    0.0000 C   0  0  0  0  0  0  0  0  0  0  0  0
   -0.4370    0.8164    0.0000 C   0  0  0  0  0  0  0  0  0  0  0  0
   -1.3631    2.7930    0.0000 C   0  0  0  0  0  0  0  0  0  0  0  0
   -1.4493    3.6134    0.0000 F   0  0  0  0  0  0  0  0  0  0  0  0
   -0.5426    2.8792    0.0000 F   0  0  0  0  0  0  0  0  0  0  0  0
   -2.1836    2.7067    0.0000 F   0  0  0  0  0  0  0  0  0  0  0  0
   -1.8307   -4.1502    0.0000 H   0  0  0  0  0  0  0  0  0  0  0  0
   -0.2257   -3.2236    0.0000 H   0  0  0  0  0  0  0  0  0  0  0  0
   -0.7607   -4.1503    0.0000 H   0  0  0  0  0  0  0  0  0  0  0  0
   -2.2432   -1.5824    0.0000 H   0  0  0  0  0  0  0  0  0  0  0  0
   -3.0682   -1.5825    0.0000 H   0  0  0  0  0  0  0  0  0  0  0  0
   -3.0682   -3.4357    0.0000 H   0  0  0  0  0  0  0  0  0  0  0  0
   -3.6032   -2.5091    0.0000 H   0  0  0  0  0  0  0  0  0  0  0  0
   -0.2539   -3.3391    0.0000 H   0  0  0  0  0  0  0  0  0  0  0  0
    0.7927   -3.1167    0.0000 H   0  0  0  0  0  0  0  0  0  0  0  0
    1.5998   -2.9452    0.0000 H   0  0  0  0  0  0  0  0  0  0  0  0
    1.9304   -1.9275    0.0000 H   0  0  0  0  0  0  0  0  0  0  0  0
    2.6378    1.1591    0.0000 H   0  0  0  0  0  0  0  0  0  0  0  0
    4.7812   -1.3554    0.0000 H   0  0  0  0  0  0  0  0  0  0  0  0
    5.7078   -0.8204    0.0000 H   0  0  0  0  0  0  0  0  0  0  0  0
    6.2102   -1.2224    0.0000 H   0  0  0  0  0  0  0  0  0  0  0  0
    4.0668   -2.5929    0.0000 H   0  0  0  0  0  0  0  0  0  0  0  0
    4.9934   -0.9879    0.0000 H   0  0  0  0  0  0  0  0  0  0  0  0
    4.9935   -2.0579    0.0000 H   0  0  0  0  0  0  0  0  0  0  0  0
    2.6378   -2.5549    0.0000 H   0  0  0  0  0  0  0  0  0  0  0  0
   -2.6930    0.0605    0.0000 H   0  0  0  0  0  0  0  0  0  0  0  0
   -2.8871    1.9074    0.0000 H   0  0  0  0  0  0  0  0  0  0  0  0
    0.3117    2.2435    0.0000 H   0  0  0  0  0  0  0  0  0  0  0  0
    0.5058    0.3966    0.0000 H   0  0  0  0  0  0  0  0  0  0  0  0
  1  2  1  0  0  0  0
  1 36  1  0  0  0  0
  1 37  1  0  0  0  0
  1 38  1  0  0  0  0
  2  3  1  0  0  0  0
  2  4  1  0  0  0  0
  2 39  1  0  0  0  0
  3 40  1  0  0  0  0
  3 41  1  0  0  0  0
  3 42  1  0  0  0  0
  4  5  2  0  0  0  0
  4 25  1  0  0  0  0
  5  6  1  0  0  0  0
  5 23  1  0  0  0  0
  6  7  1  0  0  0  0
  6 43  1  0  0  0  0
  6 44  1  0  0  0  0
  7  8  1  0  0  0  0
  7 45  1  0  0  0  0
  7 46  1  0  0  0  0
  8  9  2  0  0  0  0
  8 22  1  0  0  0  0
  9 10  1  0  0  0  0
 10 11  1  0  0  0  0
 11 12  2  0  0  0  0
 11 22  1  0  0  0  0
 12 13  1  0  0  0  0
 12 47  1  0  0  0  0
 13 14  1  0  0  0  0
 13 19  2  0  0  0  0
 14 15  1  0  0  0  0
 15 16  1  0  0  0  0
 15 48  1  0  0  0  0
 15 49  1  0  0  0  0
 16 17  1  0  0  0  0
 16 18  2  0  0  0  0
 17 50  1  0  0  0  0
 19 20  1  0  0  0  0
 19 21  1  0  0  0  0
 20 51  1  0  0  0  0
 20 52  1  0  0  0  0
 20 53  1  0  0  0  0
 21 22  2  0  0  0  0
 21 54  1  0  0  0  0
 23 24  1  0  0  0  0
 24 25  2  0  0  0  0
 24 26  1  0  0  0  0
 26 27  2  0  0  0  0
 26 31  1  0  0  0  0
 27 28  1  0  0  0  0
 27 55  1  0  0  0  0
 28 29  2  0  0  0  0
 28 56  1  0  0  0  0
 29 30  1  0  0  0  0
 29 32  1  0  0  0  0
 30 31  2  0  0  0  0
 30 57  1  0  0  0  0
 31 58  1  0  0  0  0
 32 33  1  0  0  0  0
 32 34  1  0  0  0  0
 32 35  1  0  0  0  0
M  END
>  <DRUGBANK_ID>
DB16169

>  <COMMON_NAME>
Fonadelpar

>  <CAS_NUMBER>
515138-06-4

>  <UNII>
FK5ZAD810Z

>  <SYNONYMS>
Fonadelpar

$$$$
