2C7
 OpenBabel10282417072D

 45 47  0  0  0  0  0  0  0  0999 V2000
   -1.6469   -1.1445    0.0000 C   0  0  0  0  0  0  0  0  0  0  0  0
   -1.8901   -1.9328    0.0000 C   0  0  0  0  0  0  0  0  0  0  0  0
   -2.6580   -2.2342    0.0000 C   0  0  0  0  0  0  0  0  0  0  0  0
   -3.3725   -1.8217    0.0000 C   0  0  0  0  0  0  0  0  0  0  0  0
   -3.4955   -1.0060    0.0000 C   0  0  0  0  0  0  0  0  0  0  0  0
   -2.9343   -0.4012    0.0000 C   0  0  0  0  0  0  0  0  0  0  0  0
   -2.1116   -0.4628    0.0000 C   0  0  0  0  0  0  0  0  0  0  0  0
   -1.6991    0.2516    0.0000 C   0  0  0  0  0  0  0  0  0  0  0  0
   -0.8741    0.2516    0.0000 C   0  0  0  0  0  0  0  0  0  0  0  0
   -0.3892   -0.4158    0.0000 C   0  0  0  0  0  0  0  0  0  0  0  0
   -0.3892    0.9191    0.0000 S   0  0  0  0  0  0  0  0  0  0  0  0
   -1.1037    1.3316    0.0000 O   0  0  0  0  0  0  0  0  0  0  0  0
   -0.0536    1.6727    0.0000 O   0  0  0  0  0  0  0  0  0  0  0  0
    0.3954    0.6641    0.0000 C   0  0  0  0  0  0  0  0  0  0  0  0
    1.1099    1.0766    0.0000 C   0  0  0  0  0  0  0  0  0  0  0  0
    0.3954   -0.1609    0.0000 C   0  0  0  0  0  0  0  0  0  0  0  0
    1.1099   -0.5734    0.0000 C   0  0  0  0  0  0  0  0  0  0  0  0
    1.8244   -0.1609    0.0000 C   0  0  0  0  0  0  0  0  0  0  0  0
    1.8244    0.6641    0.0000 C   0  0  0  0  0  0  0  0  0  0  0  0
    2.5388    1.0766    0.0000 O   0  0  0  0  0  0  0  0  0  0  0  0
    2.5388    1.9016    0.0000 S   0  0  0  0  0  0  0  0  0  0  0  0
    2.5388    2.7266    0.0000 O   0  0  0  0  0  0  0  0  0  0  0  0
    3.3638    1.9016    0.0000 O   0  0  0  0  0  0  0  0  0  0  0  0
    1.7138    1.9016    0.0000 N   0  0  0  0  0  0  0  0  0  0  0  0
   -0.5888   -0.9851    0.0000 H   0  0  0  0  0  0  0  0  0  0  0  0
   -1.2189   -0.1638    0.0000 H   0  0  0  0  0  0  0  0  0  0  0  0
   -1.1057   -2.6606    0.0000 H   0  0  0  0  0  0  0  0  0  0  0  0
   -2.0890   -2.9841    0.0000 H   0  0  0  0  0  0  0  0  0  0  0  0
   -2.7379   -3.3012    0.0000 H   0  0  0  0  0  0  0  0  0  0  0  0
   -3.6040   -2.7342    0.0000 H   0  0  0  0  0  0  0  0  0  0  0  0
   -4.2566   -2.4245    0.0000 H   0  0  0  0  0  0  0  0  0  0  0  0
   -4.3532   -1.3939    0.0000 H   0  0  0  0  0  0  0  0  0  0  0  0
   -4.5180   -0.6906    0.0000 H   0  0  0  0  0  0  0  0  0  0  0  0
   -3.7724    0.0275    0.0000 H   0  0  0  0  0  0  0  0  0  0  0  0
   -3.3252    0.5948    0.0000 H   0  0  0  0  0  0  0  0  0  0  0  0
   -2.2989    0.4597    0.0000 H   0  0  0  0  0  0  0  0  0  0  0  0
   -2.6116    0.4832    0.0000 H   0  0  0  0  0  0  0  0  0  0  0  0
   -2.2341    1.1783    0.0000 H   0  0  0  0  0  0  0  0  0  0  0  0
   -1.1641    1.1782    0.0000 H   0  0  0  0  0  0  0  0  0  0  0  0
   -0.7081   -1.3973    0.0000 H   0  0  0  0  0  0  0  0  0  0  0  0
    1.1099    2.1086    0.0000 H   0  0  0  0  0  0  0  0  0  0  0  0
    1.1099   -1.6054    0.0000 H   0  0  0  0  0  0  0  0  0  0  0  0
    2.7181   -0.6769    0.0000 H   0  0  0  0  0  0  0  0  0  0  0  0
    1.2038    2.7849    0.0000 H   0  0  0  0  0  0  0  0  0  0  0  0
    1.2038    1.0183    0.0000 H   0  0  0  0  0  0  0  0  0  0  0  0
  1  2  1  0  0  0  0
  1  7  1  0  0  0  0
  1 25  1  0  0  0  0
  1 26  1  0  0  0  0
  2  3  1  0  0  0  0
  2 27  1  0  0  0  0
  2 28  1  0  0  0  0
  3  4  1  0  0  0  0
  3 29  1  0  0  0  0
  3 30  1  0  0  0  0
  4  5  1  0  0  0  0
  4 31  1  0  0  0  0
  4 32  1  0  0  0  0
  5  6  1  0  0  0  0
  5 33  1  0  0  0  0
  5 34  1  0  0  0  0
  6  7  1  0  0  0  0
  6 35  1  0  0  0  0
  6 36  1  0  0  0  0
  7  8  1  0  0  0  0
  7 37  1  0  0  0  0
  8  9  1  0  0  0  0
  8 38  1  0  0  0  0
  8 39  1  0  0  0  0
  9 10  2  0  0  0  0
  9 11  1  0  0  0  0
 10 16  1  0  0  0  0
 10 40  1  0  0  0  0
 11 12  2  0  0  0  0
 11 13  2  0  0  0  0
 11 14  1  0  0  0  0
 14 15  2  0  0  0  0
 14 16  1  0  0  0  0
 15 19  1  0  0  0  0
 15 41  1  0  0  0  0
 16 17  2  0  0  0  0
 17 18  1  0  0  0  0
 17 42  1  0  0  0  0
 18 19  2  0  0  0  0
 18 43  1  0  0  0  0
 19 20  1  0  0  0  0
 20 21  1  0  0  0  0
 21 22  2  0  0  0  0
 21 23  2  0  0  0  0
 21 24  1  0  0  0  0
 24 44  1  0  0  0  0
 24 45  1  0  0  0  0
M  END
>  <DRUGBANK_ID>
DB06954

>  <COMMON_NAME>
2-(cycloheptylmethyl)-1,1-dioxido-1-benzothiophen-6-yl sulfamate

$$$$
