
 OpenBabel10282417072D

 23 22  0  0  0  0  0  0  0  0999 V2000
    1.4289   -4.7289    0.0000 N   0  0  0  0  0  0  0  0  0  0  0  0
    1.4289   -3.9039    0.0000 C   0  0  0  0  0  0  0  0  0  0  0  0
    2.1434   -3.4914    0.0000 O   0  0  0  0  0  0  0  0  0  0  0  0
    0.7145   -3.4914    0.0000 C   0  0  0  0  0  0  0  0  0  0  0  0
    0.7145   -2.6664    0.0000 N   0  0  0  0  0  0  0  0  0  0  0  0
    0.0000   -2.2539    0.0000 C   0  0  0  0  0  0  0  0  0  0  0  0
    0.0000   -1.4289    0.0000 C   0  0  0  0  0  0  0  0  0  0  0  0
   -0.7145   -1.0164    0.0000 O   0  0  0  0  0  0  0  0  0  0  0  0
    0.7145   -1.0164    0.0000 O   0  0  0  0  0  0  0  0  0  0  0  0
    1.4289   -2.2539    0.0000 C   0  0  0  0  0  0  0  0  0  0  0  0
    1.4289   -1.4289    0.0000 C   0  0  0  0  0  0  0  0  0  0  0  0
    1.0934   -0.6753    0.0000 O   0  0  0  0  0  0  0  0  0  0  0  0
    2.1434   -1.0164    0.0000 O   0  0  0  0  0  0  0  0  0  0  0  0
    0.5763   -5.2212    0.0000 H   0  0  0  0  0  0  0  0  0  0  0  0
    2.2815   -5.2212    0.0000 H   0  0  0  0  0  0  0  0  0  0  0  0
   -0.2122   -4.0264    0.0000 H   0  0  0  0  0  0  0  0  0  0  0  0
   -0.2121   -2.9564    0.0000 H   0  0  0  0  0  0  0  0  0  0  0  0
   -0.9266   -2.7889    0.0000 H   0  0  0  0  0  0  0  0  0  0  0  0
   -0.9266   -1.7189    0.0000 H   0  0  0  0  0  0  0  0  0  0  0  0
   -0.7145   -0.0794    0.0000 H   0  0  0  0  0  0  0  0  0  0  0  0
    2.3556   -2.7889    0.0000 H   0  0  0  0  0  0  0  0  0  0  0  0
    2.3555   -1.7189    0.0000 H   0  0  0  0  0  0  0  0  0  0  0  0
    1.6442    0.0827    0.0000 H   0  0  0  0  0  0  0  0  0  0  0  0
  1  2  1  0  0  0  0
  1 14  1  0  0  0  0
  1 15  1  0  0  0  0
  2  3  2  0  0  0  0
  2  4  1  0  0  0  0
  4  5  1  0  0  0  0
  4 16  1  0  0  0  0
  4 17  1  0  0  0  0
  5  6  1  0  0  0  0
  5 10  1  0  0  0  0
  6  7  1  0  0  0  0
  6 18  1  0  0  0  0
  6 19  1  0  0  0  0
  7  8  1  0  0  0  0
  7  9  2  0  0  0  0
  8 20  1  0  0  0  0
 10 11  1  0  0  0  0
 10 21  1  0  0  0  0
 10 22  1  0  0  0  0
 11 12  1  0  0  0  0
 11 13  2  0  0  0  0
 12 23  1  0  0  0  0
M  END
>  <DRUGBANK_ID>
DB02810

>  <SECONDARY_ACCESSION_NUMBERS>
EXPT02170

>  <COMMON_NAME>
N-(2-Acetamido)Iminodiacetic Acid

>  <CAS_NUMBER>
26239-55-4

>  <UNII>
5C4R3O704E

$$$$
