
 OpenBabel10282417072D

 64 69  0  0  0  0  0  0  0  0999 V2000
   -2.7518    4.1235    0.0000 C   0  0  0  0  0  0  0  0  0  0  0  0
   -2.0372    4.5358    0.0000 N   0  0  0  0  0  0  0  0  0  0  0  0
   -1.3253    4.1239    0.0000 N   0  0  0  0  0  0  0  0  0  0  0  0
   -1.3253    3.2986    0.0000 C   0  0  0  0  0  0  0  0  0  0  0  0
   -2.0355    2.8868    0.0000 C   0  0  0  0  0  0  0  0  0  0  0  0
   -2.7518    3.2949    0.0000 N   0  0  0  0  0  0  0  0  0  0  0  0
   -0.5404    4.3789    0.0000 C   0  0  0  0  0  0  0  0  0  0  0  0
   -0.5404    3.0436    0.0000 C   0  0  0  0  0  0  0  0  0  0  0  0
   -0.0554    3.7114    0.0000 C   0  0  0  0  0  0  0  0  0  0  0  0
    0.7695    3.7114    0.0000 C   0  0  0  0  0  0  0  0  0  0  0  0
    1.2542    3.0442    0.0000 C   0  0  0  0  0  0  0  0  0  0  0  0
    2.0385    3.2990    0.0000 N   0  0  0  0  0  0  0  0  0  0  0  0
    2.0385    4.1236    0.0000 N   0  0  0  0  0  0  0  0  0  0  0  0
    1.2542    4.3784    0.0000 C   0  0  0  0  0  0  0  0  0  0  0  0
    2.7529    2.8865    0.0000 C   0  0  0  0  0  0  0  0  0  0  0  0
   -2.0355    2.0618    0.0000 N   0  0  0  0  0  0  0  0  0  0  0  0
   -1.3209    1.6493    0.0000 C   0  0  0  0  0  0  0  0  0  0  0  0
   -1.3209    0.8243    0.0000 C   0  0  0  0  0  0  0  0  0  0  0  0
   -2.0355    0.4118    0.0000 N   0  0  0  0  0  0  0  0  0  0  0  0
   -2.7499    0.8243    0.0000 C   0  0  0  0  0  0  0  0  0  0  0  0
   -2.7499    1.6493    0.0000 C   0  0  0  0  0  0  0  0  0  0  0  0
   -2.0355   -0.4131    0.0000 C   0  0  0  0  0  0  0  0  0  0  0  0
   -1.3210   -0.8259    0.0000 N   0  0  0  0  0  0  0  0  0  0  0  0
   -1.3218   -1.6483    0.0000 C   0  0  0  0  0  0  0  0  0  0  0  0
   -2.0365   -2.0610    0.0000 C   0  0  0  0  0  0  0  0  0  0  0  0
   -2.7482   -1.6519    0.0000 C   0  0  0  0  0  0  0  0  0  0  0  0
   -2.7529   -0.8274    0.0000 N   0  0  0  0  0  0  0  0  0  0  0  0
   -2.0365   -2.8860    0.0000 C   0  0  2  0  0  0  0  0  0  0  0  0
   -1.3220   -3.2984    0.0000 C   0  0  0  0  0  0  0  0  0  0  0  0
   -0.6073   -2.8861    0.0000 C   0  0  0  0  0  0  0  0  0  0  0  0
    0.1045   -3.2980    0.0000 C   0  0  0  0  0  0  0  0  0  0  0  0
    0.1045   -4.1233    0.0000 C   0  0  0  0  0  0  0  0  0  0  0  0
   -0.6055   -4.5351    0.0000 C   0  0  0  0  0  0  0  0  0  0  0  0
   -1.3220   -4.1270    0.0000 C   0  0  0  0  0  0  0  0  0  0  0  0
    0.8190   -4.5358    0.0000 F   0  0  0  0  0  0  0  0  0  0  0  0
   -2.7510   -3.2984    0.0000 N   0  0  0  0  0  0  0  0  0  0  0  0
   -2.6491   -2.3338    0.0000 C   0  0  0  0  0  0  0  0  0  0  0  0
   -3.6455    4.6396    0.0000 H   0  0  0  0  0  0  0  0  0  0  0  0
   -0.2215    5.3604    0.0000 H   0  0  0  0  0  0  0  0  0  0  0  0
   -0.2214    2.0621    0.0000 H   0  0  0  0  0  0  0  0  0  0  0  0
    0.9353    2.0627    0.0000 H   0  0  0  0  0  0  0  0  0  0  0  0
    0.9353    5.3599    0.0000 H   0  0  0  0  0  0  0  0  0  0  0  0
    2.7529    1.8165    0.0000 H   0  0  0  0  0  0  0  0  0  0  0  0
    3.6796    3.4215    0.0000 H   0  0  0  0  0  0  0  0  0  0  0  0
    3.6795    2.3515    0.0000 H   0  0  0  0  0  0  0  0  0  0  0  0
   -0.3943    2.1843    0.0000 H   0  0  0  0  0  0  0  0  0  0  0  0
   -0.3942    1.1143    0.0000 H   0  0  0  0  0  0  0  0  0  0  0  0
   -0.3943    0.2893    0.0000 H   0  0  0  0  0  0  0  0  0  0  0  0
   -1.3210   -0.2457    0.0000 H   0  0  0  0  0  0  0  0  0  0  0  0
   -3.6766    0.2893    0.0000 H   0  0  0  0  0  0  0  0  0  0  0  0
   -3.6765    1.3593    0.0000 H   0  0  0  0  0  0  0  0  0  0  0  0
   -3.6766    2.1843    0.0000 H   0  0  0  0  0  0  0  0  0  0  0  0
   -2.7499    2.7193    0.0000 H   0  0  0  0  0  0  0  0  0  0  0  0
   -0.4283   -2.1647    0.0000 H   0  0  0  0  0  0  0  0  0  0  0  0
   -3.6400   -2.1713    0.0000 H   0  0  0  0  0  0  0  0  0  0  0  0
   -0.6066   -1.8541    0.0000 H   0  0  0  0  0  0  0  0  0  0  0  0
    0.9985   -2.7824    0.0000 H   0  0  0  0  0  0  0  0  0  0  0  0
   -0.6015   -5.5671    0.0000 H   0  0  0  0  0  0  0  0  0  0  0  0
   -2.2142   -4.6456    0.0000 H   0  0  0  0  0  0  0  0  0  0  0  0
   -3.6343   -2.7883    0.0000 H   0  0  0  0  0  0  0  0  0  0  0  0
   -2.7511   -4.3184    0.0000 H   0  0  0  0  0  0  0  0  0  0  0  0
   -2.4261   -1.2873    0.0000 H   0  0  0  0  0  0  0  0  0  0  0  0
   -3.6669   -2.6639    0.0000 H   0  0  0  0  0  0  0  0  0  0  0  0
   -3.4439   -1.6174    0.0000 H   0  0  0  0  0  0  0  0  0  0  0  0
  1  6  1  0  0  0  0
  1 38  1  0  0  0  0
  2  1  2  0  0  0  0
  3  2  1  0  0  0  0
  3  7  1  0  0  0  0
  4  3  1  0  0  0  0
  4  8  2  0  0  0  0
  5  4  1  0  0  0  0
  5 16  1  0  0  0  0
  6  5  2  0  0  0  0
  7 39  1  0  0  0  0
  8  9  1  0  0  0  0
  8 40  1  0  0  0  0
  9  7  2  0  0  0  0
  9 10  1  0  0  0  0
 11 10  2  0  0  0  0
 11 12  1  0  0  0  0
 11 41  1  0  0  0  0
 12 13  1  0  0  0  0
 12 15  1  0  0  0  0
 13 14  2  0  0  0  0
 14 10  1  0  0  0  0
 14 42  1  0  0  0  0
 15 43  1  0  0  0  0
 15 44  1  0  0  0  0
 15 45  1  0  0  0  0
 16 21  1  0  0  0  0
 17 16  1  0  0  0  0
 17 46  1  0  0  0  0
 17 47  1  0  0  0  0
 18 17  1  0  0  0  0
 18 48  1  0  0  0  0
 18 49  1  0  0  0  0
 19 18  1  0  0  0  0
 19 22  1  0  0  0  0
 20 19  1  0  0  0  0
 20 50  1  0  0  0  0
 20 51  1  0  0  0  0
 21 20  1  0  0  0  0
 21 52  1  0  0  0  0
 21 53  1  0  0  0  0
 22 27  1  0  0  0  0
 23 22  2  0  0  0  0
 24 23  1  0  0  0  0
 24 54  1  0  0  0  0
 25 24  2  0  0  0  0
 25 28  1  0  0  0  0
 26 25  1  0  0  0  0
 26 55  1  0  0  0  0
 27 26  2  0  0  0  0
 28 29  1  0  0  0  0
 28 36  1  6  0  0  0
 28 37  1  0  0  0  0
 29 34  1  0  0  0  0
 30 29  2  0  0  0  0
 30 56  1  0  0  0  0
 31 30  1  0  0  0  0
 31 57  1  0  0  0  0
 32 31  2  0  0  0  0
 32 35  1  0  0  0  0
 33 32  1  0  0  0  0
 33 58  1  0  0  0  0
 34 33  2  0  0  0  0
 34 59  1  0  0  0  0
 36 60  1  0  0  0  0
 36 61  1  0  0  0  0
 37 62  1  0  0  0  0
 37 63  1  0  0  0  0
 37 64  1  0  0  0  0
M  END
>  <DRUGBANK_ID>
DB15233

>  <COMMON_NAME>
Avapritinib

>  <CAS_NUMBER>
1703793-34-3

>  <UNII>
513P80B4YJ

>  <SYNONYMS>
Avapritinib

$$$$
