
 OpenBabel10282417072D

177177  0  0  1  0  0  0  0  0999 V2000
   -3.5187   -2.0159    0.0000 C   0  0  0  0  0  0  0  0  0  0  0  0
   -4.2826   -2.1991    0.0000 O   0  0  0  0  0  0  0  0  0  0  0  0
   -4.9636   -2.5950    0.0000 C   0  0  0  0  0  0  0  0  0  0  0  0
   -5.6899   -2.1933    0.0000 C   0  0  2  0  0  0  0  0  0  0  0  0
   -6.4587   -1.5318    0.0000 N   0  0  0  0  0  0  0  0  0  0  0  0
   -7.3169   -1.5275    0.0000 C   0  0  0  0  0  0  0  0  0  0  0  0
   -6.5702   -0.6757    0.0000 C   0  0  0  0  0  0  0  0  0  0  0  0
   -5.7392   -3.0564    0.0000 C   0  0  0  0  0  0  0  0  0  0  0  0
   -5.2943   -3.7153    0.0000 O   0  0  0  0  0  0  0  0  0  0  0  0
   -6.3979   -3.5508    0.0000 O   0  0  0  0  0  0  0  0  0  0  0  0
   -7.2106   -3.4062    0.0000 C   0  0  2  0  0  0  0  0  0  0  0  0
   -6.9346   -2.6289    0.0000 C   0  0  0  0  0  0  0  0  0  0  0  0
   -6.1234   -2.4793    0.0000 C   0  0  0  0  0  0  0  0  0  0  0  0
   -5.8474   -1.7020    0.0000 C   0  0  0  0  0  0  0  0  0  0  0  0
   -5.0360   -1.5525    0.0000 C   0  0  0  0  0  0  0  0  0  0  0  0
   -4.7601   -0.7751    0.0000 C   0  0  0  0  0  0  0  0  0  0  0  0
   -3.9488   -0.6256    0.0000 C   0  0  0  0  0  0  0  0  0  0  0  0
   -4.1722    0.1926    0.0000 O   0  0  0  0  0  0  0  0  0  0  0  0
   -3.4138   -1.2533    0.0000 O   0  0  0  0  0  0  0  0  0  0  0  0
   -2.6026   -1.1038    0.0000 C   0  0  1  0  0  0  0  0  0  0  0  0
   -2.0674   -1.7315    0.0000 C   0  0  0  0  0  0  0  0  0  0  0  0
   -2.3435   -2.5088    0.0000 C   0  0  0  0  0  0  0  0  0  0  0  0
   -3.1547   -2.6584    0.0000 C   0  0  0  0  0  0  0  0  0  0  0  0
   -3.4308   -3.4357    0.0000 C   0  0  1  0  0  0  0  0  0  0  0  0
   -4.2419   -3.5852    0.0000 C   0  0  0  0  0  0  0  0  0  0  0  0
   -4.5181   -4.3625    0.0000 C   0  0  2  0  0  0  0  0  0  0  0  0
   -4.0806   -5.0858    0.0000 C   0  0  0  0  0  0  0  0  0  0  0  0
   -5.3292   -4.5121    0.0000 C   0  0  0  0  0  0  0  0  0  0  0  0
   -5.6053   -5.2893    0.0000 C   0  0  0  0  0  0  0  0  0  0  0  0
   -6.4165   -5.4389    0.0000 C   0  0  0  0  0  0  0  0  0  0  0  0
   -6.5947   -4.6696    0.0000 C   0  0  0  0  0  0  0  0  0  0  0  0
   -6.6926   -6.2162    0.0000 C   0  0  2  0  0  0  0  0  0  0  0  0
   -7.5038   -6.3658    0.0000 C   0  0  0  0  0  0  0  0  0  0  0  0
   -8.0389   -5.7381    0.0000 C   0  0  0  0  0  0  0  0  0  0  0  0
   -7.7629   -4.9607    0.0000 C   0  0  1  0  0  0  0  0  0  0  0  0
   -7.3426   -4.2891    0.0000 C   0  0  0  0  0  0  0  0  0  0  0  0
   -8.2979   -4.3330    0.0000 C   0  0  1  0  0  0  0  0  0  0  0  0
   -9.1300   -4.4905    0.0000 O   0  0  0  0  0  0  0  0  0  0  0  0
   -8.0219   -3.5558    0.0000 C   0  0  2  0  0  0  0  0  0  0  0  0
   -8.6287   -2.9640    0.0000 C   0  0  0  0  0  0  0  0  0  0  0  0
   -6.3218   -6.9844    0.0000 O   0  0  0  0  0  0  0  0  0  0  0  0
   -6.2621   -7.8166    0.0000 C   0  0  0  0  0  0  0  0  0  0  0  0
   -2.7274   -3.9275    0.0000 O   0  0  0  0  0  0  0  0  0  0  0  0
   -1.9653   -4.2785    0.0000 C   0  0  0  0  0  0  0  0  0  0  0  0
   -2.3259   -0.2882    0.0000 C   0  0  1  0  0  0  0  0  0  0  0  0
   -2.6010    0.5084    0.0000 C   0  0  0  0  0  0  0  0  0  0  0  0
   -1.5046   -0.0725    0.0000 C   0  0  1  0  0  0  0  0  0  0  0  0
   -1.2774    0.7373    0.0000 O   0  0  0  0  0  0  0  0  0  0  0  0
   -1.0304   -0.7775    0.0000 C   0  0  1  0  0  0  0  0  0  0  0  0
   -0.9917   -1.6189    0.0000 C   0  0  0  0  0  0  0  0  0  0  0  0
   -0.2070   -0.8587    0.0000 C   0  0  0  0  0  0  0  0  0  0  0  0
    0.3269   -1.4972    0.0000 C   0  0  0  0  0  0  0  0  0  0  0  0
    1.0826   -1.1497    0.0000 C   0  0  1  0  0  0  0  0  0  0  0  0
    0.9605   -0.3055    0.0000 O   0  0  0  0  0  0  0  0  0  0  0  0
    0.8096    0.5269    0.0000 C   0  0  0  0  0  0  0  0  0  0  0  0
    0.0112    0.3199    0.0000 O   0  0  0  0  0  0  0  0  0  0  0  0
    1.0313    1.3276    0.0000 C   0  0  2  0  0  0  0  0  0  0  0  0
    1.8489    1.4367    0.0000 C   0  0  0  0  0  0  0  0  0  0  0  0
    0.5075    2.0078    0.0000 N   0  0  0  0  0  0  0  0  0  0  0  0
   -0.3102    1.8987    0.0000 C   0  0  0  0  0  0  0  0  0  0  0  0
    0.8217    2.7704    0.0000 C   0  0  0  0  0  0  0  0  0  0  0  0
    1.6938   -1.7960    0.0000 C   0  0  2  0  0  0  0  0  0  0  0  0
    1.4353   -2.6335    0.0000 C   0  0  0  0  0  0  0  0  0  0  0  0
    2.5720   -1.7287    0.0000 C   0  0  2  0  0  0  0  0  0  0  0  0
    2.9654   -0.9318    0.0000 O   0  0  0  0  0  0  0  0  0  0  0  0
    3.0944   -0.0725    0.0000 C   0  0  0  0  0  0  0  0  0  0  0  0
    2.2750    0.0547    0.0000 C   0  0  0  0  0  0  0  0  0  0  0  0
    3.1326    0.7686    0.0000 O   0  0  0  0  0  0  0  0  0  0  0  0
    3.1805   -2.3674    0.0000 C   0  0  2  0  0  0  0  0  0  0  0  0
    3.1813   -3.2050    0.0000 C   0  0  0  0  0  0  0  0  0  0  0  0
    4.0521   -2.3639    0.0000 C   0  0  0  0  0  0  0  0  0  0  0  0
    4.4675   -3.0767    0.0000 C   0  0  0  0  0  0  0  0  0  0  0  0
    5.2923   -3.0733    0.0000 N   0  0  0  0  0  0  0  0  0  0  0  0
    5.7019   -2.3573    0.0000 C   0  0  0  0  0  0  0  0  0  0  0  0
    5.7077   -3.7860    0.0000 C   0  0  0  0  0  0  0  0  0  0  0  0
    6.5324   -3.7827    0.0000 O   0  0  0  0  0  0  0  0  0  0  0  0
   -2.7823   -2.7922    0.0000 H   0  0  0  0  0  0  0  0  0  0  0  0
   -3.2146   -0.9900    0.0000 H   0  0  0  0  0  0  0  0  0  0  0  0
   -2.4782   -1.7664    0.0000 H   0  0  0  0  0  0  0  0  0  0  0  0
   -4.9522   -3.6649    0.0000 H   0  0  0  0  0  0  0  0  0  0  0  0
   -5.8824   -3.1434    0.0000 H   0  0  0  0  0  0  0  0  0  0  0  0
   -5.0788   -1.3150    0.0000 H   0  0  0  0  0  0  0  0  0  0  0  0
   -7.8473   -0.5982    0.0000 H   0  0  0  0  0  0  0  0  0  0  0  0
   -7.8565   -2.4515    0.0000 H   0  0  0  0  0  0  0  0  0  0  0  0
   -8.3869   -1.5221    0.0000 H   0  0  0  0  0  0  0  0  0  0  0  0
   -5.7204   -0.0255    0.0000 H   0  0  0  0  0  0  0  0  0  0  0  0
   -7.5582   -0.2649    0.0000 H   0  0  0  0  0  0  0  0  0  0  0  0
   -6.7084    0.3853    0.0000 H   0  0  0  0  0  0  0  0  0  0  0  0
   -6.2856   -2.8683    0.0000 H   0  0  0  0  0  0  0  0  0  0  0  0
   -7.6288   -1.8147    0.0000 H   0  0  0  0  0  0  0  0  0  0  0  0
   -6.5765   -1.6206    0.0000 H   0  0  0  0  0  0  0  0  0  0  0  0
   -5.4539   -3.2646    0.0000 H   0  0  0  0  0  0  0  0  0  0  0  0
   -6.5169   -0.9166    0.0000 H   0  0  0  0  0  0  0  0  0  0  0  0
   -4.3665   -2.3378    0.0000 H   0  0  0  0  0  0  0  0  0  0  0  0
   -5.4297    0.0102    0.0000 H   0  0  0  0  0  0  0  0  0  0  0  0
   -3.3025   -0.2944    0.0000 H   0  0  0  0  0  0  0  0  0  0  0  0
   -1.0151   -1.5375    0.0000 H   0  0  0  0  0  0  0  0  0  0  0  0
   -1.3732   -2.5458    0.0000 H   0  0  0  0  0  0  0  0  0  0  0  0
   -1.6740   -3.2942    0.0000 H   0  0  0  0  0  0  0  0  0  0  0  0
   -3.8242   -1.8730    0.0000 H   0  0  0  0  0  0  0  0  0  0  0  0
   -2.4117   -3.1096    0.0000 H   0  0  0  0  0  0  0  0  0  0  0  0
   -4.9360   -2.7708    0.0000 H   0  0  0  0  0  0  0  0  0  0  0  0
   -5.2942   -3.7791    0.0000 H   0  0  0  0  0  0  0  0  0  0  0  0
   -3.4536   -4.2543    0.0000 H   0  0  0  0  0  0  0  0  0  0  0  0
   -4.5966   -6.0232    0.0000 H   0  0  0  0  0  0  0  0  0  0  0  0
   -3.0108   -5.0640    0.0000 H   0  0  0  0  0  0  0  0  0  0  0  0
   -3.5268   -6.0013    0.0000 H   0  0  0  0  0  0  0  0  0  0  0  0
   -6.0233   -3.6978    0.0000 H   0  0  0  0  0  0  0  0  0  0  0  0
   -6.3815   -4.7061    0.0000 H   0  0  0  0  0  0  0  0  0  0  0  0
   -4.9358   -6.0747    0.0000 H   0  0  0  0  0  0  0  0  0  0  0  0
   -5.8127   -3.9393    0.0000 H   0  0  0  0  0  0  0  0  0  0  0  0
   -7.6182   -4.3575    0.0000 H   0  0  0  0  0  0  0  0  0  0  0  0
   -6.8362   -3.6272    0.0000 H   0  0  0  0  0  0  0  0  0  0  0  0
   -5.6242   -6.1582    0.0000 H   0  0  0  0  0  0  0  0  0  0  0  0
   -7.8619   -7.3741    0.0000 H   0  0  0  0  0  0  0  0  0  0  0  0
   -8.5561   -6.5598    0.0000 H   0  0  0  0  0  0  0  0  0  0  0  0
   -9.0912   -5.9322    0.0000 H   0  0  0  0  0  0  0  0  0  0  0  0
   -8.7331   -4.9239    0.0000 H   0  0  0  0  0  0  0  0  0  0  0  0
   -6.7995   -5.4263    0.0000 H   0  0  0  0  0  0  0  0  0  0  0  0
   -6.2733   -4.3272    0.0000 H   0  0  0  0  0  0  0  0  0  0  0  0
   -7.8443   -3.3440    0.0000 H   0  0  0  0  0  0  0  0  0  0  0  0
   -6.7750   -3.3821    0.0000 H   0  0  0  0  0  0  0  0  0  0  0  0
   -8.6537   -5.3421    0.0000 H   0  0  0  0  0  0  0  0  0  0  0  0
   -9.7628   -3.7553    0.0000 H   0  0  0  0  0  0  0  0  0  0  0  0
   -9.0641   -3.7980    0.0000 H   0  0  0  0  0  0  0  0  0  0  0  0
   -8.3647   -1.9271    0.0000 H   0  0  0  0  0  0  0  0  0  0  0  0
   -9.6587   -3.2538    0.0000 H   0  0  0  0  0  0  0  0  0  0  0  0
   -9.3947   -2.2169    0.0000 H   0  0  0  0  0  0  0  0  0  0  0  0
   -7.1481   -8.4165    0.0000 H   0  0  0  0  0  0  0  0  0  0  0  0
   -5.2995   -8.2839    0.0000 H   0  0  0  0  0  0  0  0  0  0  0  0
   -6.1855   -8.8839    0.0000 H   0  0  0  0  0  0  0  0  0  0  0  0
   -1.8670   -5.3440    0.0000 H   0  0  0  0  0  0  0  0  0  0  0  0
   -1.0917   -3.6606    0.0000 H   0  0  0  0  0  0  0  0  0  0  0  0
   -0.9934   -4.7261    0.0000 H   0  0  0  0  0  0  0  0  0  0  0  0
   -1.8216    0.6555    0.0000 H   0  0  0  0  0  0  0  0  0  0  0  0
   -1.8997    1.3166    0.0000 H   0  0  0  0  0  0  0  0  0  0  0  0
   -3.6515    0.7116    0.0000 H   0  0  0  0  0  0  0  0  0  0  0  0
   -2.9503    1.5198    0.0000 H   0  0  0  0  0  0  0  0  0  0  0  0
   -2.2549    0.6904    0.0000 H   0  0  0  0  0  0  0  0  0  0  0  0
   -0.3376    0.9773    0.0000 H   0  0  0  0  0  0  0  0  0  0  0  0
   -2.0464   -1.1131    0.0000 H   0  0  0  0  0  0  0  0  0  0  0  0
   -1.8928   -2.1959    0.0000 H   0  0  0  0  0  0  0  0  0  0  0  0
   -0.0415   -2.1108    0.0000 H   0  0  0  0  0  0  0  0  0  0  0  0
   -0.9425   -2.6878    0.0000 H   0  0  0  0  0  0  0  0  0  0  0  0
    0.2931    0.0872    0.0000 H   0  0  0  0  0  0  0  0  0  0  0  0
    0.8571   -0.7465    0.0000 H   0  0  0  0  0  0  0  0  0  0  0  0
    0.0916   -2.5410    0.0000 H   0  0  0  0  0  0  0  0  0  0  0  0
    1.1584   -2.1706    0.0000 H   0  0  0  0  0  0  0  0  0  0  0  0
    0.1426   -0.6385    0.0000 H   0  0  0  0  0  0  0  0  0  0  0  0
    1.7342    0.5208    0.0000 H   0  0  0  0  0  0  0  0  0  0  0  0
    2.5018    0.5890    0.0000 H   0  0  0  0  0  0  0  0  0  0  0  0
    2.2566    2.4260    0.0000 H   0  0  0  0  0  0  0  0  0  0  0  0
    2.9095    1.5782    0.0000 H   0  0  0  0  0  0  0  0  0  0  0  0
   -0.9631    2.7465    0.0000 H   0  0  0  0  0  0  0  0  0  0  0  0
   -0.7180    0.9094    0.0000 H   0  0  0  0  0  0  0  0  0  0  0  0
   -1.3708    1.7572    0.0000 H   0  0  0  0  0  0  0  0  0  0  0  0
    1.8823    2.9121    0.0000 H   0  0  0  0  0  0  0  0  0  0  0  0
    0.1687    3.6181    0.0000 H   0  0  0  0  0  0  0  0  0  0  0  0
    1.2293    3.7597    0.0000 H   0  0  0  0  0  0  0  0  0  0  0  0
    0.6517   -2.0390    0.0000 H   0  0  0  0  0  0  0  0  0  0  0  0
    0.3921   -2.8714    0.0000 H   0  0  0  0  0  0  0  0  0  0  0  0
    2.1629   -3.4180    0.0000 H   0  0  0  0  0  0  0  0  0  0  0  0
    1.1197   -3.6559    0.0000 H   0  0  0  0  0  0  0  0  0  0  0  0
    1.9728   -0.8422    0.0000 H   0  0  0  0  0  0  0  0  0  0  0  0
    1.8885    1.0524    0.0000 H   0  0  0  0  0  0  0  0  0  0  0  0
    1.6042   -0.7789    0.0000 H   0  0  0  0  0  0  0  0  0  0  0  0
    1.2177    0.2188    0.0000 H   0  0  0  0  0  0  0  0  0  0  0  0
    2.1873   -2.7653    0.0000 H   0  0  0  0  0  0  0  0  0  0  0  0
    2.2552   -3.7409    0.0000 H   0  0  0  0  0  0  0  0  0  0  0  0
    4.1085   -3.7391    0.0000 H   0  0  0  0  0  0  0  0  0  0  0  0
    3.1823   -4.2750    0.0000 H   0  0  0  0  0  0  0  0  0  0  0  0
    4.5645   -1.4681    0.0000 H   0  0  0  0  0  0  0  0  0  0  0  0
    3.9552   -3.9725    0.0000 H   0  0  0  0  0  0  0  0  0  0  0  0
    6.7719   -2.3531    0.0000 H   0  0  0  0  0  0  0  0  0  0  0  0
    5.1632   -1.4328    0.0000 H   0  0  0  0  0  0  0  0  0  0  0  0
    6.2332   -1.4285    0.0000 H   0  0  0  0  0  0  0  0  0  0  0  0
    5.1953   -4.6818    0.0000 H   0  0  0  0  0  0  0  0  0  0  0  0
  1  2  1  0  0  0  0
  1 77  1  0  0  0  0
  1 78  1  0  0  0  0
  1 79  1  0  0  0  0
  2  3  1  0  0  0  0
  3  4  1  0  0  0  0
  3 80  1  0  0  0  0
  3 81  1  0  0  0  0
  4  5  1  0  0  0  0
  4  8  1  0  0  0  0
  4 82  1  6  0  0  0
  5  6  1  0  0  0  0
  5  7  1  0  0  0  0
  6 83  1  0  0  0  0
  6 84  1  0  0  0  0
  6 85  1  0  0  0  0
  7 86  1  0  0  0  0
  7 87  1  0  0  0  0
  7 88  1  0  0  0  0
  8  9  2  0  0  0  0
  8 10  1  0  0  0  0
 11 10  1  0  0  0  0
 11 12  1  0  0  0  0
 11 39  1  0  0  0  0
 11 89  1  6  0  0  0
 12 13  1  0  0  0  0
 12 90  1  0  0  0  0
 12 91  1  0  0  0  0
 13 14  2  0  0  0  0
 13 92  1  0  0  0  0
 14 15  1  0  0  0  0
 14 93  1  0  0  0  0
 15 16  2  0  0  0  0
 15 94  1  0  0  0  0
 16 17  1  0  0  0  0
 16 95  1  0  0  0  0
 17 18  2  0  0  0  0
 17 19  1  0  0  0  0
 19 20  1  0  0  0  0
 20 21  1  0  0  0  0
 20 45  1  0  0  0  0
 20 96  1  1  0  0  0
 21 22  1  0  0  0  0
 21 97  1  0  0  0  0
 21 98  1  0  0  0  0
 22 23  2  0  0  0  0
 22 99  1  0  0  0  0
 23 24  1  0  0  0  0
 23100  1  0  0  0  0
 24 25  1  0  0  0  0
 24 43  1  0  0  0  0
 24101  1  1  0  0  0
 25 26  1  0  0  0  0
 25102  1  0  0  0  0
 25103  1  0  0  0  0
 26 27  1  0  0  0  0
 26 28  1  0  0  0  0
 26104  1  1  0  0  0
 27105  1  0  0  0  0
 27106  1  0  0  0  0
 27107  1  0  0  0  0
 28 29  1  0  0  0  0
 28108  1  0  0  0  0
 28109  1  0  0  0  0
 29 30  2  0  0  0  0
 29110  1  0  0  0  0
 30 31  1  0  0  0  0
 30 32  1  0  0  0  0
 31111  1  0  0  0  0
 31112  1  0  0  0  0
 31113  1  0  0  0  0
 32 33  1  0  0  0  0
 32 41  1  0  0  0  0
 32114  1  6  0  0  0
 33 34  1  0  0  0  0
 33115  1  0  0  0  0
 33116  1  0  0  0  0
 34 35  1  0  0  0  0
 34117  1  0  0  0  0
 34118  1  0  0  0  0
 35 36  1  0  0  0  0
 35 37  1  0  0  0  0
 35119  1  1  0  0  0
 36120  1  0  0  0  0
 36121  1  0  0  0  0
 36122  1  0  0  0  0
 37 38  1  0  0  0  0
 37 39  1  0  0  0  0
 37123  1  6  0  0  0
 38124  1  0  0  0  0
 39 40  1  0  0  0  0
 39125  1  1  0  0  0
 40126  1  0  0  0  0
 40127  1  0  0  0  0
 40128  1  0  0  0  0
 41 42  1  0  0  0  0
 42129  1  0  0  0  0
 42130  1  0  0  0  0
 42131  1  0  0  0  0
 43 44  1  0  0  0  0
 44132  1  0  0  0  0
 44133  1  0  0  0  0
 44134  1  0  0  0  0
 45 46  1  0  0  0  0
 45 47  1  0  0  0  0
 45135  1  6  0  0  0
 46136  1  0  0  0  0
 46137  1  0  0  0  0
 46138  1  0  0  0  0
 47 48  1  0  0  0  0
 47 49  1  0  0  0  0
 47139  1  6  0  0  0
 48140  1  0  0  0  0
 49 50  1  0  0  0  0
 49 51  1  0  0  0  0
 49141  1  1  0  0  0
 50142  1  0  0  0  0
 50143  1  0  0  0  0
 50144  1  0  0  0  0
 51 52  1  0  0  0  0
 51145  1  0  0  0  0
 51146  1  0  0  0  0
 52 53  1  0  0  0  0
 52147  1  0  0  0  0
 52148  1  0  0  0  0
 53 54  1  0  0  0  0
 53 62  1  0  0  0  0
 53149  1  6  0  0  0
 54 55  1  0  0  0  0
 55 56  2  0  0  0  0
 55 57  1  0  0  0  0
 57 58  1  0  0  0  0
 57 59  1  0  0  0  0
 57150  1  6  0  0  0
 58151  1  0  0  0  0
 58152  1  0  0  0  0
 58153  1  0  0  0  0
 59 60  1  0  0  0  0
 59 61  1  0  0  0  0
 60154  1  0  0  0  0
 60155  1  0  0  0  0
 60156  1  0  0  0  0
 61157  1  0  0  0  0
 61158  1  0  0  0  0
 61159  1  0  0  0  0
 62 63  1  0  0  0  0
 62 64  1  0  0  0  0
 62160  1  6  0  0  0
 63161  1  0  0  0  0
 63162  1  0  0  0  0
 63163  1  0  0  0  0
 64 65  1  0  0  0  0
 64 69  1  0  0  0  0
 64164  1  1  0  0  0
 65 66  1  0  0  0  0
 66 67  1  0  0  0  0
 66 68  2  0  0  0  0
 67165  1  0  0  0  0
 67166  1  0  0  0  0
 67167  1  0  0  0  0
 69 70  1  0  0  0  0
 69 71  1  0  0  0  0
 69168  1  6  0  0  0
 70169  1  0  0  0  0
 70170  1  0  0  0  0
 70171  1  0  0  0  0
 71 72  2  0  0  0  0
 71172  1  0  0  0  0
 72 73  1  0  0  0  0
 72173  1  0  0  0  0
 73 74  1  0  0  0  0
 73 75  1  0  0  0  0
 74174  1  0  0  0  0
 74175  1  0  0  0  0
 74176  1  0  0  0  0
 75 76  2  0  0  0  0
 75177  1  0  0  0  0
M  END
>  <DRUGBANK_ID>
DB04629

>  <COMMON_NAME>
Aplyronine A

$$$$
