
 OpenBabel10282417072D

 43 44  0  0  0  0  0  0  0  0999 V2000
    2.8579    0.8250    0.0000 C   0  0  0  0  0  0  0  0  0  0  0  0
    2.1434    2.0625    0.0000 C   0  0  0  0  0  0  0  0  0  0  0  0
   -3.5724   -1.2374    0.0000 C   0  0  0  0  0  0  0  0  0  0  0  0
    0.0000   -1.6500    0.0000 C   0  0  0  0  0  0  0  0  0  0  0  0
   -2.1434    1.2374    0.0000 C   0  0  0  0  0  0  0  0  0  0  0  0
   -1.4289    0.0000    0.0000 C   0  0  0  0  0  0  0  0  0  0  0  0
   -2.8579    0.8250    0.0000 C   0  0  0  0  0  0  0  0  0  0  0  0
   -2.1434   -0.4125    0.0000 C   0  0  0  0  0  0  0  0  0  0  0  0
    0.7145   -1.2374    0.0000 C   0  0  0  0  0  0  0  0  0  0  0  0
   -0.7145   -1.2374    0.0000 C   0  0  0  0  0  0  0  0  0  0  0  0
    1.4289    0.8250    0.0000 C   0  0  0  0  0  0  0  0  0  0  0  0
    0.7145    1.2374    0.0000 C   0  0  0  0  0  0  0  0  0  0  0  0
   -0.7145    1.2374    0.0000 C   0  0  0  0  0  0  0  0  0  0  0  0
   -1.4289    0.8250    0.0000 C   0  0  0  0  0  0  0  0  0  0  0  0
   -2.8579    0.0000    0.0000 C   0  0  0  0  0  0  0  0  0  0  0  0
    0.0000    0.0000    0.0000 C   0  0  0  0  0  0  0  0  0  0  0  0
    0.7145   -0.4125    0.0000 N   0  0  0  0  0  0  0  0  0  0  0  0
   -0.7145   -0.4125    0.0000 N   0  0  0  0  0  0  0  0  0  0  0  0
    2.1434    1.2374    0.0000 N   0  0  0  0  0  0  0  0  0  0  0  0
    0.0000    0.8250    0.0000 N   0  0  0  0  0  0  0  0  0  0  0  0
   -3.5724   -0.4125    0.0000 O   0  0  0  0  0  0  0  0  0  0  0  0
    2.8580   -0.2450    0.0000 H   0  0  0  0  0  0  0  0  0  0  0  0
    3.7845    1.3601    0.0000 H   0  0  0  0  0  0  0  0  0  0  0  0
    3.7846    0.2901    0.0000 H   0  0  0  0  0  0  0  0  0  0  0  0
    3.0700    2.5975    0.0000 H   0  0  0  0  0  0  0  0  0  0  0  0
    1.2168    2.5975    0.0000 H   0  0  0  0  0  0  0  0  0  0  0  0
    2.1434    3.1325    0.0000 H   0  0  0  0  0  0  0  0  0  0  0  0
   -4.4990   -1.7724    0.0000 H   0  0  0  0  0  0  0  0  0  0  0  0
   -2.6458   -1.7724    0.0000 H   0  0  0  0  0  0  0  0  0  0  0  0
   -3.5724   -2.3074    0.0000 H   0  0  0  0  0  0  0  0  0  0  0  0
    0.0000   -2.6820    0.0000 H   0  0  0  0  0  0  0  0  0  0  0  0
   -2.1434    2.2694    0.0000 H   0  0  0  0  0  0  0  0  0  0  0  0
   -0.5352   -0.5160    0.0000 H   0  0  0  0  0  0  0  0  0  0  0  0
   -3.7516    1.3411    0.0000 H   0  0  0  0  0  0  0  0  0  0  0  0
   -2.1434   -1.4445    0.0000 H   0  0  0  0  0  0  0  0  0  0  0  0
    1.6083   -1.7534    0.0000 H   0  0  0  0  0  0  0  0  0  0  0  0
   -1.6083   -1.7534    0.0000 H   0  0  0  0  0  0  0  0  0  0  0  0
    1.4289   -0.2450    0.0000 H   0  0  0  0  0  0  0  0  0  0  0  0
    2.3555    0.2899    0.0000 H   0  0  0  0  0  0  0  0  0  0  0  0
    0.7145    2.3074    0.0000 H   0  0  0  0  0  0  0  0  0  0  0  0
   -0.2121    1.7725    0.0000 H   0  0  0  0  0  0  0  0  0  0  0  0
   -0.7145    2.3074    0.0000 H   0  0  0  0  0  0  0  0  0  0  0  0
    0.2121    1.7725    0.0000 H   0  0  0  0  0  0  0  0  0  0  0  0
  1 22  1  0  0  0  0
  1 23  1  0  0  0  0
  1 24  1  0  0  0  0
  2 25  1  0  0  0  0
  2 26  1  0  0  0  0
  2 27  1  0  0  0  0
  3 28  1  0  0  0  0
  3 29  1  0  0  0  0
  3 30  1  0  0  0  0
  4 31  1  0  0  0  0
  5 32  1  0  0  0  0
  6 33  1  0  0  0  0
  7  5  1  0  0  0  0
  7 34  1  0  0  0  0
  8  6  2  0  0  0  0
  8 35  1  0  0  0  0
  9  4  2  0  0  0  0
  9 36  1  0  0  0  0
 10  4  1  0  0  0  0
 10 37  1  0  0  0  0
 11 38  1  0  0  0  0
 11 39  1  0  0  0  0
 12 11  1  0  0  0  0
 12 40  1  0  0  0  0
 12 41  1  0  0  0  0
 13 42  1  0  0  0  0
 13 43  1  0  0  0  0
 14  5  2  0  0  0  0
 14  6  1  0  0  0  0
 14 13  1  0  0  0  0
 15  7  2  0  0  0  0
 15  8  1  0  0  0  0
 17  9  1  0  0  0  0
 17 16  2  0  0  0  0
 18 10  2  0  0  0  0
 18 16  1  0  0  0  0
 19  1  1  0  0  0  0
 19  2  1  0  0  0  0
 19 11  1  0  0  0  0
 20 12  1  0  0  0  0
 20 13  1  0  0  0  0
 20 16  1  0  0  0  0
 21  3  1  0  0  0  0
 21 15  1  0  0  0  0
M  END
>  <DRUGBANK_ID>
DB11235

>  <COMMON_NAME>
Thonzylamine

>  <CAS_NUMBER>
91-85-0

>  <UNII>
R79646H5Z8

>  <SYNONYMS>
neohetramine; Thonzylamine

$$$$
