
 OpenBabel10282417072D

 98101  0  0  0  0  0  0  0  0999 V2000
   -3.5708   -0.1750    0.0000 C   0  0  0  0  0  0  0  0  0  0  0  0
   -2.8106    0.3151    0.0000 C   0  0  0  0  0  0  0  0  0  0  0  0
   -2.5606    1.0952    0.0000 C   0  0  0  0  0  0  0  0  0  0  0  0
   -1.7303    1.0952    0.0000 C   0  0  1  0  0  0  0  0  0  0  0  0
   -1.4803    0.3151    0.0000 N   0  0  0  0  0  0  0  0  0  0  0  0
   -0.7101   -0.1750    0.0000 C   0  0  0  0  0  0  0  0  0  0  0  0
   -0.7101   -0.9951    0.0000 C   0  0  2  0  0  0  0  0  0  0  0  0
    0.0000   -1.4053    0.0000 N   0  0  0  0  0  0  0  0  0  0  0  0
    0.0000   -2.2355    0.0000 C   0  0  0  0  0  0  0  0  0  0  0  0
    0.7101   -2.6455    0.0000 C   0  0  0  0  0  0  0  0  0  0  0  0
    0.7101   -3.4658    0.0000 C   0  0  1  0  0  0  0  0  0  0  0  0
    0.0000   -3.8858    0.0000 N   0  0  0  0  0  0  0  0  0  0  0  0
   -0.7101   -3.4658    0.0000 C   0  0  0  0  0  0  0  0  0  0  0  0
   -1.4303   -3.8858    0.0000 C   0  0  2  0  0  0  0  0  0  0  0  0
   -1.6003   -4.6860    0.0000 C   0  0  0  0  0  0  0  0  0  0  0  0
   -2.4206   -4.7760    0.0000 C   0  0  0  0  0  0  0  0  0  0  0  0
   -2.7606   -4.0259    0.0000 C   0  0  0  0  0  0  0  0  0  0  0  0
   -2.1405   -3.4658    0.0000 N   0  0  0  0  0  0  0  0  0  0  0  0
   -2.1405   -2.6455    0.0000 C   0  0  0  0  0  0  0  0  0  0  0  0
   -2.8606   -2.2355    0.0000 C   0  0  2  0  0  0  0  0  0  0  0  0
   -2.8606   -1.4053    0.0000 C   0  0  0  0  0  0  0  0  0  0  0  0
   -3.5708   -0.9951    0.0000 N   0  0  0  0  0  0  0  0  0  0  0  0
   -4.2910    0.2251    0.0000 O   0  0  0  0  0  0  0  0  0  0  0  0
   -1.2502    1.7654    0.0000 C   0  0  0  0  0  0  0  0  0  0  0  0
   -1.5803    2.5155    0.0000 C   0  0  0  0  0  0  0  0  0  0  0  0
   -2.4005    2.6055    0.0000 C   0  0  0  0  0  0  0  0  0  0  0  0
   -2.7406    3.3557    0.0000 C   0  0  0  0  0  0  0  0  0  0  0  0
   -2.2505    4.0259    0.0000 C   0  0  0  0  0  0  0  0  0  0  0  0
   -1.4303    3.9459    0.0000 C   0  0  0  0  0  0  0  0  0  0  0  0
   -1.1002    3.1857    0.0000 C   0  0  0  0  0  0  0  0  0  0  0  0
   -2.5905    4.7760    0.0000 O   0  0  0  0  0  0  0  0  0  0  0  0
    0.0100    0.2251    0.0000 O   0  0  0  0  0  0  0  0  0  0  0  0
    0.0000   -0.5851    0.0000 C   0  0  0  0  0  0  0  0  0  0  0  0
    0.7101   -0.9951    0.0000 C   0  0  0  0  0  0  0  0  0  0  0  0
    1.4303   -0.5851    0.0000 C   0  0  0  0  0  0  0  0  0  0  0  0
    2.1405   -0.9951    0.0000 C   0  0  0  0  0  0  0  0  0  0  0  0
    2.1405   -1.8254    0.0000 C   0  0  0  0  0  0  0  0  0  0  0  0
    1.4303   -2.2355    0.0000 C   0  0  0  0  0  0  0  0  0  0  0  0
    0.7101   -1.8254    0.0000 C   0  0  0  0  0  0  0  0  0  0  0  0
   -0.7101   -2.6455    0.0000 O   0  0  0  0  0  0  0  0  0  0  0  0
    1.5304   -2.7357    0.0000 O   0  0  0  0  0  0  0  0  0  0  0  0
    1.4303   -3.8858    0.0000 C   0  0  0  0  0  0  0  0  0  0  0  0
    2.1405   -3.4658    0.0000 C   0  0  0  0  0  0  0  0  0  0  0  0
    2.8606   -3.8858    0.0000 C   0  0  0  0  0  0  0  0  0  0  0  0
    3.5708   -3.4658    0.0000 N   0  0  0  0  0  0  0  0  0  0  0  0
    4.2910   -3.8858    0.0000 C   0  0  0  0  0  0  0  0  0  0  0  0
    4.2910   -4.7061    0.0000 N   0  0  0  0  0  0  0  0  0  0  0  0
    5.0011   -3.4658    0.0000 N   0  0  0  0  0  0  0  0  0  0  0  0
   -1.2003   -2.8056    0.0000 O   0  0  0  0  0  0  0  0  0  0  0  0
   -1.4303   -2.2355    0.0000 O   0  0  0  0  0  0  0  0  0  0  0  0
   -3.5708   -2.6455    0.0000 N   0  0  0  0  0  0  0  0  0  0  0  0
   -4.2910   -2.2355    0.0000 C   0  0  0  0  0  0  0  0  0  0  0  0
   -5.0011   -2.6455    0.0000 O   0  0  0  0  0  0  0  0  0  0  0  0
   -0.6201   -4.4660    0.0000 H   0  0  0  0  0  0  0  0  0  0  0  0
   -1.9916   -0.3129    0.0000 H   0  0  0  0  0  0  0  0  0  0  0  0
   -3.1689    1.9289    0.0000 H   0  0  0  0  0  0  0  0  0  0  0  0
   -2.2193    2.0469    0.0000 H   0  0  0  0  0  0  0  0  0  0  0  0
   -2.2598   -0.2863    0.0000 H   0  0  0  0  0  0  0  0  0  0  0  0
   -0.1751   -0.0684    0.0000 H   0  0  0  0  0  0  0  0  0  0  0  0
    0.8527   -0.9132    0.0000 H   0  0  0  0  0  0  0  0  0  0  0  0
    1.6379   -2.9328    0.0000 H   0  0  0  0  0  0  0  0  0  0  0  0
    0.0000   -4.8703    0.0000 H   0  0  0  0  0  0  0  0  0  0  0  0
   -0.8825   -5.4795    0.0000 H   0  0  0  0  0  0  0  0  0  0  0  0
   -1.9803   -5.6862    0.0000 H   0  0  0  0  0  0  0  0  0  0  0  0
   -2.9504   -5.7056    0.0000 H   0  0  0  0  0  0  0  0  0  0  0  0
   -3.4895   -4.7266    0.0000 H   0  0  0  0  0  0  0  0  0  0  0  0
   -3.8081   -3.8078    0.0000 H   0  0  0  0  0  0  0  0  0  0  0  0
   -3.0405   -2.9932    0.0000 H   0  0  0  0  0  0  0  0  0  0  0  0
   -2.8574   -3.3055    0.0000 H   0  0  0  0  0  0  0  0  0  0  0  0
   -1.9339   -0.8704    0.0000 H   0  0  0  0  0  0  0  0  0  0  0  0
   -2.8605   -0.3353    0.0000 H   0  0  0  0  0  0  0  0  0  0  0  0
   -4.4234   -1.4873    0.0000 H   0  0  0  0  0  0  0  0  0  0  0  0
   -0.1859    1.6548    0.0000 H   0  0  0  0  0  0  0  0  0  0  0  0
   -0.6199    2.6301    0.0000 H   0  0  0  0  0  0  0  0  0  0  0  0
   -3.0062    1.7699    0.0000 H   0  0  0  0  0  0  0  0  0  0  0  0
   -3.7671    3.4617    0.0000 H   0  0  0  0  0  0  0  0  0  0  0  0
   -0.8230    4.7803    0.0000 H   0  0  0  0  0  0  0  0  0  0  0  0
   -0.0740    3.0765    0.0000 H   0  0  0  0  0  0  0  0  0  0  0  0
   -2.0448    5.5377    0.0000 H   0  0  0  0  0  0  0  0  0  0  0  0
    0.0000    0.4849    0.0000 H   0  0  0  0  0  0  0  0  0  0  0  0
    0.9267   -0.0501    0.0000 H   0  0  0  0  0  0  0  0  0  0  0  0
    1.4334    0.4469    0.0000 H   0  0  0  0  0  0  0  0  0  0  0  0
    3.0342   -0.4791    0.0000 H   0  0  0  0  0  0  0  0  0  0  0  0
    3.0343   -2.3414    0.0000 H   0  0  0  0  0  0  0  0  0  0  0  0
    1.4334   -3.2675    0.0000 H   0  0  0  0  0  0  0  0  0  0  0  0
   -0.1821   -2.3441    0.0000 H   0  0  0  0  0  0  0  0  0  0  0  0
    1.4336   -4.9558    0.0000 H   0  0  0  0  0  0  0  0  0  0  0  0
    2.3605   -4.4145    0.0000 H   0  0  0  0  0  0  0  0  0  0  0  0
    2.1373   -2.3958    0.0000 H   0  0  0  0  0  0  0  0  0  0  0  0
    3.0675   -2.9314    0.0000 H   0  0  0  0  0  0  0  0  0  0  0  0
    2.8638   -4.9558    0.0000 H   0  0  0  0  0  0  0  0  0  0  0  0
    3.7908   -4.4145    0.0000 H   0  0  0  0  0  0  0  0  0  0  0  0
    3.5678   -2.4813    0.0000 H   0  0  0  0  0  0  0  0  0  0  0  0
    3.4384   -5.1984    0.0000 H   0  0  0  0  0  0  0  0  0  0  0  0
    5.1436   -5.1984    0.0000 H   0  0  0  0  0  0  0  0  0  0  0  0
    5.8588   -3.9491    0.0000 H   0  0  0  0  0  0  0  0  0  0  0  0
   -3.5678   -3.6300    0.0000 H   0  0  0  0  0  0  0  0  0  0  0  0
   -4.2941   -1.2035    0.0000 H   0  0  0  0  0  0  0  0  0  0  0  0
  1  2  1  0  0  0  0
  1 22  1  0  0  0  0
  1 23  2  0  0  0  0
  2  3  2  0  0  0  0
  2 55  1  0  0  0  0
  3  4  1  0  0  0  0
  3 56  1  0  0  0  0
  4  5  1  0  0  0  0
  4 24  1  0  0  0  0
  4 57  1  1  0  0  0
  5  6  1  0  0  0  0
  5 58  1  0  0  0  0
  6  7  1  0  0  0  0
  6 32  2  0  0  0  0
  7  8  1  0  0  0  0
  7 33  1  0  0  0  0
  7 59  1  6  0  0  0
  8  9  1  0  0  0  0
  8 60  1  0  0  0  0
  9 10  1  0  0  0  0
  9 40  2  0  0  0  0
 10 11  1  0  0  0  0
 10 41  2  0  0  0  0
 11 12  1  0  0  0  0
 11 42  1  0  0  0  0
 11 61  1  1  0  0  0
 12 13  1  0  0  0  0
 12 62  1  0  0  0  0
 13 14  1  0  0  0  0
 13 49  2  0  0  0  0
 14 15  1  0  0  0  0
 14 18  1  0  0  0  0
 14 54  1  1  0  0  0
 15 16  1  0  0  0  0
 15 63  1  0  0  0  0
 15 64  1  0  0  0  0
 16 17  1  0  0  0  0
 16 65  1  0  0  0  0
 16 66  1  0  0  0  0
 17 18  1  0  0  0  0
 17 67  1  0  0  0  0
 17 68  1  0  0  0  0
 18 19  1  0  0  0  0
 19 20  1  0  0  0  0
 19 50  2  0  0  0  0
 20 21  1  0  0  0  0
 20 51  1  0  0  0  0
 20 69  1  6  0  0  0
 21 22  1  0  0  0  0
 21 70  1  0  0  0  0
 21 71  1  0  0  0  0
 22 72  1  0  0  0  0
 24 25  1  0  0  0  0
 24 73  1  0  0  0  0
 24 74  1  0  0  0  0
 25 26  2  0  0  0  0
 25 30  1  0  0  0  0
 26 27  1  0  0  0  0
 26 75  1  0  0  0  0
 27 28  2  0  0  0  0
 27 76  1  0  0  0  0
 28 29  1  0  0  0  0
 28 31  1  0  0  0  0
 29 30  2  0  0  0  0
 29 77  1  0  0  0  0
 30 78  1  0  0  0  0
 31 79  1  0  0  0  0
 33 34  1  0  0  0  0
 33 80  1  0  0  0  0
 33 81  1  0  0  0  0
 34 35  2  0  0  0  0
 34 39  1  0  0  0  0
 35 36  1  0  0  0  0
 35 82  1  0  0  0  0
 36 37  2  0  0  0  0
 36 83  1  0  0  0  0
 37 38  1  0  0  0  0
 37 84  1  0  0  0  0
 38 39  2  0  0  0  0
 38 85  1  0  0  0  0
 39 86  1  0  0  0  0
 42 43  1  0  0  0  0
 42 87  1  0  0  0  0
 42 88  1  0  0  0  0
 43 44  1  0  0  0  0
 43 89  1  0  0  0  0
 43 90  1  0  0  0  0
 44 45  1  0  0  0  0
 44 91  1  0  0  0  0
 44 92  1  0  0  0  0
 45 46  1  0  0  0  0
 45 93  1  0  0  0  0
 46 47  1  0  0  0  0
 46 48  2  0  0  0  0
 47 94  1  0  0  0  0
 47 95  1  0  0  0  0
 48 96  1  0  0  0  0
 51 52  1  0  0  0  0
 51 97  1  0  0  0  0
 52 53  2  0  0  0  0
 52 98  1  0  0  0  0
M  END
>  <DRUGBANK_ID>
DB04269

>  <SECONDARY_ACCESSION_NUMBERS>
EXPT01047

>  <COMMON_NAME>
Cyclotheonamide A

>  <CAS_NUMBER>
129033-04-1

>  <UNII>
2Y1TEH8EW7

$$$$
