
 OpenBabel10282417072D

 74 76  0  0  1  0  0  0  0  0999 V2000
    0.3239   -1.4944    0.0000 H   0  0  0  0  0  0  0  0  0  0  0  0
    1.1387   -1.3654    0.0000 C   0  0  1  0  0  0  0  0  0  0  0  0
    0.6538   -0.6979    0.0000 C   0  0  0  0  0  0  0  0  0  0  0  0
    1.1387   -0.0305    0.0000 C   0  0  0  0  0  0  0  0  0  0  0  0
    1.9233   -0.2854    0.0000 C   0  0  1  0  0  0  0  0  0  0  0  0
    2.6378   -0.6979    0.0000 H   0  0  0  0  0  0  0  0  0  0  0  0
    2.6378    0.1271    0.0000 C   0  0  0  0  0  0  0  0  0  0  0  0
    3.3523   -0.2854    0.0000 C   0  0  0  0  0  0  0  0  0  0  0  0
    3.3523   -1.1104    0.0000 C   0  0  0  0  0  0  0  0  0  0  0  0
    2.6378   -1.5229    0.0000 C   0  0  0  0  0  0  0  0  0  0  0  0
    1.9233   -1.1104    0.0000 C   0  0  2  0  0  0  0  0  0  0  0  0
    1.8371   -1.9309    0.0000 C   0  0  0  0  0  0  0  0  0  0  0  0
    2.6378    0.9521    0.0000 C   0  0  0  0  0  0  0  0  0  0  0  0
    3.3523    1.3646    0.0000 C   0  0  0  0  0  0  0  0  0  0  0  0
    3.3523    2.1896    0.0000 C   0  0  0  0  0  0  0  0  0  0  0  0
    4.0668    2.6021    0.0000 C   0  0  0  0  0  0  0  0  0  0  0  0
    4.0668    3.4271    0.0000 C   0  0  1  0  0  0  0  0  0  0  0  0
    4.7812    3.8396    0.0000 O   0  0  0  0  0  0  0  0  0  0  0  0
    3.3523    3.8396    0.0000 C   0  0  0  0  0  0  0  0  0  0  0  0
    2.6378    3.4271    0.0000 C   0  0  0  0  0  0  0  0  0  0  0  0
    2.6378    2.6021    0.0000 C   0  0  0  0  0  0  0  0  0  0  0  0
    1.9233    2.1896    0.0000 C   0  0  0  0  0  0  0  0  0  0  0  0
    0.8838   -2.1500    0.0000 C   0  0  2  0  0  0  0  0  0  0  0  0
    1.4358   -2.7631    0.0000 C   0  0  0  0  0  0  0  0  0  0  0  0
    0.0768   -2.3215    0.0000 C   0  0  0  0  0  0  0  0  0  0  0  0
   -0.1781   -3.1062    0.0000 C   0  0  0  0  0  0  0  0  0  0  0  0
   -0.9851   -3.2777    0.0000 C   0  0  1  0  0  0  0  0  0  0  0  0
   -1.2400   -4.0623    0.0000 O   0  0  0  0  0  0  0  0  0  0  0  0
   -1.5371   -2.6646    0.0000 C   0  0  0  0  0  0  0  0  0  0  0  0
   -2.1502   -3.2166    0.0000 C   0  0  0  0  0  0  0  0  0  0  0  0
   -2.0892   -2.0515    0.0000 C   0  0  0  0  0  0  0  0  0  0  0  0
   -0.9240   -2.1126    0.0000 O   0  0  0  0  0  0  0  0  0  0  0  0
   -0.4162   -0.6979    0.0000 H   0  0  0  0  0  0  0  0  0  0  0  0
    0.1680    0.2555    0.0000 H   0  0  0  0  0  0  0  0  0  0  0  0
    0.8080    0.9871    0.0000 H   0  0  0  0  0  0  0  0  0  0  0  0
    1.8953    0.7261    0.0000 H   0  0  0  0  0  0  0  0  0  0  0  0
    4.2789    0.2496    0.0000 H   0  0  0  0  0  0  0  0  0  0  0  0
    4.2789   -0.8204    0.0000 H   0  0  0  0  0  0  0  0  0  0  0  0
    4.2789   -1.6454    0.0000 H   0  0  0  0  0  0  0  0  0  0  0  0
    3.3523   -2.1804    0.0000 H   0  0  0  0  0  0  0  0  0  0  0  0
    2.6378   -2.5929    0.0000 H   0  0  0  0  0  0  0  0  0  0  0  0
    1.7112   -2.0579    0.0000 H   0  0  0  0  0  0  0  0  0  0  0  0
    0.8596   -2.3662    0.0000 H   0  0  0  0  0  0  0  0  0  0  0  0
    2.7028   -2.5598    0.0000 H   0  0  0  0  0  0  0  0  0  0  0  0
    1.7253   -2.9950    0.0000 H   0  0  0  0  0  0  0  0  0  0  0  0
    1.7441    1.4681    0.0000 H   0  0  0  0  0  0  0  0  0  0  0  0
    4.2460    0.8486    0.0000 H   0  0  0  0  0  0  0  0  0  0  0  0
    4.9934    2.0671    0.0000 H   0  0  0  0  0  0  0  0  0  0  0  0
    4.9934    3.1371    0.0000 H   0  0  0  0  0  0  0  0  0  0  0  0
    4.9935    2.8921    0.0000 H   0  0  0  0  0  0  0  0  0  0  0  0
    5.6213    3.3546    0.0000 H   0  0  0  0  0  0  0  0  0  0  0  0
    3.3523    4.9096    0.0000 H   0  0  0  0  0  0  0  0  0  0  0  0
    2.4257    4.3746    0.0000 H   0  0  0  0  0  0  0  0  0  0  0  0
    1.7112    3.9621    0.0000 H   0  0  0  0  0  0  0  0  0  0  0  0
    1.7112    2.8921    0.0000 H   0  0  0  0  0  0  0  0  0  0  0  0
    1.0296    2.7056    0.0000 H   0  0  0  0  0  0  0  0  0  0  0  0
    1.9233    1.1576    0.0000 H   0  0  0  0  0  0  0  0  0  0  0  0
    0.5531   -3.1676    0.0000 H   0  0  0  0  0  0  0  0  0  0  0  0
    1.1051   -3.7807    0.0000 H   0  0  0  0  0  0  0  0  0  0  0  0
    2.4824   -2.5407    0.0000 H   0  0  0  0  0  0  0  0  0  0  0  0
    2.1517   -3.5583    0.0000 H   0  0  0  0  0  0  0  0  0  0  0  0
   -0.6392   -1.5263    0.0000 H   0  0  0  0  0  0  0  0  0  0  0  0
   -0.9698   -2.5440    0.0000 H   0  0  0  0  0  0  0  0  0  0  0  0
    0.5379   -3.9014    0.0000 H   0  0  0  0  0  0  0  0  0  0  0  0
   -0.5088   -4.1238    0.0000 H   0  0  0  0  0  0  0  0  0  0  0  0
   -0.2691   -4.0729    0.0000 H   0  0  0  0  0  0  0  0  0  0  0  0
   -2.1888   -4.2640    0.0000 H   0  0  0  0  0  0  0  0  0  0  0  0
   -3.1678   -2.8859    0.0000 H   0  0  0  0  0  0  0  0  0  0  0  0
   -1.9278   -4.2632    0.0000 H   0  0  0  0  0  0  0  0  0  0  0  0
   -2.9454   -3.9325    0.0000 H   0  0  0  0  0  0  0  0  0  0  0  0
   -1.7586   -1.0339    0.0000 H   0  0  0  0  0  0  0  0  0  0  0  0
   -3.1358   -2.2740    0.0000 H   0  0  0  0  0  0  0  0  0  0  0  0
   -2.8052   -1.2564    0.0000 H   0  0  0  0  0  0  0  0  0  0  0  0
   -0.0015   -2.4124    0.0000 H   0  0  0  0  0  0  0  0  0  0  0  0
  2  1  1  6  0  0  0
  2  3  1  0  0  0  0
  2 11  1  0  0  0  0
  2 23  1  0  0  0  0
  3  4  1  0  0  0  0
  3 33  1  0  0  0  0
  3 34  1  0  0  0  0
  4 35  1  0  0  0  0
  4 36  1  0  0  0  0
  5  4  1  0  0  0  0
  5  6  1  6  0  0  0
  5  7  1  0  0  0  0
  7  8  1  0  0  0  0
  7 13  2  0  0  0  0
  8  9  1  0  0  0  0
  8 37  1  0  0  0  0
  8 38  1  0  0  0  0
  9 10  1  0  0  0  0
  9 39  1  0  0  0  0
  9 40  1  0  0  0  0
 10 41  1  0  0  0  0
 10 42  1  0  0  0  0
 11 10  1  0  0  0  0
 11  5  1  0  0  0  0
 11 12  1  1  0  0  0
 12 43  1  0  0  0  0
 12 44  1  0  0  0  0
 12 45  1  0  0  0  0
 13 14  1  0  0  0  0
 13 46  1  0  0  0  0
 14 15  2  0  0  0  0
 14 47  1  0  0  0  0
 15 16  1  0  0  0  0
 15 21  1  0  0  0  0
 16 48  1  0  0  0  0
 16 49  1  0  0  0  0
 17 16  1  0  0  0  0
 17 18  1  0  0  0  0
 17 19  1  0  0  0  0
 17 50  1  1  0  0  0
 18 51  1  0  0  0  0
 19 20  1  0  0  0  0
 19 52  1  0  0  0  0
 19 53  1  0  0  0  0
 20 21  1  0  0  0  0
 20 54  1  0  0  0  0
 20 55  1  0  0  0  0
 21 22  2  0  0  0  0
 22 56  1  0  0  0  0
 22 57  1  0  0  0  0
 23 24  1  0  0  0  0
 23 25  1  0  0  0  0
 23 58  1  1  0  0  0
 24 59  1  0  0  0  0
 24 60  1  0  0  0  0
 24 61  1  0  0  0  0
 25 26  1  0  0  0  0
 25 62  1  0  0  0  0
 25 63  1  0  0  0  0
 26 64  1  0  0  0  0
 26 65  1  0  0  0  0
 27 26  1  0  0  0  0
 27 28  1  0  0  0  0
 27 29  1  0  0  0  0
 27 66  1  6  0  0  0
 28 67  1  0  0  0  0
 29 30  1  0  0  0  0
 29 31  1  0  0  0  0
 29 32  1  0  0  0  0
 30 68  1  0  0  0  0
 30 69  1  0  0  0  0
 30 70  1  0  0  0  0
 31 71  1  0  0  0  0
 31 72  1  0  0  0  0
 31 73  1  0  0  0  0
 32 74  1  0  0  0  0
M  END
>  <DRUGBANK_ID>
DB18406

>  <COMMON_NAME>
Secalciferol

>  <CAS_NUMBER>
55721-11-4

>  <UNII>
460029IUDA

>  <SYNONYMS>
(5z,7e,24r)-9,10-secocholesta-5,7,10(19)-triene-3b,24,25-triol; 2,3-heptanediol, 2-methyl-6-((1r,3as,4e,7ar)-octahydro-4-((2z)-2-((5s)-5-hydroxy-2-methylenecyclohexylidene)ethylidene)-7a-methyl-1h-inden-1-yl)-, (3r,6r)-; 24(R),25-(OH)2D3; Osteo d

$$$$
