
 OpenBabel10282417072D

 58 61  0  0  0  0  0  0  0  0999 V2000
   -0.0868    1.4170    0.0000 S   0  0  0  0  0  0  0  0  0  0  0  0
   -2.1778   -0.0385    0.0000 O   0  0  0  0  0  0  0  0  0  0  0  0
   -4.2715    0.3774    0.0000 O   0  0  0  0  0  0  0  0  0  0  0  0
   -3.2140    1.8276    0.0000 O   0  0  0  0  0  0  0  0  0  0  0  0
   -0.7551    0.9332    0.0000 O   0  0  0  0  0  0  0  0  0  0  0  0
   -0.5706    2.0852    0.0000 O   0  0  0  0  0  0  0  0  0  0  0  0
    0.3967    0.7488    0.0000 O   0  0  0  0  0  0  0  0  0  0  0  0
    1.4191    0.7433    0.0000 O   0  0  0  0  0  0  0  0  0  0  0  0
    5.4285    3.6457    0.0000 O   0  0  0  0  0  0  0  0  0  0  0  0
   -3.2191   -1.0762    0.0000 N   0  0  0  0  0  0  0  0  0  0  0  0
   -3.2191   -2.4039    0.0000 N   0  0  0  0  0  0  0  0  0  0  0  0
   -4.7141   -0.9151    0.0000 N   0  0  0  0  0  0  0  0  0  0  0  0
    0.5813    1.9007    0.0000 N   0  0  0  0  0  0  0  0  0  0  0  0
   -5.4285   -2.1526    0.0000 N   0  0  0  0  0  0  0  0  0  0  0  0
   -4.7141   -3.3900    0.0000 N   0  0  0  0  0  0  0  0  0  0  0  0
    1.9178    2.8682    0.0000 N   0  0  0  0  0  0  0  0  0  0  0  0
   -3.4466    0.3760    0.0000 C   0  0  2  0  0  0  0  0  0  0  0  0
   -2.9605    1.0426    0.0000 C   0  0  1  0  0  0  0  0  0  0  0  0
   -2.9628   -0.2921    0.0000 C   0  0  1  0  0  0  0  0  0  0  0  0
   -2.1763    0.7863    0.0000 C   0  0  1  0  0  0  0  0  0  0  0  0
   -1.5081    1.2700    0.0000 C   0  0  0  0  0  0  0  0  0  0  0  0
   -3.9996   -1.3276    0.0000 C   0  0  0  0  0  0  0  0  0  0  0  0
   -2.7376   -1.7401    0.0000 C   0  0  0  0  0  0  0  0  0  0  0  0
   -3.9996   -2.1526    0.0000 C   0  0  0  0  0  0  0  0  0  0  0  0
   -4.7141   -2.5650    0.0000 C   0  0  0  0  0  0  0  0  0  0  0  0
   -5.4285   -1.3276    0.0000 C   0  0  0  0  0  0  0  0  0  0  0  0
    2.0026    2.0476    0.0000 C   0  0  2  0  0  0  0  0  0  0  0  0
    1.3343    1.5639    0.0000 C   0  0  0  0  0  0  0  0  0  0  0  0
    2.7556    1.7107    0.0000 C   0  0  0  0  0  0  0  0  0  0  0  0
    3.4238    2.1945    0.0000 C   0  0  0  0  0  0  0  0  0  0  0  0
    3.3390    3.0151    0.0000 C   0  0  0  0  0  0  0  0  0  0  0  0
    4.1769    1.8576    0.0000 C   0  0  0  0  0  0  0  0  0  0  0  0
    4.0073    3.4988    0.0000 C   0  0  0  0  0  0  0  0  0  0  0  0
    4.8451    2.3414    0.0000 C   0  0  0  0  0  0  0  0  0  0  0  0
    4.7603    3.1620    0.0000 C   0  0  0  0  0  0  0  0  0  0  0  0
    0.5287    2.4095    0.0000 H   0  0  0  0  0  0  0  0  0  0  0  0
   -4.2711   -3.6457    0.0000 H   0  0  0  0  0  0  0  0  0  0  0  0
   -5.1570   -3.6457    0.0000 H   0  0  0  0  0  0  0  0  0  0  0  0
    2.3321    3.1681    0.0000 H   0  0  0  0  0  0  0  0  0  0  0  0
    1.4509    3.0770    0.0000 H   0  0  0  0  0  0  0  0  0  0  0  0
   -4.7551    1.2183    0.0000 H   0  0  0  0  0  0  0  0  0  0  0  0
   -2.5636    2.5473    0.0000 H   0  0  0  0  0  0  0  0  0  0  0  0
    6.2838    3.2631    0.0000 H   0  0  0  0  0  0  0  0  0  0  0  0
   -3.9307    1.3302    0.0000 H   0  0  0  0  0  0  0  0  0  0  0  0
   -4.0170    1.2119    0.0000 H   0  0  0  0  0  0  0  0  0  0  0  0
   -2.2075   -1.0500    0.0000 H   0  0  0  0  0  0  0  0  0  0  0  0
   -1.2238    0.2988    0.0000 H   0  0  0  0  0  0  0  0  0  0  0  0
   -1.6181    2.3343    0.0000 H   0  0  0  0  0  0  0  0  0  0  0  0
   -2.4848    1.7069    0.0000 H   0  0  0  0  0  0  0  0  0  0  0  0
   -1.7056   -1.7401    0.0000 H   0  0  0  0  0  0  0  0  0  0  0  0
   -6.3222   -0.8116    0.0000 H   0  0  0  0  0  0  0  0  0  0  0  0
    1.0259    2.4845    0.0000 H   0  0  0  0  0  0  0  0  0  0  0  0
    2.8656    0.6464    0.0000 H   0  0  0  0  0  0  0  0  0  0  0  0
    3.7324    1.2738    0.0000 H   0  0  0  0  0  0  0  0  0  0  0  0
    2.3970    3.4365    0.0000 H   0  0  0  0  0  0  0  0  0  0  0  0
    4.2830    0.8311    0.0000 H   0  0  0  0  0  0  0  0  0  0  0  0
    3.9012    4.5253    0.0000 H   0  0  0  0  0  0  0  0  0  0  0  0
    5.7872    1.9201    0.0000 H   0  0  0  0  0  0  0  0  0  0  0  0
  1  5  1  0  0  0  0
  1  6  2  0  0  0  0
  1  7  2  0  0  0  0
  1 13  1  0  0  0  0
  2 19  1  0  0  0  0
  2 20  1  0  0  0  0
  3 41  1  0  0  0  0
  4 42  1  0  0  0  0
  5 21  1  0  0  0  0
  8 28  2  0  0  0  0
  9 35  1  0  0  0  0
  9 43  1  0  0  0  0
 10 22  1  0  0  0  0
 10 23  1  0  0  0  0
 11 23  2  0  0  0  0
 11 24  1  0  0  0  0
 12 22  2  0  0  0  0
 12 26  1  0  0  0  0
 13 28  1  0  0  0  0
 13 36  1  0  0  0  0
 14 25  1  0  0  0  0
 14 26  2  0  0  0  0
 15 25  1  0  0  0  0
 15 37  1  0  0  0  0
 15 38  1  0  0  0  0
 16 39  1  0  0  0  0
 16 40  1  0  0  0  0
 17  3  1  0  0  0  0
 17 18  1  0  0  0  0
 17 19  1  0  0  0  0
 17 44  1  1  0  0  0
 18  4  1  0  0  0  0
 18 20  1  0  0  0  0
 18 45  1  1  0  0  0
 19 10  1  0  0  0  0
 19 46  1  6  0  0  0
 20 21  1  0  0  0  0
 20 47  1  6  0  0  0
 21 48  1  0  0  0  0
 21 49  1  0  0  0  0
 22 24  1  0  0  0  0
 23 50  1  0  0  0  0
 24 25  2  0  0  0  0
 26 51  1  0  0  0  0
 27 16  1  0  0  0  0
 27 28  1  0  0  0  0
 27 29  1  0  0  0  0
 27 52  1  6  0  0  0
 29 30  1  0  0  0  0
 29 53  1  0  0  0  0
 29 54  1  0  0  0  0
 30 31  2  0  0  0  0
 30 32  1  0  0  0  0
 31 33  1  0  0  0  0
 31 55  1  0  0  0  0
 32 34  2  0  0  0  0
 32 56  1  0  0  0  0
 33 35  2  0  0  0  0
 33 57  1  0  0  0  0
 34 35  1  0  0  0  0
 34 58  1  0  0  0  0
M  END
>  <DRUGBANK_ID>
DB03325

>  <SECONDARY_ACCESSION_NUMBERS>
EXPT03277

>  <COMMON_NAME>
Tyrosyladenylate

>  <SYNONYMS>
5'-O-(L-Tyrosylsulfamoyl)adenosine

$$$$
