317
 OpenBabel10282417072D

 55 58  0  0  0  0  0  0  0  0999 V2000
    0.9015    1.1983    0.0000 C   0  0  2  0  0  0  0  0  0  0  0  0
    0.9015    2.0233    0.0000 C   0  0  1  0  0  0  0  0  0  0  0  0
    1.6160    2.4358    0.0000 C   0  0  0  0  0  0  0  0  0  0  0  0
    2.3305    2.0233    0.0000 C   0  0  0  0  0  0  0  0  0  0  0  0
    1.6160    3.2608    0.0000 F   0  0  0  0  0  0  0  0  0  0  0  0
    0.1871    2.4358    0.0000 N   0  0  0  0  0  0  0  0  0  0  0  0
    1.6160    0.7858    0.0000 C   0  0  0  0  0  0  0  0  0  0  0  0
    3.0842    2.3589    0.0000 C   0  0  0  0  0  0  0  0  0  0  0  0
    3.6362    1.7458    0.0000 C   0  0  0  0  0  0  0  0  0  0  0  0
    3.2237    1.0313    0.0000 C   0  0  0  0  0  0  0  0  0  0  0  0
    2.4167    1.2028    0.0000 C   0  0  0  0  0  0  0  0  0  0  0  0
    1.6160   -0.0392    0.0000 C   0  0  0  0  0  0  0  0  0  0  0  0
    2.0285   -0.7537    0.0000 C   0  0  0  0  0  0  0  0  0  0  0  0
    1.2035   -0.7537    0.0000 C   0  0  0  0  0  0  0  0  0  0  0  0
    0.1871    0.7858    0.0000 C   0  0  0  0  0  0  0  0  0  0  0  0
    0.1008   -0.0347    0.0000 N   0  0  0  0  0  0  0  0  0  0  0  0
   -0.7061   -0.2062    0.0000 C   0  0  0  0  0  0  0  0  0  0  0  0
   -1.1186    0.5083    0.0000 N   0  0  0  0  0  0  0  0  0  0  0  0
   -0.5666    1.1214    0.0000 O   0  0  0  0  0  0  0  0  0  0  0  0
   -1.0417   -0.9599    0.0000 C   0  0  0  0  0  0  0  0  0  0  0  0
   -0.5568   -1.6273    0.0000 C   0  0  0  0  0  0  0  0  0  0  0  0
   -0.8923   -2.3810    0.0000 C   0  0  0  0  0  0  0  0  0  0  0  0
   -1.7128   -2.4672    0.0000 C   0  0  0  0  0  0  0  0  0  0  0  0
   -2.1977   -1.7998    0.0000 C   0  0  0  0  0  0  0  0  0  0  0  0
   -1.8622   -1.0461    0.0000 C   0  0  0  0  0  0  0  0  0  0  0  0
   -2.0484   -3.2209    0.0000 S   0  0  0  0  0  0  0  0  0  0  0  0
   -2.3839   -3.9746    0.0000 O   0  0  0  0  0  0  0  0  0  0  0  0
   -2.8020   -2.8853    0.0000 O   0  0  0  0  0  0  0  0  0  0  0  0
   -1.2947   -3.5565    0.0000 C   0  0  0  0  0  0  0  0  0  0  0  0
   -2.3471   -0.3787    0.0000 Cl  0  0  0  0  0  0  0  0  0  0  0  0
    1.2769    1.6456    0.0000 H   0  0  0  0  0  0  0  0  0  0  0  0
    1.4766    1.9219    0.0000 H   0  0  0  0  0  0  0  0  0  0  0  0
    0.1871    3.4558    0.0000 H   0  0  0  0  0  0  0  0  0  0  0  0
   -0.6963    1.9258    0.0000 H   0  0  0  0  0  0  0  0  0  0  0  0
    2.5426    1.3208    0.0000 H   0  0  0  0  0  0  0  0  0  0  0  0
    2.5426    0.2508    0.0000 H   0  0  0  0  0  0  0  0  0  0  0  0
    3.3067    3.4055    0.0000 H   0  0  0  0  0  0  0  0  0  0  0  0
    4.1177    2.6358    0.0000 H   0  0  0  0  0  0  0  0  0  0  0  0
    4.7003    1.8576    0.0000 H   0  0  0  0  0  0  0  0  0  0  0  0
    4.2190    0.8484    0.0000 H   0  0  0  0  0  0  0  0  0  0  0  0
    3.6589    0.0538    0.0000 H   0  0  0  0  0  0  0  0  0  0  0  0
    2.5504    0.1997    0.0000 H   0  0  0  0  0  0  0  0  0  0  0  0
    1.6215    0.4868    0.0000 H   0  0  0  0  0  0  0  0  0  0  0  0
    2.6937    0.1693    0.0000 H   0  0  0  0  0  0  0  0  0  0  0  0
    1.6160   -1.1092    0.0000 H   0  0  0  0  0  0  0  0  0  0  0  0
    2.9551   -1.2887    0.0000 H   0  0  0  0  0  0  0  0  0  0  0  0
    1.7516   -1.7872    0.0000 H   0  0  0  0  0  0  0  0  0  0  0  0
    0.2769   -1.2887    0.0000 H   0  0  0  0  0  0  0  0  0  0  0  0
    1.4804   -1.7872    0.0000 H   0  0  0  0  0  0  0  0  0  0  0  0
    0.4695   -1.5194    0.0000 H   0  0  0  0  0  0  0  0  0  0  0  0
   -0.2857   -3.2159    0.0000 H   0  0  0  0  0  0  0  0  0  0  0  0
   -3.2240   -1.9077    0.0000 H   0  0  0  0  0  0  0  0  0  0  0  0
   -1.1829   -4.6206    0.0000 H   0  0  0  0  0  0  0  0  0  0  0  0
   -0.4290   -2.9276    0.0000 H   0  0  0  0  0  0  0  0  0  0  0  0
   -0.3172   -3.9917    0.0000 H   0  0  0  0  0  0  0  0  0  0  0  0
  1  2  1  0  0  0  0
  1  7  1  0  0  0  0
  1 15  1  0  0  0  0
  1 31  1  1  0  0  0
  2  3  1  0  0  0  0
  2  6  1  0  0  0  0
  2 32  1  1  0  0  0
  3  4  2  0  0  0  0
  3  5  1  0  0  0  0
  4  8  1  0  0  0  0
  4 11  1  0  0  0  0
  6 33  1  0  0  0  0
  6 34  1  0  0  0  0
  7 12  1  0  0  0  0
  7 35  1  0  0  0  0
  7 36  1  0  0  0  0
  8  9  1  0  0  0  0
  8 37  1  0  0  0  0
  8 38  1  0  0  0  0
  9 10  1  0  0  0  0
  9 39  1  0  0  0  0
  9 40  1  0  0  0  0
 10 11  1  0  0  0  0
 10 41  1  0  0  0  0
 10 42  1  0  0  0  0
 11 43  1  0  0  0  0
 11 44  1  0  0  0  0
 12 13  1  0  0  0  0
 12 14  1  0  0  0  0
 12 45  1  0  0  0  0
 13 14  1  0  0  0  0
 13 46  1  0  0  0  0
 13 47  1  0  0  0  0
 14 48  1  0  0  0  0
 14 49  1  0  0  0  0
 15 16  2  0  0  0  0
 15 19  1  0  0  0  0
 16 17  1  0  0  0  0
 17 18  2  0  0  0  0
 17 20  1  0  0  0  0
 18 19  1  0  0  0  0
 20 21  2  0  0  0  0
 20 25  1  0  0  0  0
 21 22  1  0  0  0  0
 21 50  1  0  0  0  0
 22 23  2  0  0  0  0
 22 51  1  0  0  0  0
 23 24  1  0  0  0  0
 23 26  1  0  0  0  0
 24 25  2  0  0  0  0
 24 52  1  0  0  0  0
 25 30  1  0  0  0  0
 26 27  2  0  0  0  0
 26 28  2  0  0  0  0
 26 29  1  0  0  0  0
 29 53  1  0  0  0  0
 29 54  1  0  0  0  0
 29 55  1  0  0  0  0
M  END
>  <DRUGBANK_ID>
DB06994

>  <COMMON_NAME>
(2S,3S)-3-{3-[2-chloro-4-(methylsulfonyl)phenyl]-1,2,4-oxadiazol-5-yl}-1-cyclopentylidene-4-cyclopropyl-1-fluorobutan-2-amine

$$$$
