
 OpenBabel10282417072D

  5  4  0  0  0  0  0  0  0  0999 V2000
   -0.0015    0.2002    0.0000 O   0  0  0  0  0  0  0  0  0  0  0  0
   -0.7118   -0.2115    0.0000 Bi  0  0  0  0  0  0  0  0  0  0  0  0
    0.7007   -0.2010    0.0000 Bi  0  0  0  0  0  0  0  0  0  0  0  0
   -1.4287    0.2115    0.0000 O   0  0  0  0  0  0  0  0  0  0  0  0
    1.4287    0.1954    0.0000 O   0  0  0  0  0  0  0  0  0  0  0  0
  1  2  1  0  0  0  0
  1  3  1  0  0  0  0
  2  4  2  0  0  0  0
  3  5  2  0  0  0  0
M  END
>  <DRUGBANK_ID>
DB15929

>  <COMMON_NAME>
Bismuth oxide

>  <CAS_NUMBER>
1304-76-3

>  <UNII>
A6I4E79QF1

>  <SYNONYMS>
Bismuth trioxide; Bismuth yellow; Bismuthous oxide; Bismuthum oxydatum; Dibismuth trioxide

$$$$
