DZ3
 OpenBabel10282417072D

 34 35  0  0  0  0  0  0  0  0999 V2000
   -2.5911    1.9966    0.0000 C   0  0  0  0  0  0  0  0  0  0  0  0
   -2.5911    1.1716    0.0000 C   0  0  0  0  0  0  0  0  0  0  0  0
   -1.8767    0.7591    0.0000 C   0  0  0  0  0  0  0  0  0  0  0  0
   -3.3056    0.7591    0.0000 C   0  0  0  0  0  0  0  0  0  0  0  0
   -4.0201    1.1716    0.0000 O   0  0  0  0  0  0  0  0  0  0  0  0
   -3.3056   -0.0659    0.0000 C   0  0  0  0  0  0  0  0  0  0  0  0
   -4.0201   -0.4784    0.0000 C   0  0  0  0  0  0  0  0  0  0  0  0
   -2.5911   -0.4784    0.0000 C   0  0  0  0  0  0  0  0  0  0  0  0
   -1.8767   -0.0659    0.0000 C   0  0  0  0  0  0  0  0  0  0  0  0
   -1.1622   -0.4784    0.0000 C   0  0  0  0  0  0  0  0  0  0  0  0
   -1.1622   -1.3034    0.0000 O   0  0  0  0  0  0  0  0  0  0  0  0
   -0.4477   -0.0659    0.0000 N   0  0  0  0  0  0  0  0  0  0  0  0
    0.2668   -0.4784    0.0000 C   0  0  0  0  0  0  0  0  0  0  0  0
    0.9812   -0.0659    0.0000 C   0  0  0  0  0  0  0  0  0  0  0  0
    1.6957   -0.4784    0.0000 C   0  0  0  0  0  0  0  0  0  0  0  0
    2.4102   -0.0659    0.0000 Br  0  0  0  0  0  0  0  0  0  0  0  0
    1.6957   -1.3034    0.0000 C   0  0  0  0  0  0  0  0  0  0  0  0
    2.4102   -1.7159    0.0000 O   0  0  0  0  0  0  0  0  0  0  0  0
    0.9812   -1.7159    0.0000 C   0  0  0  0  0  0  0  0  0  0  0  0
    0.9812   -2.5409    0.0000 Br  0  0  0  0  0  0  0  0  0  0  0  0
    0.2668   -1.3034    0.0000 C   0  0  0  0  0  0  0  0  0  0  0  0
   -1.6645    2.5316    0.0000 H   0  0  0  0  0  0  0  0  0  0  0  0
   -3.5177    2.5316    0.0000 H   0  0  0  0  0  0  0  0  0  0  0  0
   -2.5911    3.0666    0.0000 H   0  0  0  0  0  0  0  0  0  0  0  0
   -0.9830    1.2751    0.0000 H   0  0  0  0  0  0  0  0  0  0  0  0
   -4.0201    2.1086    0.0000 H   0  0  0  0  0  0  0  0  0  0  0  0
   -4.9467    0.0566    0.0000 H   0  0  0  0  0  0  0  0  0  0  0  0
   -4.0201   -1.5484    0.0000 H   0  0  0  0  0  0  0  0  0  0  0  0
   -4.9468   -1.0134    0.0000 H   0  0  0  0  0  0  0  0  0  0  0  0
   -2.5911   -1.5104    0.0000 H   0  0  0  0  0  0  0  0  0  0  0  0
   -0.4477    0.9186    0.0000 H   0  0  0  0  0  0  0  0  0  0  0  0
    0.9812    0.9661    0.0000 H   0  0  0  0  0  0  0  0  0  0  0  0
    2.4102   -2.6529    0.0000 H   0  0  0  0  0  0  0  0  0  0  0  0
   -0.6269   -1.8194    0.0000 H   0  0  0  0  0  0  0  0  0  0  0  0
  1  2  1  0  0  0  0
  1 22  1  0  0  0  0
  1 23  1  0  0  0  0
  1 24  1  0  0  0  0
  2  3  2  0  0  0  0
  2  4  1  0  0  0  0
  3  9  1  0  0  0  0
  3 25  1  0  0  0  0
  4  5  1  0  0  0  0
  4  6  2  0  0  0  0
  5 26  1  0  0  0  0
  6  7  1  0  0  0  0
  6  8  1  0  0  0  0
  7 27  1  0  0  0  0
  7 28  1  0  0  0  0
  7 29  1  0  0  0  0
  8  9  2  0  0  0  0
  8 30  1  0  0  0  0
  9 10  1  0  0  0  0
 10 11  2  0  0  0  0
 10 12  1  0  0  0  0
 12 13  1  0  0  0  0
 12 31  1  0  0  0  0
 13 14  2  0  0  0  0
 13 21  1  0  0  0  0
 14 15  1  0  0  0  0
 14 32  1  0  0  0  0
 15 16  1  0  0  0  0
 15 17  2  0  0  0  0
 17 18  1  0  0  0  0
 17 19  1  0  0  0  0
 18 33  1  0  0  0  0
 19 20  1  0  0  0  0
 19 21  2  0  0  0  0
 21 34  1  0  0  0  0
M  END
>  <DRUGBANK_ID>
DB07695

>  <COMMON_NAME>
N-(3,5-dibromo-4-hydroxyphenyl)-4-hydroxy-3,5-dimethylbenzamide

>  <UNII>
QS55UAN7H7

$$$$
