27U
 OpenBabel10282417072D

 54 56  0  0  0  0  0  0  0  0999 V2000
    2.6785   -1.1538    0.0000 C   0  0  0  0  0  0  0  0  0  0  0  0
    1.8938   -1.4088    0.0000 C   0  0  0  0  0  0  0  0  0  0  0  0
    1.2807   -0.8568    0.0000 C   0  0  0  0  0  0  0  0  0  0  0  0
    1.4523   -0.0498    0.0000 O   0  0  0  0  0  0  0  0  0  0  0  0
    0.4961   -1.1117    0.0000 N   0  0  0  0  0  0  0  0  0  0  0  0
    0.2412   -1.8963    0.0000 C   0  0  0  0  0  0  0  0  0  0  0  0
   -0.5838   -1.8963    0.0000 C   0  0  0  0  0  0  0  0  0  0  0  0
   -0.8388   -1.1117    0.0000 C   0  0  0  0  0  0  0  0  0  0  0  0
   -0.1713   -0.6268    0.0000 C   0  0  1  0  0  0  0  0  0  0  0  0
   -0.1713    0.1982    0.0000 C   0  0  0  0  0  0  0  0  0  0  0  0
   -0.8858    0.6107    0.0000 N   0  0  0  0  0  0  0  0  0  0  0  0
   -0.8858    1.4357    0.0000 C   0  0  0  0  0  0  0  0  0  0  0  0
   -1.6003    1.8482    0.0000 C   0  0  0  0  0  0  0  0  0  0  0  0
   -2.3147    1.4357    0.0000 C   0  0  0  0  0  0  0  0  0  0  0  0
   -3.0292    1.8482    0.0000 C   0  0  0  0  0  0  0  0  0  0  0  0
   -3.0292    2.6732    0.0000 C   0  0  0  0  0  0  0  0  0  0  0  0
   -2.3147    3.0857    0.0000 C   0  0  0  0  0  0  0  0  0  0  0  0
   -1.6003    2.6732    0.0000 C   0  0  0  0  0  0  0  0  0  0  0  0
   -3.7437    3.0857    0.0000 C   0  0  0  0  0  0  0  0  0  0  0  0
   -3.7437    3.9107    0.0000 N   0  0  0  0  0  0  0  0  0  0  0  0
   -4.4581    2.6732    0.0000 N   0  0  0  0  0  0  0  0  0  0  0  0
    0.5431    0.6107    0.0000 O   0  0  0  0  0  0  0  0  0  0  0  0
    3.2915   -1.7059    0.0000 C   0  0  0  0  0  0  0  0  0  0  0  0
    4.0762   -1.4509    0.0000 C   0  0  0  0  0  0  0  0  0  0  0  0
    4.6893   -2.0030    0.0000 C   0  0  0  0  0  0  0  0  0  0  0  0
    4.5177   -2.8099    0.0000 C   0  0  0  0  0  0  0  0  0  0  0  0
    3.7331   -3.0649    0.0000 C   0  0  0  0  0  0  0  0  0  0  0  0
    3.1200   -2.5129    0.0000 C   0  0  0  0  0  0  0  0  0  0  0  0
    0.3490   -0.3617    0.0000 H   0  0  0  0  0  0  0  0  0  0  0  0
    2.9010   -0.1072    0.0000 H   0  0  0  0  0  0  0  0  0  0  0  0
    3.6962   -0.8232    0.0000 H   0  0  0  0  0  0  0  0  0  0  0  0
    1.6714   -2.4554    0.0000 H   0  0  0  0  0  0  0  0  0  0  0  0
    0.8762   -1.7395    0.0000 H   0  0  0  0  0  0  0  0  0  0  0  0
    0.8701   -2.7619    0.0000 H   0  0  0  0  0  0  0  0  0  0  0  0
   -0.2446   -2.8497    0.0000 H   0  0  0  0  0  0  0  0  0  0  0  0
   -1.2127   -2.7620    0.0000 H   0  0  0  0  0  0  0  0  0  0  0  0
   -1.6406   -1.7290    0.0000 H   0  0  0  0  0  0  0  0  0  0  0  0
   -1.8564   -0.7811    0.0000 H   0  0  0  0  0  0  0  0  0  0  0  0
   -1.0062   -0.0549    0.0000 H   0  0  0  0  0  0  0  0  0  0  0  0
   -1.7384    0.1184    0.0000 H   0  0  0  0  0  0  0  0  0  0  0  0
    0.0408    1.9707    0.0000 H   0  0  0  0  0  0  0  0  0  0  0  0
   -0.8858    2.5057    0.0000 H   0  0  0  0  0  0  0  0  0  0  0  0
   -2.3147    0.4037    0.0000 H   0  0  0  0  0  0  0  0  0  0  0  0
   -3.9229    1.3322    0.0000 H   0  0  0  0  0  0  0  0  0  0  0  0
   -2.3147    4.1177    0.0000 H   0  0  0  0  0  0  0  0  0  0  0  0
   -0.7066    3.1892    0.0000 H   0  0  0  0  0  0  0  0  0  0  0  0
   -2.8911    4.4029    0.0000 H   0  0  0  0  0  0  0  0  0  0  0  0
   -5.3107    3.1654    0.0000 H   0  0  0  0  0  0  0  0  0  0  0  0
   -4.4581    1.6887    0.0000 H   0  0  0  0  0  0  0  0  0  0  0  0
    4.2908   -0.4415    0.0000 H   0  0  0  0  0  0  0  0  0  0  0  0
    5.6708   -1.6842    0.0000 H   0  0  0  0  0  0  0  0  0  0  0  0
    5.2846   -3.5005    0.0000 H   0  0  0  0  0  0  0  0  0  0  0  0
    3.5186   -4.0744    0.0000 H   0  0  0  0  0  0  0  0  0  0  0  0
    2.1385   -2.8318    0.0000 H   0  0  0  0  0  0  0  0  0  0  0  0
  1  2  1  0  0  0  0
  1 23  1  0  0  0  0
  1 30  1  0  0  0  0
  1 31  1  0  0  0  0
  2  3  1  0  0  0  0
  2 32  1  0  0  0  0
  2 33  1  0  0  0  0
  3  4  2  0  0  0  0
  3  5  1  0  0  0  0
  5  6  1  0  0  0  0
  5  9  1  0  0  0  0
  6  7  1  0  0  0  0
  6 34  1  0  0  0  0
  6 35  1  0  0  0  0
  7  8  1  0  0  0  0
  7 36  1  0  0  0  0
  7 37  1  0  0  0  0
  8  9  1  0  0  0  0
  8 38  1  0  0  0  0
  8 39  1  0  0  0  0
  9 10  1  0  0  0  0
  9 29  1  6  0  0  0
 10 11  1  0  0  0  0
 10 22  2  0  0  0  0
 11 12  1  0  0  0  0
 11 40  1  0  0  0  0
 12 13  1  0  0  0  0
 12 41  1  0  0  0  0
 12 42  1  0  0  0  0
 13 14  2  0  0  0  0
 13 18  1  0  0  0  0
 14 15  1  0  0  0  0
 14 43  1  0  0  0  0
 15 16  2  0  0  0  0
 15 44  1  0  0  0  0
 16 17  1  0  0  0  0
 16 19  1  0  0  0  0
 17 18  2  0  0  0  0
 17 45  1  0  0  0  0
 18 46  1  0  0  0  0
 19 20  2  0  0  0  0
 19 21  1  0  0  0  0
 20 47  1  0  0  0  0
 21 48  1  0  0  0  0
 21 49  1  0  0  0  0
 23 24  2  0  0  0  0
 23 28  1  0  0  0  0
 24 25  1  0  0  0  0
 24 50  1  0  0  0  0
 25 26  2  0  0  0  0
 25 51  1  0  0  0  0
 26 27  1  0  0  0  0
 26 52  1  0  0  0  0
 27 28  2  0  0  0  0
 27 53  1  0  0  0  0
 28 54  1  0  0  0  0
M  END
>  <DRUGBANK_ID>
DB06942

>  <COMMON_NAME>
N-(4-carbamimidoylbenzyl)-1-(3-phenylpropanoyl)-L-prolinamide

$$$$
