
 OpenBabel10282417072D

 41 42  0  0  0  0  0  0  0  0999 V2000
   -0.7145   -0.3846    0.0000 C   0  0  0  0  0  0  0  0  0  0  0  0
   -0.7145   -1.2097    0.0000 C   0  0  0  0  0  0  0  0  0  0  0  0
    0.0000   -1.6222    0.0000 C   0  0  0  0  0  0  0  0  0  0  0  0
    0.7145   -0.3846    0.0000 C   0  0  0  0  0  0  0  0  0  0  0  0
    0.0000    0.0278    0.0000 C   0  0  0  0  0  0  0  0  0  0  0  0
    0.0000    0.8528    0.0000 C   0  0  0  0  0  0  0  0  0  0  0  0
    0.7046    1.2596    0.0000 N   0  0  0  0  0  0  0  0  0  0  0  0
   -1.4289   -1.6222    0.0000 C   0  0  0  0  0  0  0  0  0  0  0  0
    1.4883    1.0019    0.0000 N   0  0  0  0  0  0  0  0  0  0  0  0
    1.9747    1.6681    0.0000 C   0  0  0  0  0  0  0  0  0  0  0  0
    1.4915    2.3368    0.0000 N   0  0  0  0  0  0  0  0  0  0  0  0
    0.7063    2.0839    0.0000 C   0  0  0  0  0  0  0  0  0  0  0  0
   -2.1435   -1.2097    0.0000 C   0  0  0  0  0  0  0  0  0  0  0  0
   -2.8581   -0.7972    0.0000 N   0  0  0  0  0  0  0  0  0  0  0  0
   -1.8414   -2.3368    0.0000 C   0  0  0  0  0  0  0  0  0  0  0  0
   -1.0166   -2.3368    0.0000 C   0  0  0  0  0  0  0  0  0  0  0  0
    0.7145   -1.2097    0.0000 C   0  0  0  0  0  0  0  0  0  0  0  0
    1.4290   -1.6056    0.0000 C   0  0  0  0  0  0  0  0  0  0  0  0
    2.1435   -1.2097    0.0000 C   0  0  0  0  0  0  0  0  0  0  0  0
    2.8580   -0.7972    0.0000 N   0  0  0  0  0  0  0  0  0  0  0  0
    1.8414   -2.3368    0.0000 C   0  0  0  0  0  0  0  0  0  0  0  0
    1.0166   -2.3368    0.0000 C   0  0  0  0  0  0  0  0  0  0  0  0
   -1.6082    0.1315    0.0000 H   0  0  0  0  0  0  0  0  0  0  0  0
    0.0000   -2.6542    0.0000 H   0  0  0  0  0  0  0  0  0  0  0  0
    1.6082    0.1315    0.0000 H   0  0  0  0  0  0  0  0  0  0  0  0
   -0.9266    1.3878    0.0000 H   0  0  0  0  0  0  0  0  0  0  0  0
    0.0000    1.9228    0.0000 H   0  0  0  0  0  0  0  0  0  0  0  0
    3.0067    1.6656    0.0000 H   0  0  0  0  0  0  0  0  0  0  0  0
   -0.1272    2.6924    0.0000 H   0  0  0  0  0  0  0  0  0  0  0  0
   -2.9114   -2.3369    0.0000 H   0  0  0  0  0  0  0  0  0  0  0  0
   -1.3063   -3.2634    0.0000 H   0  0  0  0  0  0  0  0  0  0  0  0
   -2.3763   -3.2635    0.0000 H   0  0  0  0  0  0  0  0  0  0  0  0
   -1.5519   -3.2633    0.0000 H   0  0  0  0  0  0  0  0  0  0  0  0
    0.0534   -2.3371    0.0000 H   0  0  0  0  0  0  0  0  0  0  0  0
   -0.4819   -3.2636    0.0000 H   0  0  0  0  0  0  0  0  0  0  0  0
    1.2971   -3.2580    0.0000 H   0  0  0  0  0  0  0  0  0  0  0  0
    2.9113   -2.3476    0.0000 H   0  0  0  0  0  0  0  0  0  0  0  0
    2.3670   -3.2688    0.0000 H   0  0  0  0  0  0  0  0  0  0  0  0
   -0.0533   -2.3476    0.0000 H   0  0  0  0  0  0  0  0  0  0  0  0
    1.5609   -3.2580    0.0000 H   0  0  0  0  0  0  0  0  0  0  0  0
    0.4910   -3.2688    0.0000 H   0  0  0  0  0  0  0  0  0  0  0  0
  1  2  2  0  0  0  0
  1  5  1  0  0  0  0
  1 23  1  0  0  0  0
  2  3  1  0  0  0  0
  2  8  1  0  0  0  0
  3 17  2  0  0  0  0
  3 24  1  0  0  0  0
  4  5  2  0  0  0  0
  4 25  1  0  0  0  0
  5  6  1  0  0  0  0
  6  7  1  0  0  0  0
  6 26  1  0  0  0  0
  6 27  1  0  0  0  0
  7  9  1  0  0  0  0
  7 12  1  0  0  0  0
  8 13  1  0  0  0  0
  8 15  1  0  0  0  0
  9 10  2  0  0  0  0
 10 11  1  0  0  0  0
 10 28  1  0  0  0  0
 11 12  2  0  0  0  0
 12 29  1  0  0  0  0
 13 14  3  0  0  0  0
 15 30  1  0  0  0  0
 15 31  1  0  0  0  0
 15 32  1  0  0  0  0
 16  8  1  0  0  0  0
 16 33  1  0  0  0  0
 16 34  1  0  0  0  0
 16 35  1  0  0  0  0
 17  4  1  0  0  0  0
 17 18  1  0  0  0  0
 18 19  1  0  0  0  0
 18 21  1  0  0  0  0
 19 20  3  0  0  0  0
 21 36  1  0  0  0  0
 21 37  1  0  0  0  0
 21 38  1  0  0  0  0
 22 18  1  0  0  0  0
 22 39  1  0  0  0  0
 22 40  1  0  0  0  0
 22 41  1  0  0  0  0
M  END
>  <DRUGBANK_ID>
DB01217

>  <SECONDARY_ACCESSION_NUMBERS>
APRD00016

>  <COMMON_NAME>
Anastrozole

>  <CAS_NUMBER>
120511-73-1

>  <UNII>
2Z07MYW1AZ

>  <SYNONYMS>
Anastrozol; Anastrozole; α,α,α',α'-Tetramethyl-5-(1H-1,2,4-triazol-1-ylmethyl)-m-benzenediacetonitrile

$$$$
