
 OpenBabel10282417072D

 43 45  0  0  0  0  0  0  0  0999 V2000
   -0.7146   -0.5693    0.0000 C   0  0  0  0  0  0  0  0  0  0  0  0
   -0.7146   -1.3943    0.0000 C   0  0  0  0  0  0  0  0  0  0  0  0
    0.0000   -0.1568    0.0000 C   0  0  0  0  0  0  0  0  0  0  0  0
    0.0000   -1.8068    0.0000 C   0  0  0  0  0  0  0  0  0  0  0  0
    0.7144   -0.5693    0.0000 C   0  0  0  0  0  0  0  0  0  0  0  0
    0.7144   -1.3943    0.0000 C   0  0  0  0  0  0  0  0  0  0  0  0
    0.5832    0.4264    0.0000 N   0  0  0  0  0  0  0  0  0  0  0  0
   -0.5834    0.4265    0.0000 C   0  0  0  0  0  0  0  0  0  0  0  0
   -0.3697    1.2233    0.0000 C   0  0  0  0  0  0  0  0  0  0  0  0
   -1.3802    0.2130    0.0000 C   0  0  0  0  0  0  0  0  0  0  0  0
   -0.9532    1.8068    0.0000 C   0  0  0  0  0  0  0  0  0  0  0  0
   -1.9636    0.7964    0.0000 C   0  0  0  0  0  0  0  0  0  0  0  0
   -1.7500    1.5933    0.0000 C   0  0  0  0  0  0  0  0  0  0  0  0
    1.3801    0.2129    0.0000 C   0  0  0  0  0  0  0  0  0  0  0  0
    0.3698    1.2234    0.0000 C   0  0  0  0  0  0  0  0  0  0  0  0
    1.9636    0.7964    0.0000 C   0  0  0  0  0  0  0  0  0  0  0  0
    0.9530    1.8067    0.0000 C   0  0  0  0  0  0  0  0  0  0  0  0
    1.7500    1.5932    0.0000 C   0  0  0  0  0  0  0  0  0  0  0  0
   -1.6412   -0.0343    0.0000 H   0  0  0  0  0  0  0  0  0  0  0  0
   -0.7145    0.5007    0.0000 H   0  0  0  0  0  0  0  0  0  0  0  0
   -1.6412   -1.9293    0.0000 H   0  0  0  0  0  0  0  0  0  0  0  0
   -0.7145   -2.4643    0.0000 H   0  0  0  0  0  0  0  0  0  0  0  0
    0.0001   -2.8768    0.0000 H   0  0  0  0  0  0  0  0  0  0  0  0
    0.9267   -2.3418    0.0000 H   0  0  0  0  0  0  0  0  0  0  0  0
    1.6411   -0.0343    0.0000 H   0  0  0  0  0  0  0  0  0  0  0  0
    1.6410   -1.1043    0.0000 H   0  0  0  0  0  0  0  0  0  0  0  0
    1.6411   -1.9293    0.0000 H   0  0  0  0  0  0  0  0  0  0  0  0
    1.6410   -0.8593    0.0000 H   0  0  0  0  0  0  0  0  0  0  0  0
    0.6272    1.4903    0.0000 H   0  0  0  0  0  0  0  0  0  0  0  0
   -1.6473   -0.7838    0.0000 H   0  0  0  0  0  0  0  0  0  0  0  0
   -0.6861    2.8036    0.0000 H   0  0  0  0  0  0  0  0  0  0  0  0
   -2.9604    0.5293    0.0000 H   0  0  0  0  0  0  0  0  0  0  0  0
   -2.4797    2.3231    0.0000 H   0  0  0  0  0  0  0  0  0  0  0  0
    1.6571   -0.8206    0.0000 H   0  0  0  0  0  0  0  0  0  0  0  0
    2.4136   -0.0640    0.0000 H   0  0  0  0  0  0  0  0  0  0  0  0
   -0.6637    1.5004    0.0000 H   0  0  0  0  0  0  0  0  0  0  0  0
    0.0928    2.2569    0.0000 H   0  0  0  0  0  0  0  0  0  0  0  0
    2.9972    0.5195    0.0000 H   0  0  0  0  0  0  0  0  0  0  0  0
    2.7201    1.5531    0.0000 H   0  0  0  0  0  0  0  0  0  0  0  0
    0.6760    2.8402    0.0000 H   0  0  0  0  0  0  0  0  0  0  0  0
    1.7096    2.5634    0.0000 H   0  0  0  0  0  0  0  0  0  0  0  0
    2.5065    2.3499    0.0000 H   0  0  0  0  0  0  0  0  0  0  0  0
    1.4730    2.6267    0.0000 H   0  0  0  0  0  0  0  0  0  0  0  0
  1 19  1  0  0  0  0
  1 20  1  0  0  0  0
  2  1  1  0  0  0  0
  2 21  1  0  0  0  0
  2 22  1  0  0  0  0
  3  1  1  0  0  0  0
  4  2  1  0  0  0  0
  4 23  1  0  0  0  0
  4 24  1  0  0  0  0
  5  3  1  0  0  0  0
  5 25  1  0  0  0  0
  5 26  1  0  0  0  0
  6  4  1  0  0  0  0
  6  5  1  0  0  0  0
  6 27  1  0  0  0  0
  6 28  1  0  0  0  0
  7  3  1  0  0  0  0
  8  3  1  0  0  0  0
  9  8  1  0  0  0  0
  9 29  1  0  0  0  0
 10  8  2  0  0  0  0
 10 30  1  0  0  0  0
 11  9  2  0  0  0  0
 11 31  1  0  0  0  0
 12 10  1  0  0  0  0
 12 32  1  0  0  0  0
 13 11  1  0  0  0  0
 13 12  2  0  0  0  0
 13 33  1  0  0  0  0
 14  7  1  0  0  0  0
 14 34  1  0  0  0  0
 14 35  1  0  0  0  0
 15  7  1  0  0  0  0
 15 36  1  0  0  0  0
 15 37  1  0  0  0  0
 16 14  1  0  0  0  0
 16 38  1  0  0  0  0
 16 39  1  0  0  0  0
 17 15  1  0  0  0  0
 17 40  1  0  0  0  0
 17 41  1  0  0  0  0
 18 16  1  0  0  0  0
 18 17  1  0  0  0  0
 18 42  1  0  0  0  0
 18 43  1  0  0  0  0
M  END
>  <DRUGBANK_ID>
DB03575

>  <SECONDARY_ACCESSION_NUMBERS>
EXPT03307

>  <COMMON_NAME>
Phencyclidine

>  <CAS_NUMBER>
77-10-1

>  <UNII>
J1DOI7UV76

>  <SYNONYMS>
1-(1-Phenylcyclohexyl)piperidine; Fenciclidina; PCP; Phencyclidine; Phencyclidinum

$$$$
