
 OpenBabel10282417072D

  2  1  0  0  0  0  0  0  0  0999 V2000
    0.4125    0.0000    0.0000 O   0  3  0  0  0  0  0  0  0  0  0  0
   -0.4125    0.0000    0.0000 C   0  5  0  0  0  0  0  0  0  0  0  0
  2  1  3  0  0  0  0
M  CHG  2   1   1   2  -1
M  END
>  <DRUGBANK_ID>
DB11588

>  <COMMON_NAME>
Carbon monoxide

>  <CAS_NUMBER>
630-08-0

>  <UNII>
7U1EE4V452

>  <SYNONYMS>
Carbon monoxide; carbon(II) oxide; Carboneum oxygenisatum; CO

$$$$
