854
 OpenBabel10282417072D

 42 45  0  0  1  0  0  0  0  0999 V2000
    2.0103   -0.3755    0.0000 O   0  0  0  0  0  0  0  0  0  0  0  0
    4.9304    0.6944    0.0000 N   0  0  0  0  0  0  0  0  0  0  0  0
    4.8064   -0.3564    0.0000 C   0  0  2  0  0  0  0  0  0  0  0  0
    5.4924    0.0397    0.0000 C   0  0  2  0  0  0  0  0  0  0  0  0
    5.4924    0.8317    0.0000 C   0  0  1  0  0  0  0  0  0  0  0  0
    4.6456   -0.0634    0.0000 C   0  0  0  0  0  0  0  0  0  0  0  0
    4.7937   -1.1813    0.0000 C   0  0  0  0  0  0  0  0  0  0  0  0
    6.2132   -0.3618    0.0000 C   0  0  0  0  0  0  0  0  0  0  0  0
    4.1204    0.0397    0.0000 C   0  0  0  0  0  0  0  0  0  0  0  0
    4.8064    1.2278    0.0000 C   0  0  0  0  0  0  0  0  0  0  0  0
    4.5792    0.3878    0.0000 C   0  0  0  0  0  0  0  0  0  0  0  0
    5.5050   -1.5993    0.0000 C   0  0  0  0  0  0  0  0  0  0  0  0
    6.2195   -1.1868    0.0000 C   0  0  0  0  0  0  0  0  0  0  0  0
    4.1204    0.8317    0.0000 C   0  0  0  0  0  0  0  0  0  0  0  0
    3.4124   -0.3839    0.0000 C   0  0  0  0  0  0  0  0  0  0  0  0
    4.4930    1.1438    0.0000 C   0  0  0  0  0  0  0  0  0  0  0  0
    3.4124    1.2552    0.0000 C   0  0  0  0  0  0  0  0  0  0  0  0
    2.6947    0.0232    0.0000 C   0  0  0  0  0  0  0  0  0  0  0  0
    2.6947    0.8483    0.0000 C   0  0  0  0  0  0  0  0  0  0  0  0
    6.2069    0.4522    0.0000 H   0  0  0  0  0  0  0  0  0  0  0  0
    1.1970    0.0898    0.0000 H   0  0  0  0  0  0  0  0  0  0  0  0
    4.8316   -0.0099    0.0000 H   0  0  0  0  0  0  0  0  0  0  0  0
    3.6313   -0.4041    0.0000 H   0  0  0  0  0  0  0  0  0  0  0  0
    3.7336    0.4962    0.0000 H   0  0  0  0  0  0  0  0  0  0  0  0
    3.8609   -1.7056    0.0000 H   0  0  0  0  0  0  0  0  0  0  0  0
    4.7834   -2.2513    0.0000 H   0  0  0  0  0  0  0  0  0  0  0  0
    7.1336    0.1838    0.0000 H   0  0  0  0  0  0  0  0  0  0  0  0
    7.1449   -0.8879    0.0000 H   0  0  0  0  0  0  0  0  0  0  0  0
    4.8064    2.2978    0.0000 H   0  0  0  0  0  0  0  0  0  0  0  0
    3.8797    1.7628    0.0000 H   0  0  0  0  0  0  0  0  0  0  0  0
    3.5754    0.7582    0.0000 H   0  0  0  0  0  0  0  0  0  0  0  0
    3.7483   -0.2864    0.0000 H   0  0  0  0  0  0  0  0  0  0  0  0
    5.5009   -2.6693    0.0000 H   0  0  0  0  0  0  0  0  0  0  0  0
    6.4306   -2.1361    0.0000 H   0  0  0  0  0  0  0  0  0  0  0  0
    7.1482   -1.7183    0.0000 H   0  0  0  0  0  0  0  0  0  0  0  0
    6.2215   -2.2568    0.0000 H   0  0  0  0  0  0  0  0  0  0  0  0
    3.4244   -1.4158    0.0000 H   0  0  0  0  0  0  0  0  0  0  0  0
    4.7839    2.1735    0.0000 H   0  0  0  0  0  0  0  0  0  0  0  0
    3.4558    0.8809    0.0000 H   0  0  0  0  0  0  0  0  0  0  0  0
    3.7467    1.9106    0.0000 H   0  0  0  0  0  0  0  0  0  0  0  0
    3.4244    2.2871    0.0000 H   0  0  0  0  0  0  0  0  0  0  0  0
    1.8030    1.3678    0.0000 H   0  0  0  0  0  0  0  0  0  0  0  0
  1 18  1  0  0  0  0
  1 21  1  0  0  0  0
  2 11  1  0  0  0  0
  2 16  1  0  0  0  0
  3  4  1  0  0  0  0
  3  6  1  0  0  0  0
  3  7  1  0  0  0  0
  3  9  1  6  0  0  0
  4  5  1  0  0  0  0
  4  8  1  0  0  0  0
  4 20  1  1  0  0  0
  5  2  1  0  0  0  0
  5 10  1  0  0  0  0
  5 22  1  1  0  0  0
  6 11  1  0  0  0  0
  6 23  1  0  0  0  0
  6 24  1  0  0  0  0
  7 12  1  0  0  0  0
  7 25  1  0  0  0  0
  7 26  1  0  0  0  0
  8 13  1  0  0  0  0
  8 27  1  0  0  0  0
  8 28  1  0  0  0  0
  9 14  2  0  0  0  0
  9 15  1  0  0  0  0
 10 14  1  0  0  0  0
 10 29  1  0  0  0  0
 10 30  1  0  0  0  0
 11 31  1  0  0  0  0
 11 32  1  0  0  0  0
 12 13  1  0  0  0  0
 12 33  1  0  0  0  0
 12 34  1  0  0  0  0
 13 35  1  0  0  0  0
 13 36  1  0  0  0  0
 14 17  1  0  0  0  0
 15 18  2  0  0  0  0
 15 37  1  0  0  0  0
 16 38  1  0  0  0  0
 16 39  1  0  0  0  0
 16 40  1  0  0  0  0
 17 19  2  0  0  0  0
 17 41  1  0  0  0  0
 18 19  1  0  0  0  0
 19 42  1  0  0  0  0
M  END
>  <DRUGBANK_ID>
DB00854

>  <SECONDARY_ACCESSION_NUMBERS>
APRD00764

>  <COMMON_NAME>
Levorphanol

>  <CAS_NUMBER>
77-07-6

>  <UNII>
27618J1N2X

>  <SYNONYMS>
Levorfanol; Levorfanolo; LÃ©vorphanol; Levorphanol; Levorphanolum

$$$$
