4MD
 OpenBabel10282417072D

 38 39  0  0  0  0  0  0  0  0999 V2000
    2.6791    0.0122    0.0000 C   0  0  0  0  0  0  0  0  0  0  0  0
    3.3936   -0.4003    0.0000 C   0  0  0  0  0  0  0  0  0  0  0  0
    3.3936   -1.2253    0.0000 C   0  0  0  0  0  0  0  0  0  0  0  0
    4.1080   -1.6378    0.0000 Cl  0  0  0  0  0  0  0  0  0  0  0  0
    2.6791   -1.6378    0.0000 C   0  0  0  0  0  0  0  0  0  0  0  0
    1.9646   -1.2253    0.0000 C   0  0  0  0  0  0  0  0  0  0  0  0
    1.9646   -0.4003    0.0000 C   0  0  0  0  0  0  0  0  0  0  0  0
    1.2502    0.0122    0.0000 C   0  0  0  0  0  0  0  0  0  0  0  0
    0.5357   -0.4003    0.0000 N   0  0  0  0  0  0  0  0  0  0  0  0
    0.5357   -1.2253    0.0000 C   0  0  0  0  0  0  0  0  0  0  0  0
   -0.1788    0.0122    0.0000 S   0  0  0  0  0  0  0  0  0  0  0  0
    0.2337    0.7266    0.0000 O   0  0  0  0  0  0  0  0  0  0  0  0
   -0.5913   -0.7023    0.0000 O   0  0  0  0  0  0  0  0  0  0  0  0
   -0.8933    0.4247    0.0000 C   0  0  0  0  0  0  0  0  0  0  0  0
   -1.6077    0.0122    0.0000 C   0  0  0  0  0  0  0  0  0  0  0  0
   -2.3222    0.4247    0.0000 C   0  0  0  0  0  0  0  0  0  0  0  0
   -0.8933    1.2497    0.0000 C   0  0  0  0  0  0  0  0  0  0  0  0
   -1.6077    1.6622    0.0000 C   0  0  0  0  0  0  0  0  0  0  0  0
   -2.3222    1.2497    0.0000 C   0  0  0  0  0  0  0  0  0  0  0  0
   -3.0367    1.6622    0.0000 S   0  0  0  0  0  0  0  0  0  0  0  0
   -3.7511    2.0747    0.0000 O   0  0  0  0  0  0  0  0  0  0  0  0
   -2.6242    2.3766    0.0000 O   0  0  0  0  0  0  0  0  0  0  0  0
   -3.4492    0.9477    0.0000 N   0  0  0  0  0  0  0  0  0  0  0  0
    2.6791    1.0442    0.0000 H   0  0  0  0  0  0  0  0  0  0  0  0
    4.2873    0.1157    0.0000 H   0  0  0  0  0  0  0  0  0  0  0  0
    2.6791   -2.6698    0.0000 H   0  0  0  0  0  0  0  0  0  0  0  0
    1.0709   -1.7413    0.0000 H   0  0  0  0  0  0  0  0  0  0  0  0
    1.2502    1.0822    0.0000 H   0  0  0  0  0  0  0  0  0  0  0  0
    0.3236    0.5472    0.0000 H   0  0  0  0  0  0  0  0  0  0  0  0
   -0.3909   -1.7603    0.0000 H   0  0  0  0  0  0  0  0  0  0  0  0
    1.4623   -1.7603    0.0000 H   0  0  0  0  0  0  0  0  0  0  0  0
    0.5357   -2.2953    0.0000 H   0  0  0  0  0  0  0  0  0  0  0  0
   -1.6077   -1.0198    0.0000 H   0  0  0  0  0  0  0  0  0  0  0  0
   -3.2159   -0.0913    0.0000 H   0  0  0  0  0  0  0  0  0  0  0  0
    0.0004    1.7657    0.0000 H   0  0  0  0  0  0  0  0  0  0  0  0
   -1.6077    2.6942    0.0000 H   0  0  0  0  0  0  0  0  0  0  0  0
   -4.4692    0.9477    0.0000 H   0  0  0  0  0  0  0  0  0  0  0  0
   -2.9392    0.0644    0.0000 H   0  0  0  0  0  0  0  0  0  0  0  0
  1  2  2  0  0  0  0
  1  7  1  0  0  0  0
  1 24  1  0  0  0  0
  2  3  1  0  0  0  0
  2 25  1  0  0  0  0
  3  4  1  0  0  0  0
  3  5  2  0  0  0  0
  5  6  1  0  0  0  0
  5 26  1  0  0  0  0
  6  7  2  0  0  0  0
  6 27  1  0  0  0  0
  7  8  1  0  0  0  0
  8  9  1  0  0  0  0
  8 28  1  0  0  0  0
  8 29  1  0  0  0  0
  9 10  1  0  0  0  0
  9 11  1  0  0  0  0
 10 30  1  0  0  0  0
 10 31  1  0  0  0  0
 10 32  1  0  0  0  0
 11 12  2  0  0  0  0
 11 13  2  0  0  0  0
 11 14  1  0  0  0  0
 14 15  2  0  0  0  0
 14 17  1  0  0  0  0
 15 16  1  0  0  0  0
 15 33  1  0  0  0  0
 16 19  2  0  0  0  0
 16 34  1  0  0  0  0
 17 18  2  0  0  0  0
 17 35  1  0  0  0  0
 18 19  1  0  0  0  0
 18 36  1  0  0  0  0
 19 20  1  0  0  0  0
 20 21  2  0  0  0  0
 20 22  2  0  0  0  0
 20 23  1  0  0  0  0
 23 37  1  0  0  0  0
 23 38  1  0  0  0  0
M  END
>  <DRUGBANK_ID>
DB07115

>  <COMMON_NAME>
N-(4-chlorobenzyl)-N-methylbenzene-1,4-disulfonamide

$$$$
