
 OpenBabel10282417072D

 61 66  0  0  1  0  0  0  0  0999 V2000
    4.5466    1.3336    0.0000 C   0  0  0  0  0  0  0  0  0  0  0  0
    2.0307    1.7357    0.0000 C   0  0  0  0  0  0  0  0  0  0  0  0
   -1.3892    1.8815    0.0000 C   0  0  0  0  0  0  0  0  0  0  0  0
   -1.1089    1.1056    0.0000 C   0  0  0  0  0  0  0  0  0  0  0  0
   -0.8574    2.5122    0.0000 C   0  0  0  0  0  0  0  0  0  0  0  0
   -0.2968    0.9604    0.0000 C   0  0  0  0  0  0  0  0  0  0  0  0
    4.5754   -0.8489    0.0000 C   0  0  0  0  0  0  0  0  0  0  0  0
    3.7633   -0.7037    0.0000 C   0  0  0  0  0  0  0  0  0  0  0  0
    2.0195   -0.2889    0.0000 C   0  0  0  0  0  0  0  0  0  0  0  0
    1.3367    0.1741    0.0000 C   0  0  0  0  0  0  0  0  0  0  0  0
    6.1708    1.0432    0.0000 C   0  0  0  0  0  0  0  0  0  0  0  0
    3.7345    1.4789    0.0000 C   0  0  0  0  0  0  0  0  0  0  0  0
    5.3587    1.1884    0.0000 C   0  0  0  0  0  0  0  0  0  0  0  0
    2.9224    1.6241    0.0000 C   0  0  0  0  0  0  0  0  0  0  0  0
    5.9193   -0.3634    0.0000 C   0  0  0  0  0  0  0  0  0  0  0  0
    1.2889    2.4104    0.0000 C   0  0  0  0  0  0  0  0  0  0  0  0
    5.1072   -0.2182    0.0000 C   0  0  0  0  0  0  0  0  0  0  0  0
    6.4511    0.2673    0.0000 C   0  0  1  0  0  0  0  0  0  0  0  0
    3.4830    0.0722    0.0000 C   0  0  1  0  0  0  0  0  0  0  0  0
    2.6708    0.2174    0.0000 C   0  0  1  0  0  0  0  0  0  0  0  0
    4.0148    0.7029    0.0000 C   0  0  1  0  0  0  0  0  0  0  0  0
   -0.0452    2.3670    0.0000 C   0  0  0  0  0  0  0  0  0  0  0  0
    0.2351    1.5911    0.0000 C   0  0  0  0  0  0  0  0  0  0  0  0
    1.5660    0.9666    0.0000 C   0  0  0  0  0  0  0  0  0  0  0  0
    4.8269    0.5577    0.0000 C   0  0  2  0  0  0  0  0  0  0  0  0
    2.3905    0.9934    0.0000 C   0  0  2  0  0  0  0  0  0  0  0  0
    0.6061    2.8734    0.0000 N   0  0  0  0  0  0  0  0  0  0  0  0
    1.0596    1.6179    0.0000 N   0  0  0  0  0  0  0  0  0  0  0  0
    7.2632    0.1221    0.0000 O   0  0  0  0  0  0  0  0  0  0  0  0
    6.9829    0.8980    0.0000 H   0  0  0  0  0  0  0  0  0  0  0  0
    3.1989   -0.7023    0.0000 H   0  0  0  0  0  0  0  0  0  0  0  0
    2.5826   -0.6028    0.0000 H   0  0  0  0  0  0  0  0  0  0  0  0
    4.2988    1.4775    0.0000 H   0  0  0  0  0  0  0  0  0  0  0  0
    5.2363    2.1516    0.0000 H   0  0  0  0  0  0  0  0  0  0  0  0
    3.4933    1.5219    0.0000 H   0  0  0  0  0  0  0  0  0  0  0  0
    4.1830    2.3399    0.0000 H   0  0  0  0  0  0  0  0  0  0  0  0
    2.6312    2.6213    0.0000 H   0  0  0  0  0  0  0  0  0  0  0  0
    0.9635    1.8129    0.0000 H   0  0  0  0  0  0  0  0  0  0  0  0
    1.5640    2.6986    0.0000 H   0  0  0  0  0  0  0  0  0  0  0  0
   -2.4051    2.0631    0.0000 H   0  0  0  0  0  0  0  0  0  0  0  0
   -1.7741    0.3166    0.0000 H   0  0  0  0  0  0  0  0  0  0  0  0
   -1.2081    3.4828    0.0000 H   0  0  0  0  0  0  0  0  0  0  0  0
    0.0538   -0.0102    0.0000 H   0  0  0  0  0  0  0  0  0  0  0  0
    4.9260   -1.8195    0.0000 H   0  0  0  0  0  0  0  0  0  0  0  0
    3.0736   -1.5217    0.0000 H   0  0  0  0  0  0  0  0  0  0  0  0
    2.7100   -0.5154    0.0000 H   0  0  0  0  0  0  0  0  0  0  0  0
    2.0542   -1.3583    0.0000 H   0  0  0  0  0  0  0  0  0  0  0  0
    2.9881   -0.7435    0.0000 H   0  0  0  0  0  0  0  0  0  0  0  0
    0.3661   -0.1765    0.0000 H   0  0  0  0  0  0  0  0  0  0  0  0
    6.8605    1.8612    0.0000 H   0  0  0  0  0  0  0  0  0  0  0  0
    7.2241    0.8549    0.0000 H   0  0  0  0  0  0  0  0  0  0  0  0
    4.4243    2.2969    0.0000 H   0  0  0  0  0  0  0  0  0  0  0  0
    4.7878    1.2905    0.0000 H   0  0  0  0  0  0  0  0  0  0  0  0
    4.9951    2.1947    0.0000 H   0  0  0  0  0  0  0  0  0  0  0  0
    4.3054    1.3767    0.0000 H   0  0  0  0  0  0  0  0  0  0  0  0
    2.5589    2.6305    0.0000 H   0  0  0  0  0  0  0  0  0  0  0  0
    1.8691    1.8125    0.0000 H   0  0  0  0  0  0  0  0  0  0  0  0
    6.2829   -1.3697    0.0000 H   0  0  0  0  0  0  0  0  0  0  0  0
    6.9726   -0.5517    0.0000 H   0  0  0  0  0  0  0  0  0  0  0  0
    2.2595    2.7610    0.0000 H   0  0  0  0  0  0  0  0  0  0  0  0
    7.5928   -0.7902    0.0000 H   0  0  0  0  0  0  0  0  0  0  0  0
  1 34  1  0  0  0  0
  1 35  1  0  0  0  0
  1 36  1  0  0  0  0
  2 37  1  0  0  0  0
  2 38  1  0  0  0  0
  2 39  1  0  0  0  0
  3 40  1  0  0  0  0
  4  3  2  0  0  0  0
  4 41  1  0  0  0  0
  5  3  1  0  0  0  0
  5 42  1  0  0  0  0
  6  4  1  0  0  0  0
  6 43  1  0  0  0  0
  7 44  1  0  0  0  0
  8  7  1  0  0  0  0
  8 45  1  0  0  0  0
  8 46  1  0  0  0  0
  9 47  1  0  0  0  0
  9 48  1  0  0  0  0
 10  9  1  0  0  0  0
 10 49  1  0  0  0  0
 11 50  1  0  0  0  0
 11 51  1  0  0  0  0
 12 52  1  0  0  0  0
 12 53  1  0  0  0  0
 13 11  1  0  0  0  0
 13 54  1  0  0  0  0
 13 55  1  0  0  0  0
 14 12  1  0  0  0  0
 14 56  1  0  0  0  0
 14 57  1  0  0  0  0
 15 58  1  0  0  0  0
 15 59  1  0  0  0  0
 16 60  1  0  0  0  0
 17  7  2  0  0  0  0
 17 15  1  0  0  0  0
 18 11  1  0  0  0  0
 18 15  1  0  0  0  0
 18 29  1  0  0  0  0
 18 30  1  1  0  0  0
 19  8  1  0  0  0  0
 19 31  1  6  0  0  0
 20  9  1  0  0  0  0
 20 19  1  0  0  0  0
 20 32  1  1  0  0  0
 21 12  1  0  0  0  0
 21 19  1  0  0  0  0
 21 33  1  1  0  0  0
 22  5  2  0  0  0  0
 23  6  2  0  0  0  0
 23 22  1  0  0  0  0
 24 10  2  0  0  0  0
 25  1  1  6  0  0  0
 25 13  1  0  0  0  0
 25 17  1  0  0  0  0
 25 21  1  0  0  0  0
 26  2  1  6  0  0  0
 26 14  1  0  0  0  0
 26 20  1  0  0  0  0
 26 24  1  0  0  0  0
 27 16  2  0  0  0  0
 27 22  1  0  0  0  0
 28 16  1  0  0  0  0
 28 23  1  0  0  0  0
 28 24  1  0  0  0  0
 29 61  1  0  0  0  0
M  END
>  <DRUGBANK_ID>
DB12415

>  <COMMON_NAME>
Galeterone

>  <CAS_NUMBER>
851983-85-2

>  <UNII>
WA33E149SW

>  <SYNONYMS>
Galeterone

$$$$
