
 OpenBabel10282417072D

 27 27  0  0  1  0  0  0  0  0999 V2000
    2.1913    1.6913    0.0000 C   0  0  0  0  0  0  0  0  0  0  0  0
    2.0198    0.8843    0.0000 C   0  0  2  0  0  0  0  0  0  0  0  0
    2.6329    0.3323    0.0000 N   0  0  0  0  0  0  0  0  0  0  0  0
    1.2352    0.6294    0.0000 C   0  0  0  0  0  0  0  0  0  0  0  0
    0.9803   -0.1553    0.0000 N   0  0  0  0  0  0  0  0  0  0  0  0
    0.1553   -0.1553    0.0000 C   0  0  0  0  0  0  0  0  0  0  0  0
   -0.3297   -0.8227    0.0000 C   0  0  0  0  0  0  0  0  0  0  0  0
   -0.0997    0.6294    0.0000 C   0  0  0  0  0  0  0  0  0  0  0  0
   -0.8843    0.8843    0.0000 O   0  0  0  0  0  0  0  0  0  0  0  0
    0.5678    1.1143    0.0000 N   0  0  0  0  0  0  0  0  0  0  0  0
    0.5678    1.9393    0.0000 C   0  0  0  0  0  0  0  0  0  0  0  0
   -0.1467    2.3518    0.0000 C   0  0  0  0  0  0  0  0  0  0  0  0
   -0.8612    1.9393    0.0000 O   0  0  0  0  0  0  0  0  0  0  0  0
   -0.1467    3.1768    0.0000 O   0  0  0  0  0  0  0  0  0  0  0  0
    3.2089    2.0220    0.0000 H   0  0  0  0  0  0  0  0  0  0  0  0
    1.3961    2.4072    0.0000 H   0  0  0  0  0  0  0  0  0  0  0  0
    2.4137    2.7379    0.0000 H   0  0  0  0  0  0  0  0  0  0  0  0
    3.0374    1.2150    0.0000 H   0  0  0  0  0  0  0  0  0  0  0  0
    2.4209   -0.6654    0.0000 H   0  0  0  0  0  0  0  0  0  0  0  0
    3.6030    0.6475    0.0000 H   0  0  0  0  0  0  0  0  0  0  0  0
   -1.3938   -0.7107    0.0000 H   0  0  0  0  0  0  0  0  0  0  0  0
    0.1054   -1.8002    0.0000 H   0  0  0  0  0  0  0  0  0  0  0  0
   -0.9587   -1.6883    0.0000 H   0  0  0  0  0  0  0  0  0  0  0  0
   -1.0791    1.8008    0.0000 H   0  0  0  0  0  0  0  0  0  0  0  0
    1.4944    2.4743    0.0000 H   0  0  0  0  0  0  0  0  0  0  0  0
    0.5678    3.0093    0.0000 H   0  0  0  0  0  0  0  0  0  0  0  0
   -1.6727    2.4078    0.0000 H   0  0  0  0  0  0  0  0  0  0  0  0
  1  2  1  0  0  0  0
  1 15  1  0  0  0  0
  1 16  1  0  0  0  0
  1 17  1  0  0  0  0
  2  3  1  0  0  0  0
  2  4  1  0  0  0  0
  2 18  1  1  0  0  0
  3 19  1  0  0  0  0
  3 20  1  0  0  0  0
  4  5  2  0  0  0  0
  4 10  1  0  0  0  0
  5  6  1  0  0  0  0
  6  7  1  0  0  0  0
  6  8  2  0  0  0  0
  7 21  1  0  0  0  0
  7 22  1  0  0  0  0
  7 23  1  0  0  0  0
  8  9  1  0  0  0  0
  8 10  1  0  0  0  0
  9 24  1  0  0  0  0
 10 11  1  0  0  0  0
 11 12  1  0  0  0  0
 11 25  1  0  0  0  0
 11 26  1  0  0  0  0
 12 13  1  0  0  0  0
 12 14  2  0  0  0  0
 13 27  1  0  0  0  0
M  END
>  <DRUGBANK_ID>
DB03071

>  <SECONDARY_ACCESSION_NUMBERS>
EXPT02146

>  <COMMON_NAME>
4-Methylidene-5-One

$$$$
