
 OpenBabel10282417072D

 40 40  0  0  1  0  0  0  0  0999 V2000
   -0.4790   -2.2438    0.0000 C   0  0  0  0  0  0  0  0  0  0  0  0
    0.8264   -1.6626    0.0000 C   0  0  0  0  0  0  0  0  0  0  0  0
   -1.0462    0.7712    0.0000 C   0  0  0  0  0  0  0  0  0  0  0  0
    2.0198    0.8843    0.0000 C   0  0  0  0  0  0  0  0  0  0  0  0
    2.1913    1.6913    0.0000 C   0  0  0  0  0  0  0  0  0  0  0  0
   -0.3297   -0.8227    0.0000 C   0  0  0  0  0  0  0  0  0  0  0  0
    0.0059   -1.5764    0.0000 C   0  0  0  0  0  0  0  0  0  0  0  0
   -0.7912    1.5559    0.0000 C   0  0  2  0  0  0  0  0  0  0  0  0
    0.1553   -0.1553    0.0000 C   0  0  0  0  0  0  0  0  0  0  0  0
    0.0157    1.7274    0.0000 C   0  0  1  0  0  0  0  0  0  0  0  0
    0.9803   -0.1553    0.0000 C   0  0  0  0  0  0  0  0  0  0  0  0
    0.5678    1.1143    0.0000 C   0  0  1  0  0  0  0  0  0  0  0  0
    0.2707    2.5120    0.0000 N   0  0  0  0  0  0  0  0  0  0  0  0
   -0.0997    0.6294    0.0000 N   0  0  0  0  0  0  0  0  0  0  0  0
    1.2352    0.6294    0.0000 N   0  0  0  0  0  0  0  0  0  0  0  0
    2.9760    1.9462    0.0000 O   0  0  0  0  0  0  0  0  0  0  0  0
   -1.3433    2.1689    0.0000 O   0  0  0  0  0  0  0  0  0  0  0  0
    1.4652   -0.8227    0.0000 O   0  0  0  0  0  0  0  0  0  0  0  0
    1.1198    1.7274    0.0000 O   0  0  0  0  0  0  0  0  0  0  0  0
   -0.0628    1.1685    0.0000 H   0  0  0  0  0  0  0  0  0  0  0  0
    0.0445    0.9029    0.0000 H   0  0  0  0  0  0  0  0  0  0  0  0
   -1.5431   -2.1319    0.0000 H   0  0  0  0  0  0  0  0  0  0  0  0
   -0.0438   -3.2213    0.0000 H   0  0  0  0  0  0  0  0  0  0  0  0
   -1.1079   -3.1094    0.0000 H   0  0  0  0  0  0  0  0  0  0  0  0
    1.2617   -2.6401    0.0000 H   0  0  0  0  0  0  0  0  0  0  0  0
    1.4553   -0.7969    0.0000 H   0  0  0  0  0  0  0  0  0  0  0  0
    1.8905   -1.7744    0.0000 H   0  0  0  0  0  0  0  0  0  0  0  0
   -2.0928    0.5488    0.0000 H   0  0  0  0  0  0  0  0  0  0  0  0
   -0.3303   -0.0240    0.0000 H   0  0  0  0  0  0  0  0  0  0  0  0
   -1.3769   -0.2464    0.0000 H   0  0  0  0  0  0  0  0  0  0  0  0
    2.8150    0.1683    0.0000 H   0  0  0  0  0  0  0  0  0  0  0  0
    1.7973   -0.1623    0.0000 H   0  0  0  0  0  0  0  0  0  0  0  0
    1.4244    2.3819    0.0000 H   0  0  0  0  0  0  0  0  0  0  0  0
   -1.3938   -0.7108    0.0000 H   0  0  0  0  0  0  0  0  0  0  0  0
   -0.7648    0.1548    0.0000 H   0  0  0  0  0  0  0  0  0  0  0  0
    0.6348   -0.7107    0.0000 H   0  0  0  0  0  0  0  0  0  0  0  0
    1.2684    2.7240    0.0000 H   0  0  0  0  0  0  0  0  0  0  0  0
   -0.4118    3.2701    0.0000 H   0  0  0  0  0  0  0  0  0  0  0  0
   -1.0437    3.0915    0.0000 H   0  0  0  0  0  0  0  0  0  0  0  0
    2.0686    1.5258    0.0000 H   0  0  0  0  0  0  0  0  0  0  0  0
  1 22  1  0  0  0  0
  1 23  1  0  0  0  0
  1 24  1  0  0  0  0
  2 25  1  0  0  0  0
  2 26  1  0  0  0  0
  2 27  1  0  0  0  0
  3 28  1  0  0  0  0
  3 29  1  0  0  0  0
  3 30  1  0  0  0  0
  4 31  1  0  0  0  0
  4 32  1  0  0  0  0
  5  4  1  0  0  0  0
  5 33  1  0  0  0  0
  6 34  1  0  0  0  0
  6 35  1  0  0  0  0
  7  1  1  0  0  0  0
  7  2  1  0  0  0  0
  7  6  1  0  0  0  0
  7 36  1  0  0  0  0
  8  3  1  0  0  0  0
  8 17  1  0  0  0  0
  8 20  1  6  0  0  0
  9  6  1  0  0  0  0
 10  8  1  0  0  0  0
 10 13  1  0  0  0  0
 10 21  1  1  0  0  0
 11  9  1  0  0  0  0
 12 10  1  0  0  0  0
 12 19  1  1  0  0  0
 13 37  1  0  0  0  0
 13 38  1  0  0  0  0
 14  9  2  0  0  0  0
 14 12  1  0  0  0  0
 15  4  1  0  0  0  0
 15 11  1  0  0  0  0
 15 12  1  0  0  0  0
 16  5  2  0  0  0  0
 17 39  1  0  0  0  0
 18 11  2  0  0  0  0
 19 40  1  0  0  0  0
M  END
>  <DRUGBANK_ID>
DB02488

>  <SECONDARY_ACCESSION_NUMBERS>
EXPT01009

>  <COMMON_NAME>
1-(2-Ethanone)-2-Hydroxy-2-(1-Amino-2-Methyl-2-Ethanol)-4-(2-Dimethyl)Ethane-Imidazoline-5-One;Chromophore (Thr-Leu-Gly)

$$$$
