
 OpenBabel10282417072D

 51 54  0  0  1  0  0  0  0  0999 V2000
   -2.2539   -2.4750    0.0000 C   0  0  0  0  0  0  0  0  0  0  0  0
   -1.4289   -2.4750    0.0000 C   0  0  0  0  0  0  0  0  0  0  0  0
   -0.6039   -2.4750    0.0000 C   0  0  0  0  0  0  0  0  0  0  0  0
   -1.4289   -1.6500    0.0000 N   0  0  0  0  0  0  0  0  0  0  0  0
   -0.7145   -1.2375    0.0000 C   0  0  0  0  0  0  0  0  0  0  0  0
    0.0000   -1.6500    0.0000 O   0  0  0  0  0  0  0  0  0  0  0  0
   -0.7145   -0.4125    0.0000 O   0  0  0  0  0  0  0  0  0  0  0  0
   -0.0000    0.0000    0.0000 C   0  0  2  0  0  0  0  0  0  0  0  0
    0.0000    0.8250    0.0000 C   0  0  0  0  0  0  0  0  0  0  0  0
    0.7145    1.2375    0.0000 N   0  0  3  0  0  0  0  0  0  0  0  0
    1.4289    0.8250    0.0000 C   0  0  0  0  0  0  0  0  0  0  0  0
    1.4289    0.0000    0.0000 C   0  0  0  0  0  0  0  0  0  0  0  0
    0.7145   -0.4125    0.0000 C   0  0  3  0  0  0  0  0  0  0  0  0
    0.8520    0.1375    0.0000 C   0  0  0  0  0  0  0  0  0  0  0  0
    0.8520    0.6875    0.0000 C   0  0  0  0  0  0  0  0  0  0  0  0
   -1.4289   -3.3000    0.0000 C   0  0  0  0  0  0  0  0  0  0  0  0
   -0.7615   -3.7849    0.0000 C   0  0  0  0  0  0  0  0  0  0  0  0
   -1.0164   -4.5695    0.0000 S   0  0  0  0  0  0  0  0  0  0  0  0
   -1.8414   -4.5695    0.0000 C   0  0  0  0  0  0  0  0  0  0  0  0
   -2.0964   -3.7849    0.0000 N   0  0  0  0  0  0  0  0  0  0  0  0
   -2.3264   -5.2370    0.0000 C   0  0  0  0  0  0  0  0  0  0  0  0
   -1.9908   -5.9907    0.0000 C   0  0  0  0  0  0  0  0  0  0  0  0
   -2.4757   -6.6581    0.0000 C   0  0  0  0  0  0  0  0  0  0  0  0
   -3.2962   -6.5719    0.0000 C   0  0  0  0  0  0  0  0  0  0  0  0
   -3.7811   -7.2393    0.0000 F   0  0  0  0  0  0  0  0  0  0  0  0
   -3.6318   -5.8182    0.0000 C   0  0  0  0  0  0  0  0  0  0  0  0
   -3.1468   -5.1507    0.0000 C   0  0  0  0  0  0  0  0  0  0  0  0
   -2.7889   -1.5484    0.0000 H   0  0  0  0  0  0  0  0  0  0  0  0
   -2.7889   -3.4016    0.0000 H   0  0  0  0  0  0  0  0  0  0  0  0
   -3.3239   -2.4750    0.0000 H   0  0  0  0  0  0  0  0  0  0  0  0
   -0.0689   -3.4016    0.0000 H   0  0  0  0  0  0  0  0  0  0  0  0
   -0.0689   -1.5484    0.0000 H   0  0  0  0  0  0  0  0  0  0  0  0
    0.4661   -2.4750    0.0000 H   0  0  0  0  0  0  0  0  0  0  0  0
   -2.2815   -1.1578    0.0000 H   0  0  0  0  0  0  0  0  0  0  0  0
   -0.9266    0.5350    0.0000 H   0  0  0  0  0  0  0  0  0  0  0  0
   -0.9266    1.3600    0.0000 H   0  0  0  0  0  0  0  0  0  0  0  0
    0.0000    1.8950    0.0000 H   0  0  0  0  0  0  0  0  0  0  0  0
    2.3556    1.3600    0.0000 H   0  0  0  0  0  0  0  0  0  0  0  0
    2.3555    0.2900    0.0000 H   0  0  0  0  0  0  0  0  0  0  0  0
    2.3556   -0.5350    0.0000 H   0  0  0  0  0  0  0  0  0  0  0  0
    1.4289   -1.0700    0.0000 H   0  0  0  0  0  0  0  0  0  0  0  0
    0.7145    0.6575    0.0000 H   0  0  0  0  0  0  0  0  0  0  0  0
    1.9140    0.0068    0.0000 H   0  0  0  0  0  0  0  0  0  0  0  0
    1.6535    0.8464    0.0000 H   0  0  0  0  0  0  0  0  0  0  0  0
    1.9140    0.8182    0.0000 H   0  0  0  0  0  0  0  0  0  0  0  0
    1.4576    1.5696    0.0000 H   0  0  0  0  0  0  0  0  0  0  0  0
    0.2200   -3.4660    0.0000 H   0  0  0  0  0  0  0  0  0  0  0  0
   -0.9645   -6.0986    0.0000 H   0  0  0  0  0  0  0  0  0  0  0  0
   -2.0559   -7.6009    0.0000 H   0  0  0  0  0  0  0  0  0  0  0  0
   -4.6581   -5.7103    0.0000 H   0  0  0  0  0  0  0  0  0  0  0  0
   -3.5665   -4.2079    0.0000 H   0  0  0  0  0  0  0  0  0  0  0  0
  1  2  1  0  0  0  0
  1 28  1  0  0  0  0
  1 29  1  0  0  0  0
  1 30  1  0  0  0  0
  2  3  1  0  0  0  0
  2  4  1  0  0  0  0
  2 16  1  0  0  0  0
  3 31  1  0  0  0  0
  3 32  1  0  0  0  0
  3 33  1  0  0  0  0
  4  5  1  0  0  0  0
  4 34  1  0  0  0  0
  5  6  2  0  0  0  0
  5  7  1  0  0  0  0
  8  7  1  0  0  0  0
  8  9  1  0  0  0  0
  8 13  1  0  0  0  0
  8 35  1  1  0  0  0
  9 10  1  0  0  0  0
  9 36  1  0  0  0  0
  9 37  1  0  0  0  0
 10 11  1  0  0  0  0
 10 15  1  0  0  0  0
 11 12  1  0  0  0  0
 11 38  1  0  0  0  0
 11 39  1  0  0  0  0
 12 13  1  0  0  0  0
 12 40  1  0  0  0  0
 12 41  1  0  0  0  0
 13 14  1  0  0  0  0
 13 42  1  0  0  0  0
 14 15  1  0  0  0  0
 14 43  1  0  0  0  0
 14 44  1  0  0  0  0
 15 45  1  0  0  0  0
 15 46  1  0  0  0  0
 16 17  2  0  0  0  0
 16 20  1  0  0  0  0
 17 18  1  0  0  0  0
 17 47  1  0  0  0  0
 18 19  1  0  0  0  0
 19 20  2  0  0  0  0
 19 21  1  0  0  0  0
 21 22  2  0  0  0  0
 21 27  1  0  0  0  0
 22 23  1  0  0  0  0
 22 48  1  0  0  0  0
 23 24  2  0  0  0  0
 23 49  1  0  0  0  0
 24 25  1  0  0  0  0
 24 26  1  0  0  0  0
 26 27  2  0  0  0  0
 26 50  1  0  0  0  0
 27 51  1  0  0  0  0
M  END
>  <DRUGBANK_ID>
DB14966

>  <COMMON_NAME>
Venglustat

>  <CAS_NUMBER>
1401090-53-6

>  <UNII>
BLP1XA3FZA

>  <SYNONYMS>
GENZ-682452; Venglustat

$$$$
