1429
 OpenBabel10282417072D

 54 56  0  0  1  0  0  0  0  0999 V2000
    5.1662    0.0000    0.0000 N   0  0  0  0  0  0  0  0  0  0  0  0
    7.6412    1.4290    0.0000 N   0  0  0  0  0  0  0  0  0  0  0  0
    4.3412    0.0000    0.0000 C   0  0  0  0  0  0  0  0  0  0  0  0
    3.8597   -0.6639    0.0000 C   0  0  0  0  0  0  0  0  0  0  0  0
    3.8597    0.6639    0.0000 C   0  0  0  0  0  0  0  0  0  0  0  0
    3.0791   -0.4125    0.0000 C   0  0  0  0  0  0  0  0  0  0  0  0
    3.0791    0.4125    0.0000 C   0  0  0  0  0  0  0  0  0  0  0  0
    5.5787    0.7145    0.0000 C   0  0  0  0  0  0  0  0  0  0  0  0
    6.4037    0.7145    0.0000 C   0  0  0  0  0  0  0  0  0  0  0  0
    5.5787   -0.7145    0.0000 C   0  0  0  0  0  0  0  0  0  0  0  0
    2.3645   -0.8250    0.0000 C   0  0  0  0  0  0  0  0  0  0  0  0
    2.3645    0.8250    0.0000 C   0  0  0  0  0  0  0  0  0  0  0  0
    6.8162    1.4290    0.0000 C   0  0  0  0  0  0  0  0  0  0  0  0
    1.6500   -0.4125    0.0000 C   0  0  0  0  0  0  0  0  0  0  0  0
    1.6500    0.4125    0.0000 C   0  0  0  0  0  0  0  0  0  0  0  0
    6.4037   -0.7145    0.0000 C   0  0  0  0  0  0  0  0  0  0  0  0
    5.1662   -1.4290    0.0000 C   0  0  0  0  0  0  0  0  0  0  0  0
    8.0537    0.7145    0.0000 C   0  0  0  0  0  0  0  0  0  0  0  0
    8.0537    2.1435    0.0000 C   0  0  0  0  0  0  0  0  0  0  0  0
    6.8162   -1.4290    0.0000 C   0  0  0  0  0  0  0  0  0  0  0  0
    5.5787   -2.1435    0.0000 C   0  0  0  0  0  0  0  0  0  0  0  0
    8.8788    0.7145    0.0000 C   0  0  0  0  0  0  0  0  0  0  0  0
    8.8788    2.1435    0.0000 C   0  0  0  0  0  0  0  0  0  0  0  0
    6.4037   -2.1435    0.0000 C   0  0  0  0  0  0  0  0  0  0  0  0
    3.2712    0.0000    0.0000 H   0  0  0  0  0  0  0  0  0  0  0  0
    4.1921   -1.6810    0.0000 H   0  0  0  0  0  0  0  0  0  0  0  0
    3.1047   -1.4221    0.0000 H   0  0  0  0  0  0  0  0  0  0  0  0
    4.1921    1.6810    0.0000 H   0  0  0  0  0  0  0  0  0  0  0  0
    3.1047    1.4221    0.0000 H   0  0  0  0  0  0  0  0  0  0  0  0
    5.0437    1.6411    0.0000 H   0  0  0  0  0  0  0  0  0  0  0  0
    6.1137    1.6411    0.0000 H   0  0  0  0  0  0  0  0  0  0  0  0
    6.9387   -0.2121    0.0000 H   0  0  0  0  0  0  0  0  0  0  0  0
    7.4737    0.7145    0.0000 H   0  0  0  0  0  0  0  0  0  0  0  0
    2.3645   -1.8570    0.0000 H   0  0  0  0  0  0  0  0  0  0  0  0
    2.3645    1.8570    0.0000 H   0  0  0  0  0  0  0  0  0  0  0  0
    6.2812    2.3556    0.0000 H   0  0  0  0  0  0  0  0  0  0  0  0
    5.7462    1.4290    0.0000 H   0  0  0  0  0  0  0  0  0  0  0  0
    0.7563   -0.9285    0.0000 H   0  0  0  0  0  0  0  0  0  0  0  0
    0.7563    0.9285    0.0000 H   0  0  0  0  0  0  0  0  0  0  0  0
    6.9197    0.1792    0.0000 H   0  0  0  0  0  0  0  0  0  0  0  0
    4.1342   -1.4290    0.0000 H   0  0  0  0  0  0  0  0  0  0  0  0
    7.5187   -0.2121    0.0000 H   0  0  0  0  0  0  0  0  0  0  0  0
    8.5887   -0.2121    0.0000 H   0  0  0  0  0  0  0  0  0  0  0  0
    7.5187    3.0701    0.0000 H   0  0  0  0  0  0  0  0  0  0  0  0
    8.5887    3.0701    0.0000 H   0  0  0  0  0  0  0  0  0  0  0  0
    7.8482   -1.4290    0.0000 H   0  0  0  0  0  0  0  0  0  0  0  0
    5.0627   -3.0372    0.0000 H   0  0  0  0  0  0  0  0  0  0  0  0
    9.4138   -0.2121    0.0000 H   0  0  0  0  0  0  0  0  0  0  0  0
    9.4138    1.6411    0.0000 H   0  0  0  0  0  0  0  0  0  0  0  0
    9.9488    0.7145    0.0000 H   0  0  0  0  0  0  0  0  0  0  0  0
    9.4138    1.2169    0.0000 H   0  0  0  0  0  0  0  0  0  0  0  0
    9.4138    3.0701    0.0000 H   0  0  0  0  0  0  0  0  0  0  0  0
    9.9488    2.1435    0.0000 H   0  0  0  0  0  0  0  0  0  0  0  0
    6.9197   -3.0372    0.0000 H   0  0  0  0  0  0  0  0  0  0  0  0
  1  3  1  0  0  0  0
  1  8  1  0  0  0  0
  1 10  1  0  0  0  0
  2 13  1  0  0  0  0
  2 18  1  0  0  0  0
  2 19  1  0  0  0  0
  3  4  1  0  0  0  0
  3  5  1  0  0  0  0
  3 25  1  0  0  0  0
  4  6  1  0  0  0  0
  4 26  1  0  0  0  0
  4 27  1  0  0  0  0
  5  7  1  0  0  0  0
  5 28  1  0  0  0  0
  5 29  1  0  0  0  0
  6  7  1  0  0  0  0
  6 11  2  0  0  0  0
  7 12  2  0  0  0  0
  8  9  1  0  0  0  0
  8 30  1  0  0  0  0
  8 31  1  0  0  0  0
  9 13  1  0  0  0  0
  9 32  1  0  0  0  0
  9 33  1  0  0  0  0
 10 16  2  0  0  0  0
 10 17  1  0  0  0  0
 11 14  1  0  0  0  0
 11 34  1  0  0  0  0
 12 15  1  0  0  0  0
 12 35  1  0  0  0  0
 13 36  1  0  0  0  0
 13 37  1  0  0  0  0
 14 15  2  0  0  0  0
 14 38  1  0  0  0  0
 15 39  1  0  0  0  0
 16 20  1  0  0  0  0
 16 40  1  0  0  0  0
 17 21  2  0  0  0  0
 17 41  1  0  0  0  0
 18 22  1  0  0  0  0
 18 42  1  0  0  0  0
 18 43  1  0  0  0  0
 19 23  1  0  0  0  0
 19 44  1  0  0  0  0
 19 45  1  0  0  0  0
 20 24  2  0  0  0  0
 20 46  1  0  0  0  0
 21 24  1  0  0  0  0
 21 47  1  0  0  0  0
 22 48  1  0  0  0  0
 22 49  1  0  0  0  0
 22 50  1  0  0  0  0
 23 51  1  0  0  0  0
 23 52  1  0  0  0  0
 23 53  1  0  0  0  0
 24 54  1  0  0  0  0
M  END
>  <DRUGBANK_ID>
DB01429

>  <COMMON_NAME>
Aprindine

>  <CAS_NUMBER>
37640-71-4

>  <UNII>
5Y48085P9Q

>  <SYNONYMS>
Aprindina; Aprindine; Aprindinum

$$$$
