
 OpenBabel10282417072D

 36 35  0  0  0  0  0  0  0  0999 V2000
   -0.0009   -0.0071    0.0000 C   0  0  0  0  0  0  0  0  0  0  0  0
    0.7133    0.4063    0.0000 C   0  0  3  0  0  0  0  0  0  0  0  0
   -0.7153    0.4063    0.0000 C   0  0  0  0  0  0  0  0  0  0  0  0
   -0.0009   -0.8321    0.0000 C   0  0  0  0  0  0  0  0  0  0  0  0
   -0.7153   -0.4186    0.0000 C   0  0  0  0  0  0  0  0  0  0  0  0
    1.4278   -0.0071    0.0000 C   0  0  0  0  0  0  0  0  0  0  0  0
    0.7133    1.2312    0.0000 C   0  0  0  0  0  0  0  0  0  0  0  0
   -0.7153    1.2312    0.0000 O   0  0  0  0  0  0  0  0  0  0  0  0
   -0.7215   -1.2312    0.0000 O   0  0  0  0  0  0  0  0  0  0  0  0
    2.1422    0.4063    0.0000 C   0  0  0  0  0  0  0  0  0  0  0  0
   -1.4298    1.6427    0.0000 C   0  0  0  0  0  0  0  0  0  0  0  0
   -0.7215   -2.0562    0.0000 C   0  0  0  0  0  0  0  0  0  0  0  0
   -2.1422    1.2312    0.0000 N   0  0  0  0  0  0  0  0  0  0  0  0
   -1.4298    2.4677    0.0000 O   0  0  0  0  0  0  0  0  0  0  0  0
   -1.4359   -2.4677    0.0000 N   0  0  0  0  0  0  0  0  0  0  0  0
   -0.0071   -2.4677    0.0000 O   0  0  0  0  0  0  0  0  0  0  0  0
    0.7134   -0.6637    0.0000 H   0  0  0  0  0  0  0  0  0  0  0  0
   -1.6422   -0.1282    0.0000 H   0  0  0  0  0  0  0  0  0  0  0  0
   -1.6418    0.9415    0.0000 H   0  0  0  0  0  0  0  0  0  0  0  0
    0.9209   -1.3753    0.0000 H   0  0  0  0  0  0  0  0  0  0  0  0
   -0.0152   -1.9020    0.0000 H   0  0  0  0  0  0  0  0  0  0  0  0
   -1.6414    0.1173    0.0000 H   0  0  0  0  0  0  0  0  0  0  0  0
   -0.7164   -1.4886    0.0000 H   0  0  0  0  0  0  0  0  0  0  0  0
   -1.6425   -0.9527    0.0000 H   0  0  0  0  0  0  0  0  0  0  0  0
    1.4278   -1.0771    0.0000 H   0  0  0  0  0  0  0  0  0  0  0  0
    2.3547   -0.5416    0.0000 H   0  0  0  0  0  0  0  0  0  0  0  0
    1.6399    1.7662    0.0000 H   0  0  0  0  0  0  0  0  0  0  0  0
   -0.2133    1.7662    0.0000 H   0  0  0  0  0  0  0  0  0  0  0  0
    0.7133    2.3012    0.0000 H   0  0  0  0  0  0  0  0  0  0  0  0
    3.0694   -0.1278    0.0000 H   0  0  0  0  0  0  0  0  0  0  0  0
    2.1411    1.4763    0.0000 H   0  0  0  0  0  0  0  0  0  0  0  0
    3.0683    0.9422    0.0000 H   0  0  0  0  0  0  0  0  0  0  0  0
   -2.9949    1.7233    0.0000 H   0  0  0  0  0  0  0  0  0  0  0  0
   -2.1420    0.2467    0.0000 H   0  0  0  0  0  0  0  0  0  0  0  0
   -2.2880   -1.9746    0.0000 H   0  0  0  0  0  0  0  0  0  0  0  0
   -1.4369   -3.4522    0.0000 H   0  0  0  0  0  0  0  0  0  0  0  0
  1  2  1  0  0  0  0
  1  3  1  0  0  0  0
  1  4  1  0  0  0  0
  1  5  1  0  0  0  0
  2  6  1  0  0  0  0
  2  7  1  0  0  0  0
  2 17  1  0  0  0  0
  3  8  1  0  0  0  0
  3 18  1  0  0  0  0
  3 19  1  0  0  0  0
  4  9  1  0  0  0  0
  4 20  1  0  0  0  0
  4 21  1  0  0  0  0
  5 22  1  0  0  0  0
  5 23  1  0  0  0  0
  5 24  1  0  0  0  0
  6 10  1  0  0  0  0
  6 25  1  0  0  0  0
  6 26  1  0  0  0  0
  7 27  1  0  0  0  0
  7 28  1  0  0  0  0
  7 29  1  0  0  0  0
  8 11  1  0  0  0  0
  9 12  1  0  0  0  0
 10 30  1  0  0  0  0
 10 31  1  0  0  0  0
 10 32  1  0  0  0  0
 11 13  1  0  0  0  0
 11 14  2  0  0  0  0
 12 15  1  0  0  0  0
 12 16  2  0  0  0  0
 13 33  1  0  0  0  0
 13 34  1  0  0  0  0
 15 35  1  0  0  0  0
 15 36  1  0  0  0  0
M  END
>  <DRUGBANK_ID>
DB06797

>  <COMMON_NAME>
Mebutamate

>  <CAS_NUMBER>
64-55-1

>  <UNII>
5H8F175RER

>  <SYNONYMS>
2-Methyl-2-sec-butyl-1,3-propanediol dicarbamate; 2-sec-Butyl-2-methyl-1,3-propanediol dicarbamate; 2-sec-Butyl-2-methylpropane-1,3-diyl dicarbamate; 2-sec-Butyl-2-methyltrimethylene dicarbamate; 2,2-Dicarbamyloxymethyl-3-methylpentane; Dicamoylmethtane; Mebutamate; Mebutamato; Mebutamatum

$$$$
