
 OpenBabel10282417072D

131134  0  0  1  0  0  0  0  0999 V2000
   -4.2868    0.8250    0.0000 H   0  0  0  0  0  0  0  0  0  0  0  0
   -3.5724    0.4125    0.0000 C   0  0  2  0  0  0  0  0  0  0  0  0
   -2.8579    0.0000    0.0000 C   0  0  0  0  0  0  0  0  0  0  0  0
   -2.8579   -0.8250    0.0000 C   0  0  0  0  0  0  0  0  0  0  0  0
   -3.5724   -1.2375    0.0000 C   0  0  0  0  0  0  0  0  0  0  0  0
   -3.5724   -2.0625    0.0000 C   0  0  0  0  0  0  0  0  0  0  0  0
   -4.2868   -2.4750    0.0000 O   0  0  0  0  0  0  0  0  0  0  0  0
   -4.2868   -3.3000    0.0000 C   0  0  0  0  0  0  0  0  0  0  0  0
   -5.0013   -3.7125    0.0000 O   0  0  0  0  0  0  0  0  0  0  0  0
   -3.5724   -3.7125    0.0000 C   0  0  0  0  0  0  0  0  0  0  0  0
   -3.5724   -4.5375    0.0000 C   0  0  0  0  0  0  0  0  0  0  0  0
   -2.8579   -4.9500    0.0000 C   0  0  0  0  0  0  0  0  0  0  0  0
   -2.8579   -5.7750    0.0000 C   0  0  0  0  0  0  0  0  0  0  0  0
   -2.1434   -6.1875    0.0000 C   0  0  0  0  0  0  0  0  0  0  0  0
   -2.1434   -7.0125    0.0000 C   0  0  0  0  0  0  0  0  0  0  0  0
   -1.4289   -7.4250    0.0000 C   0  0  0  0  0  0  0  0  0  0  0  0
   -1.4289   -8.2500    0.0000 C   0  0  0  0  0  0  0  0  0  0  0  0
   -0.7145   -8.6625    0.0000 C   0  0  0  0  0  0  0  0  0  0  0  0
   -0.7145   -9.4875    0.0000 C   0  0  0  0  0  0  0  0  0  0  0  0
   -0.0000   -9.9000    0.0000 C   0  0  0  0  0  0  0  0  0  0  0  0
   -0.0000  -10.7250    0.0000 C   0  0  0  0  0  0  0  0  0  0  0  0
    0.7145  -11.1375    0.0000 C   0  0  0  0  0  0  0  0  0  0  0  0
    0.7145  -11.9625    0.0000 C   0  0  0  0  0  0  0  0  0  0  0  0
    1.4289  -12.3750    0.0000 C   0  0  0  0  0  0  0  0  0  0  0  0
   -2.8579   -2.4750    0.0000 C   0  0  0  0  0  0  0  0  0  0  0  0
   -2.8579   -3.3000    0.0000 O   0  0  0  0  0  0  0  0  0  0  0  0
   -2.1434   -3.7125    0.0000 C   0  0  0  0  0  0  0  0  0  0  0  0
   -2.1434   -4.5375    0.0000 O   0  0  0  0  0  0  0  0  0  0  0  0
   -1.4289   -3.3000    0.0000 C   0  0  0  0  0  0  0  0  0  0  0  0
   -0.7145   -3.7125    0.0000 C   0  0  0  0  0  0  0  0  0  0  0  0
   -0.0000   -3.3000    0.0000 C   0  0  0  0  0  0  0  0  0  0  0  0
    0.7145   -3.7125    0.0000 C   0  0  0  0  0  0  0  0  0  0  0  0
    1.4289   -3.3000    0.0000 C   0  0  0  0  0  0  0  0  0  0  0  0
    2.1434   -3.7125    0.0000 C   0  0  0  0  0  0  0  0  0  0  0  0
    2.8579   -3.3000    0.0000 C   0  0  0  0  0  0  0  0  0  0  0  0
    3.5724   -3.7125    0.0000 C   0  0  0  0  0  0  0  0  0  0  0  0
    4.2868   -3.3000    0.0000 C   0  0  0  0  0  0  0  0  0  0  0  0
    5.0013   -3.7125    0.0000 C   0  0  0  0  0  0  0  0  0  0  0  0
    5.7158   -3.3000    0.0000 C   0  0  0  0  0  0  0  0  0  0  0  0
    6.4302   -3.7125    0.0000 C   0  0  0  0  0  0  0  0  0  0  0  0
    7.1447   -3.3000    0.0000 C   0  0  0  0  0  0  0  0  0  0  0  0
    7.8592   -3.7125    0.0000 C   0  0  0  0  0  0  0  0  0  0  0  0
    7.8592   -4.5375    0.0000 C   0  0  0  0  0  0  0  0  0  0  0  0
   -2.1434   -2.0625    0.0000 C   0  0  0  0  0  0  0  0  0  0  0  0
   -2.1434   -1.2375    0.0000 C   0  0  0  0  0  0  0  0  0  0  0  0
   -4.2868   -0.8250    0.0000 C   0  0  0  0  0  0  0  0  0  0  0  0
   -4.2868    0.0000    0.0000 C   0  0  0  0  0  0  0  0  0  0  0  0
   -5.0013    0.4125    0.0000 C   0  0  0  0  0  0  0  0  0  0  0  0
   -5.0013    1.2375    0.0000 C   0  0  0  0  0  0  0  0  0  0  0  0
   -4.2868    1.6500    0.0000 C   0  0  0  0  0  0  0  0  0  0  0  0
   -3.5724    1.2375    0.0000 N   0  0  0  0  0  0  0  0  0  0  0  0
   -2.8579    1.6500    0.0000 C   0  0  0  0  0  0  0  0  0  0  0  0
   -5.7158    0.0000    0.0000 C   0  0  0  0  0  0  0  0  0  0  0  0
   -5.7158   -0.8250    0.0000 C   0  0  0  0  0  0  0  0  0  0  0  0
   -5.0013   -1.2375    0.0000 C   0  0  0  0  0  0  0  0  0  0  0  0
   -1.9313    0.5350    0.0000 H   0  0  0  0  0  0  0  0  0  0  0  0
   -1.9313   -0.5350    0.0000 H   0  0  0  0  0  0  0  0  0  0  0  0
   -2.6457   -3.1775    0.0000 H   0  0  0  0  0  0  0  0  0  0  0  0
   -2.6458   -4.2475    0.0000 H   0  0  0  0  0  0  0  0  0  0  0  0
   -4.4990   -5.0725    0.0000 H   0  0  0  0  0  0  0  0  0  0  0  0
   -3.5724   -5.6075    0.0000 H   0  0  0  0  0  0  0  0  0  0  0  0
   -1.9313   -4.4150    0.0000 H   0  0  0  0  0  0  0  0  0  0  0  0
   -1.9313   -5.4850    0.0000 H   0  0  0  0  0  0  0  0  0  0  0  0
   -3.7845   -6.3100    0.0000 H   0  0  0  0  0  0  0  0  0  0  0  0
   -2.8579   -6.8450    0.0000 H   0  0  0  0  0  0  0  0  0  0  0  0
   -1.2168   -5.6525    0.0000 H   0  0  0  0  0  0  0  0  0  0  0  0
   -1.2168   -6.7225    0.0000 H   0  0  0  0  0  0  0  0  0  0  0  0
   -3.0700   -7.5475    0.0000 H   0  0  0  0  0  0  0  0  0  0  0  0
   -2.1434   -8.0825    0.0000 H   0  0  0  0  0  0  0  0  0  0  0  0
   -0.5023   -6.8900    0.0000 H   0  0  0  0  0  0  0  0  0  0  0  0
   -0.5023   -7.9600    0.0000 H   0  0  0  0  0  0  0  0  0  0  0  0
   -2.3556   -8.7850    0.0000 H   0  0  0  0  0  0  0  0  0  0  0  0
   -1.4289   -9.3200    0.0000 H   0  0  0  0  0  0  0  0  0  0  0  0
    0.2122   -8.1275    0.0000 H   0  0  0  0  0  0  0  0  0  0  0  0
    0.2121   -9.1975    0.0000 H   0  0  0  0  0  0  0  0  0  0  0  0
   -1.6411  -10.0225    0.0000 H   0  0  0  0  0  0  0  0  0  0  0  0
   -0.7145  -10.5575    0.0000 H   0  0  0  0  0  0  0  0  0  0  0  0
    0.9266   -9.3650    0.0000 H   0  0  0  0  0  0  0  0  0  0  0  0
    0.9266  -10.4350    0.0000 H   0  0  0  0  0  0  0  0  0  0  0  0
   -0.9266  -11.2600    0.0000 H   0  0  0  0  0  0  0  0  0  0  0  0
    0.0000  -11.7950    0.0000 H   0  0  0  0  0  0  0  0  0  0  0  0
    1.6411  -10.6025    0.0000 H   0  0  0  0  0  0  0  0  0  0  0  0
    1.6411  -11.6725    0.0000 H   0  0  0  0  0  0  0  0  0  0  0  0
   -0.2122  -12.4975    0.0000 H   0  0  0  0  0  0  0  0  0  0  0  0
    0.7145  -13.0325    0.0000 H   0  0  0  0  0  0  0  0  0  0  0  0
    1.4289  -13.4450    0.0000 H   0  0  0  0  0  0  0  0  0  0  0  0
    2.3556  -11.8400    0.0000 H   0  0  0  0  0  0  0  0  0  0  0  0
    2.3555  -12.9100    0.0000 H   0  0  0  0  0  0  0  0  0  0  0  0
   -1.4289   -2.2300    0.0000 H   0  0  0  0  0  0  0  0  0  0  0  0
   -0.5022   -2.7650    0.0000 H   0  0  0  0  0  0  0  0  0  0  0  0
   -0.7145   -4.7825    0.0000 H   0  0  0  0  0  0  0  0  0  0  0  0
    0.2121   -4.2475    0.0000 H   0  0  0  0  0  0  0  0  0  0  0  0
    0.0000   -2.2300    0.0000 H   0  0  0  0  0  0  0  0  0  0  0  0
    0.9266   -2.7650    0.0000 H   0  0  0  0  0  0  0  0  0  0  0  0
    0.7145   -4.7825    0.0000 H   0  0  0  0  0  0  0  0  0  0  0  0
    1.6412   -4.2475    0.0000 H   0  0  0  0  0  0  0  0  0  0  0  0
    1.4289   -2.2300    0.0000 H   0  0  0  0  0  0  0  0  0  0  0  0
    2.3555   -2.7650    0.0000 H   0  0  0  0  0  0  0  0  0  0  0  0
    2.1434   -4.7825    0.0000 H   0  0  0  0  0  0  0  0  0  0  0  0
    3.0700   -4.2475    0.0000 H   0  0  0  0  0  0  0  0  0  0  0  0
    2.8579   -2.2300    0.0000 H   0  0  0  0  0  0  0  0  0  0  0  0
    3.7845   -2.7650    0.0000 H   0  0  0  0  0  0  0  0  0  0  0  0
    3.5724   -4.7825    0.0000 H   0  0  0  0  0  0  0  0  0  0  0  0
    4.4991   -4.2475    0.0000 H   0  0  0  0  0  0  0  0  0  0  0  0
    4.2868   -2.2300    0.0000 H   0  0  0  0  0  0  0  0  0  0  0  0
    5.2134   -2.7650    0.0000 H   0  0  0  0  0  0  0  0  0  0  0  0
    5.0013   -4.7825    0.0000 H   0  0  0  0  0  0  0  0  0  0  0  0
    5.9279   -4.2475    0.0000 H   0  0  0  0  0  0  0  0  0  0  0  0
    5.7158   -2.2300    0.0000 H   0  0  0  0  0  0  0  0  0  0  0  0
    6.6425   -2.7650    0.0000 H   0  0  0  0  0  0  0  0  0  0  0  0
    6.4302   -4.7825    0.0000 H   0  0  0  0  0  0  0  0  0  0  0  0
    7.3568   -4.2475    0.0000 H   0  0  0  0  0  0  0  0  0  0  0  0
    7.1447   -2.2300    0.0000 H   0  0  0  0  0  0  0  0  0  0  0  0
    8.0713   -2.7650    0.0000 H   0  0  0  0  0  0  0  0  0  0  0  0
    8.7858   -3.1775    0.0000 H   0  0  0  0  0  0  0  0  0  0  0  0
    8.7858   -4.2475    0.0000 H   0  0  0  0  0  0  0  0  0  0  0  0
    6.9326   -5.0725    0.0000 H   0  0  0  0  0  0  0  0  0  0  0  0
    8.7858   -5.0725    0.0000 H   0  0  0  0  0  0  0  0  0  0  0  0
    7.8592   -5.6075    0.0000 H   0  0  0  0  0  0  0  0  0  0  0  0
   -1.2497   -2.5785    0.0000 H   0  0  0  0  0  0  0  0  0  0  0  0
   -1.2497   -0.7215    0.0000 H   0  0  0  0  0  0  0  0  0  0  0  0
   -5.9279    1.7725    0.0000 H   0  0  0  0  0  0  0  0  0  0  0  0
   -5.0013    2.3075    0.0000 H   0  0  0  0  0  0  0  0  0  0  0  0
   -4.2868    2.7200    0.0000 H   0  0  0  0  0  0  0  0  0  0  0  0
   -3.3601    2.1850    0.0000 H   0  0  0  0  0  0  0  0  0  0  0  0
   -1.9313    1.1150    0.0000 H   0  0  0  0  0  0  0  0  0  0  0  0
   -2.8579    2.7200    0.0000 H   0  0  0  0  0  0  0  0  0  0  0  0
   -1.9312    2.1850    0.0000 H   0  0  0  0  0  0  0  0  0  0  0  0
   -6.6095    0.5160    0.0000 H   0  0  0  0  0  0  0  0  0  0  0  0
   -6.6095   -1.3410    0.0000 H   0  0  0  0  0  0  0  0  0  0  0  0
   -5.0013   -2.2695    0.0000 H   0  0  0  0  0  0  0  0  0  0  0  0
  2  1  1  1  0  0  0
  2  3  1  0  0  0  0
  2 47  1  0  0  0  0
  2 51  1  0  0  0  0
  3  4  1  0  0  0  0
  3 56  1  0  0  0  0
  3 57  1  0  0  0  0
  4  5  2  0  0  0  0
  4 45  1  0  0  0  0
  5  6  1  0  0  0  0
  5 46  1  0  0  0  0
  6  7  1  0  0  0  0
  6 25  2  0  0  0  0
  7  8  1  0  0  0  0
  8  9  2  0  0  0  0
  8 10  1  0  0  0  0
 10 11  1  0  0  0  0
 10 58  1  0  0  0  0
 10 59  1  0  0  0  0
 11 12  1  0  0  0  0
 11 60  1  0  0  0  0
 11 61  1  0  0  0  0
 12 13  1  0  0  0  0
 12 62  1  0  0  0  0
 12 63  1  0  0  0  0
 13 14  1  0  0  0  0
 13 64  1  0  0  0  0
 13 65  1  0  0  0  0
 14 15  1  0  0  0  0
 14 66  1  0  0  0  0
 14 67  1  0  0  0  0
 15 16  1  0  0  0  0
 15 68  1  0  0  0  0
 15 69  1  0  0  0  0
 16 17  1  0  0  0  0
 16 70  1  0  0  0  0
 16 71  1  0  0  0  0
 17 18  1  0  0  0  0
 17 72  1  0  0  0  0
 17 73  1  0  0  0  0
 18 19  1  0  0  0  0
 18 74  1  0  0  0  0
 18 75  1  0  0  0  0
 19 20  1  0  0  0  0
 19 76  1  0  0  0  0
 19 77  1  0  0  0  0
 20 21  1  0  0  0  0
 20 78  1  0  0  0  0
 20 79  1  0  0  0  0
 21 22  1  0  0  0  0
 21 80  1  0  0  0  0
 21 81  1  0  0  0  0
 22 23  1  0  0  0  0
 22 82  1  0  0  0  0
 22 83  1  0  0  0  0
 23 24  1  0  0  0  0
 23 84  1  0  0  0  0
 23 85  1  0  0  0  0
 24 86  1  0  0  0  0
 24 87  1  0  0  0  0
 24 88  1  0  0  0  0
 25 26  1  0  0  0  0
 25 44  1  0  0  0  0
 26 27  1  0  0  0  0
 27 28  2  0  0  0  0
 27 29  1  0  0  0  0
 29 30  1  0  0  0  0
 29 89  1  0  0  0  0
 29 90  1  0  0  0  0
 30 31  1  0  0  0  0
 30 91  1  0  0  0  0
 30 92  1  0  0  0  0
 31 32  1  0  0  0  0
 31 93  1  0  0  0  0
 31 94  1  0  0  0  0
 32 33  1  0  0  0  0
 32 95  1  0  0  0  0
 32 96  1  0  0  0  0
 33 34  1  0  0  0  0
 33 97  1  0  0  0  0
 33 98  1  0  0  0  0
 34 35  1  0  0  0  0
 34 99  1  0  0  0  0
 34100  1  0  0  0  0
 35 36  1  0  0  0  0
 35101  1  0  0  0  0
 35102  1  0  0  0  0
 36 37  1  0  0  0  0
 36103  1  0  0  0  0
 36104  1  0  0  0  0
 37 38  1  0  0  0  0
 37105  1  0  0  0  0
 37106  1  0  0  0  0
 38 39  1  0  0  0  0
 38107  1  0  0  0  0
 38108  1  0  0  0  0
 39 40  1  0  0  0  0
 39109  1  0  0  0  0
 39110  1  0  0  0  0
 40 41  1  0  0  0  0
 40111  1  0  0  0  0
 40112  1  0  0  0  0
 41 42  1  0  0  0  0
 41113  1  0  0  0  0
 41114  1  0  0  0  0
 42 43  1  0  0  0  0
 42115  1  0  0  0  0
 42116  1  0  0  0  0
 43117  1  0  0  0  0
 43118  1  0  0  0  0
 43119  1  0  0  0  0
 44 45  2  0  0  0  0
 44120  1  0  0  0  0
 45121  1  0  0  0  0
 46 47  2  0  0  0  0
 46 55  1  0  0  0  0
 47 48  1  0  0  0  0
 48 49  1  0  0  0  0
 48 53  2  0  0  0  0
 49 50  1  0  0  0  0
 49122  1  0  0  0  0
 49123  1  0  0  0  0
 50 51  1  0  0  0  0
 50124  1  0  0  0  0
 50125  1  0  0  0  0
 51 52  1  0  0  0  0
 52126  1  0  0  0  0
 52127  1  0  0  0  0
 52128  1  0  0  0  0
 53 54  1  0  0  0  0
 53129  1  0  0  0  0
 54 55  2  0  0  0  0
 54130  1  0  0  0  0
 55131  1  0  0  0  0
M  END
>  <DRUGBANK_ID>
DB17202

>  <COMMON_NAME>
Apomorphine palmitate

>  <CAS_NUMBER>
42337-33-7

>  <UNII>
622ULQ7RBO

>  <SYNONYMS>
Dihexadecanoylapomorphine; Dipalmitoyl apomorphine; Hexadecanoic acid, 5,6,6a,7-tetrahydro-6-methyl-4h-dibenzo(de,g)quinoline-10,11-diyl ester, (r)-

$$$$
