
 OpenBabel10282417072D

 19 20  0  0  0  0  0  0  0  0999 V2000
   -0.3612   -0.6107    0.0000 N   0  0  0  0  0  0  0  0  0  0  0  0
   -0.3612    0.2111    0.0000 C   0  0  0  0  0  0  0  0  0  0  0  0
    0.3046   -1.0754    0.0000 C   0  0  0  0  0  0  0  0  0  0  0  0
   -1.0187   -1.0754    0.0000 N   0  0  0  0  0  0  0  0  0  0  0  0
    0.3641    0.6334    0.0000 C   0  0  0  0  0  0  0  0  0  0  0  0
   -1.0754    0.6334    0.0000 C   0  0  0  0  0  0  0  0  0  0  0  0
    0.0496   -1.8661    0.0000 N   0  0  0  0  0  0  0  0  0  0  0  0
    1.0924   -0.8148    0.0000 N   0  0  0  0  0  0  0  0  0  0  0  0
   -0.7835   -1.8661    0.0000 N   0  0  0  0  0  0  0  0  0  0  0  0
    0.3357    1.4495    0.0000 C   0  0  0  0  0  0  0  0  0  0  0  0
   -1.0924    1.4495    0.0000 C   0  0  0  0  0  0  0  0  0  0  0  0
   -0.3612    1.8661    0.0000 C   0  0  0  0  0  0  0  0  0  0  0  0
    1.2676    0.1347    0.0000 H   0  0  0  0  0  0  0  0  0  0  0  0
   -1.9664    0.1127    0.0000 H   0  0  0  0  0  0  0  0  0  0  0  0
    1.8275   -1.4697    0.0000 H   0  0  0  0  0  0  0  0  0  0  0  0
    1.2920    0.1493    0.0000 H   0  0  0  0  0  0  0  0  0  0  0  0
    1.2243    1.9742    0.0000 H   0  0  0  0  0  0  0  0  0  0  0  0
   -1.9900    1.9587    0.0000 H   0  0  0  0  0  0  0  0  0  0  0  0
   -0.3504    2.8980    0.0000 H   0  0  0  0  0  0  0  0  0  0  0  0
  1  2  1  0  0  0  0
  1  3  1  0  0  0  0
  1  4  1  0  0  0  0
  2  5  2  0  0  0  0
  2  6  1  0  0  0  0
  3  7  2  0  0  0  0
  3  8  1  0  0  0  0
  4  9  2  0  0  0  0
  5 10  1  0  0  0  0
  5 13  1  0  0  0  0
  6 11  2  0  0  0  0
  6 14  1  0  0  0  0
  7  9  1  0  0  0  0
  8 15  1  0  0  0  0
  8 16  1  0  0  0  0
 10 12  2  0  0  0  0
 10 17  1  0  0  0  0
 11 12  1  0  0  0  0
 11 18  1  0  0  0  0
 12 19  1  0  0  0  0
M  END
>  <DRUGBANK_ID>
DB12506

>  <COMMON_NAME>
Fenamole

>  <CAS_NUMBER>
5467-78-7

>  <UNII>
K4H264PBQ7

>  <SYNONYMS>
Fenamole; Fenamolum; PAT

$$$$
