GP6
 OpenBabel10282417072D

 33 34  0  0  0  0  0  0  0  0999 V2000
   -0.0188    3.3454    0.0000 N   0  0  0  0  0  0  0  0  0  0  0  0
    1.4102    3.3454    0.0000 N   0  0  0  0  0  0  0  0  0  0  0  0
    0.6957    2.9329    0.0000 C   0  0  0  0  0  0  0  0  0  0  0  0
    0.6957    2.1079    0.0000 C   0  0  0  0  0  0  0  0  0  0  0  0
    1.4102    1.6954    0.0000 C   0  0  0  0  0  0  0  0  0  0  0  0
    1.4102    0.8704    0.0000 C   0  0  0  0  0  0  0  0  0  0  0  0
    0.6957    0.4579    0.0000 C   0  0  0  0  0  0  0  0  0  0  0  0
   -0.0188    0.8704    0.0000 C   0  0  0  0  0  0  0  0  0  0  0  0
   -0.0188    1.6954    0.0000 C   0  0  0  0  0  0  0  0  0  0  0  0
    0.6957   -0.3671    0.0000 N   0  0  0  0  0  0  0  0  0  0  0  0
   -0.0188   -0.7796    0.0000 C   0  0  0  0  0  0  0  0  0  0  0  0
   -0.7332   -0.3671    0.0000 O   0  0  0  0  0  0  0  0  0  0  0  0
   -0.0188   -1.6046    0.0000 N   0  0  0  0  0  0  0  0  0  0  0  0
   -0.7332   -2.0171    0.0000 C   0  0  0  0  0  0  0  0  0  0  0  0
   -0.7332   -2.8421    0.0000 C   0  0  0  0  0  0  0  0  0  0  0  0
   -1.4477   -3.2546    0.0000 C   0  0  0  0  0  0  0  0  0  0  0  0
   -2.1622   -2.8421    0.0000 C   0  0  0  0  0  0  0  0  0  0  0  0
   -2.1622   -2.0171    0.0000 C   0  0  0  0  0  0  0  0  0  0  0  0
   -1.4477   -1.6046    0.0000 C   0  0  0  0  0  0  0  0  0  0  0  0
   -2.8766   -3.2546    0.0000 Cl  0  0  0  0  0  0  0  0  0  0  0  0
   -0.0188    4.3299    0.0000 H   0  0  0  0  0  0  0  0  0  0  0  0
    2.2628    2.8531    0.0000 H   0  0  0  0  0  0  0  0  0  0  0  0
    1.4102    4.3299    0.0000 H   0  0  0  0  0  0  0  0  0  0  0  0
    2.3039    2.2114    0.0000 H   0  0  0  0  0  0  0  0  0  0  0  0
    2.3039    0.3544    0.0000 H   0  0  0  0  0  0  0  0  0  0  0  0
   -0.9125    0.3544    0.0000 H   0  0  0  0  0  0  0  0  0  0  0  0
   -0.9125    2.2114    0.0000 H   0  0  0  0  0  0  0  0  0  0  0  0
    1.5483   -0.8594    0.0000 H   0  0  0  0  0  0  0  0  0  0  0  0
    0.8338   -2.0968    0.0000 H   0  0  0  0  0  0  0  0  0  0  0  0
    0.1605   -3.3581    0.0000 H   0  0  0  0  0  0  0  0  0  0  0  0
   -1.4477   -4.2866    0.0000 H   0  0  0  0  0  0  0  0  0  0  0  0
   -3.0559   -1.5011    0.0000 H   0  0  0  0  0  0  0  0  0  0  0  0
   -1.4477   -0.5726    0.0000 H   0  0  0  0  0  0  0  0  0  0  0  0
  1  3  2  0  0  0  0
  1 21  1  0  0  0  0
  2  3  1  0  0  0  0
  2 22  1  0  0  0  0
  2 23  1  0  0  0  0
  3  4  1  0  0  0  0
  4  5  2  0  0  0  0
  4  9  1  0  0  0  0
  5  6  1  0  0  0  0
  5 24  1  0  0  0  0
  6  7  2  0  0  0  0
  6 25  1  0  0  0  0
  7  8  1  0  0  0  0
  7 10  1  0  0  0  0
  8  9  2  0  0  0  0
  8 26  1  0  0  0  0
  9 27  1  0  0  0  0
 10 11  1  0  0  0  0
 10 28  1  0  0  0  0
 11 12  2  0  0  0  0
 11 13  1  0  0  0  0
 13 14  1  0  0  0  0
 13 29  1  0  0  0  0
 14 15  2  0  0  0  0
 14 19  1  0  0  0  0
 15 16  1  0  0  0  0
 15 30  1  0  0  0  0
 16 17  2  0  0  0  0
 16 31  1  0  0  0  0
 17 18  1  0  0  0  0
 17 20  1  0  0  0  0
 18 19  2  0  0  0  0
 18 32  1  0  0  0  0
 19 33  1  0  0  0  0
M  END
>  <DRUGBANK_ID>
DB04336

>  <SECONDARY_ACCESSION_NUMBERS>
EXPT01635

>  <COMMON_NAME>
1-(4-Amidinophenyl)-3-(4-Chlorophenyl)Urea

$$$$
