DP4
 OpenBabel10282417072D

 40 41  0  0  0  0  0  0  0  0999 V2000
    0.1152    2.9870    0.0000 C   0  0  0  0  0  0  0  0  0  0  0  0
    0.8297    2.5745    0.0000 C   0  0  0  0  0  0  0  0  0  0  0  0
    0.8297    1.7495    0.0000 C   0  0  0  0  0  0  0  0  0  0  0  0
    0.1152    1.3370    0.0000 C   0  0  0  0  0  0  0  0  0  0  0  0
   -0.5993    1.7495    0.0000 C   0  0  0  0  0  0  0  0  0  0  0  0
   -0.5993    2.5745    0.0000 C   0  0  0  0  0  0  0  0  0  0  0  0
   -0.7098    0.5120    0.0000 C   0  0  0  0  0  0  0  0  0  0  0  0
    0.9402    0.5120    0.0000 C   0  0  0  0  0  0  0  0  0  0  0  0
    0.1152    0.5120    0.0000 Si  0  0  0  0  0  0  0  0  0  0  0  0
    0.1152   -0.3130    0.0000 C   0  0  2  0  0  0  0  0  0  0  0  0
    0.8297   -0.7255    0.0000 C   0  0  0  0  0  0  0  0  0  0  0  0
    0.8297   -1.5505    0.0000 C   0  0  0  0  0  0  0  0  0  0  0  0
   -0.5993   -1.5505    0.0000 C   0  0  0  0  0  0  0  0  0  0  0  0
   -0.5993   -0.7255    0.0000 C   0  0  0  0  0  0  0  0  0  0  0  0
    0.1152   -1.9630    0.0000 N   0  3  1  0  0  0  0  0  0  0  0  0
    0.5025   -2.6914    0.0000 O   0  5  0  0  0  0  0  0  0  0  0  0
   -0.2721   -2.6914    0.0000 C   0  0  0  0  0  0  0  0  0  0  0  0
    0.6209   -0.0211    0.0000 H   0  0  0  0  0  0  0  0  0  0  0  0
    0.1152    4.0190    0.0000 H   0  0  0  0  0  0  0  0  0  0  0  0
    1.7234    3.0905    0.0000 H   0  0  0  0  0  0  0  0  0  0  0  0
    1.7234    1.2335    0.0000 H   0  0  0  0  0  0  0  0  0  0  0  0
   -1.4930    1.2335    0.0000 H   0  0  0  0  0  0  0  0  0  0  0  0
   -1.4930    3.0905    0.0000 H   0  0  0  0  0  0  0  0  0  0  0  0
   -1.2448    1.4386    0.0000 H   0  0  0  0  0  0  0  0  0  0  0  0
   -1.2448   -0.4146    0.0000 H   0  0  0  0  0  0  0  0  0  0  0  0
   -1.7798    0.5120    0.0000 H   0  0  0  0  0  0  0  0  0  0  0  0
    1.4752   -0.4146    0.0000 H   0  0  0  0  0  0  0  0  0  0  0  0
    1.4752    1.4386    0.0000 H   0  0  0  0  0  0  0  0  0  0  0  0
    2.0102    0.5120    0.0000 H   0  0  0  0  0  0  0  0  0  0  0  0
    1.7563   -0.1905    0.0000 H   0  0  0  0  0  0  0  0  0  0  0  0
    1.7563   -1.2605    0.0000 H   0  0  0  0  0  0  0  0  0  0  0  0
    1.7563   -2.0855    0.0000 H   0  0  0  0  0  0  0  0  0  0  0  0
    0.8297   -2.6205    0.0000 H   0  0  0  0  0  0  0  0  0  0  0  0
   -1.5259   -2.0855    0.0000 H   0  0  0  0  0  0  0  0  0  0  0  0
   -0.5993   -2.6205    0.0000 H   0  0  0  0  0  0  0  0  0  0  0  0
   -1.5259   -0.1905    0.0000 H   0  0  0  0  0  0  0  0  0  0  0  0
   -1.5259   -1.2605    0.0000 H   0  0  0  0  0  0  0  0  0  0  0  0
   -1.3414   -2.7287    0.0000 H   0  0  0  0  0  0  0  0  0  0  0  0
    0.2949   -3.5988    0.0000 H   0  0  0  0  0  0  0  0  0  0  0  0
   -0.7744   -3.6362    0.0000 H   0  0  0  0  0  0  0  0  0  0  0  0
  1  2  2  0  0  0  0
  1  6  1  0  0  0  0
  1 19  1  0  0  0  0
  2  3  1  0  0  0  0
  2 20  1  0  0  0  0
  3  4  2  0  0  0  0
  3 21  1  0  0  0  0
  4  5  1  0  0  0  0
  4  9  1  0  0  0  0
  5  6  2  0  0  0  0
  5 22  1  0  0  0  0
  6 23  1  0  0  0  0
  7  9  1  0  0  0  0
  7 24  1  0  0  0  0
  7 25  1  0  0  0  0
  7 26  1  0  0  0  0
  8  9  1  0  0  0  0
  8 27  1  0  0  0  0
  8 28  1  0  0  0  0
  8 29  1  0  0  0  0
 10  9  1  0  0  0  0
 10 11  1  0  0  0  0
 10 14  1  0  0  0  0
 10 18  1  1  0  0  0
 11 12  1  0  0  0  0
 11 30  1  0  0  0  0
 11 31  1  0  0  0  0
 12 15  1  0  0  0  0
 12 32  1  0  0  0  0
 12 33  1  0  0  0  0
 13 14  1  0  0  0  0
 13 15  1  0  0  0  0
 13 34  1  0  0  0  0
 13 35  1  0  0  0  0
 14 36  1  0  0  0  0
 14 37  1  0  0  0  0
 15 16  1  6  0  0  0
 15 17  1  0  0  0  0
 17 38  1  0  0  0  0
 17 39  1  0  0  0  0
 17 40  1  0  0  0  0
M  CHG  2  15   1  16  -1
M  END
>  <DRUGBANK_ID>
DB07672

>  <COMMON_NAME>
TRANS-2-(DIMETHYLPHENYLSILYL)-PIPERIDINE-N-OXIDE

$$$$
