
 OpenBabel10282417072D

192196  0  0  1  0  0  0  0  0999 V2000
   -2.6376    3.2218    0.0000 C   0  0  0  0  0  0  0  0  0  0  0  0
   -2.8083   -1.9274    0.0000 C   0  0  0  0  0  0  0  0  0  0  0  0
    3.9867   -4.1352    0.0000 C   0  0  0  0  0  0  0  0  0  0  0  0
    4.2416   -3.3506    0.0000 C   0  0  0  0  0  0  0  0  0  0  0  0
    3.1797   -4.3067    0.0000 C   0  0  0  0  0  0  0  0  0  0  0  0
    4.4177    4.5059    0.0000 C   0  0  0  0  0  0  0  0  0  0  0  0
    4.4177    5.3309    0.0000 C   0  0  0  0  0  0  0  0  0  0  0  0
   -1.0658    5.7472    0.0000 C   0  0  0  0  0  0  0  0  0  0  0  0
   -0.8109    6.5318    0.0000 C   0  0  0  0  0  0  0  0  0  0  0  0
    3.6896   -2.7375    0.0000 C   0  0  0  0  0  0  0  0  0  0  0  0
    2.6277   -3.6937    0.0000 C   0  0  0  0  0  0  0  0  0  0  0  0
    3.7032    4.0934    0.0000 C   0  0  0  0  0  0  0  0  0  0  0  0
    3.7032    5.7434    0.0000 C   0  0  0  0  0  0  0  0  0  0  0  0
   -0.5138    5.1341    0.0000 C   0  0  0  0  0  0  0  0  0  0  0  0
    2.2884   -0.1136    0.0000 C   0  0  0  0  0  0  0  0  0  0  0  0
    3.3503    0.8425    0.0000 C   0  0  0  0  0  0  0  0  0  0  0  0
    2.8404   -0.7267    0.0000 C   0  0  0  0  0  0  0  0  0  0  0  0
    3.9023    0.2294    0.0000 C   0  0  0  0  0  0  0  0  0  0  0  0
   -1.3629    7.1449    0.0000 C   0  0  0  0  0  0  0  0  0  0  0  0
   -3.2571   -4.1298    0.0000 C   0  0  0  0  0  0  0  0  0  0  0  0
   -2.9258   -5.6888    0.0000 C   0  0  0  0  0  0  0  0  0  0  0  0
   -2.8078   -3.4379    0.0000 C   0  0  0  0  0  0  0  0  0  0  0  0
   -2.2339   -6.1381    0.0000 C   0  0  0  0  0  0  0  0  0  0  0  0
   -1.2489   -3.1066    0.0000 C   0  0  0  0  0  0  0  0  0  0  0  0
   -0.6749   -5.8067    0.0000 C   0  0  0  0  0  0  0  0  0  0  0  0
   -0.5570   -3.5559    0.0000 C   0  0  0  0  0  0  0  0  0  0  0  0
   -0.2256   -5.1148    0.0000 C   0  0  0  0  0  0  0  0  0  0  0  0
    2.3306   -2.2959    0.0000 C   0  0  0  0  0  0  0  0  0  0  0  0
    1.9913    1.2840    0.0000 C   0  0  0  0  0  0  0  0  0  0  0  0
    1.9492    3.4664    0.0000 C   0  0  0  0  0  0  0  0  0  0  0  0
    1.7192    4.9184    0.0000 C   0  0  0  0  0  0  0  0  0  0  0  0
   -3.6896   -5.0364    0.0000 C   0  0  0  0  0  0  0  0  0  0  0  0
   -2.1555   -2.6741    0.0000 C   0  0  0  0  0  0  0  0  0  0  0  0
   -1.3273   -6.5705    0.0000 C   0  0  0  0  0  0  0  0  0  0  0  0
    0.2067   -4.2082    0.0000 C   0  0  0  0  0  0  0  0  0  0  0  0
    0.4195   -1.2413    0.0000 C   0  0  0  0  0  0  0  0  0  0  0  0
   -0.6844   -0.0151    0.0000 C   0  0  0  0  0  0  0  0  0  0  0  0
   -2.0856    2.6087    0.0000 C   0  0  2  0  0  0  0  0  0  0  0  0
   -3.3603   -1.3143    0.0000 C   0  0  2  0  0  0  0  0  0  0  0  0
    2.8826   -2.9090    0.0000 C   0  0  0  0  0  0  0  0  0  0  0  0
    2.5433    0.6709    0.0000 C   0  0  0  0  0  0  0  0  0  0  0  0
    2.2041    4.2510    0.0000 C   0  0  0  0  0  0  0  0  0  0  0  0
    3.6474   -0.5552    0.0000 C   0  0  0  0  0  0  0  0  0  0  0  0
    2.9887    4.5059    0.0000 C   0  0  0  0  0  0  0  0  0  0  0  0
    2.9887    5.3309    0.0000 C   0  0  0  0  0  0  0  0  0  0  0  0
   -0.7688    4.3495    0.0000 C   0  0  1  0  0  0  0  0  0  0  0  0
    1.5236   -2.4675    0.0000 C   0  0  2  0  0  0  0  0  0  0  0  0
    1.1843    1.1125    0.0000 C   0  0  1  0  0  0  0  0  0  0  0  0
    1.1422    3.2948    0.0000 C   0  0  2  0  0  0  0  0  0  0  0  0
    0.6745   -0.4567    0.0000 C   0  0  1  0  0  0  0  0  0  0  0  0
   -1.2365    0.5979    0.0000 C   0  0  1  0  0  0  0  0  0  0  0  0
   -3.9445   -5.8211    0.0000 C   0  0  0  0  0  0  0  0  0  0  0  0
   -1.5424   -2.1221    0.0000 C   0  0  0  0  0  0  0  0  0  0  0  0
   -1.9404   -7.1226    0.0000 C   0  0  0  0  0  0  0  0  0  0  0  0
    0.4617   -3.4236    0.0000 C   0  0  0  0  0  0  0  0  0  0  0  0
   -1.2786    2.7802    0.0000 C   0  0  1  0  0  0  0  0  0  0  0  0
   -3.1054   -0.5297    0.0000 C   0  0  1  0  0  0  0  0  0  0  0  0
   -1.5757    4.1780    0.0000 C   0  0  0  0  0  0  0  0  0  0  0  0
    0.9716   -1.8544    0.0000 C   0  0  0  0  0  0  0  0  0  0  0  0
    1.4393    1.8971    0.0000 C   0  0  0  0  0  0  0  0  0  0  0  0
    0.5902    3.9079    0.0000 C   0  0  0  0  0  0  0  0  0  0  0  0
    1.4814   -0.2851    0.0000 C   0  0  0  0  0  0  0  0  0  0  0  0
   -2.0434    0.4264    0.0000 C   0  0  0  0  0  0  0  0  0  0  0  0
   -1.5336    1.9956    0.0000 C   0  0  0  0  0  0  0  0  0  0  0  0
   -3.6574    0.0833    0.0000 C   0  0  0  0  0  0  0  0  0  0  0  0
   -1.1080    7.9295    0.0000 N   0  0  0  0  0  0  0  0  0  0  0  0
   -4.7515   -5.9926    0.0000 N   0  0  0  0  0  0  0  0  0  0  0  0
   -1.7139   -1.3151    0.0000 N   0  0  0  0  0  0  0  0  0  0  0  0
   -1.7688   -7.9295    0.0000 N   0  0  0  0  0  0  0  0  0  0  0  0
    2.2041    5.5859    0.0000 N   0  0  0  0  0  0  0  0  0  0  0  0
    1.2686   -3.2521    0.0000 N   0  0  0  0  0  0  0  0  0  0  0  0
   -0.2167    3.7364    0.0000 N   0  0  0  0  0  0  0  0  0  0  0  0
    1.7364    0.4994    0.0000 N   0  0  0  0  0  0  0  0  0  0  0  0
    0.8872    2.5102    0.0000 N   0  0  0  0  0  0  0  0  0  0  0  0
    1.2265   -1.0697    0.0000 N   0  0  0  0  0  0  0  0  0  0  0  0
   -0.9815    1.3825    0.0000 N   0  0  0  0  0  0  0  0  0  0  0  0
   -1.8307    3.3933    0.0000 N   0  0  0  0  0  0  0  0  0  0  0  0
   -2.2984   -0.3581    0.0000 N   0  0  0  0  0  0  0  0  0  0  0  0
   -2.8826   -4.8649    0.0000 N   0  0  0  0  0  0  0  0  0  0  0  0
   -1.9839   -3.4811    0.0000 N   0  0  0  0  0  0  0  0  0  0  0  0
   -1.4988   -5.7636    0.0000 N   0  0  0  0  0  0  0  0  0  0  0  0
   -0.6001   -4.3798    0.0000 N   0  0  0  0  0  0  0  0  0  0  0  0
   -2.3405    1.8241    0.0000 O   0  0  0  0  0  0  0  0  0  0  0  0
   -4.1673   -1.4858    0.0000 O   0  0  0  0  0  0  0  0  0  0  0  0
    4.1994   -1.1683    0.0000 O   0  5  0  0  0  0  0  0  0  0  0  0
   -3.3925   -6.4342    0.0000 O   0  5  0  0  0  0  0  0  0  0  0  0
   -0.7578   -2.3770    0.0000 O   0  0  0  0  0  0  0  0  0  0  0  0
   -2.7250   -6.8676    0.0000 O   0  0  0  0  0  0  0  0  0  0  0  0
   -0.0903   -2.8105    0.0000 O   0  0  0  0  0  0  0  0  0  0  0  0
   -2.1278    4.7911    0.0000 O   0  0  0  0  0  0  0  0  0  0  0  0
    0.1646   -2.0259    0.0000 O   0  0  0  0  0  0  0  0  0  0  0  0
    2.2463    2.0686    0.0000 O   0  0  0  0  0  0  0  0  0  0  0  0
    0.8451    4.6925    0.0000 O   0  0  0  0  0  0  0  0  0  0  0  0
    2.0335   -0.8982    0.0000 O   0  0  0  0  0  0  0  0  0  0  0  0
   -2.5955    1.0395    0.0000 O   0  0  0  0  0  0  0  0  0  0  0  0
   -2.0856    1.3825    0.0000 O   0  0  0  0  0  0  0  0  0  0  0  0
   -4.4644   -0.0881    0.0000 O   0  0  0  0  0  0  0  0  0  0  0  0
   -3.4025    0.8679    0.0000 O   0  0  0  0  0  0  0  0  0  0  0  0
   -0.3873   -1.4128    0.0000 S   0  0  0  0  0  0  0  0  0  0  0  0
   -0.9394   -0.7997    0.0000 S   0  0  0  0  0  0  0  0  0  0  0  0
    4.7515   -1.7814    0.0000 Pb  0  2  0  0  0  0  0  0  0  0  0  0
   -2.8926    2.4372    0.0000 H   0  0  0  0  0  0  0  0  0  0  0  0
   -2.5533   -1.1428    0.0000 H   0  0  0  0  0  0  0  0  0  0  0  0
    0.0381    4.5210    0.0000 H   0  0  0  0  0  0  0  0  0  0  0  0
    1.7785   -1.6828    0.0000 H   0  0  0  0  0  0  0  0  0  0  0  0
    0.3774    0.9410    0.0000 H   0  0  0  0  0  0  0  0  0  0  0  0
    1.6942    2.6817    0.0000 H   0  0  0  0  0  0  0  0  0  0  0  0
    0.1224    0.1563    0.0000 H   0  0  0  0  0  0  0  0  0  0  0  0
   -1.7885    1.2110    0.0000 H   0  0  0  0  0  0  0  0  0  0  0  0
   -0.4717    2.9518    0.0000 H   0  0  0  0  0  0  0  0  0  0  0  0
   -3.9123   -0.7012    0.0000 H   0  0  0  0  0  0  0  0  0  0  0  0
   -2.3069    4.2394    0.0000 H   0  0  0  0  0  0  0  0  0  0  0  0
   -3.6842    2.9994    0.0000 H   0  0  0  0  0  0  0  0  0  0  0  0
   -3.3535    4.0170    0.0000 H   0  0  0  0  0  0  0  0  0  0  0  0
   -3.1390   -2.9450    0.0000 H   0  0  0  0  0  0  0  0  0  0  0  0
   -1.7617   -1.7050    0.0000 H   0  0  0  0  0  0  0  0  0  0  0  0
   -2.0924   -2.7226    0.0000 H   0  0  0  0  0  0  0  0  0  0  0  0
    4.6772   -4.9021    0.0000 H   0  0  0  0  0  0  0  0  0  0  0  0
    5.2510   -3.1360    0.0000 H   0  0  0  0  0  0  0  0  0  0  0  0
    2.8608   -5.2882    0.0000 H   0  0  0  0  0  0  0  0  0  0  0  0
    5.3114    3.9899    0.0000 H   0  0  0  0  0  0  0  0  0  0  0  0
    5.3114    5.8469    0.0000 H   0  0  0  0  0  0  0  0  0  0  0  0
   -2.1124    5.5247    0.0000 H   0  0  0  0  0  0  0  0  0  0  0  0
   -1.3965    4.7296    0.0000 H   0  0  0  0  0  0  0  0  0  0  0  0
    0.2357    6.7543    0.0000 H   0  0  0  0  0  0  0  0  0  0  0  0
   -0.4802    7.5494    0.0000 H   0  0  0  0  0  0  0  0  0  0  0  0
    4.0085   -1.7560    0.0000 H   0  0  0  0  0  0  0  0  0  0  0  0
    1.6183   -3.9083    0.0000 H   0  0  0  0  0  0  0  0  0  0  0  0
    3.7032    3.0614    0.0000 H   0  0  0  0  0  0  0  0  0  0  0  0
    3.7032    6.7754    0.0000 H   0  0  0  0  0  0  0  0  0  0  0  0
    0.5328    5.3565    0.0000 H   0  0  0  0  0  0  0  0  0  0  0  0
    0.2021    4.3389    0.0000 H   0  0  0  0  0  0  0  0  0  0  0  0
    1.2789   -0.3281    0.0000 H   0  0  0  0  0  0  0  0  0  0  0  0
    3.6692    1.8240    0.0000 H   0  0  0  0  0  0  0  0  0  0  0  0
    2.5215   -1.7082    0.0000 H   0  0  0  0  0  0  0  0  0  0  0  0
    4.9117    0.4440    0.0000 H   0  0  0  0  0  0  0  0  0  0  0  0
   -2.4095    6.9224    0.0000 H   0  0  0  0  0  0  0  0  0  0  0  0
   -2.0789    7.9401    0.0000 H   0  0  0  0  0  0  0  0  0  0  0  0
   -4.3256   -4.0738    0.0000 H   0  0  0  0  0  0  0  0  0  0  0  0
   -3.8399   -5.0272    0.0000 H   0  0  0  0  0  0  0  0  0  0  0  0
   -3.8792   -6.1746    0.0000 H   0  0  0  0  0  0  0  0  0  0  0  0
   -3.8232   -5.1060    0.0000 H   0  0  0  0  0  0  0  0  0  0  0  0
   -3.2936   -2.4845    0.0000 H   0  0  0  0  0  0  0  0  0  0  0  0
   -2.2250   -2.5405    0.0000 H   0  0  0  0  0  0  0  0  0  0  0  0
   -2.2899   -7.2066    0.0000 H   0  0  0  0  0  0  0  0  0  0  0  0
   -1.3365   -6.7209    0.0000 H   0  0  0  0  0  0  0  0  0  0  0  0
   -1.1929   -2.0381    0.0000 H   0  0  0  0  0  0  0  0  0  0  0  0
   -2.1463   -2.5238    0.0000 H   0  0  0  0  0  0  0  0  0  0  0  0
   -0.1891   -6.7600    0.0000 H   0  0  0  0  0  0  0  0  0  0  0  0
   -1.2576   -6.7041    0.0000 H   0  0  0  0  0  0  0  0  0  0  0  0
    0.3963   -3.0701    0.0000 H   0  0  0  0  0  0  0  0  0  0  0  0
    0.3404   -4.1386    0.0000 H   0  0  0  0  0  0  0  0  0  0  0  0
    0.8429   -5.1708    0.0000 H   0  0  0  0  0  0  0  0  0  0  0  0
    0.3572   -4.2174    0.0000 H   0  0  0  0  0  0  0  0  0  0  0  0
    2.6612   -1.2783    0.0000 H   0  0  0  0  0  0  0  0  0  0  0  0
    1.6146   -1.5008    0.0000 H   0  0  0  0  0  0  0  0  0  0  0  0
    2.3220    2.3016    0.0000 H   0  0  0  0  0  0  0  0  0  0  0  0
    1.2754    2.0792    0.0000 H   0  0  0  0  0  0  0  0  0  0  0  0
    2.6652    2.6713    0.0000 H   0  0  0  0  0  0  0  0  0  0  0  0
    1.6186    2.4487    0.0000 H   0  0  0  0  0  0  0  0  0  0  0  0
    0.6872    4.9184    0.0000 H   0  0  0  0  0  0  0  0  0  0  0  0
   -4.4056   -4.2412    0.0000 H   0  0  0  0  0  0  0  0  0  0  0  0
   -3.3589   -4.0188    0.0000 H   0  0  0  0  0  0  0  0  0  0  0  0
   -3.1731   -2.3435    0.0000 H   0  0  0  0  0  0  0  0  0  0  0  0
   -2.9506   -3.3901    0.0000 H   0  0  0  0  0  0  0  0  0  0  0  0
   -0.3097   -6.9011    0.0000 H   0  0  0  0  0  0  0  0  0  0  0  0
   -0.5321   -5.8545    0.0000 H   0  0  0  0  0  0  0  0  0  0  0  0
    0.9227   -5.0033    0.0000 H   0  0  0  0  0  0  0  0  0  0  0  0
   -0.1239   -5.2259    0.0000 H   0  0  0  0  0  0  0  0  0  0  0  0
    1.1354   -2.0365    0.0000 H   0  0  0  0  0  0  0  0  0  0  0  0
    0.0888   -2.2589    0.0000 H   0  0  0  0  0  0  0  0  0  0  0  0
    0.3622    0.2074    0.0000 H   0  0  0  0  0  0  0  0  0  0  0  0
    0.0316   -0.8103    0.0000 H   0  0  0  0  0  0  0  0  0  0  0  0
   -0.1103    8.1416    0.0000 H   0  0  0  0  0  0  0  0  0  0  0  0
   -1.7905    8.6875    0.0000 H   0  0  0  0  0  0  0  0  0  0  0  0
   -5.4102   -5.2609    0.0000 H   0  0  0  0  0  0  0  0  0  0  0  0
   -0.9822   -0.6564    0.0000 H   0  0  0  0  0  0  0  0  0  0  0  0
   -2.5004   -8.5883    0.0000 H   0  0  0  0  0  0  0  0  0  0  0  0
    1.8999    6.5222    0.0000 H   0  0  0  0  0  0  0  0  0  0  0  0
   -3.2893    1.6224    0.0000 H   0  0  0  0  0  0  0  0  0  0  0  0
   -4.8163   -0.7649    0.0000 H   0  0  0  0  0  0  0  0  0  0  0  0
   -0.5630   -3.2935    0.0000 H   0  0  0  0  0  0  0  0  0  0  0  0
   -2.9197   -5.9511    0.0000 H   0  0  0  0  0  0  0  0  0  0  0  0
    0.1993   -1.9194    0.0000 H   0  0  0  0  0  0  0  0  0  0  0  0
   -1.8383    5.6823    0.0000 H   0  0  0  0  0  0  0  0  0  0  0  0
   -0.4623   -1.3295    0.0000 H   0  0  0  0  0  0  0  0  0  0  0  0
    2.8732    1.3722    0.0000 H   0  0  0  0  0  0  0  0  0  0  0  0
    1.7616    4.8873    0.0000 H   0  0  0  0  0  0  0  0  0  0  0  0
    1.7440   -1.7894    0.0000 H   0  0  0  0  0  0  0  0  0  0  0  0
   -2.3060    1.9307    0.0000 H   0  0  0  0  0  0  0  0  0  0  0  0
   -3.0021    1.5773    0.0000 H   0  0  0  0  0  0  0  0  0  0  0  0
   -2.4860    1.0627    0.0000 H   0  0  0  0  0  0  0  0  0  0  0  0
  1112  1  0  0  0  0
  1113  1  0  0  0  0
  1114  1  0  0  0  0
  2115  1  0  0  0  0
  2116  1  0  0  0  0
  2117  1  0  0  0  0
  3118  1  0  0  0  0
  4  3  2  0  0  0  0
  4119  1  0  0  0  0
  5  3  1  0  0  0  0
  5120  1  0  0  0  0
  6121  1  0  0  0  0
  7  6  2  0  0  0  0
  7122  1  0  0  0  0
  8123  1  0  0  0  0
  8124  1  0  0  0  0
  9  8  1  0  0  0  0
  9125  1  0  0  0  0
  9126  1  0  0  0  0
 10  4  1  0  0  0  0
 10127  1  0  0  0  0
 11  5  2  0  0  0  0
 11128  1  0  0  0  0
 12  6  1  0  0  0  0
 12129  1  0  0  0  0
 13  7  1  0  0  0  0
 13130  1  0  0  0  0
 14  8  1  0  0  0  0
 14131  1  0  0  0  0
 14132  1  0  0  0  0
 15133  1  0  0  0  0
 16134  1  0  0  0  0
 17 15  1  0  0  0  0
 17135  1  0  0  0  0
 18 16  2  0  0  0  0
 18136  1  0  0  0  0
 19  9  1  0  0  0  0
 19137  1  0  0  0  0
 19138  1  0  0  0  0
 20139  1  0  0  0  0
 20140  1  0  0  0  0
 21141  1  0  0  0  0
 21142  1  0  0  0  0
 22 20  1  0  0  0  0
 22143  1  0  0  0  0
 22144  1  0  0  0  0
 23 21  1  0  0  0  0
 23145  1  0  0  0  0
 23146  1  0  0  0  0
 24147  1  0  0  0  0
 24148  1  0  0  0  0
 25149  1  0  0  0  0
 25150  1  0  0  0  0
 26 24  1  0  0  0  0
 26151  1  0  0  0  0
 26152  1  0  0  0  0
 27 25  1  0  0  0  0
 27153  1  0  0  0  0
 27154  1  0  0  0  0
 28155  1  0  0  0  0
 28156  1  0  0  0  0
 29157  1  0  0  0  0
 29158  1  0  0  0  0
 30159  1  0  0  0  0
 30160  1  0  0  0  0
 31161  1  0  0  0  0
 32162  1  0  0  0  0
 32163  1  0  0  0  0
 33164  1  0  0  0  0
 33165  1  0  0  0  0
 34166  1  0  0  0  0
 34167  1  0  0  0  0
 35168  1  0  0  0  0
 35169  1  0  0  0  0
 36170  1  0  0  0  0
 36171  1  0  0  0  0
 37172  1  0  0  0  0
 37173  1  0  0  0  0
 38  1  1  0  0  0  0
 38 56  1  0  0  0  0
 38 83  1  0  0  0  0
 38102  1  1  0  0  0
 39  2  1  0  0  0  0
 39 57  1  0  0  0  0
 39 84  1  0  0  0  0
 39103  1  6  0  0  0
 40 10  2  0  0  0  0
 40 11  1  0  0  0  0
 40 28  1  0  0  0  0
 41 15  2  0  0  0  0
 41 16  1  0  0  0  0
 41 29  1  0  0  0  0
 42 30  1  0  0  0  0
 42 31  2  0  0  0  0
 43 17  2  0  0  0  0
 43 18  1  0  0  0  0
 44 12  2  0  0  0  0
 44 42  1  0  0  0  0
 45 13  2  0  0  0  0
 45 44  1  0  0  0  0
 46 14  1  0  0  0  0
 46 58  1  0  0  0  0
 46 72  1  0  0  0  0
 46104  1  1  0  0  0
 47 28  1  0  0  0  0
 47 59  1  0  0  0  0
 47 71  1  0  0  0  0
 47105  1  6  0  0  0
 48 29  1  0  0  0  0
 48 60  1  0  0  0  0
 48 73  1  0  0  0  0
 48106  1  1  0  0  0
 49 30  1  0  0  0  0
 49 61  1  0  0  0  0
 49 74  1  0  0  0  0
 49107  1  6  0  0  0
 50 36  1  0  0  0  0
 50 62  1  0  0  0  0
 50 75  1  0  0  0  0
 50108  1  6  0  0  0
 51 37  1  0  0  0  0
 51 63  1  0  0  0  0
 51 76  1  0  0  0  0
 51109  1  6  0  0  0
 52 32  1  0  0  0  0
 53 33  1  0  0  0  0
 54 34  1  0  0  0  0
 55 35  1  0  0  0  0
 55 89  1  0  0  0  0
 56 64  1  0  0  0  0
 56 77  1  0  0  0  0
 56110  1  1  0  0  0
 57 65  1  0  0  0  0
 57 78  1  0  0  0  0
 57111  1  6  0  0  0
 58 90  1  0  0  0  0
 59 91  1  0  0  0  0
 60 92  1  0  0  0  0
 61 93  1  0  0  0  0
 62 94  1  0  0  0  0
 63 95  1  0  0  0  0
 64 96  1  0  0  0  0
 66 19  1  0  0  0  0
 66174  1  0  0  0  0
 66175  1  0  0  0  0
 67 52  2  0  0  0  0
 67176  1  0  0  0  0
 68 53  2  0  0  0  0
 68177  1  0  0  0  0
 69 54  2  0  0  0  0
 69178  1  0  0  0  0
 70 31  1  0  0  0  0
 70 45  1  0  0  0  0
 70179  1  0  0  0  0
 71 55  2  3  0  0  0
 72 61  2  3  0  0  0
 73 62  2  3  0  0  0
 74 60  2  3  0  0  0
 75 59  2  3  0  0  0
 76 64  2  3  0  0  0
 77 58  2  3  0  0  0
 78 63  2  3  0  0  0
 79 20  1  0  0  0  0
 79 21  1  0  0  0  0
 79 32  1  0  0  0  0
 80 22  1  0  0  0  0
 80 24  1  0  0  0  0
 80 33  1  0  0  0  0
 81 23  1  0  0  0  0
 81 25  1  0  0  0  0
 81 34  1  0  0  0  0
 82 26  1  0  0  0  0
 82 27  1  0  0  0  0
 82 35  1  0  0  0  0
 83180  1  0  0  0  0
 84181  1  0  0  0  0
 85 43  1  0  0  0  0
 86 52  1  0  0  0  0
 87 53  1  0  0  0  0
 87182  1  0  0  0  0
 88 54  1  0  0  0  0
 88183  1  0  0  0  0
 89184  1  0  0  0  0
 90185  1  0  0  0  0
 91186  1  0  0  0  0
 92187  1  0  0  0  0
 93188  1  0  0  0  0
 94189  1  0  0  0  0
 95190  1  0  0  0  0
 96191  1  0  0  0  0
 97 65  2  0  0  0  0
 98 65  1  0  0  0  0
 98192  1  0  0  0  0
 99 36  1  0  0  0  0
100 37  1  0  0  0  0
100 99  1  0  0  0  0
M  ISO  1 101 212
M  CHG  3  85  -1  86  -1 101   2
M  END
>  <DRUGBANK_ID>
DB17312

>  <COMMON_NAME>
Dotamtate Pb-212

>  <UNII>
E9N7QV53AK

>  <SYNONYMS>
212Pb-dotamtate; Alphamedix; Dotamtate lead Pb-212; Lead-212 dotamtate

$$$$
