
 OpenBabel10282417072D

 60 61  0  0  0  0  0  0  0  0999 V2000
   -8.5737   -0.8250    0.0000 C   0  0  0  0  0  0  0  0  0  0  0  0
   -7.8592   -2.0625    0.0000 C   0  0  0  0  0  0  0  0  0  0  0  0
    4.2868   -0.8250    0.0000 C   0  0  0  0  0  0  0  0  0  0  0  0
    3.5724   -2.0625    0.0000 C   0  0  0  0  0  0  0  0  0  0  0  0
   -3.5724   -1.2375    0.0000 C   0  0  0  0  0  0  0  0  0  0  0  0
   -4.2868   -2.4750    0.0000 C   0  0  0  0  0  0  0  0  0  0  0  0
    0.0000   -2.4750    0.0000 C   0  0  0  0  0  0  0  0  0  0  0  0
   -0.7145   -1.2375    0.0000 C   0  0  0  0  0  0  0  0  0  0  0  0
   -4.2868   -0.8250    0.0000 C   0  0  0  0  0  0  0  0  0  0  0  0
   -5.0013   -2.0625    0.0000 C   0  0  0  0  0  0  0  0  0  0  0  0
    0.7145   -2.0625    0.0000 C   0  0  0  0  0  0  0  0  0  0  0  0
    0.0000   -0.8250    0.0000 C   0  0  0  0  0  0  0  0  0  0  0  0
   -7.1447   -0.8250    0.0000 C   0  0  0  0  0  0  0  0  0  0  0  0
    2.8579   -0.8250    0.0000 C   0  0  0  0  0  0  0  0  0  0  0  0
   -6.4302   -1.2375    0.0000 C   0  0  0  0  0  0  0  0  0  0  0  0
    2.1434   -1.2375    0.0000 C   0  0  0  0  0  0  0  0  0  0  0  0
   -7.8592   -1.2375    0.0000 C   0  0  0  0  0  0  0  0  0  0  0  0
    3.5724   -1.2375    0.0000 C   0  0  0  0  0  0  0  0  0  0  0  0
   -3.5724   -2.0625    0.0000 C   0  0  0  0  0  0  0  0  0  0  0  0
   -0.7145   -2.0625    0.0000 C   0  0  0  0  0  0  0  0  0  0  0  0
   -5.0013   -1.2375    0.0000 C   0  0  0  0  0  0  0  0  0  0  0  0
    0.7145   -1.2375    0.0000 C   0  0  0  0  0  0  0  0  0  0  0  0
   -2.1434   -2.0625    0.0000 C   0  0  0  0  0  0  0  0  0  0  0  0
   -2.8579   -2.4750    0.0000 N   0  0  0  0  0  0  0  0  0  0  0  0
   -1.4289   -2.4750    0.0000 N   0  0  0  0  0  0  0  0  0  0  0  0
   -5.7158   -0.8250    0.0000 O   0  0  0  0  0  0  0  0  0  0  0  0
    1.4289   -0.8250    0.0000 O   0  0  0  0  0  0  0  0  0  0  0  0
   -2.1434   -1.2375    0.0000 S   0  0  0  0  0  0  0  0  0  0  0  0
   -8.5737    0.2450    0.0000 H   0  0  0  0  0  0  0  0  0  0  0  0
   -9.5003   -1.3600    0.0000 H   0  0  0  0  0  0  0  0  0  0  0  0
   -9.5004   -0.2900    0.0000 H   0  0  0  0  0  0  0  0  0  0  0  0
   -8.7858   -2.5975    0.0000 H   0  0  0  0  0  0  0  0  0  0  0  0
   -6.9326   -2.5975    0.0000 H   0  0  0  0  0  0  0  0  0  0  0  0
   -7.8592   -3.1325    0.0000 H   0  0  0  0  0  0  0  0  0  0  0  0
    5.2135   -1.3600    0.0000 H   0  0  0  0  0  0  0  0  0  0  0  0
    4.2868    0.2450    0.0000 H   0  0  0  0  0  0  0  0  0  0  0  0
    5.2134   -0.2900    0.0000 H   0  0  0  0  0  0  0  0  0  0  0  0
    2.6458   -2.5975    0.0000 H   0  0  0  0  0  0  0  0  0  0  0  0
    4.4990   -2.5975    0.0000 H   0  0  0  0  0  0  0  0  0  0  0  0
    3.5724   -3.1325    0.0000 H   0  0  0  0  0  0  0  0  0  0  0  0
   -2.6787   -0.7215    0.0000 H   0  0  0  0  0  0  0  0  0  0  0  0
   -4.2868   -3.5070    0.0000 H   0  0  0  0  0  0  0  0  0  0  0  0
    0.0000   -3.5070    0.0000 H   0  0  0  0  0  0  0  0  0  0  0  0
   -1.6082   -0.7215    0.0000 H   0  0  0  0  0  0  0  0  0  0  0  0
   -4.2868    0.2070    0.0000 H   0  0  0  0  0  0  0  0  0  0  0  0
   -5.8950   -2.5785    0.0000 H   0  0  0  0  0  0  0  0  0  0  0  0
    1.6082   -2.5785    0.0000 H   0  0  0  0  0  0  0  0  0  0  0  0
    0.0000    0.2070    0.0000 H   0  0  0  0  0  0  0  0  0  0  0  0
   -7.1447    0.2450    0.0000 H   0  0  0  0  0  0  0  0  0  0  0  0
   -8.0713   -0.2900    0.0000 H   0  0  0  0  0  0  0  0  0  0  0  0
    2.8579    0.2450    0.0000 H   0  0  0  0  0  0  0  0  0  0  0  0
    3.7845   -0.2900    0.0000 H   0  0  0  0  0  0  0  0  0  0  0  0
   -6.4302   -2.3075    0.0000 H   0  0  0  0  0  0  0  0  0  0  0  0
   -5.5035   -1.7725    0.0000 H   0  0  0  0  0  0  0  0  0  0  0  0
    2.1434   -2.3075    0.0000 H   0  0  0  0  0  0  0  0  0  0  0  0
    1.2168   -1.7725    0.0000 H   0  0  0  0  0  0  0  0  0  0  0  0
   -6.9326   -1.7725    0.0000 H   0  0  0  0  0  0  0  0  0  0  0  0
    2.6458   -1.7725    0.0000 H   0  0  0  0  0  0  0  0  0  0  0  0
   -2.8579   -3.4595    0.0000 H   0  0  0  0  0  0  0  0  0  0  0  0
   -1.4289   -3.4595    0.0000 H   0  0  0  0  0  0  0  0  0  0  0  0
  1 29  1  0  0  0  0
  1 30  1  0  0  0  0
  1 31  1  0  0  0  0
  2 32  1  0  0  0  0
  2 33  1  0  0  0  0
  2 34  1  0  0  0  0
  3 35  1  0  0  0  0
  3 36  1  0  0  0  0
  3 37  1  0  0  0  0
  4 38  1  0  0  0  0
  4 39  1  0  0  0  0
  4 40  1  0  0  0  0
  5 41  1  0  0  0  0
  6 42  1  0  0  0  0
  7 43  1  0  0  0  0
  8 44  1  0  0  0  0
  9  5  1  0  0  0  0
  9 45  1  0  0  0  0
 10  6  2  0  0  0  0
 10 46  1  0  0  0  0
 11  7  1  0  0  0  0
 11 47  1  0  0  0  0
 12  8  2  0  0  0  0
 12 48  1  0  0  0  0
 13 49  1  0  0  0  0
 13 50  1  0  0  0  0
 14 51  1  0  0  0  0
 14 52  1  0  0  0  0
 15 13  1  0  0  0  0
 15 53  1  0  0  0  0
 15 54  1  0  0  0  0
 16 14  1  0  0  0  0
 16 55  1  0  0  0  0
 16 56  1  0  0  0  0
 17  1  1  0  0  0  0
 17  2  1  0  0  0  0
 17 13  1  0  0  0  0
 17 57  1  0  0  0  0
 18  3  1  0  0  0  0
 18  4  1  0  0  0  0
 18 14  1  0  0  0  0
 18 58  1  0  0  0  0
 19  5  2  0  0  0  0
 19  6  1  0  0  0  0
 20  7  2  0  0  0  0
 20  8  1  0  0  0  0
 21  9  2  0  0  0  0
 21 10  1  0  0  0  0
 22 11  2  0  0  0  0
 22 12  1  0  0  0  0
 24 19  1  0  0  0  0
 24 23  1  0  0  0  0
 24 59  1  0  0  0  0
 25 20  1  0  0  0  0
 25 23  1  0  0  0  0
 25 60  1  0  0  0  0
 26 15  1  0  0  0  0
 26 21  1  0  0  0  0
 27 16  1  0  0  0  0
 27 22  1  0  0  0  0
 28 23  2  0  0  0  0
M  END
>  <DRUGBANK_ID>
DB13608

>  <COMMON_NAME>
Tiocarlide

>  <CAS_NUMBER>
910-86-1

>  <UNII>
43M23X81Y2

>  <SYNONYMS>
Tiocarlide

$$$$
