IMM
 OpenBabel10282417072D

 41 43  0  0  0  0  0  0  0  0999 V2000
    0.0569   -0.3134    0.0000 N   0  0  0  0  0  0  0  0  0  0  0  0
   -0.4280    0.3541    0.0000 C   0  0  0  0  0  0  0  0  0  0  0  0
    0.0569    1.0215    0.0000 C   0  0  0  0  0  0  0  0  0  0  0  0
    0.8415    0.7666    0.0000 C   0  0  0  0  0  0  0  0  0  0  0  0
    1.5560    1.1791    0.0000 C   0  0  0  0  0  0  0  0  0  0  0  0
    2.2704    0.7666    0.0000 C   0  0  0  0  0  0  0  0  0  0  0  0
    2.2704   -0.0584    0.0000 C   0  0  0  0  0  0  0  0  0  0  0  0
    1.5560   -0.4709    0.0000 C   0  0  0  0  0  0  0  0  0  0  0  0
    0.8415   -0.0584    0.0000 C   0  0  0  0  0  0  0  0  0  0  0  0
   -0.1981   -1.0980    0.0000 C   0  0  0  0  0  0  0  0  0  0  0  0
   -1.0050   -1.2695    0.0000 C   0  0  0  0  0  0  0  0  0  0  0  0
   -1.2600   -2.0541    0.0000 C   0  0  0  0  0  0  0  0  0  0  0  0
   -2.0669   -2.2257    0.0000 C   0  0  0  0  0  0  0  0  0  0  0  0
   -2.6190   -1.6126    0.0000 C   0  0  0  0  0  0  0  0  0  0  0  0
   -2.3640   -0.8280    0.0000 C   0  0  0  0  0  0  0  0  0  0  0  0
   -1.5571   -0.6564    0.0000 C   0  0  0  0  0  0  0  0  0  0  0  0
   -1.2530    0.3541    0.0000 C   0  0  0  0  0  0  0  0  0  0  0  0
   -0.1981    1.8061    0.0000 C   0  0  0  0  0  0  0  0  0  0  0  0
   -1.0050    1.9777    0.0000 C   0  0  0  0  0  0  0  0  0  0  0  0
    3.6994    0.7666    0.0000 C   0  0  0  0  0  0  0  0  0  0  0  0
    0.3540   -1.7111    0.0000 O   0  0  0  0  0  0  0  0  0  0  0  0
    2.9849    1.1791    0.0000 O   0  0  0  0  0  0  0  0  0  0  0  0
   -1.5571    1.3646    0.0000 O   0  0  0  0  0  0  0  0  0  0  0  0
   -1.2600    2.7623    0.0000 O   0  0  0  0  0  0  0  0  0  0  0  0
   -3.4259   -1.7841    0.0000 I   0  0  0  0  0  0  0  0  0  0  0  0
    1.5560    2.2111    0.0000 H   0  0  0  0  0  0  0  0  0  0  0  0
    3.1641   -0.5744    0.0000 H   0  0  0  0  0  0  0  0  0  0  0  0
    1.5560   -1.5029    0.0000 H   0  0  0  0  0  0  0  0  0  0  0  0
   -0.5694   -2.8210    0.0000 H   0  0  0  0  0  0  0  0  0  0  0  0
   -2.3857   -3.2072    0.0000 H   0  0  0  0  0  0  0  0  0  0  0  0
   -3.0546   -0.0611    0.0000 H   0  0  0  0  0  0  0  0  0  0  0  0
   -1.2383    0.3251    0.0000 H   0  0  0  0  0  0  0  0  0  0  0  0
   -1.7880    1.2807    0.0000 H   0  0  0  0  0  0  0  0  0  0  0  0
   -1.7880   -0.5725    0.0000 H   0  0  0  0  0  0  0  0  0  0  0  0
   -2.3230    0.3541    0.0000 H   0  0  0  0  0  0  0  0  0  0  0  0
    0.5179    2.6013    0.0000 H   0  0  0  0  0  0  0  0  0  0  0  0
   -0.5287    2.8237    0.0000 H   0  0  0  0  0  0  0  0  0  0  0  0
    3.6994   -0.3034    0.0000 H   0  0  0  0  0  0  0  0  0  0  0  0
    4.6260    1.3016    0.0000 H   0  0  0  0  0  0  0  0  0  0  0  0
    4.6261    0.2316    0.0000 H   0  0  0  0  0  0  0  0  0  0  0  0
   -0.6331    3.4587    0.0000 H   0  0  0  0  0  0  0  0  0  0  0  0
  1  2  1  0  0  0  0
  1  9  1  0  0  0  0
  1 10  1  0  0  0  0
  2  3  2  0  0  0  0
  2 17  1  0  0  0  0
  3  4  1  0  0  0  0
  3 18  1  0  0  0  0
  4  5  2  0  0  0  0
  4  9  1  0  0  0  0
  5  6  1  0  0  0  0
  5 26  1  0  0  0  0
  6  7  2  0  0  0  0
  6 22  1  0  0  0  0
  7  8  1  0  0  0  0
  7 27  1  0  0  0  0
  8  9  2  0  0  0  0
  8 28  1  0  0  0  0
 10 11  1  0  0  0  0
 10 21  2  0  0  0  0
 11 12  2  0  0  0  0
 11 16  1  0  0  0  0
 12 13  1  0  0  0  0
 12 29  1  0  0  0  0
 13 14  2  0  0  0  0
 13 30  1  0  0  0  0
 14 15  1  0  0  0  0
 14 25  1  0  0  0  0
 15 16  2  0  0  0  0
 15 31  1  0  0  0  0
 16 32  1  0  0  0  0
 17 33  1  0  0  0  0
 17 34  1  0  0  0  0
 17 35  1  0  0  0  0
 18 19  1  0  0  0  0
 18 36  1  0  0  0  0
 18 37  1  0  0  0  0
 19 23  2  0  0  0  0
 19 24  1  0  0  0  0
 20 22  1  0  0  0  0
 20 38  1  0  0  0  0
 20 39  1  0  0  0  0
 20 40  1  0  0  0  0
 24 41  1  0  0  0  0
M  END
>  <DRUGBANK_ID>
DB07983

>  <COMMON_NAME>
1-(4-IODOBENZOYL)-5-METHOXY-2-METHYL INDOLE-3-ACETIC ACID

$$$$
