
 OpenBabel10282417072D

 42 43  0  0  0  0  0  0  0  0999 V2000
    0.4021   -0.1695    0.0000 C   0  0  2  0  0  0  0  0  0  0  0  0
    1.1238    0.2471    0.0000 C   0  0  1  0  0  0  0  0  0  0  0  0
   -0.3100    0.2471    0.0000 C   0  0  0  0  0  0  0  0  0  0  0  0
   -0.0047   -0.8817    0.0000 O   0  0  0  0  0  0  0  0  0  0  0  0
    0.4117    1.4826    0.0000 N   0  0  0  0  0  0  0  0  0  0  0  0
    1.1238    1.0659    0.0000 C   0  0  0  0  0  0  0  0  0  0  0  0
   -0.8236   -0.8817    0.0000 C   0  0  0  0  0  0  0  0  0  0  0  0
    0.8235   -0.8817    0.0000 C   0  0  0  0  0  0  0  0  0  0  0  0
   -0.3100    1.0659    0.0000 C   0  0  0  0  0  0  0  0  0  0  0  0
   -1.2306   -0.1598    0.0000 O   0  0  0  0  0  0  0  0  0  0  0  0
    1.8264   -0.1695    0.0000 C   0  0  0  0  0  0  0  0  0  0  0  0
    0.4117    2.3109    0.0000 C   0  0  0  0  0  0  0  0  0  0  0  0
   -1.2402   -1.5939    0.0000 C   0  0  0  0  0  0  0  0  0  0  0  0
    0.4021   -1.5987    0.0000 C   0  0  0  0  0  0  0  0  0  0  0  0
    1.6471   -0.8817    0.0000 C   0  0  0  0  0  0  0  0  0  0  0  0
   -2.0590   -1.5939    0.0000 C   0  0  0  0  0  0  0  0  0  0  0  0
    0.8235   -2.3109    0.0000 C   0  0  0  0  0  0  0  0  0  0  0  0
    2.0590   -1.5987    0.0000 C   0  0  0  0  0  0  0  0  0  0  0  0
    1.6471   -2.3109    0.0000 C   0  0  0  0  0  0  0  0  0  0  0  0
    1.1175   -0.8229    0.0000 H   0  0  0  0  0  0  0  0  0  0  0  0
   -1.2382   -0.2852    0.0000 H   0  0  0  0  0  0  0  0  0  0  0  0
   -1.2359    0.7834    0.0000 H   0  0  0  0  0  0  0  0  0  0  0  0
    2.0520    1.5982    0.0000 H   0  0  0  0  0  0  0  0  0  0  0  0
    1.1285    2.1359    0.0000 H   0  0  0  0  0  0  0  0  0  0  0  0
   -1.2367    1.6009    0.0000 H   0  0  0  0  0  0  0  0  0  0  0  0
   -1.2366    0.5309    0.0000 H   0  0  0  0  0  0  0  0  0  0  0  0
    1.8140   -1.2394    0.0000 H   0  0  0  0  0  0  0  0  0  0  0  0
    2.7592    0.3547    0.0000 H   0  0  0  0  0  0  0  0  0  0  0  0
    2.7468   -0.7152    0.0000 H   0  0  0  0  0  0  0  0  0  0  0  0
    1.3383    2.8459    0.0000 H   0  0  0  0  0  0  0  0  0  0  0  0
   -0.5149    2.8459    0.0000 H   0  0  0  0  0  0  0  0  0  0  0  0
    0.4117    3.3809    0.0000 H   0  0  0  0  0  0  0  0  0  0  0  0
   -0.7078   -2.5221    0.0000 H   0  0  0  0  0  0  0  0  0  0  0  0
   -1.7765   -2.5198    0.0000 H   0  0  0  0  0  0  0  0  0  0  0  0
   -0.6299   -1.6002    0.0000 H   0  0  0  0  0  0  0  0  0  0  0  0
    2.1641    0.0115    0.0000 H   0  0  0  0  0  0  0  0  0  0  0  0
   -2.5940   -0.6673    0.0000 H   0  0  0  0  0  0  0  0  0  0  0  0
   -2.5940   -2.5205    0.0000 H   0  0  0  0  0  0  0  0  0  0  0  0
   -3.1290   -1.5939    0.0000 H   0  0  0  0  0  0  0  0  0  0  0  0
    0.3123   -3.2074    0.0000 H   0  0  0  0  0  0  0  0  0  0  0  0
    3.0910   -1.6002    0.0000 H   0  0  0  0  0  0  0  0  0  0  0  0
    2.1628   -3.2048    0.0000 H   0  0  0  0  0  0  0  0  0  0  0  0
  1  4  1  1  0  0  0
  2  1  1  0  0  0  0
  2 11  1  0  0  0  0
  2 20  1  6  0  0  0
  3  1  1  0  0  0  0
  3 21  1  0  0  0  0
  3 22  1  0  0  0  0
  5  9  1  0  0  0  0
  5  6  1  0  0  0  0
  6  2  1  0  0  0  0
  6 23  1  0  0  0  0
  6 24  1  0  0  0  0
  7  4  1  0  0  0  0
  8  1  1  0  0  0  0
  9  3  1  0  0  0  0
  9 25  1  0  0  0  0
  9 26  1  0  0  0  0
 10  7  2  0  0  0  0
 11 27  1  0  0  0  0
 11 28  1  0  0  0  0
 11 29  1  0  0  0  0
 12  5  1  0  0  0  0
 12 30  1  0  0  0  0
 12 31  1  0  0  0  0
 12 32  1  0  0  0  0
 13  7  1  0  0  0  0
 13 33  1  0  0  0  0
 13 34  1  0  0  0  0
 14  8  2  0  0  0  0
 14 35  1  0  0  0  0
 15  8  1  0  0  0  0
 15 36  1  0  0  0  0
 16 13  1  0  0  0  0
 16 37  1  0  0  0  0
 16 38  1  0  0  0  0
 16 39  1  0  0  0  0
 17 14  1  0  0  0  0
 17 40  1  0  0  0  0
 18 15  2  0  0  0  0
 18 19  1  0  0  0  0
 18 41  1  0  0  0  0
 19 17  2  0  0  0  0
 19 42  1  0  0  0  0
M  END
>  <DRUGBANK_ID>
DB13160

>  <COMMON_NAME>
Alphaprodine

>  <CAS_NUMBER>
77-20-3

>  <UNII>
001O2254AC

>  <SYNONYMS>
Alphaprodine; dl-alpha-prodine

$$$$
