
 OpenBabel10282417072D

  5  4  0  0  0  0  0  0  0  0999 V2000
   -0.2062    0.3572    0.0000 B   0  0  0  0  0  0  0  0  0  0  0  0
   -1.0312    0.3572    0.0000 O   0  0  0  0  0  0  0  0  0  0  0  0
    1.0312   -0.3572    0.0000 O   0  0  0  0  0  0  0  0  0  0  0  0
    0.2062   -0.3572    0.0000 O   0  0  0  0  0  0  0  0  0  0  0  0
    1.5162   -1.1972    0.0000 H   0  0  0  0  0  0  0  0  0  0  0  0
  2  1  2  0  0  0  0
  3  5  1  0  0  0  0
  4  1  1  0  0  0  0
  4  3  1  0  0  0  0
M  END
>  <DRUGBANK_ID>
DB13235

>  <COMMON_NAME>
Perboric acid

>  <CAS_NUMBER>
14034-78-7

>  <UNII>
HC4C3M1FO2

$$$$
