
 OpenBabel10282417072D

106111  0  0  0  0  0  0  0  0999 V2000
    2.8215    1.4836    0.0000 C   0  0  3  0  0  0  0  0  0  0  0  0
    2.1283    1.9335    0.0000 C   0  0  0  0  0  0  0  0  0  0  0  0
    2.0688   -1.9775    0.0000 C   0  0  0  0  0  0  0  0  0  0  0  0
    3.3865   -1.8151    0.0000 C   0  0  0  0  0  0  0  0  0  0  0  0
    3.0407   -1.0697    0.0000 C   0  0  0  0  0  0  0  0  0  0  0  0
    2.2244   -1.1694    0.0000 N   0  0  0  0  0  0  0  0  0  0  0  0
    2.7889   -2.3739    0.0000 C   0  0  0  0  0  0  0  0  0  0  0  0
    2.8910   -3.1924    0.0000 C   0  0  0  0  0  0  0  0  0  0  0  0
    3.6512   -3.5133    0.0000 C   0  0  0  0  0  0  0  0  0  0  0  0
    4.1963   -1.9729    0.0000 C   0  0  0  0  0  0  0  0  0  0  0  0
    0.5818   -1.9946    0.0000 C   0  0  0  0  0  0  0  0  0  0  0  0
    0.3792   -1.1936    0.0000 N   0  0  0  0  0  0  0  0  0  0  0  0
   -0.4495   -1.1384    0.0000 C   0  0  0  0  0  0  0  0  0  0  0  0
   -0.7568   -1.9106    0.0000 C   0  0  0  0  0  0  0  0  0  0  0  0
   -0.1168   -2.4403    0.0000 C   0  0  0  0  0  0  0  0  0  0  0  0
    1.3263   -2.3410    0.0000 C   0  0  0  0  0  0  0  0  0  0  0  0
   -0.8899   -0.4407    0.0000 C   0  0  0  0  0  0  0  0  0  0  0  0
    3.5041   -0.5444    0.0000 C   0  0  0  0  0  0  0  0  0  0  0  0
   -0.1676   -3.2637    0.0000 C   0  0  0  0  0  0  0  0  0  0  0  0
   -0.3878    0.2163    0.0000 C   0  0  0  0  0  0  0  0  0  0  0  0
    0.4357    0.2365    0.0000 N   0  0  0  0  0  0  0  0  0  0  0  0
    3.1159    0.1803    0.0000 C   0  0  0  0  0  0  0  0  0  0  0  0
    2.2908    0.2338    0.0000 N   0  0  0  0  0  0  0  0  0  0  0  0
    1.3740    1.4281    0.0000 C   0  0  0  0  0  0  0  0  0  0  0  0
    2.1123    1.0624    0.0000 C   0  0  0  0  0  0  0  0  0  0  0  0
    0.6304    1.0786    0.0000 C   0  0  0  0  0  0  0  0  0  0  0  0
   -0.0714    1.5106    0.0000 C   0  0  0  0  0  0  0  0  0  0  0  0
   -0.6991    0.9763    0.0000 C   0  0  0  0  0  0  0  0  0  0  0  0
    3.4407    0.9372    0.0000 C   0  0  0  0  0  0  0  0  0  0  0  0
    4.2189    1.1989    0.0000 C   0  0  0  0  0  0  0  0  0  0  0  0
    4.3845    2.0071    0.0000 C   0  0  0  0  0  0  0  0  0  0  0  0
    3.7656    2.5533    0.0000 C   0  0  0  0  0  0  0  0  0  0  0  0
    2.9808    2.2914    0.0000 C   0  0  3  0  0  0  0  0  0  0  0  0
    3.9298    3.3618    0.0000 C   0  0  0  0  0  0  0  0  0  0  0  0
    4.7121    3.6238    0.0000 O   0  0  0  0  0  0  0  0  0  0  0  0
    3.3117    3.9083    0.0000 O   0  0  0  0  0  0  0  0  0  0  0  0
    5.3301    3.0773    0.0000 C   0  0  0  0  0  0  0  0  0  0  0  0
    2.3614    2.8364    0.0000 C   0  0  0  0  0  0  0  0  0  0  0  0
    2.5237    3.6453    0.0000 O   0  0  0  0  0  0  0  0  0  0  0  0
    1.5797    2.5725    0.0000 O   0  0  0  0  0  0  0  0  0  0  0  0
    0.9604    3.1175    0.0000 C   0  0  0  0  0  0  0  0  0  0  0  0
   -0.1347    2.3331    0.0000 C   0  0  0  0  0  0  0  0  0  0  0  0
   -1.5008    1.1712    0.0000 C   0  0  0  0  0  0  0  0  0  0  0  0
   -1.7328    1.9630    0.0000 C   0  0  0  0  0  0  0  0  0  0  0  0
   -2.5345    2.1579    0.0000 C   0  0  0  0  0  0  0  0  0  0  0  0
   -2.7665    2.9496    0.0000 O   0  0  0  0  0  0  0  0  0  0  0  0
   -3.1041    1.5610    0.0000 O   0  0  0  0  0  0  0  0  0  0  0  0
   -3.9057    1.7559    0.0000 C   0  0  0  0  0  0  0  0  0  0  0  0
   -4.4753    1.1591    0.0000 C   0  0  0  0  0  0  0  0  0  0  0  0
   -5.2771    1.3539    0.0000 O   0  0  0  0  0  0  0  0  0  0  0  0
   -1.5562   -2.1149    0.0000 C   0  0  0  0  0  0  0  0  0  0  0  0
   -1.7788   -2.9094    0.0000 C   0  0  0  0  0  0  0  0  0  0  0  0
   -2.5782   -3.1139    0.0000 C   0  0  0  0  0  0  0  0  0  0  0  0
   -2.8007   -3.9083    0.0000 O   0  0  0  0  0  0  0  0  0  0  0  0
   -3.1548   -2.5238    0.0000 O   0  0  0  0  0  0  0  0  0  0  0  0
   -3.9541   -2.7283    0.0000 C   0  0  0  0  0  0  0  0  0  0  0  0
   -4.5308   -2.1383    0.0000 C   0  0  0  0  0  0  0  0  0  0  0  0
   -5.3301   -2.3428    0.0000 O   0  0  0  0  0  0  0  0  0  0  0  0
    2.1840    3.0020    0.0000 H   0  0  0  0  0  0  0  0  0  0  0  0
    1.1751    1.4475    0.0000 H   0  0  0  0  0  0  0  0  0  0  0  0
    1.2308    2.5160    0.0000 H   0  0  0  0  0  0  0  0  0  0  0  0
    2.0680   -3.8151    0.0000 H   0  0  0  0  0  0  0  0  0  0  0  0
    3.7790   -4.5374    0.0000 H   0  0  0  0  0  0  0  0  0  0  0  0
    4.4742   -2.8906    0.0000 H   0  0  0  0  0  0  0  0  0  0  0  0
    4.5442   -2.9848    0.0000 H   0  0  0  0  0  0  0  0  0  0  0  0
    4.8987   -1.1657    0.0000 H   0  0  0  0  0  0  0  0  0  0  0  0
    5.2465   -2.1776    0.0000 H   0  0  0  0  0  0  0  0  0  0  0  0
    1.0095   -0.4373    0.0000 H   0  0  0  0  0  0  0  0  0  0  0  0
    1.3365   -3.3729    0.0000 H   0  0  0  0  0  0  0  0  0  0  0  0
   -1.9209   -0.3945    0.0000 H   0  0  0  0  0  0  0  0  0  0  0  0
    4.5292   -0.6634    0.0000 H   0  0  0  0  0  0  0  0  0  0  0  0
   -1.1254   -3.7406    0.0000 H   0  0  0  0  0  0  0  0  0  0  0  0
    0.7243   -3.8547    0.0000 H   0  0  0  0  0  0  0  0  0  0  0  0
   -0.2335   -4.3317    0.0000 H   0  0  0  0  0  0  0  0  0  0  0  0
    1.6478   -0.5117    0.0000 H   0  0  0  0  0  0  0  0  0  0  0  0
    1.3846    2.4600    0.0000 H   0  0  0  0  0  0  0  0  0  0  0  0
    4.9919    0.5151    0.0000 H   0  0  0  0  0  0  0  0  0  0  0  0
    5.3632    2.3345    0.0000 H   0  0  0  0  0  0  0  0  0  0  0  0
    3.7840    1.5845    0.0000 H   0  0  0  0  0  0  0  0  0  0  0  0
    5.1170    2.0287    0.0000 H   0  0  0  0  0  0  0  0  0  0  0  0
    6.3447    3.4171    0.0000 H   0  0  0  0  0  0  0  0  0  0  0  0
    6.1317    2.3685    0.0000 H   0  0  0  0  0  0  0  0  0  0  0  0
    1.1710    4.1666    0.0000 H   0  0  0  0  0  0  0  0  0  0  0  0
   -0.0534    2.7753    0.0000 H   0  0  0  0  0  0  0  0  0  0  0  0
    0.1571    3.8244    0.0000 H   0  0  0  0  0  0  0  0  0  0  0  0
    0.7482    2.9376    0.0000 H   0  0  0  0  0  0  0  0  0  0  0  0
   -1.0997    2.7954    0.0000 H   0  0  0  0  0  0  0  0  0  0  0  0
   -0.2168    3.3999    0.0000 H   0  0  0  0  0  0  0  0  0  0  0  0
   -2.2396    0.3972    0.0000 H   0  0  0  0  0  0  0  0  0  0  0  0
   -2.5405    1.4240    0.0000 H   0  0  0  0  0  0  0  0  0  0  0  0
   -0.9940    2.7370    0.0000 H   0  0  0  0  0  0  0  0  0  0  0  0
   -2.0337    2.9898    0.0000 H   0  0  0  0  0  0  0  0  0  0  0  0
   -4.2066    2.7827    0.0000 H   0  0  0  0  0  0  0  0  0  0  0  0
   -4.9454    2.0087    0.0000 H   0  0  0  0  0  0  0  0  0  0  0  0
   -4.1743    0.1323    0.0000 H   0  0  0  0  0  0  0  0  0  0  0  0
   -5.2140    0.3850    0.0000 H   0  0  0  0  0  0  0  0  0  0  0  0
   -5.5501    2.2847    0.0000 H   0  0  0  0  0  0  0  0  0  0  0  0
   -2.3041   -1.3497    0.0000 H   0  0  0  0  0  0  0  0  0  0  0  0
   -2.5928   -2.3800    0.0000 H   0  0  0  0  0  0  0  0  0  0  0  0
   -1.0308   -3.6746    0.0000 H   0  0  0  0  0  0  0  0  0  0  0  0
   -2.0675   -3.9397    0.0000 H   0  0  0  0  0  0  0  0  0  0  0  0
   -4.2428   -3.7586    0.0000 H   0  0  0  0  0  0  0  0  0  0  0  0
   -4.9907   -2.9935    0.0000 H   0  0  0  0  0  0  0  0  0  0  0  0
   -4.2421   -1.1080    0.0000 H   0  0  0  0  0  0  0  0  0  0  0  0
   -5.2788   -1.3732    0.0000 H   0  0  0  0  0  0  0  0  0  0  0  0
   -6.0082   -1.6492    0.0000 H   0  0  0  0  0  0  0  0  0  0  0  0
  1 29  1  0  0  0  0
  1 33  1  0  0  0  0
  1 25  1  0  0  0  0
  2  1  1  0  0  0  0
  2 59  1  0  0  0  0
  2 60  1  0  0  0  0
  2 61  1  0  0  0  0
  3  7  1  0  0  0  0
  4 10  1  0  0  0  0
  4  5  1  0  0  0  0
  5  6  2  0  0  0  0
  5 18  1  0  0  0  0
  6  3  1  0  0  0  0
  7  8  1  0  0  0  0
  7  4  2  0  0  0  0
  8  9  2  0  0  0  0
  8 62  1  0  0  0  0
  9 63  1  0  0  0  0
  9 64  1  0  0  0  0
 10 65  1  0  0  0  0
 10 66  1  0  0  0  0
 10 67  1  0  0  0  0
 11 16  1  0  0  0  0
 11 12  1  0  0  0  0
 12 13  1  0  0  0  0
 12 68  1  0  0  0  0
 13 17  1  0  0  0  0
 13 14  2  0  0  0  0
 14 15  1  0  0  0  0
 14 51  1  0  0  0  0
 15 11  2  0  0  0  0
 15 19  1  0  0  0  0
 16  3  2  0  0  0  0
 16 69  1  0  0  0  0
 17 20  2  0  0  0  0
 17 70  1  0  0  0  0
 18 71  1  0  0  0  0
 19 72  1  0  0  0  0
 19 73  1  0  0  0  0
 19 74  1  0  0  0  0
 20 21  1  0  0  0  0
 21 26  2  0  0  0  0
 22 18  2  0  0  0  0
 22 23  1  0  0  0  0
 22 29  1  0  0  0  0
 23 75  1  0  0  0  0
 24 25  2  0  0  0  0
 24 76  1  0  0  0  0
 25 23  1  0  0  0  0
 26 27  1  0  0  0  0
 26 24  1  0  0  0  0
 27 28  2  0  0  0  0
 27 42  1  0  0  0  0
 28 20  1  0  0  0  0
 28 43  1  0  0  0  0
 29 30  2  0  0  0  0
 30 31  1  0  0  0  0
 30 77  1  0  0  0  0
 31 32  2  0  0  0  0
 31 78  1  0  0  0  0
 32 33  1  0  0  0  0
 32 34  1  0  0  0  0
 33 38  1  0  0  0  0
 33 79  1  0  0  0  0
 34 35  1  0  0  0  0
 34 36  2  0  0  0  0
 35 37  1  0  0  0  0
 37 80  1  0  0  0  0
 37 81  1  0  0  0  0
 37 82  1  0  0  0  0
 38 39  2  0  0  0  0
 38 40  1  0  0  0  0
 40 41  1  0  0  0  0
 41 83  1  0  0  0  0
 41 84  1  0  0  0  0
 41 85  1  0  0  0  0
 42 86  1  0  0  0  0
 42 87  1  0  0  0  0
 42 88  1  0  0  0  0
 43 44  1  0  0  0  0
 43 89  1  0  0  0  0
 43 90  1  0  0  0  0
 44 45  1  0  0  0  0
 44 91  1  0  0  0  0
 44 92  1  0  0  0  0
 45 46  2  0  0  0  0
 45 47  1  0  0  0  0
 47 48  1  0  0  0  0
 48 49  1  0  0  0  0
 48 93  1  0  0  0  0
 48 94  1  0  0  0  0
 49 50  1  0  0  0  0
 49 95  1  0  0  0  0
 49 96  1  0  0  0  0
 50 97  1  0  0  0  0
 51 52  1  0  0  0  0
 51 98  1  0  0  0  0
 51 99  1  0  0  0  0
 52 53  1  0  0  0  0
 52100  1  0  0  0  0
 52101  1  0  0  0  0
 53 54  2  0  0  0  0
 53 55  1  0  0  0  0
 55 56  1  0  0  0  0
 56 57  1  0  0  0  0
 56102  1  0  0  0  0
 56103  1  0  0  0  0
 57 58  1  0  0  0  0
 57104  1  0  0  0  0
 57105  1  0  0  0  0
 58106  1  0  0  0  0
M  END
>  <DRUGBANK_ID>
DB04980

>  <COMMON_NAME>
Lemuteporfin

>  <CAS_NUMBER>
215808-49-4

>  <UNII>
EZ109VJ012

>  <SYNONYMS>
Lemuteporfin

$$$$
