
 OpenBabel10282417072D

 37 38  0  0  0  0  0  0  0  0999 V2000
    1.4820   -2.5753    0.0000 P   0  0  0  0  0  0  0  0  0  0  0  0
   -0.0532   -0.5420    0.0000 O   0  0  0  0  0  0  0  0  0  0  0  0
   -1.6180   -1.9941    0.0000 O   0  0  0  0  0  0  0  0  0  0  0  0
    0.9972   -1.9078    0.0000 O   0  0  0  0  0  0  0  0  0  0  0  0
   -2.1495    0.7678    0.0000 O   0  0  0  0  0  0  0  0  0  0  0  0
   -0.7206    3.2427    0.0000 O   0  0  0  0  0  0  0  0  0  0  0  0
    2.1495   -2.0904    0.0000 O   0  0  0  0  0  0  0  0  0  0  0  0
    1.9670   -3.2427    0.0000 O   0  0  0  0  0  0  0  0  0  0  0  0
    1.4226    2.0052    0.0000 O   0  0  0  0  0  0  0  0  0  0  0  0
    0.8146   -3.0602    0.0000 O   0  0  0  0  0  0  0  0  0  0  0  0
   -0.7206    0.7678    0.0000 N   0  0  0  0  0  0  0  0  0  0  0  0
   -1.4351    2.0052    0.0000 N   0  0  0  0  0  0  0  0  0  0  0  0
   -1.1331   -1.3267    0.0000 C   0  0  2  0  0  0  0  0  0  0  0  0
   -0.3081   -1.3267    0.0000 C   0  0  1  0  0  0  0  0  0  0  0  0
   -0.7206   -0.0571    0.0000 C   0  0  1  0  0  0  0  0  0  0  0  0
   -1.3881   -0.5420    0.0000 C   0  0  0  0  0  0  0  0  0  0  0  0
    0.1767   -1.9941    0.0000 C   0  0  0  0  0  0  0  0  0  0  0  0
   -0.0061    1.1803    0.0000 C   0  0  0  0  0  0  0  0  0  0  0  0
   -1.4351    1.1803    0.0000 C   0  0  0  0  0  0  0  0  0  0  0  0
   -0.0061    2.0052    0.0000 C   0  0  0  0  0  0  0  0  0  0  0  0
   -0.7206    2.4177    0.0000 C   0  0  0  0  0  0  0  0  0  0  0  0
    0.7082    2.4177    0.0000 C   0  0  0  0  0  0  0  0  0  0  0  0
   -1.8780    2.2610    0.0000 H   0  0  0  0  0  0  0  0  0  0  0  0
   -2.5827   -1.8927    0.0000 H   0  0  0  0  0  0  0  0  0  0  0  0
    3.0356   -2.4850    0.0000 H   0  0  0  0  0  0  0  0  0  0  0  0
    1.5726   -4.1289    0.0000 H   0  0  0  0  0  0  0  0  0  0  0  0
    1.4226    1.0352    0.0000 H   0  0  0  0  0  0  0  0  0  0  0  0
   -0.6473   -2.2801    0.0000 H   0  0  0  0  0  0  0  0  0  0  0  0
    0.7487   -1.1593    0.0000 H   0  0  0  0  0  0  0  0  0  0  0  0
    0.2328    0.4287    0.0000 H   0  0  0  0  0  0  0  0  0  0  0  0
   -2.4057   -0.2113    0.0000 H   0  0  0  0  0  0  0  0  0  0  0  0
   -1.5554    0.5148    0.0000 H   0  0  0  0  0  0  0  0  0  0  0  0
   -0.2585   -2.9716    0.0000 H   0  0  0  0  0  0  0  0  0  0  0  0
   -0.8874   -2.1059    0.0000 H   0  0  0  0  0  0  0  0  0  0  0  0
    0.8876    0.6643    0.0000 H   0  0  0  0  0  0  0  0  0  0  0  0
    0.7082    3.4877    0.0000 H   0  0  0  0  0  0  0  0  0  0  0  0
   -0.2185    2.9526    0.0000 H   0  0  0  0  0  0  0  0  0  0  0  0
  1  4  1  0  0  0  0
  1  7  1  0  0  0  0
  1  8  1  0  0  0  0
  1 10  2  0  0  0  0
  2 14  1  0  0  0  0
  2 15  1  0  0  0  0
  3 24  1  0  0  0  0
  4 17  1  0  0  0  0
  5 19  2  0  0  0  0
  6 21  2  0  0  0  0
  7 25  1  0  0  0  0
  8 26  1  0  0  0  0
  9 22  1  0  0  0  0
  9 27  1  0  0  0  0
 11 18  1  0  0  0  0
 11 19  1  0  0  0  0
 12 19  1  0  0  0  0
 12 21  1  0  0  0  0
 12 23  1  0  0  0  0
 13  3  1  0  0  0  0
 13 14  1  0  0  0  0
 13 16  1  0  0  0  0
 13 28  1  6  0  0  0
 14 17  1  0  0  0  0
 14 29  1  1  0  0  0
 15 11  1  0  0  0  0
 15 16  1  0  0  0  0
 15 30  1  1  0  0  0
 16 31  1  0  0  0  0
 16 32  1  0  0  0  0
 17 33  1  0  0  0  0
 17 34  1  0  0  0  0
 18 20  2  0  0  0  0
 18 35  1  0  0  0  0
 20 21  1  0  0  0  0
 20 22  1  0  0  0  0
 22 36  1  0  0  0  0
 22 37  1  0  0  0  0
M  END
>  <DRUGBANK_ID>
DB03846

>  <SECONDARY_ACCESSION_NUMBERS>
EXPT00248

>  <COMMON_NAME>
2'-deoxy-5-(hydroxymethyl)uridine 5'-(dihydrogen phosphate)

>  <SYNONYMS>
5-hydroxymethyluridine-2'-deoxy-5'-monophosphate

$$$$
