
 OpenBabel10282417072D

 90 96  0  0  0  0  0  0  0  0999 V2000
    0.7144   -0.4125    0.0000 C   0  0  1  0  0  0  0  0  0  0  0  0
    0.0000   -0.8250    0.0000 C   0  0  1  0  0  0  0  0  0  0  0  0
   -0.7145   -0.4125    0.0000 C   0  0  2  0  0  0  0  0  0  0  0  0
   -0.7145    0.4125    0.0000 C   0  0  1  0  0  0  0  0  0  0  0  0
    0.0000    0.8249    0.0000 C   0  0  2  0  0  0  0  0  0  0  0  0
    0.7144    0.4125    0.0000 C   0  0  1  0  0  0  0  0  0  0  0  0
    0.0000    1.6500    0.0000 O   0  0  0  0  0  0  0  0  0  0  0  0
    1.4289    0.8249    0.0000 O   0  0  0  0  0  0  0  0  0  0  0  0
    0.0000   -1.6500    0.0000 O   0  0  0  0  0  0  0  0  0  0  0  0
   -1.4289   -0.8250    0.0000 O   0  0  0  0  0  0  0  0  0  0  0  0
    1.4289   -0.8250    0.0000 O   0  0  0  0  0  0  0  0  0  0  0  0
   -1.4289    0.8249    0.0000 O   0  0  0  0  0  0  0  0  0  0  0  0
    1.4289    4.1251    0.0000 N   0  0  0  0  0  0  0  0  0  0  0  0
    1.4289    3.3000    0.0000 C   0  0  0  0  0  0  0  0  0  0  0  0
    0.7144    2.8875    0.0000 C   0  0  0  0  0  0  0  0  0  0  0  0
    0.0000    3.3000    0.0000 C   0  0  0  0  0  0  0  0  0  0  0  0
    0.0000    4.1251    0.0000 C   0  0  0  0  0  0  0  0  0  0  0  0
    0.7144    4.5376    0.0000 C   0  0  0  0  0  0  0  0  0  0  0  0
    0.7144    2.0625    0.0000 C   0  0  0  0  0  0  0  0  0  0  0  0
    1.4289    1.6500    0.0000 O   0  0  0  0  0  0  0  0  0  0  0  0
   -2.8579    3.3000    0.0000 N   0  0  0  0  0  0  0  0  0  0  0  0
   -2.1434    2.8875    0.0000 C   0  0  0  0  0  0  0  0  0  0  0  0
   -2.1434    2.0625    0.0000 C   0  0  0  0  0  0  0  0  0  0  0  0
   -2.8579    1.6500    0.0000 C   0  0  0  0  0  0  0  0  0  0  0  0
   -3.5724    2.0625    0.0000 C   0  0  0  0  0  0  0  0  0  0  0  0
   -3.5724    2.8875    0.0000 C   0  0  0  0  0  0  0  0  0  0  0  0
   -1.4289    1.6500    0.0000 C   0  0  0  0  0  0  0  0  0  0  0  0
   -0.7145    2.0625    0.0000 O   0  0  0  0  0  0  0  0  0  0  0  0
   -4.2869   -0.8250    0.0000 N   0  0  0  0  0  0  0  0  0  0  0  0
   -3.5724   -0.4125    0.0000 C   0  0  0  0  0  0  0  0  0  0  0  0
   -2.8579   -0.8250    0.0000 C   0  0  0  0  0  0  0  0  0  0  0  0
   -2.8579   -1.6500    0.0000 C   0  0  0  0  0  0  0  0  0  0  0  0
   -3.5724   -2.0625    0.0000 C   0  0  0  0  0  0  0  0  0  0  0  0
   -4.2869   -1.6500    0.0000 C   0  0  0  0  0  0  0  0  0  0  0  0
   -2.1434   -0.4125    0.0000 C   0  0  0  0  0  0  0  0  0  0  0  0
   -2.1434    0.4125    0.0000 O   0  0  0  0  0  0  0  0  0  0  0  0
   -1.4289   -4.1251    0.0000 N   0  0  0  0  0  0  0  0  0  0  0  0
   -1.4289   -3.3000    0.0000 C   0  0  0  0  0  0  0  0  0  0  0  0
   -0.7145   -2.8876    0.0000 C   0  0  0  0  0  0  0  0  0  0  0  0
    0.0000   -3.3000    0.0000 C   0  0  0  0  0  0  0  0  0  0  0  0
    0.0000   -4.1251    0.0000 C   0  0  0  0  0  0  0  0  0  0  0  0
   -0.7145   -4.5376    0.0000 C   0  0  0  0  0  0  0  0  0  0  0  0
   -0.7145   -2.0625    0.0000 C   0  0  0  0  0  0  0  0  0  0  0  0
   -1.4289   -1.6500    0.0000 O   0  0  0  0  0  0  0  0  0  0  0  0
    4.2869    0.8249    0.0000 N   0  0  0  0  0  0  0  0  0  0  0  0
    3.5724    0.4125    0.0000 C   0  0  0  0  0  0  0  0  0  0  0  0
    2.8579    0.8249    0.0000 C   0  0  0  0  0  0  0  0  0  0  0  0
    2.8579    1.6500    0.0000 C   0  0  0  0  0  0  0  0  0  0  0  0
    3.5724    2.0625    0.0000 C   0  0  0  0  0  0  0  0  0  0  0  0
    4.2869    1.6500    0.0000 C   0  0  0  0  0  0  0  0  0  0  0  0
    2.1434    0.4125    0.0000 C   0  0  0  0  0  0  0  0  0  0  0  0
    2.1434   -0.4125    0.0000 O   0  0  0  0  0  0  0  0  0  0  0  0
    2.8579   -3.3000    0.0000 N   0  0  0  0  0  0  0  0  0  0  0  0
    2.1434   -2.8876    0.0000 C   0  0  0  0  0  0  0  0  0  0  0  0
    2.1434   -2.0625    0.0000 C   0  0  0  0  0  0  0  0  0  0  0  0
    2.8579   -1.6500    0.0000 C   0  0  0  0  0  0  0  0  0  0  0  0
    3.5724   -2.0625    0.0000 C   0  0  0  0  0  0  0  0  0  0  0  0
    3.5724   -2.8876    0.0000 C   0  0  0  0  0  0  0  0  0  0  0  0
    1.4289   -1.6500    0.0000 C   0  0  0  0  0  0  0  0  0  0  0  0
    0.7144   -2.0625    0.0000 O   0  0  0  0  0  0  0  0  0  0  0  0
    0.7144   -1.4825    0.0000 H   0  0  0  0  0  0  0  0  0  0  0  0
    0.9267   -1.3600    0.0000 H   0  0  0  0  0  0  0  0  0  0  0  0
   -0.7145   -1.4825    0.0000 H   0  0  0  0  0  0  0  0  0  0  0  0
   -1.6411   -0.1225    0.0000 H   0  0  0  0  0  0  0  0  0  0  0  0
   -0.9266    1.3600    0.0000 H   0  0  0  0  0  0  0  0  0  0  0  0
    1.6410   -0.1226    0.0000 H   0  0  0  0  0  0  0  0  0  0  0  0
    2.3226    2.7840    0.0000 H   0  0  0  0  0  0  0  0  0  0  0  0
   -0.8937    2.7840    0.0000 H   0  0  0  0  0  0  0  0  0  0  0  0
   -0.8937    4.6411    0.0000 H   0  0  0  0  0  0  0  0  0  0  0  0
    0.7144    5.5696    0.0000 H   0  0  0  0  0  0  0  0  0  0  0  0
   -1.2497    3.4035    0.0000 H   0  0  0  0  0  0  0  0  0  0  0  0
   -2.8579    0.6180    0.0000 H   0  0  0  0  0  0  0  0  0  0  0  0
   -4.4661    1.5465    0.0000 H   0  0  0  0  0  0  0  0  0  0  0  0
   -4.4661    3.4035    0.0000 H   0  0  0  0  0  0  0  0  0  0  0  0
   -3.5724    0.6195    0.0000 H   0  0  0  0  0  0  0  0  0  0  0  0
   -1.9642   -2.1660    0.0000 H   0  0  0  0  0  0  0  0  0  0  0  0
   -3.5724   -3.0945    0.0000 H   0  0  0  0  0  0  0  0  0  0  0  0
   -5.1806   -2.1660    0.0000 H   0  0  0  0  0  0  0  0  0  0  0  0
   -2.3226   -2.7840    0.0000 H   0  0  0  0  0  0  0  0  0  0  0  0
    0.8937   -2.7839    0.0000 H   0  0  0  0  0  0  0  0  0  0  0  0
    0.8937   -4.6411    0.0000 H   0  0  0  0  0  0  0  0  0  0  0  0
   -0.7145   -5.5696    0.0000 H   0  0  0  0  0  0  0  0  0  0  0  0
    3.5724   -0.6195    0.0000 H   0  0  0  0  0  0  0  0  0  0  0  0
    1.9642    2.1660    0.0000 H   0  0  0  0  0  0  0  0  0  0  0  0
    3.5724    3.0945    0.0000 H   0  0  0  0  0  0  0  0  0  0  0  0
    5.1806    2.1660    0.0000 H   0  0  0  0  0  0  0  0  0  0  0  0
    1.2497   -3.4037    0.0000 H   0  0  0  0  0  0  0  0  0  0  0  0
    2.8579   -0.6180    0.0000 H   0  0  0  0  0  0  0  0  0  0  0  0
    4.4661   -1.5465    0.0000 H   0  0  0  0  0  0  0  0  0  0  0  0
    4.4661   -3.4037    0.0000 H   0  0  0  0  0  0  0  0  0  0  0  0
  1  2  1  0  0  0  0
  1  6  1  0  0  0  0
  1 11  1  0  0  0  0
  1 61  1  6  0  0  0
  2  3  1  0  0  0  0
  2  9  1  0  0  0  0
  2 62  1  1  0  0  0
  3  4  1  0  0  0  0
  3 10  1  0  0  0  0
  3 63  1  6  0  0  0
  4  5  1  0  0  0  0
  4 12  1  0  0  0  0
  4 64  1  1  0  0  0
  5  6  1  0  0  0  0
  5  7  1  0  0  0  0
  5 65  1  6  0  0  0
  6  8  1  0  0  0  0
  6 66  1  6  0  0  0
  8 51  1  0  0  0  0
 13 14  2  0  0  0  0
 13 18  1  0  0  0  0
 14 15  1  0  0  0  0
 14 67  1  0  0  0  0
 15 16  2  0  0  0  0
 15 19  1  0  0  0  0
 16 17  1  0  0  0  0
 16 68  1  0  0  0  0
 17 18  2  0  0  0  0
 17 69  1  0  0  0  0
 18 70  1  0  0  0  0
 19  7  1  0  0  0  0
 19 20  2  0  0  0  0
 21 22  2  0  0  0  0
 21 26  1  0  0  0  0
 22 23  1  0  0  0  0
 22 71  1  0  0  0  0
 23 24  2  0  0  0  0
 23 27  1  0  0  0  0
 24 25  1  0  0  0  0
 24 72  1  0  0  0  0
 25 26  2  0  0  0  0
 25 73  1  0  0  0  0
 26 74  1  0  0  0  0
 27 12  1  0  0  0  0
 27 28  2  0  0  0  0
 29 30  2  0  0  0  0
 29 34  1  0  0  0  0
 30 31  1  0  0  0  0
 30 75  1  0  0  0  0
 31 32  2  0  0  0  0
 31 35  1  0  0  0  0
 32 33  1  0  0  0  0
 32 76  1  0  0  0  0
 33 34  2  0  0  0  0
 33 77  1  0  0  0  0
 34 78  1  0  0  0  0
 35 10  1  0  0  0  0
 35 36  2  0  0  0  0
 37 38  2  0  0  0  0
 37 42  1  0  0  0  0
 38 39  1  0  0  0  0
 38 79  1  0  0  0  0
 39 40  2  0  0  0  0
 39 43  1  0  0  0  0
 40 41  1  0  0  0  0
 40 80  1  0  0  0  0
 41 42  2  0  0  0  0
 41 81  1  0  0  0  0
 42 82  1  0  0  0  0
 43  9  1  0  0  0  0
 43 44  2  0  0  0  0
 45 46  2  0  0  0  0
 45 50  1  0  0  0  0
 46 47  1  0  0  0  0
 46 83  1  0  0  0  0
 47 48  2  0  0  0  0
 47 51  1  0  0  0  0
 48 49  1  0  0  0  0
 48 84  1  0  0  0  0
 49 50  2  0  0  0  0
 49 85  1  0  0  0  0
 50 86  1  0  0  0  0
 51 52  2  0  0  0  0
 53 54  2  0  0  0  0
 53 58  1  0  0  0  0
 54 55  1  0  0  0  0
 54 87  1  0  0  0  0
 55 56  2  0  0  0  0
 55 59  1  0  0  0  0
 56 57  1  0  0  0  0
 56 88  1  0  0  0  0
 57 58  2  0  0  0  0
 57 89  1  0  0  0  0
 58 90  1  0  0  0  0
 59 11  1  0  0  0  0
 59 60  2  0  0  0  0
M  END
>  <DRUGBANK_ID>
DB08949

>  <COMMON_NAME>
Inositol nicotinate

>  <CAS_NUMBER>
6556-11-2

>  <UNII>
A99MK953KZ

>  <SYNONYMS>
hexanicotol; Inositol hexanicotinate; Inositol niacinate; Inositol nicotinate; mesoinositol hexanicotinate; myo-inositol hexanicotinate

$$$$
