
 OpenBabel10282417072D

 18 18  0  0  0  0  0  0  0  0999 V2000
    0.3572    1.0312    0.0000 C   0  0  0  0  0  0  0  0  0  0  0  0
    0.3572    1.8562    0.0000 S   0  0  0  0  0  0  0  0  0  0  0  0
   -0.3571    0.6187    0.0000 N   0  0  0  0  0  0  0  0  0  0  0  0
    1.0716    0.6187    0.0000 N   0  0  0  0  0  0  0  0  0  0  0  0
    0.3572   -1.4437    0.0000 C   0  0  0  0  0  0  0  0  0  0  0  0
   -0.3571   -1.8562    0.0000 C   0  0  0  0  0  0  0  0  0  0  0  0
   -1.0717   -1.4437    0.0000 C   0  0  0  0  0  0  0  0  0  0  0  0
   -1.0717   -0.6187    0.0000 C   0  0  0  0  0  0  0  0  0  0  0  0
   -0.3571   -0.2062    0.0000 C   0  0  0  0  0  0  0  0  0  0  0  0
    0.3572   -0.6187    0.0000 C   0  0  0  0  0  0  0  0  0  0  0  0
   -1.2097    1.1109    0.0000 H   0  0  0  0  0  0  0  0  0  0  0  0
    1.0716   -0.3658    0.0000 H   0  0  0  0  0  0  0  0  0  0  0  0
    1.9242    1.1109    0.0000 H   0  0  0  0  0  0  0  0  0  0  0  0
    1.2510   -1.9597    0.0000 H   0  0  0  0  0  0  0  0  0  0  0  0
   -0.3570   -2.8882    0.0000 H   0  0  0  0  0  0  0  0  0  0  0  0
   -1.9654   -1.9597    0.0000 H   0  0  0  0  0  0  0  0  0  0  0  0
   -1.9654   -0.1027    0.0000 H   0  0  0  0  0  0  0  0  0  0  0  0
    1.2510   -0.1027    0.0000 H   0  0  0  0  0  0  0  0  0  0  0  0
  2  1  2  0  0  0  0
  3  1  1  0  0  0  0
  3 11  1  0  0  0  0
  4  1  1  0  0  0  0
  4 12  1  0  0  0  0
  4 13  1  0  0  0  0
  5 14  1  0  0  0  0
  6  5  1  0  0  0  0
  6 15  1  0  0  0  0
  7  6  2  0  0  0  0
  7 16  1  0  0  0  0
  8  7  1  0  0  0  0
  8 17  1  0  0  0  0
  9  3  1  0  0  0  0
  9  8  2  0  0  0  0
 10  5  2  0  0  0  0
 10  9  1  0  0  0  0
 10 18  1  0  0  0  0
M  END
>  <DRUGBANK_ID>
DB03694

>  <SECONDARY_ACCESSION_NUMBERS>
EXPT03208

>  <COMMON_NAME>
N-phenylthiourea

>  <CAS_NUMBER>
103-85-5

>  <UNII>
6F82C6Q54C

>  <SYNONYMS>
1-phenyl-2-thiourea; monophenyl thiourea; phenyl-2-thiourea; phenylthiocarbamide; phenylthiourea; Î±-phenylthiourea

$$$$
