
 OpenBabel10282417072D

 85 87  0  0  0  0  0  0  0  0999 V2000
   -2.4891    1.1731    0.0000 O   0  0  0  0  0  0  0  0  0  0  0  0
   -3.2034    1.5855    0.0000 C   0  0  0  0  0  0  0  0  0  0  0  0
   -3.2034    2.4105    0.0000 O   0  0  0  0  0  0  0  0  0  0  0  0
   -3.9180    1.1731    0.0000 N   0  0  0  0  0  0  0  0  0  0  0  0
   -3.9180    0.3482    0.0000 C   0  0  0  0  0  0  0  0  0  0  0  0
   -4.6324   -0.0648    0.0000 C   0  0  0  0  0  0  0  0  0  0  0  0
   -5.3468    0.3482    0.0000 N   0  0  0  0  0  0  0  0  0  0  0  0
   -5.3468    1.1731    0.0000 C   0  0  0  0  0  0  0  0  0  0  0  0
   -4.6324    1.5855    0.0000 C   0  0  0  0  0  0  0  0  0  0  0  0
   -6.0651   -0.0648    0.0000 C   0  0  0  0  0  0  0  0  0  0  0  0
   -2.4891    0.3482    0.0000 C   0  0  1  0  0  0  0  0  0  0  0  0
   -1.6641    0.3482    0.0000 C   0  0  0  0  0  0  0  0  0  0  0  0
   -1.0809   -0.2366    0.0000 C   0  0  0  0  0  0  0  0  0  0  0  0
   -0.3666    0.1770    0.0000 C   0  0  2  0  0  0  0  0  0  0  0  0
   -0.3666    1.0020    0.0000 C   0  0  0  0  0  0  0  0  0  0  0  0
    0.3505   -0.2366    0.0000 C   0  0  1  0  0  0  0  0  0  0  0  0
    1.0640    0.1770    0.0000 C   0  0  0  0  0  0  0  0  0  0  0  0
    1.7796   -0.2366    0.0000 C   0  0  0  0  0  0  0  0  0  0  0  0
    2.4932    0.1770    0.0000 C   0  0  0  0  0  0  0  0  0  0  0  0
    3.2067   -0.2366    0.0000 C   0  0  0  0  0  0  0  0  0  0  0  0
    3.9223    0.1770    0.0000 C   0  0  1  0  0  0  0  0  0  0  0  0
    3.9223    1.0020    0.0000 C   0  0  0  0  0  0  0  0  0  0  0  0
    4.6359   -0.2366    0.0000 C   0  0  0  0  0  0  0  0  0  0  0  0
    5.3495    0.1770    0.0000 C   0  0  0  0  0  0  0  0  0  0  0  0
    6.0651   -0.2366    0.0000 C   0  0  0  0  0  0  0  0  0  0  0  0
    6.0651   -1.0615    0.0000 C   0  0  0  0  0  0  0  0  0  0  0  0
    5.3495   -1.4729    0.0000 C   0  0  0  0  0  0  0  0  0  0  0  0
    4.6359   -1.0615    0.0000 N   0  0  0  0  0  0  0  0  0  0  0  0
    1.0640    1.0020    0.0000 C   0  0  0  0  0  0  0  0  0  0  0  0
    0.3505   -1.0615    0.0000 O   0  0  0  0  0  0  0  0  0  0  0  0
   -0.3666   -1.4729    0.0000 C   0  0  0  0  0  0  0  0  0  0  0  0
   -1.0809   -1.0615    0.0000 C   0  0  0  0  0  0  0  0  0  0  0  0
   -1.6641   -1.6449    0.0000 C   0  0  1  0  0  0  0  0  0  0  0  0
   -2.4891   -1.6449    0.0000 C   0  0  0  0  0  0  0  0  0  0  0  0
   -3.0745   -1.0615    0.0000 C   0  0  0  0  0  0  0  0  0  0  0  0
   -3.0745   -0.2366    0.0000 C   0  0  2  0  0  0  0  0  0  0  0  0
   -3.4860    0.4780    0.0000 C   0  0  0  0  0  0  0  0  0  0  0  0
   -3.8707   -0.4496    0.0000 O   0  0  0  0  0  0  0  0  0  0  0  0
   -1.3552   -2.4105    0.0000 O   0  0  0  0  0  0  0  0  0  0  0  0
   -0.3666   -2.2979    0.0000 O   0  0  0  0  0  0  0  0  0  0  0  0
   -2.9912   -0.1865    0.0000 H   0  0  0  0  0  0  0  0  0  0  0  0
   -3.9175   -0.7218    0.0000 H   0  0  0  0  0  0  0  0  0  0  0  0
   -4.6324   -1.1348    0.0000 H   0  0  0  0  0  0  0  0  0  0  0  0
   -5.5592   -0.5995    0.0000 H   0  0  0  0  0  0  0  0  0  0  0  0
   -6.2734    1.7081    0.0000 H   0  0  0  0  0  0  0  0  0  0  0  0
   -5.3468    2.2431    0.0000 H   0  0  0  0  0  0  0  0  0  0  0  0
   -4.6324    2.6555    0.0000 H   0  0  0  0  0  0  0  0  0  0  0  0
   -5.5590    2.1205    0.0000 H   0  0  0  0  0  0  0  0  0  0  0  0
   -6.9908    0.4719    0.0000 H   0  0  0  0  0  0  0  0  0  0  0  0
   -6.0670   -1.1348    0.0000 H   0  0  0  0  0  0  0  0  0  0  0  0
   -6.9927   -0.5981    0.0000 H   0  0  0  0  0  0  0  0  0  0  0  0
   -1.7325    1.1048    0.0000 H   0  0  0  0  0  0  0  0  0  0  0  0
   -1.2685    1.3014    0.0000 H   0  0  0  0  0  0  0  0  0  0  0  0
   -1.2157   -1.2598    0.0000 H   0  0  0  0  0  0  0  0  0  0  0  0
   -1.2936    0.7114    0.0000 H   0  0  0  0  0  0  0  0  0  0  0  0
    0.5600    1.5370    0.0000 H   0  0  0  0  0  0  0  0  0  0  0  0
   -1.2932    1.5370    0.0000 H   0  0  0  0  0  0  0  0  0  0  0  0
   -0.3666    2.0720    0.0000 H   0  0  0  0  0  0  0  0  0  0  0  0
    0.3493    0.8334    0.0000 H   0  0  0  0  0  0  0  0  0  0  0  0
    1.7802   -1.2686    0.0000 H   0  0  0  0  0  0  0  0  0  0  0  0
    2.4932    1.2090    0.0000 H   0  0  0  0  0  0  0  0  0  0  0  0
    3.2060   -1.2686    0.0000 H   0  0  0  0  0  0  0  0  0  0  0  0
    2.9955    0.7118    0.0000 H   0  0  0  0  0  0  0  0  0  0  0  0
    4.8489    1.5370    0.0000 H   0  0  0  0  0  0  0  0  0  0  0  0
    2.9957    1.5370    0.0000 H   0  0  0  0  0  0  0  0  0  0  0  0
    3.9223    2.0720    0.0000 H   0  0  0  0  0  0  0  0  0  0  0  0
    5.3489    1.2090    0.0000 H   0  0  0  0  0  0  0  0  0  0  0  0
    6.9590    0.2792    0.0000 H   0  0  0  0  0  0  0  0  0  0  0  0
    6.9584   -1.5783    0.0000 H   0  0  0  0  0  0  0  0  0  0  0  0
    5.3489   -2.5049    0.0000 H   0  0  0  0  0  0  0  0  0  0  0  0
    1.9906    1.5370    0.0000 H   0  0  0  0  0  0  0  0  0  0  0  0
    0.1374    1.5370    0.0000 H   0  0  0  0  0  0  0  0  0  0  0  0
    1.0640    2.0720    0.0000 H   0  0  0  0  0  0  0  0  0  0  0  0
   -1.2212   -0.0007    0.0000 H   0  0  0  0  0  0  0  0  0  0  0  0
   -2.0942   -0.7180    0.0000 H   0  0  0  0  0  0  0  0  0  0  0  0
   -0.6156   -1.8584    0.0000 H   0  0  0  0  0  0  0  0  0  0  0  0
   -2.8977   -2.6338    0.0000 H   0  0  0  0  0  0  0  0  0  0  0  0
   -3.5383   -1.8550    0.0000 H   0  0  0  0  0  0  0  0  0  0  0  0
   -4.0627   -1.4718    0.0000 H   0  0  0  0  0  0  0  0  0  0  0  0
   -3.9644   -0.4674    0.0000 H   0  0  0  0  0  0  0  0  0  0  0  0
   -2.9500    1.4040    0.0000 H   0  0  0  0  0  0  0  0  0  0  0  0
   -4.5560    0.4792    0.0000 H   0  0  0  0  0  0  0  0  0  0  0  0
   -4.0200    1.4053    0.0000 H   0  0  0  0  0  0  0  0  0  0  0  0
   -4.5563    0.2366    0.0000 H   0  0  0  0  0  0  0  0  0  0  0  0
   -1.9528   -3.1746    0.0000 H   0  0  0  0  0  0  0  0  0  0  0  0
  2  1  1  0  0  0  0
  3  2  2  0  0  0  0
  4  2  1  0  0  0  0
  5  4  1  0  0  0  0
  5 41  1  0  0  0  0
  5 42  1  0  0  0  0
  6  5  1  0  0  0  0
  6 43  1  0  0  0  0
  6 44  1  0  0  0  0
  7  6  1  0  0  0  0
  8  7  1  0  0  0  0
  8 45  1  0  0  0  0
  8 46  1  0  0  0  0
  9  4  1  0  0  0  0
  9  8  1  0  0  0  0
  9 47  1  0  0  0  0
  9 48  1  0  0  0  0
 10  7  1  0  0  0  0
 10 49  1  0  0  0  0
 10 50  1  0  0  0  0
 10 51  1  0  0  0  0
 11  1  1  0  0  0  0
 11 52  1  6  0  0  0
 12 11  1  0  0  0  0
 12 53  1  0  0  0  0
 13 12  2  0  0  0  0
 13 54  1  0  0  0  0
 14 13  1  0  0  0  0
 14 15  1  0  0  0  0
 14 55  1  1  0  0  0
 15 56  1  0  0  0  0
 15 57  1  0  0  0  0
 15 58  1  0  0  0  0
 16 14  1  0  0  0  0
 16 17  1  0  0  0  0
 16 59  1  6  0  0  0
 18 17  2  0  0  0  0
 18 60  1  0  0  0  0
 19 18  1  0  0  0  0
 19 61  1  0  0  0  0
 20 19  2  0  0  0  0
 20 62  1  0  0  0  0
 21 20  1  0  0  0  0
 21 22  1  0  0  0  0
 21 63  1  6  0  0  0
 22 64  1  0  0  0  0
 22 65  1  0  0  0  0
 22 66  1  0  0  0  0
 23 21  1  0  0  0  0
 24 23  2  0  0  0  0
 24 67  1  0  0  0  0
 25 24  1  0  0  0  0
 25 68  1  0  0  0  0
 26 25  2  0  0  0  0
 26 69  1  0  0  0  0
 27 26  1  0  0  0  0
 27 70  1  0  0  0  0
 28 23  1  0  0  0  0
 28 27  2  0  0  0  0
 29 17  1  0  0  0  0
 29 71  1  0  0  0  0
 29 72  1  0  0  0  0
 29 73  1  0  0  0  0
 30 16  1  0  0  0  0
 31 30  1  0  0  0  0
 32 31  1  0  0  0  0
 32 74  1  0  0  0  0
 32 75  1  0  0  0  0
 33 32  1  0  0  0  0
 33 39  1  0  0  0  0
 33 76  1  1  0  0  0
 34 33  1  0  0  0  0
 34 77  1  0  0  0  0
 34 78  1  0  0  0  0
 35 34  1  0  0  0  0
 35 79  1  0  0  0  0
 35 80  1  0  0  0  0
 36 11  1  0  0  0  0
 36 35  1  0  0  0  0
 36 37  1  0  0  0  0
 36 38  1  1  0  0  0
 37 81  1  0  0  0  0
 37 82  1  0  0  0  0
 37 83  1  0  0  0  0
 38 84  1  0  0  0  0
 39 85  1  0  0  0  0
 40 31  2  0  0  0  0
M  END
>  <DRUGBANK_ID>
DB14017

>  <COMMON_NAME>
H3B-8800

>  <CAS_NUMBER>
1825302-42-8

>  <UNII>
90YLS47BRX

>  <SYNONYMS>
(2S,3S,4E,6S,7R,10R)-7,10-Dihydroxy-3,7-dimethyl-12-oxo-2-[(2E,4E,6R)-6-(2-pyridinyl)-2,4-heptadien-2-yl]oxacyclododec-4-en-6-yl 4-methyl-1-piperazinecarboxylate; (2S,3S,4E,6S,7R,10R)-7,10-Dihydroxy-3,7-Dimethyl-12-Oxo-2-[(2E,4E,6R)-6-(Pyridin-2-Yl)Hepta-2,4-Dien-2-Yl]Oxacyclododec-4-En-6-Yl 4-Methylpiperazine-1-Carboxylate; 1-PIPERAZINECARBOXYLIC ACID, 4-METHYL-, (2S,3S,4E,6S,7R,10R)-7,10-DIHYDROXY-3,7-DIMETHYL-2-((1E,3E,5R)-1-METHYL-5-(2-PYRIDINYL)-1,3-HEXADIEN-1-YL)-12-OXOOXACYCLODODEC-4-EN-6-YL ESTER

$$$$
