
 OpenBabel10282417072D

 57 59  0  0  0  0  0  0  0  0999 V2000
   -2.8738    0.8378    0.0000 Cl  0  0  0  0  0  0  0  0  0  0  0  0
    0.7727   -2.0967    0.0000 O   0  0  0  0  0  0  0  0  0  0  0  0
    2.9172   -1.6799    0.0000 N   0  0  0  0  0  0  0  0  0  0  0  0
   -2.1184   -0.4210    0.0000 C   0  0  0  0  0  0  0  0  0  0  0  0
   -1.4065   -0.8377    0.0000 C   0  0  0  0  0  0  0  0  0  0  0  0
   -2.1184    0.4210    0.0000 C   0  0  0  0  0  0  0  0  0  0  0  0
   -2.8304   -0.8377    0.0000 C   0  0  0  0  0  0  0  0  0  0  0  0
   -1.4065    0.8378    0.0000 C   0  0  0  0  0  0  0  0  0  0  0  0
   -0.6512   -0.4210    0.0000 C   0  0  0  0  0  0  0  0  0  0  0  0
   -1.4065   -1.6799    0.0000 C   0  0  0  0  0  0  0  0  0  0  0  0
   -3.6291   -0.4210    0.0000 C   0  0  0  0  0  0  0  0  0  0  0  0
   -2.8304   -1.6799    0.0000 C   0  0  0  0  0  0  0  0  0  0  0  0
    0.0607   -1.6799    0.0000 C   0  0  0  0  0  0  0  0  0  0  0  0
    0.0607   -0.8377    0.0000 C   0  0  0  0  0  0  0  0  0  0  0  0
   -0.6512   -2.0967    0.0000 C   0  0  0  0  0  0  0  0  0  0  0  0
   -0.6946    0.4645    0.0000 C   0  0  0  0  0  0  0  0  0  0  0  0
   -1.4065    1.6800    0.0000 C   0  0  0  0  0  0  0  0  0  0  0  0
   -4.3410   -0.8377    0.0000 C   0  0  0  0  0  0  0  0  0  0  0  0
   -3.6291   -2.0967    0.0000 C   0  0  0  0  0  0  0  0  0  0  0  0
    0.0173    0.8812    0.0000 C   0  0  0  0  0  0  0  0  0  0  0  0
   -0.6946    2.0967    0.0000 C   0  0  0  0  0  0  0  0  0  0  0  0
   -4.3410   -1.6799    0.0000 C   0  0  0  0  0  0  0  0  0  0  0  0
    0.0173    1.7233    0.0000 C   0  0  0  0  0  0  0  0  0  0  0  0
    1.4846   -1.6799    0.0000 C   0  0  0  0  0  0  0  0  0  0  0  0
    2.2053   -2.0967    0.0000 C   0  0  0  0  0  0  0  0  0  0  0  0
    3.6291   -2.0967    0.0000 C   0  0  0  0  0  0  0  0  0  0  0  0
    2.9172   -0.8377    0.0000 C   0  0  0  0  0  0  0  0  0  0  0  0
    4.3410   -1.6799    0.0000 C   0  0  0  0  0  0  0  0  0  0  0  0
    3.6291   -0.4210    0.0000 C   0  0  0  0  0  0  0  0  0  0  0  0
   -0.6381    0.6109    0.0000 H   0  0  0  0  0  0  0  0  0  0  0  0
   -2.2952   -2.2045    0.0000 H   0  0  0  0  0  0  0  0  0  0  0  0
   -3.6542    0.6107    0.0000 H   0  0  0  0  0  0  0  0  0  0  0  0
   -1.9479   -2.2148    0.0000 H   0  0  0  0  0  0  0  0  0  0  0  0
    0.9560   -0.3244    0.0000 H   0  0  0  0  0  0  0  0  0  0  0  0
   -0.6381   -3.1286    0.0000 H   0  0  0  0  0  0  0  0  0  0  0  0
   -0.6706   -0.5672    0.0000 H   0  0  0  0  0  0  0  0  0  0  0  0
   -2.3018    2.1933    0.0000 H   0  0  0  0  0  0  0  0  0  0  0  0
   -5.2363   -0.3244    0.0000 H   0  0  0  0  0  0  0  0  0  0  0  0
   -3.6542   -3.1284    0.0000 H   0  0  0  0  0  0  0  0  0  0  0  0
    0.9126    0.3679    0.0000 H   0  0  0  0  0  0  0  0  0  0  0  0
   -0.7186    3.1284    0.0000 H   0  0  0  0  0  0  0  0  0  0  0  0
   -5.2363   -2.1932    0.0000 H   0  0  0  0  0  0  0  0  0  0  0  0
    0.9004    2.2573    0.0000 H   0  0  0  0  0  0  0  0  0  0  0  0
    1.4817   -0.6099    0.0000 H   0  0  0  0  0  0  0  0  0  0  0  0
    2.4107   -1.1440    0.0000 H   0  0  0  0  0  0  0  0  0  0  0  0
    2.2082   -3.1667    0.0000 H   0  0  0  0  0  0  0  0  0  0  0  0
    1.2792   -2.6326    0.0000 H   0  0  0  0  0  0  0  0  0  0  0  0
    3.6291   -3.1667    0.0000 H   0  0  0  0  0  0  0  0  0  0  0  0
    4.5574   -2.6289    0.0000 H   0  0  0  0  0  0  0  0  0  0  0  0
    1.9890   -0.3055    0.0000 H   0  0  0  0  0  0  0  0  0  0  0  0
    2.9124    0.2323    0.0000 H   0  0  0  0  0  0  0  0  0  0  0  0
    5.2709   -2.2093    0.0000 H   0  0  0  0  0  0  0  0  0  0  0  0
    4.3345   -0.6099    0.0000 H   0  0  0  0  0  0  0  0  0  0  0  0
    5.2644   -1.1393    0.0000 H   0  0  0  0  0  0  0  0  0  0  0  0
    4.5589   -0.9505    0.0000 H   0  0  0  0  0  0  0  0  0  0  0  0
    3.6227    0.6490    0.0000 H   0  0  0  0  0  0  0  0  0  0  0  0
    4.5525    0.1195    0.0000 H   0  0  0  0  0  0  0  0  0  0  0  0
  1  6  1  0  0  0  0
  2 13  1  0  0  0  0
  2 24  1  0  0  0  0
  3 25  1  0  0  0  0
  3 26  1  0  0  0  0
  3 27  1  0  0  0  0
  4  5  1  0  0  0  0
  4  6  2  0  0  0  0
  4  7  1  0  0  0  0
  5  9  2  0  0  0  0
  5 10  1  0  0  0  0
  6  8  1  0  0  0  0
  7 11  2  0  0  0  0
  7 12  1  0  0  0  0
  8 16  2  0  0  0  0
  8 17  1  0  0  0  0
  9 14  1  0  0  0  0
  9 30  1  0  0  0  0
 10 15  2  0  0  0  0
 10 31  1  0  0  0  0
 11 18  1  0  0  0  0
 11 32  1  0  0  0  0
 12 19  2  0  0  0  0
 12 33  1  0  0  0  0
 13 14  2  0  0  0  0
 13 15  1  0  0  0  0
 14 34  1  0  0  0  0
 15 35  1  0  0  0  0
 16 20  1  0  0  0  0
 16 36  1  0  0  0  0
 17 21  2  0  0  0  0
 17 37  1  0  0  0  0
 18 22  2  0  0  0  0
 18 38  1  0  0  0  0
 19 22  1  0  0  0  0
 19 39  1  0  0  0  0
 20 23  2  0  0  0  0
 20 40  1  0  0  0  0
 21 23  1  0  0  0  0
 21 41  1  0  0  0  0
 22 42  1  0  0  0  0
 23 43  1  0  0  0  0
 24 25  1  0  0  0  0
 24 44  1  0  0  0  0
 24 45  1  0  0  0  0
 25 46  1  0  0  0  0
 25 47  1  0  0  0  0
 26 28  1  0  0  0  0
 26 48  1  0  0  0  0
 26 49  1  0  0  0  0
 27 29  1  0  0  0  0
 27 50  1  0  0  0  0
 27 51  1  0  0  0  0
 28 52  1  0  0  0  0
 28 53  1  0  0  0  0
 28 54  1  0  0  0  0
 29 55  1  0  0  0  0
 29 56  1  0  0  0  0
 29 57  1  0  0  0  0
M  END
>  <DRUGBANK_ID>
DB06735

>  <COMMON_NAME>
Enclomiphene

>  <CAS_NUMBER>
15690-57-0

>  <UNII>
R6D2UI4FLS

>  <SYNONYMS>
Enclomifene; Enclomifeno; Enclomifenum; Enclomiphene; trans-Clomifene; trans-Clomiphene

$$$$
