ST3
 OpenBabel10282417072D

 24 24  0  0  0  0  0  0  0  0999 V2000
    1.7530    0.8944    0.0000 C   0  0  0  0  0  0  0  0  0  0  0  0
    1.7530    1.7194    0.0000 O   0  0  0  0  0  0  0  0  0  0  0  0
    2.4674    0.4819    0.0000 O   0  0  0  0  0  0  0  0  0  0  0  0
    1.0385    0.4819    0.0000 C   0  0  0  0  0  0  0  0  0  0  0  0
    1.0385   -0.3431    0.0000 C   0  0  0  0  0  0  0  0  0  0  0  0
    0.3240   -0.7556    0.0000 C   0  0  0  0  0  0  0  0  0  0  0  0
    0.3240   -1.5806    0.0000 N   0  0  0  0  0  0  0  0  0  0  0  0
   -0.3905   -0.3431    0.0000 C   0  0  0  0  0  0  0  0  0  0  0  0
   -1.1049   -0.7556    0.0000 N   0  0  0  0  0  0  0  0  0  0  0  0
   -1.8194   -0.3431    0.0000 C   0  0  0  0  0  0  0  0  0  0  0  0
   -2.5339   -0.7556    0.0000 O   0  0  0  0  0  0  0  0  0  0  0  0
   -1.8194    0.4819    0.0000 C   0  0  0  0  0  0  0  0  0  0  0  0
   -0.3905    0.4819    0.0000 C   0  0  0  0  0  0  0  0  0  0  0  0
    0.3240    0.8944    0.0000 C   0  0  0  0  0  0  0  0  0  0  0  0
    2.4674   -0.4551    0.0000 H   0  0  0  0  0  0  0  0  0  0  0  0
    1.9322   -0.8591    0.0000 H   0  0  0  0  0  0  0  0  0  0  0  0
   -0.5286   -2.0729    0.0000 H   0  0  0  0  0  0  0  0  0  0  0  0
    1.1766   -2.0728    0.0000 H   0  0  0  0  0  0  0  0  0  0  0  0
   -1.1049   -1.7401    0.0000 H   0  0  0  0  0  0  0  0  0  0  0  0
   -0.8928    1.0169    0.0000 H   0  0  0  0  0  0  0  0  0  0  0  0
   -2.7460    1.0169    0.0000 H   0  0  0  0  0  0  0  0  0  0  0  0
   -1.8194    1.5519    0.0000 H   0  0  0  0  0  0  0  0  0  0  0  0
   -1.2842    0.9979    0.0000 H   0  0  0  0  0  0  0  0  0  0  0  0
    0.3240    1.9264    0.0000 H   0  0  0  0  0  0  0  0  0  0  0  0
  1  2  2  0  0  0  0
  1  3  1  0  0  0  0
  1  4  1  0  0  0  0
  3 15  1  0  0  0  0
  4  5  2  0  0  0  0
  4 14  1  0  0  0  0
  5  6  1  0  0  0  0
  5 16  1  0  0  0  0
  6  7  1  0  0  0  0
  6  8  2  0  0  0  0
  7 17  1  0  0  0  0
  7 18  1  0  0  0  0
  8  9  1  0  0  0  0
  8 13  1  0  0  0  0
  9 10  1  0  0  0  0
  9 19  1  0  0  0  0
 10 11  2  0  0  0  0
 10 12  1  0  0  0  0
 12 20  1  0  0  0  0
 12 21  1  0  0  0  0
 12 22  1  0  0  0  0
 13 14  2  0  0  0  0
 13 23  1  0  0  0  0
 14 24  1  0  0  0  0
M  END
>  <DRUGBANK_ID>
DB02268

>  <SECONDARY_ACCESSION_NUMBERS>
EXPT02960

>  <COMMON_NAME>
4-(Acetylamino)-3-Amino Benzoic Acid

$$$$
