
 OpenBabel10282417072D

 54 56  0  0  0  0  0  0  0  0999 V2000
   -0.7557    0.6468    0.0000 C   0  0  0  0  0  0  0  0  0  0  0  0
   -0.7557   -1.0033    0.0000 N   0  0  0  0  0  0  0  0  0  0  0  0
   -0.0412    0.2342    0.0000 C   0  0  0  0  0  0  0  0  0  0  0  0
   -1.4703    0.2342    0.0000 C   0  0  0  0  0  0  0  0  0  0  0  0
   -0.0412   -0.5908    0.0000 C   0  0  0  0  0  0  0  0  0  0  0  0
   -1.4703   -0.5908    0.0000 C   0  0  0  0  0  0  0  0  0  0  0  0
   -0.7573   -1.8191    0.0000 C   0  0  0  0  0  0  0  0  0  0  0  0
    2.1015   -0.9958    0.0000 C   0  0  0  0  0  0  0  0  0  0  0  0
    0.6718   -1.8200    0.0000 C   0  0  0  0  0  0  0  0  0  0  0  0
    2.8163   -0.5837    0.0000 N   0  0  0  0  0  0  0  0  0  0  0  0
   -0.0429   -2.2322    0.0000 C   0  0  0  0  0  0  0  0  0  0  0  0
    2.1010   -1.8209    0.0000 C   0  0  0  0  0  0  0  0  0  0  0  0
    1.3872   -0.5828    0.0000 C   0  0  0  0  0  0  0  0  0  0  0  0
    1.3861   -2.2331    0.0000 C   0  0  0  0  0  0  0  0  0  0  0  0
    0.6724   -0.9949    0.0000 C   0  0  0  0  0  0  0  0  0  0  0  0
   -0.0688    1.8365    0.0000 O   0  0  0  0  0  0  0  0  0  0  0  0
   -0.0688    1.0433    0.0000 C   0  0  0  0  0  0  0  0  0  0  0  0
   -1.4426    1.8365    0.0000 C   0  0  0  0  0  0  0  0  0  0  0  0
   -1.4426    1.0433    0.0000 C   0  0  0  0  0  0  0  0  0  0  0  0
   -2.1295    2.2331    0.0000 C   0  0  0  0  0  0  0  0  0  0  0  0
   -2.8163    1.8364    0.0000 C   0  0  0  0  0  0  0  0  0  0  0  0
   -2.1295    0.6468    0.0000 C   0  0  0  0  0  0  0  0  0  0  0  0
   -2.8163    1.0433    0.0000 C   0  0  0  0  0  0  0  0  0  0  0  0
    0.6180    0.6468    0.0000 O   0  0  0  0  0  0  0  0  0  0  0  0
    1.3049    1.0433    0.0000 C   0  0  0  0  0  0  0  0  0  0  0  0
    1.9917    0.6467    0.0000 C   0  0  0  0  0  0  0  0  0  0  0  0
    0.8855    0.7692    0.0000 H   0  0  0  0  0  0  0  0  0  0  0  0
    0.8854   -0.3008    0.0000 H   0  0  0  0  0  0  0  0  0  0  0  0
   -2.3970    0.7692    0.0000 H   0  0  0  0  0  0  0  0  0  0  0  0
   -2.3969   -0.3008    0.0000 H   0  0  0  0  0  0  0  0  0  0  0  0
    0.8854   -1.1258    0.0000 H   0  0  0  0  0  0  0  0  0  0  0  0
    0.8854   -0.0558    0.0000 H   0  0  0  0  0  0  0  0  0  0  0  0
   -2.3969   -1.1258    0.0000 H   0  0  0  0  0  0  0  0  0  0  0  0
   -2.3970   -0.0558    0.0000 H   0  0  0  0  0  0  0  0  0  0  0  0
   -1.6847   -2.3529    0.0000 H   0  0  0  0  0  0  0  0  0  0  0  0
   -0.7584   -2.8891    0.0000 H   0  0  0  0  0  0  0  0  0  0  0  0
    3.6686   -1.0765    0.0000 H   0  0  0  0  0  0  0  0  0  0  0  0
    2.8169    0.4008    0.0000 H   0  0  0  0  0  0  0  0  0  0  0  0
   -0.0435   -3.3022    0.0000 H   0  0  0  0  0  0  0  0  0  0  0  0
    0.8835   -2.7677    0.0000 H   0  0  0  0  0  0  0  0  0  0  0  0
    2.9944   -2.3374    0.0000 H   0  0  0  0  0  0  0  0  0  0  0  0
    1.3878    0.4492    0.0000 H   0  0  0  0  0  0  0  0  0  0  0  0
    1.3854   -3.2651    0.0000 H   0  0  0  0  0  0  0  0  0  0  0  0
   -0.2210   -0.4783    0.0000 H   0  0  0  0  0  0  0  0  0  0  0  0
   -0.5489    2.3525    0.0000 H   0  0  0  0  0  0  0  0  0  0  0  0
   -2.1296    3.2651    0.0000 H   0  0  0  0  0  0  0  0  0  0  0  0
   -3.7101    2.3523    0.0000 H   0  0  0  0  0  0  0  0  0  0  0  0
   -2.1295   -0.3852    0.0000 H   0  0  0  0  0  0  0  0  0  0  0  0
   -3.7100    0.5273    0.0000 H   0  0  0  0  0  0  0  0  0  0  0  0
    1.3050    2.1133    0.0000 H   0  0  0  0  0  0  0  0  0  0  0  0
    2.2316    1.5782    0.0000 H   0  0  0  0  0  0  0  0  0  0  0  0
    1.9916   -0.4233    0.0000 H   0  0  0  0  0  0  0  0  0  0  0  0
    2.9184    1.1816    0.0000 H   0  0  0  0  0  0  0  0  0  0  0  0
    2.9183    0.1116    0.0000 H   0  0  0  0  0  0  0  0  0  0  0  0
  1 17  1  0  0  0  0
  3  1  1  0  0  0  0
  3 27  1  0  0  0  0
  3 28  1  0  0  0  0
  4  1  1  0  0  0  0
  4 29  1  0  0  0  0
  4 30  1  0  0  0  0
  5  2  1  0  0  0  0
  5  3  1  0  0  0  0
  5 31  1  0  0  0  0
  5 32  1  0  0  0  0
  6  2  1  0  0  0  0
  6  4  1  0  0  0  0
  6 33  1  0  0  0  0
  6 34  1  0  0  0  0
  7  2  1  0  0  0  0
  7 35  1  0  0  0  0
  7 36  1  0  0  0  0
 10  8  1  0  0  0  0
 10 37  1  0  0  0  0
 10 38  1  0  0  0  0
 11  7  1  0  0  0  0
 11  9  1  0  0  0  0
 11 39  1  0  0  0  0
 11 40  1  0  0  0  0
 12  8  2  0  0  0  0
 12 41  1  0  0  0  0
 13  8  1  0  0  0  0
 13 42  1  0  0  0  0
 14  9  2  0  0  0  0
 14 12  1  0  0  0  0
 14 43  1  0  0  0  0
 15  9  1  0  0  0  0
 15 13  2  0  0  0  0
 15 44  1  0  0  0  0
 17 16  2  0  0  0  0
 17 24  1  0  0  0  0
 18 45  1  0  0  0  0
 19  1  1  0  0  0  0
 19 18  2  0  0  0  0
 20 18  1  0  0  0  0
 20 46  1  0  0  0  0
 21 20  2  0  0  0  0
 21 47  1  0  0  0  0
 22 19  1  0  0  0  0
 22 48  1  0  0  0  0
 23 21  1  0  0  0  0
 23 22  2  0  0  0  0
 23 49  1  0  0  0  0
 24 25  1  0  0  0  0
 25 26  1  0  0  0  0
 25 50  1  0  0  0  0
 25 51  1  0  0  0  0
 26 52  1  0  0  0  0
 26 53  1  0  0  0  0
 26 54  1  0  0  0  0
M  END
>  <DRUGBANK_ID>
DB00913

>  <SECONDARY_ACCESSION_NUMBERS>
APRD00741

>  <COMMON_NAME>
Anileridine

>  <CAS_NUMBER>
144-14-9

>  <UNII>
71Q1A3O279

>  <SYNONYMS>
1-[2-(4-aminophenyl)ethyl]-4-phenyl-4-piperidinecarboxlic acid ethyl ester; Anileridina; Anileridine; Anileridinum; ethyl 1-(2-(4-aminophenyl)ethyl)-4-phenyl-4-piperidinecarboxylate; ethyl 1-(4-aminophenethyl)-4-phenylisonipecotate; ethyl 1-(p-aminophenethyl)-4-phenylisonipecotate; N-(β-(p-aminophenyl)ethyl)-4-phenyl-4-carbethoxypiperidine; N-β-(p-aminophenyl)ethylnormeperidine

$$$$
