50U
 OpenBabel10282417072D

 60 62  0  0  0  0  0  0  0  0999 V2000
   -0.4151   -0.7886    0.0000 N   0  0  0  0  0  0  0  0  0  0  0  0
   -1.0825   -0.3037    0.0000 C   0  0  2  0  0  0  0  0  0  0  0  0
   -1.0825    0.5213    0.0000 C   0  0  0  0  0  0  0  0  0  0  0  0
   -0.3681    0.9338    0.0000 O   0  0  0  0  0  0  0  0  0  0  0  0
   -1.7970    0.9338    0.0000 N   0  0  0  0  0  0  0  0  0  0  0  0
   -1.7970    1.7588    0.0000 C   0  0  0  0  0  0  0  0  0  0  0  0
   -2.5115    2.1713    0.0000 C   0  0  0  0  0  0  0  0  0  0  0  0
   -3.2260    1.7588    0.0000 C   0  0  0  0  0  0  0  0  0  0  0  0
   -3.9404    2.1713    0.0000 C   0  0  0  0  0  0  0  0  0  0  0  0
   -3.9404    2.9963    0.0000 C   0  0  0  0  0  0  0  0  0  0  0  0
   -4.6549    3.4088    0.0000 C   0  0  0  0  0  0  0  0  0  0  0  0
   -4.6549    4.2338    0.0000 N   0  0  0  0  0  0  0  0  0  0  0  0
   -5.3694    2.9963    0.0000 N   0  0  0  0  0  0  0  0  0  0  0  0
   -3.2260    3.4088    0.0000 C   0  0  0  0  0  0  0  0  0  0  0  0
   -2.5115    2.9963    0.0000 C   0  0  0  0  0  0  0  0  0  0  0  0
   -1.7500   -0.7886    0.0000 C   0  0  0  0  0  0  0  0  0  0  0  0
   -1.4950   -1.5732    0.0000 C   0  0  0  0  0  0  0  0  0  0  0  0
   -0.6700   -1.5732    0.0000 C   0  0  0  0  0  0  0  0  0  0  0  0
    0.3695   -0.5337    0.0000 C   0  0  0  0  0  0  0  0  0  0  0  0
    0.9826   -1.0857    0.0000 C   0  0  0  0  0  0  0  0  0  0  0  0
    1.7672   -0.8308    0.0000 C   0  0  0  0  0  0  0  0  0  0  0  0
    2.3803   -1.3828    0.0000 C   0  0  0  0  0  0  0  0  0  0  0  0
    3.1650   -1.1279    0.0000 C   0  0  0  0  0  0  0  0  0  0  0  0
    3.7780   -1.6799    0.0000 C   0  0  0  0  0  0  0  0  0  0  0  0
    3.6065   -2.4869    0.0000 C   0  0  0  0  0  0  0  0  0  0  0  0
    2.8219   -2.7418    0.0000 C   0  0  0  0  0  0  0  0  0  0  0  0
    2.2088   -2.1898    0.0000 C   0  0  0  0  0  0  0  0  0  0  0  0
    0.5411    0.2733    0.0000 O   0  0  0  0  0  0  0  0  0  0  0  0
   -0.5623   -0.0386    0.0000 H   0  0  0  0  0  0  0  0  0  0  0  0
   -2.6496    0.4415    0.0000 H   0  0  0  0  0  0  0  0  0  0  0  0
   -0.8704    2.2938    0.0000 H   0  0  0  0  0  0  0  0  0  0  0  0
   -1.7970    2.8288    0.0000 H   0  0  0  0  0  0  0  0  0  0  0  0
   -3.2260    0.7268    0.0000 H   0  0  0  0  0  0  0  0  0  0  0  0
   -4.8341    1.6553    0.0000 H   0  0  0  0  0  0  0  0  0  0  0  0
   -3.8023    4.7260    0.0000 H   0  0  0  0  0  0  0  0  0  0  0  0
   -6.2220    3.4886    0.0000 H   0  0  0  0  0  0  0  0  0  0  0  0
   -5.3694    2.0118    0.0000 H   0  0  0  0  0  0  0  0  0  0  0  0
   -3.2260    4.4408    0.0000 H   0  0  0  0  0  0  0  0  0  0  0  0
   -1.6178    3.5123    0.0000 H   0  0  0  0  0  0  0  0  0  0  0  0
   -2.7676   -0.4580    0.0000 H   0  0  0  0  0  0  0  0  0  0  0  0
   -1.9174    0.2682    0.0000 H   0  0  0  0  0  0  0  0  0  0  0  0
   -2.1239   -2.4389    0.0000 H   0  0  0  0  0  0  0  0  0  0  0  0
   -1.0092   -2.5266    0.0000 H   0  0  0  0  0  0  0  0  0  0  0  0
   -0.0411   -2.4388    0.0000 H   0  0  0  0  0  0  0  0  0  0  0  0
    0.3868   -1.4058    0.0000 H   0  0  0  0  0  0  0  0  0  0  0  0
    0.7601   -2.1323    0.0000 H   0  0  0  0  0  0  0  0  0  0  0  0
    1.7778   -1.8017    0.0000 H   0  0  0  0  0  0  0  0  0  0  0  0
    1.9897    0.2158    0.0000 H   0  0  0  0  0  0  0  0  0  0  0  0
    2.7848   -0.5001    0.0000 H   0  0  0  0  0  0  0  0  0  0  0  0
    3.1755   -2.0988    0.0000 H   0  0  0  0  0  0  0  0  0  0  0  0
    3.3875   -0.0813    0.0000 H   0  0  0  0  0  0  0  0  0  0  0  0
    4.1826   -0.7973    0.0000 H   0  0  0  0  0  0  0  0  0  0  0  0
    4.7956   -1.3493    0.0000 H   0  0  0  0  0  0  0  0  0  0  0  0
    4.5732   -2.3959    0.0000 H   0  0  0  0  0  0  0  0  0  0  0  0
    4.4017   -3.2029    0.0000 H   0  0  0  0  0  0  0  0  0  0  0  0
    3.3840   -3.5335    0.0000 H   0  0  0  0  0  0  0  0  0  0  0  0
    2.5994   -3.7884    0.0000 H   0  0  0  0  0  0  0  0  0  0  0  0
    3.6171   -3.4578    0.0000 H   0  0  0  0  0  0  0  0  0  0  0  0
    1.1912   -2.5205    0.0000 H   0  0  0  0  0  0  0  0  0  0  0  0
    1.4136   -1.4739    0.0000 H   0  0  0  0  0  0  0  0  0  0  0  0
  1 19  1  0  0  0  0
  2  1  1  0  0  0  0
  2 29  1  6  0  0  0
  2  3  1  0  0  0  0
  3  4  2  0  0  0  0
  5  3  1  0  0  0  0
  5 30  1  0  0  0  0
  6  5  1  0  0  0  0
  6  7  1  0  0  0  0
  6 31  1  0  0  0  0
  6 32  1  0  0  0  0
  7  8  1  0  0  0  0
  8  9  2  0  0  0  0
  8 33  1  0  0  0  0
  9 34  1  0  0  0  0
 10  9  1  0  0  0  0
 10 11  1  0  0  0  0
 11 12  2  0  0  0  0
 12 35  1  0  0  0  0
 13 11  1  0  0  0  0
 13 36  1  0  0  0  0
 13 37  1  0  0  0  0
 14 10  2  0  0  0  0
 14 38  1  0  0  0  0
 15  7  2  0  0  0  0
 15 14  1  0  0  0  0
 15 39  1  0  0  0  0
 16 17  1  0  0  0  0
 16  2  1  0  0  0  0
 16 40  1  0  0  0  0
 16 41  1  0  0  0  0
 17 18  1  0  0  0  0
 17 42  1  0  0  0  0
 17 43  1  0  0  0  0
 18  1  1  0  0  0  0
 18 44  1  0  0  0  0
 18 45  1  0  0  0  0
 19 28  2  0  0  0  0
 19 20  1  0  0  0  0
 20 21  1  0  0  0  0
 20 46  1  0  0  0  0
 20 47  1  0  0  0  0
 21 48  1  0  0  0  0
 21 49  1  0  0  0  0
 22 21  1  0  0  0  0
 22 23  1  0  0  0  0
 22 50  1  0  0  0  0
 23 51  1  0  0  0  0
 23 52  1  0  0  0  0
 24 23  1  0  0  0  0
 24 53  1  0  0  0  0
 24 54  1  0  0  0  0
 25 24  1  0  0  0  0
 25 55  1  0  0  0  0
 25 56  1  0  0  0  0
 26 27  1  0  0  0  0
 26 25  1  0  0  0  0
 26 57  1  0  0  0  0
 26 58  1  0  0  0  0
 27 22  1  0  0  0  0
 27 59  1  0  0  0  0
 27 60  1  0  0  0  0
M  END
>  <DRUGBANK_ID>
DB07131

>  <COMMON_NAME>
(S)-N-(4-carbamimidoylbenzyl)-1-(3-cyclohexylpropanoyl)pyrrolidine-2-carboxamide

$$$$
