
 OpenBabel10282417072D

 51 53  0  0  0  0  0  0  0  0999 V2000
    0.7867   -1.0278    0.0000 O   0  0  0  0  0  0  0  0  0  0  0  0
    0.0741   -1.4392    0.0000 C   0  0  0  0  0  0  0  0  0  0  0  0
    0.0741   -2.2620    0.0000 C   0  0  0  0  0  0  0  0  0  0  0  0
    0.7883   -2.6799    0.0000 C   0  0  0  0  0  0  0  0  0  0  0  0
    1.5763   -2.4240    0.0000 O   0  0  0  0  0  0  0  0  0  0  0  0
    2.0634   -3.0942    0.0000 C   0  0  0  0  0  0  0  0  0  0  0  0
    1.5763   -3.7646    0.0000 C   0  0  0  0  0  0  0  0  0  0  0  0
    0.7883   -3.5085    0.0000 C   0  0  0  0  0  0  0  0  0  0  0  0
    0.0741   -3.9170    0.0000 C   0  0  0  0  0  0  0  0  0  0  0  0
    0.0741   -4.7398    0.0000 N   0  0  0  0  0  0  0  0  0  0  0  0
   -0.6399   -3.5075    0.0000 C   0  0  0  0  0  0  0  0  0  0  0  0
   -1.3519   -3.9199    0.0000 Cl  0  0  0  0  0  0  0  0  0  0  0  0
   -0.6399   -2.6799    0.0000 C   0  0  0  0  0  0  0  0  0  0  0  0
   -0.6383   -1.0278    0.0000 N   0  0  0  0  0  0  0  0  0  0  0  0
   -0.6383   -0.2051    0.0000 C   0  0  0  0  0  0  0  0  0  0  0  0
   -1.3520    0.2041    0.0000 C   0  0  0  0  0  0  0  0  0  0  0  0
   -1.3520    1.0311    0.0000 C   0  0  0  0  0  0  0  0  0  0  0  0
   -0.6383    1.4488    0.0000 N   0  0  0  0  0  0  0  0  0  0  0  0
   -0.6383    2.2715    0.0000 C   0  0  0  0  0  0  0  0  0  0  0  0
   -1.3508    2.6829    0.0000 C   0  0  0  0  0  0  0  0  0  0  0  0
   -1.3508    3.5056    0.0000 C   0  0  0  0  0  0  0  0  0  0  0  0
   -2.0634    3.9170    0.0000 O   0  0  0  0  0  0  0  0  0  0  0  0
   -2.0634    4.7398    0.0000 C   0  0  0  0  0  0  0  0  0  0  0  0
    0.0754    1.0311    0.0000 C   0  0  0  0  0  0  0  0  0  0  0  0
    0.0754    0.2041    0.0000 C   0  0  0  0  0  0  0  0  0  0  0  0
    3.1334   -3.0941    0.0000 H   0  0  0  0  0  0  0  0  0  0  0  0
    2.5492   -4.0476    0.0000 H   0  0  0  0  0  0  0  0  0  0  0  0
    1.9069   -4.7822    0.0000 H   0  0  0  0  0  0  0  0  0  0  0  0
    0.8196   -4.5212    0.0000 H   0  0  0  0  0  0  0  0  0  0  0  0
   -0.7785   -5.2321    0.0000 H   0  0  0  0  0  0  0  0  0  0  0  0
    0.9267   -5.2320    0.0000 H   0  0  0  0  0  0  0  0  0  0  0  0
   -1.5352   -2.1666    0.0000 H   0  0  0  0  0  0  0  0  0  0  0  0
   -1.4909   -1.5200    0.0000 H   0  0  0  0  0  0  0  0  0  0  0  0
   -0.6383    0.8649    0.0000 H   0  0  0  0  0  0  0  0  0  0  0  0
   -2.2778   -0.3323    0.0000 H   0  0  0  0  0  0  0  0  0  0  0  0
   -2.2790    0.7384    0.0000 H   0  0  0  0  0  0  0  0  0  0  0  0
   -2.2802    1.5634    0.0000 H   0  0  0  0  0  0  0  0  0  0  0  0
   -1.3567    2.1011    0.0000 H   0  0  0  0  0  0  0  0  0  0  0  0
    0.2884    2.8065    0.0000 H   0  0  0  0  0  0  0  0  0  0  0  0
   -0.6383    3.3415    0.0000 H   0  0  0  0  0  0  0  0  0  0  0  0
   -2.2775    2.1479    0.0000 H   0  0  0  0  0  0  0  0  0  0  0  0
   -2.2774    3.2179    0.0000 H   0  0  0  0  0  0  0  0  0  0  0  0
   -0.4242    4.0406    0.0000 H   0  0  0  0  0  0  0  0  0  0  0  0
   -1.3508    4.5756    0.0000 H   0  0  0  0  0  0  0  0  0  0  0  0
   -1.1368    5.2748    0.0000 H   0  0  0  0  0  0  0  0  0  0  0  0
   -2.9900    5.2748    0.0000 H   0  0  0  0  0  0  0  0  0  0  0  0
   -2.0634    5.8098    0.0000 H   0  0  0  0  0  0  0  0  0  0  0  0
    1.0036    1.5634    0.0000 H   0  0  0  0  0  0  0  0  0  0  0  0
    1.0013    0.4947    0.0000 H   0  0  0  0  0  0  0  0  0  0  0  0
    1.0012   -0.3323    0.0000 H   0  0  0  0  0  0  0  0  0  0  0  0
    1.0024    0.7384    0.0000 H   0  0  0  0  0  0  0  0  0  0  0  0
  1  2  2  0  0  0  0
  2  3  1  0  0  0  0
  2 14  1  0  0  0  0
  3  4  2  0  0  0  0
  3 13  1  0  0  0  0
  4  5  1  0  0  0  0
  4  8  1  0  0  0  0
  5  6  1  0  0  0  0
  6  7  1  0  0  0  0
  6 26  1  0  0  0  0
  6 27  1  0  0  0  0
  7  8  1  0  0  0  0
  7 28  1  0  0  0  0
  7 29  1  0  0  0  0
  8  9  2  0  0  0  0
  9 10  1  0  0  0  0
  9 11  1  0  0  0  0
 10 30  1  0  0  0  0
 10 31  1  0  0  0  0
 11 12  1  0  0  0  0
 11 13  2  0  0  0  0
 13 32  1  0  0  0  0
 14 15  1  0  0  0  0
 14 33  1  0  0  0  0
 15 16  1  0  0  0  0
 15 25  1  0  0  0  0
 15 34  1  0  0  0  0
 16 17  1  0  0  0  0
 16 35  1  0  0  0  0
 16 36  1  0  0  0  0
 17 18  1  0  0  0  0
 17 37  1  0  0  0  0
 17 38  1  0  0  0  0
 18 19  1  0  0  0  0
 18 24  1  0  0  0  0
 19 20  1  0  0  0  0
 19 39  1  0  0  0  0
 19 40  1  0  0  0  0
 20 21  1  0  0  0  0
 20 41  1  0  0  0  0
 20 42  1  0  0  0  0
 21 22  1  0  0  0  0
 21 43  1  0  0  0  0
 21 44  1  0  0  0  0
 22 23  1  0  0  0  0
 23 45  1  0  0  0  0
 23 46  1  0  0  0  0
 23 47  1  0  0  0  0
 24 25  1  0  0  0  0
 24 48  1  0  0  0  0
 24 49  1  0  0  0  0
 25 50  1  0  0  0  0
 25 51  1  0  0  0  0
M  END
>  <DRUGBANK_ID>
DB06480

>  <COMMON_NAME>
Prucalopride

>  <CAS_NUMBER>
179474-81-8

>  <UNII>
0A09IUW5TP

>  <SYNONYMS>
Prucaloprida; Prucalopride

$$$$
