
 OpenBabel10282417072D

 84 92  0  0  0  0  0  0  0  0999 V2000
    0.7291   -4.1107    0.0000 C   0  0  0  0  0  0  0  0  0  0  0  0
   -4.0997   -0.8133    0.0000 C   0  0  0  0  0  0  0  0  0  0  0  0
    4.0937    0.7648    0.0000 C   0  0  0  0  0  0  0  0  0  0  0  0
   -0.7103    4.1119    0.0000 C   0  0  0  0  0  0  0  0  0  0  0  0
    0.7277   -3.2857    0.0000 C   0  0  0  0  0  0  0  0  0  0  0  0
   -3.2749   -0.7926    0.0000 C   0  0  0  0  0  0  0  0  0  0  0  0
    3.2688    0.7518    0.0000 C   0  0  0  0  0  0  0  0  0  0  0  0
   -0.7101    3.2869    0.0000 C   0  0  0  0  0  0  0  0  0  0  0  0
    0.0153   -4.5244    0.0000 C   0  0  0  0  0  0  0  0  0  0  0  0
   -4.5300   -0.1095    0.0000 C   0  0  0  0  0  0  0  0  0  0  0  0
    4.5174    0.0570    0.0000 C   0  0  0  0  0  0  0  0  0  0  0  0
    0.0040    4.5246    0.0000 C   0  0  0  0  0  0  0  0  0  0  0  0
   -1.4819   -2.0624    0.0000 C   0  0  0  0  0  0  0  0  0  0  0  0
    1.5044   -2.0364    0.0000 C   0  0  0  0  0  0  0  0  0  0  0  0
   -2.0430   -1.5110    0.0000 C   0  0  0  0  0  0  0  0  0  0  0  0
    2.0558   -1.4752    0.0000 C   0  0  0  0  0  0  0  0  0  0  0  0
   -2.0393    1.4169    0.0000 C   0  0  0  0  0  0  0  0  0  0  0  0
    2.0297    1.5110    0.0000 C   0  0  0  0  0  0  0  0  0  0  0  0
   -1.4588    2.0076    0.0000 C   0  0  0  0  0  0  0  0  0  0  0  0
    1.4686    2.0624    0.0000 C   0  0  0  0  0  0  0  0  0  0  0  0
   -0.7012   -3.2881    0.0000 C   0  0  0  0  0  0  0  0  0  0  0  0
   -3.3109    0.6359    0.0000 C   0  0  0  0  0  0  0  0  0  0  0  0
    3.2913   -0.6769    0.0000 C   0  0  0  0  0  0  0  0  0  0  0  0
    0.7188    3.2873    0.0000 C   0  0  0  0  0  0  0  0  0  0  0  0
    0.0126   -2.8744    0.0000 C   0  0  0  0  0  0  0  0  0  0  0  0
   -2.8805   -0.0680    0.0000 C   0  0  0  0  0  0  0  0  0  0  0  0
    2.8676    0.0309    0.0000 C   0  0  0  0  0  0  0  0  0  0  0  0
    0.0045    2.8746    0.0000 C   0  0  0  0  0  0  0  0  0  0  0  0
   -0.6999   -4.1131    0.0000 C   0  0  0  0  0  0  0  0  0  0  0  0
   -4.1356    0.6152    0.0000 C   0  0  0  0  0  0  0  0  0  0  0  0
    4.1162   -0.6639    0.0000 C   0  0  0  0  0  0  0  0  0  0  0  0
    0.7186    4.1123    0.0000 C   0  0  0  0  0  0  0  0  0  0  0  0
   -0.7243   -1.6459    0.0000 C   0  0  0  0  0  0  0  0  0  0  0  0
    0.7106   -1.6627    0.0000 C   0  0  0  0  0  0  0  0  0  0  0  0
   -1.6690   -0.7465    0.0000 C   0  0  0  0  0  0  0  0  0  0  0  0
    1.6683   -0.6881    0.0000 C   0  0  0  0  0  0  0  0  0  0  0  0
   -1.6818    0.7174    0.0000 C   0  0  0  0  0  0  0  0  0  0  0  0
    1.6265    0.7462    0.0000 C   0  0  0  0  0  0  0  0  0  0  0  0
   -0.7239    1.6627    0.0000 C   0  0  0  0  0  0  0  0  0  0  0  0
    0.7107    1.6752    0.0000 C   0  0  0  0  0  0  0  0  0  0  0  0
    0.0112   -2.0494    0.0000 C   0  0  0  0  0  0  0  0  0  0  0  0
   -2.0558   -0.0472    0.0000 C   0  0  0  0  0  0  0  0  0  0  0  0
    2.0427    0.0179    0.0000 C   0  0  0  0  0  0  0  0  0  0  0  0
    0.0047    2.0496    0.0000 C   0  0  0  0  0  0  0  0  0  0  0  0
   -0.8480   -0.8857    0.0000 N   0  0  0  0  0  0  0  0  0  0  0  0
    0.8501   -0.8709    0.0000 N   0  0  0  0  0  0  0  0  0  0  0  0
   -0.8926    0.8706    0.0000 N   0  0  0  0  0  0  0  0  0  0  0  0
    0.8643    0.8567    0.0000 N   0  0  0  0  0  0  0  0  0  0  0  0
   -1.4137   -4.5268    0.0000 O   0  0  0  0  0  0  0  0  0  0  0  0
   -4.5660    1.3190    0.0000 O   0  0  0  0  0  0  0  0  0  0  0  0
    4.5399   -1.3718    0.0000 O   0  0  0  0  0  0  0  0  0  0  0  0
    1.4330    4.5250    0.0000 O   0  0  0  0  0  0  0  0  0  0  0  0
    1.6237   -4.6252    0.0000 H   0  0  0  0  0  0  0  0  0  0  0  0
   -4.5931   -1.7197    0.0000 H   0  0  0  0  0  0  0  0  0  0  0  0
    4.5955    1.6666    0.0000 H   0  0  0  0  0  0  0  0  0  0  0  0
   -1.6042    4.6277    0.0000 H   0  0  0  0  0  0  0  0  0  0  0  0
    1.6206   -2.7682    0.0000 H   0  0  0  0  0  0  0  0  0  0  0  0
   -2.7366   -1.6731    0.0000 H   0  0  0  0  0  0  0  0  0  0  0  0
    2.7388    1.6373    0.0000 H   0  0  0  0  0  0  0  0  0  0  0  0
   -1.6037    2.7707    0.0000 H   0  0  0  0  0  0  0  0  0  0  0  0
    0.0170   -5.5564    0.0000 H   0  0  0  0  0  0  0  0  0  0  0  0
   -5.5617   -0.1355    0.0000 H   0  0  0  0  0  0  0  0  0  0  0  0
    5.5493    0.0733    0.0000 H   0  0  0  0  0  0  0  0  0  0  0  0
    0.0037    5.5566    0.0000 H   0  0  0  0  0  0  0  0  0  0  0  0
   -1.6229   -3.0847    0.0000 H   0  0  0  0  0  0  0  0  0  0  0  0
    1.6862   -3.0523    0.0000 H   0  0  0  0  0  0  0  0  0  0  0  0
   -3.0602   -1.6852    0.0000 H   0  0  0  0  0  0  0  0  0  0  0  0
    3.0747   -1.6392    0.0000 H   0  0  0  0  0  0  0  0  0  0  0  0
   -3.0594    1.5733    0.0000 H   0  0  0  0  0  0  0  0  0  0  0  0
    3.0870    1.6756    0.0000 H   0  0  0  0  0  0  0  0  0  0  0  0
    2.6515    0.6402    0.0000 H   0  0  0  0  0  0  0  0  0  0  0  0
   -1.6412    3.0234    0.0000 H   0  0  0  0  0  0  0  0  0  0  0  0
    1.6308    3.1200    0.0000 H   0  0  0  0  0  0  0  0  0  0  0  0
    0.6011    2.6887    0.0000 H   0  0  0  0  0  0  0  0  0  0  0  0
   -1.5958   -2.7735    0.0000 H   0  0  0  0  0  0  0  0  0  0  0  0
   -2.8175    1.5423    0.0000 H   0  0  0  0  0  0  0  0  0  0  0  0
    2.7895   -1.5787    0.0000 H   0  0  0  0  0  0  0  0  0  0  0  0
    1.6127    2.7715    0.0000 H   0  0  0  0  0  0  0  0  0  0  0  0
    0.1383   -0.1907    0.0000 H   0  0  0  0  0  0  0  0  0  0  0  0
   -0.2028    0.1682    0.0000 H   0  0  0  0  0  0  0  0  0  0  0  0
   -2.2259   -4.0597    0.0000 H   0  0  0  0  0  0  0  0  0  0  0  0
   -4.1181    2.1420    0.0000 H   0  0  0  0  0  0  0  0  0  0  0  0
    4.0842   -2.1905    0.0000 H   0  0  0  0  0  0  0  0  0  0  0  0
    2.2446    4.0567    0.0000 H   0  0  0  0  0  0  0  0  0  0  0  0
  1 53  1  0  0  0  0
  2 54  1  0  0  0  0
  3 55  1  0  0  0  0
  4 56  1  0  0  0  0
  5  1  2  0  0  0  0
  5 57  1  0  0  0  0
  6  2  2  0  0  0  0
  6 58  1  0  0  0  0
  7  3  2  0  0  0  0
  7 59  1  0  0  0  0
  8  4  2  0  0  0  0
  8 60  1  0  0  0  0
  9  1  1  0  0  0  0
  9 61  1  0  0  0  0
 10  2  1  0  0  0  0
 10 62  1  0  0  0  0
 11  3  1  0  0  0  0
 11 63  1  0  0  0  0
 12  4  1  0  0  0  0
 12 64  1  0  0  0  0
 13 65  1  0  0  0  0
 14 66  1  0  0  0  0
 15 13  2  0  0  0  0
 15 67  1  0  0  0  0
 16 14  2  0  0  0  0
 16 68  1  0  0  0  0
 17 69  1  0  0  0  0
 18 70  1  0  0  0  0
 18 71  1  0  0  0  0
 19 17  1  0  0  0  0
 19 72  1  0  0  0  0
 20 18  1  0  0  0  0
 20 73  1  0  0  0  0
 20 74  1  0  0  0  0
 21 75  1  0  0  0  0
 22 76  1  0  0  0  0
 23 77  1  0  0  0  0
 24 78  1  0  0  0  0
 25  5  1  0  0  0  0
 25 21  2  0  0  0  0
 26  6  1  0  0  0  0
 26 22  2  0  0  0  0
 27  7  1  0  0  0  0
 27 23  2  0  0  0  0
 28  8  1  0  0  0  0
 28 24  2  0  0  0  0
 29  9  2  0  0  0  0
 29 21  1  0  0  0  0
 30 10  2  0  0  0  0
 30 22  1  0  0  0  0
 31 11  2  0  0  0  0
 31 23  1  0  0  0  0
 32 12  2  0  0  0  0
 32 24  1  0  0  0  0
 33 13  1  0  0  0  0
 34 14  1  0  0  0  0
 35 15  1  0  0  0  0
 36 16  1  0  0  0  0
 37 17  2  0  0  0  0
 38 18  1  0  0  0  0
 39 19  2  0  0  0  0
 40 20  1  0  0  0  0
 41 25  1  0  0  0  0
 41 33  1  0  0  0  0
 41 34  2  0  0  0  0
 42 26  1  0  0  0  0
 42 35  2  0  0  0  0
 42 37  1  0  0  0  0
 43 27  1  0  0  0  0
 43 36  2  0  0  0  0
 43 38  1  0  0  0  0
 44 28  1  0  0  0  0
 44 39  1  0  0  0  0
 44 40  2  0  0  0  0
 45 33  2  0  0  0  0
 45 35  1  0  0  0  0
 46 34  1  0  0  0  0
 46 36  1  0  0  0  0
 46 79  1  0  0  0  0
 47 37  1  0  0  0  0
 47 39  1  0  0  0  0
 47 80  1  0  0  0  0
 48 38  2  0  0  0  0
 48 40  1  0  0  0  0
 49 29  1  0  0  0  0
 49 81  1  0  0  0  0
 50 30  1  0  0  0  0
 50 82  1  0  0  0  0
 51 31  1  0  0  0  0
 51 83  1  0  0  0  0
 52 32  1  0  0  0  0
 52 84  1  0  0  0  0
M  END
>  <DRUGBANK_ID>
DB11630

>  <COMMON_NAME>
Temoporfin

>  <CAS_NUMBER>
122341-38-2

>  <UNII>
FU21S769PF

>  <SYNONYMS>
2,3-dihydro-5,10,15,20-tetra(m-hydroxyphenyl)porphyrin; m-THPC; meso-tetrahydroxyphenylchlorin; Temoporfin

$$$$
