HBO
 OpenBabel10282417072D

 24 25  0  0  0  0  0  0  0  0999 V2000
   -2.2551    0.6568    0.0000 O   0  0  0  0  0  0  0  0  0  0  0  0
   -1.5407   -0.5807    0.0000 C   0  0  0  0  0  0  0  0  0  0  0  0
   -0.8262   -0.9932    0.0000 N   0  0  0  0  0  0  0  0  0  0  0  0
   -0.1117   -0.5807    0.0000 C   0  0  0  0  0  0  0  0  0  0  0  0
   -0.1117    0.2443    0.0000 C   0  0  0  0  0  0  0  0  0  0  0  0
   -0.8262    0.6568    0.0000 O   0  0  0  0  0  0  0  0  0  0  0  0
   -1.5407    0.2443    0.0000 C   0  0  1  0  0  0  0  0  0  0  0  0
    0.6027   -0.9932    0.0000 C   0  0  0  0  0  0  0  0  0  0  0  0
    1.3172   -0.5807    0.0000 C   0  0  0  0  0  0  0  0  0  0  0  0
    0.6027    0.6568    0.0000 C   0  0  0  0  0  0  0  0  0  0  0  0
   -2.2551   -0.9932    0.0000 O   0  0  0  0  0  0  0  0  0  0  0  0
   -0.8262   -1.8182    0.0000 O   0  0  0  0  0  0  0  0  0  0  0  0
    1.3172    0.2443    0.0000 C   0  0  0  0  0  0  0  0  0  0  0  0
    2.0317    0.6568    0.0000 O   0  0  0  0  0  0  0  0  0  0  0  0
    2.0317    1.4818    0.0000 C   0  0  0  0  0  0  0  0  0  0  0  0
   -2.0464   -0.0477    0.0000 H   0  0  0  0  0  0  0  0  0  0  0  0
   -2.2551    1.6268    0.0000 H   0  0  0  0  0  0  0  0  0  0  0  0
    0.6027   -2.0252    0.0000 H   0  0  0  0  0  0  0  0  0  0  0  0
    2.2109   -1.0967    0.0000 H   0  0  0  0  0  0  0  0  0  0  0  0
    0.6027    1.6888    0.0000 H   0  0  0  0  0  0  0  0  0  0  0  0
   -1.6662   -2.3032    0.0000 H   0  0  0  0  0  0  0  0  0  0  0  0
    2.9583    2.0168    0.0000 H   0  0  0  0  0  0  0  0  0  0  0  0
    1.1051    2.0168    0.0000 H   0  0  0  0  0  0  0  0  0  0  0  0
    2.0317    2.5518    0.0000 H   0  0  0  0  0  0  0  0  0  0  0  0
  1 17  1  0  0  0  0
  2  3  1  0  0  0  0
  2  7  1  0  0  0  0
  2 11  2  0  0  0  0
  3  4  1  0  0  0  0
  3 12  1  0  0  0  0
  4  5  2  0  0  0  0
  4  8  1  0  0  0  0
  5  6  1  0  0  0  0
  5 10  1  0  0  0  0
  6  7  1  0  0  0  0
  7  1  1  0  0  0  0
  7 16  1  1  0  0  0
  8  9  2  0  0  0  0
  8 18  1  0  0  0  0
  9 13  1  0  0  0  0
  9 19  1  0  0  0  0
 10 13  2  0  0  0  0
 10 20  1  0  0  0  0
 12 21  1  0  0  0  0
 13 14  1  0  0  0  0
 14 15  1  0  0  0  0
 15 22  1  0  0  0  0
 15 23  1  0  0  0  0
 15 24  1  0  0  0  0
M  END
>  <DRUGBANK_ID>
DB02185

>  <SECONDARY_ACCESSION_NUMBERS>
EXPT01700

>  <COMMON_NAME>
2,4-Dihydroxy-7-(Methyloxy)-2h-1,4-Benzoxazin-3(4h)-One

$$$$
