1464
 OpenBabel10282417072D

 57 59  0  0  1  0  0  0  0  0999 V2000
    2.8876    2.8878    0.0000 O   0  0  0  0  0  0  0  0  0  0  0  0
    3.4106   -1.5393    0.0000 O   0  0  0  0  0  0  0  0  0  0  0  0
    3.3636   -3.2618    0.0000 O   0  0  0  0  0  0  0  0  0  0  0  0
    3.8558    3.7003    0.0000 O   0  0  0  0  0  0  0  0  0  0  0  0
    4.1251    0.5232    0.0000 N   0  0  0  0  0  0  0  0  0  0  0  0
    4.1251    2.1733    0.0000 C   0  0  3  0  0  0  0  0  0  0  0  0
    4.8396    1.7608    0.0000 C   0  0  0  0  0  0  0  0  0  0  0  0
    3.4106    1.7608    0.0000 C   0  0  0  0  0  0  0  0  0  0  0  0
    4.8396    0.9357    0.0000 C   0  0  0  0  0  0  0  0  0  0  0  0
    3.4106    0.9357    0.0000 C   0  0  0  0  0  0  0  0  0  0  0  0
    4.7571    2.7036    0.0000 C   0  0  0  0  0  0  0  0  0  0  0  0
    4.1251   -0.3018    0.0000 C   0  0  0  0  0  0  0  0  0  0  0  0
    3.7126    2.8878    0.0000 C   0  0  0  0  0  0  0  0  0  0  0  0
    3.4106   -0.7143    0.0000 C   0  0  0  0  0  0  0  0  0  0  0  0
    4.6138    3.5161    0.0000 C   0  0  0  0  0  0  0  0  0  0  0  0
    5.5323    2.4214    0.0000 C   0  0  0  0  0  0  0  0  0  0  0  0
    2.6961   -2.7768    0.0000 C   0  0  3  0  0  0  0  0  0  0  0  0
    2.0286   -3.2618    0.0000 C   0  0  0  0  0  0  0  0  0  0  0  0
    2.6961   -1.9518    0.0000 C   0  0  0  0  0  0  0  0  0  0  0  0
    2.2836   -4.0464    0.0000 C   0  0  0  0  0  0  0  0  0  0  0  0
    3.1086   -4.0464    0.0000 C   0  0  0  0  0  0  0  0  0  0  0  0
    5.2458    4.0464    0.0000 C   0  0  0  0  0  0  0  0  0  0  0  0
    6.1644    2.9517    0.0000 C   0  0  0  0  0  0  0  0  0  0  0  0
    6.0211    3.7642    0.0000 C   0  0  0  0  0  0  0  0  0  0  0  0
    2.4751    3.6023    0.0000 C   0  0  0  0  0  0  0  0  0  0  0  0
    1.6500    3.6023    0.0000 C   0  0  0  0  0  0  0  0  0  0  0  0
    5.7662    2.2958    0.0000 H   0  0  0  0  0  0  0  0  0  0  0  0
    5.7662    1.2258    0.0000 H   0  0  0  0  0  0  0  0  0  0  0  0
    2.4840    2.2958    0.0000 H   0  0  0  0  0  0  0  0  0  0  0  0
    2.4840    1.2258    0.0000 H   0  0  0  0  0  0  0  0  0  0  0  0
    5.7662    0.4007    0.0000 H   0  0  0  0  0  0  0  0  0  0  0  0
    5.7662    1.4707    0.0000 H   0  0  0  0  0  0  0  0  0  0  0  0
    2.4840    0.4007    0.0000 H   0  0  0  0  0  0  0  0  0  0  0  0
    2.4840    1.4707    0.0000 H   0  0  0  0  0  0  0  0  0  0  0  0
    5.0517   -0.8368    0.0000 H   0  0  0  0  0  0  0  0  0  0  0  0
    4.1251   -1.3718    0.0000 H   0  0  0  0  0  0  0  0  0  0  0  0
    2.4840   -0.1793    0.0000 H   0  0  0  0  0  0  0  0  0  0  0  0
    3.4106    0.3557    0.0000 H   0  0  0  0  0  0  0  0  0  0  0  0
    3.6440    3.8690    0.0000 H   0  0  0  0  0  0  0  0  0  0  0  0
    5.7114    1.4051    0.0000 H   0  0  0  0  0  0  0  0  0  0  0  0
    2.6961   -3.8468    0.0000 H   0  0  0  0  0  0  0  0  0  0  0  0
    1.0110   -2.9312    0.0000 H   0  0  0  0  0  0  0  0  0  0  0  0
    1.2720   -4.0185    0.0000 H   0  0  0  0  0  0  0  0  0  0  0  0
    1.7695   -1.4168    0.0000 H   0  0  0  0  0  0  0  0  0  0  0  0
    1.7695   -2.4868    0.0000 H   0  0  0  0  0  0  0  0  0  0  0  0
    1.6547   -4.9121    0.0000 H   0  0  0  0  0  0  0  0  0  0  0  0
    2.7694   -4.9998    0.0000 H   0  0  0  0  0  0  0  0  0  0  0  0
    3.7375   -4.9121    0.0000 H   0  0  0  0  0  0  0  0  0  0  0  0
    2.6228   -4.9998    0.0000 H   0  0  0  0  0  0  0  0  0  0  0  0
    5.0666    5.0627    0.0000 H   0  0  0  0  0  0  0  0  0  0  0  0
    7.1342    2.5987    0.0000 H   0  0  0  0  0  0  0  0  0  0  0  0
    6.8116    4.4276    0.0000 H   0  0  0  0  0  0  0  0  0  0  0  0
    3.0101    4.5289    0.0000 H   0  0  0  0  0  0  0  0  0  0  0  0
    1.9401    4.5289    0.0000 H   0  0  0  0  0  0  0  0  0  0  0  0
    1.1150    4.5289    0.0000 H   0  0  0  0  0  0  0  0  0  0  0  0
    1.1150    2.6757    0.0000 H   0  0  0  0  0  0  0  0  0  0  0  0
    0.5800    3.6023    0.0000 H   0  0  0  0  0  0  0  0  0  0  0  0
  1 13  1  0  0  0  0
  1 25  1  0  0  0  0
  2 14  1  0  0  0  0
  2 19  1  0  0  0  0
  3 17  1  0  0  0  0
  3 21  1  0  0  0  0
  4 13  2  0  0  0  0
  5  9  1  0  0  0  0
  5 10  1  0  0  0  0
  5 12  1  0  0  0  0
  6  7  1  0  0  0  0
  6  8  1  0  0  0  0
  6 11  1  0  0  0  0
  6 13  1  0  0  0  0
  7  9  1  0  0  0  0
  7 27  1  0  0  0  0
  7 28  1  0  0  0  0
  8 10  1  0  0  0  0
  8 29  1  0  0  0  0
  8 30  1  0  0  0  0
  9 31  1  0  0  0  0
  9 32  1  0  0  0  0
 10 33  1  0  0  0  0
 10 34  1  0  0  0  0
 11 15  2  0  0  0  0
 11 16  1  0  0  0  0
 12 14  1  0  0  0  0
 12 35  1  0  0  0  0
 12 36  1  0  0  0  0
 14 37  1  0  0  0  0
 14 38  1  0  0  0  0
 15 22  1  0  0  0  0
 15 39  1  0  0  0  0
 16 23  2  0  0  0  0
 16 40  1  0  0  0  0
 17 18  1  0  0  0  0
 17 19  1  0  0  0  0
 17 41  1  0  0  0  0
 18 20  1  0  0  0  0
 18 42  1  0  0  0  0
 18 43  1  0  0  0  0
 19 44  1  0  0  0  0
 19 45  1  0  0  0  0
 20 21  1  0  0  0  0
 20 46  1  0  0  0  0
 20 47  1  0  0  0  0
 21 48  1  0  0  0  0
 21 49  1  0  0  0  0
 22 24  2  0  0  0  0
 22 50  1  0  0  0  0
 23 24  1  0  0  0  0
 23 51  1  0  0  0  0
 24 52  1  0  0  0  0
 25 26  1  0  0  0  0
 25 53  1  0  0  0  0
 25 54  1  0  0  0  0
 26 55  1  0  0  0  0
 26 56  1  0  0  0  0
 26 57  1  0  0  0  0
M  END
>  <DRUGBANK_ID>
DB01464

>  <COMMON_NAME>
Furethidine

>  <CAS_NUMBER>
2385-81-1

>  <UNII>
6U9XA4JOD4

>  <SYNONYMS>
Furethidine

$$$$
