F1K
 OpenBabel10282417072D

 43 44  0  0  0  0  0  0  0  0999 V2000
    2.2401   -1.2374    0.0000 C   0  0  0  0  0  0  0  0  0  0  0  0
    2.9546   -1.6499    0.0000 C   0  0  0  0  0  0  0  0  0  0  0  0
    2.9546   -2.4749    0.0000 C   0  0  0  0  0  0  0  0  0  0  0  0
    1.5257   -2.4749    0.0000 C   0  0  0  0  0  0  0  0  0  0  0  0
   -3.4756    1.2376    0.0000 C   0  0  0  0  0  0  0  0  0  0  0  0
   -2.7612    0.8251    0.0000 C   0  0  0  0  0  0  0  0  0  0  0  0
   -2.0467    1.2376    0.0000 C   0  0  0  0  0  0  0  0  0  0  0  0
   -0.6177    1.2376    0.0000 C   0  0  0  0  0  0  0  0  0  0  0  0
    0.0967    0.0001    0.0000 C   0  0  0  0  0  0  0  0  0  0  0  0
    0.0967    0.8251    0.0000 C   0  0  2  0  0  0  0  0  0  0  0  0
    1.5257    0.0001    0.0000 C   0  0  0  0  0  0  0  0  0  0  0  0
    1.5257    0.8251    0.0000 C   0  0  0  0  0  0  0  0  0  0  0  0
    3.6691   -2.8874    0.0000 F   0  0  0  0  0  0  0  0  0  0  0  0
    2.2401   -2.8874    0.0000 C   0  0  0  0  0  0  0  0  0  0  0  0
    1.5257   -1.6499    0.0000 C   0  0  0  0  0  0  0  0  0  0  0  0
    0.8112   -1.2374    0.0000 C   0  0  0  0  0  0  0  0  0  0  0  0
    0.8112   -0.4124    0.0000 N   0  0  0  0  0  0  0  0  0  0  0  0
    0.8112    1.2376    0.0000 N   0  0  0  0  0  0  0  0  0  0  0  0
   -0.6177    2.0626    0.0000 O   0  0  0  0  0  0  0  0  0  0  0  0
   -1.3322    0.8251    0.0000 N   0  0  0  0  0  0  0  0  0  0  0  0
   -4.1901    0.8251    0.0000 S   0  0  0  0  0  0  0  0  0  0  0  0
   -0.4090    0.5331    0.0000 H   0  0  0  0  0  0  0  0  0  0  0  0
    2.2401   -0.2054    0.0000 H   0  0  0  0  0  0  0  0  0  0  0  0
    3.8483   -1.1339    0.0000 H   0  0  0  0  0  0  0  0  0  0  0  0
    0.6320   -2.9909    0.0000 H   0  0  0  0  0  0  0  0  0  0  0  0
   -3.4756    2.3076    0.0000 H   0  0  0  0  0  0  0  0  0  0  0  0
   -4.4022    1.7726    0.0000 H   0  0  0  0  0  0  0  0  0  0  0  0
   -2.7612   -0.2449    0.0000 H   0  0  0  0  0  0  0  0  0  0  0  0
   -1.8346    0.2901    0.0000 H   0  0  0  0  0  0  0  0  0  0  0  0
   -2.0467    2.3076    0.0000 H   0  0  0  0  0  0  0  0  0  0  0  0
   -1.1201    1.7726    0.0000 H   0  0  0  0  0  0  0  0  0  0  0  0
   -0.8299   -0.5349    0.0000 H   0  0  0  0  0  0  0  0  0  0  0  0
    0.0967   -1.0699    0.0000 H   0  0  0  0  0  0  0  0  0  0  0  0
    2.4523   -0.5349    0.0000 H   0  0  0  0  0  0  0  0  0  0  0  0
    1.5257   -1.0699    0.0000 H   0  0  0  0  0  0  0  0  0  0  0  0
    2.4523    1.3601    0.0000 H   0  0  0  0  0  0  0  0  0  0  0  0
    1.5257    1.8951    0.0000 H   0  0  0  0  0  0  0  0  0  0  0  0
    2.2401   -3.9194    0.0000 H   0  0  0  0  0  0  0  0  0  0  0  0
   -0.1154   -1.7724    0.0000 H   0  0  0  0  0  0  0  0  0  0  0  0
   -0.1154   -0.7024    0.0000 H   0  0  0  0  0  0  0  0  0  0  0  0
    0.8112    2.2576    0.0000 H   0  0  0  0  0  0  0  0  0  0  0  0
   -1.3322   -0.1594    0.0000 H   0  0  0  0  0  0  0  0  0  0  0  0
   -5.3679    1.5051    0.0000 H   0  0  0  0  0  0  0  0  0  0  0  0
  1  2  2  0  0  0  0
  1 15  1  0  0  0  0
  1 23  1  0  0  0  0
  2  3  1  0  0  0  0
  2 24  1  0  0  0  0
  3 13  1  0  0  0  0
  3 14  2  0  0  0  0
  4 14  1  0  0  0  0
  4 15  2  0  0  0  0
  4 25  1  0  0  0  0
  5  6  1  0  0  0  0
  5 21  1  0  0  0  0
  5 26  1  0  0  0  0
  5 27  1  0  0  0  0
  6  7  1  0  0  0  0
  6 28  1  0  0  0  0
  6 29  1  0  0  0  0
  7 20  1  0  0  0  0
  7 30  1  0  0  0  0
  7 31  1  0  0  0  0
  8 19  2  0  0  0  0
  8 20  1  0  0  0  0
  9 10  1  0  0  0  0
  9 17  1  0  0  0  0
  9 32  1  0  0  0  0
  9 33  1  0  0  0  0
 10  8  1  0  0  0  0
 10 18  1  0  0  0  0
 10 22  1  6  0  0  0
 11 12  1  0  0  0  0
 11 17  1  0  0  0  0
 11 34  1  0  0  0  0
 11 35  1  0  0  0  0
 12 18  1  0  0  0  0
 12 36  1  0  0  0  0
 12 37  1  0  0  0  0
 14 38  1  0  0  0  0
 15 16  1  0  0  0  0
 16 17  1  0  0  0  0
 16 39  1  0  0  0  0
 16 40  1  0  0  0  0
 18 41  1  0  0  0  0
 20 42  1  0  0  0  0
 21 43  1  0  0  0  0
M  END
>  <DRUGBANK_ID>
DB07737

>  <COMMON_NAME>
(2S)-4-(4-fluorobenzyl)-N-(3-sulfanylpropyl)piperazine-2-carboxamide

$$$$
