332
 OpenBabel10282417072D

 42 45  0  0  0  0  0  0  0  0999 V2000
   -0.8590   -1.1322    0.0000 C   0  0  0  0  0  0  0  0  0  0  0  0
   -1.4638   -1.6933    0.0000 O   0  0  0  0  0  0  0  0  0  0  0  0
   -2.2796   -1.5704    0.0000 C   0  0  0  0  0  0  0  0  0  0  0  0
   -2.6921   -0.8559    0.0000 C   0  0  0  0  0  0  0  0  0  0  0  0
   -2.3907   -0.0879    0.0000 C   0  0  0  0  0  0  0  0  0  0  0  0
   -2.9518    0.5169    0.0000 N   0  0  0  0  0  0  0  0  0  0  0  0
   -1.6023    0.1553    0.0000 N   0  0  0  0  0  0  0  0  0  0  0  0
   -0.2062    0.1030    0.0000 C   0  0  0  0  0  0  0  0  0  0  0  0
   -0.9207   -0.3095    0.0000 C   0  0  2  0  0  0  0  0  0  0  0  0
    0.5082   -0.3095    0.0000 O   0  0  0  0  0  0  0  0  0  0  0  0
    1.2227    0.1030    0.0000 C   0  0  0  0  0  0  0  0  0  0  0  0
    1.2227    0.9280    0.0000 C   0  0  0  0  0  0  0  0  0  0  0  0
    1.9372    1.3405    0.0000 C   0  0  0  0  0  0  0  0  0  0  0  0
    2.6517    0.9280    0.0000 C   0  0  0  0  0  0  0  0  0  0  0  0
    3.3661    1.3405    0.0000 C   0  0  0  0  0  0  0  0  0  0  0  0
    4.0806    0.9280    0.0000 C   0  0  0  0  0  0  0  0  0  0  0  0
    4.0806    0.1030    0.0000 N   0  0  0  0  0  0  0  0  0  0  0  0
    3.3661   -0.3095    0.0000 C   0  0  0  0  0  0  0  0  0  0  0  0
    2.6517    0.1030    0.0000 C   0  0  0  0  0  0  0  0  0  0  0  0
    1.9372   -0.3095    0.0000 C   0  0  0  0  0  0  0  0  0  0  0  0
   -3.4991   -1.0274    0.0000 S   0  0  0  0  0  0  0  0  0  0  0  0
   -3.5853   -1.8479    0.0000 C   0  0  0  0  0  0  0  0  0  0  0  0
   -2.8316   -2.1835    0.0000 C   0  0  0  0  0  0  0  0  0  0  0  0
   -0.4044   -0.5823    0.0000 H   0  0  0  0  0  0  0  0  0  0  0  0
    0.1370   -1.5231    0.0000 H   0  0  0  0  0  0  0  0  0  0  0  0
    0.0019   -0.4968    0.0000 H   0  0  0  0  0  0  0  0  0  0  0  0
   -2.6616    1.4576    0.0000 H   0  0  0  0  0  0  0  0  0  0  0  0
   -3.9116    0.2979    0.0000 H   0  0  0  0  0  0  0  0  0  0  0  0
   -0.2062    1.1730    0.0000 H   0  0  0  0  0  0  0  0  0  0  0  0
    0.7205    0.6380    0.0000 H   0  0  0  0  0  0  0  0  0  0  0  0
    0.3290    1.4440    0.0000 H   0  0  0  0  0  0  0  0  0  0  0  0
    1.9372    2.3725    0.0000 H   0  0  0  0  0  0  0  0  0  0  0  0
    3.3661    2.4105    0.0000 H   0  0  0  0  0  0  0  0  0  0  0  0
    4.2927    1.8755    0.0000 H   0  0  0  0  0  0  0  0  0  0  0  0
    5.0072    1.4630    0.0000 H   0  0  0  0  0  0  0  0  0  0  0  0
    5.0072    0.3930    0.0000 H   0  0  0  0  0  0  0  0  0  0  0  0
    4.9639   -0.4070    0.0000 H   0  0  0  0  0  0  0  0  0  0  0  0
    3.3661   -1.3795    0.0000 H   0  0  0  0  0  0  0  0  0  0  0  0
    2.4394   -0.8445    0.0000 H   0  0  0  0  0  0  0  0  0  0  0  0
    1.9372   -1.3415    0.0000 H   0  0  0  0  0  0  0  0  0  0  0  0
   -4.4790   -2.3639    0.0000 H   0  0  0  0  0  0  0  0  0  0  0  0
   -2.6170   -3.1929    0.0000 H   0  0  0  0  0  0  0  0  0  0  0  0
  1  2  1  0  0  0  0
  1  9  1  0  0  0  0
  1 25  1  0  0  0  0
  1 26  1  0  0  0  0
  2  3  1  0  0  0  0
  3  4  2  0  0  0  0
  3 23  1  0  0  0  0
  4  5  1  0  0  0  0
  4 21  1  0  0  0  0
  5  6  1  0  0  0  0
  5  7  2  0  0  0  0
  6 27  1  0  0  0  0
  6 28  1  0  0  0  0
  7  9  1  0  0  0  0
  8 10  1  0  0  0  0
  8 29  1  0  0  0  0
  8 30  1  0  0  0  0
  9  8  1  0  0  0  0
  9 24  1  1  0  0  0
 10 11  1  0  0  0  0
 11 12  2  0  0  0  0
 11 20  1  0  0  0  0
 12 13  1  0  0  0  0
 12 31  1  0  0  0  0
 13 14  2  0  0  0  0
 13 32  1  0  0  0  0
 14 15  1  0  0  0  0
 14 19  1  0  0  0  0
 15 16  1  0  0  0  0
 15 33  1  0  0  0  0
 15 34  1  0  0  0  0
 16 17  1  0  0  0  0
 16 35  1  0  0  0  0
 16 36  1  0  0  0  0
 17 18  1  0  0  0  0
 17 37  1  0  0  0  0
 18 19  1  0  0  0  0
 18 38  1  0  0  0  0
 18 39  1  0  0  0  0
 19 20  2  0  0  0  0
 20 40  1  0  0  0  0
 21 22  1  0  0  0  0
 22 23  2  0  0  0  0
 22 41  1  0  0  0  0
 23 42  1  0  0  0  0
M  END
>  <DRUGBANK_ID>
DB07007

>  <COMMON_NAME>
(3R)-3-[(1,2,3,4-tetrahydroisoquinolin-7-yloxy)methyl]-2,3-dihydrothieno[2,3-f][1,4]oxazepin-5-amine

$$$$
