
 OpenBabel10282417072D

 72 73  0  0  0  0  0  0  0  0999 V2000
    2.5006    0.2062    0.0000 C   0  0  0  0  0  0  0  0  0  0  0  0
    2.5006    1.0312    0.0000 C   0  0  0  0  0  0  0  0  0  0  0  0
    1.7862    1.4438    0.0000 C   0  0  0  0  0  0  0  0  0  0  0  0
    1.0717    1.0312    0.0000 N   0  0  0  0  0  0  0  0  0  0  0  0
    0.3571    1.4438    0.0000 C   0  0  0  0  0  0  0  0  0  0  0  0
    0.3571    2.2688    0.0000 C   0  0  0  0  0  0  0  0  0  0  0  0
   -0.3572    1.0312    0.0000 C   0  0  0  0  0  0  0  0  0  0  0  0
   -1.0717    1.4438    0.0000 C   0  0  0  0  0  0  0  0  0  0  0  0
   -1.7863    1.0312    0.0000 C   0  0  0  0  0  0  0  0  0  0  0  0
   -2.5007    1.4438    0.0000 O   0  0  0  0  0  0  0  0  0  0  0  0
   -0.3572    0.2062    0.0000 S   0  0  0  0  0  0  0  0  0  0  0  0
    0.3571   -0.2062    0.0000 S   0  0  0  0  0  0  0  0  0  0  0  0
    0.3571   -1.0312    0.0000 C   0  0  0  0  0  0  0  0  0  0  0  0
   -0.3572   -1.4437    0.0000 C   0  0  0  0  0  0  0  0  0  0  0  0
   -1.0717   -1.0312    0.0000 N   0  0  0  0  0  0  0  0  0  0  0  0
   -1.7863   -1.4437    0.0000 C   0  0  0  0  0  0  0  0  0  0  0  0
   -2.5007   -1.0312    0.0000 C   0  0  0  0  0  0  0  0  0  0  0  0
   -3.2151   -1.4437    0.0000 C   0  0  0  0  0  0  0  0  0  0  0  0
   -3.9297   -1.0312    0.0000 N   0  0  0  0  0  0  0  0  0  0  0  0
   -3.9297   -0.2062    0.0000 C   0  0  0  0  0  0  0  0  0  0  0  0
   -3.2152    0.2062    0.0000 N   0  0  0  0  0  0  0  0  0  0  0  0
   -2.5007   -0.2062    0.0000 C   0  0  0  0  0  0  0  0  0  0  0  0
   -4.6441    0.2062    0.0000 C   0  0  0  0  0  0  0  0  0  0  0  0
   -3.2151   -2.2688    0.0000 N   0  0  0  0  0  0  0  0  0  0  0  0
   -1.0717   -0.2062    0.0000 C   0  0  0  0  0  0  0  0  0  0  0  0
   -1.7863    0.2062    0.0000 O   0  0  0  0  0  0  0  0  0  0  0  0
   -0.3572   -2.2687    0.0000 C   0  0  0  0  0  0  0  0  0  0  0  0
    1.0717   -1.4437    0.0000 C   0  0  0  0  0  0  0  0  0  0  0  0
    1.7862   -1.0312    0.0000 C   0  0  0  0  0  0  0  0  0  0  0  0
    2.5006   -1.4437    0.0000 O   0  0  0  0  0  0  0  0  0  0  0  0
    1.0717    0.2062    0.0000 C   0  0  0  0  0  0  0  0  0  0  0  0
    1.7862   -0.2062    0.0000 O   0  0  0  0  0  0  0  0  0  0  0  0
    3.2151    1.4438    0.0000 C   0  0  0  0  0  0  0  0  0  0  0  0
    3.2151    2.2688    0.0000 N   0  0  0  0  0  0  0  0  0  0  0  0
    3.9296    1.0312    0.0000 N   0  0  0  0  0  0  0  0  0  0  0  0
    3.9296    0.2062    0.0000 C   0  0  0  0  0  0  0  0  0  0  0  0
    4.6441   -0.2062    0.0000 C   0  0  0  0  0  0  0  0  0  0  0  0
    3.2151   -0.2062    0.0000 N   0  0  0  0  0  0  0  0  0  0  0  0
    1.6069   -0.3099    0.0000 H   0  0  0  0  0  0  0  0  0  0  0  0
    1.7862    2.5138    0.0000 H   0  0  0  0  0  0  0  0  0  0  0  0
    0.8595    1.9788    0.0000 H   0  0  0  0  0  0  0  0  0  0  0  0
    1.2837    2.8038    0.0000 H   0  0  0  0  0  0  0  0  0  0  0  0
   -0.5695    2.8038    0.0000 H   0  0  0  0  0  0  0  0  0  0  0  0
    0.3571    3.3388    0.0000 H   0  0  0  0  0  0  0  0  0  0  0  0
   -1.0717    2.5138    0.0000 H   0  0  0  0  0  0  0  0  0  0  0  0
   -1.9983    1.9788    0.0000 H   0  0  0  0  0  0  0  0  0  0  0  0
   -1.7864   -0.0388    0.0000 H   0  0  0  0  0  0  0  0  0  0  0  0
   -2.7130    0.4963    0.0000 H   0  0  0  0  0  0  0  0  0  0  0  0
   -2.5006    2.4138    0.0000 H   0  0  0  0  0  0  0  0  0  0  0  0
   -1.7864   -2.5137    0.0000 H   0  0  0  0  0  0  0  0  0  0  0  0
   -2.7130   -1.9787    0.0000 H   0  0  0  0  0  0  0  0  0  0  0  0
   -1.6070    0.3099    0.0000 H   0  0  0  0  0  0  0  0  0  0  0  0
   -4.6442    1.2762    0.0000 H   0  0  0  0  0  0  0  0  0  0  0  0
   -5.5707   -0.3289    0.0000 H   0  0  0  0  0  0  0  0  0  0  0  0
   -5.5708    0.7411    0.0000 H   0  0  0  0  0  0  0  0  0  0  0  0
   -4.0677   -2.7611    0.0000 H   0  0  0  0  0  0  0  0  0  0  0  0
   -2.3625   -2.7611    0.0000 H   0  0  0  0  0  0  0  0  0  0  0  0
   -0.1780    0.3099    0.0000 H   0  0  0  0  0  0  0  0  0  0  0  0
   -1.2838   -2.8037    0.0000 H   0  0  0  0  0  0  0  0  0  0  0  0
    0.5694   -2.8037    0.0000 H   0  0  0  0  0  0  0  0  0  0  0  0
   -0.3572   -3.3387    0.0000 H   0  0  0  0  0  0  0  0  0  0  0  0
    1.0717   -2.5137    0.0000 H   0  0  0  0  0  0  0  0  0  0  0  0
    1.9984   -1.9787    0.0000 H   0  0  0  0  0  0  0  0  0  0  0  0
    1.7862    0.0388    0.0000 H   0  0  0  0  0  0  0  0  0  0  0  0
    2.7129   -0.4962    0.0000 H   0  0  0  0  0  0  0  0  0  0  0  0
    2.5006   -2.4137    0.0000 H   0  0  0  0  0  0  0  0  0  0  0  0
    0.1780   -0.3099    0.0000 H   0  0  0  0  0  0  0  0  0  0  0  0
    4.0677    2.7611    0.0000 H   0  0  0  0  0  0  0  0  0  0  0  0
    2.3625    2.7611    0.0000 H   0  0  0  0  0  0  0  0  0  0  0  0
    4.6442   -1.2762    0.0000 H   0  0  0  0  0  0  0  0  0  0  0  0
    5.5707    0.3289    0.0000 H   0  0  0  0  0  0  0  0  0  0  0  0
    5.5708   -0.7411    0.0000 H   0  0  0  0  0  0  0  0  0  0  0  0
  1 38  2  0  0  0  0
  1 39  1  0  0  0  0
  2  1  1  0  0  0  0
  3  2  1  0  0  0  0
  3 40  1  0  0  0  0
  3 41  1  0  0  0  0
  4  3  1  0  0  0  0
  4 31  1  0  0  0  0
  5  4  1  0  0  0  0
  5  6  1  0  0  0  0
  6 42  1  0  0  0  0
  6 43  1  0  0  0  0
  6 44  1  0  0  0  0
  7  5  2  0  0  0  0
  7  8  1  0  0  0  0
  8  9  1  0  0  0  0
  8 45  1  0  0  0  0
  8 46  1  0  0  0  0
  9 10  1  0  0  0  0
  9 47  1  0  0  0  0
  9 48  1  0  0  0  0
 10 49  1  0  0  0  0
 11  7  1  0  0  0  0
 12 11  1  0  0  0  0
 12 13  1  0  0  0  0
 13 14  2  0  0  0  0
 13 28  1  0  0  0  0
 14 15  1  0  0  0  0
 14 27  1  0  0  0  0
 15 16  1  0  0  0  0
 15 25  1  0  0  0  0
 16 17  1  0  0  0  0
 16 50  1  0  0  0  0
 16 51  1  0  0  0  0
 17 22  1  0  0  0  0
 18 17  2  0  0  0  0
 18 24  1  0  0  0  0
 19 18  1  0  0  0  0
 20 19  2  0  0  0  0
 20 23  1  0  0  0  0
 21 20  1  0  0  0  0
 22 21  2  0  0  0  0
 22 52  1  0  0  0  0
 23 53  1  0  0  0  0
 23 54  1  0  0  0  0
 23 55  1  0  0  0  0
 24 56  1  0  0  0  0
 24 57  1  0  0  0  0
 25 26  2  0  0  0  0
 25 58  1  0  0  0  0
 27 59  1  0  0  0  0
 27 60  1  0  0  0  0
 27 61  1  0  0  0  0
 28 29  1  0  0  0  0
 28 62  1  0  0  0  0
 28 63  1  0  0  0  0
 29 30  1  0  0  0  0
 29 64  1  0  0  0  0
 29 65  1  0  0  0  0
 30 66  1  0  0  0  0
 31 32  2  0  0  0  0
 31 67  1  0  0  0  0
 33  2  2  0  0  0  0
 33 34  1  0  0  0  0
 34 68  1  0  0  0  0
 34 69  1  0  0  0  0
 35 33  1  0  0  0  0
 36 35  2  0  0  0  0
 36 37  1  0  0  0  0
 37 70  1  0  0  0  0
 37 71  1  0  0  0  0
 37 72  1  0  0  0  0
 38 36  1  0  0  0  0
M  END
>  <DRUGBANK_ID>
DB15958

>  <COMMON_NAME>
Thiamine disulfide

>  <CAS_NUMBER>
67-16-3

>  <UNII>
UJV8K21YKL

>  <SYNONYMS>
Thiamine disulfide; Vitamin B1 disulfide

$$$$
