
 OpenBabel10282417072D

 38 41  0  0  0  0  0  0  0  0999 V2000
    6.6779    3.2067    0.0000 C   0  0  0  0  0  0  0  0  0  0  0  0
    6.1929    2.5392    0.0000 C   0  0  0  0  0  0  0  0  0  0  0  0
    6.5285    1.7856    0.0000 C   0  0  0  0  0  0  0  0  0  0  0  0
    5.3725    2.6255    0.0000 N   0  0  0  0  0  0  0  0  0  0  0  0
    4.9600    3.3400    0.0000 C   0  0  0  0  0  0  0  0  0  0  0  0
    4.1530    3.1684    0.0000 C   0  0  0  0  0  0  0  0  0  0  0  0
    4.0668    2.3479    0.0000 C   0  0  0  0  0  0  0  0  0  0  0  0
    4.8204    2.0124    0.0000 N   0  0  0  0  0  0  0  0  0  0  0  0
    3.3523    1.9354    0.0000 C   0  0  0  0  0  0  0  0  0  0  0  0
    3.3523    1.1104    0.0000 C   0  0  0  0  0  0  0  0  0  0  0  0
    2.6378    0.6979    0.0000 C   0  0  0  0  0  0  0  0  0  0  0  0
    1.9233    1.1104    0.0000 C   0  0  0  0  0  0  0  0  0  0  0  0
    1.9233    1.9354    0.0000 C   0  0  0  0  0  0  0  0  0  0  0  0
    2.6378    2.3479    0.0000 C   0  0  0  0  0  0  0  0  0  0  0  0
    1.1387    2.1904    0.0000 N   0  0  0  0  0  0  0  0  0  0  0  0
    0.6538    1.5229    0.0000 C   0  0  0  0  0  0  0  0  0  0  0  0
    1.1387    0.8555    0.0000 O   0  0  0  0  0  0  0  0  0  0  0  0
   -0.1712    1.5229    0.0000 N   0  0  0  0  0  0  0  0  0  0  0  0
    3.6010    3.7815    0.0000 C   0  0  0  0  0  0  0  0  0  0  0  0
    3.8559    4.5661    0.0000 N   0  0  0  0  0  0  0  0  0  0  0  0
    4.6629    4.7377    0.0000 C   0  0  0  0  0  0  0  0  0  0  0  0
    5.2149    4.1246    0.0000 N   0  0  0  0  0  0  0  0  0  0  0  0
    2.7940    3.6100    0.0000 N   0  0  0  0  0  0  0  0  0  0  0  0
    7.7420    3.0948    0.0000 H   0  0  0  0  0  0  0  0  0  0  0  0
    6.2427    4.1842    0.0000 H   0  0  0  0  0  0  0  0  0  0  0  0
    7.3069    4.0723    0.0000 H   0  0  0  0  0  0  0  0  0  0  0  0
    5.5640    1.6736    0.0000 H   0  0  0  0  0  0  0  0  0  0  0  0
    5.8996    0.9199    0.0000 H   0  0  0  0  0  0  0  0  0  0  0  0
    7.5926    1.6738    0.0000 H   0  0  0  0  0  0  0  0  0  0  0  0
    6.9638    0.8081    0.0000 H   0  0  0  0  0  0  0  0  0  0  0  0
    4.2460    0.5944    0.0000 H   0  0  0  0  0  0  0  0  0  0  0  0
    2.6378   -0.3341    0.0000 H   0  0  0  0  0  0  0  0  0  0  0  0
    2.6378    3.3799    0.0000 H   0  0  0  0  0  0  0  0  0  0  0  0
   -0.6635    2.3755    0.0000 H   0  0  0  0  0  0  0  0  0  0  0  0
   -0.6634    0.6703    0.0000 H   0  0  0  0  0  0  0  0  0  0  0  0
    4.9818    5.7192    0.0000 H   0  0  0  0  0  0  0  0  0  0  0  0
    2.1353    4.3417    0.0000 H   0  0  0  0  0  0  0  0  0  0  0  0
    2.4897    2.6737    0.0000 H   0  0  0  0  0  0  0  0  0  0  0  0
  1  2  1  0  0  0  0
  1 24  1  0  0  0  0
  1 25  1  0  0  0  0
  1 26  1  0  0  0  0
  2  3  1  0  0  0  0
  2  4  1  0  0  0  0
  2 27  1  0  0  0  0
  3 28  1  0  0  0  0
  3 29  1  0  0  0  0
  3 30  1  0  0  0  0
  4  5  1  0  0  0  0
  4  8  1  0  0  0  0
  5  6  1  0  0  0  0
  5 22  2  0  0  0  0
  6  7  1  0  0  0  0
  6 19  2  0  0  0  0
  7  8  2  0  0  0  0
  7  9  1  0  0  0  0
  9 10  2  0  0  0  0
  9 14  1  0  0  0  0
 10 11  1  0  0  0  0
 10 31  1  0  0  0  0
 11 12  2  0  0  0  0
 11 32  1  0  0  0  0
 12 13  1  0  0  0  0
 12 17  1  0  0  0  0
 13 14  2  0  0  0  0
 13 15  1  0  0  0  0
 14 33  1  0  0  0  0
 15 16  2  0  0  0  0
 16 17  1  0  0  0  0
 16 18  1  0  0  0  0
 18 34  1  0  0  0  0
 18 35  1  0  0  0  0
 19 20  1  0  0  0  0
 19 23  1  0  0  0  0
 20 21  2  0  0  0  0
 21 22  1  0  0  0  0
 21 36  1  0  0  0  0
 23 37  1  0  0  0  0
 23 38  1  0  0  0  0
M  END
>  <DRUGBANK_ID>
DB11836

>  <COMMON_NAME>
Sapanisertib

>  <CAS_NUMBER>
1224844-38-5

>  <UNII>
JGH0DF1U03

>  <SYNONYMS>
Sapanisertib

$$$$
