
 OpenBabel10282417072D

 30 30  0  0  0  0  0  0  0  0999 V2000
   -2.1424   -0.0058    0.0000 C   0  0  0  0  0  0  0  0  0  0  0  0
   -2.1437   -0.8333    0.0000 C   0  0  0  0  0  0  0  0  0  0  0  0
   -1.4305   -1.2464    0.0000 C   0  0  0  0  0  0  0  0  0  0  0  0
   -0.7111   -0.8329    0.0000 C   0  0  0  0  0  0  0  0  0  0  0  0
   -0.7143   -0.0017    0.0000 C   0  0  0  0  0  0  0  0  0  0  0  0
   -1.4325    0.4070    0.0000 C   0  0  0  0  0  0  0  0  0  0  0  0
   -0.0019    0.4143    0.0000 C   0  0  2  0  0  0  0  0  0  0  0  0
    0.7146    0.0053    0.0000 C   0  0  2  0  0  0  0  0  0  0  0  0
   -0.0060    1.2393    0.0000 O   0  0  0  0  0  0  0  0  0  0  0  0
    0.7187   -0.8197    0.0000 C   0  0  0  0  0  0  0  0  0  0  0  0
    1.4272    0.4214    0.0000 N   0  0  0  0  0  0  0  0  0  0  0  0
    2.1437    0.0123    0.0000 C   0  0  0  0  0  0  0  0  0  0  0  0
    1.4230    1.2464    0.0000 C   0  0  0  0  0  0  0  0  0  0  0  0
   -3.0365    0.5095    0.0000 H   0  0  0  0  0  0  0  0  0  0  0  0
   -3.0382   -1.3480    0.0000 H   0  0  0  0  0  0  0  0  0  0  0  0
   -1.4322   -2.2784    0.0000 H   0  0  0  0  0  0  0  0  0  0  0  0
    0.1831   -1.3480    0.0000 H   0  0  0  0  0  0  0  0  0  0  0  0
   -1.4373    1.4390    0.0000 H   0  0  0  0  0  0  0  0  0  0  0  0
   -0.9312    0.9447    0.0000 H   0  0  0  0  0  0  0  0  0  0  0  0
   -0.2094   -0.5343    0.0000 H   0  0  0  0  0  0  0  0  0  0  0  0
    0.8316    1.7285    0.0000 H   0  0  0  0  0  0  0  0  0  0  0  0
   -0.2053   -1.3593    0.0000 H   0  0  0  0  0  0  0  0  0  0  0  0
    1.6480   -1.3501    0.0000 H   0  0  0  0  0  0  0  0  0  0  0  0
    0.7240   -1.8897    0.0000 H   0  0  0  0  0  0  0  0  0  0  0  0
    2.1488   -1.0577    0.0000 H   0  0  0  0  0  0  0  0  0  0  0  0
    3.0678    0.5517    0.0000 H   0  0  0  0  0  0  0  0  0  0  0  0
    3.0729   -0.5182    0.0000 H   0  0  0  0  0  0  0  0  0  0  0  0
    2.3469    1.7861    0.0000 H   0  0  0  0  0  0  0  0  0  0  0  0
    0.4936    1.7767    0.0000 H   0  0  0  0  0  0  0  0  0  0  0  0
    1.4176    2.3164    0.0000 H   0  0  0  0  0  0  0  0  0  0  0  0
  1  2  2  0  0  0  0
  1 14  1  0  0  0  0
  2  3  1  0  0  0  0
  2 15  1  0  0  0  0
  3  4  2  0  0  0  0
  3 16  1  0  0  0  0
  4  5  1  0  0  0  0
  4 17  1  0  0  0  0
  5  7  1  0  0  0  0
  5  6  2  0  0  0  0
  6  1  1  0  0  0  0
  6 18  1  0  0  0  0
  7  8  1  0  0  0  0
  7  9  1  0  0  0  0
  7 19  1  6  0  0  0
  8 10  1  0  0  0  0
  8 11  1  0  0  0  0
  8 20  1  6  0  0  0
  9 21  1  0  0  0  0
 10 22  1  0  0  0  0
 10 23  1  0  0  0  0
 10 24  1  0  0  0  0
 11 12  1  0  0  0  0
 11 13  1  0  0  0  0
 12 25  1  0  0  0  0
 12 26  1  0  0  0  0
 12 27  1  0  0  0  0
 13 28  1  0  0  0  0
 13 29  1  0  0  0  0
 13 30  1  0  0  0  0
M  END
>  <DRUGBANK_ID>
DB11278

>  <COMMON_NAME>
DL-Methylephedrine

>  <CAS_NUMBER>
1201-56-5

>  <UNII>
SHS9PGQ2LS

>  <SYNONYMS>
(+/-)-Methylephedrine; (+/-)-N-methylephedrine; Methylephedrine, (+/-)-; Methylephedrine, DL-; N-methylephedrine DL-form

$$$$
