LZ7
 OpenBabel10282417072D

 30 31  0  0  0  0  0  0  0  0999 V2000
   17.3076    5.2712    0.0000 C   0  0  0  0  0  0  0  0  0  0  0  0
   17.3076    4.4462    0.0000 C   0  0  0  0  0  0  0  0  0  0  0  0
   18.0221    4.0337    0.0000 O   0  0  0  0  0  0  0  0  0  0  0  0
   16.5932    4.0337    0.0000 N   0  0  0  0  0  0  0  0  0  0  0  0
   16.5932    3.2087    0.0000 C   0  0  0  0  0  0  0  0  0  0  0  0
   17.2606    2.7238    0.0000 C   0  0  0  0  0  0  0  0  0  0  0  0
   17.0057    1.9392    0.0000 N   0  0  0  0  0  0  0  0  0  0  0  0
   16.1807    1.9392    0.0000 N   0  0  0  0  0  0  0  0  0  0  0  0
   15.9257    2.7238    0.0000 C   0  0  0  0  0  0  0  0  0  0  0  0
   15.1411    2.9787    0.0000 C   0  0  0  0  0  0  0  0  0  0  0  0
   14.9696    3.7857    0.0000 O   0  0  0  0  0  0  0  0  0  0  0  0
   14.5280    2.4267    0.0000 N   0  0  0  0  0  0  0  0  0  0  0  0
   13.7434    2.6816    0.0000 C   0  0  0  0  0  0  0  0  0  0  0  0
   13.1303    2.1296    0.0000 C   0  0  0  0  0  0  0  0  0  0  0  0
   12.3457    2.3845    0.0000 C   0  0  0  0  0  0  0  0  0  0  0  0
   12.1741    3.1915    0.0000 C   0  0  0  0  0  0  0  0  0  0  0  0
   11.3895    3.4465    0.0000 F   0  0  0  0  0  0  0  0  0  0  0  0
   12.7872    3.7436    0.0000 C   0  0  0  0  0  0  0  0  0  0  0  0
   13.5719    3.4886    0.0000 C   0  0  0  0  0  0  0  0  0  0  0  0
   18.2342    5.8062    0.0000 H   0  0  0  0  0  0  0  0  0  0  0  0
   16.3810    5.8062    0.0000 H   0  0  0  0  0  0  0  0  0  0  0  0
   17.3076    6.3412    0.0000 H   0  0  0  0  0  0  0  0  0  0  0  0
   15.7406    4.5259    0.0000 H   0  0  0  0  0  0  0  0  0  0  0  0
   18.2421    3.0427    0.0000 H   0  0  0  0  0  0  0  0  0  0  0  0
   17.5844    1.1427    0.0000 H   0  0  0  0  0  0  0  0  0  0  0  0
   14.7327    1.4637    0.0000 H   0  0  0  0  0  0  0  0  0  0  0  0
   13.3449    1.1202    0.0000 H   0  0  0  0  0  0  0  0  0  0  0  0
   11.5788    1.6939    0.0000 H   0  0  0  0  0  0  0  0  0  0  0  0
   12.5726    4.7530    0.0000 H   0  0  0  0  0  0  0  0  0  0  0  0
   14.3389    4.1791    0.0000 H   0  0  0  0  0  0  0  0  0  0  0  0
  1  2  1  0  0  0  0
  1 20  1  0  0  0  0
  1 21  1  0  0  0  0
  1 22  1  0  0  0  0
  2  3  2  0  0  0  0
  2  4  1  0  0  0  0
  4  5  1  0  0  0  0
  4 23  1  0  0  0  0
  5  6  2  0  0  0  0
  5  9  1  0  0  0  0
  6  7  1  0  0  0  0
  6 24  1  0  0  0  0
  7  8  1  0  0  0  0
  7 25  1  0  0  0  0
  8  9  2  0  0  0  0
  9 10  1  0  0  0  0
 10 11  2  0  0  0  0
 10 12  1  0  0  0  0
 12 13  1  0  0  0  0
 12 26  1  0  0  0  0
 13 14  1  0  0  0  0
 13 19  2  0  0  0  0
 14 15  2  0  0  0  0
 14 27  1  0  0  0  0
 15 16  1  0  0  0  0
 15 28  1  0  0  0  0
 16 17  1  0  0  0  0
 16 18  2  0  0  0  0
 18 19  1  0  0  0  0
 18 29  1  0  0  0  0
 19 30  1  0  0  0  0
M  END
>  <DRUGBANK_ID>
DB08136

>  <COMMON_NAME>
4-(acetylamino)-N-(4-fluorophenyl)-1H-pyrazole-3-carboxamide

>  <UNII>
U5RM7N7H82

$$$$
