HHH
 OpenBabel10282417072D

 20 20  0  0  0  0  0  0  0  0999 V2000
    1.4757    1.6226    0.0000 O   0  0  0  0  0  0  0  0  0  0  0  0
    0.7613    1.2101    0.0000 C   0  0  0  0  0  0  0  0  0  0  0  0
    0.0468    1.6226    0.0000 O   0  0  0  0  0  0  0  0  0  0  0  0
    0.7613    0.3851    0.0000 C   0  0  1  0  0  0  0  0  0  0  0  0
    1.4757   -0.0274    0.0000 O   0  0  0  0  0  0  0  0  0  0  0  0
    0.0468   -0.0274    0.0000 C   0  0  0  0  0  0  0  0  0  0  0  0
    0.0468   -0.8524    0.0000 C   0  0  0  0  0  0  0  0  0  0  0  0
   -0.6677   -1.2649    0.0000 C   0  0  0  0  0  0  0  0  0  0  0  0
   -0.6677    0.3851    0.0000 C   0  0  0  0  0  0  0  0  0  0  0  0
   -1.3821   -0.0274    0.0000 C   0  0  0  0  0  0  0  0  0  0  0  0
   -1.3821   -0.8524    0.0000 C   0  0  0  0  0  0  0  0  0  0  0  0
   -2.0966   -1.2649    0.0000 O   0  0  0  0  0  0  0  0  0  0  0  0
    1.2670    0.6771    0.0000 H   0  0  0  0  0  0  0  0  0  0  0  0
    2.2872    1.1541    0.0000 H   0  0  0  0  0  0  0  0  0  0  0  0
    1.4757   -0.9974    0.0000 H   0  0  0  0  0  0  0  0  0  0  0  0
    0.9405   -1.3684    0.0000 H   0  0  0  0  0  0  0  0  0  0  0  0
   -0.6677   -2.2969    0.0000 H   0  0  0  0  0  0  0  0  0  0  0  0
   -0.6677    1.4171    0.0000 H   0  0  0  0  0  0  0  0  0  0  0  0
   -2.2758    0.4886    0.0000 H   0  0  0  0  0  0  0  0  0  0  0  0
   -2.9081   -0.7964    0.0000 H   0  0  0  0  0  0  0  0  0  0  0  0
  1 14  1  0  0  0  0
  2  1  1  0  0  0  0
  2  4  1  0  0  0  0
  3  2  2  0  0  0  0
  4  5  1  0  0  0  0
  4  6  1  0  0  0  0
  4 13  1  6  0  0  0
  5 15  1  0  0  0  0
  6  7  1  0  0  0  0
  7  8  2  0  0  0  0
  7 16  1  0  0  0  0
  8 17  1  0  0  0  0
  9  6  2  0  0  0  0
  9 10  1  0  0  0  0
  9 18  1  0  0  0  0
 10 11  2  0  0  0  0
 10 19  1  0  0  0  0
 11  8  1  0  0  0  0
 11 12  1  0  0  0  0
 12 20  1  0  0  0  0
M  END
>  <DRUGBANK_ID>
DB07896

>  <COMMON_NAME>
(2S)-hydroxy(4-hydroxyphenyl)ethanoic acid

>  <UNII>
G3FLY66R5P

$$$$
