
 OpenBabel10282417072D

 36 37  0  0  0  0  0  0  0  0999 V2000
   -4.2843   -0.2103    0.0000 C   0  0  0  0  0  0  0  0  0  0  0  0
   -4.2855   -1.0376    0.0000 C   0  0  0  0  0  0  0  0  0  0  0  0
   -3.5707   -1.4506    0.0000 C   0  0  0  0  0  0  0  0  0  0  0  0
   -2.8542   -1.0371    0.0000 C   0  0  0  0  0  0  0  0  0  0  0  0
   -2.8571   -0.2066    0.0000 C   0  0  0  0  0  0  0  0  0  0  0  0
   -3.5725    0.2023    0.0000 C   0  0  0  0  0  0  0  0  0  0  0  0
   -2.1441    0.2084    0.0000 N   0  0  0  0  0  0  0  0  0  0  0  0
   -1.4281   -0.2012    0.0000 S   0  0  0  0  0  0  0  0  0  0  0  0
   -0.7150    0.2139    0.0000 C   0  0  0  0  0  0  0  0  0  0  0  0
   -0.0007   -0.1993    0.0000 C   0  0  0  0  0  0  0  0  0  0  0  0
    0.7116    0.2151    0.0000 C   0  0  0  0  0  0  0  0  0  0  0  0
    0.7089    1.0409    0.0000 C   0  0  0  0  0  0  0  0  0  0  0  0
   -0.0120    1.4506    0.0000 C   0  0  0  0  0  0  0  0  0  0  0  0
   -0.7214    1.0337    0.0000 C   0  0  0  0  0  0  0  0  0  0  0  0
   -1.8453   -0.9104    0.0000 O   0  0  0  0  0  0  0  0  0  0  0  0
   -1.0203   -0.9104    0.0000 O   0  0  0  0  0  0  0  0  0  0  0  0
    1.4275   -0.1949    0.0000 C   0  0  0  0  0  0  0  0  0  0  0  0
    2.1406    0.2198    0.0000 C   0  0  0  0  0  0  0  0  0  0  0  0
    2.8566   -0.1902    0.0000 C   0  0  0  0  0  0  0  0  0  0  0  0
    2.8593   -1.0153    0.0000 O   0  0  0  0  0  0  0  0  0  0  0  0
    3.5697    0.2245    0.0000 N   0  0  0  0  0  0  0  0  0  0  0  0
    4.2855   -0.1855    0.0000 O   0  0  0  0  0  0  0  0  0  0  0  0
   -5.1781    0.3056    0.0000 H   0  0  0  0  0  0  0  0  0  0  0  0
   -5.1797   -1.5528    0.0000 H   0  0  0  0  0  0  0  0  0  0  0  0
   -3.5710   -2.4826    0.0000 H   0  0  0  0  0  0  0  0  0  0  0  0
   -1.9596   -1.5516    0.0000 H   0  0  0  0  0  0  0  0  0  0  0  0
   -3.5756    1.2343    0.0000 H   0  0  0  0  0  0  0  0  0  0  0  0
   -2.1478    1.1929    0.0000 H   0  0  0  0  0  0  0  0  0  0  0  0
    0.0006   -1.2313    0.0000 H   0  0  0  0  0  0  0  0  0  0  0  0
    1.6000    1.5614    0.0000 H   0  0  0  0  0  0  0  0  0  0  0  0
   -0.0195    2.4826    0.0000 H   0  0  0  0  0  0  0  0  0  0  0  0
   -1.6191    1.5427    0.0000 H   0  0  0  0  0  0  0  0  0  0  0  0
    1.4309   -1.2269    0.0000 H   0  0  0  0  0  0  0  0  0  0  0  0
    2.1371    1.2518    0.0000 H   0  0  0  0  0  0  0  0  0  0  0  0
    3.5665    1.2090    0.0000 H   0  0  0  0  0  0  0  0  0  0  0  0
    4.2888   -1.1555    0.0000 H   0  0  0  0  0  0  0  0  0  0  0  0
  1  2  2  0  0  0  0
  1 23  1  0  0  0  0
  2  3  1  0  0  0  0
  2 24  1  0  0  0  0
  3  4  2  0  0  0  0
  3 25  1  0  0  0  0
  4  5  1  0  0  0  0
  4 26  1  0  0  0  0
  5  6  2  0  0  0  0
  5  7  1  0  0  0  0
  6  1  1  0  0  0  0
  6 27  1  0  0  0  0
  7  8  1  0  0  0  0
  7 28  1  0  0  0  0
  8 15  2  0  0  0  0
  8 16  2  0  0  0  0
  8  9  1  0  0  0  0
  9 10  2  0  0  0  0
 10 11  1  0  0  0  0
 10 29  1  0  0  0  0
 11 12  2  0  0  0  0
 11 17  1  0  0  0  0
 12 13  1  0  0  0  0
 12 30  1  0  0  0  0
 13 14  2  0  0  0  0
 13 31  1  0  0  0  0
 14  9  1  0  0  0  0
 14 32  1  0  0  0  0
 17 18  2  0  0  0  0
 17 33  1  0  0  0  0
 18 19  1  0  0  0  0
 18 34  1  0  0  0  0
 19 20  2  0  0  0  0
 19 21  1  0  0  0  0
 21 22  1  0  0  0  0
 21 35  1  0  0  0  0
 22 36  1  0  0  0  0
M  END
>  <DRUGBANK_ID>
DB05015

>  <COMMON_NAME>
Belinostat

>  <CAS_NUMBER>
866323-14-0

>  <UNII>
F4H96P17NZ

>  <SYNONYMS>
Belinostat

$$$$
