
 OpenBabel10282417072D

146156  0  0  1  0  0  0  0  0999 V2000
    8.5296    1.0336    0.0000 C   0  0  0  0  0  0  0  0  0  0  0  0
    8.9789    1.7255    0.0000 C   0  0  0  0  0  0  0  0  0  0  0  0
    8.6869    2.3780    0.0000 C   0  0  0  0  0  0  0  0  0  0  0  0
    9.8028    1.6823    0.0000 C   0  0  1  0  0  0  0  0  0  0  0  0
   10.2521    2.3742    0.0000 C   0  0  0  0  0  0  0  0  0  0  0  0
   11.0760    2.3310    0.0000 O   0  0  0  0  0  0  0  0  0  0  0  0
    9.8776    3.1093    0.0000 N   0  0  0  0  0  0  0  0  0  0  0  0
   10.2521    3.8443    0.0000 C   0  0  1  0  0  0  0  0  0  0  0  0
   11.0490    4.0579    0.0000 C   0  0  0  0  0  0  0  0  0  0  0  0
   11.2625    4.8548    0.0000 C   0  0  0  0  0  0  0  0  0  0  0  0
   10.6792    5.4381    0.0000 C   0  0  0  0  0  0  0  0  0  0  0  0
    9.8823    5.2246    0.0000 C   0  0  0  0  0  0  0  0  0  0  0  0
    9.6687    4.4277    0.0000 C   0  0  1  0  0  0  0  0  0  0  0  0
    8.9337    4.0532    0.0000 C   0  0  0  0  0  0  0  0  0  0  0  0
    9.0627    3.2383    0.0000 C   0  0  1  0  0  0  0  0  0  0  0  0
    8.4794    2.6550    0.0000 C   0  0  0  0  0  0  0  0  0  0  0  0
    7.6645    2.7840    0.0000 N   0  0  0  0  0  0  0  0  0  0  0  0
    7.2900    2.0489    0.0000 C   0  0  0  0  0  0  0  0  0  0  0  0
    6.4931    1.8354    0.0000 C   0  0  0  0  0  0  0  0  0  0  0  0
    6.2796    1.0385    0.0000 C   0  0  0  0  0  0  0  0  0  0  0  0
    6.8629    0.4552    0.0000 C   0  0  0  0  0  0  0  0  0  0  0  0
    7.6598    0.6687    0.0000 C   0  0  0  0  0  0  0  0  0  0  0  0
    7.8733    1.4656    0.0000 C   0  0  0  0  0  0  0  0  0  0  0  0
    8.6084    1.8401    0.0000 N   0  0  0  0  0  0  0  0  0  0  0  0
    5.4827    0.8250    0.0000 C   0  0  0  0  0  0  0  0  0  0  0  0
    5.4827    0.0000    0.0000 C   0  0  0  0  0  0  0  0  0  0  0  0
    5.0702   -0.7145    0.0000 C   0  0  0  0  0  0  0  0  0  0  0  0
    4.8823    0.0368    0.0000 C   0  0  0  0  0  0  0  0  0  0  0  0
    4.8823    0.7882    0.0000 C   0  0  0  0  0  0  0  0  0  0  0  0
    5.0702    1.5395    0.0000 C   0  0  0  0  0  0  0  0  0  0  0  0
    4.3557    1.9520    0.0000 C   0  0  0  0  0  0  0  0  0  0  0  0
    3.5307    1.9520    0.0000 C   0  0  0  0  0  0  0  0  0  0  0  0
    2.8162    1.5395    0.0000 C   0  0  0  0  0  0  0  0  0  0  0  0
    3.0041    0.7882    0.0000 C   0  0  0  0  0  0  0  0  0  0  0  0
    3.0041    0.0368    0.0000 C   0  0  0  0  0  0  0  0  0  0  0  0
    2.8162   -0.7145    0.0000 C   0  0  0  0  0  0  0  0  0  0  0  0
    2.4037    0.0000    0.0000 C   0  0  0  0  0  0  0  0  0  0  0  0
    2.4037    0.8250    0.0000 C   0  0  0  0  0  0  0  0  0  0  0  0
    1.6068   -0.2135    0.0000 C   0  0  0  0  0  0  0  0  0  0  0  0
    1.0235    0.3698    0.0000 C   0  0  0  0  0  0  0  0  0  0  0  0
    0.2266    0.1563    0.0000 C   0  0  0  0  0  0  0  0  0  0  0  0
    0.0131   -0.6406    0.0000 C   0  0  0  0  0  0  0  0  0  0  0  0
    0.5964   -1.2239    0.0000 C   0  0  0  0  0  0  0  0  0  0  0  0
    1.3933   -1.0104    0.0000 C   0  0  0  0  0  0  0  0  0  0  0  0
    0.2219   -1.9590    0.0000 N   0  0  0  0  0  0  0  0  0  0  0  0
   -0.5930   -1.8300    0.0000 C   0  0  0  0  0  0  0  0  0  0  0  0
   -0.7220   -1.0151    0.0000 N   0  0  0  0  0  0  0  0  0  0  0  0
   -1.1763   -2.4133    0.0000 C   0  0  2  0  0  0  0  0  0  0  0  0
   -1.0473   -3.2282    0.0000 C   0  0  0  0  0  0  0  0  0  0  0  0
   -1.7824   -3.6027    0.0000 C   0  0  2  0  0  0  0  0  0  0  0  0
   -1.9959   -4.3996    0.0000 C   0  0  0  0  0  0  0  0  0  0  0  0
   -2.7928   -4.6131    0.0000 C   0  0  0  0  0  0  0  0  0  0  0  0
   -3.3761   -4.0298    0.0000 C   0  0  0  0  0  0  0  0  0  0  0  0
   -3.1626   -3.2329    0.0000 C   0  0  0  0  0  0  0  0  0  0  0  0
   -2.3657   -3.0193    0.0000 C   0  0  2  0  0  0  0  0  0  0  0  0
   -1.9912   -2.2843    0.0000 N   0  0  0  0  0  0  0  0  0  0  0  0
   -2.3657   -1.5492    0.0000 C   0  0  0  0  0  0  0  0  0  0  0  0
   -1.9164   -0.8573    0.0000 O   0  0  0  0  0  0  0  0  0  0  0  0
   -3.1896   -1.5060    0.0000 C   0  0  2  0  0  0  0  0  0  0  0  0
   -3.6389   -2.1979    0.0000 C   0  0  0  0  0  0  0  0  0  0  0  0
   -3.2644   -2.9330    0.0000 C   0  0  0  0  0  0  0  0  0  0  0  0
   -4.4628   -2.1547    0.0000 C   0  0  0  0  0  0  0  0  0  0  0  0
   -3.5641   -0.7709    0.0000 N   0  0  0  0  0  0  0  0  0  0  0  0
   -4.3880   -0.7278    0.0000 C   0  0  0  0  0  0  0  0  0  0  0  0
   -4.8373   -1.4197    0.0000 O   0  0  0  0  0  0  0  0  0  0  0  0
   -4.7625    0.0073    0.0000 O   0  0  0  0  0  0  0  0  0  0  0  0
   -5.5864    0.0505    0.0000 C   0  0  0  0  0  0  0  0  0  0  0  0
    3.5307   -1.1270    0.0000 C   0  0  0  0  0  0  0  0  0  0  0  0
    4.3557   -1.1270    0.0000 C   0  0  0  0  0  0  0  0  0  0  0  0
   10.1773    0.9472    0.0000 N   0  0  0  0  0  0  0  0  0  0  0  0
    9.7280    0.2553    0.0000 C   0  0  0  0  0  0  0  0  0  0  0  0
    8.9041    0.2985    0.0000 O   0  0  0  0  0  0  0  0  0  0  0  0
   10.1025   -0.4798    0.0000 O   0  0  0  0  0  0  0  0  0  0  0  0
   10.9264   -0.5230    0.0000 C   0  0  0  0  0  0  0  0  0  0  0  0
    7.4611    1.0896    0.0000 H   0  0  0  0  0  0  0  0  0  0  0  0
    9.0154    0.0802    0.0000 H   0  0  0  0  0  0  0  0  0  0  0  0
    7.9469    0.1362    0.0000 H   0  0  0  0  0  0  0  0  0  0  0  0
    9.5841    2.6079    0.0000 H   0  0  0  0  0  0  0  0  0  0  0  0
    9.3142    3.2448    0.0000 H   0  0  0  0  0  0  0  0  0  0  0  0
    7.6226    2.4878    0.0000 H   0  0  0  0  0  0  0  0  0  0  0  0
    8.2498    3.3547    0.0000 H   0  0  0  0  0  0  0  0  0  0  0  0
    9.2200    0.7849    0.0000 H   0  0  0  0  0  0  0  0  0  0  0  0
   10.9255    3.0128    0.0000 H   0  0  0  0  0  0  0  0  0  0  0  0
   11.8056    3.3013    0.0000 H   0  0  0  0  0  0  0  0  0  0  0  0
   12.0825    4.3349    0.0000 H   0  0  0  0  0  0  0  0  0  0  0  0
   12.2960    5.1318    0.0000 H   0  0  0  0  0  0  0  0  0  0  0  0
   11.5394    5.8883    0.0000 H   0  0  0  0  0  0  0  0  0  0  0  0
   10.9562    6.4716    0.0000 H   0  0  0  0  0  0  0  0  0  0  0  0
    9.9226    6.1947    0.0000 H   0  0  0  0  0  0  0  0  0  0  0  0
    9.1257    5.9812    0.0000 H   0  0  0  0  0  0  0  0  0  0  0  0
    8.8487    4.9477    0.0000 H   0  0  0  0  0  0  0  0  0  0  0  0
    8.8372    5.1011    0.0000 H   0  0  0  0  0  0  0  0  0  0  0  0
    7.9803    4.5390    0.0000 H   0  0  0  0  0  0  0  0  0  0  0  0
    8.0680    3.4243    0.0000 H   0  0  0  0  0  0  0  0  0  0  0  0
    8.0451    3.5690    0.0000 H   0  0  0  0  0  0  0  0  0  0  0  0
    7.2175    3.6612    0.0000 H   0  0  0  0  0  0  0  0  0  0  0  0
    5.7634    2.5651    0.0000 H   0  0  0  0  0  0  0  0  0  0  0  0
    6.5958   -0.5416    0.0000 H   0  0  0  0  0  0  0  0  0  0  0  0
    8.3895   -0.0610    0.0000 H   0  0  0  0  0  0  0  0  0  0  0  0
    6.4795   -0.2671    0.0000 H   0  0  0  0  0  0  0  0  0  0  0  0
    3.8580   -0.0893    0.0000 H   0  0  0  0  0  0  0  0  0  0  0  0
    3.8580    0.9143    0.0000 H   0  0  0  0  0  0  0  0  0  0  0  0
    4.6326    2.9855    0.0000 H   0  0  0  0  0  0  0  0  0  0  0  0
    3.7043    2.8009    0.0000 H   0  0  0  0  0  0  0  0  0  0  0  0
    3.2538    2.9855    0.0000 H   0  0  0  0  0  0  0  0  0  0  0  0
    2.5422    2.3615    0.0000 H   0  0  0  0  0  0  0  0  0  0  0  0
    4.0284    0.9143    0.0000 H   0  0  0  0  0  0  0  0  0  0  0  0
    4.0284   -0.0893    0.0000 H   0  0  0  0  0  0  0  0  0  0  0  0
    1.4069    1.0921    0.0000 H   0  0  0  0  0  0  0  0  0  0  0  0
    1.2906    1.3666    0.0000 H   0  0  0  0  0  0  0  0  0  0  0  0
   -0.5031    0.8860    0.0000 H   0  0  0  0  0  0  0  0  0  0  0  0
    2.1230   -1.7401    0.0000 H   0  0  0  0  0  0  0  0  0  0  0  0
    0.6689   -2.8362    0.0000 H   0  0  0  0  0  0  0  0  0  0  0  0
   -0.1587   -2.7440    0.0000 H   0  0  0  0  0  0  0  0  0  0  0  0
   -0.0940   -3.7140    0.0000 H   0  0  0  0  0  0  0  0  0  0  0  0
   -1.0474   -4.2982    0.0000 H   0  0  0  0  0  0  0  0  0  0  0  0
   -0.9509   -4.2761    0.0000 H   0  0  0  0  0  0  0  0  0  0  0  0
   -1.2393   -5.1562    0.0000 H   0  0  0  0  0  0  0  0  0  0  0  0
   -2.2729   -5.4331    0.0000 H   0  0  0  0  0  0  0  0  0  0  0  0
   -3.0698   -5.6466    0.0000 H   0  0  0  0  0  0  0  0  0  0  0  0
   -3.8263   -4.8900    0.0000 H   0  0  0  0  0  0  0  0  0  0  0  0
   -4.4096   -4.3068    0.0000 H   0  0  0  0  0  0  0  0  0  0  0  0
   -4.1327   -3.2732    0.0000 H   0  0  0  0  0  0  0  0  0  0  0  0
   -3.9192   -2.4763    0.0000 H   0  0  0  0  0  0  0  0  0  0  0  0
   -2.8857   -2.1993    0.0000 H   0  0  0  0  0  0  0  0  0  0  0  0
   -3.0391   -2.1878    0.0000 H   0  0  0  0  0  0  0  0  0  0  0  0
   -2.6068   -0.6086    0.0000 H   0  0  0  0  0  0  0  0  0  0  0  0
   -4.2217   -3.0953    0.0000 H   0  0  0  0  0  0  0  0  0  0  0  0
   -3.8472   -3.8303    0.0000 H   0  0  0  0  0  0  0  0  0  0  0  0
   -2.1959   -2.9891    0.0000 H   0  0  0  0  0  0  0  0  0  0  0  0
   -2.7787   -3.8864    0.0000 H   0  0  0  0  0  0  0  0  0  0  0  0
   -4.9485   -1.2013    0.0000 H   0  0  0  0  0  0  0  0  0  0  0  0
   -5.0456   -3.0521    0.0000 H   0  0  0  0  0  0  0  0  0  0  0  0
   -5.5313   -2.0987    0.0000 H   0  0  0  0  0  0  0  0  0  0  0  0
   -3.0279    0.0548    0.0000 H   0  0  0  0  0  0  0  0  0  0  0  0
   -6.0721    1.0039    0.0000 H   0  0  0  0  0  0  0  0  0  0  0  0
   -6.1692   -0.8469    0.0000 H   0  0  0  0  0  0  0  0  0  0  0  0
   -6.6549    0.1065    0.0000 H   0  0  0  0  0  0  0  0  0  0  0  0
    3.2538   -2.1605    0.0000 H   0  0  0  0  0  0  0  0  0  0  0  0
    4.1821   -1.9759    0.0000 H   0  0  0  0  0  0  0  0  0  0  0  0
    4.6326   -2.1605    0.0000 H   0  0  0  0  0  0  0  0  0  0  0  0
    5.3442   -1.5365    0.0000 H   0  0  0  0  0  0  0  0  0  0  0  0
   11.1604    0.8957    0.0000 H   0  0  0  0  0  0  0  0  0  0  0  0
   11.4121   -1.4764    0.0000 H   0  0  0  0  0  0  0  0  0  0  0  0
   11.5092    0.3744    0.0000 H   0  0  0  0  0  0  0  0  0  0  0  0
   11.9949   -0.5790    0.0000 H   0  0  0  0  0  0  0  0  0  0  0  0
  1  2  1  0  0  0  0
  1 75  1  0  0  0  0
  1 76  1  0  0  0  0
  1 77  1  0  0  0  0
  2  3  1  0  0  0  0
  2  4  1  0  0  0  0
  2 78  1  0  0  0  0
  3 79  1  0  0  0  0
  3 80  1  0  0  0  0
  3 81  1  0  0  0  0
  4  5  1  0  0  0  0
  4 70  1  0  0  0  0
  4 82  1  6  0  0  0
  5  6  2  0  0  0  0
  5  7  1  0  0  0  0
  7 15  1  0  0  0  0
  8  7  1  0  0  0  0
  8  9  1  0  0  0  0
  8 13  1  0  0  0  0
  8 83  1  1  0  0  0
  9 10  1  0  0  0  0
  9 84  1  0  0  0  0
  9 85  1  0  0  0  0
 10 11  1  0  0  0  0
 10 86  1  0  0  0  0
 10 87  1  0  0  0  0
 11 12  1  0  0  0  0
 11 88  1  0  0  0  0
 11 89  1  0  0  0  0
 12 13  1  0  0  0  0
 12 90  1  0  0  0  0
 12 91  1  0  0  0  0
 13 14  1  0  0  0  0
 13 92  1  1  0  0  0
 14 15  1  0  0  0  0
 14 93  1  0  0  0  0
 14 94  1  0  0  0  0
 15 16  1  0  0  0  0
 15 95  1  1  0  0  0
 16 17  1  0  0  0  0
 16 24  2  0  0  0  0
 17 18  1  0  0  0  0
 17 96  1  0  0  0  0
 18 19  2  0  0  0  0
 18 23  1  0  0  0  0
 19 20  1  0  0  0  0
 19 97  1  0  0  0  0
 20 21  2  0  0  0  0
 20 25  1  0  0  0  0
 21 22  1  0  0  0  0
 21 98  1  0  0  0  0
 22 23  2  0  0  0  0
 22 99  1  0  0  0  0
 23 24  1  0  0  0  0
 25 26  2  0  0  0  0
 25 30  1  0  0  0  0
 26 27  1  0  0  0  0
 26100  1  0  0  0  0
 27 28  2  0  0  0  0
 27 69  1  0  0  0  0
 28 29  1  0  0  0  0
 28101  1  0  0  0  0
 29 30  2  0  0  0  0
 29102  1  0  0  0  0
 30 31  1  0  0  0  0
 31 32  1  0  0  0  0
 31103  1  0  0  0  0
 31104  1  0  0  0  0
 32 33  1  0  0  0  0
 32105  1  0  0  0  0
 32106  1  0  0  0  0
 33 34  2  0  0  0  0
 33 38  1  0  0  0  0
 34 35  1  0  0  0  0
 34107  1  0  0  0  0
 35 36  2  0  0  0  0
 35108  1  0  0  0  0
 36 37  1  0  0  0  0
 36 68  1  0  0  0  0
 37 38  2  0  0  0  0
 37 39  1  0  0  0  0
 38109  1  0  0  0  0
 39 40  2  0  0  0  0
 39 44  1  0  0  0  0
 40 41  1  0  0  0  0
 40110  1  0  0  0  0
 41 42  2  0  0  0  0
 41111  1  0  0  0  0
 42 43  1  0  0  0  0
 42 47  1  0  0  0  0
 43 44  2  0  0  0  0
 43 45  1  0  0  0  0
 44112  1  0  0  0  0
 45 46  1  0  0  0  0
 45113  1  0  0  0  0
 46 47  2  0  0  0  0
 48 46  1  0  0  0  0
 48 49  1  0  0  0  0
 48 56  1  0  0  0  0
 48114  1  1  0  0  0
 49115  1  0  0  0  0
 49116  1  0  0  0  0
 50 49  1  0  0  0  0
 50 51  1  0  0  0  0
 50 55  1  0  0  0  0
 50117  1  1  0  0  0
 51 52  1  0  0  0  0
 51118  1  0  0  0  0
 51119  1  0  0  0  0
 52 53  1  0  0  0  0
 52120  1  0  0  0  0
 52121  1  0  0  0  0
 53 54  1  0  0  0  0
 53122  1  0  0  0  0
 53123  1  0  0  0  0
 54 55  1  0  0  0  0
 54124  1  0  0  0  0
 54125  1  0  0  0  0
 55 56  1  0  0  0  0
 55126  1  1  0  0  0
 56 57  1  0  0  0  0
 57 58  2  0  0  0  0
 57 59  1  0  0  0  0
 59 60  1  0  0  0  0
 59 63  1  0  0  0  0
 59127  1  1  0  0  0
 60 61  1  0  0  0  0
 60 62  1  0  0  0  0
 60128  1  0  0  0  0
 61129  1  0  0  0  0
 61130  1  0  0  0  0
 61131  1  0  0  0  0
 62132  1  0  0  0  0
 62133  1  0  0  0  0
 62134  1  0  0  0  0
 63 64  1  0  0  0  0
 63135  1  0  0  0  0
 64 65  2  0  0  0  0
 64 66  1  0  0  0  0
 66 67  1  0  0  0  0
 67136  1  0  0  0  0
 67137  1  0  0  0  0
 67138  1  0  0  0  0
 68 69  1  0  0  0  0
 68139  1  0  0  0  0
 68140  1  0  0  0  0
 69141  1  0  0  0  0
 69142  1  0  0  0  0
 70 71  1  0  0  0  0
 70143  1  0  0  0  0
 71 72  2  0  0  0  0
 71 73  1  0  0  0  0
 73 74  1  0  0  0  0
 74144  1  0  0  0  0
 74145  1  0  0  0  0
 74146  1  0  0  0  0
M  END
>  <DRUGBANK_ID>
DB13041

>  <COMMON_NAME>
Odalasvir

>  <CAS_NUMBER>
1415119-52-6

>  <UNII>
OVR52K7BDW

>  <SYNONYMS>
Odalasvir

$$$$
