
 OpenBabel10282417072D

 63 66  0  0  0  0  0  0  0  0999 V2000
    2.1434   -0.4125    0.0000 F   0  0  0  0  0  0  0  0  0  0  0  0
    2.1434   -1.2375    0.0000 C   0  0  0  0  0  0  0  0  0  0  0  0
    2.8579   -1.6500    0.0000 C   0  0  0  0  0  0  0  0  0  0  0  0
    2.8579   -2.4750    0.0000 C   0  0  0  0  0  0  0  0  0  0  0  0
    2.1434   -2.8875    0.0000 C   0  0  0  0  0  0  0  0  0  0  0  0
    1.4289   -2.4750    0.0000 C   0  0  0  0  0  0  0  0  0  0  0  0
    1.4289   -1.6500    0.0000 C   0  0  0  0  0  0  0  0  0  0  0  0
    2.1434   -3.7125    0.0000 C   0  0  0  0  0  0  0  0  0  0  0  0
    2.8579   -4.1250    0.0000 O   0  0  0  0  0  0  0  0  0  0  0  0
    2.8579   -4.9500    0.0000 C   0  0  0  0  0  0  0  0  0  0  0  0
    3.5724   -5.3625    0.0000 C   0  0  0  0  0  0  0  0  0  0  0  0
    3.5724   -6.1875    0.0000 N   0  0  0  0  0  0  0  0  0  0  0  0
    4.2868   -6.6000    0.0000 C   0  0  0  0  0  0  0  0  0  0  0  0
    4.2868   -7.4250    0.0000 C   0  0  0  0  0  0  0  0  0  0  0  0
    3.5724   -7.8375    0.0000 N   0  0  0  0  0  0  0  0  0  0  0  0
    3.5724   -8.6625    0.0000 C   0  0  0  0  0  0  0  0  0  0  0  0
    4.2868   -9.0750    0.0000 C   0  0  0  0  0  0  0  0  0  0  0  0
    5.0013   -8.6625    0.0000 C   0  0  0  0  0  0  0  0  0  0  0  0
    5.7158   -9.0750    0.0000 C   0  0  0  0  0  0  0  0  0  0  0  0
    6.4302   -8.6625    0.0000 C   0  0  0  0  0  0  0  0  0  0  0  0
    7.1447   -9.0750    0.0000 C   0  0  0  0  0  0  0  0  0  0  0  0
    7.1447   -9.9000    0.0000 C   0  0  0  0  0  0  0  0  0  0  0  0
    6.4302  -10.3125    0.0000 C   0  0  0  0  0  0  0  0  0  0  0  0
    5.7158   -9.9000    0.0000 C   0  0  0  0  0  0  0  0  0  0  0  0
    2.8579   -7.4250    0.0000 C   0  0  0  0  0  0  0  0  0  0  0  0
    2.8579   -6.6000    0.0000 C   0  0  0  0  0  0  0  0  0  0  0  0
    1.4289   -4.1250    0.0000 C   0  0  0  0  0  0  0  0  0  0  0  0
    1.4289   -4.9500    0.0000 C   0  0  0  0  0  0  0  0  0  0  0  0
    0.7145   -5.3625    0.0000 C   0  0  0  0  0  0  0  0  0  0  0  0
   -0.0000   -4.9500    0.0000 C   0  0  0  0  0  0  0  0  0  0  0  0
   -0.7145   -5.3625    0.0000 F   0  0  0  0  0  0  0  0  0  0  0  0
   -0.0000   -4.1250    0.0000 C   0  0  0  0  0  0  0  0  0  0  0  0
    0.7145   -3.7125    0.0000 C   0  0  0  0  0  0  0  0  0  0  0  0
    3.7516   -1.1340    0.0000 H   0  0  0  0  0  0  0  0  0  0  0  0
    3.7516   -2.9910    0.0000 H   0  0  0  0  0  0  0  0  0  0  0  0
    0.5352   -2.9910    0.0000 H   0  0  0  0  0  0  0  0  0  0  0  0
    0.5352   -1.1340    0.0000 H   0  0  0  0  0  0  0  0  0  0  0  0
    2.1434   -4.7825    0.0000 H   0  0  0  0  0  0  0  0  0  0  0  0
    1.9313   -5.4850    0.0000 H   0  0  0  0  0  0  0  0  0  0  0  0
    2.8579   -6.0200    0.0000 H   0  0  0  0  0  0  0  0  0  0  0  0
    4.4990   -4.8275    0.0000 H   0  0  0  0  0  0  0  0  0  0  0  0
    4.4990   -5.8975    0.0000 H   0  0  0  0  0  0  0  0  0  0  0  0
    5.2135   -6.0650    0.0000 H   0  0  0  0  0  0  0  0  0  0  0  0
    5.2134   -7.1350    0.0000 H   0  0  0  0  0  0  0  0  0  0  0  0
    5.2135   -7.9600    0.0000 H   0  0  0  0  0  0  0  0  0  0  0  0
    4.2868   -8.4950    0.0000 H   0  0  0  0  0  0  0  0  0  0  0  0
    2.6457   -9.1975    0.0000 H   0  0  0  0  0  0  0  0  0  0  0  0
    3.5724   -9.7325    0.0000 H   0  0  0  0  0  0  0  0  0  0  0  0
    4.2868  -10.1070    0.0000 H   0  0  0  0  0  0  0  0  0  0  0  0
    5.0013   -7.6305    0.0000 H   0  0  0  0  0  0  0  0  0  0  0  0
    6.4302   -7.6305    0.0000 H   0  0  0  0  0  0  0  0  0  0  0  0
    8.0384   -8.5590    0.0000 H   0  0  0  0  0  0  0  0  0  0  0  0
    8.0384  -10.4160    0.0000 H   0  0  0  0  0  0  0  0  0  0  0  0
    6.4302  -11.3445    0.0000 H   0  0  0  0  0  0  0  0  0  0  0  0
    4.8221  -10.4160    0.0000 H   0  0  0  0  0  0  0  0  0  0  0  0
    1.9313   -7.9600    0.0000 H   0  0  0  0  0  0  0  0  0  0  0  0
    1.9313   -6.8900    0.0000 H   0  0  0  0  0  0  0  0  0  0  0  0
    1.9313   -6.0650    0.0000 H   0  0  0  0  0  0  0  0  0  0  0  0
    2.8579   -5.5300    0.0000 H   0  0  0  0  0  0  0  0  0  0  0  0
    2.3226   -5.4660    0.0000 H   0  0  0  0  0  0  0  0  0  0  0  0
    0.7145   -6.3945    0.0000 H   0  0  0  0  0  0  0  0  0  0  0  0
   -0.8937   -3.6090    0.0000 H   0  0  0  0  0  0  0  0  0  0  0  0
    0.7145   -2.6805    0.0000 H   0  0  0  0  0  0  0  0  0  0  0  0
  1  2  1  0  0  0  0
  2  3  2  0  0  0  0
  2  7  1  0  0  0  0
  3  4  1  0  0  0  0
  3 34  1  0  0  0  0
  4  5  2  0  0  0  0
  4 35  1  0  0  0  0
  5  6  1  0  0  0  0
  5  8  1  0  0  0  0
  6  7  2  0  0  0  0
  6 36  1  0  0  0  0
  7 37  1  0  0  0  0
  8  9  1  0  0  0  0
  8 27  1  0  0  0  0
  8 38  1  0  0  0  0
  9 10  1  0  0  0  0
 10 11  1  0  0  0  0
 10 39  1  0  0  0  0
 10 40  1  0  0  0  0
 11 12  1  0  0  0  0
 11 41  1  0  0  0  0
 11 42  1  0  0  0  0
 12 13  1  0  0  0  0
 12 26  1  0  0  0  0
 13 14  1  0  0  0  0
 13 43  1  0  0  0  0
 13 44  1  0  0  0  0
 14 15  1  0  0  0  0
 14 45  1  0  0  0  0
 14 46  1  0  0  0  0
 15 16  1  0  0  0  0
 15 25  1  0  0  0  0
 16 17  1  0  0  0  0
 16 47  1  0  0  0  0
 16 48  1  0  0  0  0
 17 18  2  0  0  0  0
 17 49  1  0  0  0  0
 18 19  1  0  0  0  0
 18 50  1  0  0  0  0
 19 20  2  0  0  0  0
 19 24  1  0  0  0  0
 20 21  1  0  0  0  0
 20 51  1  0  0  0  0
 21 22  2  0  0  0  0
 21 52  1  0  0  0  0
 22 23  1  0  0  0  0
 22 53  1  0  0  0  0
 23 24  2  0  0  0  0
 23 54  1  0  0  0  0
 24 55  1  0  0  0  0
 25 26  1  0  0  0  0
 25 56  1  0  0  0  0
 25 57  1  0  0  0  0
 26 58  1  0  0  0  0
 26 59  1  0  0  0  0
 27 28  2  0  0  0  0
 27 33  1  0  0  0  0
 28 29  1  0  0  0  0
 28 60  1  0  0  0  0
 29 30  2  0  0  0  0
 29 61  1  0  0  0  0
 30 31  1  0  0  0  0
 30 32  1  0  0  0  0
 32 33  2  0  0  0  0
 32 62  1  0  0  0  0
 33 63  1  0  0  0  0
M  END
>  <DRUGBANK_ID>
DB17028

>  <COMMON_NAME>
GBR-12879

>  <CAS_NUMBER>
67469-43-6

>  <UNII>
VNS6D6QMEP

>  <SYNONYMS>
1-(2-(bis(4-fluorophenyl)methoxy)ethyl)-4-(3-phenyl-2-propenyl)piperazine; Piperazine, 1-(2-(bis(4-fluorophenyl)methoxy)ethyl)-4-(3-phenyl-2-propen-1-yl)-; Piperazine, 1-(2-(bis(4-fluorophenyl)methoxy)ethyl)-4-(3-phenyl-2-propenyl)-

$$$$
