
 OpenBabel10282417072D

 65 68  0  0  0  0  0  0  0  0999 V2000
    0.3308    0.4590    0.0000 C   0  0  2  0  0  0  0  0  0  0  0  0
   -0.4111    0.0994    0.0000 C   0  0  1  0  0  0  0  0  0  0  0  0
    1.0751    0.1018    0.0000 C   0  0  0  0  0  0  0  0  0  0  0  0
    0.8449    1.1035    0.0000 C   0  0  1  0  0  0  0  0  0  0  0  0
    0.2198    1.2767    0.0000 C   0  0  0  0  0  0  0  0  0  0  0  0
   -0.9813    0.6957    0.0000 C   0  0  2  0  0  0  0  0  0  0  0  0
   -0.5941   -0.7050    0.0000 C   0  0  1  0  0  0  0  0  0  0  0  0
   -1.2061   -0.1200    0.0000 O   0  0  0  0  0  0  0  0  0  0  0  0
    1.2592   -0.7036    0.0000 C   0  0  1  0  0  0  0  0  0  0  0  0
    1.7203    0.6156    0.0000 O   0  0  0  0  0  0  0  0  0  0  0  0
    1.6708    1.1055    0.0000 C   0  0  0  0  0  0  0  0  0  0  0  0
    0.4858    1.8477    0.0000 C   0  0  0  0  0  0  0  0  0  0  0  0
   -0.5913    1.4220    0.0000 C   0  0  0  0  0  0  0  0  0  0  0  0
   -1.7991    0.5844    0.0000 O   0  0  0  0  0  0  0  0  0  0  0  0
   -0.0802   -1.3480    0.0000 C   0  0  0  0  0  0  0  0  0  0  0  0
   -1.3996   -0.8889    0.0000 O   0  0  0  0  0  0  0  0  0  0  0  0
    2.0015   -0.3440    0.0000 C   0  0  1  0  0  0  0  0  0  0  0  0
    0.7454   -1.3480    0.0000 C   0  0  0  0  0  0  0  0  0  0  0  0
    2.1845    0.4604    0.0000 C   0  0  2  0  0  0  0  0  0  0  0  0
   -0.9503    2.1662    0.0000 C   0  0  0  0  0  0  0  0  0  0  0  0
   -2.1838    1.3158    0.0000 C   0  0  0  0  0  0  0  0  0  0  0  0
   -0.4372   -2.0924    0.0000 C   0  0  0  0  0  0  0  0  0  0  0  0
    2.7895   -0.1002    0.0000 C   0  0  0  0  0  0  0  0  0  0  0  0
   -3.0080    1.3483    0.0000 C   0  0  0  0  0  0  0  0  0  0  0  0
   -1.7426    2.0120    0.0000 O   0  0  0  0  0  0  0  0  0  0  0  0
    0.0288   -2.7740    0.0000 O   0  0  0  0  0  0  0  0  0  0  0  0
    3.4495    0.3976    0.0000 C   0  0  0  0  0  0  0  0  0  0  0  0
    3.1693   -0.8345    0.0000 C   0  0  0  0  0  0  0  0  0  0  0  0
   -3.3910    2.0774    0.0000 C   0  0  0  0  0  0  0  0  0  0  0  0
   -3.4495    0.6503    0.0000 C   0  0  0  0  0  0  0  0  0  0  0  0
   -2.9521    2.7740    0.0000 C   0  0  0  0  0  0  0  0  0  0  0  0
    2.3053   -1.1127    0.0000 H   0  0  0  0  0  0  0  0  0  0  0  0
    2.7910    1.0221    0.0000 H   0  0  0  0  0  0  0  0  0  0  0  0
    1.8426   -1.2869    0.0000 H   0  0  0  0  0  0  0  0  0  0  0  0
   -0.2184    1.2230    0.0000 H   0  0  0  0  0  0  0  0  0  0  0  0
    0.9648    1.9908    0.0000 H   0  0  0  0  0  0  0  0  0  0  0  0
   -1.3343   -0.3144    0.0000 H   0  0  0  0  0  0  0  0  0  0  0  0
   -1.3510    0.0513    0.0000 H   0  0  0  0  0  0  0  0  0  0  0  0
   -1.8971    0.5607    0.0000 H   0  0  0  0  0  0  0  0  0  0  0  0
    2.1342    2.0699    0.0000 H   0  0  0  0  0  0  0  0  0  0  0  0
    2.7341    1.2254    0.0000 H   0  0  0  0  0  0  0  0  0  0  0  0
    1.0879    2.7322    0.0000 H   0  0  0  0  0  0  0  0  0  0  0  0
   -0.5813    1.9268    0.0000 H   0  0  0  0  0  0  0  0  0  0  0  0
    0.0208    2.8114    0.0000 H   0  0  0  0  0  0  0  0  0  0  0  0
   -2.0594   -0.1779    0.0000 H   0  0  0  0  0  0  0  0  0  0  0  0
    1.1932   -2.2778    0.0000 H   0  0  0  0  0  0  0  0  0  0  0  0
   -0.3481    3.0507    0.0000 H   0  0  0  0  0  0  0  0  0  0  0  0
   -2.0174    2.2454    0.0000 H   0  0  0  0  0  0  0  0  0  0  0  0
   -1.4152    3.1299    0.0000 H   0  0  0  0  0  0  0  0  0  0  0  0
   -1.5041   -2.1739    0.0000 H   0  0  0  0  0  0  0  0  0  0  0  0
   -0.9001   -3.0571    0.0000 H   0  0  0  0  0  0  0  0  0  0  0  0
   -0.3909   -3.6485    0.0000 H   0  0  0  0  0  0  0  0  0  0  0  0
    4.4346   -0.0200    0.0000 H   0  0  0  0  0  0  0  0  0  0  0  0
    3.3186    1.4596    0.0000 H   0  0  0  0  0  0  0  0  0  0  0  0
    4.3038    1.0419    0.0000 H   0  0  0  0  0  0  0  0  0  0  0  0
    2.5920   -1.7354    0.0000 H   0  0  0  0  0  0  0  0  0  0  0  0
    4.2382   -0.8840    0.0000 H   0  0  0  0  0  0  0  0  0  0  0  0
    3.6609   -1.7849    0.0000 H   0  0  0  0  0  0  0  0  0  0  0  0
   -4.4222    2.1179    0.0000 H   0  0  0  0  0  0  0  0  0  0  0  0
   -4.5186    0.6935    0.0000 H   0  0  0  0  0  0  0  0  0  0  0  0
   -2.9524   -0.2972    0.0000 H   0  0  0  0  0  0  0  0  0  0  0  0
   -4.0215   -0.2540    0.0000 H   0  0  0  0  0  0  0  0  0  0  0  0
   -1.8829    2.7327    0.0000 H   0  0  0  0  0  0  0  0  0  0  0  0
   -3.4509    3.7206    0.0000 H   0  0  0  0  0  0  0  0  0  0  0  0
   -2.3817    3.6793    0.0000 H   0  0  0  0  0  0  0  0  0  0  0  0
  1  2  1  0  0  0  0
  1  3  1  6  0  0  0
  1  4  1  0  0  0  0
  1  5  1  0  0  0  0
  2  6  1  0  0  0  0
  2  7  1  0  0  0  0
  2  8  1  1  0  0  0
  3 10  2  0  0  0  0
  4 11  1  0  0  0  0
  4 12  1  0  0  0  0
  4 35  1  1  0  0  0
  5 13  2  0  0  0  0
  5 36  1  0  0  0  0
  6 13  1  0  0  0  0
  6 14  1  0  0  0  0
  6 37  1  6  0  0  0
  7 15  1  0  0  0  0
  7 16  1  0  0  0  0
  7 38  1  6  0  0  0
  8 39  1  0  0  0  0
  9  3  1  0  0  0  0
  9 17  1  0  0  0  0
  9 18  1  0  0  0  0
  9 34  1  6  0  0  0
 11 19  1  0  0  0  0
 11 40  1  0  0  0  0
 11 41  1  0  0  0  0
 12 42  1  0  0  0  0
 12 43  1  0  0  0  0
 12 44  1  0  0  0  0
 13 20  1  0  0  0  0
 14 21  1  0  0  0  0
 15 18  2  0  0  0  0
 15 22  1  0  0  0  0
 16 45  1  0  0  0  0
 17 19  1  0  0  0  0
 17 23  1  0  0  0  0
 17 32  1  6  0  0  0
 18 46  1  0  0  0  0
 19 23  1  0  0  0  0
 19 33  1  6  0  0  0
 20 47  1  0  0  0  0
 20 48  1  0  0  0  0
 20 49  1  0  0  0  0
 21 24  1  0  0  0  0
 21 25  2  0  0  0  0
 22 26  1  0  0  0  0
 22 50  1  0  0  0  0
 22 51  1  0  0  0  0
 23 27  1  0  0  0  0
 23 28  1  0  0  0  0
 24 29  2  0  0  0  0
 24 30  1  0  0  0  0
 26 52  1  0  0  0  0
 27 53  1  0  0  0  0
 27 54  1  0  0  0  0
 27 55  1  0  0  0  0
 28 56  1  0  0  0  0
 28 57  1  0  0  0  0
 28 58  1  0  0  0  0
 29 31  1  0  0  0  0
 29 59  1  0  0  0  0
 30 60  1  0  0  0  0
 30 61  1  0  0  0  0
 30 62  1  0  0  0  0
 31 63  1  0  0  0  0
 31 64  1  0  0  0  0
 31 65  1  0  0  0  0
M  END
>  <DRUGBANK_ID>
DB05013

>  <COMMON_NAME>
Ingenol mebutate

>  <CAS_NUMBER>
75567-37-2

>  <UNII>
7686S50JAH

>  <SYNONYMS>
3-Angeloylingenol; 3-Ingenyl angelate; Ingenol 3-angelate; Ingenol mebutate; Ingenol mebutato; Ingenoli mebutas; Mébutate d'ingénol; Mebutato de ingenol

$$$$
