
 OpenBabel10282417072D

 66 67  0  0  0  0  0  0  0  0999 V2000
   -4.2283    1.0430    0.0000 C   0  0  0  0  0  0  0  0  0  0  0  0
   -3.7333    0.3417    0.0000 C   0  0  2  0  0  0  0  0  0  0  0  0
   -2.9496    0.5893    0.0000 C   0  0  1  0  0  0  0  0  0  0  0  0
   -2.9496    1.4144    0.0000 C   0  0  2  0  0  0  0  0  0  0  0  0
   -3.7333    1.7030    0.0000 C   0  0  1  0  0  0  0  0  0  0  0  0
   -2.2895    1.9094    0.0000 C   0  0  0  0  0  0  0  0  0  0  0  0
   -1.5470    1.5381    0.0000 C   0  0  0  0  0  0  0  0  0  0  0  0
   -0.7219    1.5381    0.0000 C   0  0  0  0  0  0  0  0  0  0  0  0
   -0.0205    1.9506    0.0000 C   0  0  0  0  0  0  0  0  0  0  0  0
    0.7219    1.5381    0.0000 C   0  0  0  0  0  0  0  0  0  0  0  0
    1.4232    1.9506    0.0000 C   0  0  0  0  0  0  0  0  0  0  0  0
    2.1245    1.5794    0.0000 C   0  0  0  0  0  0  0  0  0  0  0  0
    2.8258    1.9506    0.0000 O   0  0  0  0  0  0  0  0  0  0  0  0
    2.1245    0.7543    0.0000 O   0  0  0  0  0  0  0  0  0  0  0  0
    3.5271    1.5794    0.0000 C   0  0  0  0  0  0  0  0  0  0  0  0
    4.2283    1.9506    0.0000 C   0  0  0  0  0  0  0  0  0  0  0  0
    3.5271    0.7543    0.0000 C   0  0  0  0  0  0  0  0  0  0  0  0
   -2.2846    0.1019    0.0000 C   0  0  0  0  0  0  0  0  0  0  0  0
   -1.5616    0.4825    0.0000 C   0  0  0  0  0  0  0  0  0  0  0  0
   -0.8678    0.0451    0.0000 C   0  0  0  0  0  0  0  0  0  0  0  0
   -0.1535    0.4209    0.0000 C   0  0  0  0  0  0  0  0  0  0  0  0
    0.5441   -0.0192    0.0000 O   0  0  0  0  0  0  0  0  0  0  0  0
   -1.4512   -0.5382    0.0000 F   0  0  0  0  0  0  0  0  0  0  0  0
   -0.2844   -0.5382    0.0000 F   0  0  0  0  0  0  0  0  0  0  0  0
    0.5441   -0.8443    0.0000 C   0  0  0  0  0  0  0  0  0  0  0  0
   -3.9670    2.4944    0.0000 O   0  0  0  0  0  0  0  0  0  0  0  0
   -3.9969   -0.4400    0.0000 O   0  0  0  0  0  0  0  0  0  0  0  0
   -0.1703   -1.2568    0.0000 C   0  0  0  0  0  0  0  0  0  0  0  0
   -0.1703   -2.0818    0.0000 C   0  0  0  0  0  0  0  0  0  0  0  0
    0.5441   -2.4944    0.0000 C   0  0  0  0  0  0  0  0  0  0  0  0
    1.2586   -2.0818    0.0000 C   0  0  0  0  0  0  0  0  0  0  0  0
    1.2586   -1.2568    0.0000 C   0  0  0  0  0  0  0  0  0  0  0  0
   -5.2982    1.0584    0.0000 H   0  0  0  0  0  0  0  0  0  0  0  0
   -4.6999    2.0035    0.0000 H   0  0  0  0  0  0  0  0  0  0  0  0
   -4.7921    0.1874    0.0000 H   0  0  0  0  0  0  0  0  0  0  0  0
   -3.1235   -0.4665    0.0000 H   0  0  0  0  0  0  0  0  0  0  0  0
   -1.9926    0.9358    0.0000 H   0  0  0  0  0  0  0  0  0  0  0  0
   -2.9523    2.4343    0.0000 H   0  0  0  0  0  0  0  0  0  0  0  0
   -2.3855    2.9751    0.0000 H   0  0  0  0  0  0  0  0  0  0  0  0
   -1.4055    2.5122    0.0000 H   0  0  0  0  0  0  0  0  0  0  0  0
   -1.7841    0.5337    0.0000 H   0  0  0  0  0  0  0  0  0  0  0  0
   -0.4508    0.5423    0.0000 H   0  0  0  0  0  0  0  0  0  0  0  0
   -0.0336    3.0205    0.0000 H   0  0  0  0  0  0  0  0  0  0  0  0
    0.8984    2.4988    0.0000 H   0  0  0  0  0  0  0  0  0  0  0  0
    0.7350    0.4682    0.0000 H   0  0  0  0  0  0  0  0  0  0  0  0
    1.6539    1.0126    0.0000 H   0  0  0  0  0  0  0  0  0  0  0  0
    1.3992    3.0203    0.0000 H   0  0  0  0  0  0  0  0  0  0  0  0
    2.3336    2.5128    0.0000 H   0  0  0  0  0  0  0  0  0  0  0  0
    4.4438    1.0275    0.0000 H   0  0  0  0  0  0  0  0  0  0  0  0
    5.1347    1.3819    0.0000 H   0  0  0  0  0  0  0  0  0  0  0  0
    4.2676    3.0199    0.0000 H   0  0  0  0  0  0  0  0  0  0  0  0
    5.1740    2.4512    0.0000 H   0  0  0  0  0  0  0  0  0  0  0  0
    2.6005    0.2193    0.0000 H   0  0  0  0  0  0  0  0  0  0  0  0
    4.4537    0.2193    0.0000 H   0  0  0  0  0  0  0  0  0  0  0  0
    3.5271   -0.3157    0.0000 H   0  0  0  0  0  0  0  0  0  0  0  0
   -2.3609   -0.9273    0.0000 H   0  0  0  0  0  0  0  0  0  0  0  0
   -1.5214    1.5137    0.0000 H   0  0  0  0  0  0  0  0  0  0  0  0
   -0.1115    1.4901    0.0000 H   0  0  0  0  0  0  0  0  0  0  0  0
    0.7934    0.9191    0.0000 H   0  0  0  0  0  0  0  0  0  0  0  0
   -3.2987    3.1975    0.0000 H   0  0  0  0  0  0  0  0  0  0  0  0
   -4.9479   -0.6311    0.0000 H   0  0  0  0  0  0  0  0  0  0  0  0
   -1.0640   -0.7408    0.0000 H   0  0  0  0  0  0  0  0  0  0  0  0
   -1.0641   -2.5977    0.0000 H   0  0  0  0  0  0  0  0  0  0  0  0
    0.5441   -3.5264    0.0000 H   0  0  0  0  0  0  0  0  0  0  0  0
    2.1524   -2.5978    0.0000 H   0  0  0  0  0  0  0  0  0  0  0  0
    2.1523   -0.7408    0.0000 H   0  0  0  0  0  0  0  0  0  0  0  0
  1  2  1  0  0  0  0
  1  5  1  0  0  0  0
  1 33  1  0  0  0  0
  1 34  1  0  0  0  0
  2  3  1  0  0  0  0
  2 27  1  0  0  0  0
  2 35  1  1  0  0  0
  3  4  1  0  0  0  0
  3 18  1  0  0  0  0
  3 36  1  6  0  0  0
  4  5  1  0  0  0  0
  4  6  1  0  0  0  0
  4 37  1  1  0  0  0
  5 26  1  0  0  0  0
  5 38  1  1  0  0  0
  6  7  1  0  0  0  0
  6 39  1  0  0  0  0
  6 40  1  0  0  0  0
  7  8  2  0  0  0  0
  7 41  1  0  0  0  0
  8  9  1  0  0  0  0
  8 42  1  0  0  0  0
  9 10  1  0  0  0  0
  9 43  1  0  0  0  0
  9 44  1  0  0  0  0
 10 11  1  0  0  0  0
 10 45  1  0  0  0  0
 10 46  1  0  0  0  0
 11 12  1  0  0  0  0
 11 47  1  0  0  0  0
 11 48  1  0  0  0  0
 12 13  1  0  0  0  0
 12 14  2  0  0  0  0
 13 15  1  0  0  0  0
 15 16  1  0  0  0  0
 15 17  1  0  0  0  0
 15 49  1  0  0  0  0
 16 50  1  0  0  0  0
 16 51  1  0  0  0  0
 16 52  1  0  0  0  0
 17 53  1  0  0  0  0
 17 54  1  0  0  0  0
 17 55  1  0  0  0  0
 18 19  2  0  0  0  0
 18 56  1  0  0  0  0
 19 20  1  0  0  0  0
 19 57  1  0  0  0  0
 20 21  1  0  0  0  0
 20 23  1  0  0  0  0
 20 24  1  0  0  0  0
 21 22  1  0  0  0  0
 21 58  1  0  0  0  0
 21 59  1  0  0  0  0
 22 25  1  0  0  0  0
 25 28  2  0  0  0  0
 25 32  1  0  0  0  0
 26 60  1  0  0  0  0
 27 61  1  0  0  0  0
 28 29  1  0  0  0  0
 28 62  1  0  0  0  0
 29 30  2  0  0  0  0
 29 63  1  0  0  0  0
 30 31  1  0  0  0  0
 30 64  1  0  0  0  0
 31 32  2  0  0  0  0
 31 65  1  0  0  0  0
 32 66  1  0  0  0  0
M  END
>  <DRUGBANK_ID>
DB08819

>  <COMMON_NAME>
Tafluprost

>  <CAS_NUMBER>
209860-87-7

>  <UNII>
1O6WQ6T7G3

>  <SYNONYMS>
Tafluprost

$$$$
