
 OpenBabel10282417072D

 37 38  0  0  0  0  0  0  0  0999 V2000
   -0.3268   -0.8109    0.0000 C   0  0  0  0  0  0  0  0  0  0  0  0
   -0.3268    0.0140    0.0000 C   0  0  0  0  0  0  0  0  0  0  0  0
    0.3875   -1.2234    0.0000 N   0  0  0  0  0  0  0  0  0  0  0  0
   -1.0413   -1.2234    0.0000 C   0  0  0  0  0  0  0  0  0  0  0  0
   -1.0413    0.4265    0.0000 C   0  0  0  0  0  0  0  0  0  0  0  0
    0.3876    0.4265    0.0000 S   0  0  0  0  0  0  0  0  0  0  0  0
    1.1020   -0.8109    0.0000 C   0  0  3  0  0  0  0  0  0  0  0  0
   -1.7558   -0.8109    0.0000 C   0  0  0  0  0  0  0  0  0  0  0  0
   -1.7558    0.0140    0.0000 C   0  0  0  0  0  0  0  0  0  0  0  0
    1.1020    0.0140    0.0000 N   0  0  0  0  0  0  0  0  0  0  0  0
    0.9179    1.0585    0.0000 O   0  0  0  0  0  0  0  0  0  0  0  0
   -0.1426    1.0585    0.0000 O   0  0  0  0  0  0  0  0  0  0  0  0
    1.8165   -1.2234    0.0000 C   0  0  0  0  0  0  0  0  0  0  0  0
   -2.4702   -1.2233    0.0000 Cl  0  0  0  0  0  0  0  0  0  0  0  0
   -2.4702    0.4266    0.0000 S   0  0  0  0  0  0  0  0  0  0  0  0
    2.5309   -0.8109    0.0000 C   0  0  0  0  0  0  0  0  0  0  0  0
   -2.2567    1.2234    0.0000 N   0  0  0  0  0  0  0  0  0  0  0  0
   -3.2454    0.7087    0.0000 O   0  0  0  0  0  0  0  0  0  0  0  0
   -2.8189   -0.3210    0.0000 O   0  0  0  0  0  0  0  0  0  0  0  0
    3.2454   -1.2234    0.0000 C   0  0  0  0  0  0  0  0  0  0  0  0
    2.5310    0.0140    0.0000 C   0  0  0  0  0  0  0  0  0  0  0  0
    0.3874   -2.2079    0.0000 H   0  0  0  0  0  0  0  0  0  0  0  0
   -1.0413   -2.2554    0.0000 H   0  0  0  0  0  0  0  0  0  0  0  0
   -1.0413    1.4585    0.0000 H   0  0  0  0  0  0  0  0  0  0  0  0
    1.1020   -1.8809    0.0000 H   0  0  0  0  0  0  0  0  0  0  0  0
    1.9854    0.5240    0.0000 H   0  0  0  0  0  0  0  0  0  0  0  0
    1.8165   -2.2934    0.0000 H   0  0  0  0  0  0  0  0  0  0  0  0
    2.7432   -1.7584    0.0000 H   0  0  0  0  0  0  0  0  0  0  0  0
    3.4576   -0.2759    0.0000 H   0  0  0  0  0  0  0  0  0  0  0  0
   -1.2715    1.4874    0.0000 H   0  0  0  0  0  0  0  0  0  0  0  0
   -2.9780    1.9446    0.0000 H   0  0  0  0  0  0  0  0  0  0  0  0
    3.2454   -2.2934    0.0000 H   0  0  0  0  0  0  0  0  0  0  0  0
    4.1720   -0.6884    0.0000 H   0  0  0  0  0  0  0  0  0  0  0  0
    4.1721   -1.7584    0.0000 H   0  0  0  0  0  0  0  0  0  0  0  0
    3.4577    0.5489    0.0000 H   0  0  0  0  0  0  0  0  0  0  0  0
    1.6044    0.5491    0.0000 H   0  0  0  0  0  0  0  0  0  0  0  0
    2.5311    1.0840    0.0000 H   0  0  0  0  0  0  0  0  0  0  0  0
  1  2  2  0  0  0  0
  1  3  1  0  0  0  0
  1  4  1  0  0  0  0
  2  5  1  0  0  0  0
  2  6  1  0  0  0  0
  3  7  1  0  0  0  0
  3 22  1  0  0  0  0
  4  8  2  0  0  0  0
  4 23  1  0  0  0  0
  5  9  2  0  0  0  0
  5 24  1  0  0  0  0
  6 10  1  0  0  0  0
  6 11  2  0  0  0  0
  6 12  2  0  0  0  0
  7 13  1  0  0  0  0
  7 10  1  0  0  0  0
  7 25  1  0  0  0  0
  8 14  1  0  0  0  0
  8  9  1  0  0  0  0
  9 15  1  0  0  0  0
 10 26  1  0  0  0  0
 13 16  1  0  0  0  0
 13 27  1  0  0  0  0
 13 28  1  0  0  0  0
 15 17  1  0  0  0  0
 15 18  2  0  0  0  0
 15 19  2  0  0  0  0
 16 20  1  0  0  0  0
 16 21  1  0  0  0  0
 16 29  1  0  0  0  0
 17 30  1  0  0  0  0
 17 31  1  0  0  0  0
 20 32  1  0  0  0  0
 20 33  1  0  0  0  0
 20 34  1  0  0  0  0
 21 35  1  0  0  0  0
 21 36  1  0  0  0  0
 21 37  1  0  0  0  0
M  END
>  <DRUGBANK_ID>
DB15861

>  <COMMON_NAME>
Buthiazide

>  <CAS_NUMBER>
2043-38-1

>  <UNII>
W00SSD35VW

>  <SYNONYMS>
Buthiazide; Butizida; Butizide; Butizidum; Isobutylhydrochlorothiazide

$$$$
