
 OpenBabel10282417072D

 45 46  0  0  0  0  0  0  0  0999 V2000
   -2.5006   -0.4125    0.0000 C   0  0  0  0  0  0  0  0  0  0  0  0
   -2.5006   -1.2375    0.0000 C   0  0  0  0  0  0  0  0  0  0  0  0
    0.3572   -0.4125    0.0000 C   0  0  0  0  0  0  0  0  0  0  0  0
    3.2151   -0.4125    0.0000 C   0  0  0  0  0  0  0  0  0  0  0  0
   -1.7861    0.0000    0.0000 C   0  0  0  0  0  0  0  0  0  0  0  0
    1.0717    0.0000    0.0000 C   0  0  1  0  0  0  0  0  0  0  0  0
    2.5006    0.0000    0.0000 C   0  0  2  0  0  0  0  0  0  0  0  0
   -3.2151   -1.6500    0.0000 C   0  0  0  0  0  0  0  0  0  0  0  0
   -1.0717    1.2375    0.0000 C   0  0  0  0  0  0  0  0  0  0  0  0
    1.7861   -0.4125    0.0000 C   0  0  1  0  0  0  0  0  0  0  0  0
   -0.3572    0.8250    0.0000 C   0  0  0  0  0  0  0  0  0  0  0  0
   -1.0717    2.0625    0.0000 C   0  0  0  0  0  0  0  0  0  0  0  0
   -1.0717   -0.4125    0.0000 C   0  0  0  0  0  0  0  0  0  0  0  0
    0.3572    2.0625    0.0000 C   0  0  0  0  0  0  0  0  0  0  0  0
   -1.7861    0.8250    0.0000 N   0  0  0  0  0  0  0  0  0  0  0  0
    0.3572    1.2375    0.0000 N   0  0  0  0  0  0  0  0  0  0  0  0
   -0.3572    2.4750    0.0000 N   0  0  0  0  0  0  0  0  0  0  0  0
   -0.3572    0.0000    0.0000 N   0  0  0  0  0  0  0  0  0  0  0  0
    3.9295    0.0000    0.0000 O   0  0  0  0  0  0  0  0  0  0  0  0
    1.0717    0.8250    0.0000 O   0  0  0  0  0  0  0  0  0  0  0  0
    2.5006    0.8250    0.0000 O   0  0  0  0  0  0  0  0  0  0  0  0
   -3.2151   -2.4750    0.0000 O   0  0  0  0  0  0  0  0  0  0  0  0
   -3.9295   -1.2375    0.0000 O   0  0  0  0  0  0  0  0  0  0  0  0
    1.7861   -1.2375    0.0000 O   0  0  0  0  0  0  0  0  0  0  0  0
   -1.7861    2.4750    0.0000 O   0  0  0  0  0  0  0  0  0  0  0  0
   -1.0717   -1.2375    0.0000 O   0  0  0  0  0  0  0  0  0  0  0  0
    1.0717    2.4750    0.0000 O   0  0  0  0  0  0  0  0  0  0  0  0
    1.0717   -0.8250    0.0000 H   0  0  0  0  0  0  0  0  0  0  0  0
    2.5006   -0.8250    0.0000 H   0  0  0  0  0  0  0  0  0  0  0  0
    1.7861    0.4125    0.0000 H   0  0  0  0  0  0  0  0  0  0  0  0
   -3.4272    0.1225    0.0000 H   0  0  0  0  0  0  0  0  0  0  0  0
   -2.5006    0.6575    0.0000 H   0  0  0  0  0  0  0  0  0  0  0  0
   -1.5740   -1.7725    0.0000 H   0  0  0  0  0  0  0  0  0  0  0  0
   -2.5006   -2.3075    0.0000 H   0  0  0  0  0  0  0  0  0  0  0  0
    0.3572   -1.4825    0.0000 H   0  0  0  0  0  0  0  0  0  0  0  0
   -0.5695   -0.9475    0.0000 H   0  0  0  0  0  0  0  0  0  0  0  0
    3.2151   -1.4825    0.0000 H   0  0  0  0  0  0  0  0  0  0  0  0
    4.1418   -0.9475    0.0000 H   0  0  0  0  0  0  0  0  0  0  0  0
    4.7696   -0.4850    0.0000 H   0  0  0  0  0  0  0  0  0  0  0  0
    1.9117    1.3100    0.0000 H   0  0  0  0  0  0  0  0  0  0  0  0
    3.3406    1.3100    0.0000 H   0  0  0  0  0  0  0  0  0  0  0  0
   -3.9295   -0.3005    0.0000 H   0  0  0  0  0  0  0  0  0  0  0  0
    0.9461   -1.7225    0.0000 H   0  0  0  0  0  0  0  0  0  0  0  0
   -1.7861    3.4120    0.0000 H   0  0  0  0  0  0  0  0  0  0  0  0
   -1.8832   -1.7060    0.0000 H   0  0  0  0  0  0  0  0  0  0  0  0
  1 31  1  0  0  0  0
  1 32  1  0  0  0  0
  2  1  1  0  0  0  0
  2 33  1  0  0  0  0
  2 34  1  0  0  0  0
  3 35  1  0  0  0  0
  3 36  1  0  0  0  0
  4 37  1  0  0  0  0
  4 38  1  0  0  0  0
  5  1  1  0  0  0  0
  6  3  1  0  0  0  0
  6 20  1  0  0  0  0
  6 28  1  1  0  0  0
  7  4  1  0  0  0  0
  7 21  1  0  0  0  0
  7 29  1  1  0  0  0
  8  2  1  0  0  0  0
 10  6  1  0  0  0  0
 10  7  1  0  0  0  0
 10 24  1  0  0  0  0
 10 30  1  6  0  0  0
 11  9  1  0  0  0  0
 12  9  1  0  0  0  0
 13  5  2  0  0  0  0
 15  5  1  0  0  0  0
 15  9  2  0  0  0  0
 16 11  2  0  0  0  0
 16 14  1  0  0  0  0
 17 12  2  0  0  0  0
 17 14  1  0  0  0  0
 18  3  1  0  0  0  0
 18 11  1  0  0  0  0
 18 13  1  0  0  0  0
 19  4  1  0  0  0  0
 19 39  1  0  0  0  0
 20 40  1  0  0  0  0
 21 41  1  0  0  0  0
 22  8  2  0  0  0  0
 23  8  1  0  0  0  0
 23 42  1  0  0  0  0
 24 43  1  0  0  0  0
 25 12  1  0  0  0  0
 25 44  1  0  0  0  0
 26 13  1  0  0  0  0
 26 45  1  0  0  0  0
 27 14  2  0  0  0  0
M  END
>  <DRUGBANK_ID>
DB04262

>  <SECONDARY_ACCESSION_NUMBERS>
EXPT02791

>  <COMMON_NAME>
3-(7-hydroxy-8-ribityllumazine-6-yl) propionic acid

$$$$
