
 OpenBabel10282417072D

 26 25  0  0  0  0  0  0  0  0999 V2000
    6.9534    2.1582    0.0000 Br  0  0  0  0  0  0  0  0  0  0  0  0
    4.8099    0.9207    0.0000 F   0  0  0  0  0  0  0  0  0  0  0  0
    5.6350   -0.5082    0.0000 F   0  0  0  0  0  0  0  0  0  0  0  0
    4.0955    0.5082    0.0000 F   0  0  0  0  0  0  0  0  0  0  0  0
    4.9205   -0.9207    0.0000 F   0  0  0  0  0  0  0  0  0  0  0  0
    6.3495   -0.0957    0.0000 F   0  0  0  0  0  0  0  0  0  0  0  0
    5.5245    1.3332    0.0000 F   0  0  0  0  0  0  0  0  0  0  0  0
    3.3810    0.0957    0.0000 F   0  0  0  0  0  0  0  0  0  0  0  0
    4.2060   -1.3332    0.0000 F   0  0  0  0  0  0  0  0  0  0  0  0
    6.2390    1.7457    0.0000 F   0  0  0  0  0  0  0  0  0  0  0  0
    7.0640    0.3168    0.0000 F   0  0  0  0  0  0  0  0  0  0  0  0
    3.4916   -1.7457    0.0000 F   0  0  0  0  0  0  0  0  0  0  0  0
    2.6665   -0.3168    0.0000 F   0  0  0  0  0  0  0  0  0  0  0  0
    8.0804    1.8563    0.0000 F   0  0  0  0  0  0  0  0  0  0  0  0
    7.7784    0.7293    0.0000 F   0  0  0  0  0  0  0  0  0  0  0  0
    1.6500   -1.8563    0.0000 F   0  0  0  0  0  0  0  0  0  0  0  0
    1.9520   -0.7293    0.0000 F   0  0  0  0  0  0  0  0  0  0  0  0
    2.7770   -2.1582    0.0000 F   0  0  0  0  0  0  0  0  0  0  0  0
    5.2224    0.2063    0.0000 C   0  0  0  0  0  0  0  0  0  0  0  0
    4.5080   -0.2063    0.0000 C   0  0  0  0  0  0  0  0  0  0  0  0
    5.9370    0.6188    0.0000 C   0  0  0  0  0  0  0  0  0  0  0  0
    3.7935   -0.6188    0.0000 C   0  0  0  0  0  0  0  0  0  0  0  0
    6.6515    1.0313    0.0000 C   0  0  0  0  0  0  0  0  0  0  0  0
    3.0791   -1.0313    0.0000 C   0  0  0  0  0  0  0  0  0  0  0  0
    7.3659    1.4438    0.0000 C   0  0  0  0  0  0  0  0  0  0  0  0
    2.3645   -1.4438    0.0000 C   0  0  0  0  0  0  0  0  0  0  0  0
  1 25  1  0  0  0  0
  2 19  1  0  0  0  0
  3 19  1  0  0  0  0
  4 20  1  0  0  0  0
  5 20  1  0  0  0  0
  6 21  1  0  0  0  0
  7 21  1  0  0  0  0
  8 22  1  0  0  0  0
  9 22  1  0  0  0  0
 10 23  1  0  0  0  0
 11 23  1  0  0  0  0
 12 24  1  0  0  0  0
 13 24  1  0  0  0  0
 14 25  1  0  0  0  0
 15 25  1  0  0  0  0
 16 26  1  0  0  0  0
 17 26  1  0  0  0  0
 18 26  1  0  0  0  0
 19 20  1  0  0  0  0
 19 21  1  0  0  0  0
 20 22  1  0  0  0  0
 21 23  1  0  0  0  0
 22 24  1  0  0  0  0
 23 25  1  0  0  0  0
 24 26  1  0  0  0  0
M  END
>  <DRUGBANK_ID>
DB05791

>  <SECONDARY_ACCESSION_NUMBERS>
DB06476

>  <COMMON_NAME>
Perflubron

>  <CAS_NUMBER>
423-55-2

>  <UNII>
Q1D0Q7R4D9

>  <SYNONYMS>
Perflubron; Perfluorooctyl-bromide

$$$$
