
 OpenBabel10282417072D

 47 49  0  0  0  0  0  0  0  0999 V2000
    0.6683   -0.9580    0.0000 O   0  0  0  0  0  0  0  0  0  0  0  0
   -1.9336    1.6219    0.0000 N   0  0  0  0  0  0  0  0  0  0  0  0
    0.1869   -0.2941    0.0000 C   0  0  3  0  0  0  0  0  0  0  0  0
    0.1869   -1.6219    0.0000 C   0  0  0  0  0  0  0  0  0  0  0  0
   -0.5937   -0.5455    0.0000 C   0  0  0  0  0  0  0  0  0  0  0  0
   -0.5937   -1.3705    0.0000 C   0  0  0  0  0  0  0  0  0  0  0  0
   -0.0667    0.4909    0.0000 C   0  0  0  0  0  0  0  0  0  0  0  0
    0.8551    0.1897    0.0000 C   0  0  0  0  0  0  0  0  0  0  0  0
   -0.8734    0.6639    0.0000 C   0  0  0  0  0  0  0  0  0  0  0  0
    0.8551   -2.1057    0.0000 C   0  0  0  0  0  0  0  0  0  0  0  0
   -0.0667   -2.4070    0.0000 C   0  0  0  0  0  0  0  0  0  0  0  0
   -1.3082   -0.1329    0.0000 C   0  0  0  0  0  0  0  0  0  0  0  0
   -1.3082   -1.7830    0.0000 C   0  0  0  0  0  0  0  0  0  0  0  0
   -1.1270    1.4490    0.0000 C   0  0  0  0  0  0  0  0  0  0  0  0
    0.7703    1.0103    0.0000 C   0  0  0  0  0  0  0  0  0  0  0  0
    1.6082   -0.1471    0.0000 C   0  0  0  0  0  0  0  0  0  0  0  0
   -2.0228   -0.5455    0.0000 C   0  0  0  0  0  0  0  0  0  0  0  0
   -2.0228   -1.3705    0.0000 C   0  0  0  0  0  0  0  0  0  0  0  0
    1.4386    1.4941    0.0000 C   0  0  0  0  0  0  0  0  0  0  0  0
    2.2766    0.3366    0.0000 C   0  0  0  0  0  0  0  0  0  0  0  0
    2.1918    1.1572    0.0000 C   0  0  0  0  0  0  0  0  0  0  0  0
   -2.1872    2.4070    0.0000 C   0  0  0  0  0  0  0  0  0  0  0  0
   -2.2766    1.2424    0.0000 H   0  0  0  0  0  0  0  0  0  0  0  0
    0.6507    1.2848    0.0000 H   0  0  0  0  0  0  0  0  0  0  0  0
   -0.3955    1.5091    0.0000 H   0  0  0  0  0  0  0  0  0  0  0  0
   -1.5908   -0.1300    0.0000 H   0  0  0  0  0  0  0  0  0  0  0  0
   -1.9196    0.8882    0.0000 H   0  0  0  0  0  0  0  0  0  0  0  0
    0.7450   -3.1700    0.0000 H   0  0  0  0  0  0  0  0  0  0  0  0
    1.8319   -1.6689    0.0000 H   0  0  0  0  0  0  0  0  0  0  0  0
    1.7218   -2.7332    0.0000 H   0  0  0  0  0  0  0  0  0  0  0  0
   -1.1129   -2.6313    0.0000 H   0  0  0  0  0  0  0  0  0  0  0  0
    0.6506   -3.2009    0.0000 H   0  0  0  0  0  0  0  0  0  0  0  0
   -0.3956   -3.4252    0.0000 H   0  0  0  0  0  0  0  0  0  0  0  0
   -1.3082    0.8991    0.0000 H   0  0  0  0  0  0  0  0  0  0  0  0
   -1.3082   -2.8150    0.0000 H   0  0  0  0  0  0  0  0  0  0  0  0
   -0.4097    2.2429    0.0000 H   0  0  0  0  0  0  0  0  0  0  0  0
   -0.0808    1.2247    0.0000 H   0  0  0  0  0  0  0  0  0  0  0  0
   -0.1718    1.4317    0.0000 H   0  0  0  0  0  0  0  0  0  0  0  0
    1.7143   -1.1736    0.0000 H   0  0  0  0  0  0  0  0  0  0  0  0
   -2.9165   -0.0295    0.0000 H   0  0  0  0  0  0  0  0  0  0  0  0
   -2.9165   -1.8865    0.0000 H   0  0  0  0  0  0  0  0  0  0  0  0
    1.3325    2.5206    0.0000 H   0  0  0  0  0  0  0  0  0  0  0  0
    3.2186   -0.0849    0.0000 H   0  0  0  0  0  0  0  0  0  0  0  0
    3.0278    1.7623    0.0000 H   0  0  0  0  0  0  0  0  0  0  0  0
   -1.4699    3.2009    0.0000 H   0  0  0  0  0  0  0  0  0  0  0  0
   -3.2334    2.6313    0.0000 H   0  0  0  0  0  0  0  0  0  0  0  0
   -2.5161    3.4252    0.0000 H   0  0  0  0  0  0  0  0  0  0  0  0
  1  3  1  0  0  0  0
  1  4  1  0  0  0  0
  2 14  1  0  0  0  0
  2 22  1  0  0  0  0
  2 23  1  0  0  0  0
  3  5  1  0  0  0  0
  3  7  1  0  0  0  0
  3  8  1  0  0  0  0
  4  6  1  0  0  0  0
  4 10  1  0  0  0  0
  4 11  1  0  0  0  0
  5  6  1  0  0  0  0
  5 12  2  0  0  0  0
  6 13  2  0  0  0  0
  7  9  1  0  0  0  0
  7 24  1  0  0  0  0
  7 25  1  0  0  0  0
  8 15  2  0  0  0  0
  8 16  1  0  0  0  0
  9 14  1  0  0  0  0
  9 26  1  0  0  0  0
  9 27  1  0  0  0  0
 10 28  1  0  0  0  0
 10 29  1  0  0  0  0
 10 30  1  0  0  0  0
 11 31  1  0  0  0  0
 11 32  1  0  0  0  0
 11 33  1  0  0  0  0
 12 17  1  0  0  0  0
 12 34  1  0  0  0  0
 13 18  1  0  0  0  0
 13 35  1  0  0  0  0
 14 36  1  0  0  0  0
 14 37  1  0  0  0  0
 15 19  1  0  0  0  0
 15 38  1  0  0  0  0
 16 20  2  0  0  0  0
 16 39  1  0  0  0  0
 17 18  2  0  0  0  0
 17 40  1  0  0  0  0
 18 41  1  0  0  0  0
 19 21  2  0  0  0  0
 19 42  1  0  0  0  0
 20 21  1  0  0  0  0
 20 43  1  0  0  0  0
 21 44  1  0  0  0  0
 22 45  1  0  0  0  0
 22 46  1  0  0  0  0
 22 47  1  0  0  0  0
M  END
>  <DRUGBANK_ID>
DB09190

>  <COMMON_NAME>
Talopram

>  <CAS_NUMBER>
7182-51-6

>  <UNII>
5PY881HC79

>  <SYNONYMS>
Phthalapromine; Talopram

$$$$
