
 OpenBabel10282417072D

 20 19  0  0  0  0  0  0  0  0999 V2000
    1.4289    1.0312    0.0000 O   0  0  0  0  0  0  0  0  0  0  0  0
    1.4289    0.2062    0.0000 C   0  0  0  0  0  0  0  0  0  0  0  0
    2.1434   -0.2062    0.0000 O   0  0  0  0  0  0  0  0  0  0  0  0
    0.7144   -0.2062    0.0000 C   0  0  3  0  0  0  0  0  0  0  0  0
    0.7144   -1.0312    0.0000 N   0  0  0  0  0  0  0  0  0  0  0  0
    0.0000    0.2062    0.0000 C   0  0  0  0  0  0  0  0  0  0  0  0
   -0.7144   -0.2062    0.0000 C   0  0  0  0  0  0  0  0  0  0  0  0
   -1.4289    0.2062    0.0000 S   0  0  0  0  0  0  0  0  0  0  0  0
   -2.1434   -0.2062    0.0000 C   0  0  0  0  0  0  0  0  0  0  0  0
    2.1435   -1.1432    0.0000 H   0  0  0  0  0  0  0  0  0  0  0  0
    1.6410   -0.7413    0.0000 H   0  0  0  0  0  0  0  0  0  0  0  0
   -0.1689   -1.5412    0.0000 H   0  0  0  0  0  0  0  0  0  0  0  0
    1.5977   -1.5412    0.0000 H   0  0  0  0  0  0  0  0  0  0  0  0
    0.0000    1.2762    0.0000 H   0  0  0  0  0  0  0  0  0  0  0  0
   -0.9266    0.7412    0.0000 H   0  0  0  0  0  0  0  0  0  0  0  0
   -0.7144   -1.2762    0.0000 H   0  0  0  0  0  0  0  0  0  0  0  0
   -1.6410   -0.7413    0.0000 H   0  0  0  0  0  0  0  0  0  0  0  0
   -3.0700    0.3289    0.0000 H   0  0  0  0  0  0  0  0  0  0  0  0
   -2.1435   -1.2762    0.0000 H   0  0  0  0  0  0  0  0  0  0  0  0
   -3.0701   -0.7411    0.0000 H   0  0  0  0  0  0  0  0  0  0  0  0
  2  1  2  0  0  0  0
  3  2  1  0  0  0  0
  3 10  1  0  0  0  0
  4  2  1  0  0  0  0
  4  5  1  0  0  0  0
  4 11  1  0  0  0  0
  5 12  1  0  0  0  0
  5 13  1  0  0  0  0
  6  4  1  0  0  0  0
  6 14  1  0  0  0  0
  6 15  1  0  0  0  0
  7  6  1  0  0  0  0
  7 16  1  0  0  0  0
  7 17  1  0  0  0  0
  8  7  1  0  0  0  0
  9  8  1  0  0  0  0
  9 18  1  0  0  0  0
  9 19  1  0  0  0  0
  9 20  1  0  0  0  0
M  END
>  <DRUGBANK_ID>
DB13972

>  <COMMON_NAME>
Racemethionine

>  <CAS_NUMBER>
59-51-8

>  <UNII>
73JWT2K6T3

>  <SYNONYMS>
(+-)-Methionine; DL-Methionine; DL-Methioninum; metionina; Racemethionine

$$$$
