
 OpenBabel10282417072D

 31 32  0  0  0  0  0  0  0  0999 V2000
   -4.2868    7.4250    0.0000 C   0  0  0  0  0  0  0  0  0  0  0  0
    0.0000    3.3000    0.0000 C   0  0  0  0  0  0  0  0  0  0  0  0
   -1.4289    3.3000    0.0000 C   0  0  0  0  0  0  0  0  0  0  0  0
    0.0000    4.1250    0.0000 C   0  0  0  0  0  0  0  0  0  0  0  0
   -1.4289    4.1250    0.0000 C   0  0  0  0  0  0  0  0  0  0  0  0
   -1.4289    7.4250    0.0000 C   0  0  0  0  0  0  0  0  0  0  0  0
   -2.1434    7.8375    0.0000 C   0  0  0  0  0  0  0  0  0  0  0  0
   -0.7145    2.8875    0.0000 C   0  0  0  0  0  0  0  0  0  0  0  0
   -0.7145    4.5375    0.0000 C   0  0  0  0  0  0  0  0  0  0  0  0
   -1.4289    6.6000    0.0000 C   0  0  0  0  0  0  0  0  0  0  0  0
   -2.8579    7.4250    0.0000 C   0  0  0  0  0  0  0  0  0  0  0  0
   -0.7145    2.0625    0.0000 N   0  0  0  0  0  0  0  0  0  0  0  0
   -2.1434    6.1875    0.0000 N   0  0  0  0  0  0  0  0  0  0  0  0
   -2.8579    6.6000    0.0000 N   0  0  0  0  0  0  0  0  0  0  0  0
   -0.7145    6.1875    0.0000 N   0  0  0  0  0  0  0  0  0  0  0  0
   -1.5395    5.3625    0.0000 O   0  0  0  0  0  0  0  0  0  0  0  0
    0.1105    5.3625    0.0000 O   0  0  0  0  0  0  0  0  0  0  0  0
   -3.5724    7.8375    0.0000 O   0  0  0  0  0  0  0  0  0  0  0  0
   -0.7145    5.3625    0.0000 S   0  0  0  0  0  0  0  0  0  0  0  0
   -5.2135    7.9600    0.0000 H   0  0  0  0  0  0  0  0  0  0  0  0
   -4.2868    6.3550    0.0000 H   0  0  0  0  0  0  0  0  0  0  0  0
   -5.2134    6.8900    0.0000 H   0  0  0  0  0  0  0  0  0  0  0  0
    0.8937    2.7840    0.0000 H   0  0  0  0  0  0  0  0  0  0  0  0
   -2.3226    2.7840    0.0000 H   0  0  0  0  0  0  0  0  0  0  0  0
    0.8937    4.6410    0.0000 H   0  0  0  0  0  0  0  0  0  0  0  0
   -2.3226    4.6410    0.0000 H   0  0  0  0  0  0  0  0  0  0  0  0
   -0.5352    7.9410    0.0000 H   0  0  0  0  0  0  0  0  0  0  0  0
   -2.1434    8.8695    0.0000 H   0  0  0  0  0  0  0  0  0  0  0  0
   -1.5671    1.5702    0.0000 H   0  0  0  0  0  0  0  0  0  0  0  0
    0.1381    1.5703    0.0000 H   0  0  0  0  0  0  0  0  0  0  0  0
    0.1381    6.6797    0.0000 H   0  0  0  0  0  0  0  0  0  0  0  0
  1 20  1  0  0  0  0
  1 21  1  0  0  0  0
  1 22  1  0  0  0  0
  2 23  1  0  0  0  0
  3 24  1  0  0  0  0
  4  2  1  0  0  0  0
  4 25  1  0  0  0  0
  5  3  2  0  0  0  0
  5 26  1  0  0  0  0
  6 27  1  0  0  0  0
  7  6  2  0  0  0  0
  7 28  1  0  0  0  0
  8  2  2  0  0  0  0
  8  3  1  0  0  0  0
  9  4  2  0  0  0  0
  9  5  1  0  0  0  0
 10  6  1  0  0  0  0
 11  7  1  0  0  0  0
 12  8  1  0  0  0  0
 12 29  1  0  0  0  0
 12 30  1  0  0  0  0
 13 10  2  0  0  0  0
 14 11  2  0  0  0  0
 14 13  1  0  0  0  0
 15 10  1  0  0  0  0
 15 31  1  0  0  0  0
 18  1  1  0  0  0  0
 18 11  1  0  0  0  0
 19  9  1  0  0  0  0
 19 15  1  0  0  0  0
 19 16  2  0  0  0  0
 19 17  2  0  0  0  0
M  END
>  <DRUGBANK_ID>
DB13773

>  <COMMON_NAME>
Sulfamethoxypyridazine

>  <CAS_NUMBER>
80-35-3

>  <UNII>
T034E4NS2Z

>  <SYNONYMS>
Sulfamethoxypyridazine; sulfametoxipiridazina

$$$$
