
 OpenBabel10282417072D

 31 33  0  0  0  0  0  0  0  0999 V2000
   -1.0583    0.2204    0.0000 C   0  0  0  0  0  0  0  0  0  0  0  0
   -1.0583   -0.6046    0.0000 C   0  0  0  0  0  0  0  0  0  0  0  0
   -0.3466    0.6046    0.0000 O   0  0  0  0  0  0  0  0  0  0  0  0
   -1.7777    0.6046    0.0000 C   0  0  0  0  0  0  0  0  0  0  0  0
   -0.3466   -1.0250    0.0000 C   0  0  0  0  0  0  0  0  0  0  0  0
   -1.7777   -1.0250    0.0000 C   0  0  0  0  0  0  0  0  0  0  0  0
    0.3520    0.2204    0.0000 C   0  0  0  0  0  0  0  0  0  0  0  0
   -2.5257    0.2204    0.0000 C   0  0  0  0  0  0  0  0  0  0  0  0
    0.3520   -0.6046    0.0000 C   0  0  0  0  0  0  0  0  0  0  0  0
   -0.3466   -1.8629    0.0000 O   0  0  0  0  0  0  0  0  0  0  0  0
   -2.5257   -0.6046    0.0000 C   0  0  0  0  0  0  0  0  0  0  0  0
   -1.7777   -1.8629    0.0000 O   0  0  0  0  0  0  0  0  0  0  0  0
    1.0250    0.6046    0.0000 C   0  0  0  0  0  0  0  0  0  0  0  0
   -3.2838    0.6046    0.0000 O   0  0  0  0  0  0  0  0  0  0  0  0
    1.7367    0.2204    0.0000 C   0  0  0  0  0  0  0  0  0  0  0  0
    1.0250    1.4426    0.0000 C   0  0  0  0  0  0  0  0  0  0  0  0
    2.4458    0.6046    0.0000 C   0  0  0  0  0  0  0  0  0  0  0  0
    1.7367    1.8629    0.0000 C   0  0  0  0  0  0  0  0  0  0  0  0
    2.4458    1.4426    0.0000 C   0  0  0  0  0  0  0  0  0  0  0  0
    3.2039    0.1843    0.0000 O   0  0  0  0  0  0  0  0  0  0  0  0
    3.2838    1.8164    0.0000 O   0  0  0  0  0  0  0  0  0  0  0  0
   -1.7694    1.6366    0.0000 H   0  0  0  0  0  0  0  0  0  0  0  0
    1.2504   -1.1125    0.0000 H   0  0  0  0  0  0  0  0  0  0  0  0
   -3.4164   -1.1258    0.0000 H   0  0  0  0  0  0  0  0  0  0  0  0
   -2.5892   -2.3314    0.0000 H   0  0  0  0  0  0  0  0  0  0  0  0
   -3.3349    1.5402    0.0000 H   0  0  0  0  0  0  0  0  0  0  0  0
    1.7375   -0.8116    0.0000 H   0  0  0  0  0  0  0  0  0  0  0  0
    0.1287    1.9542    0.0000 H   0  0  0  0  0  0  0  0  0  0  0  0
    1.7375    2.8949    0.0000 H   0  0  0  0  0  0  0  0  0  0  0  0
    3.2202   -0.7526    0.0000 H   0  0  0  0  0  0  0  0  0  0  0  0
    4.0422    1.2662    0.0000 H   0  0  0  0  0  0  0  0  0  0  0  0
  1  2  1  0  0  0  0
  1  3  1  0  0  0  0
  1  4  2  0  0  0  0
  2  5  1  0  0  0  0
  2  6  2  0  0  0  0
  3  7  1  0  0  0  0
  4  8  1  0  0  0  0
  4 22  1  0  0  0  0
  5  9  1  0  0  0  0
  5 10  2  0  0  0  0
  6 11  1  0  0  0  0
  6 12  1  0  0  0  0
  7 13  1  0  0  0  0
  7  9  2  0  0  0  0
  8 14  1  0  0  0  0
  8 11  2  0  0  0  0
  9 23  1  0  0  0  0
 11 24  1  0  0  0  0
 12 25  1  0  0  0  0
 13 15  1  0  0  0  0
 13 16  2  0  0  0  0
 14 26  1  0  0  0  0
 15 17  2  0  0  0  0
 15 27  1  0  0  0  0
 16 18  1  0  0  0  0
 16 28  1  0  0  0  0
 17 19  1  0  0  0  0
 17 20  1  0  0  0  0
 18 19  2  0  0  0  0
 18 29  1  0  0  0  0
 19 21  1  0  0  0  0
 20 30  1  0  0  0  0
 21 31  1  0  0  0  0
M  END
>  <DRUGBANK_ID>
DB15584

>  <COMMON_NAME>
Luteolin

>  <CAS_NUMBER>
491-70-3

>  <UNII>
KUX1ZNC9J2

>  <SYNONYMS>
Digitoflavone; Flacitran; Luteoline; Luteolol; Salifazide

$$$$
