
 OpenBabel10282417072D

 83 87  0  0  1  0  0  0  0  0999 V2000
   10.1233    1.7574    0.0000 Cl  0  0  0  0  0  0  0  0  0  0  0  0
    9.2983    3.1864    0.0000 Cl  0  0  0  0  0  0  0  0  0  0  0  0
    5.5048   -0.9091    0.0000 O   0  0  0  0  0  0  0  0  0  0  0  0
    3.5232    0.1073    0.0000 O   0  0  0  0  0  0  0  0  0  0  0  0
    5.1732    1.7574    0.0000 N   0  0  0  0  0  0  0  0  0  0  0  0
    6.9338   -0.9091    0.0000 N   0  0  0  0  0  0  0  0  0  0  0  0
    2.8087    1.3449    0.0000 N   0  0  0  0  0  0  0  0  0  0  0  0
    7.6482    0.3284    0.0000 C   0  0  2  0  0  0  0  0  0  0  0  0
    3.5232    1.7574    0.0000 C   0  0  3  0  0  0  0  0  0  0  0  0
    7.2357    1.0429    0.0000 C   0  0  0  0  0  0  0  0  0  0  0  0
    8.3627   -0.0841    0.0000 C   0  0  0  0  0  0  0  0  0  0  0  0
    6.9338   -0.0841    0.0000 C   0  0  0  0  0  0  0  0  0  0  0  0
    3.9357    2.4719    0.0000 C   0  0  0  0  0  0  0  0  0  0  0  0
    3.9357    1.0429    0.0000 C   0  0  0  0  0  0  0  0  0  0  0  0
    6.4107    1.0429    0.0000 C   0  0  0  0  0  0  0  0  0  0  0  0
    4.7607    2.4719    0.0000 C   0  0  0  0  0  0  0  0  0  0  0  0
    4.7607    1.0429    0.0000 C   0  0  0  0  0  0  0  0  0  0  0  0
    5.9982    1.7574    0.0000 C   0  0  0  0  0  0  0  0  0  0  0  0
    8.3627   -0.9091    0.0000 C   0  0  0  0  0  0  0  0  0  0  0  0
    8.0608    1.0429    0.0000 C   0  0  0  0  0  0  0  0  0  0  0  0
    7.6482   -1.3216    0.0000 C   0  0  0  0  0  0  0  0  0  0  0  0
    2.9928    2.3894    0.0000 C   0  0  0  0  0  0  0  0  0  0  0  0
    8.8858    1.0429    0.0000 C   0  0  0  0  0  0  0  0  0  0  0  0
    7.6482    1.7574    0.0000 C   0  0  0  0  0  0  0  0  0  0  0  0
    6.2192   -1.3216    0.0000 C   0  0  0  0  0  0  0  0  0  0  0  0
    1.9961    1.4882    0.0000 C   0  0  0  0  0  0  0  0  0  0  0  0
    2.1804    2.2462    0.0000 C   0  0  0  0  0  0  0  0  0  0  0  0
    3.2750    3.1647    0.0000 C   0  0  0  0  0  0  0  0  0  0  0  0
    2.8087    0.5198    0.0000 C   0  0  0  0  0  0  0  0  0  0  0  0
    9.2983    1.7574    0.0000 C   0  0  0  0  0  0  0  0  0  0  0  0
    8.0608    2.4719    0.0000 C   0  0  0  0  0  0  0  0  0  0  0  0
    6.2192   -2.1466    0.0000 C   0  0  0  0  0  0  0  0  0  0  0  0
    8.8858    2.4719    0.0000 C   0  0  0  0  0  0  0  0  0  0  0  0
    1.6500    2.8782    0.0000 C   0  0  0  0  0  0  0  0  0  0  0  0
    2.7447    3.7967    0.0000 C   0  0  0  0  0  0  0  0  0  0  0  0
    2.0941    0.1073    0.0000 C   0  0  0  0  0  0  0  0  0  0  0  0
    1.9322    3.6534    0.0000 C   0  0  0  0  0  0  0  0  0  0  0  0
    6.9338   -2.5591    0.0000 C   0  0  0  0  0  0  0  0  0  0  0  0
    5.5048   -2.5591    0.0000 C   0  0  0  0  0  0  0  0  0  0  0  0
    6.9338   -3.3841    0.0000 C   0  0  0  0  0  0  0  0  0  0  0  0
    5.5048   -3.3841    0.0000 C   0  0  0  0  0  0  0  0  0  0  0  0
    6.2192   -3.7967    0.0000 C   0  0  0  0  0  0  0  0  0  0  0  0
    7.7707    1.9695    0.0000 H   0  0  0  0  0  0  0  0  0  0  0  0
    6.7007    1.9695    0.0000 H   0  0  0  0  0  0  0  0  0  0  0  0
    9.2893    0.4509    0.0000 H   0  0  0  0  0  0  0  0  0  0  0  0
    9.2893   -0.6191    0.0000 H   0  0  0  0  0  0  0  0  0  0  0  0
    6.0071    0.4509    0.0000 H   0  0  0  0  0  0  0  0  0  0  0  0
    6.9338    0.9859    0.0000 H   0  0  0  0  0  0  0  0  0  0  0  0
    3.4007    3.3985    0.0000 H   0  0  0  0  0  0  0  0  0  0  0  0
    4.4707    3.3985    0.0000 H   0  0  0  0  0  0  0  0  0  0  0  0
    3.4007    0.1163    0.0000 H   0  0  0  0  0  0  0  0  0  0  0  0
    4.4707    0.1163    0.0000 H   0  0  0  0  0  0  0  0  0  0  0  0
    5.8757    0.1163    0.0000 H   0  0  0  0  0  0  0  0  0  0  0  0
    5.3407    1.0429    0.0000 H   0  0  0  0  0  0  0  0  0  0  0  0
    5.2957    3.3985    0.0000 H   0  0  0  0  0  0  0  0  0  0  0  0
    4.2257    3.3985    0.0000 H   0  0  0  0  0  0  0  0  0  0  0  0
    5.2957    0.1163    0.0000 H   0  0  0  0  0  0  0  0  0  0  0  0
    4.2257    0.1163    0.0000 H   0  0  0  0  0  0  0  0  0  0  0  0
    6.5332    2.6840    0.0000 H   0  0  0  0  0  0  0  0  0  0  0  0
    7.0682    1.7574    0.0000 H   0  0  0  0  0  0  0  0  0  0  0  0
    9.2893   -1.4441    0.0000 H   0  0  0  0  0  0  0  0  0  0  0  0
    8.3627   -1.9791    0.0000 H   0  0  0  0  0  0  0  0  0  0  0  0
    7.6482   -2.3916    0.0000 H   0  0  0  0  0  0  0  0  0  0  0  0
    8.5748   -1.8566    0.0000 H   0  0  0  0  0  0  0  0  0  0  0  0
    9.4018    0.1492    0.0000 H   0  0  0  0  0  0  0  0  0  0  0  0
    6.6162    1.7574    0.0000 H   0  0  0  0  0  0  0  0  0  0  0  0
    1.6302    2.4937    0.0000 H   0  0  0  0  0  0  0  0  0  0  0  0
    1.3083    0.6685    0.0000 H   0  0  0  0  0  0  0  0  0  0  0  0
    0.9424    1.6740    0.0000 H   0  0  0  0  0  0  0  0  0  0  0  0
    1.8274    1.2764    0.0000 H   0  0  0  0  0  0  0  0  0  0  0  0
    4.2913    3.3439    0.0000 H   0  0  0  0  0  0  0  0  0  0  0  0
    7.5448    3.3657    0.0000 H   0  0  0  0  0  0  0  0  0  0  0  0
    0.6337    2.6990    0.0000 H   0  0  0  0  0  0  0  0  0  0  0  0
    3.0976    4.7665    0.0000 H   0  0  0  0  0  0  0  0  0  0  0  0
    1.1675    0.6424    0.0000 H   0  0  0  0  0  0  0  0  0  0  0  0
    2.0940   -0.9627    0.0000 H   0  0  0  0  0  0  0  0  0  0  0  0
    1.1674   -0.4276    0.0000 H   0  0  0  0  0  0  0  0  0  0  0  0
    1.2688    4.4440    0.0000 H   0  0  0  0  0  0  0  0  0  0  0  0
    7.8275   -2.0431    0.0000 H   0  0  0  0  0  0  0  0  0  0  0  0
    4.6111   -2.0431    0.0000 H   0  0  0  0  0  0  0  0  0  0  0  0
    7.8275   -3.9001    0.0000 H   0  0  0  0  0  0  0  0  0  0  0  0
    4.6110   -3.9000    0.0000 H   0  0  0  0  0  0  0  0  0  0  0  0
    6.2191   -4.8287    0.0000 H   0  0  0  0  0  0  0  0  0  0  0  0
  1 30  1  0  0  0  0
  2 33  1  0  0  0  0
  3 25  2  0  0  0  0
  4 29  2  0  0  0  0
  5 16  1  0  0  0  0
  5 17  1  0  0  0  0
  5 18  1  0  0  0  0
  6 12  1  0  0  0  0
  6 21  1  0  0  0  0
  6 25  1  0  0  0  0
  7  9  1  0  0  0  0
  7 26  1  0  0  0  0
  7 29  1  0  0  0  0
  8 10  1  6  0  0  0
  8 11  1  0  0  0  0
  8 12  1  0  0  0  0
  8 20  1  0  0  0  0
  9 13  1  0  0  0  0
  9 14  1  0  0  0  0
  9 22  1  0  0  0  0
 10 15  1  0  0  0  0
 10 43  1  0  0  0  0
 10 44  1  0  0  0  0
 11 19  1  0  0  0  0
 11 45  1  0  0  0  0
 11 46  1  0  0  0  0
 12 47  1  0  0  0  0
 12 48  1  0  0  0  0
 13 16  1  0  0  0  0
 13 49  1  0  0  0  0
 13 50  1  0  0  0  0
 14 17  1  0  0  0  0
 14 51  1  0  0  0  0
 14 52  1  0  0  0  0
 15 18  1  0  0  0  0
 15 53  1  0  0  0  0
 15 54  1  0  0  0  0
 16 55  1  0  0  0  0
 16 56  1  0  0  0  0
 17 57  1  0  0  0  0
 17 58  1  0  0  0  0
 18 59  1  0  0  0  0
 18 60  1  0  0  0  0
 19 21  1  0  0  0  0
 19 61  1  0  0  0  0
 19 62  1  0  0  0  0
 20 23  2  0  0  0  0
 20 24  1  0  0  0  0
 21 63  1  0  0  0  0
 21 64  1  0  0  0  0
 22 27  2  0  0  0  0
 22 28  1  0  0  0  0
 23 30  1  0  0  0  0
 23 65  1  0  0  0  0
 24 31  2  0  0  0  0
 24 66  1  0  0  0  0
 25 32  1  0  0  0  0
 26 67  1  0  0  0  0
 26 68  1  0  0  0  0
 26 69  1  0  0  0  0
 27 34  1  0  0  0  0
 27 70  1  0  0  0  0
 28 35  2  0  0  0  0
 28 71  1  0  0  0  0
 29 36  1  0  0  0  0
 30 33  2  0  0  0  0
 31 33  1  0  0  0  0
 31 72  1  0  0  0  0
 32 38  2  0  0  0  0
 32 39  1  0  0  0  0
 34 37  2  0  0  0  0
 34 73  1  0  0  0  0
 35 37  1  0  0  0  0
 35 74  1  0  0  0  0
 36 75  1  0  0  0  0
 36 76  1  0  0  0  0
 36 77  1  0  0  0  0
 37 78  1  0  0  0  0
 38 40  1  0  0  0  0
 38 79  1  0  0  0  0
 39 41  2  0  0  0  0
 39 80  1  0  0  0  0
 40 42  2  0  0  0  0
 40 81  1  0  0  0  0
 41 42  1  0  0  0  0
 41 82  1  0  0  0  0
 42 83  1  0  0  0  0
M  END
>  <DRUGBANK_ID>
DB04872

>  <COMMON_NAME>
Osanetant

>  <CAS_NUMBER>
160492-56-8

>  <UNII>
K7G81N94DT

>  <SYNONYMS>
Osanetant

$$$$
