
 OpenBabel10282417072D

 52 53  0  0  0  0  0  0  0  0999 V2000
    4.3304    1.6320    0.0000 C   0  0  0  0  0  0  0  0  0  0  0  0
    5.0449    0.3945    0.0000 C   0  0  0  0  0  0  0  0  0  0  0  0
    9.9475    2.9231    0.0000 C   0  0  0  0  0  0  0  0  0  0  0  0
    9.2556    3.3724    0.0000 C   0  0  0  0  0  0  0  0  0  0  0  0
   10.5333   -0.6432    0.0000 C   0  0  0  0  0  0  0  0  0  0  0  0
   10.6195    0.1773    0.0000 C   0  0  0  0  0  0  0  0  0  0  0  0
    9.7796   -0.9788    0.0000 C   0  0  0  0  0  0  0  0  0  0  0  0
   10.0276    2.1020    0.0000 C   0  0  0  0  0  0  0  0  0  0  0  0
    8.4729    3.1116    0.0000 C   0  0  0  0  0  0  0  0  0  0  0  0
    6.4738    1.2195    0.0000 C   0  0  0  0  0  0  0  0  0  0  0  0
    9.9521    0.6622    0.0000 C   0  0  0  0  0  0  0  0  0  0  0  0
    9.1122   -0.4939    0.0000 C   0  0  0  0  0  0  0  0  0  0  0  0
    9.4355    1.5274    0.0000 C   0  0  0  0  0  0  0  0  0  0  0  0
    8.1888    2.3371    0.0000 C   0  0  0  0  0  0  0  0  0  0  0  0
    5.7593    1.6320    0.0000 C   0  0  0  0  0  0  0  0  0  0  0  0
    7.1883    1.6320    0.0000 C   0  0  0  0  0  0  0  0  0  0  0  0
    8.5310    0.8115    0.0000 C   0  0  0  0  0  0  0  0  0  0  0  0
    9.1984    0.3266    0.0000 C   0  0  0  0  0  0  0  0  0  0  0  0
    8.6172    1.6320    0.0000 C   0  0  0  0  0  0  0  0  0  0  0  0
    5.0449    1.2195    0.0000 N   0  0  0  0  0  0  0  0  0  0  0  0
    7.9027    1.2195    0.0000 O   0  0  0  0  0  0  0  0  0  0  0  0
    4.3304    2.7020    0.0000 H   0  0  0  0  0  0  0  0  0  0  0  0
    3.4038    1.0970    0.0000 H   0  0  0  0  0  0  0  0  0  0  0  0
    3.4037    2.1670    0.0000 H   0  0  0  0  0  0  0  0  0  0  0  0
    4.1183   -0.1405    0.0000 H   0  0  0  0  0  0  0  0  0  0  0  0
    5.9715   -0.1405    0.0000 H   0  0  0  0  0  0  0  0  0  0  0  0
    5.0449   -0.6755    0.0000 H   0  0  0  0  0  0  0  0  0  0  0  0
   10.8619    3.4788    0.0000 H   0  0  0  0  0  0  0  0  0  0  0  0
   10.9045    2.4445    0.0000 H   0  0  0  0  0  0  0  0  0  0  0  0
    9.3913    4.4338    0.0000 H   0  0  0  0  0  0  0  0  0  0  0  0
    8.4291    4.0520    0.0000 H   0  0  0  0  0  0  0  0  0  0  0  0
   11.3682   -1.2498    0.0000 H   0  0  0  0  0  0  0  0  0  0  0  0
   11.5623    0.5971    0.0000 H   0  0  0  0  0  0  0  0  0  0  0  0
    9.6717   -2.0051    0.0000 H   0  0  0  0  0  0  0  0  0  0  0  0
   11.0321    1.7335    0.0000 H   0  0  0  0  0  0  0  0  0  0  0  0
   10.2500    1.0554    0.0000 H   0  0  0  0  0  0  0  0  0  0  0  0
    7.7277    3.8794    0.0000 H   0  0  0  0  0  0  0  0  0  0  0  0
    7.4263    2.8891    0.0000 H   0  0  0  0  0  0  0  0  0  0  0  0
    6.4738    0.1495    0.0000 H   0  0  0  0  0  0  0  0  0  0  0  0
    7.4004    0.6845    0.0000 H   0  0  0  0  0  0  0  0  0  0  0  0
   10.0600    1.6885    0.0000 H   0  0  0  0  0  0  0  0  0  0  0  0
    8.1694   -0.9137    0.0000 H   0  0  0  0  0  0  0  0  0  0  0  0
    9.7737    0.5123    0.0000 H   0  0  0  0  0  0  0  0  0  0  0  0
    8.7559    0.7009    0.0000 H   0  0  0  0  0  0  0  0  0  0  0  0
    7.1239    2.2333    0.0000 H   0  0  0  0  0  0  0  0  0  0  0  0
    7.7101    1.3801    0.0000 H   0  0  0  0  0  0  0  0  0  0  0  0
    5.7593    2.7020    0.0000 H   0  0  0  0  0  0  0  0  0  0  0  0
    4.8326    2.1670    0.0000 H   0  0  0  0  0  0  0  0  0  0  0  0
    7.1883    2.7020    0.0000 H   0  0  0  0  0  0  0  0  0  0  0  0
    8.1150    2.1670    0.0000 H   0  0  0  0  0  0  0  0  0  0  0  0
    7.5535    0.3763    0.0000 H   0  0  0  0  0  0  0  0  0  0  0  0
    7.6653    1.4404    0.0000 H   0  0  0  0  0  0  0  0  0  0  0  0
  1 22  1  0  0  0  0
  1 23  1  0  0  0  0
  1 24  1  0  0  0  0
  2 25  1  0  0  0  0
  2 26  1  0  0  0  0
  2 27  1  0  0  0  0
  3 28  1  0  0  0  0
  3 29  1  0  0  0  0
  4  3  1  0  0  0  0
  4 30  1  0  0  0  0
  4 31  1  0  0  0  0
  5 32  1  0  0  0  0
  6  5  2  0  0  0  0
  6 33  1  0  0  0  0
  7  5  1  0  0  0  0
  7 34  1  0  0  0  0
  8  3  1  0  0  0  0
  8 35  1  0  0  0  0
  8 36  1  0  0  0  0
  9  4  1  0  0  0  0
  9 37  1  0  0  0  0
  9 38  1  0  0  0  0
 10 39  1  0  0  0  0
 10 40  1  0  0  0  0
 11  6  1  0  0  0  0
 11 41  1  0  0  0  0
 12  7  2  0  0  0  0
 12 42  1  0  0  0  0
 13  8  1  0  0  0  0
 13 43  1  0  0  0  0
 13 44  1  0  0  0  0
 14  9  1  0  0  0  0
 14 45  1  0  0  0  0
 14 46  1  0  0  0  0
 15 10  1  0  0  0  0
 15 47  1  0  0  0  0
 15 48  1  0  0  0  0
 16 10  1  0  0  0  0
 16 49  1  0  0  0  0
 16 50  1  0  0  0  0
 17 51  1  0  0  0  0
 17 52  1  0  0  0  0
 18 11  2  0  0  0  0
 18 12  1  0  0  0  0
 18 17  1  0  0  0  0
 19 13  1  0  0  0  0
 19 14  1  0  0  0  0
 19 17  1  0  0  0  0
 20  1  1  0  0  0  0
 20  2  1  0  0  0  0
 20 15  1  0  0  0  0
 21 16  1  0  0  0  0
 21 19  1  0  0  0  0
M  END
>  <DRUGBANK_ID>
DB13488

>  <COMMON_NAME>
Bencyclane

>  <CAS_NUMBER>
2179-37-5

>  <UNII>
6I97Z6S135

>  <SYNONYMS>
3-((1-Benzylcycloheptyl)oxy)-N,N-dimethylpropylamin; Benciclano; Bencyclane; Bencyclanum

$$$$
