
 OpenBabel10282417072D

 29 28  0  0  0  0  0  0  0  0999 V2000
    0.1786    0.5844    0.0000 C   0  0  0  0  0  0  0  0  0  0  0  0
    0.1786   -0.2406    0.0000 C   0  0  0  0  0  0  0  0  0  0  0  0
   -0.5359   -0.6531    0.0000 N   0  0  0  0  0  0  0  0  0  0  0  0
   -1.2503   -0.2406    0.0000 C   0  0  0  0  0  0  0  0  0  0  0  0
   -1.9648   -0.6531    0.0000 O   0  0  0  0  0  0  0  0  0  0  0  0
   -1.2503    0.5844    0.0000 N   0  0  0  0  0  0  0  0  0  0  0  0
   -0.5359    0.9969    0.0000 C   0  0  0  0  0  0  0  0  0  0  0  0
   -0.5359    1.8219    0.0000 O   0  0  0  0  0  0  0  0  0  0  0  0
    0.8931   -0.6531    0.0000 C   0  0  0  0  0  0  0  0  0  0  0  0
    0.8931   -1.4781    0.0000 O   0  0  0  0  0  0  0  0  0  0  0  0
    1.6076   -0.2406    0.0000 O   0  5  0  0  0  0  0  0  0  0  0  0
    6.2333    0.6000    0.0000 C   0  0  0  0  0  0  0  0  0  0  0  0
    6.2333   -0.2250    0.0000 C   0  0  0  0  0  0  0  0  0  0  0  0
    5.5188   -0.6375    0.0000 N   0  0  0  0  0  0  0  0  0  0  0  0
    4.8044   -0.2250    0.0000 C   0  0  0  0  0  0  0  0  0  0  0  0
    4.0899   -0.6375    0.0000 O   0  0  0  0  0  0  0  0  0  0  0  0
    4.8044    0.6000    0.0000 N   0  0  0  0  0  0  0  0  0  0  0  0
    5.5188    1.0125    0.0000 C   0  0  0  0  0  0  0  0  0  0  0  0
    5.5188    1.8375    0.0000 O   0  0  0  0  0  0  0  0  0  0  0  0
    6.9478   -0.6375    0.0000 C   0  0  0  0  0  0  0  0  0  0  0  0
    7.6622   -0.2250    0.0000 O   0  0  0  0  0  0  0  0  0  0  0  0
    6.9478   -1.4625    0.0000 O   0  5  0  0  0  0  0  0  0  0  0  0
    2.3220    0.1719    0.0000 Mg  0  2  0  0  0  0  0  0  0  0  0  0
    1.0723    1.1004    0.0000 H   0  0  0  0  0  0  0  0  0  0  0  0
   -0.5359   -1.6376    0.0000 H   0  0  0  0  0  0  0  0  0  0  0  0
   -2.1029    1.0766    0.0000 H   0  0  0  0  0  0  0  0  0  0  0  0
    7.1270    1.1160    0.0000 H   0  0  0  0  0  0  0  0  0  0  0  0
    5.5188   -1.6220    0.0000 H   0  0  0  0  0  0  0  0  0  0  0  0
    3.9518    1.0922    0.0000 H   0  0  0  0  0  0  0  0  0  0  0  0
  1  2  2  0  0  0  0
  1  7  1  0  0  0  0
  1 24  1  0  0  0  0
  2  3  1  0  0  0  0
  2  9  1  0  0  0  0
  3  4  1  0  0  0  0
  3 25  1  0  0  0  0
  4  5  2  0  0  0  0
  4  6  1  0  0  0  0
  6  7  1  0  0  0  0
  6 26  1  0  0  0  0
  7  8  2  0  0  0  0
  9 10  2  0  0  0  0
  9 11  1  0  0  0  0
 12 13  2  0  0  0  0
 12 18  1  0  0  0  0
 12 27  1  0  0  0  0
 13 14  1  0  0  0  0
 13 20  1  0  0  0  0
 14 15  1  0  0  0  0
 14 28  1  0  0  0  0
 15 16  2  0  0  0  0
 15 17  1  0  0  0  0
 17 18  1  0  0  0  0
 17 29  1  0  0  0  0
 18 19  2  0  0  0  0
 20 21  2  0  0  0  0
 20 22  1  0  0  0  0
M  CHG  3  11  -1  22  -1  23   2
M  END
>  <DRUGBANK_ID>
DB13786

>  <COMMON_NAME>
Magnesium orotate

>  <CAS_NUMBER>
34717-03-8

>  <UNII>
GI96W46M5A

$$$$
