
 OpenBabel10282417072D

 55 57  0  0  0  0  0  0  0  0999 V2000
    0.3561   -1.8077    0.0000 C   0  0  0  0  0  0  0  0  0  0  0  0
    1.0732   -1.3958    0.0000 C   0  0  0  0  0  0  0  0  0  0  0  0
    1.0697   -0.5688    0.0000 C   0  0  0  0  0  0  0  0  0  0  0  0
    0.3525   -0.1556    0.0000 C   0  0  2  0  0  0  0  0  0  0  0  0
   -0.3611   -1.3946    0.0000 C   0  0  1  0  0  0  0  0  0  0  0  0
   -0.3611   -0.5696    0.0000 C   0  0  1  0  0  0  0  0  0  0  0  0
   -1.0715   -0.1666    0.0000 C   0  0  0  0  0  0  0  0  0  0  0  0
   -1.7855   -0.5794    0.0000 C   0  0  0  0  0  0  0  0  0  0  0  0
   -1.7798   -1.4029    0.0000 C   0  0  2  0  0  0  0  0  0  0  0  0
   -1.0632   -1.8094    0.0000 C   0  0  2  0  0  0  0  0  0  0  0  0
   -2.4946   -1.8224    0.0000 O   0  0  0  0  0  0  0  0  0  0  0  0
   -1.7010   -2.3179    0.0000 C   0  0  0  0  0  0  0  0  0  0  0  0
   -0.5485   -2.4423    0.0000 C   0  0  0  0  0  0  0  0  0  0  0  0
   -0.3578   -2.0228    0.0000 H   0  0  0  0  0  0  0  0  0  0  0  0
   -0.3683    0.2510    0.0000 C   0  0  0  0  0  0  0  0  0  0  0  0
    0.3566    0.6709    0.0000 C   0  0  0  0  0  0  0  0  0  0  0  0
    1.6908    2.4567    0.0000 C   0  0  0  0  0  0  0  0  0  0  0  0
    1.3648    3.2149    0.0000 O   0  0  0  0  0  0  0  0  0  0  0  0
    0.5412    3.1427    0.0000 C   0  0  0  0  0  0  0  0  0  0  0  0
    0.3553    2.3374    0.0000 C   0  0  2  0  0  0  0  0  0  0  0  0
    1.0720    1.9116    0.0000 C   0  0  0  0  0  0  0  0  0  0  0  0
    1.0697    1.0848    0.0000 C   0  0  0  0  0  0  0  0  0  0  0  0
   -0.4058    2.0123    0.0000 O   0  0  0  0  0  0  0  0  0  0  0  0
    2.4946    2.2696    0.0000 O   0  0  0  0  0  0  0  0  0  0  0  0
    1.7909   -0.1561    0.0000 C   0  0  0  0  0  0  0  0  0  0  0  0
   -0.8434   -3.2149    0.0000 O   0  0  0  0  0  0  0  0  0  0  0  0
    0.3555   -2.8777    0.0000 H   0  0  0  0  0  0  0  0  0  0  0  0
    1.2820   -2.3440    0.0000 H   0  0  0  0  0  0  0  0  0  0  0  0
    2.0004   -1.9299    0.0000 H   0  0  0  0  0  0  0  0  0  0  0  0
    1.9984   -0.8584    0.0000 H   0  0  0  0  0  0  0  0  0  0  0  0
    1.2802    0.3775    0.0000 H   0  0  0  0  0  0  0  0  0  0  0  0
   -1.0759    0.9034    0.0000 H   0  0  0  0  0  0  0  0  0  0  0  0
   -1.9994    0.3662    0.0000 H   0  0  0  0  0  0  0  0  0  0  0  0
   -2.7142   -0.0479    0.0000 H   0  0  0  0  0  0  0  0  0  0  0  0
   -2.7093   -1.1193    0.0000 H   0  0  0  0  0  0  0  0  0  0  0  0
   -2.7102   -0.8744    0.0000 H   0  0  0  0  0  0  0  0  0  0  0  0
   -3.3381   -1.3434    0.0000 H   0  0  0  0  0  0  0  0  0  0  0  0
   -2.6970   -1.9269    0.0000 H   0  0  0  0  0  0  0  0  0  0  0  0
   -1.5417   -3.3760    0.0000 H   0  0  0  0  0  0  0  0  0  0  0  0
   -2.5376   -2.9849    0.0000 H   0  0  0  0  0  0  0  0  0  0  0  0
    0.5080   -2.2728    0.0000 H   0  0  0  0  0  0  0  0  0  0  0  0
    0.1265   -3.2725    0.0000 H   0  0  0  0  0  0  0  0  0  0  0  0
    0.5536    0.7941    0.0000 H   0  0  0  0  0  0  0  0  0  0  0  0
   -1.2996    0.7778    0.0000 H   0  0  0  0  0  0  0  0  0  0  0  0
   -0.3777    1.3210    0.0000 H   0  0  0  0  0  0  0  0  0  0  0  0
   -0.5693    1.2071    0.0000 H   0  0  0  0  0  0  0  0  0  0  0  0
    0.3561    1.7409    0.0000 H   0  0  0  0  0  0  0  0  0  0  0  0
   -0.1609    3.9502    0.0000 H   0  0  0  0  0  0  0  0  0  0  0  0
   -0.4970    2.8838    0.0000 H   0  0  0  0  0  0  0  0  0  0  0  0
   -0.4652    3.0242    0.0000 H   0  0  0  0  0  0  0  0  0  0  0  0
    1.9633    0.5686    0.0000 H   0  0  0  0  0  0  0  0  0  0  0  0
   -1.1818    2.5943    0.0000 H   0  0  0  0  0  0  0  0  0  0  0  0
    2.6826   -0.6755    0.0000 H   0  0  0  0  0  0  0  0  0  0  0  0
    1.7949    0.8759    0.0000 H   0  0  0  0  0  0  0  0  0  0  0  0
   -1.8012   -3.3685    0.0000 H   0  0  0  0  0  0  0  0  0  0  0  0
  1  2  1  0  0  0  0
  1 27  1  0  0  0  0
  1 28  1  0  0  0  0
  2  3  1  0  0  0  0
  2 29  1  0  0  0  0
  2 30  1  0  0  0  0
  3  4  1  0  0  0  0
  3 25  2  0  0  0  0
  4  6  1  0  0  0  0
  4 16  1  0  0  0  0
  4 31  1  1  0  0  0
  5  1  1  0  0  0  0
  5 14  1  1  0  0  0
  5 10  1  0  0  0  0
  5  6  1  0  0  0  0
  6 15  1  6  0  0  0
  6  7  1  0  0  0  0
  7  8  1  0  0  0  0
  7 32  1  0  0  0  0
  7 33  1  0  0  0  0
  8  9  1  0  0  0  0
  8 34  1  0  0  0  0
  8 35  1  0  0  0  0
  9 10  1  0  0  0  0
  9 11  1  0  0  0  0
  9 36  1  1  0  0  0
 10 13  1  6  0  0  0
 10 12  1  0  0  0  0
 11 37  1  0  0  0  0
 12 38  1  0  0  0  0
 12 39  1  0  0  0  0
 12 40  1  0  0  0  0
 13 26  1  0  0  0  0
 13 41  1  0  0  0  0
 13 42  1  0  0  0  0
 15 43  1  0  0  0  0
 15 44  1  0  0  0  0
 15 45  1  0  0  0  0
 16 22  1  0  0  0  0
 16 46  1  0  0  0  0
 16 47  1  0  0  0  0
 17 18  1  0  0  0  0
 17 24  2  0  0  0  0
 18 19  1  0  0  0  0
 19 20  1  0  0  0  0
 19 48  1  0  0  0  0
 19 49  1  0  0  0  0
 20 21  1  0  0  0  0
 20 23  1  0  0  0  0
 20 50  1  1  0  0  0
 21 17  1  0  0  0  0
 21 22  2  0  0  0  0
 22 51  1  0  0  0  0
 23 52  1  0  0  0  0
 25 53  1  0  0  0  0
 25 54  1  0  0  0  0
 26 55  1  0  0  0  0
M  END
>  <DRUGBANK_ID>
DB05767

>  <COMMON_NAME>
Andrographolide

>  <CAS_NUMBER>
5508-58-7

>  <UNII>
410105JHGR

>  <SYNONYMS>
3α,14,15,18-tetrahydroxy-5b,9bH,10a-labda-8(20),12-dien-16-oic acid γ-Lactone

$$$$
