
 OpenBabel10282417072D

 77 84  0  0  0  0  0  0  0  0999 V2000
    3.7112   -0.5013    0.0000 C   0  0  0  0  0  0  0  0  0  0  0  0
    8.5822   -1.0004    0.0000 C   0  0  0  0  0  0  0  0  0  0  0  0
    5.3797   -0.5182    0.0000 C   0  0  0  0  0  0  0  0  0  0  0  0
    7.9894    1.6329    0.0000 C   0  0  0  0  0  0  0  0  0  0  0  0
    0.9851    0.9272    0.0000 C   0  0  0  0  0  0  0  0  0  0  0  0
    5.2063   -3.5663    0.0000 C   0  0  0  0  0  0  0  0  0  0  0  0
    3.6678    0.3079    0.0000 C   0  0  0  0  0  0  0  0  0  0  0  0
    7.7359   -1.0858    0.0000 C   0  0  0  0  0  0  0  0  0  0  0  0
    5.0006    0.2426    0.0000 C   0  0  0  0  0  0  0  0  0  0  0  0
    7.8094    0.8031    0.0000 C   0  0  0  0  0  0  0  0  0  0  0  0
    0.8333   -0.9178    0.0000 C   0  0  0  0  0  0  0  0  0  0  0  0
    3.3460   -3.4791    0.0000 C   0  0  0  0  0  0  0  0  0  0  0  0
    0.0387   -0.6141    0.0000 C   0  0  0  0  0  0  0  0  0  0  0  0
    3.5468   -4.3064    0.0000 C   0  0  0  0  0  0  0  0  0  0  0  0
    2.9495    1.4992    0.0000 C   0  0  0  0  0  0  0  0  0  0  0  0
    5.7385   -1.6795    0.0000 C   0  0  0  0  0  0  0  0  0  0  0  0
    5.9333    1.3044    0.0000 C   0  0  0  0  0  0  0  0  0  0  0  0
    2.7546   -1.4847    0.0000 C   0  0  0  0  0  0  0  0  0  0  0  0
    1.6294    0.3584    0.0000 C   0  0  0  0  0  0  0  0  0  0  0  0
    4.7186   -2.8585    0.0000 C   0  0  0  0  0  0  0  0  0  0  0  0
    3.8671    1.1123    0.0000 C   0  0  0  0  0  0  0  0  0  0  0  0
    7.0586   -0.5388    0.0000 C   0  0  0  0  0  0  0  0  0  0  0  0
    4.6904    1.0585    0.0000 C   0  0  0  0  0  0  0  0  0  0  0  0
    7.1124    0.2845    0.0000 C   0  0  0  0  0  0  0  0  0  0  0  0
    1.5756   -0.4648    0.0000 C   0  0  0  0  0  0  0  0  0  0  0  0
    3.8954   -2.8048    0.0000 C   0  0  0  0  0  0  0  0  0  0  0  0
    2.4289    0.5617    0.0000 C   0  0  0  0  0  0  0  0  0  0  0  0
    5.0241   -2.0922    0.0000 C   0  0  0  0  0  0  0  0  0  0  0  0
    3.6638    1.9119    0.0000 C   0  0  0  0  0  0  0  0  0  0  0  0
    6.2590   -0.7421    0.0000 C   0  0  0  0  0  0  0  0  0  0  0  0
    4.9959    1.8249    0.0000 C   0  0  0  0  0  0  0  0  0  0  0  0
    6.3460    0.5900    0.0000 C   0  0  0  0  0  0  0  0  0  0  0  0
    2.3420   -0.7703    0.0000 C   0  0  0  0  0  0  0  0  0  0  0  0
    3.6921   -2.0052    0.0000 C   0  0  0  0  0  0  0  0  0  0  0  0
   -0.6017   -1.1342    0.0000 C   0  0  0  0  0  0  0  0  0  0  0  0
    2.9497   -4.8757    0.0000 C   0  0  0  0  0  0  0  0  0  0  0  0
    4.3598    0.1518    0.0000 Fe  0  0  3  0  0  0  0  0  0  0  0  0
    2.8693   -0.1359    0.0000 N   0  0  0  0  0  0  0  0  0  0  0  0
    4.3897   -1.5648    0.0000 N   0  0  0  0  0  0  0  0  0  0  0  0
    4.3615    2.3523    0.0000 N   0  0  0  0  0  0  0  0  0  0  0  0
    5.8186   -0.0444    0.0000 N   0  0  0  0  0  0  0  0  0  0  0  0
   -0.4715   -1.9489    0.0000 O   0  0  0  0  0  0  0  0  0  0  0  0
   -1.3723   -0.8397    0.0000 O   0  0  0  0  0  0  0  0  0  0  0  0
    3.1443   -5.6775    0.0000 O   0  0  0  0  0  0  0  0  0  0  0  0
    2.1581   -4.6433    0.0000 O   0  0  0  0  0  0  0  0  0  0  0  0
    2.8464   -1.0644    0.0000 H   0  0  0  0  0  0  0  0  0  0  0  0
    4.6313   -0.9687    0.0000 H   0  0  0  0  0  0  0  0  0  0  0  0
    9.1853   -1.8378    0.0000 H   0  0  0  0  0  0  0  0  0  0  0  0
    9.0059   -0.0594    0.0000 H   0  0  0  0  0  0  0  0  0  0  0  0
    4.8099   -1.3786    0.0000 H   0  0  0  0  0  0  0  0  0  0  0  0
    6.4098   -0.5814    0.0000 H   0  0  0  0  0  0  0  0  0  0  0  0
    8.9722    1.9477    0.0000 H   0  0  0  0  0  0  0  0  0  0  0  0
    7.2254    2.3266    0.0000 H   0  0  0  0  0  0  0  0  0  0  0  0
    1.1973    1.9759    0.0000 H   0  0  0  0  0  0  0  0  0  0  0  0
   -0.0292    0.5866    0.0000 H   0  0  0  0  0  0  0  0  0  0  0  0
    0.1830    1.6353    0.0000 H   0  0  0  0  0  0  0  0  0  0  0  0
    4.7468   -4.5326    0.0000 H   0  0  0  0  0  0  0  0  0  0  0  0
    6.2729   -3.4811    0.0000 H   0  0  0  0  0  0  0  0  0  0  0  0
    5.8134   -4.4474    0.0000 H   0  0  0  0  0  0  0  0  0  0  0  0
    2.6404    0.4054    0.0000 H   0  0  0  0  0  0  0  0  0  0  0  0
    7.4414   -2.0749    0.0000 H   0  0  0  0  0  0  0  0  0  0  0  0
    4.0553   -0.1714    0.0000 H   0  0  0  0  0  0  0  0  0  0  0  0
    8.6769    0.2441    0.0000 H   0  0  0  0  0  0  0  0  0  0  0  0
    0.9310   -1.9833    0.0000 H   0  0  0  0  0  0  0  0  0  0  0  0
    1.7893   -1.3983    0.0000 H   0  0  0  0  0  0  0  0  0  0  0  0
    2.3024   -3.2427    0.0000 H   0  0  0  0  0  0  0  0  0  0  0  0
    2.9971   -2.4676    0.0000 H   0  0  0  0  0  0  0  0  0  0  0  0
   -0.1302    0.4425    0.0000 H   0  0  0  0  0  0  0  0  0  0  0  0
   -0.9608   -0.2321    0.0000 H   0  0  0  0  0  0  0  0  0  0  0  0
    4.5735   -4.6078    0.0000 H   0  0  0  0  0  0  0  0  0  0  0  0
    3.7991   -5.3462    0.0000 H   0  0  0  0  0  0  0  0  0  0  0  0
    2.2136    2.2227    0.0000 H   0  0  0  0  0  0  0  0  0  0  0  0
    6.4744   -2.4030    0.0000 H   0  0  0  0  0  0  0  0  0  0  0  0
    6.6568    2.0403    0.0000 H   0  0  0  0  0  0  0  0  0  0  0  0
    2.0311   -2.2206    0.0000 H   0  0  0  0  0  0  0  0  0  0  0  0
   -1.1989   -2.5396    0.0000 H   0  0  0  0  0  0  0  0  0  0  0  0
    2.4662   -6.3242    0.0000 H   0  0  0  0  0  0  0  0  0  0  0  0
  1 46  1  0  0  0  0
  1 47  1  0  0  0  0
  2 48  1  0  0  0  0
  2 49  1  0  0  0  0
  3 50  1  0  0  0  0
  3 51  1  0  0  0  0
  4 52  1  0  0  0  0
  4 53  1  0  0  0  0
  5 54  1  0  0  0  0
  5 55  1  0  0  0  0
  5 56  1  0  0  0  0
  6 57  1  0  0  0  0
  6 58  1  0  0  0  0
  6 59  1  0  0  0  0
  7  1  2  0  0  0  0
  7 60  1  0  0  0  0
  8  2  2  0  0  0  0
  8 61  1  0  0  0  0
  9  3  2  0  0  0  0
  9 62  1  0  0  0  0
 10  4  2  0  0  0  0
 10 63  1  0  0  0  0
 11 64  1  0  0  0  0
 11 65  1  0  0  0  0
 12 66  1  0  0  0  0
 12 67  1  0  0  0  0
 13 11  1  0  0  0  0
 13 68  1  0  0  0  0
 13 69  1  0  0  0  0
 14 12  1  0  0  0  0
 14 70  1  0  0  0  0
 14 71  1  0  0  0  0
 15 72  1  0  0  0  0
 16 73  1  0  0  0  0
 17 74  1  0  0  0  0
 18 75  1  0  0  0  0
 19  5  1  0  0  0  0
 20  6  1  0  0  0  0
 21  7  1  0  0  0  0
 22  8  1  0  0  0  0
 23  9  1  0  0  0  0
 23 21  2  0  0  0  0
 24 10  1  0  0  0  0
 24 22  1  0  0  0  0
 25 11  1  0  0  0  0
 25 19  1  0  0  0  0
 26 12  1  0  0  0  0
 26 20  2  0  0  0  0
 27 15  1  0  0  0  0
 27 19  2  0  0  0  0
 28 16  2  0  0  0  0
 28 20  1  0  0  0  0
 29 15  2  0  0  0  0
 29 21  1  0  0  0  0
 30 16  1  0  0  0  0
 30 22  2  0  0  0  0
 31 17  2  0  0  0  0
 31 23  1  0  0  0  0
 32 17  1  0  0  0  0
 32 24  2  0  0  0  0
 33 18  1  0  0  0  0
 33 25  2  0  0  0  0
 34 18  2  0  0  0  0
 34 26  1  0  0  0  0
 35 13  1  0  0  0  0
 36 14  1  0  0  0  0
 38 27  1  0  0  0  0
 38 33  1  0  0  0  0
 38 37  1  0  0  0  0
 39 28  1  0  0  0  0
 39 34  1  0  0  0  0
 39 37  1  0  0  0  0
 40 29  1  0  0  0  0
 40 31  1  0  0  0  0
 40 37  1  0  0  0  0
 41 30  1  0  0  0  0
 41 32  1  0  0  0  0
 41 37  1  0  0  0  0
 42 35  1  0  0  0  0
 42 76  1  0  0  0  0
 43 35  2  0  0  0  0
 44 36  1  0  0  0  0
 44 77  1  0  0  0  0
 45 36  2  0  0  0  0
M  END
>  <DRUGBANK_ID>
DB02199

>  <SECONDARY_ACCESSION_NUMBERS>
EXPT01729

>  <COMMON_NAME>
1,3-Dedimethyl-1,3-Divinyl Heme

$$$$
