
 OpenBabel10282417072D

 32 32  0  0  0  0  0  0  0  0999 V2000
   -0.8899    1.2376    0.0000 O   0  0  0  0  0  0  0  0  0  0  0  0
    0.5470   -1.2422    0.0000 O   0  0  0  0  0  0  0  0  0  0  0  0
   -2.3175   -1.2375    0.0000 O   0  0  0  0  0  0  0  0  0  0  0  0
   -1.6038    0.0000    0.0000 N   0  0  0  0  0  0  0  0  0  0  0  0
   -0.8899   -1.2375    0.0000 N   0  0  0  0  0  0  0  0  0  0  0  0
   -0.1761    0.0000    0.0000 C   0  0  0  0  0  0  0  0  0  0  0  0
   -0.1761   -0.8250    0.0000 C   0  0  0  0  0  0  0  0  0  0  0  0
   -0.8899    0.4125    0.0000 C   0  0  0  0  0  0  0  0  0  0  0  0
    0.6629    0.0000    0.0000 C   0  0  3  0  0  0  0  0  0  0  0  0
   -0.1807    0.8250    0.0000 C   0  0  0  0  0  0  0  0  0  0  0  0
   -1.6038   -0.8250    0.0000 C   0  0  0  0  0  0  0  0  0  0  0  0
    1.0707    0.7138    0.0000 C   0  0  0  0  0  0  0  0  0  0  0  0
    1.0753   -0.7138    0.0000 C   0  0  0  0  0  0  0  0  0  0  0  0
    0.5470    1.2422    0.0000 C   0  0  0  0  0  0  0  0  0  0  0  0
    1.9004    0.7138    0.0000 C   0  0  0  0  0  0  0  0  0  0  0  0
    2.3175   -0.0092    0.0000 C   0  0  0  0  0  0  0  0  0  0  0  0
   -2.4565    0.4921    0.0000 H   0  0  0  0  0  0  0  0  0  0  0  0
   -0.8899   -2.2220    0.0000 H   0  0  0  0  0  0  0  0  0  0  0  0
    0.1258    0.9254    0.0000 H   0  0  0  0  0  0  0  0  0  0  0  0
   -1.0751    1.3399    0.0000 H   0  0  0  0  0  0  0  0  0  0  0  0
    0.5336    1.6392    0.0000 H   0  0  0  0  0  0  0  0  0  0  0  0
    1.6046    1.6411    0.0000 H   0  0  0  0  0  0  0  0  0  0  0  0
    0.5406   -1.6406    0.0000 H   0  0  0  0  0  0  0  0  0  0  0  0
    2.1453   -0.7135    0.0000 H   0  0  0  0  0  0  0  0  0  0  0  0
    1.6106   -1.6403    0.0000 H   0  0  0  0  0  0  0  0  0  0  0  0
    1.4392    0.7235    0.0000 H   0  0  0  0  0  0  0  0  0  0  0  0
    0.5501    2.2742    0.0000 H   0  0  0  0  0  0  0  0  0  0  0  0
    2.4356    1.6404    0.0000 H   0  0  0  0  0  0  0  0  0  0  0  0
    2.9704    0.7135    0.0000 H   0  0  0  0  0  0  0  0  0  0  0  0
    1.7822   -0.9357    0.0000 H   0  0  0  0  0  0  0  0  0  0  0  0
    3.3875   -0.0096    0.0000 H   0  0  0  0  0  0  0  0  0  0  0  0
    2.8522   -0.9360    0.0000 H   0  0  0  0  0  0  0  0  0  0  0  0
  1  8  2  0  0  0  0
  2  7  2  0  0  0  0
  3 11  2  0  0  0  0
  4  8  1  0  0  0  0
  4 11  1  0  0  0  0
  4 17  1  0  0  0  0
  5  7  1  0  0  0  0
  5 11  1  0  0  0  0
  5 18  1  0  0  0  0
  6  7  1  0  0  0  0
  6  8  1  0  0  0  0
  6  9  1  0  0  0  0
  6 10  1  0  0  0  0
  9 12  1  0  0  0  0
  9 13  1  0  0  0  0
  9 19  1  0  0  0  0
 10 14  2  0  0  0  0
 10 20  1  0  0  0  0
 12 15  1  0  0  0  0
 12 21  1  0  0  0  0
 12 22  1  0  0  0  0
 13 23  1  0  0  0  0
 13 24  1  0  0  0  0
 13 25  1  0  0  0  0
 14 26  1  0  0  0  0
 14 27  1  0  0  0  0
 15 16  1  0  0  0  0
 15 28  1  0  0  0  0
 15 29  1  0  0  0  0
 16 30  1  0  0  0  0
 16 31  1  0  0  0  0
 16 32  1  0  0  0  0
M  END
>  <DRUGBANK_ID>
DB13770

>  <COMMON_NAME>
Vinylbital

>  <CAS_NUMBER>
2430-49-1

>  <UNII>
3W58ITX06Q

>  <SYNONYMS>
Vinilbital; Vinylbital; Vinylbitalum

$$$$
