IAP
 OpenBabel10282417072D

 23 23  0  0  0  0  0  0  0  0999 V2000
    1.8977    0.3086    0.0000 B   0  0  0  0  0  0  0  0  0  0  0  0
    2.6121   -0.1039    0.0000 O   0  0  0  0  0  0  0  0  0  0  0  0
    1.8977    1.1336    0.0000 O   0  0  0  0  0  0  0  0  0  0  0  0
    1.1832   -0.1039    0.0000 C   0  0  0  0  0  0  0  0  0  0  0  0
    1.1832   -0.9289    0.0000 C   0  0  0  0  0  0  0  0  0  0  0  0
    0.4687   -1.3414    0.0000 C   0  0  0  0  0  0  0  0  0  0  0  0
   -0.2457   -0.9289    0.0000 C   0  0  0  0  0  0  0  0  0  0  0  0
   -0.2457   -0.1039    0.0000 C   0  0  0  0  0  0  0  0  0  0  0  0
    0.4687    0.3086    0.0000 C   0  0  0  0  0  0  0  0  0  0  0  0
   -0.9602    0.3086    0.0000 N   0  0  0  0  0  0  0  0  0  0  0  0
   -1.6747   -0.1039    0.0000 C   0  0  0  0  0  0  0  0  0  0  0  0
   -1.6747   -0.9289    0.0000 O   0  0  0  0  0  0  0  0  0  0  0  0
   -2.3892    0.3086    0.0000 C   0  0  0  0  0  0  0  0  0  0  0  0
   -3.1036   -0.1039    0.0000 I   0  0  0  0  0  0  0  0  0  0  0  0
    2.6121   -1.0739    0.0000 H   0  0  0  0  0  0  0  0  0  0  0  0
    2.7377    1.6186    0.0000 H   0  0  0  0  0  0  0  0  0  0  0  0
    2.0769   -1.4449    0.0000 H   0  0  0  0  0  0  0  0  0  0  0  0
    0.4687   -2.3734    0.0000 H   0  0  0  0  0  0  0  0  0  0  0  0
   -1.1394   -1.4449    0.0000 H   0  0  0  0  0  0  0  0  0  0  0  0
    0.4687    1.3406    0.0000 H   0  0  0  0  0  0  0  0  0  0  0  0
   -0.9602    1.2931    0.0000 H   0  0  0  0  0  0  0  0  0  0  0  0
   -2.3892    1.3786    0.0000 H   0  0  0  0  0  0  0  0  0  0  0  0
   -3.3159    0.8436    0.0000 H   0  0  0  0  0  0  0  0  0  0  0  0
  1  2  1  0  0  0  0
  1  3  1  0  0  0  0
  1  4  1  0  0  0  0
  2 15  1  0  0  0  0
  3 16  1  0  0  0  0
  4  5  2  0  0  0  0
  4  9  1  0  0  0  0
  5  6  1  0  0  0  0
  5 17  1  0  0  0  0
  6  7  2  0  0  0  0
  6 18  1  0  0  0  0
  7  8  1  0  0  0  0
  7 19  1  0  0  0  0
  8  9  2  0  0  0  0
  8 10  1  0  0  0  0
  9 20  1  0  0  0  0
 10 11  1  0  0  0  0
 10 21  1  0  0  0  0
 11 12  2  0  0  0  0
 11 13  1  0  0  0  0
 13 14  1  0  0  0  0
 13 22  1  0  0  0  0
 13 23  1  0  0  0  0
M  END
>  <DRUGBANK_ID>
DB02122

>  <SECONDARY_ACCESSION_NUMBERS>
EXPT01822

>  <COMMON_NAME>
4-iodo-acetamido phenylboronic acid

$$$$
