251
 OpenBabel10282417072D

 42 44  0  0  0  0  0  0  0  0999 V2000
   -2.4692   -2.2344    0.0000 C   0  0  0  0  0  0  0  0  0  0  0  0
   -2.2977   -1.4274    0.0000 C   0  0  0  0  0  0  0  0  0  0  0  0
   -1.5131   -1.1725    0.0000 C   0  0  0  0  0  0  0  0  0  0  0  0
   -0.9000   -1.7245    0.0000 C   0  0  0  0  0  0  0  0  0  0  0  0
   -1.0715   -2.5315    0.0000 C   0  0  0  0  0  0  0  0  0  0  0  0
   -1.8562   -2.7864    0.0000 C   0  0  0  0  0  0  0  0  0  0  0  0
   -1.3416   -0.3655    0.0000 C   0  0  0  0  0  0  0  0  0  0  0  0
   -1.8936    0.2476    0.0000 C   0  0  0  0  0  0  0  0  0  0  0  0
   -1.4811    0.9620    0.0000 C   0  0  0  0  0  0  0  0  0  0  0  0
   -0.6741    0.7905    0.0000 C   0  0  0  0  0  0  0  0  0  0  0  0
   -0.5879   -0.0300    0.0000 N   0  0  0  0  0  0  0  0  0  0  0  0
   -0.0610    1.3425    0.0000 C   0  0  0  0  0  0  0  0  0  0  0  0
    0.7236    1.0876    0.0000 C   0  0  0  0  0  0  0  0  0  0  0  0
    1.3367    1.6396    0.0000 C   0  0  0  0  0  0  0  0  0  0  0  0
    1.1651    2.4466    0.0000 C   0  0  0  0  0  0  0  0  0  0  0  0
    0.3805    2.7015    0.0000 C   0  0  0  0  0  0  0  0  0  0  0  0
   -0.2326    2.1495    0.0000 C   0  0  0  0  0  0  0  0  0  0  0  0
    0.1266   -0.4425    0.0000 C   0  0  0  0  0  0  0  0  0  0  0  0
    0.8410   -0.0300    0.0000 C   0  0  0  0  0  0  0  0  0  0  0  0
    1.5555   -0.4425    0.0000 N   0  0  0  0  0  0  0  0  0  0  0  0
    0.8410    0.7950    0.0000 O   0  0  0  0  0  0  0  0  0  0  0  0
    2.2700   -0.0300    0.0000 C   0  0  0  0  0  0  0  0  0  0  0  0
    2.2700    0.7950    0.0000 N   0  0  0  0  0  0  0  0  0  0  0  0
    2.9845   -0.4425    0.0000 N   0  0  0  0  0  0  0  0  0  0  0  0
   -3.4507   -2.5533    0.0000 H   0  0  0  0  0  0  0  0  0  0  0  0
   -3.0646   -0.7369    0.0000 H   0  0  0  0  0  0  0  0  0  0  0  0
    0.0815   -1.4056    0.0000 H   0  0  0  0  0  0  0  0  0  0  0  0
   -0.3046   -3.2221    0.0000 H   0  0  0  0  0  0  0  0  0  0  0  0
   -2.0708   -3.7958    0.0000 H   0  0  0  0  0  0  0  0  0  0  0  0
   -2.9200    0.1398    0.0000 H   0  0  0  0  0  0  0  0  0  0  0  0
   -1.9009    1.9048    0.0000 H   0  0  0  0  0  0  0  0  0  0  0  0
    0.9382    0.0782    0.0000 H   0  0  0  0  0  0  0  0  0  0  0  0
    2.3182    1.3207    0.0000 H   0  0  0  0  0  0  0  0  0  0  0  0
    1.9320    3.1372    0.0000 H   0  0  0  0  0  0  0  0  0  0  0  0
    0.1659    3.7109    0.0000 H   0  0  0  0  0  0  0  0  0  0  0  0
   -1.2141    2.4684    0.0000 H   0  0  0  0  0  0  0  0  0  0  0  0
    0.1266   -1.5125    0.0000 H   0  0  0  0  0  0  0  0  0  0  0  0
   -0.8000   -0.9775    0.0000 H   0  0  0  0  0  0  0  0  0  0  0  0
    1.5555   -1.4270    0.0000 H   0  0  0  0  0  0  0  0  0  0  0  0
    3.1226    1.2873    0.0000 H   0  0  0  0  0  0  0  0  0  0  0  0
    2.9845   -1.4270    0.0000 H   0  0  0  0  0  0  0  0  0  0  0  0
    3.8371    0.0498    0.0000 H   0  0  0  0  0  0  0  0  0  0  0  0
  1  2  1  0  0  0  0
  1 25  1  0  0  0  0
  2 26  1  0  0  0  0
  3  7  1  0  0  0  0
  3  2  2  0  0  0  0
  4  3  1  0  0  0  0
  4 27  1  0  0  0  0
  5  4  2  0  0  0  0
  5  6  1  0  0  0  0
  5 28  1  0  0  0  0
  6  1  2  0  0  0  0
  6 29  1  0  0  0  0
  7  8  2  0  0  0  0
  8 30  1  0  0  0  0
  9  8  1  0  0  0  0
  9 31  1  0  0  0  0
 10  9  2  0  0  0  0
 11 10  1  0  0  0  0
 11  7  1  0  0  0  0
 12 10  1  0  0  0  0
 13 12  1  0  0  0  0
 13 32  1  0  0  0  0
 14 13  2  0  0  0  0
 14 33  1  0  0  0  0
 15 16  2  0  0  0  0
 15 14  1  0  0  0  0
 15 34  1  0  0  0  0
 16 17  1  0  0  0  0
 16 35  1  0  0  0  0
 17 12  2  0  0  0  0
 17 36  1  0  0  0  0
 18 19  1  0  0  0  0
 18 11  1  0  0  0  0
 18 37  1  0  0  0  0
 18 38  1  0  0  0  0
 19 21  2  0  0  0  0
 20 22  1  0  0  0  0
 20 19  1  0  0  0  0
 20 39  1  0  0  0  0
 22 23  2  0  0  0  0
 23 40  1  0  0  0  0
 24 22  1  0  0  0  0
 24 41  1  0  0  0  0
 24 42  1  0  0  0  0
M  END
>  <DRUGBANK_ID>
DB06930

>  <COMMON_NAME>
N-[amino(imino)methyl]-2-(2,5-diphenyl-1H-pyrrol-1-yl)acetamide

$$$$
