
 OpenBabel10282417072D

 43 46  0  0  0  0  0  0  0  0999 V2000
   -0.9992   -0.4028    0.0000 N   0  0  3  0  0  0  0  0  0  0  0  0
   -1.7287    0.8248    0.0000 C   0  0  0  0  0  0  0  0  0  0  0  0
   -1.7099   -0.8228    0.0000 C   0  0  0  0  0  0  0  0  0  0  0  0
   -2.4368    0.4067    0.0000 C   0  0  0  0  0  0  0  0  0  0  0  0
   -2.4281   -0.4169    0.0000 C   0  0  0  0  0  0  0  0  0  0  0  0
    0.3980   -0.9987    0.0000 C   0  0  2  0  0  0  0  0  0  0  0  0
   -0.4246   -0.9914    0.0000 C   0  0  0  0  0  0  0  0  0  0  0  0
    0.9992    0.4028    0.0000 N   0  0  3  0  0  0  0  0  0  0  0  0
    0.4246    0.9914    0.0000 C   0  0  0  0  0  0  0  0  0  0  0  0
    2.4281    0.4169    0.0000 C   0  0  0  0  0  0  0  0  0  0  0  0
    2.4368   -0.4067    0.0000 C   0  0  0  0  0  0  0  0  0  0  0  0
    1.7099    0.8228    0.0000 C   0  0  0  0  0  0  0  0  0  0  0  0
    1.7287   -0.8248    0.0000 C   0  0  0  0  0  0  0  0  0  0  0  0
   -0.3980    0.9987    0.0000 C   0  0  2  0  0  0  0  0  0  0  0  0
    0.3980    0.3027    0.0000 C   0  0  0  0  0  0  0  0  0  0  0  0
   -0.9992    0.4225    0.0000 C   0  0  2  0  0  0  0  0  0  0  0  0
   -0.9992    1.2475    0.0000 H   0  0  0  0  0  0  0  0  0  0  0  0
    0.9992   -0.4225    0.0000 C   0  0  1  0  0  0  0  0  0  0  0  0
    0.9992   -1.2475    0.0000 H   0  0  0  0  0  0  0  0  0  0  0  0
   -1.7444    1.8947    0.0000 H   0  0  0  0  0  0  0  0  0  0  0  0
   -2.6618    1.3484    0.0000 H   0  0  0  0  0  0  0  0  0  0  0  0
   -1.6996   -1.8927    0.0000 H   0  0  0  0  0  0  0  0  0  0  0  0
   -2.6315   -1.3665    0.0000 H   0  0  0  0  0  0  0  0  0  0  0  0
   -3.3688    0.9323    0.0000 H   0  0  0  0  0  0  0  0  0  0  0  0
   -3.3579   -0.1379    0.0000 H   0  0  0  0  0  0  0  0  0  0  0  0
   -3.3494   -0.9610    0.0000 H   0  0  0  0  0  0  0  0  0  0  0  0
   -3.3602    0.1086    0.0000 H   0  0  0  0  0  0  0  0  0  0  0  0
   -0.3552   -0.2387    0.0000 H   0  0  0  0  0  0  0  0  0  0  0  0
   -0.8444   -1.9756    0.0000 H   0  0  0  0  0  0  0  0  0  0  0  0
   -1.4763   -1.1883    0.0000 H   0  0  0  0  0  0  0  0  0  0  0  0
    0.8444    1.9756    0.0000 H   0  0  0  0  0  0  0  0  0  0  0  0
   -0.1612    1.8868    0.0000 H   0  0  0  0  0  0  0  0  0  0  0  0
    3.3494    0.9610    0.0000 H   0  0  0  0  0  0  0  0  0  0  0  0
    2.4179    1.4869    0.0000 H   0  0  0  0  0  0  0  0  0  0  0  0
    3.3688   -0.9323    0.0000 H   0  0  0  0  0  0  0  0  0  0  0  0
    2.4475   -1.4766    0.0000 H   0  0  0  0  0  0  0  0  0  0  0  0
    1.6996    1.8927    0.0000 H   0  0  0  0  0  0  0  0  0  0  0  0
    0.7780    1.3486    0.0000 H   0  0  0  0  0  0  0  0  0  0  0  0
    1.7444   -1.8947    0.0000 H   0  0  0  0  0  0  0  0  0  0  0  0
    0.8114   -1.3756    0.0000 H   0  0  0  0  0  0  0  0  0  0  0  0
   -0.3736   -0.0710    0.0000 H   0  0  0  0  0  0  0  0  0  0  0  0
    1.3723    0.7450    0.0000 H   0  0  0  0  0  0  0  0  0  0  0  0
    1.2975   -0.2768    0.0000 H   0  0  0  0  0  0  0  0  0  0  0  0
  1  7  1  0  0  0  0
  1 16  1  0  0  0  0
  2 16  1  0  0  0  0
  2 20  1  0  0  0  0
  2 21  1  0  0  0  0
  3  1  1  0  0  0  0
  3 22  1  0  0  0  0
  3 23  1  0  0  0  0
  4  2  1  0  0  0  0
  4 24  1  0  0  0  0
  4 25  1  0  0  0  0
  5  3  1  0  0  0  0
  5  4  1  0  0  0  0
  5 26  1  0  0  0  0
  5 27  1  0  0  0  0
  6 18  1  0  0  0  0
  6 15  1  0  0  0  0
  6 28  1  1  0  0  0
  7  6  1  0  0  0  0
  7 29  1  0  0  0  0
  7 30  1  0  0  0  0
  8 12  1  0  0  0  0
  9  8  1  0  0  0  0
  9 31  1  0  0  0  0
  9 32  1  0  0  0  0
 10 33  1  0  0  0  0
 10 34  1  0  0  0  0
 11 10  1  0  0  0  0
 11 35  1  0  0  0  0
 11 36  1  0  0  0  0
 12 10  1  0  0  0  0
 12 37  1  0  0  0  0
 12 38  1  0  0  0  0
 13 11  1  0  0  0  0
 13 39  1  0  0  0  0
 13 40  1  0  0  0  0
 14  9  1  0  0  0  0
 14 15  1  0  0  0  0
 14 41  1  1  0  0  0
 15 42  1  0  0  0  0
 15 43  1  0  0  0  0
 16 14  1  0  0  0  0
 16 17  1  1  0  0  0
 18 13  1  0  0  0  0
 18  8  1  0  0  0  0
 18 19  1  6  0  0  0
M  END
>  <DRUGBANK_ID>
DB06727

>  <COMMON_NAME>
Sparteine

>  <CAS_NUMBER>
90-39-1

>  <UNII>
298897D62S

>  <SYNONYMS>
(-)-sparteine; 6β,7α,9α,11α-pachycarpine; Esparteina; Lupinidine; Sparteina; Sparteine; Sparteinum

$$$$
