S10
 OpenBabel10282417072D

 33 32  0  0  0  0  0  0  0  0999 V2000
   -2.1433   -0.8562    0.0000 O   0  0  0  0  0  0  0  0  0  0  0  0
   -2.1433   -0.0312    0.0000 C   0  0  0  0  0  0  0  0  0  0  0  0
   -2.8578    0.3813    0.0000 O   0  0  0  0  0  0  0  0  0  0  0  0
   -3.5723   -0.0312    0.0000 C   0  0  0  0  0  0  0  0  0  0  0  0
   -4.2866    0.3813    0.0000 C   0  0  0  0  0  0  0  0  0  0  0  0
   -1.4288    0.3813    0.0000 N   0  0  0  0  0  0  0  0  0  0  0  0
   -0.7145   -0.0312    0.0000 C   0  0  0  0  0  0  0  0  0  0  0  0
    0.0000    0.3813    0.0000 C   0  0  0  0  0  0  0  0  0  0  0  0
    0.7145   -0.0312    0.0000 C   0  0  0  0  0  0  0  0  0  0  0  0
    1.4288    0.3813    0.0000 N   0  0  0  0  0  0  0  0  0  0  0  0
    2.1433   -0.0312    0.0000 C   0  0  0  0  0  0  0  0  0  0  0  0
    2.1433   -0.8562    0.0000 O   0  0  0  0  0  0  0  0  0  0  0  0
    2.8578    0.3813    0.0000 O   0  0  0  0  0  0  0  0  0  0  0  0
    3.5723   -0.0312    0.0000 C   0  0  0  0  0  0  0  0  0  0  0  0
    4.2866    0.3813    0.0000 C   0  0  0  0  0  0  0  0  0  0  0  0
   -3.5724   -1.1012    0.0000 H   0  0  0  0  0  0  0  0  0  0  0  0
   -4.4990   -0.5661    0.0000 H   0  0  0  0  0  0  0  0  0  0  0  0
   -4.2865    1.4513    0.0000 H   0  0  0  0  0  0  0  0  0  0  0  0
   -5.2133   -0.1536    0.0000 H   0  0  0  0  0  0  0  0  0  0  0  0
   -5.2132    0.9164    0.0000 H   0  0  0  0  0  0  0  0  0  0  0  0
   -1.4287    1.3658    0.0000 H   0  0  0  0  0  0  0  0  0  0  0  0
   -0.7146   -1.1012    0.0000 H   0  0  0  0  0  0  0  0  0  0  0  0
    0.2121   -0.5662    0.0000 H   0  0  0  0  0  0  0  0  0  0  0  0
    0.0000    1.4513    0.0000 H   0  0  0  0  0  0  0  0  0  0  0  0
    0.9266    0.9163    0.0000 H   0  0  0  0  0  0  0  0  0  0  0  0
    0.7146   -1.1012    0.0000 H   0  0  0  0  0  0  0  0  0  0  0  0
    1.6412   -0.5661    0.0000 H   0  0  0  0  0  0  0  0  0  0  0  0
    1.4287    1.3658    0.0000 H   0  0  0  0  0  0  0  0  0  0  0  0
    3.5724   -1.1012    0.0000 H   0  0  0  0  0  0  0  0  0  0  0  0
    4.4990   -0.5661    0.0000 H   0  0  0  0  0  0  0  0  0  0  0  0
    5.2133   -0.1536    0.0000 H   0  0  0  0  0  0  0  0  0  0  0  0
    4.2865    1.4513    0.0000 H   0  0  0  0  0  0  0  0  0  0  0  0
    5.2132    0.9164    0.0000 H   0  0  0  0  0  0  0  0  0  0  0  0
  1  2  2  0  0  0  0
  2  3  1  0  0  0  0
  2  6  1  0  0  0  0
  3  4  1  0  0  0  0
  4  5  1  0  0  0  0
  4 16  1  0  0  0  0
  4 17  1  0  0  0  0
  5 18  1  0  0  0  0
  5 19  1  0  0  0  0
  5 20  1  0  0  0  0
  6  7  1  0  0  0  0
  6 21  1  0  0  0  0
  7  8  1  0  0  0  0
  7 22  1  0  0  0  0
  7 23  1  0  0  0  0
  8  9  1  0  0  0  0
  8 24  1  0  0  0  0
  8 25  1  0  0  0  0
  9 10  1  0  0  0  0
  9 26  1  0  0  0  0
  9 27  1  0  0  0  0
 10 11  1  0  0  0  0
 10 28  1  0  0  0  0
 11 12  2  0  0  0  0
 11 13  1  0  0  0  0
 13 14  1  0  0  0  0
 14 15  1  0  0  0  0
 14 29  1  0  0  0  0
 14 30  1  0  0  0  0
 15 31  1  0  0  0  0
 15 32  1  0  0  0  0
 15 33  1  0  0  0  0
M  END
>  <DRUGBANK_ID>
DB08501

>  <COMMON_NAME>
DIETHYL PROPANE-1,3-DIYLBISCARBAMATE

>  <UNII>
F54CSU6844

$$$$
