
 OpenBabel10282417072D

 59 60  0  0  0  0  0  0  0  0999 V2000
   -0.5759    0.8071    0.0000 C   0  0  3  0  0  0  0  0  0  0  0  0
   -0.5759   -0.0179    0.0000 C   0  0  3  0  0  0  0  0  0  0  0  0
   -1.4030    0.8071    0.0000 C   0  0  0  0  0  0  0  0  0  0  0  0
    0.2510    0.8071    0.0000 O   0  0  0  0  0  0  0  0  0  0  0  0
   -0.5759    1.6362    0.0000 C   0  0  0  0  0  0  0  0  0  0  0  0
   -1.3572   -0.4225    0.0000 C   0  0  3  0  0  0  0  0  0  0  0  0
    0.1574   -0.4444    0.0000 C   0  0  0  0  0  0  0  0  0  0  0  0
   -1.8354    0.0757    0.0000 C   0  0  0  0  0  0  0  0  0  0  0  0
   -1.7996    1.5127    0.0000 C   0  0  0  0  0  0  0  0  0  0  0  0
    0.6437    0.1136    0.0000 C   0  0  0  0  0  0  0  0  0  0  0  0
   -0.5859   -1.0661    0.0000 C   0  0  0  0  0  0  0  0  0  0  0  0
   -1.3453   -1.2396    0.0000 C   0  0  0  0  0  0  0  0  0  0  0  0
    0.1534   -1.2216    0.0000 C   0  0  3  0  0  0  0  0  0  0  0  0
   -2.6067    0.0777    0.0000 C   0  0  0  0  0  0  0  0  0  0  0  0
   -2.6287    1.5127    0.0000 C   0  0  0  0  0  0  0  0  0  0  0  0
    1.4668    0.1136    0.0000 C   0  0  0  0  0  0  0  0  0  0  0  0
   -0.5759   -1.6362    0.0000 C   0  0  0  0  0  0  0  0  0  0  0  0
   -3.0253    0.8071    0.0000 C   0  0  0  0  0  0  0  0  0  0  0  0
    1.8634    0.8270    0.0000 N   0  3  0  0  0  0  0  0  0  0  0  0
    2.5729    0.4325    0.0000 C   0  0  0  0  0  0  0  0  0  0  0  0
    2.2381    1.5346    0.0000 C   0  0  0  0  0  0  0  0  0  0  0  0
    1.1579    1.2176    0.0000 C   0  0  0  0  0  0  0  0  0  0  0  0
    2.5848   -0.3487    0.0000 C   0  0  0  0  0  0  0  0  0  0  0  0
    3.0253    1.5346    0.0000 C   0  0  0  0  0  0  0  0  0  0  0  0
    1.8335   -1.3472    0.0000 Br  0  5  0  0  0  0  0  0  0  0  0  0
   -1.4901    0.5382    0.0000 H   0  0  0  0  0  0  0  0  0  0  0  0
    0.3507    2.1712    0.0000 H   0  0  0  0  0  0  0  0  0  0  0  0
   -1.5025    2.1712    0.0000 H   0  0  0  0  0  0  0  0  0  0  0  0
   -0.5759    2.7062    0.0000 H   0  0  0  0  0  0  0  0  0  0  0  0
   -0.2935   -0.5387    0.0000 H   0  0  0  0  0  0  0  0  0  0  0  0
    1.0863    0.0867    0.0000 H   0  0  0  0  0  0  0  0  0  0  0  0
    1.0815   -0.9837    0.0000 H   0  0  0  0  0  0  0  0  0  0  0  0
   -1.3252   -0.8214    0.0000 H   0  0  0  0  0  0  0  0  0  0  0  0
   -1.2785    2.4034    0.0000 H   0  0  0  0  0  0  0  0  0  0  0  0
    0.1048   -0.8108    0.0000 H   0  0  0  0  0  0  0  0  0  0  0  0
    1.1768   -0.8142    0.0000 H   0  0  0  0  0  0  0  0  0  0  0  0
   -1.0526   -2.0289    0.0000 H   0  0  0  0  0  0  0  0  0  0  0  0
   -0.1147   -2.0267    0.0000 H   0  0  0  0  0  0  0  0  0  0  0  0
   -2.2226   -1.7831    0.0000 H   0  0  0  0  0  0  0  0  0  0  0  0
   -0.5187   -0.3890    0.0000 H   0  0  0  0  0  0  0  0  0  0  0  0
   -3.1250   -0.8147    0.0000 H   0  0  0  0  0  0  0  0  0  0  0  0
   -3.1498    2.4034    0.0000 H   0  0  0  0  0  0  0  0  0  0  0  0
    2.0093   -0.8087    0.0000 H   0  0  0  0  0  0  0  0  0  0  0  0
    2.5367    0.1266    0.0000 H   0  0  0  0  0  0  0  0  0  0  0  0
   -0.5548   -2.6680    0.0000 H   0  0  0  0  0  0  0  0  0  0  0  0
   -4.0573    0.8025    0.0000 H   0  0  0  0  0  0  0  0  0  0  0  0
    3.4910    0.9820    0.0000 H   0  0  0  0  0  0  0  0  0  0  0  0
    3.5077   -0.0881    0.0000 H   0  0  0  0  0  0  0  0  0  0  0  0
    1.6862    2.4513    0.0000 H   0  0  0  0  0  0  0  0  0  0  0  0
    2.7646    2.4661    0.0000 H   0  0  0  0  0  0  0  0  0  0  0  0
    1.1387    2.2874    0.0000 H   0  0  0  0  0  0  0  0  0  0  0  0
    0.2410    0.6660    0.0000 H   0  0  0  0  0  0  0  0  0  0  0  0
    0.2218    1.7359    0.0000 H   0  0  0  0  0  0  0  0  0  0  0  0
    1.6664   -0.8978    0.0000 H   0  0  0  0  0  0  0  0  0  0  0  0
    3.5195   -0.8695    0.0000 H   0  0  0  0  0  0  0  0  0  0  0  0
    2.6011   -1.4186    0.0000 H   0  0  0  0  0  0  0  0  0  0  0  0
    3.5603    0.6080    0.0000 H   0  0  0  0  0  0  0  0  0  0  0  0
    3.5603    2.4612    0.0000 H   0  0  0  0  0  0  0  0  0  0  0  0
    4.0953    1.5346    0.0000 H   0  0  0  0  0  0  0  0  0  0  0  0
  1  2  1  0  0  0  0
  1  3  1  0  0  0  0
  1  4  1  0  0  0  0
  1  5  1  0  0  0  0
  2  6  1  0  0  0  0
  2  7  1  0  0  0  0
  2 26  1  0  0  0  0
  3  8  2  0  0  0  0
  3  9  1  0  0  0  0
  4 10  1  0  0  0  0
  5 27  1  0  0  0  0
  5 28  1  0  0  0  0
  5 29  1  0  0  0  0
  6 11  1  0  0  0  0
  6 12  1  0  0  0  0
  6 30  1  0  0  0  0
  7 13  1  0  0  0  0
  7 31  1  0  0  0  0
  7 32  1  0  0  0  0
  8 14  1  0  0  0  0
  8 33  1  0  0  0  0
  9 15  2  0  0  0  0
  9 34  1  0  0  0  0
 10 16  1  0  0  0  0
 10 35  1  0  0  0  0
 10 36  1  0  0  0  0
 11 13  1  0  0  0  0
 11 37  1  0  0  0  0
 11 38  1  0  0  0  0
 12 17  2  0  0  0  0
 12 39  1  0  0  0  0
 13 17  1  0  0  0  0
 13 40  1  0  0  0  0
 14 18  2  0  0  0  0
 14 41  1  0  0  0  0
 15 18  1  0  0  0  0
 15 42  1  0  0  0  0
 16 19  1  0  0  0  0
 16 43  1  0  0  0  0
 16 44  1  0  0  0  0
 17 45  1  0  0  0  0
 18 46  1  0  0  0  0
 19 20  1  0  0  0  0
 19 21  1  0  0  0  0
 19 22  1  0  0  0  0
 20 23  1  0  0  0  0
 20 47  1  0  0  0  0
 20 48  1  0  0  0  0
 21 24  1  0  0  0  0
 21 49  1  0  0  0  0
 21 50  1  0  0  0  0
 22 51  1  0  0  0  0
 22 52  1  0  0  0  0
 22 53  1  0  0  0  0
 23 54  1  0  0  0  0
 23 55  1  0  0  0  0
 23 56  1  0  0  0  0
 24 57  1  0  0  0  0
 24 58  1  0  0  0  0
 24 59  1  0  0  0  0
M  CHG  2  19   1  25  -1
M  END
>  <DRUGBANK_ID>
DB15827

>  <COMMON_NAME>
Ciclonium bromide

>  <CAS_NUMBER>
29546-59-6

>  <UNII>
72R7F44611

>  <SYNONYMS>
Bromure de ciclonium; Bromuro de ciclonio; Ciclonii bromidum; Ciclonium bromide; Cyclonium bromide

$$$$
