
 OpenBabel10282417072D

 29 28  0  0  0  0  0  0  0  0999 V2000
   -2.1434    1.1740    0.0000 N   0  3  0  0  0  0  0  0  0  0  0  0
    2.1434    1.1740    0.0000 N   0  3  0  0  0  0  0  0  0  0  0  0
    0.0000    0.7615    0.0000 C   0  0  0  0  0  0  0  0  0  0  0  0
    2.8579    0.7615    0.0000 O   0  5  0  0  0  0  0  0  0  0  0  0
   -2.8579    0.7615    0.0000 O   0  5  0  0  0  0  0  0  0  0  0  0
    2.1434    1.9990    0.0000 O   0  0  0  0  0  0  0  0  0  0  0  0
   -2.1434    1.9990    0.0000 O   0  0  0  0  0  0  0  0  0  0  0  0
    1.4289    0.7615    0.0000 O   0  0  0  0  0  0  0  0  0  0  0  0
   -1.4289    0.7615    0.0000 O   0  0  0  0  0  0  0  0  0  0  0  0
   -0.7144    1.1740    0.0000 C   0  0  0  0  0  0  0  0  0  0  0  0
    0.7144    1.1740    0.0000 C   0  0  0  0  0  0  0  0  0  0  0  0
    0.5833    0.1781    0.0000 C   0  0  0  0  0  0  0  0  0  0  0  0
   -0.5833    0.1781    0.0000 C   0  0  0  0  0  0  0  0  0  0  0  0
   -0.3697   -0.6187    0.0000 O   0  0  0  0  0  0  0  0  0  0  0  0
   -0.9531   -1.2021    0.0000 N   0  3  0  0  0  0  0  0  0  0  0  0
   -0.7395   -1.9990    0.0000 O   0  0  0  0  0  0  0  0  0  0  0  0
   -1.7500   -0.9886    0.0000 O   0  5  0  0  0  0  0  0  0  0  0  0
    0.3697   -0.6187    0.0000 O   0  0  0  0  0  0  0  0  0  0  0  0
    0.9531   -1.2021    0.0000 N   0  3  0  0  0  0  0  0  0  0  0  0
    0.7395   -1.9990    0.0000 O   0  0  0  0  0  0  0  0  0  0  0  0
    1.7500   -0.9886    0.0000 O   0  5  0  0  0  0  0  0  0  0  0  0
   -0.7144    2.2440    0.0000 H   0  0  0  0  0  0  0  0  0  0  0  0
   -1.6410    1.7090    0.0000 H   0  0  0  0  0  0  0  0  0  0  0  0
    0.7144    2.2440    0.0000 H   0  0  0  0  0  0  0  0  0  0  0  0
    1.6410    1.7090    0.0000 H   0  0  0  0  0  0  0  0  0  0  0  0
    1.6169    0.4549    0.0000 H   0  0  0  0  0  0  0  0  0  0  0  0
    1.3398   -0.5786    0.0000 H   0  0  0  0  0  0  0  0  0  0  0  0
   -1.6169    0.4549    0.0000 H   0  0  0  0  0  0  0  0  0  0  0  0
   -1.3398   -0.5786    0.0000 H   0  0  0  0  0  0  0  0  0  0  0  0
  4  2  1  0  0  0  0
  5  1  1  0  0  0  0
  6  2  2  0  0  0  0
  7  1  2  0  0  0  0
  8  2  1  0  0  0  0
  9  1  1  0  0  0  0
 10  3  1  0  0  0  0
 10  9  1  0  0  0  0
 10 22  1  0  0  0  0
 10 23  1  0  0  0  0
 11  3  1  0  0  0  0
 11  8  1  0  0  0  0
 11 24  1  0  0  0  0
 11 25  1  0  0  0  0
 12  3  1  0  0  0  0
 12 18  1  0  0  0  0
 12 26  1  0  0  0  0
 12 27  1  0  0  0  0
 13  3  1  0  0  0  0
 13 14  1  0  0  0  0
 13 28  1  0  0  0  0
 13 29  1  0  0  0  0
 14 15  1  0  0  0  0
 15 16  2  0  0  0  0
 15 17  1  0  0  0  0
 18 19  1  0  0  0  0
 19 20  2  0  0  0  0
 19 21  1  0  0  0  0
M  CHG  8   1   1   2   1   4  -1   5  -1  15   1  17  -1  19   1  21  -1
M  END
>  <DRUGBANK_ID>
DB06154

>  <COMMON_NAME>
Pentaerythritol tetranitrate

>  <CAS_NUMBER>
78-11-5

>  <UNII>
10L39TRG1Z

>  <SYNONYMS>
Corpent; PENT; PENTA; Pentaerithrityl tetranitrate; pentaerithrityli tetranitras; Pentaerythritol tetranitrate; Penthrite; TEN; Tetranitrate de pentaerithrityle; Tetranitrato de pentaeritritilo

$$$$
