XP1
 OpenBabel10282417072D

 23 23  0  0  0  0  0  0  0  0999 V2000
   -8.2529  -21.5312    0.0000 C   0  0  0  0  0  0  0  0  0  0  0  0
   -8.2529  -22.3562    0.0000 N   0  0  0  0  0  0  0  0  0  0  0  0
   -7.5385  -22.7687    0.0000 C   0  0  0  0  0  0  0  0  0  0  0  0
   -8.9674  -22.7687    0.0000 C   0  0  0  0  0  0  0  0  0  0  0  0
   -8.9674  -23.5937    0.0000 C   0  0  0  0  0  0  0  0  0  0  0  0
   -9.6819  -24.0062    0.0000 C   0  0  0  0  0  0  0  0  0  0  0  0
  -10.3963  -23.5937    0.0000 C   0  0  0  0  0  0  0  0  0  0  0  0
  -11.1108  -24.0062    0.0000 C   0  0  0  0  0  0  0  0  0  0  0  0
  -11.1108  -24.8312    0.0000 O   0  0  0  0  0  0  0  0  0  0  0  0
  -10.3963  -22.7687    0.0000 C   0  0  0  0  0  0  0  0  0  0  0  0
   -9.6819  -22.3562    0.0000 C   0  0  0  0  0  0  0  0  0  0  0  0
  -11.8253  -23.5937    0.0000 O   0  0  0  0  0  0  0  0  0  0  0  0
   -7.3263  -20.9962    0.0000 H   0  0  0  0  0  0  0  0  0  0  0  0
   -9.1795  -20.9962    0.0000 H   0  0  0  0  0  0  0  0  0  0  0  0
   -8.2529  -20.4612    0.0000 H   0  0  0  0  0  0  0  0  0  0  0  0
   -7.5385  -23.8387    0.0000 H   0  0  0  0  0  0  0  0  0  0  0  0
   -6.6118  -22.2337    0.0000 H   0  0  0  0  0  0  0  0  0  0  0  0
   -6.6119  -23.3037    0.0000 H   0  0  0  0  0  0  0  0  0  0  0  0
   -8.0737  -24.1097    0.0000 H   0  0  0  0  0  0  0  0  0  0  0  0
   -9.6819  -25.0382    0.0000 H   0  0  0  0  0  0  0  0  0  0  0  0
  -11.2900  -22.2527    0.0000 H   0  0  0  0  0  0  0  0  0  0  0  0
   -9.6819  -21.3242    0.0000 H   0  0  0  0  0  0  0  0  0  0  0  0
  -11.8253  -22.6567    0.0000 H   0  0  0  0  0  0  0  0  0  0  0  0
  1  2  1  0  0  0  0
  1 13  1  0  0  0  0
  1 14  1  0  0  0  0
  1 15  1  0  0  0  0
  2  3  1  0  0  0  0
  2  4  1  0  0  0  0
  3 16  1  0  0  0  0
  3 17  1  0  0  0  0
  3 18  1  0  0  0  0
  4  5  1  0  0  0  0
  4 11  2  0  0  0  0
  5  6  2  0  0  0  0
  5 19  1  0  0  0  0
  6  7  1  0  0  0  0
  6 20  1  0  0  0  0
  7  8  1  0  0  0  0
  7 10  2  0  0  0  0
  8  9  2  0  0  0  0
  8 12  1  0  0  0  0
 10 11  1  0  0  0  0
 10 21  1  0  0  0  0
 11 22  1  0  0  0  0
 12 23  1  0  0  0  0
M  END
>  <DRUGBANK_ID>
DB08748

>  <COMMON_NAME>
4-(Dimethylamino)benzoic acid

>  <CAS_NUMBER>
619-84-1

>  <UNII>
D1MA908EV0

>  <SYNONYMS>
N,N-Dimethyl-4-aminobenzoic acid; N,N-Dimethyl-p-aminobenzoic acid; p-Dimethylamino benzoic acid; p-N,N-(Dimethylamino)benzoic acid

$$$$
