
 OpenBabel10282417072D

 45 47  0  0  0  0  0  0  0  0999 V2000
   -3.2366   -1.2285    0.0000 C   0  0  0  0  0  0  0  0  0  0  0  0
   -3.9510   -1.6410    0.0000 C   0  0  0  0  0  0  0  0  0  0  0  0
   -3.9510   -2.4661    0.0000 C   0  0  0  0  0  0  0  0  0  0  0  0
   -3.2366   -2.8786    0.0000 C   0  0  0  0  0  0  0  0  0  0  0  0
   -2.5221   -2.4661    0.0000 C   0  0  0  0  0  0  0  0  0  0  0  0
   -2.5221   -1.6410    0.0000 C   0  0  0  0  0  0  0  0  0  0  0  0
   -3.2366   -0.4035    0.0000 C   0  0  0  0  0  0  0  0  0  0  0  0
   -2.5222    0.0090    0.0000 N   0  0  0  0  0  0  0  0  0  0  0  0
   -2.5222    0.8340    0.0000 C   0  0  0  0  0  0  0  0  0  0  0  0
   -1.8077   -0.4034    0.0000 C   0  0  0  0  0  0  0  0  0  0  0  0
   -1.0932    0.0090    0.0000 C   0  0  0  0  0  0  0  0  0  0  0  0
   -0.3787   -0.4034    0.0000 N   0  0  0  0  0  0  0  0  0  0  0  0
   -0.2924   -1.2239    0.0000 C   0  0  0  0  0  0  0  0  0  0  0  0
    0.5144   -1.3954    0.0000 C   0  0  0  0  0  0  0  0  0  0  0  0
    0.9269   -0.6809    0.0000 C   0  0  0  0  0  0  0  0  0  0  0  0
    0.3749   -0.0679    0.0000 C   0  0  0  0  0  0  0  0  0  0  0  0
   -1.8078    1.2464    0.0000 C   0  0  0  0  0  0  0  0  0  0  0  0
   -1.8078    2.0715    0.0000 C   0  0  0  0  0  0  0  0  0  0  0  0
   -2.5221    2.4841    0.0000 C   0  0  0  0  0  0  0  0  0  0  0  0
   -3.2367    2.0716    0.0000 C   0  0  0  0  0  0  0  0  0  0  0  0
   -3.2367    1.2465    0.0000 C   0  0  0  0  0  0  0  0  0  0  0  0
   -4.8447   -1.1250    0.0000 H   0  0  0  0  0  0  0  0  0  0  0  0
   -4.8447   -2.9821    0.0000 H   0  0  0  0  0  0  0  0  0  0  0  0
   -3.2366   -3.9106    0.0000 H   0  0  0  0  0  0  0  0  0  0  0  0
   -1.6284   -2.9821    0.0000 H   0  0  0  0  0  0  0  0  0  0  0  0
   -1.6284   -1.1250    0.0000 H   0  0  0  0  0  0  0  0  0  0  0  0
   -4.1633    0.1315    0.0000 H   0  0  0  0  0  0  0  0  0  0  0  0
   -3.2366    0.6665    0.0000 H   0  0  0  0  0  0  0  0  0  0  0  0
   -1.8077   -1.4734    0.0000 H   0  0  0  0  0  0  0  0  0  0  0  0
   -2.7343   -0.9385    0.0000 H   0  0  0  0  0  0  0  0  0  0  0  0
   -1.0932    1.0790    0.0000 H   0  0  0  0  0  0  0  0  0  0  0  0
   -0.1666    0.5441    0.0000 H   0  0  0  0  0  0  0  0  0  0  0  0
   -1.0875   -1.9399    0.0000 H   0  0  0  0  0  0  0  0  0  0  0  0
   -1.2914   -0.8405    0.0000 H   0  0  0  0  0  0  0  0  0  0  0  0
    0.9496   -2.3729    0.0000 H   0  0  0  0  0  0  0  0  0  0  0  0
    1.5829   -1.4514    0.0000 H   0  0  0  0  0  0  0  0  0  0  0  0
    1.9910   -0.5690    0.0000 H   0  0  0  0  0  0  0  0  0  0  0  0
    1.3103    0.3180    0.0000 H   0  0  0  0  0  0  0  0  0  0  0  0
    0.5974    0.9787    0.0000 H   0  0  0  0  0  0  0  0  0  0  0  0
   -0.4566    0.6055    0.0000 H   0  0  0  0  0  0  0  0  0  0  0  0
   -0.9141    0.7304    0.0000 H   0  0  0  0  0  0  0  0  0  0  0  0
   -0.9140    2.5874    0.0000 H   0  0  0  0  0  0  0  0  0  0  0  0
   -2.5220    3.5161    0.0000 H   0  0  0  0  0  0  0  0  0  0  0  0
   -4.1304    2.5876    0.0000 H   0  0  0  0  0  0  0  0  0  0  0  0
   -4.1304    0.7305    0.0000 H   0  0  0  0  0  0  0  0  0  0  0  0
  1  2  2  0  0  0  0
  1  7  1  0  0  0  0
  2  3  1  0  0  0  0
  2 22  1  0  0  0  0
  3  4  2  0  0  0  0
  3 23  1  0  0  0  0
  4  5  1  0  0  0  0
  4 24  1  0  0  0  0
  5  6  2  0  0  0  0
  5 25  1  0  0  0  0
  6  1  1  0  0  0  0
  6 26  1  0  0  0  0
  7  8  1  0  0  0  0
  7 27  1  0  0  0  0
  7 28  1  0  0  0  0
  8  9  1  0  0  0  0
  8 10  1  0  0  0  0
  9 17  2  0  0  0  0
 10 11  1  0  0  0  0
 10 29  1  0  0  0  0
 10 30  1  0  0  0  0
 11 12  1  0  0  0  0
 11 31  1  0  0  0  0
 11 32  1  0  0  0  0
 12 13  1  0  0  0  0
 12 16  1  0  0  0  0
 13 14  1  0  0  0  0
 13 33  1  0  0  0  0
 13 34  1  0  0  0  0
 14 15  1  0  0  0  0
 14 35  1  0  0  0  0
 14 36  1  0  0  0  0
 15 16  1  0  0  0  0
 15 37  1  0  0  0  0
 15 38  1  0  0  0  0
 16 39  1  0  0  0  0
 16 40  1  0  0  0  0
 17 18  1  0  0  0  0
 17 41  1  0  0  0  0
 18 19  2  0  0  0  0
 18 42  1  0  0  0  0
 19 20  1  0  0  0  0
 19 43  1  0  0  0  0
 20 21  2  0  0  0  0
 20 44  1  0  0  0  0
 21  9  1  0  0  0  0
 21 45  1  0  0  0  0
M  END
>  <DRUGBANK_ID>
DB13479

>  <COMMON_NAME>
Histapyrrodine

>  <CAS_NUMBER>
493-80-1

>  <UNII>
0FYM61NG4D

>  <SYNONYMS>
Histapyrrodine

$$$$
