
 OpenBabel10282417072D

 52 54  0  0  1  0  0  0  0  0999 V2000
  -12.7180    3.0695    0.0000 N   0  0  0  0  0  0  0  0  0  0  0  0
  -11.9643    2.7339    0.0000 C   0  0  0  0  0  0  0  0  0  0  0  0
  -11.2969    3.2188    0.0000 N   0  0  0  0  0  0  0  0  0  0  0  0
  -10.5432    2.8833    0.0000 C   0  0  0  0  0  0  0  0  0  0  0  0
   -9.7895    3.2188    0.0000 N   0  0  0  0  0  0  0  0  0  0  0  0
   -9.2375    2.6057    0.0000 C   0  0  0  0  0  0  0  0  0  0  0  0
   -8.4170    2.6920    0.0000 C   0  0  0  0  0  0  0  0  0  0  0  0
   -8.0815    3.4456    0.0000 C   0  0  0  0  0  0  0  0  0  0  0  0
   -7.2610    3.5319    0.0000 C   0  0  0  0  0  0  0  0  0  0  0  0
   -6.9254    4.2855    0.0000 C   0  0  0  0  0  0  0  0  0  0  0  0
   -7.3379    5.0000    0.0000 C   0  0  0  0  0  0  0  0  0  0  0  0
   -6.7859    5.6131    0.0000 C   0  0  0  0  0  0  0  0  0  0  0  0
   -6.0322    5.2776    0.0000 C   0  0  0  0  0  0  0  0  0  0  0  0
   -6.1185    4.4571    0.0000 S   0  0  0  0  0  0  0  0  0  0  0  0
   -5.3178    5.6901    0.0000 C   0  0  0  0  0  0  0  0  0  0  0  0
   -5.3178    6.5151    0.0000 O   0  0  0  0  0  0  0  0  0  0  0  0
   -4.6033    5.2776    0.0000 N   0  0  0  0  0  0  0  0  0  0  0  0
   -3.8888    5.6901    0.0000 C   0  0  1  0  0  0  0  0  0  0  0  0
   -3.1743    5.2776    0.0000 C   0  0  0  0  0  0  0  0  0  0  0  0
   -2.4599    5.6901    0.0000 C   0  0  0  0  0  0  0  0  0  0  0  0
   -1.7454    5.2776    0.0000 C   0  0  0  0  0  0  0  0  0  0  0  0
   -1.0309    5.6901    0.0000 O   0  0  0  0  0  0  0  0  0  0  0  0
   -1.7454    4.4526    0.0000 O   0  0  0  0  0  0  0  0  0  0  0  0
   -3.8888    6.5151    0.0000 C   0  0  0  0  0  0  0  0  0  0  0  0
   -3.1743    6.9276    0.0000 O   0  0  0  0  0  0  0  0  0  0  0  0
   -4.6033    6.9276    0.0000 O   0  0  0  0  0  0  0  0  0  0  0  0
   -9.6500    1.8913    0.0000 C   0  0  0  0  0  0  0  0  0  0  0  0
  -10.4570    2.0628    0.0000 C   0  0  0  0  0  0  0  0  0  0  0  0
  -11.1244    1.5779    0.0000 C   0  0  0  0  0  0  0  0  0  0  0  0
  -11.0382    0.7574    0.0000 O   0  0  0  0  0  0  0  0  0  0  0  0
  -11.8781    1.9134    0.0000 N   0  0  0  0  0  0  0  0  0  0  0  0
  -12.8209    4.0486    0.0000 H   0  0  0  0  0  0  0  0  0  0  0  0
  -13.5145    2.4909    0.0000 H   0  0  0  0  0  0  0  0  0  0  0  0
   -9.5848    4.1818    0.0000 H   0  0  0  0  0  0  0  0  0  0  0  0
   -7.7880    1.8264    0.0000 H   0  0  0  0  0  0  0  0  0  0  0  0
   -7.3529    2.8039    0.0000 H   0  0  0  0  0  0  0  0  0  0  0  0
   -8.7105    4.3112    0.0000 H   0  0  0  0  0  0  0  0  0  0  0  0
   -7.6464    4.4231    0.0000 H   0  0  0  0  0  0  0  0  0  0  0  0
   -6.6321    2.6662    0.0000 H   0  0  0  0  0  0  0  0  0  0  0  0
   -6.1969    3.6437    0.0000 H   0  0  0  0  0  0  0  0  0  0  0  0
   -8.3642    5.1079    0.0000 H   0  0  0  0  0  0  0  0  0  0  0  0
   -7.0005    6.6225    0.0000 H   0  0  0  0  0  0  0  0  0  0  0  0
   -4.6033    4.2931    0.0000 H   0  0  0  0  0  0  0  0  0  0  0  0
   -3.8888    4.6201    0.0000 H   0  0  0  0  0  0  0  0  0  0  0  0
   -3.1743    4.2076    0.0000 H   0  0  0  0  0  0  0  0  0  0  0  0
   -2.2476    4.7426    0.0000 H   0  0  0  0  0  0  0  0  0  0  0  0
   -2.4599    6.7601    0.0000 H   0  0  0  0  0  0  0  0  0  0  0  0
   -1.5333    6.2251    0.0000 H   0  0  0  0  0  0  0  0  0  0  0  0
   -0.2194    5.2216    0.0000 H   0  0  0  0  0  0  0  0  0  0  0  0
   -2.3628    6.4591    0.0000 H   0  0  0  0  0  0  0  0  0  0  0  0
   -9.2302    0.9485    0.0000 H   0  0  0  0  0  0  0  0  0  0  0  0
  -12.6746    1.3347    0.0000 H   0  0  0  0  0  0  0  0  0  0  0  0
  1  2  1  0  0  0  0
  1 32  1  0  0  0  0
  1 33  1  0  0  0  0
  2  3  2  0  0  0  0
  2 31  1  0  0  0  0
  3  4  1  0  0  0  0
  4  5  1  0  0  0  0
  4 28  2  0  0  0  0
  5  6  1  0  0  0  0
  5 34  1  0  0  0  0
  6  7  1  0  0  0  0
  6 27  2  0  0  0  0
  7  8  1  0  0  0  0
  7 35  1  0  0  0  0
  7 36  1  0  0  0  0
  8  9  1  0  0  0  0
  8 37  1  0  0  0  0
  8 38  1  0  0  0  0
  9 10  1  0  0  0  0
  9 39  1  0  0  0  0
  9 40  1  0  0  0  0
 10 11  2  0  0  0  0
 10 14  1  0  0  0  0
 11 12  1  0  0  0  0
 11 41  1  0  0  0  0
 12 13  2  0  0  0  0
 12 42  1  0  0  0  0
 13 14  1  0  0  0  0
 13 15  1  0  0  0  0
 15 16  2  0  0  0  0
 15 17  1  0  0  0  0
 17 43  1  0  0  0  0
 18 17  1  0  0  0  0
 18 19  1  0  0  0  0
 18 24  1  0  0  0  0
 18 44  1  1  0  0  0
 19 20  1  0  0  0  0
 19 45  1  0  0  0  0
 19 46  1  0  0  0  0
 20 21  1  0  0  0  0
 20 47  1  0  0  0  0
 20 48  1  0  0  0  0
 21 22  1  0  0  0  0
 21 23  2  0  0  0  0
 22 49  1  0  0  0  0
 24 25  1  0  0  0  0
 24 26  2  0  0  0  0
 25 50  1  0  0  0  0
 27 28  1  0  0  0  0
 27 51  1  0  0  0  0
 28 29  1  0  0  0  0
 29 30  2  0  0  0  0
 29 31  1  0  0  0  0
 31 52  1  0  0  0  0
M  END
>  <DRUGBANK_ID>
DB18023

>  <COMMON_NAME>
AGF-94

>  <CAS_NUMBER>
136784-51-5

>  <UNII>
X28K3E95TF

>  <SYNONYMS>
(5-(3-(2-amino-4-oxo-4,7-dihydro-3 h-pyrrolo(2,3-d)pyrimidin-6-yl)propyl)thiophene-2-carbonyl)-l-glutamic acid

$$$$
