3585
 OpenBabel10282417072D

 44 46  0  0  1  0  0  0  0  0999 V2000
    1.6500   -0.0480    0.0000 O   0  0  0  0  0  0  0  0  0  0  0  0
    3.9995    1.6590    0.0000 O   0  0  0  0  0  0  0  0  0  0  0  0
    3.1021   -3.5780    0.0000 O   0  0  0  0  0  0  0  0  0  0  0  0
    3.1021   -0.2780    0.0000 N   0  0  0  0  0  0  0  0  0  0  0  0
    3.7695    0.2069    0.0000 N   0  0  0  0  0  0  0  0  0  0  0  0
    2.6896    0.9916    0.0000 C   0  0  3  0  0  0  0  0  0  0  0  0
    2.2047    1.6590    0.0000 C   0  0  0  0  0  0  0  0  0  0  0  0
    2.4347    0.2069    0.0000 C   0  0  0  0  0  0  0  0  0  0  0  0
    3.5146    0.9916    0.0000 C   0  0  0  0  0  0  0  0  0  0  0  0
    2.5402    2.4126    0.0000 C   0  0  0  0  0  0  0  0  0  0  0  0
    2.0553    3.0801    0.0000 C   0  0  0  0  0  0  0  0  0  0  0  0
    3.1021   -1.1030    0.0000 C   0  0  0  0  0  0  0  0  0  0  0  0
    4.5541   -0.0480    0.0000 C   0  0  0  0  0  0  0  0  0  0  0  0
    2.3909    3.8338    0.0000 C   0  0  0  0  0  0  0  0  0  0  0  0
    3.8166   -1.5155    0.0000 C   0  0  0  0  0  0  0  0  0  0  0  0
    2.3876   -1.5155    0.0000 C   0  0  0  0  0  0  0  0  0  0  0  0
    5.1672    0.5040    0.0000 C   0  0  0  0  0  0  0  0  0  0  0  0
    4.7257   -0.8550    0.0000 C   0  0  0  0  0  0  0  0  0  0  0  0
    3.8166   -2.3405    0.0000 C   0  0  0  0  0  0  0  0  0  0  0  0
    2.3876   -2.3405    0.0000 C   0  0  0  0  0  0  0  0  0  0  0  0
    5.9518    0.2491    0.0000 C   0  0  0  0  0  0  0  0  0  0  0  0
    5.5103   -1.1100    0.0000 C   0  0  0  0  0  0  0  0  0  0  0  0
    3.1021   -2.7530    0.0000 C   0  0  0  0  0  0  0  0  0  0  0  0
    6.1234   -0.5579    0.0000 C   0  0  0  0  0  0  0  0  0  0  0  0
    2.2906   -4.0465    0.0000 H   0  0  0  0  0  0  0  0  0  0  0  0
    1.6328    0.8242    0.0000 H   0  0  0  0  0  0  0  0  0  0  0  0
    1.1406    1.5471    0.0000 H   0  0  0  0  0  0  0  0  0  0  0  0
    1.5758    2.5246    0.0000 H   0  0  0  0  0  0  0  0  0  0  0  0
    3.6043    2.5244    0.0000 H   0  0  0  0  0  0  0  0  0  0  0  0
    2.9754    3.3901    0.0000 H   0  0  0  0  0  0  0  0  0  0  0  0
    0.9912    2.9683    0.0000 H   0  0  0  0  0  0  0  0  0  0  0  0
    1.4264    3.9458    0.0000 H   0  0  0  0  0  0  0  0  0  0  0  0
    3.4550    3.9456    0.0000 H   0  0  0  0  0  0  0  0  0  0  0  0
    1.7620    4.6995    0.0000 H   0  0  0  0  0  0  0  0  0  0  0  0
    2.8261    4.8113    0.0000 H   0  0  0  0  0  0  0  0  0  0  0  0
    4.7103   -0.9995    0.0000 H   0  0  0  0  0  0  0  0  0  0  0  0
    1.4939   -0.9995    0.0000 H   0  0  0  0  0  0  0  0  0  0  0  0
    4.9526    1.5134    0.0000 H   0  0  0  0  0  0  0  0  0  0  0  0
    3.9588   -1.5455    0.0000 H   0  0  0  0  0  0  0  0  0  0  0  0
    4.7103   -2.8565    0.0000 H   0  0  0  0  0  0  0  0  0  0  0  0
    1.4939   -2.8565    0.0000 H   0  0  0  0  0  0  0  0  0  0  0  0
    6.7187    0.9397    0.0000 H   0  0  0  0  0  0  0  0  0  0  0  0
    5.7249   -2.1195    0.0000 H   0  0  0  0  0  0  0  0  0  0  0  0
    7.1049   -0.8767    0.0000 H   0  0  0  0  0  0  0  0  0  0  0  0
  1  8  2  0  0  0  0
  2  9  2  0  0  0  0
  3 23  1  0  0  0  0
  3 25  1  0  0  0  0
  4  5  1  0  0  0  0
  4  8  1  0  0  0  0
  4 12  1  0  0  0  0
  5  9  1  0  0  0  0
  5 13  1  0  0  0  0
  6  7  1  0  0  0  0
  6  8  1  0  0  0  0
  6  9  1  0  0  0  0
  6 26  1  0  0  0  0
  7 10  1  0  0  0  0
  7 27  1  0  0  0  0
  7 28  1  0  0  0  0
 10 11  1  0  0  0  0
 10 29  1  0  0  0  0
 10 30  1  0  0  0  0
 11 14  1  0  0  0  0
 11 31  1  0  0  0  0
 11 32  1  0  0  0  0
 12 15  2  0  0  0  0
 12 16  1  0  0  0  0
 13 17  2  0  0  0  0
 13 18  1  0  0  0  0
 14 33  1  0  0  0  0
 14 34  1  0  0  0  0
 14 35  1  0  0  0  0
 15 19  1  0  0  0  0
 15 36  1  0  0  0  0
 16 20  2  0  0  0  0
 16 37  1  0  0  0  0
 17 21  1  0  0  0  0
 17 38  1  0  0  0  0
 18 22  2  0  0  0  0
 18 39  1  0  0  0  0
 19 23  2  0  0  0  0
 19 40  1  0  0  0  0
 20 23  1  0  0  0  0
 20 41  1  0  0  0  0
 21 24  2  0  0  0  0
 21 42  1  0  0  0  0
 22 24  1  0  0  0  0
 22 43  1  0  0  0  0
 24 44  1  0  0  0  0
M  END
>  <DRUGBANK_ID>
DB03585

>  <SECONDARY_ACCESSION_NUMBERS>
EXPT02440

>  <COMMON_NAME>
Oxyphenbutazone

>  <CAS_NUMBER>
129-20-4

>  <UNII>
A7D84513GV

>  <SYNONYMS>
Oxifenbutazona; Oxiphenbutazone; Oxyphenbutazone; Oxyphenbutazonum

$$$$
