TGN
 OpenBabel10282417072D

 45 47  0  0  0  0  0  0  0  0999 V2000
    0.3512    0.9886    0.0000 C   0  0  2  0  0  0  0  0  0  0  0  0
   -0.5775    0.9731    0.0000 C   0  0  2  0  0  0  0  0  0  0  0  0
   -1.1382    1.4130    0.0000 N   0  0  0  0  0  0  0  0  0  0  0  0
   -1.5608    2.1215    0.0000 C   0  0  0  0  0  0  0  0  0  0  0  0
   -0.8981    0.2645    0.0000 C   0  0  0  0  0  0  0  0  0  0  0  0
   -1.5184   -0.1124    0.0000 C   0  0  0  0  0  0  0  0  0  0  0  0
   -0.9985    0.5998    0.0000 C   0  0  1  0  0  0  0  0  0  0  0  0
   -0.0268    0.5998    0.0000 C   0  0  0  0  0  0  0  0  0  0  0  0
    0.4894    0.1712    0.0000 C   0  0  2  0  0  0  0  0  0  0  0  0
    0.9012   -0.5436    0.0000 O   0  0  0  0  0  0  0  0  0  0  0  0
    0.4880   -1.2577    0.0000 P   0  0  1  0  0  0  0  0  0  0  0  0
   -0.2261   -0.8445    0.0000 O   0  0  0  0  0  0  0  0  0  0  0  0
    1.2021   -1.6708    0.0000 O   0  0  0  0  0  0  0  0  0  0  0  0
    0.0748   -1.9717    0.0000 C   0  0  0  0  0  0  0  0  0  0  0  0
    0.4866   -2.6866    0.0000 C   0  0  0  0  0  0  0  0  0  0  0  0
   -0.7502   -1.9709    0.0000 C   0  0  0  0  0  0  0  0  0  0  0  0
    0.0734   -3.4006    0.0000 C   0  0  0  0  0  0  0  0  0  0  0  0
   -0.7516   -3.3998    0.0000 C   0  0  0  0  0  0  0  0  0  0  0  0
   -1.1634   -2.6849    0.0000 C   0  0  0  0  0  0  0  0  0  0  0  0
    0.8784    1.6231    0.0000 C   0  0  0  0  0  0  0  0  0  0  0  0
    1.6915    1.4838    0.0000 O   0  0  0  0  0  0  0  0  0  0  0  0
    0.5924    2.3970    0.0000 O   0  0  0  0  0  0  0  0  0  0  0  0
    1.1198    3.0315    0.0000 C   0  0  0  0  0  0  0  0  0  0  0  0
    0.0987    1.5152    0.0000 H   0  0  0  0  0  0  0  0  0  0  0  0
   -0.7119    1.5414    0.0000 H   0  0  0  0  0  0  0  0  0  0  0  0
   -1.2630    1.1205    0.0000 H   0  0  0  0  0  0  0  0  0  0  0  0
    1.0389    0.3687    0.0000 H   0  0  0  0  0  0  0  0  0  0  0  0
   -1.0390    3.0557    0.0000 H   0  0  0  0  0  0  0  0  0  0  0  0
   -2.6307    2.1063    0.0000 H   0  0  0  0  0  0  0  0  0  0  0  0
   -2.1089    3.0404    0.0000 H   0  0  0  0  0  0  0  0  0  0  0  0
   -0.0971   -0.4449    0.0000 H   0  0  0  0  0  0  0  0  0  0  0  0
   -0.9937   -0.8012    0.0000 H   0  0  0  0  0  0  0  0  0  0  0  0
   -2.3063   -0.8363    0.0000 H   0  0  0  0  0  0  0  0  0  0  0  0
   -2.3164    0.6005    0.0000 H   0  0  0  0  0  0  0  0  0  0  0  0
    0.3366    1.6062    0.0000 H   0  0  0  0  0  0  0  0  0  0  0  0
    1.0057    0.8808    0.0000 H   0  0  0  0  0  0  0  0  0  0  0  0
    1.2013   -2.6408    0.0000 H   0  0  0  0  0  0  0  0  0  0  0  0
    1.5186   -2.6876    0.0000 H   0  0  0  0  0  0  0  0  0  0  0  0
   -1.2653   -1.0766    0.0000 H   0  0  0  0  0  0  0  0  0  0  0  0
    0.5885   -4.2949    0.0000 H   0  0  0  0  0  0  0  0  0  0  0  0
   -1.2685   -4.2930    0.0000 H   0  0  0  0  0  0  0  0  0  0  0  0
   -2.1954   -2.6839    0.0000 H   0  0  0  0  0  0  0  0  0  0  0  0
    2.1744    2.8506    0.0000 H   0  0  0  0  0  0  0  0  0  0  0  0
    0.7492    4.0353    0.0000 H   0  0  0  0  0  0  0  0  0  0  0  0
    1.8038    3.8544    0.0000 H   0  0  0  0  0  0  0  0  0  0  0  0
  1  2  1  0  0  0  0
  1  9  1  0  0  0  0
  1 20  1  0  0  0  0
  1 24  1  6  0  0  0
  2  3  1  0  0  0  0
  2  5  1  0  0  0  0
  2 25  1  6  0  0  0
  3  4  1  0  0  0  0
  3  7  1  0  0  0  0
  4 28  1  0  0  0  0
  4 29  1  0  0  0  0
  4 30  1  0  0  0  0
  5  6  1  0  0  0  0
  5 31  1  0  0  0  0
  5 32  1  0  0  0  0
  6  7  1  0  0  0  0
  6 33  1  0  0  0  0
  6 34  1  0  0  0  0
  7  8  1  0  0  0  0
  7 26  1  1  0  0  0
  8  9  1  0  0  0  0
  8 35  1  0  0  0  0
  8 36  1  0  0  0  0
  9 10  1  0  0  0  0
  9 27  1  6  0  0  0
 11 10  1  0  0  0  0
 11 12  2  6  0  0  0
 11 13  1  0  0  0  0
 11 14  1  0  0  0  0
 13 37  1  0  0  0  0
 14 15  1  0  0  0  0
 14 16  2  0  0  0  0
 15 17  2  0  0  0  0
 15 38  1  0  0  0  0
 16 19  1  0  0  0  0
 16 39  1  0  0  0  0
 17 18  1  0  0  0  0
 17 40  1  0  0  0  0
 18 19  2  0  0  0  0
 18 41  1  0  0  0  0
 19 42  1  0  0  0  0
 20 21  2  0  0  0  0
 20 22  1  0  0  0  0
 22 23  1  0  0  0  0
 23 43  1  0  0  0  0
 23 44  1  0  0  0  0
 23 45  1  0  0  0  0
M  END
>  <DRUGBANK_ID>
DB08618

>  <COMMON_NAME>
3-(HYDROXY-PHENYL-PHOSPHINOYLOXY)-8-METHYL-8-AZA-BICYCLO[3.2.1]OCTANE-2-CARBOXYLIC ACID METHYL ESTER

$$$$
