
 OpenBabel10282417072D

 43 45  0  0  1  0  0  0  0  0999 V2000
    1.5983    0.5454    0.0000 N   0  0  0  0  0  0  0  0  0  0  0  0
    2.2265    0.1070    0.0000 C   0  0  0  0  0  0  0  0  0  0  0  0
    0.8319    0.2969    0.0000 C   0  0  2  0  0  0  0  0  0  0  0  0
    1.8813    1.3739    0.0000 C   0  0  0  0  0  0  0  0  0  0  0  0
    2.9618    0.6455    0.0000 C   0  0  0  0  0  0  0  0  0  0  0  0
    2.3094   -0.7353    0.0000 N   0  0  0  0  0  0  0  0  0  0  0  0
    0.1588    0.8043    0.0000 O   0  0  0  0  0  0  0  0  0  0  0  0
    0.5765   -0.4453    0.0000 C   0  0  1  0  0  0  0  0  0  0  0  0
    2.7408    1.3705    0.0000 N   0  0  0  0  0  0  0  0  0  0  0  0
    3.7040    0.3175    0.0000 C   0  0  0  0  0  0  0  0  0  0  0  0
    3.0930   -1.0840    0.0000 C   0  0  0  0  0  0  0  0  0  0  0  0
   -0.4971    0.3314    0.0000 C   0  0  1  0  0  0  0  0  0  0  0  0
   -0.2417   -0.4453    0.0000 C   0  0  1  0  0  0  0  0  0  0  0  0
    1.0563   -1.1184    0.0000 O   0  0  0  0  0  0  0  0  0  0  0  0
    3.8007   -0.5661    0.0000 N   0  0  0  0  0  0  0  0  0  0  0  0
    4.3633    0.8078    0.0000 O   0  0  0  0  0  0  0  0  0  0  0  0
    3.1827   -1.9055    0.0000 N   0  0  0  0  0  0  0  0  0  0  0  0
   -1.2842    0.5868    0.0000 C   0  0  0  0  0  0  0  0  0  0  0  0
   -0.5074   -1.2289    0.0000 O   0  0  0  0  0  0  0  0  0  0  0  0
   -1.8986    0.0379    0.0000 O   0  0  0  0  0  0  0  0  0  0  0  0
   -2.7236    0.0379    0.0000 P   0  0  3  0  0  0  0  0  0  0  0  0
   -3.5486    0.0379    0.0000 O   0  0  0  0  0  0  0  0  0  0  0  0
   -2.7270   -0.7905    0.0000 O   0  0  0  0  0  0  0  0  0  0  0  0
   -2.7270    0.8630    0.0000 O   0  0  0  0  0  0  0  0  0  0  0  0
   -4.3737    0.0414    0.0000 P   0  0  0  0  0  0  0  0  0  0  0  0
   -4.3806   -0.7870    0.0000 O   0  0  0  0  0  0  0  0  0  0  0  0
   -5.2022    0.0414    0.0000 O   0  0  0  0  0  0  0  0  0  0  0  0
   -4.3806    0.8664    0.0000 O   0  0  0  0  0  0  0  0  0  0  0  0
    1.0089    1.3522    0.0000 H   0  0  0  0  0  0  0  0  0  0  0  0
    1.2826    2.2145    0.0000 H   0  0  0  0  0  0  0  0  0  0  0  0
    1.6354   -0.2918    0.0000 H   0  0  0  0  0  0  0  0  0  0  0  0
   -0.6628    1.3885    0.0000 H   0  0  0  0  0  0  0  0  0  0  0  0
    0.3817   -1.3149    0.0000 H   0  0  0  0  0  0  0  0  0  0  0  0
    0.6538   -2.0009    0.0000 H   0  0  0  0  0  0  0  0  0  0  0  0
    4.7016   -0.9631    0.0000 H   0  0  0  0  0  0  0  0  0  0  0  0
    2.3886   -2.4874    0.0000 H   0  0  0  0  0  0  0  0  0  0  0  0
    4.0837   -2.3023    0.0000 H   0  0  0  0  0  0  0  0  0  0  0  0
   -1.5048    1.6338    0.0000 H   0  0  0  0  0  0  0  0  0  0  0  0
   -2.3009    0.9203    0.0000 H   0  0  0  0  0  0  0  0  0  0  0  0
   -1.4587   -1.4185    0.0000 H   0  0  0  0  0  0  0  0  0  0  0  0
   -3.5690   -1.2720    0.0000 H   0  0  0  0  0  0  0  0  0  0  0  0
   -5.2247   -1.2650    0.0000 H   0  0  0  0  0  0  0  0  0  0  0  0
   -5.6872    0.8814    0.0000 H   0  0  0  0  0  0  0  0  0  0  0  0
  1  2  1  0  0  0  0
  1  4  1  0  0  0  0
  2  5  2  0  0  0  0
  2  6  1  0  0  0  0
  3  1  1  0  0  0  0
  3  7  1  0  0  0  0
  3  8  1  0  0  0  0
  3 29  1  6  0  0  0
  4  9  2  0  0  0  0
  4 30  1  0  0  0  0
  5 10  1  0  0  0  0
  5  9  1  0  0  0  0
  6 11  2  0  0  0  0
  7 12  1  0  0  0  0
  8 13  1  0  0  0  0
  8 14  1  0  0  0  0
  8 31  1  1  0  0  0
 10 15  1  0  0  0  0
 10 16  2  0  0  0  0
 11 17  1  0  0  0  0
 11 15  1  0  0  0  0
 12 18  1  0  0  0  0
 12 13  1  0  0  0  0
 12 32  1  6  0  0  0
 13 19  1  0  0  0  0
 13 33  1  1  0  0  0
 14 34  1  0  0  0  0
 15 35  1  0  0  0  0
 17 36  1  0  0  0  0
 17 37  1  0  0  0  0
 18 20  1  0  0  0  0
 18 38  1  0  0  0  0
 18 39  1  0  0  0  0
 19 40  1  0  0  0  0
 20 21  1  0  0  0  0
 21 22  1  0  0  0  0
 21 23  1  0  0  0  0
 21 24  2  0  0  0  0
 22 25  1  0  0  0  0
 23 41  1  0  0  0  0
 25 26  1  0  0  0  0
 25 27  1  0  0  0  0
 25 28  2  0  0  0  0
 26 42  1  0  0  0  0
 27 43  1  0  0  0  0
M  END
>  <DRUGBANK_ID>
DB04315

>  <SECONDARY_ACCESSION_NUMBERS>
EXPT01573

>  <COMMON_NAME>
Guanosine-5'-Diphosphate

>  <CAS_NUMBER>
146-91-8

>  <UNII>
HLJ737P865

$$$$
