
 OpenBabel10282417072D

 17 17  0  0  0  0  0  0  0  0999 V2000
    0.0000    0.4763    0.0000 O   0  0  0  0  0  0  0  0  0  0  0  0
    0.4125   -0.2382    0.0000 C   0  0  0  0  0  0  0  0  0  0  0  0
   -0.4125   -0.2382    0.0000 C   0  0  0  0  0  0  0  0  0  0  0  0
    2.4161   -0.5635    0.0000 O   0  0  0  0  0  0  0  0  0  0  0  0
    2.8286    0.1510    0.0000 C   0  0  3  0  0  0  0  0  0  0  0  0
    2.8286    0.9760    0.0000 C   0  0  0  0  0  0  0  0  0  0  0  0
    3.2411   -0.5635    0.0000 C   0  0  0  0  0  0  0  0  0  0  0  0
    1.3391   -0.7732    0.0000 H   0  0  0  0  0  0  0  0  0  0  0  0
    0.1356   -1.2717    0.0000 H   0  0  0  0  0  0  0  0  0  0  0  0
   -1.3391   -0.7732    0.0000 H   0  0  0  0  0  0  0  0  0  0  0  0
   -1.1691    0.5184    0.0000 H   0  0  0  0  0  0  0  0  0  0  0  0
    1.7951    0.4279    0.0000 H   0  0  0  0  0  0  0  0  0  0  0  0
    3.7552    1.5110    0.0000 H   0  0  0  0  0  0  0  0  0  0  0  0
    1.9020    1.5110    0.0000 H   0  0  0  0  0  0  0  0  0  0  0  0
    2.8286    2.0460    0.0000 H   0  0  0  0  0  0  0  0  0  0  0  0
    4.1677   -1.0985    0.0000 H   0  0  0  0  0  0  0  0  0  0  0  0
    2.9642   -1.5970    0.0000 H   0  0  0  0  0  0  0  0  0  0  0  0
  1  2  1  0  0  0  0
  1  3  1  0  0  0  0
  2  3  1  0  0  0  0
  2  8  1  0  0  0  0
  2  9  1  0  0  0  0
  3 10  1  0  0  0  0
  3 11  1  0  0  0  0
  4  5  1  0  0  0  0
  4  7  1  0  0  0  0
  5  6  1  0  0  0  0
  5  7  1  0  0  0  0
  5 12  1  0  0  0  0
  6 13  1  0  0  0  0
  6 14  1  0  0  0  0
  6 15  1  0  0  0  0
  7 16  1  0  0  0  0
  7 17  1  0  0  0  0
M  END
>  <DRUGBANK_ID>
DB11451

>  <COMMON_NAME>
Poloxalene

>  <CAS_NUMBER>
691397-13-4

>  <UNII>
V8B3K56SW0

>  <SYNONYMS>
Peg/ppg-24/34 triblock copolymer; Poloxalene

$$$$
