C02
 OpenBabel10282417072D

 51 54  0  0  0  0  0  0  0  0999 V2000
   -3.9222    2.9617    0.0000 N   0  0  0  0  0  0  0  0  0  0  0  0
   -3.0972    2.9617    0.0000 C   0  0  0  0  0  0  0  0  0  0  0  0
   -2.6847    3.6762    0.0000 N   0  0  0  0  0  0  0  0  0  0  0  0
   -2.6847    2.2473    0.0000 C   0  0  0  0  0  0  0  0  0  0  0  0
   -1.8597    2.2473    0.0000 C   0  0  0  0  0  0  0  0  0  0  0  0
   -1.4472    1.5328    0.0000 C   0  0  0  0  0  0  0  0  0  0  0  0
   -1.8597    0.8183    0.0000 C   0  0  0  0  0  0  0  0  0  0  0  0
   -2.6847    0.8183    0.0000 C   0  0  0  0  0  0  0  0  0  0  0  0
   -3.0972    1.5328    0.0000 C   0  0  0  0  0  0  0  0  0  0  0  0
   -1.4472    0.1039    0.0000 C   0  0  0  0  0  0  0  0  0  0  0  0
   -0.6222    0.1039    0.0000 C   0  0  0  0  0  0  0  0  0  0  0  0
   -0.1373   -0.5636    0.0000 N   0  0  0  0  0  0  0  0  0  0  0  0
    0.6473   -0.3086    0.0000 C   0  0  0  0  0  0  0  0  0  0  0  0
    0.6473    0.5164    0.0000 C   0  0  0  0  0  0  0  0  0  0  0  0
   -0.1373    0.7713    0.0000 N   0  0  0  0  0  0  0  0  0  0  0  0
   -0.3922    1.5559    0.0000 C   0  0  0  0  0  0  0  0  0  0  0  0
    1.3618    0.9289    0.0000 C   0  0  0  0  0  0  0  0  0  0  0  0
    2.0763    0.5164    0.0000 C   0  0  0  0  0  0  0  0  0  0  0  0
    2.0763   -0.3086    0.0000 C   0  0  0  0  0  0  0  0  0  0  0  0
    1.3618   -0.7211    0.0000 C   0  0  0  0  0  0  0  0  0  0  0  0
    2.7907   -0.7211    0.0000 N   0  0  0  0  0  0  0  0  0  0  0  0
    2.7907   -1.5461    0.0000 S   0  0  0  0  0  0  0  0  0  0  0  0
    2.7907   -2.3711    0.0000 C   0  0  0  0  0  0  0  0  0  0  0  0
    3.5052   -2.7836    0.0000 C   0  0  0  0  0  0  0  0  0  0  0  0
    3.5052   -3.6086    0.0000 C   0  0  0  0  0  0  0  0  0  0  0  0
    2.7907   -4.0211    0.0000 C   0  0  0  0  0  0  0  0  0  0  0  0
    2.0763   -3.6086    0.0000 C   0  0  0  0  0  0  0  0  0  0  0  0
    2.0763   -2.7836    0.0000 C   0  0  0  0  0  0  0  0  0  0  0  0
    1.9657   -1.5461    0.0000 O   0  0  0  0  0  0  0  0  0  0  0  0
    3.6157   -1.5461    0.0000 O   0  0  0  0  0  0  0  0  0  0  0  0
   -4.4145    3.8143    0.0000 H   0  0  0  0  0  0  0  0  0  0  0  0
   -1.7002    3.6762    0.0000 H   0  0  0  0  0  0  0  0  0  0  0  0
   -3.1770    4.5288    0.0000 H   0  0  0  0  0  0  0  0  0  0  0  0
   -1.3437    3.1410    0.0000 H   0  0  0  0  0  0  0  0  0  0  0  0
   -0.4152    1.5328    0.0000 H   0  0  0  0  0  0  0  0  0  0  0  0
   -3.2007   -0.0754    0.0000 H   0  0  0  0  0  0  0  0  0  0  0  0
   -4.1292    1.5328    0.0000 H   0  0  0  0  0  0  0  0  0  0  0  0
   -1.9822   -0.8228    0.0000 H   0  0  0  0  0  0  0  0  0  0  0  0
   -0.9122   -0.8227    0.0000 H   0  0  0  0  0  0  0  0  0  0  0  0
    0.3238    2.3510    0.0000 H   0  0  0  0  0  0  0  0  0  0  0  0
   -1.4388    1.7784    0.0000 H   0  0  0  0  0  0  0  0  0  0  0  0
   -0.7228    2.5735    0.0000 H   0  0  0  0  0  0  0  0  0  0  0  0
    1.3618    1.9609    0.0000 H   0  0  0  0  0  0  0  0  0  0  0  0
    2.9700    1.0324    0.0000 H   0  0  0  0  0  0  0  0  0  0  0  0
    1.3618   -1.7531    0.0000 H   0  0  0  0  0  0  0  0  0  0  0  0
    3.6433   -0.2289    0.0000 H   0  0  0  0  0  0  0  0  0  0  0  0
    4.3989   -2.2676    0.0000 H   0  0  0  0  0  0  0  0  0  0  0  0
    4.3989   -4.1246    0.0000 H   0  0  0  0  0  0  0  0  0  0  0  0
    2.7907   -5.0531    0.0000 H   0  0  0  0  0  0  0  0  0  0  0  0
    1.1826   -4.1246    0.0000 H   0  0  0  0  0  0  0  0  0  0  0  0
    1.1826   -2.2676    0.0000 H   0  0  0  0  0  0  0  0  0  0  0  0
  1  2  2  0  0  0  0
  1 31  1  0  0  0  0
  2  3  1  0  0  0  0
  2  4  1  0  0  0  0
  3 32  1  0  0  0  0
  3 33  1  0  0  0  0
  4  5  2  0  0  0  0
  4  9  1  0  0  0  0
  5  6  1  0  0  0  0
  5 34  1  0  0  0  0
  6  7  2  0  0  0  0
  6 35  1  0  0  0  0
  7  8  1  0  0  0  0
  7 10  1  0  0  0  0
  8  9  2  0  0  0  0
  8 36  1  0  0  0  0
  9 37  1  0  0  0  0
 10 11  1  0  0  0  0
 10 38  1  0  0  0  0
 10 39  1  0  0  0  0
 11 12  2  0  0  0  0
 11 15  1  0  0  0  0
 12 13  1  0  0  0  0
 13 14  2  0  0  0  0
 13 20  1  0  0  0  0
 14 15  1  0  0  0  0
 14 17  1  0  0  0  0
 15 16  1  0  0  0  0
 16 40  1  0  0  0  0
 16 41  1  0  0  0  0
 16 42  1  0  0  0  0
 17 18  2  0  0  0  0
 17 43  1  0  0  0  0
 18 19  1  0  0  0  0
 18 44  1  0  0  0  0
 19 20  2  0  0  0  0
 19 21  1  0  0  0  0
 20 45  1  0  0  0  0
 21 22  1  0  0  0  0
 21 46  1  0  0  0  0
 22 23  1  0  0  0  0
 22 29  2  0  0  0  0
 22 30  2  0  0  0  0
 23 24  2  0  0  0  0
 23 28  1  0  0  0  0
 24 25  1  0  0  0  0
 24 47  1  0  0  0  0
 25 26  2  0  0  0  0
 25 48  1  0  0  0  0
 26 27  1  0  0  0  0
 26 49  1  0  0  0  0
 27 28  2  0  0  0  0
 27 50  1  0  0  0  0
 28 51  1  0  0  0  0
M  END
>  <DRUGBANK_ID>
DB07508

>  <COMMON_NAME>
4-(5-BENZENESULFONYLAMINO-1-METHYL-1H-BENZOIMIDAZOL-2-YLMETHYL)-BENZAMIDINE

$$$$
