
 OpenBabel10282417072D

107106  0  0  1  0  0  0  0  0999 V2000
   -9.2664   -5.0013    0.0000 C   0  0  0  0  0  0  0  0  0  0  0  0
   10.0243   -4.5888    0.0000 C   0  0  0  0  0  0  0  0  0  0  0  0
    3.2112   -8.9052    0.0000 C   0  0  0  0  0  0  0  0  0  0  0  0
    4.6401   -8.0802    0.0000 C   0  0  0  0  0  0  0  0  0  0  0  0
    4.3381   -9.2072    0.0000 C   0  0  0  0  0  0  0  0  0  0  0  0
   -8.5520   -4.5888    0.0000 C   0  0  0  0  0  0  0  0  0  0  0  0
    9.3098   -5.0013    0.0000 C   0  0  0  0  0  0  0  0  0  0  0  0
   -7.8375   -5.0013    0.0000 C   0  0  0  0  0  0  0  0  0  0  0  0
    8.5953   -4.5888    0.0000 C   0  0  0  0  0  0  0  0  0  0  0  0
   -7.1230   -4.5888    0.0000 C   0  0  0  0  0  0  0  0  0  0  0  0
    7.8809   -5.0013    0.0000 C   0  0  0  0  0  0  0  0  0  0  0  0
   -6.4086   -5.0013    0.0000 C   0  0  0  0  0  0  0  0  0  0  0  0
    7.1664   -4.5888    0.0000 C   0  0  0  0  0  0  0  0  0  0  0  0
   -5.6941   -4.5888    0.0000 C   0  0  0  0  0  0  0  0  0  0  0  0
    6.4519   -5.0013    0.0000 C   0  0  0  0  0  0  0  0  0  0  0  0
   -4.9796   -5.0013    0.0000 C   0  0  0  0  0  0  0  0  0  0  0  0
    5.7374   -4.5888    0.0000 C   0  0  0  0  0  0  0  0  0  0  0  0
   -4.2651   -4.5888    0.0000 C   0  0  0  0  0  0  0  0  0  0  0  0
    5.0230   -5.0013    0.0000 C   0  0  0  0  0  0  0  0  0  0  0  0
   -3.5507   -5.0013    0.0000 C   0  0  0  0  0  0  0  0  0  0  0  0
    4.3085   -4.5888    0.0000 C   0  0  0  0  0  0  0  0  0  0  0  0
   -2.8362   -4.5888    0.0000 C   0  0  0  0  0  0  0  0  0  0  0  0
    3.5940   -5.0013    0.0000 C   0  0  0  0  0  0  0  0  0  0  0  0
   -2.1217   -5.0013    0.0000 C   0  0  0  0  0  0  0  0  0  0  0  0
    2.8796   -4.5888    0.0000 C   0  0  0  0  0  0  0  0  0  0  0  0
    3.5131   -7.7783    0.0000 C   0  0  0  0  0  0  0  0  0  0  0  0
    2.6881   -7.7783    0.0000 C   0  0  0  0  0  0  0  0  0  0  0  0
    0.0217   -4.5888    0.0000 C   0  0  0  0  0  0  0  0  0  0  0  0
    0.7362   -5.8263    0.0000 C   0  0  0  0  0  0  0  0  0  0  0  0
    0.7362   -5.0013    0.0000 C   0  0  2  0  0  0  0  0  0  0  0  0
   -1.4073   -4.5888    0.0000 C   0  0  0  0  0  0  0  0  0  0  0  0
    2.1651   -5.0013    0.0000 C   0  0  0  0  0  0  0  0  0  0  0  0
    3.9256   -8.4927    0.0000 N   0  3  0  0  0  0  0  0  0  0  0  0
   -1.4073   -3.7638    0.0000 O   0  0  0  0  0  0  0  0  0  0  0  0
    2.1651   -5.8263    0.0000 O   0  0  0  0  0  0  0  0  0  0  0  0
    0.6256   -7.0638    0.0000 O   0  0  0  0  0  0  0  0  0  0  0  0
    1.4506   -7.8888    0.0000 O   0  0  0  0  0  0  0  0  0  0  0  0
   -0.6928   -5.0013    0.0000 O   0  0  0  0  0  0  0  0  0  0  0  0
    2.2756   -7.0638    0.0000 O   0  0  0  0  0  0  0  0  0  0  0  0
    1.4506   -6.2388    0.0000 O   0  0  0  0  0  0  0  0  0  0  0  0
    1.4506   -4.5888    0.0000 O   0  0  0  0  0  0  0  0  0  0  0  0
    1.4506   -7.0638    0.0000 P   0  0  3  0  0  0  0  0  0  0  0  0
    0.0217   -5.4138    0.0000 H   0  0  0  0  0  0  0  0  0  0  0  0
  -10.1931   -4.4663    0.0000 H   0  0  0  0  0  0  0  0  0  0  0  0
   -9.2664   -6.0713    0.0000 H   0  0  0  0  0  0  0  0  0  0  0  0
  -10.1930   -5.5363    0.0000 H   0  0  0  0  0  0  0  0  0  0  0  0
   10.9509   -5.1238    0.0000 H   0  0  0  0  0  0  0  0  0  0  0  0
   10.0243   -3.5188    0.0000 H   0  0  0  0  0  0  0  0  0  0  0  0
   10.9510   -4.0538    0.0000 H   0  0  0  0  0  0  0  0  0  0  0  0
    2.2845   -8.3702    0.0000 H   0  0  0  0  0  0  0  0  0  0  0  0
    3.2112   -9.9752    0.0000 H   0  0  0  0  0  0  0  0  0  0  0  0
    2.2846   -9.4402    0.0000 H   0  0  0  0  0  0  0  0  0  0  0  0
    5.5667   -8.6152    0.0000 H   0  0  0  0  0  0  0  0  0  0  0  0
    4.6401   -7.0102    0.0000 H   0  0  0  0  0  0  0  0  0  0  0  0
    5.5668   -7.5452    0.0000 H   0  0  0  0  0  0  0  0  0  0  0  0
    3.8031  -10.1338    0.0000 H   0  0  0  0  0  0  0  0  0  0  0  0
    5.4081   -9.2072    0.0000 H   0  0  0  0  0  0  0  0  0  0  0  0
    4.8731  -10.1339    0.0000 H   0  0  0  0  0  0  0  0  0  0  0  0
   -8.5520   -3.5188    0.0000 H   0  0  0  0  0  0  0  0  0  0  0  0
   -7.6254   -4.0538    0.0000 H   0  0  0  0  0  0  0  0  0  0  0  0
    9.3098   -6.0713    0.0000 H   0  0  0  0  0  0  0  0  0  0  0  0
    8.3832   -5.5363    0.0000 H   0  0  0  0  0  0  0  0  0  0  0  0
   -7.8375   -6.0713    0.0000 H   0  0  0  0  0  0  0  0  0  0  0  0
   -6.9109   -5.5363    0.0000 H   0  0  0  0  0  0  0  0  0  0  0  0
    8.5953   -3.5188    0.0000 H   0  0  0  0  0  0  0  0  0  0  0  0
    7.6686   -4.0538    0.0000 H   0  0  0  0  0  0  0  0  0  0  0  0
   -7.1230   -3.5188    0.0000 H   0  0  0  0  0  0  0  0  0  0  0  0
   -6.1963   -4.0538    0.0000 H   0  0  0  0  0  0  0  0  0  0  0  0
    7.8809   -6.0713    0.0000 H   0  0  0  0  0  0  0  0  0  0  0  0
    6.9543   -5.5363    0.0000 H   0  0  0  0  0  0  0  0  0  0  0  0
   -6.4086   -6.0713    0.0000 H   0  0  0  0  0  0  0  0  0  0  0  0
   -5.4820   -5.5363    0.0000 H   0  0  0  0  0  0  0  0  0  0  0  0
    7.1664   -3.5188    0.0000 H   0  0  0  0  0  0  0  0  0  0  0  0
    6.2398   -4.0538    0.0000 H   0  0  0  0  0  0  0  0  0  0  0  0
   -5.6941   -3.5188    0.0000 H   0  0  0  0  0  0  0  0  0  0  0  0
   -4.7675   -4.0538    0.0000 H   0  0  0  0  0  0  0  0  0  0  0  0
    6.4519   -6.0713    0.0000 H   0  0  0  0  0  0  0  0  0  0  0  0
    5.5253   -5.5363    0.0000 H   0  0  0  0  0  0  0  0  0  0  0  0
   -4.9796   -6.0713    0.0000 H   0  0  0  0  0  0  0  0  0  0  0  0
   -4.0530   -5.5363    0.0000 H   0  0  0  0  0  0  0  0  0  0  0  0
    5.7374   -3.5188    0.0000 H   0  0  0  0  0  0  0  0  0  0  0  0
    4.8107   -4.0538    0.0000 H   0  0  0  0  0  0  0  0  0  0  0  0
   -4.2651   -3.5188    0.0000 H   0  0  0  0  0  0  0  0  0  0  0  0
   -3.3384   -4.0538    0.0000 H   0  0  0  0  0  0  0  0  0  0  0  0
    5.0230   -6.0713    0.0000 H   0  0  0  0  0  0  0  0  0  0  0  0
    4.0964   -5.5363    0.0000 H   0  0  0  0  0  0  0  0  0  0  0  0
   -3.5507   -6.0713    0.0000 H   0  0  0  0  0  0  0  0  0  0  0  0
   -2.6241   -5.5363    0.0000 H   0  0  0  0  0  0  0  0  0  0  0  0
    4.3085   -3.5188    0.0000 H   0  0  0  0  0  0  0  0  0  0  0  0
    3.3819   -4.0538    0.0000 H   0  0  0  0  0  0  0  0  0  0  0  0
   -2.8362   -3.5188    0.0000 H   0  0  0  0  0  0  0  0  0  0  0  0
   -1.9096   -4.0538    0.0000 H   0  0  0  0  0  0  0  0  0  0  0  0
    3.5940   -6.0713    0.0000 H   0  0  0  0  0  0  0  0  0  0  0  0
    2.6673   -5.5363    0.0000 H   0  0  0  0  0  0  0  0  0  0  0  0
   -2.1217   -6.0713    0.0000 H   0  0  0  0  0  0  0  0  0  0  0  0
   -1.1950   -5.5363    0.0000 H   0  0  0  0  0  0  0  0  0  0  0  0
    2.8796   -3.5188    0.0000 H   0  0  0  0  0  0  0  0  0  0  0  0
    1.9530   -4.0538    0.0000 H   0  0  0  0  0  0  0  0  0  0  0  0
    4.0481   -6.8516    0.0000 H   0  0  0  0  0  0  0  0  0  0  0  0
    4.5831   -7.7783    0.0000 H   0  0  0  0  0  0  0  0  0  0  0  0
    2.1531   -8.7049    0.0000 H   0  0  0  0  0  0  0  0  0  0  0  0
    1.6181   -7.7783    0.0000 H   0  0  0  0  0  0  0  0  0  0  0  0
    0.0217   -3.5188    0.0000 H   0  0  0  0  0  0  0  0  0  0  0  0
   -0.9049   -4.0538    0.0000 H   0  0  0  0  0  0  0  0  0  0  0  0
   -0.1905   -6.3613    0.0000 H   0  0  0  0  0  0  0  0  0  0  0  0
    0.7362   -6.8963    0.0000 H   0  0  0  0  0  0  0  0  0  0  0  0
    0.6106   -8.3738    0.0000 H   0  0  0  0  0  0  0  0  0  0  0  0
  1 44  1  0  0  0  0
  1 45  1  0  0  0  0
  1 46  1  0  0  0  0
  2 47  1  0  0  0  0
  2 48  1  0  0  0  0
  2 49  1  0  0  0  0
  3 50  1  0  0  0  0
  3 51  1  0  0  0  0
  3 52  1  0  0  0  0
  4 53  1  0  0  0  0
  4 54  1  0  0  0  0
  4 55  1  0  0  0  0
  5 56  1  0  0  0  0
  5 57  1  0  0  0  0
  5 58  1  0  0  0  0
  6  1  1  0  0  0  0
  6 59  1  0  0  0  0
  6 60  1  0  0  0  0
  7  2  1  0  0  0  0
  7 61  1  0  0  0  0
  7 62  1  0  0  0  0
  8  6  1  0  0  0  0
  8 63  1  0  0  0  0
  8 64  1  0  0  0  0
  9  7  1  0  0  0  0
  9 65  1  0  0  0  0
  9 66  1  0  0  0  0
 10  8  1  0  0  0  0
 10 67  1  0  0  0  0
 10 68  1  0  0  0  0
 11  9  1  0  0  0  0
 11 69  1  0  0  0  0
 11 70  1  0  0  0  0
 12 10  1  0  0  0  0
 12 71  1  0  0  0  0
 12 72  1  0  0  0  0
 13 11  1  0  0  0  0
 13 73  1  0  0  0  0
 13 74  1  0  0  0  0
 14 12  1  0  0  0  0
 14 75  1  0  0  0  0
 14 76  1  0  0  0  0
 15 13  1  0  0  0  0
 15 77  1  0  0  0  0
 15 78  1  0  0  0  0
 16 14  1  0  0  0  0
 16 79  1  0  0  0  0
 16 80  1  0  0  0  0
 17 15  1  0  0  0  0
 17 81  1  0  0  0  0
 17 82  1  0  0  0  0
 18 16  1  0  0  0  0
 18 83  1  0  0  0  0
 18 84  1  0  0  0  0
 19 17  1  0  0  0  0
 19 85  1  0  0  0  0
 19 86  1  0  0  0  0
 20 18  1  0  0  0  0
 20 87  1  0  0  0  0
 20 88  1  0  0  0  0
 21 19  1  0  0  0  0
 21 89  1  0  0  0  0
 21 90  1  0  0  0  0
 22 20  1  0  0  0  0
 22 91  1  0  0  0  0
 22 92  1  0  0  0  0
 23 21  1  0  0  0  0
 23 93  1  0  0  0  0
 23 94  1  0  0  0  0
 24 22  1  0  0  0  0
 24 95  1  0  0  0  0
 24 96  1  0  0  0  0
 25 23  1  0  0  0  0
 25 97  1  0  0  0  0
 25 98  1  0  0  0  0
 26 99  1  0  0  0  0
 26100  1  0  0  0  0
 27 26  1  0  0  0  0
 27101  1  0  0  0  0
 27102  1  0  0  0  0
 28103  1  0  0  0  0
 28104  1  0  0  0  0
 29105  1  0  0  0  0
 29106  1  0  0  0  0
 30 28  1  0  0  0  0
 30 29  1  0  0  0  0
 30 41  1  0  0  0  0
 30 43  1  6  0  0  0
 31 24  1  0  0  0  0
 32 25  1  0  0  0  0
 33  3  1  0  0  0  0
 33  4  1  0  0  0  0
 33  5  1  0  0  0  0
 33 26  1  0  0  0  0
 34 31  2  0  0  0  0
 35 32  2  0  0  0  0
 37107  1  0  0  0  0
 38 28  1  0  0  0  0
 38 31  1  0  0  0  0
 39 27  1  0  0  0  0
 40 29  1  0  0  0  0
 41 32  1  0  0  0  0
 42 36  2  0  0  0  0
 42 37  1  0  0  0  0
 42 39  1  0  0  0  0
 42 40  1  0  0  0  0
M  CHG  1  33   1
M  END
>  <DRUGBANK_ID>
DB02777

>  <SECONDARY_ACCESSION_NUMBERS>
EXPT02605

>  <COMMON_NAME>
Diundecyl Phosphatidyl Choline

$$$$
