
 OpenBabel10282417072D

 49 52  0  0  0  0  0  0  0  0999 V2000
    4.2575    1.6387    0.0000 C   0  0  0  0  0  0  0  0  0  0  0  0
    3.7054    1.0256    0.0000 C   0  0  0  0  0  0  0  0  0  0  0  0
    3.9604    0.2410    0.0000 C   0  0  0  0  0  0  0  0  0  0  0  0
    3.4084   -0.3721    0.0000 C   0  0  0  0  0  0  0  0  0  0  0  0
    2.6014   -0.2006    0.0000 C   0  0  0  0  0  0  0  0  0  0  0  0
    2.3464    0.5840    0.0000 C   0  0  0  0  0  0  0  0  0  0  0  0
    2.8985    1.1971    0.0000 C   0  0  0  0  0  0  0  0  0  0  0  0
    1.5214    0.5840    0.0000 C   0  0  0  0  0  0  0  0  0  0  0  0
    1.2665   -0.2006    0.0000 C   0  0  0  0  0  0  0  0  0  0  0  0
    1.9339   -0.6855    0.0000 N   0  0  0  0  0  0  0  0  0  0  0  0
    1.9339   -1.5105    0.0000 C   0  0  0  0  0  0  0  0  0  0  0  0
    2.6484   -1.9230    0.0000 C   0  0  0  0  0  0  0  0  0  0  0  0
    2.6484   -2.7480    0.0000 C   0  0  0  0  0  0  0  0  0  0  0  0
    3.3629   -3.1605    0.0000 C   0  0  0  0  0  0  0  0  0  0  0  0
    3.3629   -3.9855    0.0000 C   0  0  0  0  0  0  0  0  0  0  0  0
    2.6484   -4.3980    0.0000 C   0  0  0  0  0  0  0  0  0  0  0  0
    1.9339   -3.9855    0.0000 N   0  0  0  0  0  0  0  0  0  0  0  0
    1.9339   -3.1605    0.0000 C   0  0  0  0  0  0  0  0  0  0  0  0
    2.6484   -5.2230    0.0000 C   0  0  0  0  0  0  0  0  0  0  0  0
    0.4595   -0.3721    0.0000 C   0  0  0  0  0  0  0  0  0  0  0  0
   -0.0925    0.2410    0.0000 C   0  0  0  0  0  0  0  0  0  0  0  0
    0.1624    1.0256    0.0000 N   0  0  0  0  0  0  0  0  0  0  0  0
    0.9694    1.1971    0.0000 C   0  0  0  0  0  0  0  0  0  0  0  0
   -0.3896    1.6387    0.0000 C   0  0  0  0  0  0  0  0  0  0  0  0
    5.3041    1.4162    0.0000 H   0  0  0  0  0  0  0  0  0  0  0  0
    3.9269    2.6563    0.0000 H   0  0  0  0  0  0  0  0  0  0  0  0
    4.9735    2.4338    0.0000 H   0  0  0  0  0  0  0  0  0  0  0  0
    4.9699    0.0265    0.0000 H   0  0  0  0  0  0  0  0  0  0  0  0
    3.7273   -1.3536    0.0000 H   0  0  0  0  0  0  0  0  0  0  0  0
    2.5796    2.1786    0.0000 H   0  0  0  0  0  0  0  0  0  0  0  0
    1.0073   -2.0455    0.0000 H   0  0  0  0  0  0  0  0  0  0  0  0
    1.9339   -2.5805    0.0000 H   0  0  0  0  0  0  0  0  0  0  0  0
    3.5750   -1.3880    0.0000 H   0  0  0  0  0  0  0  0  0  0  0  0
    3.5750   -2.4580    0.0000 H   0  0  0  0  0  0  0  0  0  0  0  0
    4.2566   -2.6445    0.0000 H   0  0  0  0  0  0  0  0  0  0  0  0
    4.2566   -4.5015    0.0000 H   0  0  0  0  0  0  0  0  0  0  0  0
    1.0402   -2.6445    0.0000 H   0  0  0  0  0  0  0  0  0  0  0  0
    1.7218   -5.7580    0.0000 H   0  0  0  0  0  0  0  0  0  0  0  0
    3.5750   -5.7580    0.0000 H   0  0  0  0  0  0  0  0  0  0  0  0
    2.6484   -6.2930    0.0000 H   0  0  0  0  0  0  0  0  0  0  0  0
    0.1288   -1.3897    0.0000 H   0  0  0  0  0  0  0  0  0  0  0  0
   -0.5871   -0.5945    0.0000 H   0  0  0  0  0  0  0  0  0  0  0  0
   -1.1391    0.0185    0.0000 H   0  0  0  0  0  0  0  0  0  0  0  0
   -0.8085    1.0362    0.0000 H   0  0  0  0  0  0  0  0  0  0  0  0
    1.3001    2.2147    0.0000 H   0  0  0  0  0  0  0  0  0  0  0  0
    2.0160    1.4195    0.0000 H   0  0  0  0  0  0  0  0  0  0  0  0
   -0.0589    2.6563    0.0000 H   0  0  0  0  0  0  0  0  0  0  0  0
   -1.4362    1.4163    0.0000 H   0  0  0  0  0  0  0  0  0  0  0  0
   -1.1055    2.4339    0.0000 H   0  0  0  0  0  0  0  0  0  0  0  0
  1  2  1  0  0  0  0
  1 25  1  0  0  0  0
  1 26  1  0  0  0  0
  1 27  1  0  0  0  0
  2  3  2  0  0  0  0
  2  7  1  0  0  0  0
  3  4  1  0  0  0  0
  3 28  1  0  0  0  0
  4  5  2  0  0  0  0
  4 29  1  0  0  0  0
  5  6  1  0  0  0  0
  5 10  1  0  0  0  0
  6  7  2  0  0  0  0
  6  8  1  0  0  0  0
  7 30  1  0  0  0  0
  8  9  2  0  0  0  0
  8 23  1  0  0  0  0
  9 10  1  0  0  0  0
  9 20  1  0  0  0  0
 10 11  1  0  0  0  0
 11 12  1  0  0  0  0
 11 31  1  0  0  0  0
 11 32  1  0  0  0  0
 12 13  1  0  0  0  0
 12 33  1  0  0  0  0
 12 34  1  0  0  0  0
 13 14  2  0  0  0  0
 13 18  1  0  0  0  0
 14 15  1  0  0  0  0
 14 35  1  0  0  0  0
 15 16  2  0  0  0  0
 15 36  1  0  0  0  0
 16 17  1  0  0  0  0
 16 19  1  0  0  0  0
 17 18  2  0  0  0  0
 18 37  1  0  0  0  0
 19 38  1  0  0  0  0
 19 39  1  0  0  0  0
 19 40  1  0  0  0  0
 20 21  1  0  0  0  0
 20 41  1  0  0  0  0
 20 42  1  0  0  0  0
 21 22  1  0  0  0  0
 21 43  1  0  0  0  0
 21 44  1  0  0  0  0
 22 23  1  0  0  0  0
 22 24  1  0  0  0  0
 23 45  1  0  0  0  0
 23 46  1  0  0  0  0
 24 47  1  0  0  0  0
 24 48  1  0  0  0  0
 24 49  1  0  0  0  0
M  END
>  <DRUGBANK_ID>
DB11725

>  <COMMON_NAME>
Latrepirdine

>  <CAS_NUMBER>
3613-73-8

>  <UNII>
OD9237K1Z6

>  <SYNONYMS>
Dimebon; Latrepirdine

$$$$
