MUF
 OpenBabel10282417072D

 63 67  0  0  0  0  0  0  0  0999 V2000
    1.9086    0.0647    0.0000 C   0  0  0  0  0  0  0  0  0  0  0  0
    2.7207   -0.0805    0.0000 C   0  0  0  0  0  0  0  0  0  0  0  0
    3.0010   -0.8564    0.0000 C   0  0  0  0  0  0  0  0  0  0  0  0
    2.4692   -1.4872    0.0000 C   0  0  0  0  0  0  0  0  0  0  0  0
    1.6571   -1.3419    0.0000 C   0  0  0  0  0  0  0  0  0  0  0  0
    1.1252   -1.9727    0.0000 C   0  0  0  0  0  0  0  0  0  0  0  0
    0.3131   -1.8274    0.0000 C   0  0  0  0  0  0  0  0  0  0  0  0
    0.0328   -1.0515    0.0000 C   0  0  2  0  0  0  0  0  0  0  0  0
    0.5646   -0.4208    0.0000 C   0  0  1  0  0  0  0  0  0  0  0  0
    1.3768   -0.5660    0.0000 C   0  0  1  0  0  0  0  0  0  0  0  0
    0.2843    0.3551    0.0000 C   0  0  0  0  0  0  0  0  0  0  0  0
   -0.5278    0.5003    0.0000 C   0  0  0  0  0  0  0  0  0  0  0  0
   -1.0596   -0.1304    0.0000 C   0  0  1  0  0  0  0  0  0  0  0  0
   -0.7793   -0.9063    0.0000 C   0  0  1  0  0  0  0  0  0  0  0  0
   -1.4306   -1.4127    0.0000 C   0  0  0  0  0  0  0  0  0  0  0  0
   -2.1135   -0.9497    0.0000 C   0  0  0  0  0  0  0  0  0  0  0  0
   -1.8842   -0.1572    0.0000 C   0  0  2  0  0  0  0  0  0  0  0  0
   -1.4195    0.6120    0.0000 C   0  0  0  0  0  0  0  0  0  0  0  0
    1.0965    0.2099    0.0000 C   0  0  0  0  0  0  0  0  0  0  0  0
   -2.3905    0.4941    0.0000 C   0  0  0  0  0  0  0  0  0  0  0  0
   -3.2078    0.3813    0.0000 O   0  0  0  0  0  0  0  0  0  0  0  0
    3.8131   -1.0017    0.0000 C   0  0  0  0  0  0  0  0  0  0  0  0
    4.0934   -1.7776    0.0000 O   0  0  0  0  0  0  0  0  0  0  0  0
    4.3449   -0.3710    0.0000 O   0  0  0  0  0  0  0  0  0  0  0  0
   -2.0796    1.2583    0.0000 C   0  0  0  0  0  0  0  0  0  0  0  0
   -2.5860    1.9097    0.0000 C   0  0  0  0  0  0  0  0  0  0  0  0
   -2.2751    2.6738    0.0000 C   0  0  0  0  0  0  0  0  0  0  0  0
   -1.4578    2.7867    0.0000 C   0  0  0  0  0  0  0  0  0  0  0  0
   -0.9515    2.1354    0.0000 C   0  0  0  0  0  0  0  0  0  0  0  0
   -1.2624    1.3712    0.0000 C   0  0  0  0  0  0  0  0  0  0  0  0
   -1.1469    3.5509    0.0000 O   0  0  0  0  0  0  0  0  0  0  0  0
   -0.3436   -1.4979    0.0000 H   0  0  0  0  0  0  0  0  0  0  0  0
    0.7657    0.1274    0.0000 H   0  0  0  0  0  0  0  0  0  0  0  0
   -0.6394   -1.4732    0.0000 H   0  0  0  0  0  0  0  0  0  0  0  0
   -1.6361    0.3714    0.0000 H   0  0  0  0  0  0  0  0  0  0  0  0
    1.5450    1.0710    0.0000 H   0  0  0  0  0  0  0  0  0  0  0  0
    0.8553    0.2530    0.0000 H   0  0  0  0  0  0  0  0  0  0  0  0
    3.4104    0.7375    0.0000 H   0  0  0  0  0  0  0  0  0  0  0  0
    3.7740   -0.2688    0.0000 H   0  0  0  0  0  0  0  0  0  0  0  0
    2.8198   -2.4578    0.0000 H   0  0  0  0  0  0  0  0  0  0  0  0
    1.4758   -2.9433    0.0000 H   0  0  0  0  0  0  0  0  0  0  0  0
   -0.3767   -2.6454    0.0000 H   0  0  0  0  0  0  0  0  0  0  0  0
   -0.7402   -1.6390    0.0000 H   0  0  0  0  0  0  0  0  0  0  0  0
    0.9740    1.1731    0.0000 H   0  0  0  0  0  0  0  0  0  0  0  0
   -0.0793    1.3614    0.0000 H   0  0  0  0  0  0  0  0  0  0  0  0
   -0.8914    1.5066    0.0000 H   0  0  0  0  0  0  0  0  0  0  0  0
   -1.5811    0.6886    0.0000 H   0  0  0  0  0  0  0  0  0  0  0  0
   -1.3958   -2.4821    0.0000 H   0  0  0  0  0  0  0  0  0  0  0  0
   -2.3677   -1.9292    0.0000 H   0  0  0  0  0  0  0  0  0  0  0  0
   -3.1198   -1.3133    0.0000 H   0  0  0  0  0  0  0  0  0  0  0  0
   -2.8943   -0.2181    0.0000 H   0  0  0  0  0  0  0  0  0  0  0  0
   -0.8190    1.4976    0.0000 H   0  0  0  0  0  0  0  0  0  0  0  0
   -2.4867    0.6892    0.0000 H   0  0  0  0  0  0  0  0  0  0  0  0
   -1.8863    1.5748    0.0000 H   0  0  0  0  0  0  0  0  0  0  0  0
    1.7862    1.0279    0.0000 H   0  0  0  0  0  0  0  0  0  0  0  0
    0.0432    0.3982    0.0000 H   0  0  0  0  0  0  0  0  0  0  0  0
    0.7329    1.2162    0.0000 H   0  0  0  0  0  0  0  0  0  0  0  0
    5.2673   -0.5359    0.0000 H   0  0  0  0  0  0  0  0  0  0  0  0
   -3.6083    1.7686    0.0000 H   0  0  0  0  0  0  0  0  0  0  0  0
   -2.9085    3.4886    0.0000 H   0  0  0  0  0  0  0  0  0  0  0  0
    0.0708    2.2766    0.0000 H   0  0  0  0  0  0  0  0  0  0  0  0
   -0.6290    0.5565    0.0000 H   0  0  0  0  0  0  0  0  0  0  0  0
   -0.2187    3.6791    0.0000 H   0  0  0  0  0  0  0  0  0  0  0  0
  1  2  1  0  0  0  0
  1 36  1  0  0  0  0
  1 37  1  0  0  0  0
  2  3  1  0  0  0  0
  2 38  1  0  0  0  0
  2 39  1  0  0  0  0
  3  4  2  0  0  0  0
  3 22  1  0  0  0  0
  4 40  1  0  0  0  0
  5  4  1  0  0  0  0
  5  6  2  0  0  0  0
  6 41  1  0  0  0  0
  7  6  1  0  0  0  0
  7 42  1  0  0  0  0
  7 43  1  0  0  0  0
  8  7  1  0  0  0  0
  8 32  1  6  0  0  0
  9  8  1  0  0  0  0
  9 10  1  0  0  0  0
  9 33  1  1  0  0  0
 10  1  1  0  0  0  0
 10  5  1  0  0  0  0
 10 19  1  6  0  0  0
 11  9  1  0  0  0  0
 11 44  1  0  0  0  0
 11 45  1  0  0  0  0
 12 11  1  0  0  0  0
 12 13  1  0  0  0  0
 12 46  1  0  0  0  0
 12 47  1  0  0  0  0
 13 14  1  0  0  0  0
 13 18  1  6  0  0  0
 14  8  1  0  0  0  0
 14 15  1  0  0  0  0
 14 34  1  1  0  0  0
 15 48  1  0  0  0  0
 15 49  1  0  0  0  0
 16 15  1  0  0  0  0
 16 50  1  0  0  0  0
 16 51  1  0  0  0  0
 17 13  1  0  0  0  0
 17 16  1  0  0  0  0
 17 35  1  1  0  0  0
 17 20  1  0  0  0  0
 18 52  1  0  0  0  0
 18 53  1  0  0  0  0
 18 54  1  0  0  0  0
 19 55  1  0  0  0  0
 19 56  1  0  0  0  0
 19 57  1  0  0  0  0
 21 20  2  0  0  0  0
 22 24  1  0  0  0  0
 23 22  2  0  0  0  0
 24 58  1  0  0  0  0
 25 20  1  0  0  0  0
 25 26  1  0  0  0  0
 26 59  1  0  0  0  0
 27 26  2  0  0  0  0
 27 60  1  0  0  0  0
 28 27  1  0  0  0  0
 29 28  2  0  0  0  0
 29 30  1  0  0  0  0
 29 61  1  0  0  0  0
 30 25  2  0  0  0  0
 30 62  1  0  0  0  0
 31 28  1  0  0  0  0
 31 63  1  0  0  0  0
M  END
>  <DRUGBANK_ID>
DB08220

>  <COMMON_NAME>
(8alpha,10alpha,13alpha,17beta)-17-[(4-hydroxyphenyl)carbonyl]androsta-3,5-diene-3-carboxylic acid

$$$$
