
 OpenBabel10282417072D

 61 64  0  0  1  0  0  0  0  0999 V2000
   -7.5572    4.0145    0.0000 C   0  0  0  0  0  0  0  0  0  0  0  0
   -7.5572    3.1895    0.0000 C   0  0  0  0  0  0  0  0  0  0  0  0
   -8.2717    2.7770    0.0000 C   0  0  0  0  0  0  0  0  0  0  0  0
   -8.9862    3.1895    0.0000 C   0  0  0  0  0  0  0  0  0  0  0  0
   -8.9862    4.0145    0.0000 C   0  0  0  0  0  0  0  0  0  0  0  0
   -8.2717    4.4270    0.0000 C   0  0  0  0  0  0  0  0  0  0  0  0
   -8.2717    5.2520    0.0000 C   0  0  0  0  0  0  0  0  0  0  0  0
   -8.9862    5.6645    0.0000 C   0  0  0  0  0  0  0  0  0  0  0  0
   -9.7006    5.2520    0.0000 C   0  0  0  0  0  0  0  0  0  0  0  0
  -10.4151    5.6645    0.0000 C   0  0  0  0  0  0  0  0  0  0  0  0
  -10.4151    6.4895    0.0000 C   0  0  0  0  0  0  0  0  0  0  0  0
   -9.7006    6.9020    0.0000 C   0  0  0  0  0  0  0  0  0  0  0  0
   -8.9862    6.4895    0.0000 C   0  0  0  0  0  0  0  0  0  0  0  0
   -8.2717    6.9020    0.0000 Cl  0  0  0  0  0  0  0  0  0  0  0  0
  -11.1296    5.2520    0.0000 C   0  0  1  0  0  0  0  0  0  0  0  0
  -11.1296    4.4270    0.0000 C   0  0  1  0  0  0  0  0  0  0  0  0
  -11.8440    4.0145    0.0000 C   0  0  2  0  0  0  0  0  0  0  0  0
  -12.5585    4.4270    0.0000 C   0  0  1  0  0  0  0  0  0  0  0  0
  -12.5585    5.2520    0.0000 C   0  0  2  0  0  0  0  0  0  0  0  0
  -11.8440    5.6645    0.0000 O   0  0  0  0  0  0  0  0  0  0  0  0
  -13.2730    5.6645    0.0000 C   0  0  0  0  0  0  0  0  0  0  0  0
  -13.9874    5.2520    0.0000 O   0  0  0  0  0  0  0  0  0  0  0  0
  -13.2730    4.0145    0.0000 O   0  0  0  0  0  0  0  0  0  0  0  0
  -11.8440    3.1895    0.0000 O   0  0  0  0  0  0  0  0  0  0  0  0
  -10.4151    4.0145    0.0000 O   0  0  0  0  0  0  0  0  0  0  0  0
   -8.2717    1.9520    0.0000 O   0  0  0  0  0  0  0  0  0  0  0  0
   -7.5572    1.5395    0.0000 C   0  0  0  0  0  0  0  0  0  0  0  0
   -7.5572    0.7145    0.0000 C   0  0  0  0  0  0  0  0  0  0  0  0
   -6.8427    0.3020    0.0000 O   0  0  0  0  0  0  0  0  0  0  0  0
   -6.8427   -0.5230    0.0000 C   0  0  0  0  0  0  0  0  0  0  0  0
   -6.4302   -1.2375    0.0000 C   0  0  0  0  0  0  0  0  0  0  0  0
   -7.2552   -1.2375    0.0000 C   0  0  0  0  0  0  0  0  0  0  0  0
   -6.6635    4.5305    0.0000 H   0  0  0  0  0  0  0  0  0  0  0  0
   -6.6635    2.6735    0.0000 H   0  0  0  0  0  0  0  0  0  0  0  0
   -9.8799    2.6735    0.0000 H   0  0  0  0  0  0  0  0  0  0  0  0
   -9.8799    4.5305    0.0000 H   0  0  0  0  0  0  0  0  0  0  0  0
   -7.3451    5.7870    0.0000 H   0  0  0  0  0  0  0  0  0  0  0  0
   -8.2717    6.3220    0.0000 H   0  0  0  0  0  0  0  0  0  0  0  0
   -9.7006    4.2200    0.0000 H   0  0  0  0  0  0  0  0  0  0  0  0
  -11.3088    7.0055    0.0000 H   0  0  0  0  0  0  0  0  0  0  0  0
   -9.7006    7.9340    0.0000 H   0  0  0  0  0  0  0  0  0  0  0  0
  -10.2030    4.7170    0.0000 H   0  0  0  0  0  0  0  0  0  0  0  0
  -10.2030    4.9620    0.0000 H   0  0  0  0  0  0  0  0  0  0  0  0
  -10.9173    3.4795    0.0000 H   0  0  0  0  0  0  0  0  0  0  0  0
  -12.5585    3.3570    0.0000 H   0  0  0  0  0  0  0  0  0  0  0  0
  -13.4851    4.7170    0.0000 H   0  0  0  0  0  0  0  0  0  0  0  0
  -13.2730    6.7345    0.0000 H   0  0  0  0  0  0  0  0  0  0  0  0
  -14.1997    6.1995    0.0000 H   0  0  0  0  0  0  0  0  0  0  0  0
  -14.8275    5.7370    0.0000 H   0  0  0  0  0  0  0  0  0  0  0  0
  -14.1130    4.4995    0.0000 H   0  0  0  0  0  0  0  0  0  0  0  0
  -12.6840    2.7045    0.0000 H   0  0  0  0  0  0  0  0  0  0  0  0
  -10.4151    3.0445    0.0000 H   0  0  0  0  0  0  0  0  0  0  0  0
   -6.6306    2.0745    0.0000 H   0  0  0  0  0  0  0  0  0  0  0  0
   -6.6306    1.0045    0.0000 H   0  0  0  0  0  0  0  0  0  0  0  0
   -8.4838    0.1795    0.0000 H   0  0  0  0  0  0  0  0  0  0  0  0
   -7.5572   -0.3555    0.0000 H   0  0  0  0  0  0  0  0  0  0  0  0
   -6.8427   -1.5930    0.0000 H   0  0  0  0  0  0  0  0  0  0  0  0
   -5.5036   -1.7725    0.0000 H   0  0  0  0  0  0  0  0  0  0  0  0
   -6.7071   -2.2710    0.0000 H   0  0  0  0  0  0  0  0  0  0  0  0
   -8.1818   -1.7725    0.0000 H   0  0  0  0  0  0  0  0  0  0  0  0
   -8.0118   -0.4809    0.0000 H   0  0  0  0  0  0  0  0  0  0  0  0
  1  2  2  0  0  0  0
  1  6  1  0  0  0  0
  1 33  1  0  0  0  0
  2  3  1  0  0  0  0
  2 34  1  0  0  0  0
  3  4  2  0  0  0  0
  3 26  1  0  0  0  0
  4  5  1  0  0  0  0
  4 35  1  0  0  0  0
  5  6  2  0  0  0  0
  5 36  1  0  0  0  0
  6  7  1  0  0  0  0
  7  8  1  0  0  0  0
  7 37  1  0  0  0  0
  7 38  1  0  0  0  0
  8  9  2  0  0  0  0
  8 13  1  0  0  0  0
  9 10  1  0  0  0  0
  9 39  1  0  0  0  0
 10 11  2  0  0  0  0
 11 12  1  0  0  0  0
 11 40  1  0  0  0  0
 12 13  2  0  0  0  0
 12 41  1  0  0  0  0
 13 14  1  0  0  0  0
 15 10  1  0  0  0  0
 15 16  1  0  0  0  0
 15 20  1  0  0  0  0
 15 42  1  6  0  0  0
 16 17  1  0  0  0  0
 16 25  1  0  0  0  0
 16 43  1  1  0  0  0
 17 18  1  0  0  0  0
 17 24  1  0  0  0  0
 17 44  1  6  0  0  0
 18 19  1  0  0  0  0
 18 23  1  0  0  0  0
 18 45  1  1  0  0  0
 19 20  1  0  0  0  0
 19 21  1  0  0  0  0
 19 46  1  6  0  0  0
 21 22  1  0  0  0  0
 21 47  1  0  0  0  0
 21 48  1  0  0  0  0
 22 49  1  0  0  0  0
 23 50  1  0  0  0  0
 24 51  1  0  0  0  0
 25 52  1  0  0  0  0
 26 27  1  0  0  0  0
 27 28  1  0  0  0  0
 27 53  1  0  0  0  0
 27 54  1  0  0  0  0
 28 29  1  0  0  0  0
 28 55  1  0  0  0  0
 28 56  1  0  0  0  0
 29 30  1  0  0  0  0
 30 31  1  0  0  0  0
 30 32  1  0  0  0  0
 30 57  1  0  0  0  0
 31 32  1  0  0  0  0
 31 58  1  0  0  0  0
 31 59  1  0  0  0  0
 32 60  1  0  0  0  0
 32 61  1  0  0  0  0
M  END
>  <DRUGBANK_ID>
DB12236

>  <COMMON_NAME>
Bexagliflozin

>  <CAS_NUMBER>
1118567-05-7

>  <UNII>
EY00JF42FV

>  <SYNONYMS>
(2S,3R,4R,5S,6R)-2-(4-chloro-3-((4-(2-(cyclopropyloxy)ethoxy)phenyl)methyl)phenyl)-6-(hydroxymethyl)tetrahydro-2H-pyran-3,4,5-triol; Bexagliflozin; D-glucitol, 1,5-anhydro-1-C-(4-chloro-3-((4-(2-(cyclopropyloxy)ethoxy)phenyl)methyl)phenyl)-, (1s)-

$$$$
