
 OpenBabel10282417072D

 56 59  0  0  0  0  0  0  0  0999 V2000
    1.3460   -1.4569    0.0000 C   0  0  0  0  0  0  0  0  0  0  0  0
    0.5335   -1.6002    0.0000 C   0  0  0  0  0  0  0  0  0  0  0  0
    0.0032   -0.9682    0.0000 C   0  0  0  0  0  0  0  0  0  0  0  0
    0.2853   -0.1929    0.0000 C   0  0  0  0  0  0  0  0  0  0  0  0
    1.0978   -0.0497    0.0000 C   0  0  0  0  0  0  0  0  0  0  0  0
    1.6281   -0.6816    0.0000 N   0  0  0  0  0  0  0  0  0  0  0  0
    0.2514   -2.3755    0.0000 C   0  0  0  0  0  0  0  0  0  0  0  0
   -0.5610   -2.5187    0.0000 O   0  0  0  0  0  0  0  0  0  0  0  0
    0.7817   -3.0074    0.0000 O   0  0  0  0  0  0  0  0  0  0  0  0
    1.3799    0.7255    0.0000 C   0  0  0  0  0  0  0  0  0  0  0  0
    1.9102    1.3575    0.0000 C   0  0  0  0  0  0  0  0  0  0  0  0
    2.1924    0.5823    0.0000 C   0  0  0  0  0  0  0  0  0  0  0  0
   -0.0489    0.7255    0.0000 C   0  0  0  0  0  0  0  0  0  0  0  0
    0.6654    1.1380    0.0000 C   0  0  0  0  0  0  0  0  0  0  0  0
    0.6654    1.9630    0.0000 C   0  0  0  0  0  0  0  0  0  0  0  0
   -0.0490    2.3755    0.0000 C   0  0  0  0  0  0  0  0  0  0  0  0
   -0.7635    1.9629    0.0000 C   0  0  0  0  0  0  0  0  0  0  0  0
   -1.4779    2.3754    0.0000 C   0  0  0  0  0  0  0  0  0  0  0  0
   -2.1924    1.9629    0.0000 C   0  0  0  0  0  0  0  0  0  0  0  0
   -2.1924    1.1379    0.0000 C   0  0  0  0  0  0  0  0  0  0  0  0
   -1.4779    0.7254    0.0000 C   0  0  0  0  0  0  0  0  0  0  0  0
   -0.7634    1.1379    0.0000 C   0  0  0  0  0  0  0  0  0  0  0  0
   -0.9476    0.0934    0.0000 C   0  0  0  0  0  0  0  0  0  0  0  0
   -2.0081    0.0933    0.0000 C   0  0  0  0  0  0  0  0  0  0  0  0
   -2.0083    3.0074    0.0000 C   0  0  0  0  0  0  0  0  0  0  0  0
   -0.9477    3.0074    0.0000 C   0  0  0  0  0  0  0  0  0  0  0  0
    1.3798    2.3755    0.0000 C   0  0  0  0  0  0  0  0  0  0  0  0
    2.0094   -2.2474    0.0000 H   0  0  0  0  0  0  0  0  0  0  0  0
   -1.0131   -1.1474    0.0000 H   0  0  0  0  0  0  0  0  0  0  0  0
   -0.3781    0.5977    0.0000 H   0  0  0  0  0  0  0  0  0  0  0  0
    0.4613   -3.8879    0.0000 H   0  0  0  0  0  0  0  0  0  0  0  0
    2.0960    2.4113    0.0000 H   0  0  0  0  0  0  0  0  0  0  0  0
    2.9761    1.4508    0.0000 H   0  0  0  0  0  0  0  0  0  0  0  0
    3.0121   -0.1054    0.0000 H   0  0  0  0  0  0  0  0  0  0  0  0
    1.7403   -0.3875    0.0000 H   0  0  0  0  0  0  0  0  0  0  0  0
   -0.0488   -0.3065    0.0000 H   0  0  0  0  0  0  0  0  0  0  0  0
   -0.0490    3.4075    0.0000 H   0  0  0  0  0  0  0  0  0  0  0  0
   -3.1190    2.4979    0.0000 H   0  0  0  0  0  0  0  0  0  0  0  0
   -3.1190    1.4279    0.0000 H   0  0  0  0  0  0  0  0  0  0  0  0
   -3.1190    0.6029    0.0000 H   0  0  0  0  0  0  0  0  0  0  0  0
   -2.1924    0.0679    0.0000 H   0  0  0  0  0  0  0  0  0  0  0  0
   -1.3136   -0.9121    0.0000 H   0  0  0  0  0  0  0  0  0  0  0  0
    0.1061    0.2792    0.0000 H   0  0  0  0  0  0  0  0  0  0  0  0
   -0.2598   -0.7263    0.0000 H   0  0  0  0  0  0  0  0  0  0  0  0
   -3.0619    0.2789    0.0000 H   0  0  0  0  0  0  0  0  0  0  0  0
   -1.6420   -0.9121    0.0000 H   0  0  0  0  0  0  0  0  0  0  0  0
   -2.6957   -0.7265    0.0000 H   0  0  0  0  0  0  0  0  0  0  0  0
   -1.6424    4.0129    0.0000 H   0  0  0  0  0  0  0  0  0  0  0  0
   -3.0620    2.8215    0.0000 H   0  0  0  0  0  0  0  0  0  0  0  0
   -2.6962    3.8270    0.0000 H   0  0  0  0  0  0  0  0  0  0  0  0
    0.1061    2.8217    0.0000 H   0  0  0  0  0  0  0  0  0  0  0  0
   -1.3138    4.0128    0.0000 H   0  0  0  0  0  0  0  0  0  0  0  0
   -0.2600    3.8271    0.0000 H   0  0  0  0  0  0  0  0  0  0  0  0
    2.3065    1.8405    0.0000 H   0  0  0  0  0  0  0  0  0  0  0  0
    1.3798    3.4455    0.0000 H   0  0  0  0  0  0  0  0  0  0  0  0
    2.3064    2.9105    0.0000 H   0  0  0  0  0  0  0  0  0  0  0  0
  1  2  1  0  0  0  0
  1  6  2  0  0  0  0
  1 28  1  0  0  0  0
  2  3  2  0  0  0  0
  2  7  1  0  0  0  0
  3  4  1  0  0  0  0
  3 29  1  0  0  0  0
  4  5  2  0  0  0  0
  4 30  1  0  0  0  0
  5  6  1  0  0  0  0
  5 10  1  0  0  0  0
  7  8  2  0  0  0  0
  7  9  1  0  0  0  0
  9 31  1  0  0  0  0
 10 11  1  0  0  0  0
 10 12  1  0  0  0  0
 10 14  1  0  0  0  0
 11 12  1  0  0  0  0
 11 32  1  0  0  0  0
 11 33  1  0  0  0  0
 12 34  1  0  0  0  0
 12 35  1  0  0  0  0
 13 14  1  0  0  0  0
 13 22  2  0  0  0  0
 13 36  1  0  0  0  0
 14 15  2  0  0  0  0
 15 16  1  0  0  0  0
 15 27  1  0  0  0  0
 16 17  2  0  0  0  0
 16 37  1  0  0  0  0
 17 18  1  0  0  0  0
 17 22  1  0  0  0  0
 18 19  1  0  0  0  0
 18 25  1  0  0  0  0
 18 26  1  0  0  0  0
 19 20  1  0  0  0  0
 19 38  1  0  0  0  0
 19 39  1  0  0  0  0
 20 21  1  0  0  0  0
 20 40  1  0  0  0  0
 20 41  1  0  0  0  0
 21 22  1  0  0  0  0
 21 23  1  0  0  0  0
 21 24  1  0  0  0  0
 23 42  1  0  0  0  0
 23 43  1  0  0  0  0
 23 44  1  0  0  0  0
 24 45  1  0  0  0  0
 24 46  1  0  0  0  0
 24 47  1  0  0  0  0
 25 48  1  0  0  0  0
 25 49  1  0  0  0  0
 25 50  1  0  0  0  0
 26 51  1  0  0  0  0
 26 52  1  0  0  0  0
 26 53  1  0  0  0  0
 27 54  1  0  0  0  0
 27 55  1  0  0  0  0
 27 56  1  0  0  0  0
M  END
>  <DRUGBANK_ID>
DB01941

>  <SECONDARY_ACCESSION_NUMBERS>
EXPT02021

>  <COMMON_NAME>
LG-100268

>  <CAS_NUMBER>
153559-76-3

>  <UNII>
UVU4X1103P

$$$$
