
 OpenBabel10282417072D

112111  0  0  0  0  0  0  0  0999 V2000
    3.8783    2.2197    0.0000 N   0  0  0  0  0  0  0  0  0  0  0  0
    4.6062    1.8314    0.0000 C   0  0  0  0  0  0  0  0  0  0  0  0
    4.6062    1.0064    0.0000 C   0  0  0  0  0  0  0  0  0  0  0  0
    5.3342    0.6183    0.0000 C   0  0  0  0  0  0  0  0  0  0  0  0
    5.3343   -0.2068    0.0000 C   0  0  0  0  0  0  0  0  0  0  0  0
    6.0621   -0.5948    0.0000 C   0  0  0  0  0  0  0  0  0  0  0  0
    6.0621   -1.4198    0.0000 C   0  0  0  0  0  0  0  0  0  0  0  0
    6.7901   -1.8081    0.0000 C   0  0  0  0  0  0  0  0  0  0  0  0
    5.2938    2.2439    0.0000 O   0  0  0  0  0  0  0  0  0  0  0  0
    6.8181   -2.6327    0.0000 C   0  0  0  0  0  0  0  0  0  0  0  0
    6.1178   -3.0690    0.0000 C   0  0  0  0  0  0  0  0  0  0  0  0
    3.9043   -0.2555    0.0000 C   0  0  0  0  0  0  0  0  0  0  0  0
    4.6323   -0.6437    0.0000 C   0  0  0  0  0  0  0  0  0  0  0  0
    4.6324   -1.4687    0.0000 C   0  0  0  0  0  0  0  0  0  0  0  0
    5.3603   -1.8570    0.0000 C   0  0  0  0  0  0  0  0  0  0  0  0
    5.3830   -2.6939    0.0000 C   0  0  0  0  0  0  0  0  0  0  0  0
    7.5531   -3.8577    0.0000 C   0  0  0  0  0  0  0  0  0  0  0  0
    6.8456   -4.2822    0.0000 C   0  0  0  0  0  0  0  0  0  0  0  0
    7.5392   -3.0328    0.0000 C   0  0  0  0  0  0  0  0  0  0  0  0
    6.1243   -3.8817    0.0000 C   0  0  0  0  0  0  0  0  0  0  0  0
   -0.4084    3.0450    0.0000 C   0  0  0  0  0  0  0  0  0  0  0  0
   -1.1229    3.4574    0.0000 C   0  0  0  0  0  0  0  0  0  0  0  0
   -1.8373    3.0450    0.0000 C   0  0  0  0  0  0  0  0  0  0  0  0
    1.0205    3.0450    0.0000 C   0  0  0  0  0  0  0  0  0  0  0  0
    0.3060    3.4574    0.0000 C   0  0  0  0  0  0  0  0  0  0  0  0
    2.4495    3.0450    0.0000 C   0  0  2  0  0  0  0  0  0  0  0  0
    1.7349    3.4574    0.0000 C   0  0  0  0  0  0  0  0  0  0  0  0
    3.1638    3.4574    0.0000 C   0  0  2  0  0  0  0  0  0  0  0  0
    3.8783    3.0450    0.0000 C   0  0  2  0  0  0  0  0  0  0  0  0
    4.5929    3.4574    0.0000 C   0  0  0  0  0  0  0  0  0  0  0  0
    3.1638    4.2822    0.0000 O   0  0  0  0  0  0  0  0  0  0  0  0
    5.3072    3.0447    0.0000 O   0  0  0  0  0  0  0  0  0  0  0  0
   -2.5519    3.4574    0.0000 C   0  0  0  0  0  0  0  0  0  0  0  0
   -3.2662    3.0448    0.0000 C   0  0  0  0  0  0  0  0  0  0  0  0
   -3.9808    3.4572    0.0000 C   0  0  0  0  0  0  0  0  0  0  0  0
   -4.6952    3.0448    0.0000 C   0  0  0  0  0  0  0  0  0  0  0  0
   -5.4097    3.4572    0.0000 C   0  0  0  0  0  0  0  0  0  0  0  0
   -6.1241    3.0447    0.0000 C   0  0  0  0  0  0  0  0  0  0  0  0
   -6.8387    3.4572    0.0000 C   0  0  0  0  0  0  0  0  0  0  0  0
   -7.5531    3.0447    0.0000 C   0  0  0  0  0  0  0  0  0  0  0  0
    2.4495    2.2200    0.0000 O   0  0  0  0  0  0  0  0  0  0  0  0
    3.0341    1.7132    0.0000 H   0  0  0  0  0  0  0  0  0  0  0  0
    3.6887    0.4558    0.0000 H   0  0  0  0  0  0  0  0  0  0  0  0
    4.6333   -0.0633    0.0000 H   0  0  0  0  0  0  0  0  0  0  0  0
    6.2516    1.1689    0.0000 H   0  0  0  0  0  0  0  0  0  0  0  0
    6.2654    0.0912    0.0000 H   0  0  0  0  0  0  0  0  0  0  0  0
    4.4169   -0.7574    0.0000 H   0  0  0  0  0  0  0  0  0  0  0  0
    5.3615   -1.2765    0.0000 H   0  0  0  0  0  0  0  0  0  0  0  0
    6.9796   -0.0442    0.0000 H   0  0  0  0  0  0  0  0  0  0  0  0
    6.9932   -1.1219    0.0000 H   0  0  0  0  0  0  0  0  0  0  0  0
    5.1446   -1.9703    0.0000 H   0  0  0  0  0  0  0  0  0  0  0  0
    6.0891   -2.4895    0.0000 H   0  0  0  0  0  0  0  0  0  0  0  0
    7.6982   -1.2421    0.0000 H   0  0  0  0  0  0  0  0  0  0  0  0
    7.7343   -2.3114    0.0000 H   0  0  0  0  0  0  0  0  0  0  0  0
    5.9054   -3.1911    0.0000 H   0  0  0  0  0  0  0  0  0  0  0  0
    6.8409   -3.7025    0.0000 H   0  0  0  0  0  0  0  0  0  0  0  0
    7.0281   -2.5066    0.0000 H   0  0  0  0  0  0  0  0  0  0  0  0
    7.0544   -3.5864    0.0000 H   0  0  0  0  0  0  0  0  0  0  0  0
    3.8682    0.8139    0.0000 H   0  0  0  0  0  0  0  0  0  0  0  0
    2.9962   -0.8214    0.0000 H   0  0  0  0  0  0  0  0  0  0  0  0
    2.9601    0.2480    0.0000 H   0  0  0  0  0  0  0  0  0  0  0  0
    5.5498   -0.0931    0.0000 H   0  0  0  0  0  0  0  0  0  0  0  0
    5.5635   -1.1708    0.0000 H   0  0  0  0  0  0  0  0  0  0  0  0
    3.7149   -2.0192    0.0000 H   0  0  0  0  0  0  0  0  0  0  0  0
    4.6594   -2.5384    0.0000 H   0  0  0  0  0  0  0  0  0  0  0  0
    6.2703   -1.2941    0.0000 H   0  0  0  0  0  0  0  0  0  0  0  0
    6.3019   -2.3652    0.0000 H   0  0  0  0  0  0  0  0  0  0  0  0
    4.4781   -3.2649    0.0000 H   0  0  0  0  0  0  0  0  0  0  0  0
    5.4316   -3.7628    0.0000 H   0  0  0  0  0  0  0  0  0  0  0  0
    8.4554   -4.3586    0.0000 H   0  0  0  0  0  0  0  0  0  0  0  0
    6.8636   -5.3520    0.0000 H   0  0  0  0  0  0  0  0  0  0  0  0
    5.9280   -4.8327    0.0000 H   0  0  0  0  0  0  0  0  0  0  0  0
    8.4241   -2.5017    0.0000 H   0  0  0  0  0  0  0  0  0  0  0  0
    5.2043   -4.4281    0.0000 H   0  0  0  0  0  0  0  0  0  0  0  0
    5.1923   -3.3562    0.0000 H   0  0  0  0  0  0  0  0  0  0  0  0
   -0.4084    1.9750    0.0000 H   0  0  0  0  0  0  0  0  0  0  0  0
    0.5182    2.5100    0.0000 H   0  0  0  0  0  0  0  0  0  0  0  0
   -1.1229    4.5274    0.0000 H   0  0  0  0  0  0  0  0  0  0  0  0
   -2.0495    3.9924    0.0000 H   0  0  0  0  0  0  0  0  0  0  0  0
   -1.8372    1.9750    0.0000 H   0  0  0  0  0  0  0  0  0  0  0  0
   -2.7639    2.5099    0.0000 H   0  0  0  0  0  0  0  0  0  0  0  0
    1.0205    1.9750    0.0000 H   0  0  0  0  0  0  0  0  0  0  0  0
    1.9471    2.5100    0.0000 H   0  0  0  0  0  0  0  0  0  0  0  0
    0.3060    4.5274    0.0000 H   0  0  0  0  0  0  0  0  0  0  0  0
   -0.6206    3.9924    0.0000 H   0  0  0  0  0  0  0  0  0  0  0  0
    1.5229    2.5099    0.0000 H   0  0  0  0  0  0  0  0  0  0  0  0
    1.7348    4.5274    0.0000 H   0  0  0  0  0  0  0  0  0  0  0  0
    0.8083    3.9924    0.0000 H   0  0  0  0  0  0  0  0  0  0  0  0
    2.2372    3.9924    0.0000 H   0  0  0  0  0  0  0  0  0  0  0  0
    2.9517    2.5099    0.0000 H   0  0  0  0  0  0  0  0  0  0  0  0
    4.5932    4.5274    0.0000 H   0  0  0  0  0  0  0  0  0  0  0  0
    5.5197    3.9921    0.0000 H   0  0  0  0  0  0  0  0  0  0  0  0
    4.0038    4.7672    0.0000 H   0  0  0  0  0  0  0  0  0  0  0  0
    5.3069    2.0747    0.0000 H   0  0  0  0  0  0  0  0  0  0  0  0
   -2.5521    4.5274    0.0000 H   0  0  0  0  0  0  0  0  0  0  0  0
   -3.4787    3.9922    0.0000 H   0  0  0  0  0  0  0  0  0  0  0  0
   -3.2660    1.9748    0.0000 H   0  0  0  0  0  0  0  0  0  0  0  0
   -4.1927    2.5096    0.0000 H   0  0  0  0  0  0  0  0  0  0  0  0
   -3.9809    4.5272    0.0000 H   0  0  0  0  0  0  0  0  0  0  0  0
   -4.9074    3.9922    0.0000 H   0  0  0  0  0  0  0  0  0  0  0  0
   -4.6952    1.9748    0.0000 H   0  0  0  0  0  0  0  0  0  0  0  0
   -5.6218    2.5097    0.0000 H   0  0  0  0  0  0  0  0  0  0  0  0
   -5.4098    4.5272    0.0000 H   0  0  0  0  0  0  0  0  0  0  0  0
   -6.3364    3.9921    0.0000 H   0  0  0  0  0  0  0  0  0  0  0  0
   -6.1240    1.9747    0.0000 H   0  0  0  0  0  0  0  0  0  0  0  0
   -7.0507    2.5096    0.0000 H   0  0  0  0  0  0  0  0  0  0  0  0
   -6.8388    4.5272    0.0000 H   0  0  0  0  0  0  0  0  0  0  0  0
   -7.7654    3.9922    0.0000 H   0  0  0  0  0  0  0  0  0  0  0  0
   -8.4798    3.5797    0.0000 H   0  0  0  0  0  0  0  0  0  0  0  0
   -7.5531    1.9747    0.0000 H   0  0  0  0  0  0  0  0  0  0  0  0
   -8.4797    2.5097    0.0000 H   0  0  0  0  0  0  0  0  0  0  0  0
    1.6095    1.7350    0.0000 H   0  0  0  0  0  0  0  0  0  0  0  0
  1  2  1  0  0  0  0
  1 42  1  0  0  0  0
  3  2  1  0  0  0  0
  3 43  1  0  0  0  0
  3 44  1  0  0  0  0
  4  3  1  0  0  0  0
  4  5  1  0  0  0  0
  4 45  1  0  0  0  0
  4 46  1  0  0  0  0
  5 47  1  0  0  0  0
  5 48  1  0  0  0  0
  6  5  1  0  0  0  0
  6  7  1  0  0  0  0
  6 49  1  0  0  0  0
  6 50  1  0  0  0  0
  7 51  1  0  0  0  0
  7 52  1  0  0  0  0
  8  7  1  0  0  0  0
  8 10  1  0  0  0  0
  8 53  1  0  0  0  0
  8 54  1  0  0  0  0
  9  2  2  0  0  0  0
 10 19  1  0  0  0  0
 10 55  1  0  0  0  0
 10 56  1  0  0  0  0
 11 20  1  0  0  0  0
 11 57  1  0  0  0  0
 11 58  1  0  0  0  0
 12 13  1  0  0  0  0
 12 59  1  0  0  0  0
 12 60  1  0  0  0  0
 12 61  1  0  0  0  0
 13 14  1  0  0  0  0
 13 62  1  0  0  0  0
 13 63  1  0  0  0  0
 14 15  1  0  0  0  0
 14 64  1  0  0  0  0
 14 65  1  0  0  0  0
 15 16  1  0  0  0  0
 15 66  1  0  0  0  0
 15 67  1  0  0  0  0
 16 11  1  0  0  0  0
 16 68  1  0  0  0  0
 16 69  1  0  0  0  0
 17 70  1  0  0  0  0
 18 17  1  0  0  0  0
 18 71  1  0  0  0  0
 18 72  1  0  0  0  0
 19 17  2  0  0  0  0
 19 73  1  0  0  0  0
 20 18  1  0  0  0  0
 20 74  1  0  0  0  0
 20 75  1  0  0  0  0
 21 25  1  0  0  0  0
 21 76  1  0  0  0  0
 21 77  1  0  0  0  0
 22 21  1  0  0  0  0
 22 78  1  0  0  0  0
 22 79  1  0  0  0  0
 23 22  1  0  0  0  0
 23 33  1  0  0  0  0
 23 80  1  0  0  0  0
 23 81  1  0  0  0  0
 24 27  1  0  0  0  0
 24 82  1  0  0  0  0
 24 83  1  0  0  0  0
 25 24  1  0  0  0  0
 25 84  1  0  0  0  0
 25 85  1  0  0  0  0
 26 41  1  0  0  0  0
 26 86  1  1  0  0  0
 27 26  1  0  0  0  0
 27 87  1  0  0  0  0
 27 88  1  0  0  0  0
 28 26  1  0  0  0  0
 28 31  1  0  0  0  0
 28 29  1  0  0  0  0
 28 89  1  6  0  0  0
 29  1  1  0  0  0  0
 29 30  1  0  0  0  0
 29 90  1  1  0  0  0
 30 32  1  0  0  0  0
 30 91  1  0  0  0  0
 30 92  1  0  0  0  0
 31 93  1  0  0  0  0
 32 94  1  0  0  0  0
 33 34  1  0  0  0  0
 33 95  1  0  0  0  0
 33 96  1  0  0  0  0
 34 35  1  0  0  0  0
 34 97  1  0  0  0  0
 34 98  1  0  0  0  0
 35 36  1  0  0  0  0
 35 99  1  0  0  0  0
 35100  1  0  0  0  0
 36 37  1  0  0  0  0
 36101  1  0  0  0  0
 36102  1  0  0  0  0
 37 38  1  0  0  0  0
 37103  1  0  0  0  0
 37104  1  0  0  0  0
 38 39  1  0  0  0  0
 38105  1  0  0  0  0
 38106  1  0  0  0  0
 39 40  1  0  0  0  0
 39107  1  0  0  0  0
 39108  1  0  0  0  0
 40109  1  0  0  0  0
 40110  1  0  0  0  0
 40111  1  0  0  0  0
 41112  1  0  0  0  0
M  END
>  <DRUGBANK_ID>
DB14111

>  <SECONDARY_ACCESSION_NUMBERS>
DB11258

>  <COMMON_NAME>
Ceramide NP

>  <CAS_NUMBER>
100403-19-8

>  <UNII>
4370DF050B

>  <SYNONYMS>
Cer(t18:0/18:1n-9); Ceramide 3; Ceramide III; Ceramide IIIb; Cytomide IIIa; Cytomide IIIb; N-(9Z-octadecenoyl)-4-hydroxysphinganine; N-(9Z-octadecenoyl)phytosphingosine; N-octadecanoylphytosphingosine; N-oleoylphytosphingosine; N-oloeoyl-4-hydroxysphinganine

$$$$
