
 OpenBabel10282417072D

 27 27  0  0  0  0  0  0  0  0999 V2000
   -0.6283    1.7262    0.0000 C   0  0  0  0  0  0  0  0  0  0  0  0
    0.1842    1.8695    0.0000 C   0  0  0  0  0  0  0  0  0  0  0  0
    0.7145    1.2375    0.0000 C   0  0  0  0  0  0  0  0  0  0  0  0
    1.4289    0.8250    0.0000 C   0  0  0  0  0  0  0  0  0  0  0  0
    2.1434    1.2375    0.0000 O   0  0  0  0  0  0  0  0  0  0  0  0
    1.4289   -0.0000    0.0000 C   0  0  0  0  0  0  0  0  0  0  0  0
    0.7145   -0.4125    0.0000 C   0  0  0  0  0  0  0  0  0  0  0  0
    0.0000    0.0000    0.0000 N   0  0  0  0  0  0  0  0  0  0  0  0
    0.0000    0.8250    0.0000 C   0  0  0  0  0  0  0  0  0  0  0  0
   -0.7145    1.2375    0.0000 O   0  0  0  0  0  0  0  0  0  0  0  0
    1.2448    1.8695    0.0000 C   0  0  0  0  0  0  0  0  0  0  0  0
    0.9626    2.6447    0.0000 C   0  0  0  0  0  0  0  0  0  0  0  0
   -1.3161    2.5458    0.0000 H   0  0  0  0  0  0  0  0  0  0  0  0
   -0.9942    0.7207    0.0000 H   0  0  0  0  0  0  0  0  0  0  0  0
   -1.6820    1.5404    0.0000 H   0  0  0  0  0  0  0  0  0  0  0  0
    0.5501    2.8750    0.0000 H   0  0  0  0  0  0  0  0  0  0  0  0
    1.2379    2.0553    0.0000 H   0  0  0  0  0  0  0  0  0  0  0  0
    2.3556   -0.5350    0.0000 H   0  0  0  0  0  0  0  0  0  0  0  0
    1.4289   -1.0700    0.0000 H   0  0  0  0  0  0  0  0  0  0  0  0
    0.7145   -1.4825    0.0000 H   0  0  0  0  0  0  0  0  0  0  0  0
   -0.2121   -0.9475    0.0000 H   0  0  0  0  0  0  0  0  0  0  0  0
   -0.8526   -0.4923    0.0000 H   0  0  0  0  0  0  0  0  0  0  0  0
    2.2986    1.6837    0.0000 H   0  0  0  0  0  0  0  0  0  0  0  0
    1.9325    2.6892    0.0000 H   0  0  0  0  0  0  0  0  0  0  0  0
    1.6503    3.4644    0.0000 H   0  0  0  0  0  0  0  0  0  0  0  0
   -0.0912    2.8304    0.0000 H   0  0  0  0  0  0  0  0  0  0  0  0
    0.5966    3.6502    0.0000 H   0  0  0  0  0  0  0  0  0  0  0  0
  1  2  1  0  0  0  0
  1 13  1  0  0  0  0
  1 14  1  0  0  0  0
  1 15  1  0  0  0  0
  2  3  1  0  0  0  0
  2 16  1  0  0  0  0
  2 17  1  0  0  0  0
  3  4  1  0  0  0  0
  3  9  1  0  0  0  0
  3 11  1  0  0  0  0
  4  5  2  0  0  0  0
  4  6  1  0  0  0  0
  6  7  1  0  0  0  0
  6 18  1  0  0  0  0
  6 19  1  0  0  0  0
  7  8  1  0  0  0  0
  7 20  1  0  0  0  0
  7 21  1  0  0  0  0
  8  9  1  0  0  0  0
  8 22  1  0  0  0  0
  9 10  2  0  0  0  0
 11 12  1  0  0  0  0
 11 23  1  0  0  0  0
 11 24  1  0  0  0  0
 12 25  1  0  0  0  0
 12 26  1  0  0  0  0
 12 27  1  0  0  0  0
M  END
>  <DRUGBANK_ID>
DB13224

>  <COMMON_NAME>
Piperidione

>  <CAS_NUMBER>
77-03-2

>  <UNII>
BZ6KL0Q8UD

$$$$
