
 OpenBabel10282417072D

  1  0  0  0  0  0  0  0  0  0999 V2000
    0.0000    0.0000    0.0000 Fe  0  0  0  0  0  0  0  0  0  0  0  0
M  END
>  <DRUGBANK_ID>
DB01592

>  <COMMON_NAME>
Iron

>  <CAS_NUMBER>
7439-89-6

>  <UNII>
E1UOL152H7

>  <SYNONYMS>
Carbonyl iron; Eisen; Electrolytic iron; Fe; fer; Ferrum; Ferrum metallicum; Hierro; Iron powder; Iron, carbonyl; Iron, electrolytic; Iron, elemental; Iron, reduced; Reduced iron

$$$$
