
 OpenBabel10282417072D

 66 69  0  0  1  0  0  0  0  0999 V2000
   -1.9235   -3.2030    0.0000 O   0  0  0  0  0  0  0  0  0  0  0  0
   -2.6379   -3.6155    0.0000 C   0  0  0  0  0  0  0  0  0  0  0  0
   -3.3524   -3.2030    0.0000 O   0  0  0  0  0  0  0  0  0  0  0  0
   -2.6379   -4.4405    0.0000 C   0  0  0  0  0  0  0  0  0  0  0  0
   -1.9235   -4.8530    0.0000 C   0  0  0  0  0  0  0  0  0  0  0  0
   -1.9235   -5.6780    0.0000 C   0  0  0  0  0  0  0  0  0  0  0  0
   -2.6379   -6.0905    0.0000 C   0  0  0  0  0  0  0  0  0  0  0  0
   -3.3524   -5.6780    0.0000 C   0  0  0  0  0  0  0  0  0  0  0  0
   -4.0669   -6.0905    0.0000 O   0  0  0  0  0  0  0  0  0  0  0  0
   -3.3524   -4.8530    0.0000 C   0  0  0  0  0  0  0  0  0  0  0  0
   -4.0669   -4.4405    0.0000 C   0  0  0  0  0  0  0  0  0  0  0  0
   -4.0669   -3.6155    0.0000 O   0  0  0  0  0  0  0  0  0  0  0  0
   -4.7813   -4.8530    0.0000 C   0  0  0  0  0  0  0  0  0  0  0  0
   -4.7813   -5.6780    0.0000 C   0  0  0  0  0  0  0  0  0  0  0  0
   -4.4458   -6.4317    0.0000 O   0  0  0  0  0  0  0  0  0  0  0  0
   -5.4958   -6.0905    0.0000 C   0  0  0  0  0  0  0  0  0  0  0  0
   -6.2103   -5.6780    0.0000 C   0  0  0  0  0  0  0  0  0  0  0  0
   -6.2103   -4.8530    0.0000 C   0  0  0  0  0  0  0  0  0  0  0  0
   -5.4958   -4.4405    0.0000 C   0  0  0  0  0  0  0  0  0  0  0  0
   -5.4958   -3.6155    0.0000 O   0  0  0  0  0  0  0  0  0  0  0  0
   -6.9248   -6.0905    0.0000 C   0  0  0  0  0  0  0  0  0  0  0  0
   -6.9248   -6.9155    0.0000 O   0  0  0  0  0  0  0  0  0  0  0  0
   -7.6392   -5.6780    0.0000 O   0  0  0  0  0  0  0  0  0  0  0  0
   -8.3537   -6.0905    0.0000 C   0  0  2  0  0  0  0  0  0  0  0  0
   -8.2920   -6.9132    0.0000 C   0  0  0  0  0  0  0  0  0  0  0  0
   -8.8968   -7.4743    0.0000 C   0  0  0  0  0  0  0  0  0  0  0  0
   -9.7126   -7.3514    0.0000 C   0  0  0  0  0  0  0  0  0  0  0  0
  -10.1251   -6.6369    0.0000 N   0  0  0  0  0  0  0  0  0  0  0  0
   -9.8237   -5.8689    0.0000 C   0  0  0  0  0  0  0  0  0  0  0  0
   -9.0353   -5.6257    0.0000 C   0  0  2  0  0  0  0  0  0  0  0  0
   -8.9124   -4.8100    0.0000 N   0  0  0  0  0  0  0  0  0  0  0  0
   -9.5574   -4.2956    0.0000 C   0  0  0  0  0  0  0  0  0  0  0  0
  -10.3254   -4.5970    0.0000 O   0  0  0  0  0  0  0  0  0  0  0  0
   -9.4344   -3.4798    0.0000 C   0  0  0  0  0  0  0  0  0  0  0  0
  -10.0794   -2.9654    0.0000 C   0  0  0  0  0  0  0  0  0  0  0  0
   -9.9565   -2.1496    0.0000 C   0  0  0  0  0  0  0  0  0  0  0  0
   -9.1885   -1.8482    0.0000 C   0  0  0  0  0  0  0  0  0  0  0  0
   -9.0656   -1.0324    0.0000 O   0  0  0  0  0  0  0  0  0  0  0  0
   -8.5435   -2.3626    0.0000 C   0  0  0  0  0  0  0  0  0  0  0  0
   -8.6665   -3.1784    0.0000 C   0  0  0  0  0  0  0  0  0  0  0  0
   -1.1120   -3.6715    0.0000 H   0  0  0  0  0  0  0  0  0  0  0  0
   -1.0298   -4.3370    0.0000 H   0  0  0  0  0  0  0  0  0  0  0  0
   -1.0298   -6.1940    0.0000 H   0  0  0  0  0  0  0  0  0  0  0  0
   -2.6379   -7.1225    0.0000 H   0  0  0  0  0  0  0  0  0  0  0  0
   -4.8784   -5.6220    0.0000 H   0  0  0  0  0  0  0  0  0  0  0  0
   -4.9966   -7.1897    0.0000 H   0  0  0  0  0  0  0  0  0  0  0  0
   -5.4958   -7.1225    0.0000 H   0  0  0  0  0  0  0  0  0  0  0  0
   -7.1040   -4.3370    0.0000 H   0  0  0  0  0  0  0  0  0  0  0  0
   -4.6843   -3.1470    0.0000 H   0  0  0  0  0  0  0  0  0  0  0  0
   -7.4077   -6.5905    0.0000 H   0  0  0  0  0  0  0  0  0  0  0  0
   -7.2960   -7.3041    0.0000 H   0  0  0  0  0  0  0  0  0  0  0  0
   -8.0931   -7.9646    0.0000 H   0  0  0  0  0  0  0  0  0  0  0  0
   -8.5814   -8.4968    0.0000 H   0  0  0  0  0  0  0  0  0  0  0  0
   -9.5947   -8.2854    0.0000 H   0  0  0  0  0  0  0  0  0  0  0  0
  -10.3153   -8.2355    0.0000 H   0  0  0  0  0  0  0  0  0  0  0  0
  -10.7819   -7.3114    0.0000 H   0  0  0  0  0  0  0  0  0  0  0  0
  -11.1422   -6.7131    0.0000 H   0  0  0  0  0  0  0  0  0  0  0  0
  -10.5515   -5.0845    0.0000 H   0  0  0  0  0  0  0  0  0  0  0  0
   -9.5468   -4.8354    0.0000 H   0  0  0  0  0  0  0  0  0  0  0  0
   -9.8464   -4.9278    0.0000 H   0  0  0  0  0  0  0  0  0  0  0  0
   -7.9960   -4.4503    0.0000 H   0  0  0  0  0  0  0  0  0  0  0  0
  -11.0401   -3.3425    0.0000 H   0  0  0  0  0  0  0  0  0  0  0  0
  -10.7634   -1.5062    0.0000 H   0  0  0  0  0  0  0  0  0  0  0  0
   -8.1934   -0.6900    0.0000 H   0  0  0  0  0  0  0  0  0  0  0  0
   -7.5828   -1.9856    0.0000 H   0  0  0  0  0  0  0  0  0  0  0  0
   -7.8597   -3.8219    0.0000 H   0  0  0  0  0  0  0  0  0  0  0  0
  1  2  1  0  0  0  0
  1 41  1  0  0  0  0
  2  3  2  0  0  0  0
  2  4  1  0  0  0  0
  4  5  2  0  0  0  0
  4 10  1  0  0  0  0
  5  6  1  0  0  0  0
  5 42  1  0  0  0  0
  6  7  2  0  0  0  0
  6 43  1  0  0  0  0
  7  8  1  0  0  0  0
  7 44  1  0  0  0  0
  8  9  1  0  0  0  0
  8 10  2  0  0  0  0
  9 45  1  0  0  0  0
 10 11  1  0  0  0  0
 11 12  2  0  0  0  0
 11 13  1  0  0  0  0
 13 14  2  0  0  0  0
 13 19  1  0  0  0  0
 14 15  1  0  0  0  0
 14 16  1  0  0  0  0
 15 46  1  0  0  0  0
 16 17  2  0  0  0  0
 16 47  1  0  0  0  0
 17 18  1  0  0  0  0
 17 21  1  0  0  0  0
 18 19  2  0  0  0  0
 18 48  1  0  0  0  0
 19 20  1  0  0  0  0
 20 49  1  0  0  0  0
 21 22  2  0  0  0  0
 21 23  1  0  0  0  0
 24 23  1  0  0  0  0
 24 25  1  0  0  0  0
 24 30  1  0  0  0  0
 24 50  1  1  0  0  0
 25 26  1  0  0  0  0
 25 51  1  0  0  0  0
 25 52  1  0  0  0  0
 26 27  1  0  0  0  0
 26 53  1  0  0  0  0
 26 54  1  0  0  0  0
 27 28  1  0  0  0  0
 27 55  1  0  0  0  0
 27 56  1  0  0  0  0
 28 29  1  0  0  0  0
 28 57  1  0  0  0  0
 29 30  1  0  0  0  0
 29 58  1  0  0  0  0
 29 59  1  0  0  0  0
 30 31  1  0  0  0  0
 30 60  1  1  0  0  0
 31 32  1  0  0  0  0
 31 61  1  0  0  0  0
 32 33  2  0  0  0  0
 32 34  1  0  0  0  0
 34 35  2  0  0  0  0
 34 40  1  0  0  0  0
 35 36  1  0  0  0  0
 35 62  1  0  0  0  0
 36 37  2  0  0  0  0
 36 63  1  0  0  0  0
 37 38  1  0  0  0  0
 37 39  1  0  0  0  0
 38 64  1  0  0  0  0
 39 40  2  0  0  0  0
 39 65  1  0  0  0  0
 40 66  1  0  0  0  0
M  END
>  <DRUGBANK_ID>
DB04098

>  <SECONDARY_ACCESSION_NUMBERS>
EXPT00617

>  <COMMON_NAME>
Balanol

>  <UNII>
O0N0E1MP23

$$$$
