
 OpenBabel10282417072D

 37 36  0  0  0  0  0  0  0  0999 V2000
    0.3571   -1.0314    0.0000 N   0  0  0  0  0  0  0  0  0  0  0  0
   -0.3573   -1.4440    0.0000 C   0  0  1  0  0  0  0  0  0  0  0  0
   -1.0717   -1.0313    0.0000 C   0  0  0  0  0  0  0  0  0  0  0  0
   -1.0717   -0.2062    0.0000 C   0  0  0  0  0  0  0  0  0  0  0  0
   -1.7862    0.2062    0.0000 C   0  0  0  0  0  0  0  0  0  0  0  0
   -2.5008   -0.2062    0.0000 O   0  0  0  0  0  0  0  0  0  0  0  0
   -1.7860    1.0312    0.0000 N   0  0  0  0  0  0  0  0  0  0  0  0
   -1.0715    1.4439    0.0000 C   0  0  1  0  0  0  0  0  0  0  0  0
   -1.0715    2.2689    0.0000 C   0  0  0  0  0  0  0  0  0  0  0  0
   -0.3571    1.0312    0.0000 C   0  0  0  0  0  0  0  0  0  0  0  0
   -0.3571    0.2061    0.0000 O   0  0  0  0  0  0  0  0  0  0  0  0
    0.3572    1.4437    0.0000 N   0  0  0  0  0  0  0  0  0  0  0  0
    1.0718    1.0312    0.0000 C   0  0  0  0  0  0  0  0  0  0  0  0
    1.7864    1.4437    0.0000 C   0  0  0  0  0  0  0  0  0  0  0  0
    1.7864    2.2688    0.0000 O   0  0  0  0  0  0  0  0  0  0  0  0
    2.5008    1.0312    0.0000 O   0  0  0  0  0  0  0  0  0  0  0  0
   -0.3572   -2.2689    0.0000 C   0  0  0  0  0  0  0  0  0  0  0  0
   -1.0718   -2.6814    0.0000 O   0  0  0  0  0  0  0  0  0  0  0  0
    0.3570   -2.6814    0.0000 O   0  0  0  0  0  0  0  0  0  0  0  0
   -0.3571    2.6814    0.0000 S   0  0  0  0  0  0  0  0  0  0  0  0
    1.2405   -1.5413    0.0000 H   0  0  0  0  0  0  0  0  0  0  0  0
    0.3569   -0.0114    0.0000 H   0  0  0  0  0  0  0  0  0  0  0  0
   -0.3572   -0.3740    0.0000 H   0  0  0  0  0  0  0  0  0  0  0  0
   -1.9984   -1.5662    0.0000 H   0  0  0  0  0  0  0  0  0  0  0  0
   -1.9983   -0.4962    0.0000 H   0  0  0  0  0  0  0  0  0  0  0  0
   -0.1451    0.3289    0.0000 H   0  0  0  0  0  0  0  0  0  0  0  0
   -1.0718    0.8638    0.0000 H   0  0  0  0  0  0  0  0  0  0  0  0
   -2.6386    1.5235    0.0000 H   0  0  0  0  0  0  0  0  0  0  0  0
   -1.9982    1.9788    0.0000 H   0  0  0  0  0  0  0  0  0  0  0  0
   -1.9982    2.8039    0.0000 H   0  0  0  0  0  0  0  0  0  0  0  0
   -1.0715    3.3389    0.0000 H   0  0  0  0  0  0  0  0  0  0  0  0
    0.3571    2.4282    0.0000 H   0  0  0  0  0  0  0  0  0  0  0  0
    1.0718   -0.0388    0.0000 H   0  0  0  0  0  0  0  0  0  0  0  0
    1.9984    0.4962    0.0000 H   0  0  0  0  0  0  0  0  0  0  0  0
    2.5008    0.0942    0.0000 H   0  0  0  0  0  0  0  0  0  0  0  0
    0.3568   -3.6184    0.0000 H   0  0  0  0  0  0  0  0  0  0  0  0
    0.8207    2.0015    0.0000 H   0  0  0  0  0  0  0  0  0  0  0  0
  1 21  1  0  0  0  0
  1 22  1  0  0  0  0
  2  1  1  0  0  0  0
  2  3  1  0  0  0  0
  2 17  1  0  0  0  0
  2 23  1  1  0  0  0
  3  4  1  0  0  0  0
  3 24  1  0  0  0  0
  3 25  1  0  0  0  0
  4  5  1  0  0  0  0
  4 26  1  0  0  0  0
  4 27  1  0  0  0  0
  5  6  2  0  0  0  0
  5  7  1  0  0  0  0
  7  8  1  0  0  0  0
  7 28  1  0  0  0  0
  8  9  1  0  0  0  0
  8 10  1  0  0  0  0
  8 29  1  6  0  0  0
  9 20  1  0  0  0  0
  9 30  1  0  0  0  0
  9 31  1  0  0  0  0
 10 11  2  0  0  0  0
 10 12  1  0  0  0  0
 12 13  1  0  0  0  0
 12 32  1  0  0  0  0
 13 14  1  0  0  0  0
 13 33  1  0  0  0  0
 13 34  1  0  0  0  0
 14 15  2  0  0  0  0
 14 16  1  0  0  0  0
 16 35  1  0  0  0  0
 17 18  2  0  0  0  0
 17 19  1  0  0  0  0
 19 36  1  0  0  0  0
 20 37  1  0  0  0  0
M  END
>  <DRUGBANK_ID>
DB00143

>  <SECONDARY_ACCESSION_NUMBERS>
NUTR00029; EXPT01650

>  <COMMON_NAME>
Glutathione

>  <CAS_NUMBER>
70-18-8

>  <UNII>
GAN16C9B8O

>  <SYNONYMS>
5-L-Glutamyl-L-cysteinylglycine; AEC GLUTATHIONE; gamma-L-Glutamyl-L-cysteinyl-glycine; Glutathion; Glutathione; Glutathione-SH; GLYCINE, L-.GAMMA.-GLUTAMYL-L-CYSTEINYL-; GSH; L-GLUTATHIONE REDUCED; Liposomal glutathione; N-(N-gamma-L-Glutamyl-L-cysteinyl)glycine; Reduced glutathione; REDUCED L-GLUTATHIONE

$$$$
