
 OpenBabel10282417072D

 16 15  0  0  0  0  0  0  0  0999 V2000
   -0.2062    0.6187    0.0000 C   0  0  3  0  0  0  0  0  0  0  0  0
   -0.2062   -0.2062    0.0000 C   0  0  0  0  0  0  0  0  0  0  0  0
   -0.9207   -0.6187    0.0000 C   0  0  0  0  0  0  0  0  0  0  0  0
   -0.9207   -1.4437    0.0000 C   0  0  0  0  0  0  0  0  0  0  0  0
   -0.9207   -2.2687    0.0000 N   0  0  0  0  0  0  0  0  0  0  0  0
   -0.2062    1.4437    0.0000 C   0  0  0  0  0  0  0  0  0  0  0  0
   -0.2062    2.2687    0.0000 N   0  0  0  0  0  0  0  0  0  0  0  0
    0.6187    0.6187    0.0000 C   0  0  0  0  0  0  0  0  0  0  0  0
    1.0312    1.3332    0.0000 Br  0  0  0  0  0  0  0  0  0  0  0  0
   -1.0312    0.6187    0.0000 Br  0  0  0  0  0  0  0  0  0  0  0  0
    0.7204   -0.7412    0.0000 H   0  0  0  0  0  0  0  0  0  0  0  0
   -0.2062   -1.2762    0.0000 H   0  0  0  0  0  0  0  0  0  0  0  0
   -1.8473   -0.0837    0.0000 H   0  0  0  0  0  0  0  0  0  0  0  0
   -1.8473   -1.1537    0.0000 H   0  0  0  0  0  0  0  0  0  0  0  0
    1.1537   -0.3079    0.0000 H   0  0  0  0  0  0  0  0  0  0  0  0
    1.6887    0.6187    0.0000 H   0  0  0  0  0  0  0  0  0  0  0  0
  1  2  1  0  0  0  0
  1  6  1  0  0  0  0
  1  8  1  0  0  0  0
  1 10  1  0  0  0  0
  2  3  1  0  0  0  0
  2 11  1  0  0  0  0
  2 12  1  0  0  0  0
  3  4  1  0  0  0  0
  3 13  1  0  0  0  0
  3 14  1  0  0  0  0
  4  5  3  0  0  0  0
  6  7  3  0  0  0  0
  8  9  1  0  0  0  0
  8 15  1  0  0  0  0
  8 16  1  0  0  0  0
M  END
>  <DRUGBANK_ID>
DB14199

>  <COMMON_NAME>
Bromothalonil

>  <CAS_NUMBER>
35691-65-7

>  <UNII>
YX089CPS05

>  <SYNONYMS>
1,2-Dibromo-2,4-dicyanobutane; 2-Bromo-2-(bromomethyl) glutaronitrile; 2-Bromo-2-(bromomethyl) pentanedinitrile; BBMG; Glutaronitrile, 2-bromo-2-(bromomethyl)-; MDBGN; Methyldibromo Glutaronitrile; Methyldibromoglutaronitrile

$$$$
