
 OpenBabel10282417072D

 34 35  0  0  0  0  0  0  0  0999 V2000
   -0.3479    0.4093    0.0000 C   0  0  0  0  0  0  0  0  0  0  0  0
   -1.0643    0.8187    0.0000 C   0  0  0  0  0  0  0  0  0  0  0  0
   -0.3479   -0.4093    0.0000 C   0  0  0  0  0  0  0  0  0  0  0  0
    0.3683    0.8187    0.0000 S   0  0  1  0  0  0  0  0  0  0  0  0
   -1.7602    0.4093    0.0000 C   0  0  0  0  0  0  0  0  0  0  0  0
   -1.0643    1.6374    0.0000 C   0  0  0  0  0  0  0  0  0  0  0  0
    0.3683   -0.8187    0.0000 C   0  0  0  0  0  0  0  0  0  0  0  0
   -1.0643   -0.8187    0.0000 C   0  0  0  0  0  0  0  0  0  0  0  0
    1.0643    0.4093    0.0000 C   0  0  0  0  0  0  0  0  0  0  0  0
    0.3683    1.6374    0.0000 O   0  0  0  0  0  0  0  0  0  0  0  0
   -2.4766    0.8187    0.0000 C   0  0  0  0  0  0  0  0  0  0  0  0
   -1.7602    2.0467    0.0000 C   0  0  0  0  0  0  0  0  0  0  0  0
    0.3683   -1.6374    0.0000 C   0  0  0  0  0  0  0  0  0  0  0  0
   -1.0643   -1.6374    0.0000 C   0  0  0  0  0  0  0  0  0  0  0  0
    1.7807    0.8187    0.0000 C   0  0  0  0  0  0  0  0  0  0  0  0
   -2.4766    1.6374    0.0000 C   0  0  0  0  0  0  0  0  0  0  0  0
   -0.3479   -2.0467    0.0000 C   0  0  0  0  0  0  0  0  0  0  0  0
    2.4766    0.4093    0.0000 N   0  0  0  0  0  0  0  0  0  0  0  0
    1.7807    1.6374    0.0000 O   0  0  0  0  0  0  0  0  0  0  0  0
    0.5776   -0.1277    0.0000 H   0  0  0  0  0  0  0  0  0  0  0  0
   -1.7537   -0.6227    0.0000 H   0  0  0  0  0  0  0  0  0  0  0  0
   -0.1685    2.1498    0.0000 H   0  0  0  0  0  0  0  0  0  0  0  0
    1.2609   -0.3008    0.0000 H   0  0  0  0  0  0  0  0  0  0  0  0
   -1.9569   -0.3007    0.0000 H   0  0  0  0  0  0  0  0  0  0  0  0
    1.0576   -0.6607    0.0000 H   0  0  0  0  0  0  0  0  0  0  0  0
    1.9881   -0.1306    0.0000 H   0  0  0  0  0  0  0  0  0  0  0  0
   -3.3692    0.3007    0.0000 H   0  0  0  0  0  0  0  0  0  0  0  0
   -1.7537    3.0787    0.0000 H   0  0  0  0  0  0  0  0  0  0  0  0
    1.2609   -2.1554    0.0000 H   0  0  0  0  0  0  0  0  0  0  0  0
   -1.9569   -2.1554    0.0000 H   0  0  0  0  0  0  0  0  0  0  0  0
   -3.3692    2.1554    0.0000 H   0  0  0  0  0  0  0  0  0  0  0  0
   -0.3478   -3.0787    0.0000 H   0  0  0  0  0  0  0  0  0  0  0  0
    2.4686   -0.5752    0.0000 H   0  0  0  0  0  0  0  0  0  0  0  0
    3.3332    0.8946    0.0000 H   0  0  0  0  0  0  0  0  0  0  0  0
  1 20  1  0  0  0  0
  2  1  1  0  0  0  0
  3  1  1  0  0  0  0
  4  1  1  0  0  0  0
  4  9  1  0  0  0  0
  4 10  2  6  0  0  0
  5  2  1  0  0  0  0
  5 21  1  0  0  0  0
  6  2  2  0  0  0  0
  6 22  1  0  0  0  0
  7  3  1  0  0  0  0
  7 23  1  0  0  0  0
  8  3  2  0  0  0  0
  8 24  1  0  0  0  0
  9 25  1  0  0  0  0
  9 26  1  0  0  0  0
 11  5  2  0  0  0  0
 11 27  1  0  0  0  0
 12  6  1  0  0  0  0
 12 28  1  0  0  0  0
 13  7  2  0  0  0  0
 13 29  1  0  0  0  0
 14  8  1  0  0  0  0
 14 30  1  0  0  0  0
 15  9  1  0  0  0  0
 16 11  1  0  0  0  0
 16 12  2  0  0  0  0
 16 31  1  0  0  0  0
 17 13  1  0  0  0  0
 17 14  2  0  0  0  0
 17 32  1  0  0  0  0
 18 15  1  0  0  0  0
 18 33  1  0  0  0  0
 18 34  1  0  0  0  0
 19 15  2  0  0  0  0
M  END
>  <DRUGBANK_ID>
DB06413

>  <COMMON_NAME>
Armodafinil

>  <CAS_NUMBER>
112111-43-0

>  <UNII>
V63XWA605I

>  <SYNONYMS>
(–)-2-[(R)-(diphenylmethyl)sulfinyl]acetamide; (−)-(R)-modafinil; (−)-modafinil; (R)-(−)-modafinil; (R)-modafinil; Armodafinil; Armodafinilo; Armodafinilum; R-modafinil

$$$$
