
 OpenBabel10282417072D

 17 17  0  0  0  0  0  0  0  0999 V2000
   -0.7094    0.2062    0.0000 C   0  0  0  0  0  0  0  0  0  0  0  0
    0.0163   -0.1976    0.0000 C   0  0  0  0  0  0  0  0  0  0  0  0
   -1.4122   -0.1976    0.0000 C   0  0  0  0  0  0  0  0  0  0  0  0
   -0.7094    1.0312    0.0000 C   0  0  0  0  0  0  0  0  0  0  0  0
    0.0163   -1.0226    0.0000 C   0  0  0  0  0  0  0  0  0  0  0  0
   -1.4122   -1.0226    0.0000 C   0  0  0  0  0  0  0  0  0  0  0  0
    0.0048    1.4395    0.0000 N   0  0  0  0  0  0  0  0  0  0  0  0
   -0.7094   -1.4395    0.0000 C   0  0  0  0  0  0  0  0  0  0  0  0
    0.7078    1.0112    0.0000 C   0  0  0  0  0  0  0  0  0  0  0  0
    1.4122    0.5817    0.0000 S   0  0  0  0  0  0  0  0  0  0  0  0
    0.9059    0.3255    0.0000 H   0  0  0  0  0  0  0  0  0  0  0  0
   -2.3054    0.3193    0.0000 H   0  0  0  0  0  0  0  0  0  0  0  0
   -1.6349    1.5682    0.0000 H   0  0  0  0  0  0  0  0  0  0  0  0
   -0.7060    2.1012    0.0000 H   0  0  0  0  0  0  0  0  0  0  0  0
    0.9095   -1.5396    0.0000 H   0  0  0  0  0  0  0  0  0  0  0  0
   -2.3090   -1.5333    0.0000 H   0  0  0  0  0  0  0  0  0  0  0  0
   -0.7166   -2.4715    0.0000 H   0  0  0  0  0  0  0  0  0  0  0  0
  1  2  1  0  0  0  0
  1  3  2  0  0  0  0
  1  4  1  0  0  0  0
  2  5  2  0  0  0  0
  2 11  1  0  0  0  0
  3  6  1  0  0  0  0
  3 12  1  0  0  0  0
  4  7  1  0  0  0  0
  4 13  1  0  0  0  0
  4 14  1  0  0  0  0
  5  8  1  0  0  0  0
  5 15  1  0  0  0  0
  6  8  2  0  0  0  0
  6 16  1  0  0  0  0
  7  9  2  0  0  0  0
  8 17  1  0  0  0  0
  9 10  2  0  0  0  0
M  END
>  <DRUGBANK_ID>
DB16860

>  <COMMON_NAME>
Benzyl isothiocyanate

>  <CAS_NUMBER>
622-78-6

>  <UNII>
871J6YOR8Q

>  <SYNONYMS>
Benzyl mustard oil

$$$$
