
 OpenBabel10282417072D

 94 97  0  0  0  0  0  0  0  0999 V2000
    0.5336   -1.0159    0.0000 C   0  0  1  0  0  0  0  0  0  0  0  0
    4.0613   -1.4545    0.0000 O   0  0  0  0  0  0  0  0  0  0  0  0
   -3.0429    0.2070    0.0000 C   0  0  1  0  0  0  0  0  0  0  0  0
   -3.4571   -0.5092    0.0000 C   0  0  2  0  0  0  0  0  0  0  0  0
    3.3500   -1.0306    0.0000 C   0  0  1  0  0  0  0  0  0  0  0  0
   -4.2806   -0.5092    0.0000 C   0  0  2  0  0  0  0  0  0  0  0  0
   -0.8892   -1.8442    0.0000 C   0  0  1  0  0  0  0  0  0  0  0  0
    4.0712   -0.6261    0.0000 C   0  0  1  0  0  0  0  0  0  0  0  0
   -0.8942   -1.0208    0.0000 C   0  0  1  0  0  0  0  0  0  0  0  0
   -3.4571    0.9233    0.0000 O   0  0  0  0  0  0  0  0  0  0  0  0
   -0.1826   -0.6066    0.0000 O   0  0  0  0  0  0  0  0  0  0  0  0
   -4.6996    0.2070    0.0000 C   0  0  1  0  0  0  0  0  0  0  0  0
   -0.1729   -2.2536    0.0000 C   0  0  2  0  0  0  0  0  0  0  0  0
    0.5383   -1.8345    0.0000 C   0  0  0  0  0  0  0  0  0  0  0  0
   -4.2806    0.9233    0.0000 C   0  0  1  0  0  0  0  0  0  0  0  0
   -1.6055   -2.2585    0.0000 C   0  0  0  0  0  0  0  0  0  0  0  0
    1.2450   -0.5969    0.0000 C   0  0  0  0  0  0  0  0  0  0  0  0
    4.0808    0.1973    0.0000 C   0  0  0  0  0  0  0  0  0  0  0  0
    4.8068    1.4252    0.0000 C   0  0  0  0  0  0  0  0  0  0  0  0
    2.6726   -0.5920    0.0000 C   0  0  0  0  0  0  0  0  0  0  0  0
   -2.3314    0.6310    0.0000 O   0  0  0  0  0  0  0  0  0  0  0  0
   -1.6103   -0.6115    0.0000 C   0  0  0  0  0  0  0  0  0  0  0  0
    4.0955    1.8442    0.0000 O   0  0  0  0  0  0  0  0  0  0  0  0
    4.8020    0.6017    0.0000 C   0  0  0  0  0  0  0  0  0  0  0  0
   -1.6103    0.2119    0.0000 C   0  0  2  0  0  0  0  0  0  0  0  0
    1.9613   -1.0062    0.0000 C   0  0  2  0  0  0  0  0  0  0  0  0
   -1.6055   -3.0868    0.0000 O   0  0  0  0  0  0  0  0  0  0  0  0
    5.5280    1.8345    0.0000 O   0  0  0  0  0  0  0  0  0  0  0  0
   -4.6948   -1.2255    0.0000 N   0  0  0  0  0  0  0  0  0  0  0  0
    0.5336    3.0868    0.0000 C   0  0  0  0  0  0  0  0  0  0  0  0
   -0.1826    2.6774    0.0000 C   0  0  0  0  0  0  0  0  0  0  0  0
   -0.1826    1.8541    0.0000 C   0  0  0  0  0  0  0  0  0  0  0  0
    1.2450    2.6774    0.0000 C   0  0  0  0  0  0  0  0  0  0  0  0
   -0.8989    1.4447    0.0000 C   0  0  0  0  0  0  0  0  0  0  0  0
    1.9613    3.0868    0.0000 C   0  0  0  0  0  0  0  0  0  0  0  0
   -0.8942    0.6212    0.0000 C   0  0  0  0  0  0  0  0  0  0  0  0
    0.5383   -0.1876    0.0000 O   0  0  0  0  0  0  0  0  0  0  0  0
   -3.0380   -1.2255    0.0000 O   0  0  0  0  0  0  0  0  0  0  0  0
    2.6726    2.6726    0.0000 C   0  0  0  0  0  0  0  0  0  0  0  0
   -5.5280    0.2070    0.0000 O   0  0  0  0  0  0  0  0  0  0  0  0
   -0.1729   -3.0820    0.0000 O   0  0  0  0  0  0  0  0  0  0  0  0
   -2.3266   -1.8491    0.0000 O   0  0  0  0  0  0  0  0  0  0  0  0
    4.1004    2.6677    0.0000 C   0  0  1  0  0  0  0  0  0  0  0  0
    1.9613   -1.8345    0.0000 O   0  0  0  0  0  0  0  0  0  0  0  0
   -4.6948    1.6445    0.0000 C   0  0  0  0  0  0  0  0  0  0  0  0
    3.3889    3.0820    0.0000 C   0  0  0  0  0  0  0  0  0  0  0  0
    4.8215    3.0770    0.0000 C   0  0  0  0  0  0  0  0  0  0  0  0
    4.7922   -1.0402    0.0000 H   0  0  0  0  0  0  0  0  0  0  0  0
    2.9406   -1.7517    0.0000 H   0  0  0  0  0  0  0  0  0  0  0  0
   -0.8843   -0.1924    0.0000 H   0  0  0  0  0  0  0  0  0  0  0  0
   -2.3314   -0.2022    0.0000 H   0  0  0  0  0  0  0  0  0  0  0  0
   -2.3871   -0.5065    0.0000 H   0  0  0  0  0  0  0  0  0  0  0  0
   -3.7459   -1.4360    0.0000 H   0  0  0  0  0  0  0  0  0  0  0  0
   -0.8864   -2.9142    0.0000 H   0  0  0  0  0  0  0  0  0  0  0  0
   -5.2320    1.1352    0.0000 H   0  0  0  0  0  0  0  0  0  0  0  0
   -1.0984   -2.7906    0.0000 H   0  0  0  0  0  0  0  0  0  0  0  0
    1.4688   -2.3627    0.0000 H   0  0  0  0  0  0  0  0  0  0  0  0
    1.4614   -1.2935    0.0000 H   0  0  0  0  0  0  0  0  0  0  0  0
   -5.3506    0.9276    0.0000 H   0  0  0  0  0  0  0  0  0  0  0  0
    1.2380    0.4731    0.0000 H   0  0  0  0  0  0  0  0  0  0  0  0
    2.1687   -0.0568    0.0000 H   0  0  0  0  0  0  0  0  0  0  0  0
    3.1934    0.7241    0.0000 H   0  0  0  0  0  0  0  0  0  0  0  0
    2.6979    0.4777    0.0000 H   0  0  0  0  0  0  0  0  0  0  0  0
    1.7513   -0.0478    0.0000 H   0  0  0  0  0  0  0  0  0  0  0  0
   -2.5358   -1.1485    0.0000 H   0  0  0  0  0  0  0  0  0  0  0  0
   -2.5375   -0.0775    0.0000 H   0  0  0  0  0  0  0  0  0  0  0  0
    5.6910    0.0775    0.0000 H   0  0  0  0  0  0  0  0  0  0  0  0
   -2.5377   -0.3218    0.0000 H   0  0  0  0  0  0  0  0  0  0  0  0
    2.8889   -1.5395    0.0000 H   0  0  0  0  0  0  0  0  0  0  0  0
   -5.7148   -1.2248    0.0000 H   0  0  0  0  0  0  0  0  0  0  0  0
   -4.1854   -2.1092    0.0000 H   0  0  0  0  0  0  0  0  0  0  0  0
    0.5351    4.1188    0.0000 H   0  0  0  0  0  0  0  0  0  0  0  0
   -1.0752    3.1953    0.0000 H   0  0  0  0  0  0  0  0  0  0  0  0
    0.7100    1.3362    0.0000 H   0  0  0  0  0  0  0  0  0  0  0  0
    1.2435    1.6454    0.0000 H   0  0  0  0  0  0  0  0  0  0  0  0
   -1.7930    1.9601    0.0000 H   0  0  0  0  0  0  0  0  0  0  0  0
    1.9655    4.1188    0.0000 H   0  0  0  0  0  0  0  0  0  0  0  0
   -0.0001    0.1058    0.0000 H   0  0  0  0  0  0  0  0  0  0  0  0
    1.3811    0.2926    0.0000 H   0  0  0  0  0  0  0  0  0  0  0  0
   -3.5181   -2.0683    0.0000 H   0  0  0  0  0  0  0  0  0  0  0  0
    2.6684    1.6406    0.0000 H   0  0  0  0  0  0  0  0  0  0  0  0
   -6.0130    1.0470    0.0000 H   0  0  0  0  0  0  0  0  0  0  0  0
   -1.0129   -3.5670    0.0000 H   0  0  0  0  0  0  0  0  0  0  0  0
   -2.3334   -0.9121    0.0000 H   0  0  0  0  0  0  0  0  0  0  0  0
    5.0235    2.1266    0.0000 H   0  0  0  0  0  0  0  0  0  0  0  0
    1.1213   -2.3195    0.0000 H   0  0  0  0  0  0  0  0  0  0  0  0
   -4.1577    2.5699    0.0000 H   0  0  0  0  0  0  0  0  0  0  0  0
   -5.7648    1.6469    0.0000 H   0  0  0  0  0  0  0  0  0  0  0  0
   -5.2277    2.5724    0.0000 H   0  0  0  0  0  0  0  0  0  0  0  0
    3.3932    4.1520    0.0000 H   0  0  0  0  0  0  0  0  0  0  0  0
    2.4645    3.6209    0.0000 H   0  0  0  0  0  0  0  0  0  0  0  0
    5.7442    2.5352    0.0000 H   0  0  0  0  0  0  0  0  0  0  0  0
    4.8294    4.1470    0.0000 H   0  0  0  0  0  0  0  0  0  0  0  0
    5.7520    3.6052    0.0000 H   0  0  0  0  0  0  0  0  0  0  0  0
  1 37  1  1  0  0  0
  2  5  1  0  0  0  0
  2  8  1  0  0  0  0
  3 21  1  0  0  0  0
  3 51  1  6  0  0  0
  4  3  1  0  0  0  0
  4 38  1  0  0  0  0
  4 52  1  6  0  0  0
  5 20  1  0  0  0  0
  5 49  1  1  0  0  0
  6  4  1  0  0  0  0
  6 29  1  0  0  0  0
  6 53  1  6  0  0  0
  7 13  1  0  0  0  0
  7 16  1  0  0  0  0
  7  9  1  0  0  0  0
  7 54  1  6  0  0  0
  8  5  1  0  0  0  0
  8 48  1  6  0  0  0
  9 11  1  0  0  0  0
  9 50  1  1  0  0  0
 10  3  1  0  0  0  0
 11  1  1  0  0  0  0
 12 15  1  0  0  0  0
 12 40  1  0  0  0  0
 12  6  1  0  0  0  0
 12 55  1  1  0  0  0
 13 14  1  0  0  0  0
 13 41  1  0  0  0  0
 13 56  1  1  0  0  0
 14  1  1  0  0  0  0
 14 57  1  0  0  0  0
 14 58  1  0  0  0  0
 15 10  1  0  0  0  0
 15 45  1  0  0  0  0
 15 59  1  6  0  0  0
 17  1  1  0  0  0  0
 17 60  1  0  0  0  0
 17 61  1  0  0  0  0
 18  8  1  0  0  0  0
 18 62  1  0  0  0  0
 19 24  1  0  0  0  0
 20 26  1  0  0  0  0
 20 63  1  0  0  0  0
 20 64  1  0  0  0  0
 22  9  1  0  0  0  0
 22 65  1  0  0  0  0
 22 66  1  0  0  0  0
 23 19  1  0  0  0  0
 24 18  2  0  0  0  0
 24 67  1  0  0  0  0
 25 21  1  0  0  0  0
 25 22  1  0  0  0  0
 25 68  1  6  0  0  0
 26 17  1  0  0  0  0
 26 44  1  0  0  0  0
 26 69  1  1  0  0  0
 27 16  2  0  0  0  0
 28 19  2  0  0  0  0
 29 70  1  0  0  0  0
 29 71  1  0  0  0  0
 30 31  1  0  0  0  0
 30 72  1  0  0  0  0
 31 32  2  0  0  0  0
 31 73  1  0  0  0  0
 32 34  1  0  0  0  0
 32 74  1  0  0  0  0
 33 30  2  0  0  0  0
 33 75  1  0  0  0  0
 34 36  2  0  0  0  0
 34 76  1  0  0  0  0
 35 33  1  0  0  0  0
 35 77  1  0  0  0  0
 36 25  1  0  0  0  0
 36 78  1  0  0  0  0
 37 79  1  0  0  0  0
 38 80  1  0  0  0  0
 39 35  2  0  0  0  0
 39 46  1  0  0  0  0
 39 81  1  0  0  0  0
 40 82  1  0  0  0  0
 41 83  1  0  0  0  0
 42 16  1  0  0  0  0
 42 84  1  0  0  0  0
 43 23  1  0  0  0  0
 43 47  1  0  0  0  0
 43 85  1  6  0  0  0
 44 86  1  0  0  0  0
 45 87  1  0  0  0  0
 45 88  1  0  0  0  0
 45 89  1  0  0  0  0
 46 43  1  0  0  0  0
 46 90  1  0  0  0  0
 46 91  1  0  0  0  0
 47 92  1  0  0  0  0
 47 93  1  0  0  0  0
 47 94  1  0  0  0  0
M  END
>  <DRUGBANK_ID>
DB00826

>  <SECONDARY_ACCESSION_NUMBERS>
APRD01136

>  <COMMON_NAME>
Natamycin

>  <CAS_NUMBER>
7681-93-8

>  <UNII>
8O0C852CPO

>  <SYNONYMS>
Natamicina; Natamycin; Natamycine; Natamycinum; Pimaracin; Pimaricin

$$$$
