
 OpenBabel10282417072D

112112  0  0  0  0  0  0  0  0999 V2000
    0.8081    4.2862    0.0000 Gd  0  1  0  0  0  0  0  0  0  0  0  0
   -6.4126   -1.3738    0.0000 O   0  0  0  0  0  0  0  0  0  0  0  0
   -5.8406   -0.7793    0.0000 C   0  0  0  0  0  0  0  0  0  0  0  0
   -5.0398   -0.9775    0.0000 C   0  0  3  0  0  0  0  0  0  0  0  0
   -4.8109   -1.7701    0.0000 O   0  0  0  0  0  0  0  0  0  0  0  0
   -4.4677   -0.3830    0.0000 C   0  0  0  0  0  0  0  0  0  0  0  0
   -3.6669   -0.5812    0.0000 N   0  0  0  0  0  0  0  0  0  0  0  0
   -3.0948    0.0133    0.0000 C   0  0  0  0  0  0  0  0  0  0  0  0
   -3.3237    0.8060    0.0000 O   0  0  0  0  0  0  0  0  0  0  0  0
   -2.2940   -0.1848    0.0000 C   0  0  0  0  0  0  0  0  0  0  0  0
   -1.7220    0.4096    0.0000 C   0  0  0  0  0  0  0  0  0  0  0  0
   -0.9211    0.2115    0.0000 C   0  0  3  0  0  0  0  0  0  0  0  0
   -0.3491    0.8060    0.0000 N   0  0  0  0  0  0  0  0  0  0  0  0
    0.0771    0.0996    0.0000 C   0  0  0  0  0  0  0  0  0  0  0  0
    0.9019    0.1154    0.0000 C   0  0  0  0  0  0  0  0  0  0  0  0
    1.3006    0.8377    0.0000 N   0  0  0  0  0  0  0  0  0  0  0  0
    2.0070    1.2639    0.0000 C   0  0  0  0  0  0  0  0  0  0  0  0
    1.9912    2.0887    0.0000 C   0  0  0  0  0  0  0  0  0  0  0  0
    2.5632    2.6832    0.0000 C   0  0  0  0  0  0  0  0  0  0  0  0
    2.3344    3.4758    0.0000 C   0  0  0  0  0  0  0  0  0  0  0  0
    1.5335    3.6740    0.0000 C   0  0  0  0  0  0  0  0  0  0  0  0
    0.8427    3.1938    0.0000 C   0  0  0  0  0  0  0  0  0  0  0  0
    0.0179    3.1779    0.0000 C   0  0  0  0  0  0  0  0  0  0  0  0
   -0.3808    2.4556    0.0000 N   0  0  0  0  0  0  0  0  0  0  0  0
   -1.0872    2.0295    0.0000 C   0  0  0  0  0  0  0  0  0  0  0  0
   -1.0713    1.2046    0.0000 C   0  0  0  0  0  0  0  0  0  0  0  0
   -0.9753    3.0277    0.0000 C   0  0  3  0  0  0  0  0  0  0  0  0
   -1.7679    2.7989    0.0000 C   0  0  0  0  0  0  0  0  0  0  0  0
   -2.3624    3.3709    0.0000 C   0  0  0  0  0  0  0  0  0  0  0  0
   -3.1550    3.1421    0.0000 C   0  0  0  0  0  0  0  0  0  0  0  0
   -3.3532    2.3412    0.0000 O   0  0  0  0  0  0  0  0  0  0  0  0
   -3.7495    3.7141    0.0000 N   0  0  0  0  0  0  0  0  0  0  0  0
   -4.5421    3.4853    0.0000 C   0  0  0  0  0  0  0  0  0  0  0  0
   -5.1366    4.0573    0.0000 C   0  0  3  0  0  0  0  0  0  0  0  0
   -5.9293    3.8285    0.0000 O   0  0  0  0  0  0  0  0  0  0  0  0
   -4.9385    4.8582    0.0000 C   0  0  0  0  0  0  0  0  0  0  0  0
   -5.5329    5.4302    0.0000 O   0  0  0  0  0  0  0  0  0  0  0  0
   -0.7771    3.8285    0.0000 C   0  0  0  0  0  0  0  0  0  0  0  0
    0.0155    4.0573    0.0000 O   0  5  0  0  0  0  0  0  0  0  0  0
   -1.3716    4.4006    0.0000 O   0  0  0  0  0  0  0  0  0  0  0  0
    1.2689    2.4874    0.0000 N   0  0  0  0  0  0  0  0  0  0  0  0
    1.8951    0.2657    0.0000 C   0  0  3  0  0  0  0  0  0  0  0  0
    1.6969   -0.5352    0.0000 C   0  0  0  0  0  0  0  0  0  0  0  0
    2.2914   -1.1072    0.0000 C   0  0  0  0  0  0  0  0  0  0  0  0
    2.0933   -1.9081    0.0000 C   0  0  0  0  0  0  0  0  0  0  0  0
    1.3006   -2.1369    0.0000 O   0  0  0  0  0  0  0  0  0  0  0  0
    2.6877   -2.4801    0.0000 N   0  0  0  0  0  0  0  0  0  0  0  0
    2.4896   -3.2810    0.0000 C   0  0  0  0  0  0  0  0  0  0  0  0
    3.0840   -3.8530    0.0000 C   0  0  3  0  0  0  0  0  0  0  0  0
    3.8767   -3.6242    0.0000 O   0  0  0  0  0  0  0  0  0  0  0  0
    2.8859   -4.6538    0.0000 C   0  0  0  0  0  0  0  0  0  0  0  0
    3.4804   -5.2259    0.0000 O   0  0  0  0  0  0  0  0  0  0  0  0
    2.6877    0.4945    0.0000 C   0  0  0  0  0  0  0  0  0  0  0  0
    2.8859    1.2953    0.0000 O   0  5  0  0  0  0  0  0  0  0  0  0
    3.2822   -0.0776    0.0000 O   0  0  0  0  0  0  0  0  0  0  0  0
   -0.6923   -0.5812    0.0000 C   0  0  0  0  0  0  0  0  0  0  0  0
    0.1086   -0.7793    0.0000 O   0  5  0  0  0  0  0  0  0  0  0  0
   -1.2643   -1.1756    0.0000 O   0  0  0  0  0  0  0  0  0  0  0  0
   -7.3542   -1.1409    0.0000 H   0  0  0  0  0  0  0  0  0  0  0  0
   -6.1374    0.2487    0.0000 H   0  0  0  0  0  0  0  0  0  0  0  0
   -5.0987   -0.0083    0.0000 H   0  0  0  0  0  0  0  0  0  0  0  0
   -5.7817   -1.7485    0.0000 H   0  0  0  0  0  0  0  0  0  0  0  0
   -5.4834   -2.4691    0.0000 H   0  0  0  0  0  0  0  0  0  0  0  0
   -4.7644    0.6450    0.0000 H   0  0  0  0  0  0  0  0  0  0  0  0
   -3.7257    0.3880    0.0000 H   0  0  0  0  0  0  0  0  0  0  0  0
   -3.3939   -1.5271    0.0000 H   0  0  0  0  0  0  0  0  0  0  0  0
   -1.9972   -1.2128    0.0000 H   0  0  0  0  0  0  0  0  0  0  0  0
   -1.2553   -0.4418    0.0000 H   0  0  0  0  0  0  0  0  0  0  0  0
   -2.0188    1.4376    0.0000 H   0  0  0  0  0  0  0  0  0  0  0  0
   -0.9801    1.1807    0.0000 H   0  0  0  0  0  0  0  0  0  0  0  0
   -1.2179    1.2395    0.0000 H   0  0  0  0  0  0  0  0  0  0  0  0
   -0.4400   -0.8372    0.0000 H   0  0  0  0  0  0  0  0  0  0  0  0
    0.6298   -0.8166    0.0000 H   0  0  0  0  0  0  0  0  0  0  0  0
    1.4546   -0.8008    0.0000 H   0  0  0  0  0  0  0  0  0  0  0  0
    1.9717    0.1360    0.0000 H   0  0  0  0  0  0  0  0  0  0  0  0
    2.9438    0.7468    0.0000 H   0  0  0  0  0  0  0  0  0  0  0  0
    2.9232    1.8166    0.0000 H   0  0  0  0  0  0  0  0  0  0  0  0
    3.5650    2.4353    0.0000 H   0  0  0  0  0  0  0  0  0  0  0  0
    3.0500    4.2194    0.0000 H   0  0  0  0  0  0  0  0  0  0  0  0
    1.3463    4.6889    0.0000 H   0  0  0  0  0  0  0  0  0  0  0  0
   -0.5348    4.0941    0.0000 H   0  0  0  0  0  0  0  0  0  0  0  0
   -1.0519    3.1573    0.0000 H   0  0  0  0  0  0  0  0  0  0  0  0
   -2.0240    2.5466    0.0000 H   0  0  0  0  0  0  0  0  0  0  0  0
   -2.0034    1.4768    0.0000 H   0  0  0  0  0  0  0  0  0  0  0  0
   -1.9875    0.6518    0.0000 H   0  0  0  0  0  0  0  0  0  0  0  0
   -1.0507    0.1348    0.0000 H   0  0  0  0  0  0  0  0  0  0  0  0
   -1.2323    1.9890    0.0000 H   0  0  0  0  0  0  0  0  0  0  0  0
   -2.0249    1.7602    0.0000 H   0  0  0  0  0  0  0  0  0  0  0  0
   -2.7959    2.5021    0.0000 H   0  0  0  0  0  0  0  0  0  0  0  0
   -2.1054    4.4096    0.0000 H   0  0  0  0  0  0  0  0  0  0  0  0
   -3.1334    4.1128    0.0000 H   0  0  0  0  0  0  0  0  0  0  0  0
   -3.5131    4.6698    0.0000 H   0  0  0  0  0  0  0  0  0  0  0  0
   -4.7991    2.4466    0.0000 H   0  0  0  0  0  0  0  0  0  0  0  0
   -5.5701    3.1885    0.0000 H   0  0  0  0  0  0  0  0  0  0  0  0
   -5.3936    3.0186    0.0000 H   0  0  0  0  0  0  0  0  0  0  0  0
   -6.6282    4.5011    0.0000 H   0  0  0  0  0  0  0  0  0  0  0  0
   -3.9105    5.1550    0.0000 H   0  0  0  0  0  0  0  0  0  0  0  0
   -4.6815    5.8969    0.0000 H   0  0  0  0  0  0  0  0  0  0  0  0
   -5.2999    6.3718    0.0000 H   0  0  0  0  0  0  0  0  0  0  0  0
    0.8671   -0.0311    0.0000 H   0  0  0  0  0  0  0  0  0  0  0  0
    0.6689   -0.8320    0.0000 H   0  0  0  0  0  0  0  0  0  0  0  0
    1.4399   -1.5739    0.0000 H   0  0  0  0  0  0  0  0  0  0  0  0
    3.3194   -0.8104    0.0000 H   0  0  0  0  0  0  0  0  0  0  0  0
    3.0625   -1.8491    0.0000 H   0  0  0  0  0  0  0  0  0  0  0  0
    3.6336   -2.2070    0.0000 H   0  0  0  0  0  0  0  0  0  0  0  0
    1.4616   -3.5778    0.0000 H   0  0  0  0  0  0  0  0  0  0  0  0
    2.2326   -4.3197    0.0000 H   0  0  0  0  0  0  0  0  0  0  0  0
    3.3410   -2.8143    0.0000 H   0  0  0  0  0  0  0  0  0  0  0  0
    4.5756   -4.2968    0.0000 H   0  0  0  0  0  0  0  0  0  0  0  0
    1.8579   -4.9506    0.0000 H   0  0  0  0  0  0  0  0  0  0  0  0
    2.6289   -5.6925    0.0000 H   0  0  0  0  0  0  0  0  0  0  0  0
    3.2474   -6.1675    0.0000 H   0  0  0  0  0  0  0  0  0  0  0  0
  2  3  1  0  0  0  0
  2 59  1  0  0  0  0
  3  4  1  0  0  0  0
  3 60  1  0  0  0  0
  3 61  1  0  0  0  0
  4  5  1  0  0  0  0
  4  6  1  0  0  0  0
  4 62  1  0  0  0  0
  5 63  1  0  0  0  0
  6  7  1  0  0  0  0
  6 64  1  0  0  0  0
  6 65  1  0  0  0  0
  7  8  1  0  0  0  0
  7 66  1  0  0  0  0
  8  9  2  0  0  0  0
  8 10  1  0  0  0  0
 10 11  1  0  0  0  0
 10 67  1  0  0  0  0
 10 68  1  0  0  0  0
 11 12  1  0  0  0  0
 11 69  1  0  0  0  0
 11 70  1  0  0  0  0
 12 13  1  0  0  0  0
 12 56  1  0  0  0  0
 12 71  1  0  0  0  0
 13 14  1  0  0  0  0
 13 26  1  0  0  0  0
 14 15  1  0  0  0  0
 14 72  1  0  0  0  0
 14 73  1  0  0  0  0
 15 16  1  0  0  0  0
 15 74  1  0  0  0  0
 15 75  1  0  0  0  0
 16 17  1  0  0  0  0
 16 42  1  0  0  0  0
 17 18  1  0  0  0  0
 17 76  1  0  0  0  0
 17 77  1  0  0  0  0
 18 19  2  0  0  0  0
 18 41  1  0  0  0  0
 19 20  1  0  0  0  0
 19 78  1  0  0  0  0
 20 21  2  0  0  0  0
 20 79  1  0  0  0  0
 21 22  1  0  0  0  0
 21 80  1  0  0  0  0
 22 23  1  0  0  0  0
 22 41  2  0  0  0  0
 23 24  1  0  0  0  0
 23 81  1  0  0  0  0
 23 82  1  0  0  0  0
 24 25  1  0  0  0  0
 24 27  1  0  0  0  0
 25 26  1  0  0  0  0
 25 83  1  0  0  0  0
 25 84  1  0  0  0  0
 26 85  1  0  0  0  0
 26 86  1  0  0  0  0
 27 28  1  0  0  0  0
 27 38  1  0  0  0  0
 27 87  1  0  0  0  0
 28 29  1  0  0  0  0
 28 88  1  0  0  0  0
 28 89  1  0  0  0  0
 29 30  1  0  0  0  0
 29 90  1  0  0  0  0
 29 91  1  0  0  0  0
 30 31  2  0  0  0  0
 30 32  1  0  0  0  0
 32 33  1  0  0  0  0
 32 92  1  0  0  0  0
 33 34  1  0  0  0  0
 33 93  1  0  0  0  0
 33 94  1  0  0  0  0
 34 35  1  0  0  0  0
 34 36  1  0  0  0  0
 34 95  1  0  0  0  0
 35 96  1  0  0  0  0
 36 37  1  0  0  0  0
 36 97  1  0  0  0  0
 36 98  1  0  0  0  0
 37 99  1  0  0  0  0
 38 39  1  0  0  0  0
 38 40  2  0  0  0  0
 42 43  1  0  0  0  0
 42 53  1  0  0  0  0
 42100  1  0  0  0  0
 43 44  1  0  0  0  0
 43101  1  0  0  0  0
 43102  1  0  0  0  0
 44 45  1  0  0  0  0
 44103  1  0  0  0  0
 44104  1  0  0  0  0
 45 46  2  0  0  0  0
 45 47  1  0  0  0  0
 47 48  1  0  0  0  0
 47105  1  0  0  0  0
 48 49  1  0  0  0  0
 48106  1  0  0  0  0
 48107  1  0  0  0  0
 49 50  1  0  0  0  0
 49 51  1  0  0  0  0
 49108  1  0  0  0  0
 50109  1  0  0  0  0
 51 52  1  0  0  0  0
 51110  1  0  0  0  0
 51111  1  0  0  0  0
 52112  1  0  0  0  0
 53 54  1  0  0  0  0
 53 55  2  0  0  0  0
 56 57  1  0  0  0  0
 56 58  2  0  0  0  0
M  CHG  4   1   3  39  -1  54  -1  57  -1
M  END
>  <DRUGBANK_ID>
DB17084

>  <COMMON_NAME>
Gadopiclenol

>  <CAS_NUMBER>
933983-75-6

>  <UNII>
S276568KOY

>  <SYNONYMS>
(.alpha.3,.alpha.6,.alpha.9-tris(3-((2,3-dihydroxypropyl)amino)-3-oxopropyl)-3,6,9,15-tetraazabicyclo(9.3.1)pentadeca-1(15),11,13-triene-3,6,9-triacetato(3-)-.kappa.n3,.kappa.n6,.kappa.n9,.kappa.n15,.kappa.o3,.kappa.o6,.kappa.o9)gadolinium; 2-[3,9-bis[1-carboxylato-4-(2,3-dihydroxypropylamino)-4-oxobutyl]-3,6,9,15-tetrazabicyclo[9.3.1]pentadeca-1(15),11,13-trien-6-yl]-5-(2,3-dihydroxypropylamino)-5-oxopentanoate;gadolinium(3+)

$$$$
