A25
 OpenBabel10282417072D

 41 43  0  0  0  0  0  0  0  0999 V2000
    0.3404   -2.1879    0.0000 C   0  0  0  0  0  0  0  0  0  0  0  0
   -0.3953   -1.8147    0.0000 C   0  0  0  0  0  0  0  0  0  0  0  0
   -0.4400   -0.9909    0.0000 C   0  0  0  0  0  0  0  0  0  0  0  0
    0.2511   -0.5403    0.0000 C   0  0  0  0  0  0  0  0  0  0  0  0
    0.9869   -0.9136    0.0000 C   0  0  0  0  0  0  0  0  0  0  0  0
    1.0316   -1.7373    0.0000 C   0  0  0  0  0  0  0  0  0  0  0  0
    1.6780   -0.4629    0.0000 Cl  0  0  0  0  0  0  0  0  0  0  0  0
    0.1633   -2.4219    0.0000 O   0  0  0  0  0  0  0  0  0  0  0  0
   -0.2415   -3.1408    0.0000 C   0  0  0  0  0  0  0  0  0  0  0  0
   -1.1632   -0.5084    0.0000 N   0  0  0  0  0  0  0  0  0  0  0  0
   -1.8732   -0.9286    0.0000 C   0  0  0  0  0  0  0  0  0  0  0  0
   -2.5921   -0.5237    0.0000 N   0  0  0  0  0  0  0  0  0  0  0  0
   -1.8643   -1.7536    0.0000 O   0  0  0  0  0  0  0  0  0  0  0  0
   -3.3021   -0.9440    0.0000 C   0  0  0  0  0  0  0  0  0  0  0  0
   -3.2933   -1.7689    0.0000 N   0  0  0  0  0  0  0  0  0  0  0  0
   -4.0034   -2.1891    0.0000 C   0  0  0  0  0  0  0  0  0  0  0  0
   -4.7222   -1.7843    0.0000 C   0  0  0  0  0  0  0  0  0  0  0  0
   -4.7311   -0.9594    0.0000 N   0  0  0  0  0  0  0  0  0  0  0  0
   -4.0211   -0.5391    0.0000 C   0  0  0  0  0  0  0  0  0  0  0  0
   -3.9945   -3.0141    0.0000 O   0  0  0  0  0  0  0  0  0  0  0  0
   -3.2755   -3.4189    0.0000 C   0  0  0  0  0  0  0  0  0  0  0  0
   -2.5655   -2.9988    0.0000 C   0  0  0  0  0  0  0  0  0  0  0  0
   -1.0504   -2.9780    0.0000 C   0  0  0  0  0  0  0  0  0  0  0  0
   -1.8466   -3.4036    0.0000 C   0  0  0  0  0  0  0  0  0  0  0  0
    0.3962   -3.2184    0.0000 H   0  0  0  0  0  0  0  0  0  0  0  0
    0.1953    0.4902    0.0000 H   0  0  0  0  0  0  0  0  0  0  0  0
    1.9520   -2.2042    0.0000 H   0  0  0  0  0  0  0  0  0  0  0  0
    0.2042   -4.1135    0.0000 H   0  0  0  0  0  0  0  0  0  0  0  0
   -0.9058   -3.9796    0.0000 H   0  0  0  0  0  0  0  0  0  0  0  0
   -1.1366    0.4757    0.0000 H   0  0  0  0  0  0  0  0  0  0  0  0
   -2.6027    0.4607    0.0000 H   0  0  0  0  0  0  0  0  0  0  0  0
   -5.6103   -2.3099    0.0000 H   0  0  0  0  0  0  0  0  0  0  0  0
   -4.0323    0.4928    0.0000 H   0  0  0  0  0  0  0  0  0  0  0  0
   -3.2640   -4.4888    0.0000 H   0  0  0  0  0  0  0  0  0  0  0  0
   -2.3432   -3.9439    0.0000 H   0  0  0  0  0  0  0  0  0  0  0  0
   -2.5770   -1.9289    0.0000 H   0  0  0  0  0  0  0  0  0  0  0  0
   -1.6447   -2.4539    0.0000 H   0  0  0  0  0  0  0  0  0  0  0  0
   -1.2062   -1.9194    0.0000 H   0  0  0  0  0  0  0  0  0  0  0  0
   -2.0059   -2.4964    0.0000 H   0  0  0  0  0  0  0  0  0  0  0  0
   -1.8583   -4.4735    0.0000 H   0  0  0  0  0  0  0  0  0  0  0  0
   -0.9319   -3.9587    0.0000 H   0  0  0  0  0  0  0  0  0  0  0  0
  1  2  1  0  0  0  0
  1  6  2  0  0  0  0
  1 25  1  0  0  0  0
  2  8  1  0  0  0  0
  2  3  2  0  0  0  0
  3  4  1  0  0  0  0
  3 10  1  0  0  0  0
  4  5  2  0  0  0  0
  4 26  1  0  0  0  0
  5  6  1  0  0  0  0
  5  7  1  0  0  0  0
  6 27  1  0  0  0  0
  8  9  1  0  0  0  0
  9 23  1  0  0  0  0
  9 28  1  0  0  0  0
  9 29  1  0  0  0  0
 10 11  1  0  0  0  0
 10 30  1  0  0  0  0
 11 13  2  0  0  0  0
 11 12  1  0  0  0  0
 12 14  1  0  0  0  0
 12 31  1  0  0  0  0
 14 19  1  0  0  0  0
 14 15  2  0  0  0  0
 15 16  1  0  0  0  0
 16 17  2  0  0  0  0
 16 20  1  0  0  0  0
 17 18  1  0  0  0  0
 17 32  1  0  0  0  0
 18 19  2  0  0  0  0
 19 33  1  0  0  0  0
 20 21  1  0  0  0  0
 21 22  1  0  0  0  0
 21 34  1  0  0  0  0
 21 35  1  0  0  0  0
 22 24  1  0  0  0  0
 22 36  1  0  0  0  0
 22 37  1  0  0  0  0
 23 24  1  0  0  0  0
 23 38  1  0  0  0  0
 23 39  1  0  0  0  0
 24 40  1  0  0  0  0
 24 41  1  0  0  0  0
M  END
>  <DRUGBANK_ID>
DB07311

>  <COMMON_NAME>
18-CHLORO-11,12,13,14-TETRAHYDRO-1H,10H-8,4-(AZENO)-9,15,1,3,6-BENZODIOXATRIAZACYCLOHEPTADECIN-2-ONE

$$$$
