474
 OpenBabel10282417072D

 62 65  0  0  0  0  0  0  0  0999 V2000
   -0.3256   -0.7389    0.0000 C   0  0  1  0  0  0  0  0  0  0  0  0
   -1.1506   -0.7389    0.0000 C   0  0  1  0  0  0  0  0  0  0  0  0
   -1.5631   -1.4534    0.0000 C   0  0  0  0  0  0  0  0  0  0  0  0
   -2.3881   -1.4534    0.0000 N   0  0  0  0  0  0  0  0  0  0  0  0
    0.0869   -1.4534    0.0000 C   0  0  0  0  0  0  0  0  0  0  0  0
   -1.5631   -0.0244    0.0000 N   0  0  0  0  0  0  0  0  0  0  0  0
   -1.1506   -2.1679    0.0000 O   0  0  0  0  0  0  0  0  0  0  0  0
   -0.3256   -2.1679    0.0000 O   0  0  0  0  0  0  0  0  0  0  0  0
    0.9119   -1.4534    0.0000 N   0  0  0  0  0  0  0  0  0  0  0  0
    1.3244   -0.7389    0.0000 C   0  0  0  0  0  0  0  0  0  0  0  0
    1.3244   -2.1679    0.0000 C   0  0  0  0  0  0  0  0  0  0  0  0
   -2.8730   -0.7859    0.0000 C   0  0  0  0  0  0  0  0  0  0  0  0
   -3.6576   -1.0409    0.0000 C   0  0  0  0  0  0  0  0  0  0  0  0
   -3.6576   -1.8659    0.0000 C   0  0  0  0  0  0  0  0  0  0  0  0
   -2.8730   -2.1208    0.0000 C   0  0  0  0  0  0  0  0  0  0  0  0
   -4.4772   -0.9461    0.0000 F   0  0  0  0  0  0  0  0  0  0  0  0
    0.9119    1.4045    0.0000 C   0  0  1  0  0  0  0  0  0  0  0  0
    1.3244    0.6900    0.0000 C   0  0  0  0  0  0  0  0  0  0  0  0
    0.9119   -0.0244    0.0000 C   0  0  0  0  0  0  0  0  0  0  0  0
    0.0869   -0.0244    0.0000 C   0  0  1  0  0  0  0  0  0  0  0  0
   -0.3256    0.6900    0.0000 C   0  0  0  0  0  0  0  0  0  0  0  0
    0.0869    1.4045    0.0000 C   0  0  0  0  0  0  0  0  0  0  0  0
    2.1494    3.5479    0.0000 C   0  0  0  0  0  0  0  0  0  0  0  0
    1.3244    3.5479    0.0000 C   0  0  0  0  0  0  0  0  0  0  0  0
    0.9119    2.8334    0.0000 C   0  0  0  0  0  0  0  0  0  0  0  0
    1.3244    2.1190    0.0000 C   0  0  0  0  0  0  0  0  0  0  0  0
    2.1494    2.1190    0.0000 C   0  0  0  0  0  0  0  0  0  0  0  0
    2.5619    2.8334    0.0000 N   0  0  0  0  0  0  0  0  0  0  0  0
    3.3689    3.0050    0.0000 N   0  0  0  0  0  0  0  0  0  0  0  0
    3.4551    3.8254    0.0000 C   0  0  0  0  0  0  0  0  0  0  0  0
    2.7014    4.1610    0.0000 N   0  0  0  0  0  0  0  0  0  0  0  0
   -4.0011   -0.2908    0.0000 F   0  0  0  0  0  0  0  0  0  0  0  0
   -0.8586   -0.2332    0.0000 H   0  0  0  0  0  0  0  0  0  0  0  0
   -0.6175   -1.2446    0.0000 H   0  0  0  0  0  0  0  0  0  0  0  0
    0.3789   -0.5301    0.0000 H   0  0  0  0  0  0  0  0  0  0  0  0
    1.4958    1.4045    0.0000 H   0  0  0  0  0  0  0  0  0  0  0  0
   -1.0531    0.8589    0.0000 H   0  0  0  0  0  0  0  0  0  0  0  0
   -2.5831   -0.0244    0.0000 H   0  0  0  0  0  0  0  0  0  0  0  0
    2.3944   -0.7389    0.0000 H   0  0  0  0  0  0  0  0  0  0  0  0
    0.7894    0.1877    0.0000 H   0  0  0  0  0  0  0  0  0  0  0  0
    1.8594    0.1878    0.0000 H   0  0  0  0  0  0  0  0  0  0  0  0
    0.7894   -3.0945    0.0000 H   0  0  0  0  0  0  0  0  0  0  0  0
    2.3944   -2.1679    0.0000 H   0  0  0  0  0  0  0  0  0  0  0  0
    1.8594   -3.0946    0.0000 H   0  0  0  0  0  0  0  0  0  0  0  0
   -2.5424    0.2317    0.0000 H   0  0  0  0  0  0  0  0  0  0  0  0
   -3.6296   -0.0293    0.0000 H   0  0  0  0  0  0  0  0  0  0  0  0
   -4.5232   -2.4948    0.0000 H   0  0  0  0  0  0  0  0  0  0  0  0
   -3.4902   -2.9227    0.0000 H   0  0  0  0  0  0  0  0  0  0  0  0
   -2.5423   -3.1384    0.0000 H   0  0  0  0  0  0  0  0  0  0  0  0
   -3.6296   -2.8774    0.0000 H   0  0  0  0  0  0  0  0  0  0  0  0
    2.3944    0.6900    0.0000 H   0  0  0  0  0  0  0  0  0  0  0  0
    1.8594   -0.2367    0.0000 H   0  0  0  0  0  0  0  0  0  0  0  0
    1.4469   -0.9511    0.0000 H   0  0  0  0  0  0  0  0  0  0  0  0
    0.3769   -0.9510    0.0000 H   0  0  0  0  0  0  0  0  0  0  0  0
   -1.3956    0.6900    0.0000 H   0  0  0  0  0  0  0  0  0  0  0  0
   -0.8606    1.6166    0.0000 H   0  0  0  0  0  0  0  0  0  0  0  0
   -0.4481    2.3311    0.0000 H   0  0  0  0  0  0  0  0  0  0  0  0
   -0.9831    1.4045    0.0000 H   0  0  0  0  0  0  0  0  0  0  0  0
    0.8084    4.4416    0.0000 H   0  0  0  0  0  0  0  0  0  0  0  0
   -0.1201    2.8334    0.0000 H   0  0  0  0  0  0  0  0  0  0  0  0
    2.6654    1.2253    0.0000 H   0  0  0  0  0  0  0  0  0  0  0  0
    4.3488    4.3414    0.0000 H   0  0  0  0  0  0  0  0  0  0  0  0
  1  2  1  0  0  0  0
  1 34  1  1  0  0  0
  1  5  1  0  0  0  0
  2  6  1  0  0  0  0
  2 33  1  6  0  0  0
  2  3  1  0  0  0  0
  3  7  2  0  0  0  0
  3  4  1  0  0  0  0
  4 15  1  0  0  0  0
  4 12  1  0  0  0  0
  5  8  2  0  0  0  0
  5  9  1  0  0  0  0
  6 37  1  0  0  0  0
  6 38  1  0  0  0  0
  9 10  1  0  0  0  0
  9 11  1  0  0  0  0
 10 39  1  0  0  0  0
 10 40  1  0  0  0  0
 10 41  1  0  0  0  0
 11 42  1  0  0  0  0
 11 43  1  0  0  0  0
 11 44  1  0  0  0  0
 12 13  1  0  0  0  0
 12 45  1  0  0  0  0
 12 46  1  0  0  0  0
 13 14  1  0  0  0  0
 13 32  1  0  0  0  0
 13 16  1  0  0  0  0
 14 15  1  0  0  0  0
 14 47  1  0  0  0  0
 14 48  1  0  0  0  0
 15 49  1  0  0  0  0
 15 50  1  0  0  0  0
 17 18  1  0  0  0  0
 17 36  1  6  0  0  0
 17 26  1  0  0  0  0
 17 22  1  0  0  0  0
 18 19  1  0  0  0  0
 18 51  1  0  0  0  0
 18 52  1  0  0  0  0
 19 20  1  0  0  0  0
 19 53  1  0  0  0  0
 19 54  1  0  0  0  0
 20  1  1  0  0  0  0
 20 35  1  1  0  0  0
 20 21  1  0  0  0  0
 21 22  1  0  0  0  0
 21 55  1  0  0  0  0
 21 56  1  0  0  0  0
 22 57  1  0  0  0  0
 22 58  1  0  0  0  0
 23 28  1  0  0  0  0
 23 31  2  0  0  0  0
 23 24  1  0  0  0  0
 24 25  2  0  0  0  0
 24 59  1  0  0  0  0
 25 26  1  0  0  0  0
 25 60  1  0  0  0  0
 26 27  2  0  0  0  0
 27 28  1  0  0  0  0
 27 61  1  0  0  0  0
 28 29  1  0  0  0  0
 29 30  2  0  0  0  0
 30 31  1  0  0  0  0
 30 62  1  0  0  0  0
M  END
>  <DRUGBANK_ID>
DB07092

>  <COMMON_NAME>
(2S,3S)-3-AMINO-4-(3,3-DIFLUOROPYRROLIDIN-1-YL)-N,N-DIMETHYL-4-OXO-2-(TRANS-4-[1,2,4]TRIAZOLO[1,5-A]PYRIDIN-6-YLCYCLOHEXYL)BUTANAMIDE

$$$$
