
 OpenBabel10282417072D

 48 50  0  0  1  0  0  0  0  0999 V2000
   -1.6277   -0.0004    0.0000 C   0  0  0  0  0  0  0  0  0  0  0  0
   -2.3422    0.4120    0.0000 C   0  0  0  0  0  0  0  0  0  0  0  0
   -3.0567   -0.0004    0.0000 C   0  0  0  0  0  0  0  0  0  0  0  0
   -3.0567   -0.8255    0.0000 C   0  0  0  0  0  0  0  0  0  0  0  0
   -2.3422   -1.2380    0.0000 C   0  0  0  0  0  0  0  0  0  0  0  0
   -1.6277   -0.8255    0.0000 C   0  0  0  0  0  0  0  0  0  0  0  0
   -0.9132    0.4120    0.0000 C   0  0  0  0  0  0  0  0  0  0  0  0
   -0.1988   -0.0004    0.0000 C   0  0  3  0  0  0  0  0  0  0  0  0
   -0.1988   -0.8255    0.0000 C   0  0  3  0  0  0  0  0  0  0  0  0
   -0.9133   -1.2380    0.0000 C   0  0  3  0  0  0  0  0  0  0  0  0
    1.3113    0.0583    0.0000 N   0  0  0  0  0  0  0  0  0  0  0  0
    2.0479   -1.2086    0.0000 C   0  0  0  0  0  0  0  0  0  0  0  0
    0.8988   -2.2103    0.0000 C   0  0  0  0  0  0  0  0  0  0  0  0
    0.5156   -1.2380    0.0000 C   0  0  0  0  0  0  0  0  0  0  0  0
   -1.3146   -1.9588    0.0000 C   0  0  0  0  0  0  0  0  0  0  0  0
    1.7087    0.7814    0.0000 C   0  0  0  0  0  0  0  0  0  0  0  0
    2.5337    0.7814    0.0000 C   0  0  0  0  0  0  0  0  0  0  0  0
    2.9462    1.4959    0.0000 C   0  0  0  0  0  0  0  0  0  0  0  0
    3.7712    1.4959    0.0000 C   0  0  0  0  0  0  0  0  0  0  0  0
    2.5337    2.2103    0.0000 C   0  0  0  0  0  0  0  0  0  0  0  0
   -3.7712   -1.2380    0.0000 O   0  0  0  0  0  0  0  0  0  0  0  0
   -2.3422    1.4440    0.0000 H   0  0  0  0  0  0  0  0  0  0  0  0
   -3.9504    0.5157    0.0000 H   0  0  0  0  0  0  0  0  0  0  0  0
   -2.3422   -2.2700    0.0000 H   0  0  0  0  0  0  0  0  0  0  0  0
   -0.9132    1.4820    0.0000 H   0  0  0  0  0  0  0  0  0  0  0  0
    0.0134    0.9470    0.0000 H   0  0  0  0  0  0  0  0  0  0  0  0
   -1.1254   -0.5354    0.0000 H   0  0  0  0  0  0  0  0  0  0  0  0
   -1.1254   -0.2905    0.0000 H   0  0  0  0  0  0  0  0  0  0  0  0
    3.1036   -1.3829    0.0000 H   0  0  0  0  0  0  0  0  0  0  0  0
    2.6555   -0.3278    0.0000 H   0  0  0  0  0  0  0  0  0  0  0  0
    1.0187   -3.2736    0.0000 H   0  0  0  0  0  0  0  0  0  0  0  0
    1.8961   -2.5980    0.0000 H   0  0  0  0  0  0  0  0  0  0  0  0
    0.5156   -2.3080    0.0000 H   0  0  0  0  0  0  0  0  0  0  0  0
    1.4423   -0.7030    0.0000 H   0  0  0  0  0  0  0  0  0  0  0  0
    1.4422   -1.7730    0.0000 H   0  0  0  0  0  0  0  0  0  0  0  0
   -2.3845   -1.9755    0.0000 H   0  0  0  0  0  0  0  0  0  0  0  0
   -0.7652   -2.8770    0.0000 H   0  0  0  0  0  0  0  0  0  0  0  0
   -1.8351   -2.8937    0.0000 H   0  0  0  0  0  0  0  0  0  0  0  0
    1.1640    1.7024    0.0000 H   0  0  0  0  0  0  0  0  0  0  0  0
    2.2388    1.7109    0.0000 H   0  0  0  0  0  0  0  0  0  0  0  0
    3.0497   -0.1123    0.0000 H   0  0  0  0  0  0  0  0  0  0  0  0
    4.3062    0.5693    0.0000 H   0  0  0  0  0  0  0  0  0  0  0  0
    4.3062    2.4225    0.0000 H   0  0  0  0  0  0  0  0  0  0  0  0
    4.8412    1.4959    0.0000 H   0  0  0  0  0  0  0  0  0  0  0  0
    3.0687    3.1370    0.0000 H   0  0  0  0  0  0  0  0  0  0  0  0
    1.4637    2.2103    0.0000 H   0  0  0  0  0  0  0  0  0  0  0  0
    1.9987    3.1369    0.0000 H   0  0  0  0  0  0  0  0  0  0  0  0
   -4.5827   -0.7695    0.0000 H   0  0  0  0  0  0  0  0  0  0  0  0
  1  2  1  0  0  0  0
  1  7  1  0  0  0  0
  2  3  2  0  0  0  0
  2 22  1  0  0  0  0
  3  4  1  0  0  0  0
  3 23  1  0  0  0  0
  4  5  2  0  0  0  0
  4 21  1  0  0  0  0
  5  6  1  0  0  0  0
  5 24  1  0  0  0  0
  6  1  2  0  0  0  0
  7  8  1  0  0  0  0
  7 25  1  0  0  0  0
  7 26  1  0  0  0  0
  8  9  1  0  0  0  0
  8 11  1  0  0  0  0
  8 27  1  0  0  0  0
  9 10  1  0  0  0  0
  9 14  1  0  0  0  0
  9 28  1  0  0  0  0
 10  6  1  0  0  0  0
 10 13  1  0  0  0  0
 10 15  1  0  0  0  0
 11 16  1  0  0  0  0
 12 11  1  0  0  0  0
 12 29  1  0  0  0  0
 12 30  1  0  0  0  0
 13 12  1  0  0  0  0
 13 31  1  0  0  0  0
 13 32  1  0  0  0  0
 14 33  1  0  0  0  0
 14 34  1  0  0  0  0
 14 35  1  0  0  0  0
 15 36  1  0  0  0  0
 15 37  1  0  0  0  0
 15 38  1  0  0  0  0
 16 17  1  0  0  0  0
 16 39  1  0  0  0  0
 16 40  1  0  0  0  0
 17 18  2  0  0  0  0
 17 41  1  0  0  0  0
 18 19  1  0  0  0  0
 18 20  1  0  0  0  0
 19 42  1  0  0  0  0
 19 43  1  0  0  0  0
 19 44  1  0  0  0  0
 20 45  1  0  0  0  0
 20 46  1  0  0  0  0
 20 47  1  0  0  0  0
 21 48  1  0  0  0  0
M  END
>  <DRUGBANK_ID>
DB00652

>  <SECONDARY_ACCESSION_NUMBERS>
APRD01173

>  <COMMON_NAME>
Pentazocine

>  <CAS_NUMBER>
359-83-1

>  <UNII>
RP4A60D26L

>  <SYNONYMS>
Pentazocin; Pentazocina; Pentazocine; Pentazocinum

$$$$
