
 OpenBabel10282417072D

 54 55  0  0  1  0  0  0  0  0999 V2000
    0.3323   -4.5956    0.0000 C   0  0  0  0  0  0  0  0  0  0  0  0
    1.0468   -4.1831    0.0000 C   0  0  0  0  0  0  0  0  0  0  0  0
    1.0468   -3.3581    0.0000 C   0  0  0  0  0  0  0  0  0  0  0  0
    1.7613   -4.5956    0.0000 C   0  0  0  0  0  0  0  0  0  0  0  0
    1.7613   -5.4206    0.0000 O   0  0  0  0  0  0  0  0  0  0  0  0
    2.4757   -4.1831    0.0000 O   0  0  0  0  0  0  0  0  0  0  0  0
    3.1902   -4.5956    0.0000 C   0  0  0  0  0  0  0  0  0  0  0  0
    3.9047   -4.1831    0.0000 C   0  0  2  0  0  0  0  0  0  0  0  0
    3.9909   -3.3626    0.0000 C   0  0  2  0  0  0  0  0  0  0  0  0
    4.7979   -3.1911    0.0000 C   0  0  1  0  0  0  0  0  0  0  0  0
    5.2104   -3.9056    0.0000 C   0  0  1  0  0  0  0  0  0  0  0  0
    4.6583   -4.5187    0.0000 O   0  0  0  0  0  0  0  0  0  0  0  0
    6.0309   -3.9918    0.0000 N   0  0  0  0  0  0  0  0  0  0  0  0
    6.5158   -3.3244    0.0000 C   0  0  0  0  0  0  0  0  0  0  0  0
    7.3363   -3.4106    0.0000 C   0  0  0  0  0  0  0  0  0  0  0  0
    7.6718   -4.1643    0.0000 C   0  0  0  0  0  0  0  0  0  0  0  0
    7.1869   -4.8317    0.0000 N   0  0  0  0  0  0  0  0  0  0  0  0
    6.3664   -4.7455    0.0000 C   0  0  0  0  0  0  0  0  0  0  0  0
    5.8815   -5.4129    0.0000 O   0  0  0  0  0  0  0  0  0  0  0  0
    8.4923   -4.2505    0.0000 N   0  0  0  0  0  0  0  0  0  0  0  0
    4.7202   -2.3698    0.0000 C   0  0  0  0  0  0  0  0  0  0  0  0
    5.4602   -2.6992    0.0000 F   0  0  0  0  0  0  0  0  0  0  0  0
    3.3778   -2.8106    0.0000 O   0  0  0  0  0  0  0  0  0  0  0  0
    3.5493   -2.0036    0.0000 C   0  0  0  0  0  0  0  0  0  0  0  0
    4.3340   -1.7487    0.0000 O   0  0  0  0  0  0  0  0  0  0  0  0
    2.9362   -1.4516    0.0000 C   0  0  0  0  0  0  0  0  0  0  0  0
    2.1516   -1.7065    0.0000 C   0  0  0  0  0  0  0  0  0  0  0  0
    3.1078   -0.6446    0.0000 C   0  0  0  0  0  0  0  0  0  0  0  0
   -0.5943   -4.0606    0.0000 H   0  0  0  0  0  0  0  0  0  0  0  0
    0.3323   -5.6656    0.0000 H   0  0  0  0  0  0  0  0  0  0  0  0
   -0.5944   -5.1306    0.0000 H   0  0  0  0  0  0  0  0  0  0  0  0
    1.9734   -3.6481    0.0000 H   0  0  0  0  0  0  0  0  0  0  0  0
    1.9734   -2.8231    0.0000 H   0  0  0  0  0  0  0  0  0  0  0  0
    0.1202   -2.8231    0.0000 H   0  0  0  0  0  0  0  0  0  0  0  0
    1.0468   -2.2881    0.0000 H   0  0  0  0  0  0  0  0  0  0  0  0
    3.1902   -5.6656    0.0000 H   0  0  0  0  0  0  0  0  0  0  0  0
    4.1168   -5.1306    0.0000 H   0  0  0  0  0  0  0  0  0  0  0  0
    3.0073   -3.6003    0.0000 H   0  0  0  0  0  0  0  0  0  0  0  0
    2.9920   -3.7461    0.0000 H   0  0  0  0  0  0  0  0  0  0  0  0
    5.7932   -3.0082    0.0000 H   0  0  0  0  0  0  0  0  0  0  0  0
    6.0960   -2.3816    0.0000 H   0  0  0  0  0  0  0  0  0  0  0  0
    7.9429   -2.5757    0.0000 H   0  0  0  0  0  0  0  0  0  0  0  0
    8.8928   -5.1499    0.0000 H   0  0  0  0  0  0  0  0  0  0  0  0
    9.0709   -3.4540    0.0000 H   0  0  0  0  0  0  0  0  0  0  0  0
    5.5923   -1.7499    0.0000 H   0  0  0  0  0  0  0  0  0  0  0  0
    3.7473   -1.9245    0.0000 H   0  0  0  0  0  0  0  0  0  0  0  0
    4.6194   -1.3046    0.0000 H   0  0  0  0  0  0  0  0  0  0  0  0
    2.1411   -0.7356    0.0000 H   0  0  0  0  0  0  0  0  0  0  0  0
    1.3565   -0.9905    0.0000 H   0  0  0  0  0  0  0  0  0  0  0  0
    1.9291   -2.7531    0.0000 H   0  0  0  0  0  0  0  0  0  0  0  0
    1.1340   -2.0371    0.0000 H   0  0  0  0  0  0  0  0  0  0  0  0
    4.1255   -0.3140    0.0000 H   0  0  0  0  0  0  0  0  0  0  0  0
    2.3127    0.0714    0.0000 H   0  0  0  0  0  0  0  0  0  0  0  0
    3.3303    0.4020    0.0000 H   0  0  0  0  0  0  0  0  0  0  0  0
  1  2  1  0  0  0  0
  1 29  1  0  0  0  0
  1 30  1  0  0  0  0
  1 31  1  0  0  0  0
  2  3  1  0  0  0  0
  2  4  1  0  0  0  0
  2 32  1  0  0  0  0
  3 33  1  0  0  0  0
  3 34  1  0  0  0  0
  3 35  1  0  0  0  0
  4  5  2  0  0  0  0
  4  6  1  0  0  0  0
  6  7  1  0  0  0  0
  7 36  1  0  0  0  0
  7 37  1  0  0  0  0
  8  7  1  0  0  0  0
  8  9  1  0  0  0  0
  8 12  1  0  0  0  0
  8 38  1  1  0  0  0
  9 10  1  0  0  0  0
  9 23  1  0  0  0  0
  9 39  1  6  0  0  0
 10 11  1  0  0  0  0
 10 21  1  0  0  0  0
 10 22  1  1  0  0  0
 11 12  1  0  0  0  0
 11 13  1  0  0  0  0
 11 40  1  1  0  0  0
 13 14  1  0  0  0  0
 13 18  1  0  0  0  0
 14 15  2  0  0  0  0
 14 41  1  0  0  0  0
 15 16  1  0  0  0  0
 15 42  1  0  0  0  0
 16 17  2  0  0  0  0
 16 20  1  0  0  0  0
 17 18  1  0  0  0  0
 18 19  2  0  0  0  0
 20 43  1  0  0  0  0
 20 44  1  0  0  0  0
 21 45  1  0  0  0  0
 21 46  1  0  0  0  0
 21 47  1  0  0  0  0
 23 24  1  0  0  0  0
 24 25  2  0  0  0  0
 24 26  1  0  0  0  0
 26 27  1  0  0  0  0
 26 28  1  0  0  0  0
 26 48  1  0  0  0  0
 27 49  1  0  0  0  0
 27 50  1  0  0  0  0
 27 51  1  0  0  0  0
 28 52  1  0  0  0  0
 28 53  1  0  0  0  0
 28 54  1  0  0  0  0
M  END
>  <DRUGBANK_ID>
DB12045

>  <SECONDARY_ACCESSION_NUMBERS>
DB05193

>  <COMMON_NAME>
Mericitabine

>  <CAS_NUMBER>
940908-79-2

>  <UNII>
TA63JX8X52

>  <SYNONYMS>
Mericitabine

$$$$
