PB5
 OpenBabel10282417072D

 42 44  0  0  0  0  0  0  0  0999 V2000
   -0.2582    0.7521    0.0000 C   0  0  0  0  0  0  0  0  0  0  0  0
    0.4562    0.3396    0.0000 C   0  0  0  0  0  0  0  0  0  0  0  0
    0.4562   -0.4854    0.0000 C   0  0  0  0  0  0  0  0  0  0  0  0
   -0.9727    0.3396    0.0000 N   0  0  0  0  0  0  0  0  0  0  0  0
    1.1707   -0.8979    0.0000 C   0  0  0  0  0  0  0  0  0  0  0  0
    1.8852   -2.1354    0.0000 C   0  0  0  0  0  0  0  0  0  0  0  0
    1.8852   -2.9604    0.0000 C   0  0  0  0  0  0  0  0  0  0  0  0
   -0.2582    1.5771    0.0000 C   0  0  0  0  0  0  0  0  0  0  0  0
   -1.6872    4.0521    0.0000 C   0  0  0  0  0  0  0  0  0  0  0  0
   -3.1161    3.2271    0.0000 C   0  0  0  0  0  0  0  0  0  0  0  0
    2.5996   -3.3729    0.0000 C   0  0  0  0  0  0  0  0  0  0  0  0
    2.5996   -4.1979    0.0000 C   0  0  0  0  0  0  0  0  0  0  0  0
    1.8852   -4.6104    0.0000 C   0  0  0  0  0  0  0  0  0  0  0  0
    1.1707   -3.3729    0.0000 C   0  0  0  0  0  0  0  0  0  0  0  0
   -0.2582   -0.8979    0.0000 N   0  0  0  0  0  0  0  0  0  0  0  0
   -0.9727   -0.4854    0.0000 C   0  0  0  0  0  0  0  0  0  0  0  0
    1.1707   -1.7229    0.0000 N   0  0  0  0  0  0  0  0  0  0  0  0
   -0.9727    1.9896    0.0000 N   0  0  0  0  0  0  0  0  0  0  0  0
   -0.9727    2.8146    0.0000 C   0  0  0  0  0  0  0  0  0  0  0  0
   -1.6872    3.2271    0.0000 C   0  0  0  0  0  0  0  0  0  0  0  0
   -2.4017    4.4646    0.0000 N   0  0  0  0  0  0  0  0  0  0  0  0
   -3.1161    4.0521    0.0000 C   0  0  0  0  0  0  0  0  0  0  0  0
   -2.4017    2.8146    0.0000 C   0  0  0  0  0  0  0  0  0  0  0  0
    1.1707   -4.1979    0.0000 N   0  0  0  0  0  0  0  0  0  0  0  0
    0.4562    1.9896    0.0000 O   0  0  0  0  0  0  0  0  0  0  0  0
    1.8852   -0.4854    0.0000 O   0  0  0  0  0  0  0  0  0  0  0  0
    1.3499    0.8556    0.0000 H   0  0  0  0  0  0  0  0  0  0  0  0
    2.8118   -1.6004    0.0000 H   0  0  0  0  0  0  0  0  0  0  0  0
    1.8852   -1.0654    0.0000 H   0  0  0  0  0  0  0  0  0  0  0  0
   -0.7935    4.5681    0.0000 H   0  0  0  0  0  0  0  0  0  0  0  0
   -4.0098    2.7111    0.0000 H   0  0  0  0  0  0  0  0  0  0  0  0
    3.4933   -2.8569    0.0000 H   0  0  0  0  0  0  0  0  0  0  0  0
    3.4933   -4.7139    0.0000 H   0  0  0  0  0  0  0  0  0  0  0  0
    1.8852   -5.6424    0.0000 H   0  0  0  0  0  0  0  0  0  0  0  0
    0.2770   -2.8569    0.0000 H   0  0  0  0  0  0  0  0  0  0  0  0
   -1.8664   -1.0014    0.0000 H   0  0  0  0  0  0  0  0  0  0  0  0
    0.3181   -2.2152    0.0000 H   0  0  0  0  0  0  0  0  0  0  0  0
   -1.8253    1.4973    0.0000 H   0  0  0  0  0  0  0  0  0  0  0  0
   -0.0461    3.3496    0.0000 H   0  0  0  0  0  0  0  0  0  0  0  0
   -0.9727    3.8846    0.0000 H   0  0  0  0  0  0  0  0  0  0  0  0
   -4.0098    4.5681    0.0000 H   0  0  0  0  0  0  0  0  0  0  0  0
   -2.4017    1.7826    0.0000 H   0  0  0  0  0  0  0  0  0  0  0  0
  1  2  2  0  0  0  0
  1  4  1  0  0  0  0
  1  8  1  0  0  0  0
  2  3  1  0  0  0  0
  2 27  1  0  0  0  0
  3  5  1  0  0  0  0
  3 15  2  0  0  0  0
  4 16  2  0  0  0  0
  5 17  1  0  0  0  0
  5 26  2  0  0  0  0
  6  7  1  0  0  0  0
  6 17  1  0  0  0  0
  6 28  1  0  0  0  0
  6 29  1  0  0  0  0
  7 11  1  0  0  0  0
  7 14  2  0  0  0  0
  8 18  1  0  0  0  0
  8 25  2  0  0  0  0
  9 20  1  0  0  0  0
  9 21  2  0  0  0  0
  9 30  1  0  0  0  0
 10 22  2  0  0  0  0
 10 23  1  0  0  0  0
 10 31  1  0  0  0  0
 11 12  2  0  0  0  0
 11 32  1  0  0  0  0
 12 13  1  0  0  0  0
 12 33  1  0  0  0  0
 13 24  2  0  0  0  0
 13 34  1  0  0  0  0
 14 24  1  0  0  0  0
 14 35  1  0  0  0  0
 15 16  1  0  0  0  0
 16 36  1  0  0  0  0
 17 37  1  0  0  0  0
 18 19  1  0  0  0  0
 18 38  1  0  0  0  0
 19 20  1  0  0  0  0
 19 39  1  0  0  0  0
 19 40  1  0  0  0  0
 20 23  2  0  0  0  0
 21 22  1  0  0  0  0
 22 41  1  0  0  0  0
 23 42  1  0  0  0  0
M  END
>  <DRUGBANK_ID>
DB04761

>  <COMMON_NAME>
PYRIMIDINE-4,6-DICARBOXYLIC ACID BIS-[(PYRIDIN-3-YLMETHYL)-AMIDE]

$$$$
