
 OpenBabel10282417072D

 35 31  0  0  0  0  0  0  0  0999 V2000
   -3.9777   -5.3330    0.0000 Na  0  3  0  0  0  0  0  0  0  0  0  0
   -1.2670   -4.4491    0.0000 Na  0  3  0  0  0  0  0  0  0  0  0  0
   -0.3572   -7.8375    0.0000 O   0  5  0  0  0  0  0  0  0  0  0  0
   -0.3572   -7.0125    0.0000 C   0  0  0  0  0  0  0  0  0  0  0  0
    0.3572   -6.6000    0.0000 O   0  0  0  0  0  0  0  0  0  0  0  0
   -1.0717   -6.6000    0.0000 C   0  0  0  0  0  0  0  0  0  0  0  0
   -1.0717   -5.7750    0.0000 N   0  0  0  0  0  0  0  0  0  0  0  0
   -1.7862   -5.3625    0.0000 C   0  0  0  0  0  0  0  0  0  0  0  0
   -2.5006   -5.7750    0.0000 C   0  0  0  0  0  0  0  0  0  0  0  0
   -3.2151   -5.3625    0.0000 O   0  5  0  0  0  0  0  0  0  0  0  0
   -2.5006   -6.6000    0.0000 O   0  0  0  0  0  0  0  0  0  0  0  0
   -0.3572   -5.3625    0.0000 C   0  0  0  0  0  0  0  0  0  0  0  0
    0.3572   -5.7750    0.0000 C   0  0  0  0  0  0  0  0  0  0  0  0
    1.0717   -5.3625    0.0000 N   0  0  0  0  0  0  0  0  0  0  0  0
    1.0717   -4.5375    0.0000 C   0  0  0  0  0  0  0  0  0  0  0  0
    0.3572   -4.1250    0.0000 C   0  0  0  0  0  0  0  0  0  0  0  0
   -0.3572   -4.5375    0.0000 O   0  5  0  0  0  0  0  0  0  0  0  0
    0.3572   -3.3000    0.0000 O   0  0  0  0  0  0  0  0  0  0  0  0
    1.7862   -5.7750    0.0000 C   0  0  0  0  0  0  0  0  0  0  0  0
    2.5006   -5.3625    0.0000 C   0  0  0  0  0  0  0  0  0  0  0  0
    2.5006   -4.5375    0.0000 O   0  5  0  0  0  0  0  0  0  0  0  0
    3.2151   -5.7750    0.0000 O   0  0  0  0  0  0  0  0  0  0  0  0
    1.7832   -7.2256    0.0000 Ca  0  2  0  0  0  0  0  0  0  0  0  0
   -1.9983   -7.1350    0.0000 H   0  0  0  0  0  0  0  0  0  0  0  0
   -1.9983   -6.0650    0.0000 H   0  0  0  0  0  0  0  0  0  0  0  0
   -1.7862   -4.2925    0.0000 H   0  0  0  0  0  0  0  0  0  0  0  0
   -2.7129   -4.8275    0.0000 H   0  0  0  0  0  0  0  0  0  0  0  0
   -0.3572   -4.2925    0.0000 H   0  0  0  0  0  0  0  0  0  0  0  0
    0.5695   -4.8275    0.0000 H   0  0  0  0  0  0  0  0  0  0  0  0
    0.3572   -6.8450    0.0000 H   0  0  0  0  0  0  0  0  0  0  0  0
    1.2838   -6.3100    0.0000 H   0  0  0  0  0  0  0  0  0  0  0  0
    1.9983   -4.0025    0.0000 H   0  0  0  0  0  0  0  0  0  0  0  0
    1.0717   -3.4675    0.0000 H   0  0  0  0  0  0  0  0  0  0  0  0
    1.7862   -6.8450    0.0000 H   0  0  0  0  0  0  0  0  0  0  0  0
    2.7129   -6.3100    0.0000 H   0  0  0  0  0  0  0  0  0  0  0  0
  3  4  1  0  0  0  0
  4  5  2  0  0  0  0
  4  6  1  0  0  0  0
  6  7  1  0  0  0  0
  6 24  1  0  0  0  0
  6 25  1  0  0  0  0
  7  8  1  0  0  0  0
  7 12  1  0  0  0  0
  8  9  1  0  0  0  0
  8 26  1  0  0  0  0
  8 27  1  0  0  0  0
  9 10  1  0  0  0  0
  9 11  2  0  0  0  0
 12 13  1  0  0  0  0
 12 28  1  0  0  0  0
 12 29  1  0  0  0  0
 13 14  1  0  0  0  0
 13 30  1  0  0  0  0
 13 31  1  0  0  0  0
 14 15  1  0  0  0  0
 14 19  1  0  0  0  0
 15 16  1  0  0  0  0
 15 32  1  0  0  0  0
 15 33  1  0  0  0  0
 16 17  1  0  0  0  0
 16 18  2  0  0  0  0
 19 20  1  0  0  0  0
 19 34  1  0  0  0  0
 19 35  1  0  0  0  0
 20 21  1  0  0  0  0
 20 22  2  0  0  0  0
M  CHG  7   1   1   2   1   3  -1  10  -1  17  -1  21  -1  23   2
M  END
>  <DRUGBANK_ID>
DB14598

>  <SECONDARY_ACCESSION_NUMBERS>
DBSALT000837

>  <COMMON_NAME>
Edetate calcium disodium anhydrous

>  <CAS_NUMBER>
62-33-9

>  <UNII>
8U5D034955

>  <SYNONYMS>
Edetate calcium disodium (anhydrous); Edetic acid calcium disodium salt

$$$$
