
 OpenBabel10282417072D

 49 48  0  0  1  0  0  0  0  0999 V2000
    2.8875   -3.5724    0.0000 C   0  0  0  0  0  0  0  0  0  0  0  0
    3.7125   -3.5724    0.0000 C   0  0  2  0  0  0  0  0  0  0  0  0
    4.1250   -4.2868    0.0000 N   0  0  0  0  0  0  0  0  0  0  0  0
    4.1250   -2.8579    0.0000 C   0  0  0  0  0  0  0  0  0  0  0  0
    3.7125   -2.1434    0.0000 O   0  0  0  0  0  0  0  0  0  0  0  0
    4.9500   -2.8579    0.0000 N   0  0  0  0  0  0  0  0  0  0  0  0
    5.3625   -2.1434    0.0000 C   0  0  1  0  0  0  0  0  0  0  0  0
    4.9500   -1.4289    0.0000 C   0  0  0  0  0  0  0  0  0  0  0  0
    5.3625   -0.7145    0.0000 C   0  0  0  0  0  0  0  0  0  0  0  0
    4.9500    0.0000    0.0000 C   0  0  0  0  0  0  0  0  0  0  0  0
    4.1250   -0.0000    0.0000 O   0  0  0  0  0  0  0  0  0  0  0  0
    5.3625    0.7145    0.0000 O   0  0  0  0  0  0  0  0  0  0  0  0
    6.1875   -2.1434    0.0000 C   0  0  0  0  0  0  0  0  0  0  0  0
    6.6000   -2.8579    0.0000 O   0  0  0  0  0  0  0  0  0  0  0  0
    6.6000   -1.4289    0.0000 N   0  0  0  0  0  0  0  0  0  0  0  0
    7.4250   -1.4289    0.0000 C   0  0  1  0  0  0  0  0  0  0  0  0
    7.8375   -2.1434    0.0000 C   0  0  0  0  0  0  0  0  0  0  0  0
    8.6625   -2.1434    0.0000 C   0  0  0  0  0  0  0  0  0  0  0  0
    9.0750   -1.4289    0.0000 O   0  0  0  0  0  0  0  0  0  0  0  0
    9.0750   -2.8579    0.0000 O   0  0  0  0  0  0  0  0  0  0  0  0
    7.8375   -0.7145    0.0000 C   0  0  0  0  0  0  0  0  0  0  0  0
    7.4250    0.0000    0.0000 O   0  0  0  0  0  0  0  0  0  0  0  0
    8.6625   -0.7145    0.0000 N   0  0  0  0  0  0  0  0  0  0  0  0
    9.0750    0.0000    0.0000 C   0  0  0  0  0  0  0  0  0  0  0  0
    9.9000    0.0000    0.0000 C   0  0  0  0  0  0  0  0  0  0  0  0
   10.3125    0.7145    0.0000 O   0  0  0  0  0  0  0  0  0  0  0  0
   10.3125   -0.7145    0.0000 O   0  0  0  0  0  0  0  0  0  0  0  0
    2.3525   -2.6458    0.0000 H   0  0  0  0  0  0  0  0  0  0  0  0
    2.3525   -4.4990    0.0000 H   0  0  0  0  0  0  0  0  0  0  0  0
    1.8175   -3.5724    0.0000 H   0  0  0  0  0  0  0  0  0  0  0  0
    3.1775   -4.4991    0.0000 H   0  0  0  0  0  0  0  0  0  0  0  0
    3.6150   -5.1702    0.0000 H   0  0  0  0  0  0  0  0  0  0  0  0
    5.1450   -4.2868    0.0000 H   0  0  0  0  0  0  0  0  0  0  0  0
    5.4423   -3.7105    0.0000 H   0  0  0  0  0  0  0  0  0  0  0  0
    4.2925   -2.1434    0.0000 H   0  0  0  0  0  0  0  0  0  0  0  0
    3.8800   -1.4289    0.0000 H   0  0  0  0  0  0  0  0  0  0  0  0
    4.4150   -0.5022    0.0000 H   0  0  0  0  0  0  0  0  0  0  0  0
    6.4325   -0.7145    0.0000 H   0  0  0  0  0  0  0  0  0  0  0  0
    5.8975    0.2121    0.0000 H   0  0  0  0  0  0  0  0  0  0  0  0
    3.6565    0.8115    0.0000 H   0  0  0  0  0  0  0  0  0  0  0  0
    6.1077   -0.5763    0.0000 H   0  0  0  0  0  0  0  0  0  0  0  0
    6.8900   -2.3555    0.0000 H   0  0  0  0  0  0  0  0  0  0  0  0
    7.3025   -3.0700    0.0000 H   0  0  0  0  0  0  0  0  0  0  0  0
    8.3725   -3.0700    0.0000 H   0  0  0  0  0  0  0  0  0  0  0  0
   10.0120   -1.4289    0.0000 H   0  0  0  0  0  0  0  0  0  0  0  0
    9.1548   -1.5671    0.0000 H   0  0  0  0  0  0  0  0  0  0  0  0
    8.5400    0.9266    0.0000 H   0  0  0  0  0  0  0  0  0  0  0  0
    9.6100    0.9266    0.0000 H   0  0  0  0  0  0  0  0  0  0  0  0
   11.2495    0.7145    0.0000 H   0  0  0  0  0  0  0  0  0  0  0  0
  1 28  1  0  0  0  0
  1 29  1  0  0  0  0
  1 30  1  0  0  0  0
  2  1  1  0  0  0  0
  2  3  1  0  0  0  0
  2  4  1  0  0  0  0
  2 31  1  6  0  0  0
  3 32  1  0  0  0  0
  3 33  1  0  0  0  0
  4  5  2  0  0  0  0
  4  6  1  0  0  0  0
  6 34  1  0  0  0  0
  7  6  1  0  0  0  0
  7  8  1  0  0  0  0
  7 13  1  0  0  0  0
  7 35  1  6  0  0  0
  8  9  1  0  0  0  0
  8 36  1  0  0  0  0
  8 37  1  0  0  0  0
  9 10  1  0  0  0  0
  9 38  1  0  0  0  0
  9 39  1  0  0  0  0
 10 11  1  0  0  0  0
 10 12  2  0  0  0  0
 11 40  1  0  0  0  0
 13 14  2  0  0  0  0
 13 15  1  0  0  0  0
 15 41  1  0  0  0  0
 16 15  1  0  0  0  0
 16 17  1  0  0  0  0
 16 21  1  0  0  0  0
 16 42  1  1  0  0  0
 17 18  1  0  0  0  0
 17 43  1  0  0  0  0
 17 44  1  0  0  0  0
 18 19  1  0  0  0  0
 18 20  2  0  0  0  0
 19 45  1  0  0  0  0
 21 22  2  0  0  0  0
 21 23  1  0  0  0  0
 23 24  1  0  0  0  0
 23 46  1  0  0  0  0
 24 25  1  0  0  0  0
 24 47  1  0  0  0  0
 24 48  1  0  0  0  0
 25 26  1  0  0  0  0
 25 27  2  0  0  0  0
 26 49  1  0  0  0  0
M  END
>  <DRUGBANK_ID>
DB17882

>  <COMMON_NAME>
Epitalon

>  <CAS_NUMBER>
307297-39-8

>  <UNII>
O65P17785G

>  <SYNONYMS>
Ala-glu-asp-gly; Epithalon; Glycine, l-alanyl-l-.alpha.-glutamyl-l-.alpha.-aspartyl-

$$$$
