
 OpenBabel10282417072D

 22 22  0  0  0  0  0  0  0  0999 V2000
   -0.3197    1.0417    0.0000 N   0  0  0  0  0  0  0  0  0  0  0  0
   -0.3197    0.2167    0.0000 C   0  0  0  0  0  0  0  0  0  0  0  0
    0.3947   -0.1957    0.0000 C   0  0  0  0  0  0  0  0  0  0  0  0
    0.3947   -1.0207    0.0000 C   0  0  0  0  0  0  0  0  0  0  0  0
   -0.3197   -1.4332    0.0000 C   0  0  0  0  0  0  0  0  0  0  0  0
   -1.0342   -1.0207    0.0000 C   0  0  0  0  0  0  0  0  0  0  0  0
   -1.0342   -0.1957    0.0000 C   0  0  0  0  0  0  0  0  0  0  0  0
   -0.3197   -2.2582    0.0000 C   0  0  0  0  0  0  0  0  0  0  0  0
   -1.0342   -2.6707    0.0000 O   0  0  0  0  0  0  0  0  0  0  0  0
    0.3947   -2.6707    0.0000 O   0  0  0  0  0  0  0  0  0  0  0  0
    0.3947    1.4542    0.0000 C   0  0  0  0  0  0  0  0  0  0  0  0
    0.3947    2.2792    0.0000 O   0  0  0  0  0  0  0  0  0  0  0  0
    1.1091    1.0417    0.0000 C   0  0  0  0  0  0  0  0  0  0  0  0
   -1.1723    1.5339    0.0000 H   0  0  0  0  0  0  0  0  0  0  0  0
    1.2884    0.3203    0.0000 H   0  0  0  0  0  0  0  0  0  0  0  0
    1.2884   -1.5367    0.0000 H   0  0  0  0  0  0  0  0  0  0  0  0
   -1.9279   -1.5367    0.0000 H   0  0  0  0  0  0  0  0  0  0  0  0
   -1.9279    0.3204    0.0000 H   0  0  0  0  0  0  0  0  0  0  0  0
   -1.8457   -2.2022    0.0000 H   0  0  0  0  0  0  0  0  0  0  0  0
    1.1091   -0.0283    0.0000 H   0  0  0  0  0  0  0  0  0  0  0  0
    2.0358    1.5767    0.0000 H   0  0  0  0  0  0  0  0  0  0  0  0
    2.0357    0.5067    0.0000 H   0  0  0  0  0  0  0  0  0  0  0  0
  1  2  1  0  0  0  0
  1 14  1  0  0  0  0
  2  3  2  0  0  0  0
  2  7  1  0  0  0  0
  3  4  1  0  0  0  0
  3 15  1  0  0  0  0
  4  5  2  0  0  0  0
  4 16  1  0  0  0  0
  5  6  1  0  0  0  0
  5  8  1  0  0  0  0
  6  7  2  0  0  0  0
  6 17  1  0  0  0  0
  7 18  1  0  0  0  0
  8  9  1  0  0  0  0
  8 10  2  0  0  0  0
  9 19  1  0  0  0  0
 11 12  2  0  0  0  0
 11  1  1  0  0  0  0
 13 11  1  0  0  0  0
 13 20  1  0  0  0  0
 13 21  1  0  0  0  0
 13 22  1  0  0  0  0
M  END
>  <DRUGBANK_ID>
DB04500

>  <SECONDARY_ACCESSION_NUMBERS>
EXPT03145

>  <COMMON_NAME>
Acedoben

>  <CAS_NUMBER>
556-08-1

>  <UNII>
04Z20NMK31

>  <SYNONYMS>
4-(Acetylamino)benzoic acid; 4-acetamidobenzoic acid; 4-Acetylaminobenzoic acid; 4-Carboxyacetanilide; Acedoben; Acedobene; Acedobenum; N-Acetyl-p-aminobenzoic acid; N-Acetyl-PABA; p-Acetamidobenzoic acid; p-Acetoaminobenzoic acid; p-Acetylaminobenzoic acid; PAAB; Para acetamido benzoic acid

$$$$
