PFE
 OpenBabel10282417072D

 52 55  0  0  0  0  0  0  0  0999 V2000
   -2.5305    5.1410    0.0000 O   0  0  0  0  0  0  0  0  0  0  0  0
   -2.8661    4.3873    0.0000 C   0  0  0  0  0  0  0  0  0  0  0  0
   -2.3812    3.7198    0.0000 C   0  0  0  0  0  0  0  0  0  0  0  0
   -1.5562    3.7198    0.0000 S   0  0  0  0  0  0  0  0  0  0  0  0
   -1.3012    2.9352    0.0000 C   0  0  0  0  0  0  0  0  0  0  0  0
   -2.6361    2.9352    0.0000 N   0  0  0  0  0  0  0  0  0  0  0  0
   -1.9687    2.4503    0.0000 C   0  0  0  0  0  0  0  0  0  0  0  0
   -1.9687    1.6253    0.0000 C   0  0  0  0  0  0  0  0  0  0  0  0
   -1.2542    1.2128    0.0000 C   0  0  0  0  0  0  0  0  0  0  0  0
   -2.6831    1.2128    0.0000 C   0  0  0  0  0  0  0  0  0  0  0  0
   -2.6831    0.3878    0.0000 C   0  0  0  0  0  0  0  0  0  0  0  0
   -1.9687   -0.0247    0.0000 C   0  0  0  0  0  0  0  0  0  0  0  0
   -1.2542    0.3878    0.0000 C   0  0  0  0  0  0  0  0  0  0  0  0
   -0.5397   -0.0247    0.0000 N   0  0  0  0  0  0  0  0  0  0  0  0
   -0.5397   -0.8497    0.0000 C   0  0  0  0  0  0  0  0  0  0  0  0
   -1.2542   -1.2622    0.0000 N   0  0  0  0  0  0  0  0  0  0  0  0
   -1.2542   -2.0872    0.0000 C   0  0  0  0  0  0  0  0  0  0  0  0
    0.1748   -1.2622    0.0000 C   0  0  0  0  0  0  0  0  0  0  0  0
    0.8892   -0.8497    0.0000 C   0  0  0  0  0  0  0  0  0  0  0  0
    1.6037   -1.2622    0.0000 C   0  0  0  0  0  0  0  0  0  0  0  0
    2.3182   -0.8497    0.0000 O   0  0  0  0  0  0  0  0  0  0  0  0
    2.3182   -0.0247    0.0000 C   0  0  0  0  0  0  0  0  0  0  0  0
    3.0326    0.3878    0.0000 C   0  0  0  0  0  0  0  0  0  0  0  0
    0.1748   -2.0872    0.0000 C   0  0  0  0  0  0  0  0  0  0  0  0
   -0.5397   -2.4997    0.0000 N   0  0  0  0  0  0  0  0  0  0  0  0
    0.8892   -2.4997    0.0000 C   0  0  0  0  0  0  0  0  0  0  0  0
    1.6037   -2.0872    0.0000 C   0  0  0  0  0  0  0  0  0  0  0  0
    2.3182   -2.4997    0.0000 O   0  0  0  0  0  0  0  0  0  0  0  0
    2.3182   -3.3247    0.0000 C   0  0  0  0  0  0  0  0  0  0  0  0
    3.0326   -3.7372    0.0000 C   0  0  0  0  0  0  0  0  0  0  0  0
   -1.5658    5.2424    0.0000 H   0  0  0  0  0  0  0  0  0  0  0  0
   -3.9302    4.2755    0.0000 H   0  0  0  0  0  0  0  0  0  0  0  0
   -3.3014    3.4098    0.0000 H   0  0  0  0  0  0  0  0  0  0  0  0
   -0.3197    2.6163    0.0000 H   0  0  0  0  0  0  0  0  0  0  0  0
   -0.3605    1.7288    0.0000 H   0  0  0  0  0  0  0  0  0  0  0  0
   -3.5768    1.7288    0.0000 H   0  0  0  0  0  0  0  0  0  0  0  0
   -3.5768   -0.1282    0.0000 H   0  0  0  0  0  0  0  0  0  0  0  0
   -1.9687   -1.0567    0.0000 H   0  0  0  0  0  0  0  0  0  0  0  0
    0.3129    0.4676    0.0000 H   0  0  0  0  0  0  0  0  0  0  0  0
   -2.1479   -2.6032    0.0000 H   0  0  0  0  0  0  0  0  0  0  0  0
    0.8892    0.1823    0.0000 H   0  0  0  0  0  0  0  0  0  0  0  0
    1.3915    0.5103    0.0000 H   0  0  0  0  0  0  0  0  0  0  0  0
    2.3182    1.0453    0.0000 H   0  0  0  0  0  0  0  0  0  0  0  0
    3.9593   -0.1472    0.0000 H   0  0  0  0  0  0  0  0  0  0  0  0
    3.0326    1.4578    0.0000 H   0  0  0  0  0  0  0  0  0  0  0  0
    3.9592    0.9228    0.0000 H   0  0  0  0  0  0  0  0  0  0  0  0
    0.8892   -3.5317    0.0000 H   0  0  0  0  0  0  0  0  0  0  0  0
    1.3915   -3.8597    0.0000 H   0  0  0  0  0  0  0  0  0  0  0  0
    2.3182   -4.3947    0.0000 H   0  0  0  0  0  0  0  0  0  0  0  0
    3.0326   -4.8072    0.0000 H   0  0  0  0  0  0  0  0  0  0  0  0
    3.9593   -3.2022    0.0000 H   0  0  0  0  0  0  0  0  0  0  0  0
    3.9592   -4.2722    0.0000 H   0  0  0  0  0  0  0  0  0  0  0  0
  1  2  1  0  0  0  0
  1 31  1  0  0  0  0
  2  3  1  0  0  0  0
  2 32  1  0  0  0  0
  2 33  1  0  0  0  0
  3  4  1  0  0  0  0
  3  6  2  0  0  0  0
  4  5  1  0  0  0  0
  5  7  2  0  0  0  0
  5 34  1  0  0  0  0
  6  7  1  0  0  0  0
  7  8  1  0  0  0  0
  8  9  2  0  0  0  0
  8 10  1  0  0  0  0
  9 13  1  0  0  0  0
  9 35  1  0  0  0  0
 10 11  2  0  0  0  0
 10 36  1  0  0  0  0
 11 12  1  0  0  0  0
 11 37  1  0  0  0  0
 12 13  2  0  0  0  0
 12 38  1  0  0  0  0
 13 14  1  0  0  0  0
 14 15  1  0  0  0  0
 14 39  1  0  0  0  0
 15 16  2  0  0  0  0
 15 18  1  0  0  0  0
 16 17  1  0  0  0  0
 17 25  2  0  0  0  0
 17 40  1  0  0  0  0
 18 19  2  0  0  0  0
 18 24  1  0  0  0  0
 19 20  1  0  0  0  0
 19 41  1  0  0  0  0
 20 21  1  0  0  0  0
 20 27  2  0  0  0  0
 21 22  1  0  0  0  0
 22 23  1  0  0  0  0
 22 42  1  0  0  0  0
 22 43  1  0  0  0  0
 23 44  1  0  0  0  0
 23 45  1  0  0  0  0
 23 46  1  0  0  0  0
 24 25  1  0  0  0  0
 24 26  2  0  0  0  0
 26 27  1  0  0  0  0
 26 47  1  0  0  0  0
 27 28  1  0  0  0  0
 28 29  1  0  0  0  0
 29 30  1  0  0  0  0
 29 48  1  0  0  0  0
 29 49  1  0  0  0  0
 30 50  1  0  0  0  0
 30 51  1  0  0  0  0
 30 52  1  0  0  0  0
M  END
>  <DRUGBANK_ID>
DB02848

>  <SECONDARY_ACCESSION_NUMBERS>
EXPT02557

>  <COMMON_NAME>
{4-[3-(6,7-Diethoxy-Quinazolin-4-Ylamino)-Phenyl]-Thiazol-2-Yl}-Methanol

$$$$
