
 OpenBabel10282417072D

 17 17  0  0  0  0  0  0  0  0999 V2000
   -0.0316    0.1387    0.0000 C   0  0  1  0  0  0  0  0  0  0  0  0
   -0.2864    0.9233    0.0000 C   0  0  0  0  0  0  0  0  0  0  0  0
    0.7704   -0.1218    0.0000 C   0  0  0  0  0  0  0  0  0  0  0  0
   -0.6991   -0.3461    0.0000 N   0  0  0  0  0  0  0  0  0  0  0  0
   -1.1114    0.9233    0.0000 C   0  0  0  0  0  0  0  0  0  0  0  0
    0.9248   -0.9233    0.0000 O   0  0  0  0  0  0  0  0  0  0  0  0
    1.3663    0.4357    0.0000 O   0  0  0  0  0  0  0  0  0  0  0  0
   -1.3663    0.1386    0.0000 C   0  0  0  0  0  0  0  0  0  0  0  0
    0.7250    0.8953    0.0000 H   0  0  0  0  0  0  0  0  0  0  0  0
    0.3426    1.7889    0.0000 H   0  0  0  0  0  0  0  0  0  0  0  0
   -0.7721    1.8767    0.0000 H   0  0  0  0  0  0  0  0  0  0  0  0
   -0.6992   -1.3661    0.0000 H   0  0  0  0  0  0  0  0  0  0  0  0
   -1.7404    1.7889    0.0000 H   0  0  0  0  0  0  0  0  0  0  0  0
   -2.1682    0.7559    0.0000 H   0  0  0  0  0  0  0  0  0  0  0  0
    0.2166   -1.5368    0.0000 H   0  0  0  0  0  0  0  0  0  0  0  0
   -2.3839   -0.1921    0.0000 H   0  0  0  0  0  0  0  0  0  0  0  0
   -2.1230    0.8952    0.0000 H   0  0  0  0  0  0  0  0  0  0  0  0
  1  2  1  0  0  0  0
  1  3  1  0  0  0  0
  1  4  1  0  0  0  0
  1  9  1  6  0  0  0
  2  5  1  0  0  0  0
  2 10  1  0  0  0  0
  2 11  1  0  0  0  0
  3  6  1  0  0  0  0
  3  7  2  0  0  0  0
  4  8  1  0  0  0  0
  4 12  1  0  0  0  0
  5  8  1  0  0  0  0
  5 13  1  0  0  0  0
  5 14  1  0  0  0  0
  6 15  1  0  0  0  0
  8 16  1  0  0  0  0
  8 17  1  0  0  0  0
M  END
>  <DRUGBANK_ID>
DB00172

>  <SECONDARY_ACCESSION_NUMBERS>
NUTR00047

>  <COMMON_NAME>
Proline

>  <CAS_NUMBER>
147-85-3

>  <UNII>
9DLQ4CIU6V

>  <SYNONYMS>
(-)-2-Pyrrolidinecarboxylic acid; (−)-(S)-proline; (−)-2-pyrrolidinecarboxylic acid; (−)-proline; (2S)-pyrrolidine-2-carboxylic acid; (S)-2-Carboxypyrrolidine; (S)-2-Pyrrolidinecarboxylic acid; (S)-pyrrolidine-2-carboxylic acid; 2-Pyrrolidinecarboxylic acid; L-(−)-proline; L-alpha-pyrrolidinecarboxylic acid; L-Prolin; L-Prolina; L-Proline; L-pyrrolidine-2-carboxylic acid; L-α-pyrrolidinecarboxylic acid; P; Prolina; Proline; Prolinum

$$$$
