
 OpenBabel10282417072D

 41 43  0  0  0  0  0  0  0  0999 V2000
    1.4292    1.6535    0.0000 C   0  0  0  0  0  0  0  0  0  0  0  0
    1.0167    2.3679    0.0000 C   0  0  0  0  0  0  0  0  0  0  0  0
    0.1917    2.3679    0.0000 C   0  0  0  0  0  0  0  0  0  0  0  0
    2.2543    1.6535    0.0000 S   0  0  0  0  0  0  0  0  0  0  0  0
    2.6668    0.9389    0.0000 N   0  0  0  0  0  0  0  0  0  0  0  0
    1.0167   -0.4899    0.0000 C   0  0  0  0  0  0  0  0  0  0  0  0
    1.4292   -1.2045    0.0000 C   0  0  0  0  0  0  0  0  0  0  0  0
    2.2543   -1.2045    0.0000 C   0  0  0  0  0  0  0  0  0  0  0  0
    2.6668   -0.4899    0.0000 C   0  0  0  0  0  0  0  0  0  0  0  0
    2.2543    0.2244    0.0000 C   0  0  0  0  0  0  0  0  0  0  0  0
    1.4292    0.2244    0.0000 C   0  0  0  0  0  0  0  0  0  0  0  0
   -2.0962   -2.1823    0.0000 N   0  0  0  0  0  0  0  0  0  0  0  0
   -2.6553   -1.5757    0.0000 C   0  0  0  0  0  0  0  0  0  0  0  0
   -1.2912   -2.0014    0.0000 C   0  0  0  0  0  0  0  0  0  0  0  0
   -1.0454   -1.2138    0.0000 C   0  0  0  0  0  0  0  0  0  0  0  0
   -2.4095   -0.7881    0.0000 C   0  0  0  0  0  0  0  0  0  0  0  0
   -1.6046   -0.6071    0.0000 C   0  0  0  0  0  0  0  0  0  0  0  0
   -0.6181   -2.4785    0.0000 N   0  0  0  0  0  0  0  0  0  0  0  0
    0.0435   -1.9858    0.0000 C   0  0  0  0  0  0  0  0  0  0  0  0
   -0.2205   -1.2041    0.0000 C   0  0  0  0  0  0  0  0  0  0  0  0
    0.1917   -0.4899    0.0000 C   0  0  0  0  0  0  0  0  0  0  0  0
   -0.2207    0.2244    0.0000 O   0  0  0  0  0  0  0  0  0  0  0  0
   -2.9688   -0.1815    0.0000 Cl  0  0  0  0  0  0  0  0  0  0  0  0
    1.0167    0.9389    0.0000 F   0  0  0  0  0  0  0  0  0  0  0  0
    1.0167   -1.9189    0.0000 F   0  0  0  0  0  0  0  0  0  0  0  0
    2.9688    2.0660    0.0000 O   0  0  0  0  0  0  0  0  0  0  0  0
    2.2543    2.4785    0.0000 O   0  0  0  0  0  0  0  0  0  0  0  0
    0.8942    0.7268    0.0000 H   0  0  0  0  0  0  0  0  0  0  0  0
    1.9642    0.7269    0.0000 H   0  0  0  0  0  0  0  0  0  0  0  0
    1.5517    3.2946    0.0000 H   0  0  0  0  0  0  0  0  0  0  0  0
    0.4817    3.2945    0.0000 H   0  0  0  0  0  0  0  0  0  0  0  0
   -0.3433    3.2945    0.0000 H   0  0  0  0  0  0  0  0  0  0  0  0
   -0.3433    1.4413    0.0000 H   0  0  0  0  0  0  0  0  0  0  0  0
   -0.8783    2.3679    0.0000 H   0  0  0  0  0  0  0  0  0  0  0  0
    3.6513    0.9389    0.0000 H   0  0  0  0  0  0  0  0  0  0  0  0
    2.7703   -2.0982    0.0000 H   0  0  0  0  0  0  0  0  0  0  0  0
    3.6988   -0.4898    0.0000 H   0  0  0  0  0  0  0  0  0  0  0  0
   -3.6622   -1.8020    0.0000 H   0  0  0  0  0  0  0  0  0  0  0  0
   -1.2972    0.3781    0.0000 H   0  0  0  0  0  0  0  0  0  0  0  0
   -0.6065   -3.4629    0.0000 H   0  0  0  0  0  0  0  0  0  0  0  0
    1.0286   -2.2932    0.0000 H   0  0  0  0  0  0  0  0  0  0  0  0
  1 28  1  0  0  0  0
  1 29  1  0  0  0  0
  2  1  1  0  0  0  0
  2 30  1  0  0  0  0
  2 31  1  0  0  0  0
  3  2  1  0  0  0  0
  3 32  1  0  0  0  0
  3 33  1  0  0  0  0
  3 34  1  0  0  0  0
  4  1  1  0  0  0  0
  5  4  1  0  0  0  0
  5 35  1  0  0  0  0
  7  6  1  0  0  0  0
  8  7  2  0  0  0  0
  8 36  1  0  0  0  0
  9  8  1  0  0  0  0
  9 37  1  0  0  0  0
 10  5  1  0  0  0  0
 10  9  2  0  0  0  0
 11  6  2  0  0  0  0
 11 10  1  0  0  0  0
 13 12  2  0  0  0  0
 13 38  1  0  0  0  0
 14 12  1  0  0  0  0
 15 14  2  0  0  0  0
 16 13  1  0  0  0  0
 17 15  1  0  0  0  0
 17 16  2  0  0  0  0
 17 39  1  0  0  0  0
 18 14  1  0  0  0  0
 18 40  1  0  0  0  0
 19 18  1  0  0  0  0
 19 41  1  0  0  0  0
 20 15  1  0  0  0  0
 20 19  2  0  0  0  0
 21  6  1  0  0  0  0
 21 20  1  0  0  0  0
 22 21  2  0  0  0  0
 23 16  1  0  0  0  0
 24 11  1  0  0  0  0
 25  7  1  0  0  0  0
 26  4  2  0  0  0  0
 27  4  2  0  0  0  0
M  END
>  <DRUGBANK_ID>
DB06999

>  <COMMON_NAME>
PLX-4720

>  <CAS_NUMBER>
918505-84-7

>  <UNII>
EQY31RO8HA

>  <SYNONYMS>
N-[3-(5-chloro-1H-pyrrolo[2,3-b]pyridine-3-carbonyl)-2,4-difluorophenyl]propane-1-sulfonamide

$$$$
