
 OpenBabel10282417072D

 72 73  0  0  0  0  0  0  0  0999 V2000
   -2.1401    1.4400    0.0000 C   0  0  0  0  0  0  0  0  0  0  0  0
   -2.8601    1.0300    0.0000 C   0  0  0  0  0  0  0  0  0  0  0  0
   -2.8601    0.2000    0.0000 C   0  0  0  0  0  0  0  0  0  0  0  0
   -2.1401   -0.2099    0.0000 C   0  0  0  0  0  0  0  0  0  0  0  0
   -1.4300    0.2000    0.0000 C   0  0  0  0  0  0  0  0  0  0  0  0
   -1.4300    1.0300    0.0000 C   0  0  0  0  0  0  0  0  0  0  0  0
   -3.5701   -0.2099    0.0000 O   0  0  0  0  0  0  0  0  0  0  0  0
   -3.5701   -1.0300    0.0000 C   0  0  0  0  0  0  0  0  0  0  0  0
   -4.2901   -1.4500    0.0000 C   0  0  0  0  0  0  0  0  0  0  0  0
   -4.2901   -2.2700    0.0000 O   0  0  0  0  0  0  0  0  0  0  0  0
   -0.7100    1.4400    0.0000 C   0  0  0  0  0  0  0  0  0  0  0  0
    0.0000    1.0300    0.0000 C   0  0  1  0  0  0  0  0  0  0  0  0
    0.0000    0.2000    0.0000 C   0  0  0  0  0  0  0  0  0  0  0  0
   -0.7100   -0.2099    0.0000 O   0  0  0  0  0  0  0  0  0  0  0  0
    0.7100   -0.2099    0.0000 N   0  0  0  0  0  0  0  0  0  0  0  0
    0.7100   -1.0300    0.0000 C   0  0  0  0  0  0  0  0  0  0  0  0
    1.4300   -1.4500    0.0000 C   0  0  0  0  0  0  0  0  0  0  0  0
    2.1401   -1.0300    0.0000 C   0  0  0  0  0  0  0  0  0  0  0  0
    0.7100    1.4400    0.0000 N   0  0  0  0  0  0  0  0  0  0  0  0
    1.4300    1.0300    0.0000 C   0  0  0  0  0  0  0  0  0  0  0  0
    1.4300    0.2000    0.0000 O   0  0  0  0  0  0  0  0  0  0  0  0
    3.5701    1.4400    0.0000 C   0  0  0  0  0  0  0  0  0  0  0  0
    3.5701    2.2700    0.0000 O   0  0  0  0  0  0  0  0  0  0  0  0
   -5.0002   -1.0300    0.0000 O   0  0  0  0  0  0  0  0  0  0  0  0
   -2.8601   -1.4500    0.0000 C   0  0  0  0  0  0  0  0  0  0  0  0
   -2.8601   -2.2700    0.0000 O   0  0  0  0  0  0  0  0  0  0  0  0
   -2.1401   -1.0300    0.0000 O   0  0  0  0  0  0  0  0  0  0  0  0
    2.1401    1.4400    0.0000 N   0  0  0  0  0  0  0  0  0  0  0  0
    2.8601    1.0300    0.0000 C   0  0  1  0  0  0  0  0  0  0  0  0
    4.2901    1.0300    0.0000 O   0  0  0  0  0  0  0  0  0  0  0  0
    2.8601    0.2000    0.0000 C   0  0  0  0  0  0  0  0  0  0  0  0
    2.8601   -1.4500    0.0000 C   0  0  0  0  0  0  0  0  0  0  0  0
    2.8601   -2.2700    0.0000 C   0  0  0  0  0  0  0  0  0  0  0  0
    3.5701   -0.2099    0.0000 C   0  0  0  0  0  0  0  0  0  0  0  0
    4.2901    0.2000    0.0000 C   0  0  0  0  0  0  0  0  0  0  0  0
    3.5701   -1.0300    0.0000 C   0  0  0  0  0  0  0  0  0  0  0  0
    4.2901   -1.4500    0.0000 C   0  0  0  0  0  0  0  0  0  0  0  0
    5.0002   -1.0300    0.0000 C   0  0  0  0  0  0  0  0  0  0  0  0
    5.0002   -0.2099    0.0000 C   0  0  0  0  0  0  0  0  0  0  0  0
   -2.1370    2.4720    0.0000 H   0  0  0  0  0  0  0  0  0  0  0  0
   -3.7523    1.5487    0.0000 H   0  0  0  0  0  0  0  0  0  0  0  0
   -2.1370   -1.2419    0.0000 H   0  0  0  0  0  0  0  0  0  0  0  0
   -0.5363   -0.3160    0.0000 H   0  0  0  0  0  0  0  0  0  0  0  0
   -3.5734   -2.1000    0.0000 H   0  0  0  0  0  0  0  0  0  0  0  0
   -0.7068    2.5100    0.0000 H   0  0  0  0  0  0  0  0  0  0  0  0
    0.2175    1.9736    0.0000 H   0  0  0  0  0  0  0  0  0  0  0  0
    0.0000    2.1000    0.0000 H   0  0  0  0  0  0  0  0  0  0  0  0
    1.5626    0.2824    0.0000 H   0  0  0  0  0  0  0  0  0  0  0  0
   -0.2178   -1.5629    0.0000 H   0  0  0  0  0  0  0  0  0  0  0  0
    0.7064   -2.1000    0.0000 H   0  0  0  0  0  0  0  0  0  0  0  0
    1.4332   -2.5200    0.0000 H   0  0  0  0  0  0  0  0  0  0  0  0
    2.3602   -1.9787    0.0000 H   0  0  0  0  0  0  0  0  0  0  0  0
    2.1369    0.0400    0.0000 H   0  0  0  0  0  0  0  0  0  0  0  0
    3.0671   -0.4957    0.0000 H   0  0  0  0  0  0  0  0  0  0  0  0
    0.7070    2.4245    0.0000 H   0  0  0  0  0  0  0  0  0  0  0  0
   -4.9903   -0.0931    0.0000 H   0  0  0  0  0  0  0  0  0  0  0  0
   -1.3265   -1.4949    0.0000 H   0  0  0  0  0  0  0  0  0  0  0  0
    2.1372    2.4245    0.0000 H   0  0  0  0  0  0  0  0  0  0  0  0
    3.7868    0.4950    0.0000 H   0  0  0  0  0  0  0  0  0  0  0  0
    4.2957    0.0930    0.0000 H   0  0  0  0  0  0  0  0  0  0  0  0
    1.9335   -0.3350    0.0000 H   0  0  0  0  0  0  0  0  0  0  0  0
    2.8601   -0.8700    0.0000 H   0  0  0  0  0  0  0  0  0  0  0  0
    3.7879   -0.9171    0.0000 H   0  0  0  0  0  0  0  0  0  0  0  0
    3.7861   -1.9860    0.0000 H   0  0  0  0  0  0  0  0  0  0  0  0
    1.9335   -2.8050    0.0000 H   0  0  0  0  0  0  0  0  0  0  0  0
    3.7867   -2.8050    0.0000 H   0  0  0  0  0  0  0  0  0  0  0  0
    2.8601   -3.3400    0.0000 H   0  0  0  0  0  0  0  0  0  0  0  0
    4.2932    1.2320    0.0000 H   0  0  0  0  0  0  0  0  0  0  0  0
    2.6752   -1.5440    0.0000 H   0  0  0  0  0  0  0  0  0  0  0  0
    4.2932   -2.4820    0.0000 H   0  0  0  0  0  0  0  0  0  0  0  0
    5.8966   -1.5413    0.0000 H   0  0  0  0  0  0  0  0  0  0  0  0
    5.8939    0.3061    0.0000 H   0  0  0  0  0  0  0  0  0  0  0  0
  1  2  2  0  0  0  0
  1  6  1  0  0  0  0
  1 40  1  0  0  0  0
  2  3  1  0  0  0  0
  2 41  1  0  0  0  0
  3  4  2  0  0  0  0
  3  7  1  0  0  0  0
  4  5  1  0  0  0  0
  4 42  1  0  0  0  0
  5  6  2  0  0  0  0
  5 43  1  0  0  0  0
  6 11  1  0  0  0  0
  7  8  1  0  0  0  0
  8  9  1  0  0  0  0
  8 25  1  0  0  0  0
  8 44  1  0  0  0  0
  9 10  2  0  0  0  0
  9 24  1  0  0  0  0
 11 45  1  0  0  0  0
 11 46  1  0  0  0  0
 12 11  1  0  0  0  0
 12 19  1  0  0  0  0
 12 13  1  0  0  0  0
 12 47  1  1  0  0  0
 13 14  2  0  0  0  0
 13 15  1  0  0  0  0
 15 16  1  0  0  0  0
 15 48  1  0  0  0  0
 16 17  1  0  0  0  0
 16 49  1  0  0  0  0
 16 50  1  0  0  0  0
 17 18  1  0  0  0  0
 17 51  1  0  0  0  0
 17 52  1  0  0  0  0
 18 32  1  0  0  0  0
 18 53  1  0  0  0  0
 18 54  1  0  0  0  0
 19 20  1  0  0  0  0
 19 55  1  0  0  0  0
 20 28  1  0  0  0  0
 20 21  2  0  0  0  0
 22 29  1  0  0  0  0
 22 23  2  0  0  0  0
 22 30  1  0  0  0  0
 24 56  1  0  0  0  0
 25 26  2  0  0  0  0
 25 27  1  0  0  0  0
 27 57  1  0  0  0  0
 28 29  1  0  0  0  0
 28 58  1  0  0  0  0
 29 31  1  0  0  0  0
 29 59  1  1  0  0  0
 30 60  1  0  0  0  0
 31 34  1  0  0  0  0
 31 61  1  0  0  0  0
 31 62  1  0  0  0  0
 32 33  1  0  0  0  0
 32 63  1  0  0  0  0
 32 64  1  0  0  0  0
 33 65  1  0  0  0  0
 33 66  1  0  0  0  0
 33 67  1  0  0  0  0
 34 35  1  0  0  0  0
 34 36  2  0  0  0  0
 35 39  2  0  0  0  0
 35 68  1  0  0  0  0
 36 37  1  0  0  0  0
 36 69  1  0  0  0  0
 37 38  2  0  0  0  0
 37 70  1  0  0  0  0
 38 39  1  0  0  0  0
 38 71  1  0  0  0  0
 39 72  1  0  0  0  0
M  END
>  <DRUGBANK_ID>
DB02436

>  <SECONDARY_ACCESSION_NUMBERS>
EXPT01899

>  <COMMON_NAME>
{4-[(2S)-2-({[(1S)-1-Carboxy-2-phenylethyl]carbamoyl}amino)-3-oxo-3-(pentylamino)propyl]phenoxy}malonic acid

>  <UNII>
BSW3GP3Z2B

$$$$
