
 OpenBabel10282417072D

106109  0  0  1  0  0  0  0  0999 V2000
   -2.5535   -4.9213    0.0000 N   0  0  0  0  0  0  0  0  0  0  0  0
   -1.8390   -4.5088    0.0000 C   0  0  0  0  0  0  0  0  0  0  0  0
   -1.1245   -4.9213    0.0000 C   0  0  0  0  0  0  0  0  0  0  0  0
   -0.4101   -4.5088    0.0000 C   0  0  0  0  0  0  0  0  0  0  0  0
    0.3044   -4.9213    0.0000 N   0  0  0  0  0  0  0  0  0  0  0  0
    1.0189   -4.5088    0.0000 C   0  0  0  0  0  0  0  0  0  0  0  0
    1.7334   -4.9213    0.0000 C   0  0  0  0  0  0  0  0  0  0  0  0
    2.4478   -4.5088    0.0000 O   0  0  0  0  0  0  0  0  0  0  0  0
    2.4478   -3.6838    0.0000 C   0  0  1  0  0  0  0  0  0  0  0  0
    1.7804   -3.1989    0.0000 C   0  0  1  0  0  0  0  0  0  0  0  0
    2.0353   -2.4143    0.0000 O   0  0  0  0  0  0  0  0  0  0  0  0
    2.8603   -2.4143    0.0000 C   0  0  2  0  0  0  0  0  0  0  0  0
    3.3452   -1.7468    0.0000 C   0  0  0  0  0  0  0  0  0  0  0  0
    3.0097   -0.9932    0.0000 O   0  0  0  0  0  0  0  0  0  0  0  0
    3.1153   -3.1989    0.0000 C   0  0  1  0  0  0  0  0  0  0  0  0
    3.8999   -3.4538    0.0000 O   0  0  0  0  0  0  0  0  0  0  0  0
    4.5130   -2.9018    0.0000 C   0  0  1  0  0  0  0  0  0  0  0  0
    4.3414   -2.0948    0.0000 O   0  0  0  0  0  0  0  0  0  0  0  0
    4.9545   -1.5428    0.0000 C   0  0  1  0  0  0  0  0  0  0  0  0
    4.7830   -0.7358    0.0000 C   0  0  0  0  0  0  0  0  0  0  0  0
    5.3961   -0.1838    0.0000 N   0  0  0  0  0  0  0  0  0  0  0  0
    5.7392   -1.7977    0.0000 C   0  0  1  0  0  0  0  0  0  0  0  0
    6.3523   -1.2457    0.0000 O   0  0  0  0  0  0  0  0  0  0  0  0
    5.9107   -2.6047    0.0000 C   0  0  2  0  0  0  0  0  0  0  0  0
    6.6953   -2.8596    0.0000 O   0  0  0  0  0  0  0  0  0  0  0  0
    5.2976   -3.1567    0.0000 C   0  0  1  0  0  0  0  0  0  0  0  0
    5.4691   -3.9637    0.0000 N   0  0  0  0  0  0  0  0  0  0  0  0
    0.9958   -3.4538    0.0000 O   0  0  0  0  0  0  0  0  0  0  0  0
    0.3827   -2.9018    0.0000 C   0  0  2  0  0  0  0  0  0  0  0  0
   -0.4020   -3.1567    0.0000 C   0  0  1  0  0  0  0  0  0  0  0  0
   -0.5735   -3.9637    0.0000 O   0  0  0  0  0  0  0  0  0  0  0  0
   -1.0150   -2.6047    0.0000 C   0  0  2  0  0  0  0  0  0  0  0  0
   -1.7997   -2.8596    0.0000 N   0  0  0  0  0  0  0  0  0  0  0  0
   -0.8435   -1.7977    0.0000 C   0  0  0  0  0  0  0  0  0  0  0  0
   -0.0589   -1.5428    0.0000 C   0  0  2  0  0  0  0  0  0  0  0  0
    0.1126   -0.7358    0.0000 N   0  0  0  0  0  0  0  0  0  0  0  0
    0.5542   -2.0948    0.0000 C   0  0  1  0  0  0  0  0  0  0  0  0
    1.3388   -1.8399    0.0000 O   0  0  0  0  0  0  0  0  0  0  0  0
    1.5103   -1.0329    0.0000 C   0  0  1  0  0  0  0  0  0  0  0  0
    0.8972   -0.4809    0.0000 O   0  0  0  0  0  0  0  0  0  0  0  0
    1.0688    0.3261    0.0000 C   0  0  2  0  0  0  0  0  0  0  0  0
    0.4557    0.8781    0.0000 C   0  0  0  0  0  0  0  0  0  0  0  0
    0.6272    1.6851    0.0000 O   0  0  0  0  0  0  0  0  0  0  0  0
    1.8534    0.5810    0.0000 C   0  0  1  0  0  0  0  0  0  0  0  0
    2.0249    1.3880    0.0000 O   0  0  0  0  0  0  0  0  0  0  0  0
    2.4665    0.0290    0.0000 C   0  0  2  0  0  0  0  0  0  0  0  0
    3.2511    0.2839    0.0000 O   0  0  0  0  0  0  0  0  0  0  0  0
    2.2950   -0.7780    0.0000 C   0  0  1  0  0  0  0  0  0  0  0  0
    2.9081   -1.3300    0.0000 N   0  0  0  0  0  0  0  0  0  0  0  0
   -3.4368   -4.4113    0.0000 H   0  0  0  0  0  0  0  0  0  0  0  0
   -2.5535   -5.9413    0.0000 H   0  0  0  0  0  0  0  0  0  0  0  0
   -1.8390   -3.4388    0.0000 H   0  0  0  0  0  0  0  0  0  0  0  0
   -0.9124   -3.9738    0.0000 H   0  0  0  0  0  0  0  0  0  0  0  0
   -1.1245   -5.9913    0.0000 H   0  0  0  0  0  0  0  0  0  0  0  0
   -0.1978   -5.4563    0.0000 H   0  0  0  0  0  0  0  0  0  0  0  0
   -0.4101   -3.4388    0.0000 H   0  0  0  0  0  0  0  0  0  0  0  0
    0.5165   -3.9738    0.0000 H   0  0  0  0  0  0  0  0  0  0  0  0
    0.3044   -5.9413    0.0000 H   0  0  0  0  0  0  0  0  0  0  0  0
    1.0189   -3.4388    0.0000 H   0  0  0  0  0  0  0  0  0  0  0  0
    1.9455   -3.9738    0.0000 H   0  0  0  0  0  0  0  0  0  0  0  0
    1.7334   -5.9913    0.0000 H   0  0  0  0  0  0  0  0  0  0  0  0
    2.6601   -5.4563    0.0000 H   0  0  0  0  0  0  0  0  0  0  0  0
    1.4944   -4.1696    0.0000 H   0  0  0  0  0  0  0  0  0  0  0  0
    1.6130   -4.2557    0.0000 H   0  0  0  0  0  0  0  0  0  0  0  0
    2.3745   -1.4609    0.0000 H   0  0  0  0  0  0  0  0  0  0  0  0
    4.4093   -1.8586    0.0000 H   0  0  0  0  0  0  0  0  0  0  0  0
    3.9741   -0.8812    0.0000 H   0  0  0  0  0  0  0  0  0  0  0  0
    3.5799   -0.2085    0.0000 H   0  0  0  0  0  0  0  0  0  0  0  0
    3.8719   -2.4423    0.0000 H   0  0  0  0  0  0  0  0  0  0  0  0
    3.4954   -2.5712    0.0000 H   0  0  0  0  0  0  0  0  0  0  0  0
    3.9369   -1.2121    0.0000 H   0  0  0  0  0  0  0  0  0  0  0  0
    3.7654   -0.4051    0.0000 H   0  0  0  0  0  0  0  0  0  0  0  0
    4.5606    0.3108    0.0000 H   0  0  0  0  0  0  0  0  0  0  0  0
    6.3662   -0.4990    0.0000 H   0  0  0  0  0  0  0  0  0  0  0  0
    5.1841    0.8139    0.0000 H   0  0  0  0  0  0  0  0  0  0  0  0
    5.5167   -0.7511    0.0000 H   0  0  0  0  0  0  0  0  0  0  0  0
    7.2748   -1.5455    0.0000 H   0  0  0  0  0  0  0  0  0  0  0  0
    6.7059   -1.8887    0.0000 H   0  0  0  0  0  0  0  0  0  0  0  0
    6.8970   -3.8084    0.0000 H   0  0  0  0  0  0  0  0  0  0  0  0
    6.3152   -3.4874    0.0000 H   0  0  0  0  0  0  0  0  0  0  0  0
    4.7111   -4.6462    0.0000 H   0  0  0  0  0  0  0  0  0  0  0  0
    6.4392   -4.2789    0.0000 H   0  0  0  0  0  0  0  0  0  0  0  0
    0.1602   -3.9484    0.0000 H   0  0  0  0  0  0  0  0  0  0  0  0
    0.3932   -3.8727    0.0000 H   0  0  0  0  0  0  0  0  0  0  0  0
   -1.4960   -4.2635    0.0000 H   0  0  0  0  0  0  0  0  0  0  0  0
   -1.2375   -3.6513    0.0000 H   0  0  0  0  0  0  0  0  0  0  0  0
   -2.5577   -2.1770    0.0000 H   0  0  0  0  0  0  0  0  0  0  0  0
   -2.0118   -3.8573    0.0000 H   0  0  0  0  0  0  0  0  0  0  0  0
   -1.6387   -1.0817    0.0000 H   0  0  0  0  0  0  0  0  0  0  0  0
   -0.6210   -0.7511    0.0000 H   0  0  0  0  0  0  0  0  0  0  0  0
   -0.8541   -0.8268    0.0000 H   0  0  0  0  0  0  0  0  0  0  0  0
    1.0827   -0.4206    0.0000 H   0  0  0  0  0  0  0  0  0  0  0  0
   -0.6454   -0.0533    0.0000 H   0  0  0  0  0  0  0  0  0  0  0  0
    0.7767   -1.0482    0.0000 H   0  0  0  0  0  0  0  0  0  0  0  0
    0.4927   -1.3636    0.0000 H   0  0  0  0  0  0  0  0  0  0  0  0
    0.0512   -0.0045    0.0000 H   0  0  0  0  0  0  0  0  0  0  0  0
   -0.5619    0.5474    0.0000 H   0  0  0  0  0  0  0  0  0  0  0  0
   -0.3395    1.5940    0.0000 H   0  0  0  0  0  0  0  0  0  0  0  0
    1.5497    1.9849    0.0000 H   0  0  0  0  0  0  0  0  0  0  0  0
    1.0582    1.2970    0.0000 H   0  0  0  0  0  0  0  0  0  0  0  0
    2.9474    1.6878    0.0000 H   0  0  0  0  0  0  0  0  0  0  0  0
    2.6890    1.0756    0.0000 H   0  0  0  0  0  0  0  0  0  0  0  0
    3.9719   -0.3652    0.0000 H   0  0  0  0  0  0  0  0  0  0  0  0
    3.3126   -0.4473    0.0000 H   0  0  0  0  0  0  0  0  0  0  0  0
    2.6961   -2.3277    0.0000 H   0  0  0  0  0  0  0  0  0  0  0  0
    3.8782   -1.0148    0.0000 H   0  0  0  0  0  0  0  0  0  0  0  0
  1  2  1  0  0  0  0
  1 50  1  0  0  0  0
  1 51  1  0  0  0  0
  2  3  1  0  0  0  0
  2 52  1  0  0  0  0
  2 53  1  0  0  0  0
  3  4  1  0  0  0  0
  3 54  1  0  0  0  0
  3 55  1  0  0  0  0
  4  5  1  0  0  0  0
  4 56  1  0  0  0  0
  4 57  1  0  0  0  0
  5  6  1  0  0  0  0
  5 58  1  0  0  0  0
  6  7  1  0  0  0  0
  6 59  1  0  0  0  0
  6 60  1  0  0  0  0
  7  8  1  0  0  0  0
  7 61  1  0  0  0  0
  7 62  1  0  0  0  0
  9  8  1  0  0  0  0
  9 10  1  0  0  0  0
  9 15  1  0  0  0  0
  9 63  1  6  0  0  0
 10 11  1  0  0  0  0
 10 28  1  0  0  0  0
 10 64  1  1  0  0  0
 11 12  1  0  0  0  0
 12 13  1  0  0  0  0
 12 15  1  0  0  0  0
 12 65  1  1  0  0  0
 13 14  1  0  0  0  0
 13 66  1  0  0  0  0
 13 67  1  0  0  0  0
 14 68  1  0  0  0  0
 15 16  1  0  0  0  0
 15 69  1  6  0  0  0
 17 16  1  0  0  0  0
 17 18  1  0  0  0  0
 17 26  1  0  0  0  0
 17 70  1  6  0  0  0
 18 19  1  0  0  0  0
 19 20  1  0  0  0  0
 19 22  1  0  0  0  0
 19 71  1  6  0  0  0
 20 21  1  0  0  0  0
 20 72  1  0  0  0  0
 20 73  1  0  0  0  0
 21 74  1  0  0  0  0
 21 75  1  0  0  0  0
 22 23  1  0  0  0  0
 22 24  1  0  0  0  0
 22 76  1  6  0  0  0
 23 77  1  0  0  0  0
 24 25  1  0  0  0  0
 24 26  1  0  0  0  0
 24 78  1  1  0  0  0
 25 79  1  0  0  0  0
 26 27  1  0  0  0  0
 26 80  1  6  0  0  0
 27 81  1  0  0  0  0
 27 82  1  0  0  0  0
 29 28  1  0  0  0  0
 29 30  1  0  0  0  0
 29 37  1  0  0  0  0
 29 83  1  1  0  0  0
 30 31  1  0  0  0  0
 30 32  1  0  0  0  0
 30 84  1  6  0  0  0
 31 85  1  0  0  0  0
 32 33  1  0  0  0  0
 32 34  1  0  0  0  0
 32 86  1  1  0  0  0
 33 87  1  0  0  0  0
 33 88  1  0  0  0  0
 34 35  1  0  0  0  0
 34 89  1  0  0  0  0
 34 90  1  0  0  0  0
 35 36  1  0  0  0  0
 35 37  1  0  0  0  0
 35 91  1  1  0  0  0
 36 92  1  0  0  0  0
 36 93  1  0  0  0  0
 37 38  1  0  0  0  0
 37 94  1  6  0  0  0
 39 38  1  0  0  0  0
 39 40  1  0  0  0  0
 39 48  1  0  0  0  0
 39 95  1  6  0  0  0
 40 41  1  0  0  0  0
 41 42  1  0  0  0  0
 41 44  1  0  0  0  0
 41 96  1  1  0  0  0
 42 43  1  0  0  0  0
 42 97  1  0  0  0  0
 42 98  1  0  0  0  0
 43 99  1  0  0  0  0
 44 45  1  0  0  0  0
 44 46  1  0  0  0  0
 44100  1  6  0  0  0
 45101  1  0  0  0  0
 46 47  1  0  0  0  0
 46 48  1  0  0  0  0
 46102  1  1  0  0  0
 47103  1  0  0  0  0
 48 49  1  0  0  0  0
 48104  1  6  0  0  0
 49105  1  0  0  0  0
 49106  1  0  0  0  0
M  END
>  <DRUGBANK_ID>
DB04717

>  <COMMON_NAME>
2''-O-[N-(3-(aminopropyl)2-aminoethyl]paromomycin

$$$$
