M3C
 OpenBabel10282417072D

 28 28  0  0  0  0  0  0  0  0999 V2000
    0.2329    1.1480    0.0000 N   0  0  0  0  0  0  0  0  0  0  0  0
    0.2329    0.3230    0.0000 C   0  0  1  0  0  0  0  0  0  0  0  0
   -0.4816   -0.0895    0.0000 C   0  0  0  0  0  0  0  0  0  0  0  0
   -1.1961    0.3230    0.0000 C   0  0  0  0  0  0  0  0  0  0  0  0
   -1.9106   -0.0895    0.0000 S   0  0  0  0  0  0  0  0  0  0  0  0
   -2.6250    0.3230    0.0000 C   0  0  0  0  0  0  0  0  0  0  0  0
    0.9473   -0.0895    0.0000 C   0  0  0  0  0  0  0  0  0  0  0  0
    0.5348   -0.8040    0.0000 O   0  0  0  0  0  0  0  0  0  0  0  0
    1.3598    0.6250    0.0000 O   0  0  0  0  0  0  0  0  0  0  0  0
    1.6618   -0.5020    0.0000 C   0  0  0  0  0  0  0  0  0  0  0  0
    2.4155   -0.1664    0.0000 N   0  0  0  0  0  0  0  0  0  0  0  0
    2.9675   -0.7795    0.0000 C   0  0  0  0  0  0  0  0  0  0  0  0
    2.5550   -1.4940    0.0000 C   0  0  0  0  0  0  0  0  0  0  0  0
    1.7480   -1.3225    0.0000 S   0  0  0  0  0  0  0  0  0  0  0  0
   -0.2728    0.6150    0.0000 H   0  0  0  0  0  0  0  0  0  0  0  0
    1.1162    1.6580    0.0000 H   0  0  0  0  0  0  0  0  0  0  0  0
   -0.6504    1.6580    0.0000 H   0  0  0  0  0  0  0  0  0  0  0  0
   -0.4816   -1.1595    0.0000 H   0  0  0  0  0  0  0  0  0  0  0  0
   -1.4082   -0.6245    0.0000 H   0  0  0  0  0  0  0  0  0  0  0  0
   -1.1961    1.3930    0.0000 H   0  0  0  0  0  0  0  0  0  0  0  0
   -2.1227    0.8580    0.0000 H   0  0  0  0  0  0  0  0  0  0  0  0
   -2.6250    1.3930    0.0000 H   0  0  0  0  0  0  0  0  0  0  0  0
   -3.5517   -0.2120    0.0000 H   0  0  0  0  0  0  0  0  0  0  0  0
   -3.5516    0.8580    0.0000 H   0  0  0  0  0  0  0  0  0  0  0  0
   -0.4022   -0.8040    0.0000 H   0  0  0  0  0  0  0  0  0  0  0  0
    2.2968    0.6250    0.0000 H   0  0  0  0  0  0  0  0  0  0  0  0
    3.9938   -0.6716    0.0000 H   0  0  0  0  0  0  0  0  0  0  0  0
    2.9748   -2.4368    0.0000 H   0  0  0  0  0  0  0  0  0  0  0  0
  1 16  1  0  0  0  0
  1 17  1  0  0  0  0
  2  1  1  0  0  0  0
  2  3  1  0  0  0  0
  2  7  1  0  0  0  0
  2 15  1  1  0  0  0
  3  4  1  0  0  0  0
  3 18  1  0  0  0  0
  3 19  1  0  0  0  0
  4  5  1  0  0  0  0
  4 20  1  0  0  0  0
  4 21  1  0  0  0  0
  5  6  1  0  0  0  0
  6 22  1  0  0  0  0
  6 23  1  0  0  0  0
  6 24  1  0  0  0  0
  7  8  1  0  0  0  0
  7  9  1  0  0  0  0
  7 10  1  0  0  0  0
  8 25  1  0  0  0  0
  9 26  1  0  0  0  0
 10 11  2  0  0  0  0
 10 14  1  0  0  0  0
 11 12  1  0  0  0  0
 12 13  2  0  0  0  0
 12 27  1  0  0  0  0
 13 14  1  0  0  0  0
 13 28  1  0  0  0  0
M  END
>  <DRUGBANK_ID>
DB08160

>  <COMMON_NAME>
(2S)-2-AMINO-4-(METHYLSULFANYL)-1-(1,3-THIAZOL-2-YL)BUTANE-1,1-DIOL

$$$$
