
 OpenBabel10282417072D

 49 50  0  0  0  0  0  0  0  0999 V2000
   -3.9295    0.0000    0.0000 C   0  0  0  0  0  0  0  0  0  0  0  0
   -4.6440   -0.4125    0.0000 C   0  0  0  0  0  0  0  0  0  0  0  0
   -5.3585   -0.8250    0.0000 F   0  0  0  0  0  0  0  0  0  0  0  0
   -4.2315   -1.1269    0.0000 F   0  0  0  0  0  0  0  0  0  0  0  0
   -5.0565    0.3020    0.0000 F   0  0  0  0  0  0  0  0  0  0  0  0
   -3.9295    0.8250    0.0000 C   0  0  0  0  0  0  0  0  0  0  0  0
   -4.6440    1.2375    0.0000 N   0  3  0  0  0  0  0  0  0  0  0  0
   -5.3585    0.8250    0.0000 O   0  5  0  0  0  0  0  0  0  0  0  0
   -4.6440    2.0625    0.0000 O   0  0  0  0  0  0  0  0  0  0  0  0
   -3.2151    1.2375    0.0000 C   0  0  0  0  0  0  0  0  0  0  0  0
   -2.5006    0.8250    0.0000 C   0  0  0  0  0  0  0  0  0  0  0  0
   -2.5006    0.0000    0.0000 C   0  0  0  0  0  0  0  0  0  0  0  0
   -1.7861   -0.4125    0.0000 N   0  0  0  0  0  0  0  0  0  0  0  0
   -1.0717    0.0000    0.0000 C   0  0  0  0  0  0  0  0  0  0  0  0
   -0.3572   -0.4125    0.0000 C   0  0  2  0  0  0  0  0  0  0  0  0
    0.3572   -0.8250    0.0000 C   0  0  0  0  0  0  0  0  0  0  0  0
    1.0717   -0.4125    0.0000 O   0  0  0  0  0  0  0  0  0  0  0  0
    1.7861   -0.8250    0.0000 C   0  0  0  0  0  0  0  0  0  0  0  0
    2.5006   -0.4125    0.0000 C   0  0  0  0  0  0  0  0  0  0  0  0
    3.2151   -0.8250    0.0000 C   0  0  0  0  0  0  0  0  0  0  0  0
    3.2151   -1.6499    0.0000 C   0  0  0  0  0  0  0  0  0  0  0  0
    3.9295   -2.0625    0.0000 N   0  0  0  0  0  0  0  0  0  0  0  0
    4.6440   -1.6499    0.0000 C   0  0  0  0  0  0  0  0  0  0  0  0
    5.3585   -2.0625    0.0000 C   0  0  0  0  0  0  0  0  0  0  0  0
    4.6440   -0.8250    0.0000 O   0  0  0  0  0  0  0  0  0  0  0  0
    2.5006   -2.0625    0.0000 C   0  0  0  0  0  0  0  0  0  0  0  0
    1.7861   -1.6499    0.0000 C   0  0  0  0  0  0  0  0  0  0  0  0
    0.0552    0.3020    0.0000 O   0  0  0  0  0  0  0  0  0  0  0  0
   -0.7697   -1.1269    0.0000 C   0  0  0  0  0  0  0  0  0  0  0  0
   -1.0717    0.8250    0.0000 O   0  0  0  0  0  0  0  0  0  0  0  0
   -3.2151   -0.4125    0.0000 C   0  0  0  0  0  0  0  0  0  0  0  0
   -3.2151    2.2695    0.0000 H   0  0  0  0  0  0  0  0  0  0  0  0
   -1.6069    1.3410    0.0000 H   0  0  0  0  0  0  0  0  0  0  0  0
   -1.7861   -1.3970    0.0000 H   0  0  0  0  0  0  0  0  0  0  0  0
    0.3572   -1.8950    0.0000 H   0  0  0  0  0  0  0  0  0  0  0  0
    1.2838   -1.3600    0.0000 H   0  0  0  0  0  0  0  0  0  0  0  0
    2.5006    0.6195    0.0000 H   0  0  0  0  0  0  0  0  0  0  0  0
    4.1088   -0.3090    0.0000 H   0  0  0  0  0  0  0  0  0  0  0  0
    3.9295   -3.0470    0.0000 H   0  0  0  0  0  0  0  0  0  0  0  0
    5.3584   -3.1325    0.0000 H   0  0  0  0  0  0  0  0  0  0  0  0
    6.2852   -1.5276    0.0000 H   0  0  0  0  0  0  0  0  0  0  0  0
    6.2851   -2.5976    0.0000 H   0  0  0  0  0  0  0  0  0  0  0  0
    2.5006   -3.0945    0.0000 H   0  0  0  0  0  0  0  0  0  0  0  0
    0.8923   -2.1659    0.0000 H   0  0  0  0  0  0  0  0  0  0  0  0
    1.0252    0.3021    0.0000 H   0  0  0  0  0  0  0  0  0  0  0  0
   -1.8397   -1.1269    0.0000 H   0  0  0  0  0  0  0  0  0  0  0  0
   -0.2347   -2.0536    0.0000 H   0  0  0  0  0  0  0  0  0  0  0  0
   -1.3047   -2.0535    0.0000 H   0  0  0  0  0  0  0  0  0  0  0  0
   -3.2151   -1.4445    0.0000 H   0  0  0  0  0  0  0  0  0  0  0  0
  2  1  1  0  0  0  0
  3  2  1  0  0  0  0
  4  2  1  0  0  0  0
  5  2  1  0  0  0  0
  6  1  1  0  0  0  0
  7  6  1  0  0  0  0
  8  7  1  0  0  0  0
  9  7  2  0  0  0  0
 10  6  2  0  0  0  0
 10 32  1  0  0  0  0
 11 10  1  0  0  0  0
 11 12  2  0  0  0  0
 11 33  1  0  0  0  0
 12 31  1  0  0  0  0
 13 12  1  0  0  0  0
 13 34  1  0  0  0  0
 14 13  1  0  0  0  0
 15 14  1  1  0  0  0
 15 28  1  0  0  0  0
 15 29  1  0  0  0  0
 16 15  1  0  0  0  0
 16 35  1  0  0  0  0
 16 36  1  0  0  0  0
 17 16  1  0  0  0  0
 18 17  1  0  0  0  0
 19 18  1  0  0  0  0
 19 37  1  0  0  0  0
 20 19  2  0  0  0  0
 20 38  1  0  0  0  0
 21 20  1  0  0  0  0
 21 26  2  0  0  0  0
 22 21  1  0  0  0  0
 22 39  1  0  0  0  0
 23 22  1  0  0  0  0
 24 23  1  0  0  0  0
 24 40  1  0  0  0  0
 24 41  1  0  0  0  0
 24 42  1  0  0  0  0
 25 23  2  0  0  0  0
 26 27  1  0  0  0  0
 26 43  1  0  0  0  0
 27 18  2  0  0  0  0
 27 44  1  0  0  0  0
 28 45  1  0  0  0  0
 29 46  1  0  0  0  0
 29 47  1  0  0  0  0
 29 48  1  0  0  0  0
 30 14  2  0  0  0  0
 31  1  2  0  0  0  0
 31 49  1  0  0  0  0
M  CHG  2   7   1   8  -1
M  END
>  <DRUGBANK_ID>
DB07423

>  <COMMON_NAME>
Andarine

>  <CAS_NUMBER>
401900-40-1

>  <UNII>
7UT2HAH49H

>  <SYNONYMS>
(2S)-3-(4-acetamidophenoxy)-2-hydroxy-2-methyl-N-[4-nitro-3-(trifluoromethyl)phenyl]propanamide

$$$$
