
 OpenBabel10282417072D

144145  0  0  1  0  0  0  0  0999 V2000
   -3.6632   -6.8849    0.0000 C   0  0  0  0  0  0  0  0  0  0  0  0
   -4.2868   -7.4250    0.0000 S   0  0  0  0  0  0  0  0  0  0  0  0
   -4.1309   -8.2351    0.0000 C   0  0  0  0  0  0  0  0  0  0  0  0
   -4.7546   -8.7752    0.0000 C   0  0  0  0  0  0  0  0  0  0  0  0
   -4.5986   -9.5854    0.0000 C   0  0  2  0  0  0  0  0  0  0  0  0
   -5.2223  -10.1254    0.0000 N   0  0  0  0  0  0  0  0  0  0  0  0
   -6.0018   -9.8554    0.0000 C   0  0  0  0  0  0  0  0  0  0  0  0
   -6.1577   -9.0453    0.0000 O   0  0  0  0  0  0  0  0  0  0  0  0
   -6.6255  -10.3955    0.0000 C   0  0  2  0  0  0  0  0  0  0  0  0
   -6.5551  -11.2175    0.0000 C   0  0  0  0  0  0  0  0  0  0  0  0
   -7.3151  -11.5384    0.0000 C   0  0  0  0  0  0  0  0  0  0  0  0
   -7.8552  -10.9148    0.0000 C   0  0  0  0  0  0  0  0  0  0  0  0
   -7.4290  -10.2084    0.0000 N   0  0  0  0  0  0  0  0  0  0  0  0
   -7.7499   -9.4484    0.0000 C   0  0  0  0  0  0  0  0  0  0  0  0
   -7.2522   -8.7904    0.0000 O   0  0  0  0  0  0  0  0  0  0  0  0
   -8.5686   -9.3463    0.0000 C   0  0  2  0  0  0  0  0  0  0  0  0
   -9.0663  -10.0043    0.0000 C   0  0  0  0  0  0  0  0  0  0  0  0
   -9.8850   -9.9022    0.0000 O   0  0  0  0  0  0  0  0  0  0  0  0
   -8.8895   -8.5863    0.0000 N   0  0  0  0  0  0  0  0  0  0  0  0
   -9.7082   -8.4842    0.0000 C   0  0  0  0  0  0  0  0  0  0  0  0
  -10.2059   -9.1422    0.0000 O   0  0  0  0  0  0  0  0  0  0  0  0
  -10.0291   -7.7242    0.0000 C   0  0  1  0  0  0  0  0  0  0  0  0
  -10.8478   -7.6222    0.0000 C   0  0  0  0  0  0  0  0  0  0  0  0
   -9.5314   -7.0663    0.0000 N   0  0  0  0  0  0  0  0  0  0  0  0
   -3.8191   -9.8554    0.0000 C   0  0  0  0  0  0  0  0  0  0  0  0
   -3.6632  -10.6655    0.0000 O   0  0  0  0  0  0  0  0  0  0  0  0
   -3.1955   -9.3153    0.0000 N   0  0  0  0  0  0  0  0  0  0  0  0
   -2.4159   -9.5854    0.0000 C   0  0  1  0  0  0  0  0  0  0  0  0
   -2.2600  -10.3955    0.0000 C   0  0  0  0  0  0  0  0  0  0  0  0
   -1.4804  -10.6655    0.0000 C   0  0  0  0  0  0  0  0  0  0  0  0
   -0.8568  -10.1254    0.0000 C   0  0  0  0  0  0  0  0  0  0  0  0
   -1.3245  -11.4757    0.0000 C   0  0  0  0  0  0  0  0  0  0  0  0
   -1.7923   -9.0453    0.0000 C   0  0  0  0  0  0  0  0  0  0  0  0
   -1.9482   -8.2351    0.0000 O   0  0  0  0  0  0  0  0  0  0  0  0
   -1.0127   -9.3153    0.0000 N   0  0  0  0  0  0  0  0  0  0  0  0
   -0.3891   -8.7752    0.0000 C   0  0  1  0  0  0  0  0  0  0  0  0
   -0.5450   -7.9651    0.0000 C   0  0  0  0  0  0  0  0  0  0  0  0
    0.0787   -7.4250    0.0000 C   0  0  0  0  0  0  0  0  0  0  0  0
   -1.3245   -7.6950    0.0000 C   0  0  0  0  0  0  0  0  0  0  0  0
    0.3905   -9.0453    0.0000 C   0  0  0  0  0  0  0  0  0  0  0  0
    0.5464   -9.8554    0.0000 O   0  0  0  0  0  0  0  0  0  0  0  0
    1.0141   -8.5052    0.0000 N   0  0  0  0  0  0  0  0  0  0  0  0
    1.7937   -8.7752    0.0000 C   0  0  1  0  0  0  0  0  0  0  0  0
    1.9496   -9.5854    0.0000 C   0  0  0  0  0  0  0  0  0  0  0  0
    2.4173   -8.2351    0.0000 C   0  0  0  0  0  0  0  0  0  0  0  0
    2.2614   -7.4250    0.0000 O   0  0  0  0  0  0  0  0  0  0  0  0
    3.1969   -8.5052    0.0000 N   0  0  0  0  0  0  0  0  0  0  0  0
    3.8205   -7.9651    0.0000 C   0  0  1  0  0  0  0  0  0  0  0  0
    3.6646   -7.1550    0.0000 C   0  0  0  0  0  0  0  0  0  0  0  0
    4.2882   -6.6149    0.0000 C   0  0  0  0  0  0  0  0  0  0  0  0
    4.1323   -5.8047    0.0000 C   0  0  0  0  0  0  0  0  0  0  0  0
    4.7560   -5.2646    0.0000 C   0  0  0  0  0  0  0  0  0  0  0  0
    5.5355   -5.5347    0.0000 C   0  0  0  0  0  0  0  0  0  0  0  0
    6.1592   -4.9946    0.0000 O   0  0  0  0  0  0  0  0  0  0  0  0
    5.6914   -6.3448    0.0000 C   0  0  0  0  0  0  0  0  0  0  0  0
    5.0678   -6.8849    0.0000 C   0  0  0  0  0  0  0  0  0  0  0  0
    4.6001   -8.2351    0.0000 C   0  0  0  0  0  0  0  0  0  0  0  0
    4.7560   -9.0453    0.0000 O   0  0  0  0  0  0  0  0  0  0  0  0
    5.2237   -7.6950    0.0000 N   0  0  0  0  0  0  0  0  0  0  0  0
    6.0033   -7.9651    0.0000 C   0  0  1  0  0  0  0  0  0  0  0  0
    6.1592   -8.7752    0.0000 C   0  0  0  0  0  0  0  0  0  0  0  0
    6.9387   -9.0453    0.0000 C   0  0  0  0  0  0  0  0  0  0  0  0
    7.5624   -8.5052    0.0000 O   0  0  0  0  0  0  0  0  0  0  0  0
    7.0946   -9.8554    0.0000 O   0  0  0  0  0  0  0  0  0  0  0  0
    6.6269   -7.4250    0.0000 C   0  0  0  0  0  0  0  0  0  0  0  0
    6.4710   -6.6149    0.0000 O   0  0  0  0  0  0  0  0  0  0  0  0
    7.4065   -7.6950    0.0000 N   0  0  0  0  0  0  0  0  0  0  0  0
    8.0301   -7.1550    0.0000 C   0  0  2  0  0  0  0  0  0  0  0  0
    7.8742   -6.3448    0.0000 C   0  0  0  0  0  0  0  0  0  0  0  0
    8.8096   -7.4250    0.0000 C   0  0  0  0  0  0  0  0  0  0  0  0
    9.4333   -6.8849    0.0000 O   0  0  0  0  0  0  0  0  0  0  0  0
    8.9656   -8.2351    0.0000 O   0  0  0  0  0  0  0  0  0  0  0  0
   -2.6521   -7.2351    0.0000 H   0  0  0  0  0  0  0  0  0  0  0  0
   -3.8655   -5.8342    0.0000 H   0  0  0  0  0  0  0  0  0  0  0  0
   -2.8544   -6.1844    0.0000 H   0  0  0  0  0  0  0  0  0  0  0  0
   -3.1199   -8.5854    0.0000 H   0  0  0  0  0  0  0  0  0  0  0  0
   -3.9287   -9.2858    0.0000 H   0  0  0  0  0  0  0  0  0  0  0  0
   -5.7657   -8.4250    0.0000 H   0  0  0  0  0  0  0  0  0  0  0  0
   -5.5634   -9.4757    0.0000 H   0  0  0  0  0  0  0  0  0  0  0  0
   -5.6096   -9.2351    0.0000 H   0  0  0  0  0  0  0  0  0  0  0  0
   -5.0363  -11.0922    0.0000 H   0  0  0  0  0  0  0  0  0  0  0  0
   -5.6342  -10.7982    0.0000 H   0  0  0  0  0  0  0  0  0  0  0  0
   -5.6390  -11.7703    0.0000 H   0  0  0  0  0  0  0  0  0  0  0  0
   -6.6317  -12.2848    0.0000 H   0  0  0  0  0  0  0  0  0  0  0  0
   -7.5577  -12.5805    0.0000 H   0  0  0  0  0  0  0  0  0  0  0  0
   -8.3538  -11.7953    0.0000 H   0  0  0  0  0  0  0  0  0  0  0  0
   -8.9213  -11.0061    0.0000 H   0  0  0  0  0  0  0  0  0  0  0  0
   -8.4206  -10.0064    0.0000 H   0  0  0  0  0  0  0  0  0  0  0  0
   -7.9230   -8.4930    0.0000 H   0  0  0  0  0  0  0  0  0  0  0  0
   -8.6500  -10.9900    0.0000 H   0  0  0  0  0  0  0  0  0  0  0  0
   -9.7118  -10.8576    0.0000 H   0  0  0  0  0  0  0  0  0  0  0  0
  -10.2623   -9.0086    0.0000 H   0  0  0  0  0  0  0  0  0  0  0  0
   -8.2955   -7.8012    0.0000 H   0  0  0  0  0  0  0  0  0  0  0  0
   -8.9673   -7.8566    0.0000 H   0  0  0  0  0  0  0  0  0  0  0  0
  -11.2641   -6.6365    0.0000 H   0  0  0  0  0  0  0  0  0  0  0  0
  -11.4933   -8.4756    0.0000 H   0  0  0  0  0  0  0  0  0  0  0  0
  -11.9096   -7.4899    0.0000 H   0  0  0  0  0  0  0  0  0  0  0  0
   -8.5192   -7.1925    0.0000 H   0  0  0  0  0  0  0  0  0  0  0  0
   -9.9282   -6.1266    0.0000 H   0  0  0  0  0  0  0  0  0  0  0  0
   -3.3816   -8.3485    0.0000 H   0  0  0  0  0  0  0  0  0  0  0  0
   -3.2248  -10.2859    0.0000 H   0  0  0  0  0  0  0  0  0  0  0  0
   -3.0688  -11.0960    0.0000 H   0  0  0  0  0  0  0  0  0  0  0  0
   -2.0577  -11.4462    0.0000 H   0  0  0  0  0  0  0  0  0  0  0  0
   -0.4693  -11.0157    0.0000 H   0  0  0  0  0  0  0  0  0  0  0  0
    0.1543  -10.4756    0.0000 H   0  0  0  0  0  0  0  0  0  0  0  0
   -1.0591   -9.0747    0.0000 H   0  0  0  0  0  0  0  0  0  0  0  0
   -0.0480   -9.4249    0.0000 H   0  0  0  0  0  0  0  0  0  0  0  0
   -2.1334  -12.1762    0.0000 H   0  0  0  0  0  0  0  0  0  0  0  0
   -0.3135  -11.8260    0.0000 H   0  0  0  0  0  0  0  0  0  0  0  0
   -1.1223  -12.5264    0.0000 H   0  0  0  0  0  0  0  0  0  0  0  0
   -0.8266  -10.2820    0.0000 H   0  0  0  0  0  0  0  0  0  0  0  0
   -1.4002   -8.4250    0.0000 H   0  0  0  0  0  0  0  0  0  0  0  0
   -0.7471   -6.9144    0.0000 H   0  0  0  0  0  0  0  0  0  0  0  0
    1.0897   -7.7753    0.0000 H   0  0  0  0  0  0  0  0  0  0  0  0
   -0.1235   -6.3743    0.0000 H   0  0  0  0  0  0  0  0  0  0  0  0
    0.8876   -6.7246    0.0000 H   0  0  0  0  0  0  0  0  0  0  0  0
   -1.5266   -6.6443    0.0000 H   0  0  0  0  0  0  0  0  0  0  0  0
   -2.1334   -8.3954    0.0000 H   0  0  0  0  0  0  0  0  0  0  0  0
   -2.3355   -7.3447    0.0000 H   0  0  0  0  0  0  0  0  0  0  0  0
    0.8280   -7.5385    0.0000 H   0  0  0  0  0  0  0  0  0  0  0  0
    0.9849   -9.4757    0.0000 H   0  0  0  0  0  0  0  0  0  0  0  0
    1.1407  -10.2859    0.0000 H   0  0  0  0  0  0  0  0  0  0  0  0
    2.9606   -9.9357    0.0000 H   0  0  0  0  0  0  0  0  0  0  0  0
    2.1518  -10.6361    0.0000 H   0  0  0  0  0  0  0  0  0  0  0  0
    3.3830   -9.4720    0.0000 H   0  0  0  0  0  0  0  0  0  0  0  0
    2.8094   -7.6149    0.0000 H   0  0  0  0  0  0  0  0  0  0  0  0
    2.6535   -6.8048    0.0000 H   0  0  0  0  0  0  0  0  0  0  0  0
    3.4624   -6.1043    0.0000 H   0  0  0  0  0  0  0  0  0  0  0  0
    3.1572   -5.4669    0.0000 H   0  0  0  0  0  0  0  0  0  0  0  0
    4.5610   -4.2512    0.0000 H   0  0  0  0  0  0  0  0  0  0  0  0
    7.0446   -5.3013    0.0000 H   0  0  0  0  0  0  0  0  0  0  0  0
    6.6666   -6.6826    0.0000 H   0  0  0  0  0  0  0  0  0  0  0  0
    5.2629   -7.8983    0.0000 H   0  0  0  0  0  0  0  0  0  0  0  0
    5.0376   -6.7282    0.0000 H   0  0  0  0  0  0  0  0  0  0  0  0
    5.1944   -8.6656    0.0000 H   0  0  0  0  0  0  0  0  0  0  0  0
    5.3503   -9.4756    0.0000 H   0  0  0  0  0  0  0  0  0  0  0  0
    6.3613   -9.8259    0.0000 H   0  0  0  0  0  0  0  0  0  0  0  0
    8.4478   -8.8119    0.0000 H   0  0  0  0  0  0  0  0  0  0  0  0
    7.5926   -8.6618    0.0000 H   0  0  0  0  0  0  0  0  0  0  0  0
    7.0191   -6.8047    0.0000 H   0  0  0  0  0  0  0  0  0  0  0  0
    8.6831   -5.6443    0.0000 H   0  0  0  0  0  0  0  0  0  0  0  0
    6.8632   -5.9945    0.0000 H   0  0  0  0  0  0  0  0  0  0  0  0
    7.6720   -5.2941    0.0000 H   0  0  0  0  0  0  0  0  0  0  0  0
   10.3187   -7.1916    0.0000 H   0  0  0  0  0  0  0  0  0  0  0  0
  1  2  1  0  0  0  0
  1 73  1  0  0  0  0
  1 74  1  0  0  0  0
  1 75  1  0  0  0  0
  2  3  1  0  0  0  0
  3  4  1  0  0  0  0
  3 76  1  0  0  0  0
  3 77  1  0  0  0  0
  4 78  1  0  0  0  0
  4 79  1  0  0  0  0
  5  4  1  0  0  0  0
  5  6  1  0  0  0  0
  5 25  1  0  0  0  0
  5 80  1  6  0  0  0
  6  7  1  0  0  0  0
  6 81  1  0  0  0  0
  7  8  2  0  0  0  0
  9  7  1  0  0  0  0
  9 10  1  0  0  0  0
  9 13  1  0  0  0  0
  9 82  1  1  0  0  0
 10 11  1  0  0  0  0
 10 83  1  0  0  0  0
 10 84  1  0  0  0  0
 11 12  1  0  0  0  0
 11 85  1  0  0  0  0
 11 86  1  0  0  0  0
 12 13  1  0  0  0  0
 12 87  1  0  0  0  0
 12 88  1  0  0  0  0
 13 14  1  0  0  0  0
 14 15  2  0  0  0  0
 16 14  1  0  0  0  0
 16 17  1  0  0  0  0
 16 19  1  0  0  0  0
 16 89  1  1  0  0  0
 17 18  1  0  0  0  0
 17 90  1  0  0  0  0
 17 91  1  0  0  0  0
 18 92  1  0  0  0  0
 19 20  1  0  0  0  0
 19 93  1  0  0  0  0
 20 21  2  0  0  0  0
 22 20  1  0  0  0  0
 22 23  1  0  0  0  0
 22 24  1  0  0  0  0
 22 94  1  6  0  0  0
 23 95  1  0  0  0  0
 23 96  1  0  0  0  0
 23 97  1  0  0  0  0
 24 98  1  0  0  0  0
 24 99  1  0  0  0  0
 25 26  2  0  0  0  0
 25 27  1  0  0  0  0
 27100  1  0  0  0  0
 28 27  1  0  0  0  0
 28 29  1  0  0  0  0
 28 33  1  0  0  0  0
 28101  1  1  0  0  0
 29 30  1  0  0  0  0
 29102  1  0  0  0  0
 29103  1  0  0  0  0
 30 31  1  0  0  0  0
 30 32  1  0  0  0  0
 30104  1  0  0  0  0
 31105  1  0  0  0  0
 31106  1  0  0  0  0
 31107  1  0  0  0  0
 32108  1  0  0  0  0
 32109  1  0  0  0  0
 32110  1  0  0  0  0
 33 34  2  0  0  0  0
 33 35  1  0  0  0  0
 35111  1  0  0  0  0
 36 35  1  0  0  0  0
 36 37  1  0  0  0  0
 36 40  1  0  0  0  0
 36112  1  6  0  0  0
 37 38  1  0  0  0  0
 37 39  1  0  0  0  0
 37113  1  0  0  0  0
 38114  1  0  0  0  0
 38115  1  0  0  0  0
 38116  1  0  0  0  0
 39117  1  0  0  0  0
 39118  1  0  0  0  0
 39119  1  0  0  0  0
 40 41  2  0  0  0  0
 40 42  1  0  0  0  0
 42120  1  0  0  0  0
 43 42  1  0  0  0  0
 43 44  1  0  0  0  0
 43 45  1  0  0  0  0
 43121  1  1  0  0  0
 44122  1  0  0  0  0
 44123  1  0  0  0  0
 44124  1  0  0  0  0
 45 46  2  0  0  0  0
 45 47  1  0  0  0  0
 47125  1  0  0  0  0
 48 47  1  0  0  0  0
 48 49  1  0  0  0  0
 48 57  1  0  0  0  0
 48126  1  6  0  0  0
 49 50  1  0  0  0  0
 49127  1  0  0  0  0
 49128  1  0  0  0  0
 50 51  2  0  0  0  0
 50 56  1  0  0  0  0
 51 52  1  0  0  0  0
 51129  1  0  0  0  0
 52 53  2  0  0  0  0
 52130  1  0  0  0  0
 53 54  1  0  0  0  0
 53 55  1  0  0  0  0
 54131  1  0  0  0  0
 55 56  2  0  0  0  0
 55132  1  0  0  0  0
 56133  1  0  0  0  0
 57 58  2  0  0  0  0
 57 59  1  0  0  0  0
 59134  1  0  0  0  0
 60 59  1  0  0  0  0
 60 61  1  0  0  0  0
 60 65  1  0  0  0  0
 60135  1  1  0  0  0
 61 62  1  0  0  0  0
 61136  1  0  0  0  0
 61137  1  0  0  0  0
 62 63  1  0  0  0  0
 62 64  2  0  0  0  0
 63138  1  0  0  0  0
 65 66  2  0  0  0  0
 65 67  1  0  0  0  0
 67139  1  0  0  0  0
 68 67  1  0  0  0  0
 68 69  1  0  0  0  0
 68 70  1  0  0  0  0
 68140  1  1  0  0  0
 69141  1  0  0  0  0
 69142  1  0  0  0  0
 69143  1  0  0  0  0
 70 71  1  0  0  0  0
 70 72  2  0  0  0  0
 71144  1  0  0  0  0
M  END
>  <DRUGBANK_ID>
DB16687

>  <COMMON_NAME>
Reltecimod

>  <CAS_NUMBER>
1447799-33-8

>  <UNII>
U00J02UY29

>  <SYNONYMS>
D-alanyl-L-seryl-L-prolyl-L-methionyl-L-leucyl-L-valyl-L-alanyl-L-tyrosyl-L-aspartyl-D-alanine

$$$$
