
 OpenBabel10282417072D

 56 58  0  0  1  0  0  0  0  0999 V2000
   -4.7177   -8.0472    0.0000 C   0  0  0  0  0  0  0  0  0  0  0  0
   -5.2026   -7.3797    0.0000 C   0  0  0  0  0  0  0  0  0  0  0  0
   -4.8670   -6.6260    0.0000 C   0  0  0  0  0  0  0  0  0  0  0  0
   -5.3519   -5.9586    0.0000 N   0  0  0  0  0  0  0  0  0  0  0  0
   -5.0164   -5.2049    0.0000 C   0  0  0  0  0  0  0  0  0  0  0  0
   -5.4289   -4.4905    0.0000 N   0  0  0  0  0  0  0  0  0  0  0  0
   -4.8768   -3.8774    0.0000 C   0  0  0  0  0  0  0  0  0  0  0  0
   -5.0484   -3.0704    0.0000 O   0  0  0  0  0  0  0  0  0  0  0  0
   -4.1232   -4.2129    0.0000 C   0  0  0  0  0  0  0  0  0  0  0  0
   -3.4087   -3.8004    0.0000 C   0  0  0  0  0  0  0  0  0  0  0  0
   -2.6942   -4.2129    0.0000 C   0  0  0  0  0  0  0  0  0  0  0  0
   -1.9798   -3.8004    0.0000 C   0  0  0  0  0  0  0  0  0  0  0  0
   -1.2653   -4.2129    0.0000 C   0  0  0  0  0  0  0  0  0  0  0  0
   -1.2653   -5.0379    0.0000 C   0  0  0  0  0  0  0  0  0  0  0  0
   -1.9798   -5.4504    0.0000 C   0  0  0  0  0  0  0  0  0  0  0  0
   -2.6942   -5.0379    0.0000 C   0  0  0  0  0  0  0  0  0  0  0  0
   -1.9798   -6.2754    0.0000 Cl  0  0  0  0  0  0  0  0  0  0  0  0
   -0.5508   -5.4504    0.0000 O   0  0  0  0  0  0  0  0  0  0  0  0
   -0.5508   -6.2754    0.0000 C   0  0  0  0  0  0  0  0  0  0  0  0
    0.1637   -6.6879    0.0000 C   0  0  1  0  0  0  0  0  0  0  0  0
    0.8781   -6.2754    0.0000 C   0  0  0  0  0  0  0  0  0  0  0  0
    0.8781   -5.4504    0.0000 O   0  0  0  0  0  0  0  0  0  0  0  0
    0.1637   -7.5129    0.0000 O   0  0  0  0  0  0  0  0  0  0  0  0
   -4.2094   -5.0334    0.0000 S   0  0  0  0  0  0  0  0  0  0  0  0
   -6.2494   -4.4042    0.0000 C   0  0  0  0  0  0  0  0  0  0  0  0
   -6.7343   -5.0717    0.0000 C   0  0  0  0  0  0  0  0  0  0  0  0
   -7.5548   -4.9854    0.0000 C   0  0  0  0  0  0  0  0  0  0  0  0
   -7.8903   -4.2317    0.0000 C   0  0  0  0  0  0  0  0  0  0  0  0
   -7.4054   -3.5643    0.0000 C   0  0  0  0  0  0  0  0  0  0  0  0
   -6.5849   -3.6505    0.0000 C   0  0  0  0  0  0  0  0  0  0  0  0
   -6.1000   -2.9831    0.0000 C   0  0  0  0  0  0  0  0  0  0  0  0
   -5.1530   -9.0247    0.0000 H   0  0  0  0  0  0  0  0  0  0  0  0
   -3.6536   -7.9354    0.0000 H   0  0  0  0  0  0  0  0  0  0  0  0
   -4.0888   -8.9129    0.0000 H   0  0  0  0  0  0  0  0  0  0  0  0
   -6.2667   -7.4915    0.0000 H   0  0  0  0  0  0  0  0  0  0  0  0
   -5.8315   -6.5140    0.0000 H   0  0  0  0  0  0  0  0  0  0  0  0
   -3.8029   -6.5142    0.0000 H   0  0  0  0  0  0  0  0  0  0  0  0
   -4.4318   -5.6485    0.0000 H   0  0  0  0  0  0  0  0  0  0  0  0
   -3.4087   -2.7684    0.0000 H   0  0  0  0  0  0  0  0  0  0  0  0
   -1.9798   -2.7684    0.0000 H   0  0  0  0  0  0  0  0  0  0  0  0
   -0.3716   -3.6969    0.0000 H   0  0  0  0  0  0  0  0  0  0  0  0
   -3.5879   -5.5539    0.0000 H   0  0  0  0  0  0  0  0  0  0  0  0
   -1.4774   -6.8104    0.0000 H   0  0  0  0  0  0  0  0  0  0  0  0
   -0.5508   -7.3454    0.0000 H   0  0  0  0  0  0  0  0  0  0  0  0
   -0.7629   -7.2229    0.0000 H   0  0  0  0  0  0  0  0  0  0  0  0
    1.8048   -6.8104    0.0000 H   0  0  0  0  0  0  0  0  0  0  0  0
    1.8047   -5.7404    0.0000 H   0  0  0  0  0  0  0  0  0  0  0  0
    1.7181   -4.9654    0.0000 H   0  0  0  0  0  0  0  0  0  0  0  0
   -0.6763   -7.9979    0.0000 H   0  0  0  0  0  0  0  0  0  0  0  0
   -6.3146   -6.0145    0.0000 H   0  0  0  0  0  0  0  0  0  0  0  0
   -8.1615   -5.8203    0.0000 H   0  0  0  0  0  0  0  0  0  0  0  0
   -8.9166   -4.1238    0.0000 H   0  0  0  0  0  0  0  0  0  0  0  0
   -7.8252   -2.6215    0.0000 H   0  0  0  0  0  0  0  0  0  0  0  0
   -5.0359   -3.0950    0.0000 H   0  0  0  0  0  0  0  0  0  0  0  0
   -6.5352   -2.0056    0.0000 H   0  0  0  0  0  0  0  0  0  0  0  0
   -5.4711   -2.1175    0.0000 H   0  0  0  0  0  0  0  0  0  0  0  0
  1  2  1  0  0  0  0
  1 32  1  0  0  0  0
  1 33  1  0  0  0  0
  1 34  1  0  0  0  0
  2  3  1  0  0  0  0
  2 35  1  0  0  0  0
  2 36  1  0  0  0  0
  3  4  1  0  0  0  0
  3 37  1  0  0  0  0
  3 38  1  0  0  0  0
  4  5  2  0  0  0  0
  5  6  1  0  0  0  0
  5 24  1  0  0  0  0
  6  7  1  0  0  0  0
  6 25  1  0  0  0  0
  7  8  2  0  0  0  0
  7  9  1  0  0  0  0
  9 10  2  0  0  0  0
  9 24  1  0  0  0  0
 10 11  1  0  0  0  0
 10 39  1  0  0  0  0
 11 12  2  0  0  0  0
 11 16  1  0  0  0  0
 12 13  1  0  0  0  0
 12 40  1  0  0  0  0
 13 14  2  0  0  0  0
 13 41  1  0  0  0  0
 14 15  1  0  0  0  0
 14 18  1  0  0  0  0
 15 16  2  0  0  0  0
 15 17  1  0  0  0  0
 16 42  1  0  0  0  0
 18 19  1  0  0  0  0
 19 20  1  0  0  0  0
 19 43  1  0  0  0  0
 19 44  1  0  0  0  0
 20 21  1  0  0  0  0
 20 23  1  0  0  0  0
 20 45  1  6  0  0  0
 21 22  1  0  0  0  0
 21 46  1  0  0  0  0
 21 47  1  0  0  0  0
 22 48  1  0  0  0  0
 23 49  1  0  0  0  0
 25 26  2  0  0  0  0
 25 30  1  0  0  0  0
 26 27  1  0  0  0  0
 26 50  1  0  0  0  0
 27 28  2  0  0  0  0
 27 51  1  0  0  0  0
 28 29  1  0  0  0  0
 28 52  1  0  0  0  0
 29 30  2  0  0  0  0
 29 53  1  0  0  0  0
 30 31  1  0  0  0  0
 31 54  1  0  0  0  0
 31 55  1  0  0  0  0
 31 56  1  0  0  0  0
M  END
>  <DRUGBANK_ID>
DB12016

>  <COMMON_NAME>
Ponesimod

>  <CAS_NUMBER>
854107-55-4

>  <UNII>
5G7AKV2MKP

>  <SYNONYMS>
Ponesimod

$$$$
