
 OpenBabel10282417072D

 78 78  0  0  0  0  0  0  0  0999 V2000
    2.4922    1.9003    0.0000 C   0  0  0  0  0  0  0  0  0  0  0  0
    3.0323    1.2766    0.0000 C   0  0  0  0  0  0  0  0  0  0  0  0
    2.7622    0.4971    0.0000 C   0  0  0  0  0  0  0  0  0  0  0  0
    3.3023   -0.1266    0.0000 C   0  0  0  0  0  0  0  0  0  0  0  0
    4.1124    0.0293    0.0000 C   0  0  0  0  0  0  0  0  0  0  0  0
    4.6525   -0.5943    0.0000 C   0  0  0  0  0  0  0  0  0  0  0  0
    4.3825   -1.3738    0.0000 C   0  0  0  0  0  0  0  0  0  0  0  0
    3.5724   -1.5298    0.0000 C   0  0  0  0  0  0  0  0  0  0  0  0
    3.0323   -0.9061    0.0000 C   0  0  0  0  0  0  0  0  0  0  0  0
    2.2221   -1.0620    0.0000 C   0  0  0  0  0  0  0  0  0  0  0  0
    1.9521   -1.8416    0.0000 C   0  0  0  0  0  0  0  0  0  0  0  0
    1.1420   -1.9975    0.0000 C   0  0  0  0  0  0  0  0  0  0  0  0
    0.8719   -2.7770    0.0000 C   0  0  0  0  0  0  0  0  0  0  0  0
    1.4120   -3.4007    0.0000 C   0  0  0  0  0  0  0  0  0  0  0  0
    1.1420   -4.1802    0.0000 C   0  0  0  0  0  0  0  0  0  0  0  0
    1.6820   -4.8039    0.0000 C   0  0  0  0  0  0  0  0  0  0  0  0
    2.4922   -4.6480    0.0000 C   0  0  0  0  0  0  0  0  0  0  0  0
    3.0323   -5.2716    0.0000 C   0  0  0  0  0  0  0  0  0  0  0  0
    3.8424   -5.1157    0.0000 C   0  0  0  0  0  0  0  0  0  0  0  0
    4.1124   -4.3361    0.0000 C   0  0  0  0  0  0  0  0  0  0  0  0
    3.5724   -3.7125    0.0000 C   0  0  0  0  0  0  0  0  0  0  0  0
    3.8424   -2.9329    0.0000 C   0  0  0  0  0  0  0  0  0  0  0  0
    3.3023   -2.3093    0.0000 O   0  0  0  0  0  0  0  0  0  0  0  0
    4.6525   -2.7770    0.0000 N   0  0  0  0  0  0  0  0  0  0  0  0
    5.1926   -3.4007    0.0000 C   0  0  0  0  0  0  0  0  0  0  0  0
    6.0028   -3.2448    0.0000 C   0  0  0  0  0  0  0  0  0  0  0  0
    6.5428   -3.8684    0.0000 N   0  0  0  0  0  0  0  0  0  0  0  0
    7.3530   -3.7125    0.0000 C   0  0  0  0  0  0  0  0  0  0  0  0
    7.6230   -2.9329    0.0000 O   0  0  0  0  0  0  0  0  0  0  0  0
    7.8931   -4.3361    0.0000 C   0  0  0  0  0  0  0  0  0  0  0  0
    8.7032   -4.1802    0.0000 C   0  0  0  0  0  0  0  0  0  0  0  0
    8.9732   -3.4007    0.0000 O   0  0  0  0  0  0  0  0  0  0  0  0
    9.2433   -4.8039    0.0000 C   0  0  0  0  0  0  0  0  0  0  0  0
    8.9732   -5.5834    0.0000 C   0  0  0  0  0  0  0  0  0  0  0  0
    8.1631   -5.7393    0.0000 C   0  0  0  0  0  0  0  0  0  0  0  0
    7.6230   -5.1157    0.0000 C   0  0  0  0  0  0  0  0  0  0  0  0
    2.8425    2.9113    0.0000 H   0  0  0  0  0  0  0  0  0  0  0  0
    1.4415    1.6981    0.0000 H   0  0  0  0  0  0  0  0  0  0  0  0
    1.7918    2.7092    0.0000 H   0  0  0  0  0  0  0  0  0  0  0  0
    4.0830    1.4787    0.0000 H   0  0  0  0  0  0  0  0  0  0  0  0
    3.7327    0.4677    0.0000 H   0  0  0  0  0  0  0  0  0  0  0  0
    1.7488    0.3021    0.0000 H   0  0  0  0  0  0  0  0  0  0  0  0
    2.9645   -1.1017    0.0000 H   0  0  0  0  0  0  0  0  0  0  0  0
    4.4626    1.0404    0.0000 H   0  0  0  0  0  0  0  0  0  0  0  0
    5.1631    0.2315    0.0000 H   0  0  0  0  0  0  0  0  0  0  0  0
    5.6659   -0.3992    0.0000 H   0  0  0  0  0  0  0  0  0  0  0  0
    5.0582   -2.1539    0.0000 H   0  0  0  0  0  0  0  0  0  0  0  0
    3.2222   -2.5409    0.0000 H   0  0  0  0  0  0  0  0  0  0  0  0
    2.5217   -1.7320    0.0000 H   0  0  0  0  0  0  0  0  0  0  0  0
    3.3701    0.0690    0.0000 H   0  0  0  0  0  0  0  0  0  0  0  0
    1.5465   -0.2819    0.0000 H   0  0  0  0  0  0  0  0  0  0  0  0
    2.6526   -2.6504    0.0000 H   0  0  0  0  0  0  0  0  0  0  0  0
    1.6019   -2.8527    0.0000 H   0  0  0  0  0  0  0  0  0  0  0  0
    0.4664   -1.2174    0.0000 H   0  0  0  0  0  0  0  0  0  0  0  0
   -0.1415   -2.9720    0.0000 H   0  0  0  0  0  0  0  0  0  0  0  0
    2.4627   -3.1985    0.0000 H   0  0  0  0  0  0  0  0  0  0  0  0
    2.1125   -4.2095    0.0000 H   0  0  0  0  0  0  0  0  0  0  0  0
    0.1286   -4.3752    0.0000 H   0  0  0  0  0  0  0  0  0  0  0  0
    1.3441   -5.7790    0.0000 H   0  0  0  0  0  0  0  0  0  0  0  0
    2.8424   -3.6369    0.0000 H   0  0  0  0  0  0  0  0  0  0  0  0
    3.5429   -4.4458    0.0000 H   0  0  0  0  0  0  0  0  0  0  0  0
    2.6945   -6.2468    0.0000 H   0  0  0  0  0  0  0  0  0  0  0  0
    4.5180   -5.8958    0.0000 H   0  0  0  0  0  0  0  0  0  0  0  0
    5.1631   -4.1339    0.0000 H   0  0  0  0  0  0  0  0  0  0  0  0
    4.4627   -3.3251    0.0000 H   0  0  0  0  0  0  0  0  0  0  0  0
    2.5217   -3.9147    0.0000 H   0  0  0  0  0  0  0  0  0  0  0  0
    2.8719   -2.9037    0.0000 H   0  0  0  0  0  0  0  0  0  0  0  0
    4.9748   -1.8467    0.0000 H   0  0  0  0  0  0  0  0  0  0  0  0
    4.8423   -4.4117    0.0000 H   0  0  0  0  0  0  0  0  0  0  0  0
    5.8931   -4.2096    0.0000 H   0  0  0  0  0  0  0  0  0  0  0  0
    6.3531   -2.2338    0.0000 H   0  0  0  0  0  0  0  0  0  0  0  0
    7.0535   -3.0426    0.0000 H   0  0  0  0  0  0  0  0  0  0  0  0
    6.2205   -4.7987    0.0000 H   0  0  0  0  0  0  0  0  0  0  0  0
    9.8933   -3.2236    0.0000 H   0  0  0  0  0  0  0  0  0  0  0  0
   10.2567   -4.6089    0.0000 H   0  0  0  0  0  0  0  0  0  0  0  0
    9.6488   -6.3635    0.0000 H   0  0  0  0  0  0  0  0  0  0  0  0
    7.8253   -6.7145    0.0000 H   0  0  0  0  0  0  0  0  0  0  0  0
    6.6096   -5.3107    0.0000 H   0  0  0  0  0  0  0  0  0  0  0  0
  1  2  1  0  0  0  0
  1 37  1  0  0  0  0
  1 38  1  0  0  0  0
  1 39  1  0  0  0  0
  2  3  1  0  0  0  0
  2 40  1  0  0  0  0
  2 41  1  0  0  0  0
  3  4  2  0  0  0  0
  3 42  1  0  0  0  0
  4  5  1  0  0  0  0
  4 43  1  0  0  0  0
  5  6  1  0  0  0  0
  5 44  1  0  0  0  0
  5 45  1  0  0  0  0
  6  7  2  0  0  0  0
  6 46  1  0  0  0  0
  7  8  1  0  0  0  0
  7 47  1  0  0  0  0
  8  9  1  0  0  0  0
  8 48  1  0  0  0  0
  8 49  1  0  0  0  0
  9 10  2  0  0  0  0
  9 50  1  0  0  0  0
 10 11  1  0  0  0  0
 10 51  1  0  0  0  0
 11 12  1  0  0  0  0
 11 52  1  0  0  0  0
 11 53  1  0  0  0  0
 12 13  2  0  0  0  0
 12 54  1  0  0  0  0
 13 14  1  0  0  0  0
 13 55  1  0  0  0  0
 14 15  1  0  0  0  0
 14 56  1  0  0  0  0
 14 57  1  0  0  0  0
 15 16  2  0  0  0  0
 15 58  1  0  0  0  0
 16 17  1  0  0  0  0
 16 59  1  0  0  0  0
 17 18  1  0  0  0  0
 17 60  1  0  0  0  0
 17 61  1  0  0  0  0
 18 19  2  0  0  0  0
 18 62  1  0  0  0  0
 19 20  1  0  0  0  0
 19 63  1  0  0  0  0
 20 21  1  0  0  0  0
 20 64  1  0  0  0  0
 20 65  1  0  0  0  0
 21 22  1  0  0  0  0
 21 66  1  0  0  0  0
 21 67  1  0  0  0  0
 22 23  2  0  0  0  0
 22 24  1  0  0  0  0
 24 25  1  0  0  0  0
 24 68  1  0  0  0  0
 25 26  1  0  0  0  0
 25 69  1  0  0  0  0
 25 70  1  0  0  0  0
 26 27  1  0  0  0  0
 26 71  1  0  0  0  0
 26 72  1  0  0  0  0
 27 28  1  0  0  0  0
 27 73  1  0  0  0  0
 28 29  2  0  0  0  0
 28 30  1  0  0  0  0
 30 31  2  0  0  0  0
 30 36  1  0  0  0  0
 31 32  1  0  0  0  0
 31 33  1  0  0  0  0
 32 74  1  0  0  0  0
 33 34  2  0  0  0  0
 33 75  1  0  0  0  0
 34 35  1  0  0  0  0
 34 76  1  0  0  0  0
 35 36  2  0  0  0  0
 35 77  1  0  0  0  0
 36 78  1  0  0  0  0
M  END
>  <DRUGBANK_ID>
DB15010

>  <COMMON_NAME>
Edasalonexent

>  <CAS_NUMBER>
1204317-86-1

>  <UNII>
AF3Z6434KS

>  <SYNONYMS>
Edasalonexent

$$$$
