
 OpenBabel10282417072D

 20 19  0  0  0  0  0  0  0  0999 V2000
   -0.8493   -1.2373    0.0000 S   0  0  0  0  0  0  0  0  0  0  0  0
   -0.8493    1.2373    0.0000 O   0  0  0  0  0  0  0  0  0  0  0  0
    1.2907   -0.8271    0.0000 O   0  0  0  0  0  0  0  0  0  0  0  0
    0.5773    0.4124    0.0000 N   0  0  0  0  0  0  0  0  0  0  0  0
   -1.5672   -0.0022    0.0000 N   0  0  0  0  0  0  0  0  0  0  0  0
   -0.1360   -0.0022    0.0000 C   0  0  1  0  0  0  0  0  0  0  0  0
   -0.1360   -0.8271    0.0000 C   0  0  0  0  0  0  0  0  0  0  0  0
   -0.8493    0.4124    0.0000 C   0  0  0  0  0  0  0  0  0  0  0  0
    1.2907   -0.0022    0.0000 C   0  0  0  0  0  0  0  0  0  0  0  0
    2.0086    0.4124    0.0000 C   0  0  0  0  0  0  0  0  0  0  0  0
    0.5773    0.9251    0.0000 H   0  0  0  0  0  0  0  0  0  0  0  0
   -2.0086    0.2563    0.0000 H   0  0  0  0  0  0  0  0  0  0  0  0
   -1.5672   -0.5105    0.0000 H   0  0  0  0  0  0  0  0  0  0  0  0
   -2.0259   -0.5553    0.0000 H   0  0  0  0  0  0  0  0  0  0  0  0
    0.7914   -0.5358    0.0000 H   0  0  0  0  0  0  0  0  0  0  0  0
    0.7902   -1.3629    0.0000 H   0  0  0  0  0  0  0  0  0  0  0  0
    0.7909   -0.2925    0.0000 H   0  0  0  0  0  0  0  0  0  0  0  0
    2.9353   -0.1225    0.0000 H   0  0  0  0  0  0  0  0  0  0  0  0
    2.0085    1.4824    0.0000 H   0  0  0  0  0  0  0  0  0  0  0  0
    2.9352    0.9475    0.0000 H   0  0  0  0  0  0  0  0  0  0  0  0
  1  7  1  0  0  0  0
  1 14  1  0  0  0  0
  2  8  2  0  0  0  0
  3  9  2  0  0  0  0
  4  9  1  0  0  0  0
  4 11  1  0  0  0  0
  5  8  1  0  0  0  0
  5 12  1  0  0  0  0
  5 13  1  0  0  0  0
  6  4  1  0  0  0  0
  6  7  1  0  0  0  0
  6  8  1  0  0  0  0
  6 15  1  6  0  0  0
  7 16  1  0  0  0  0
  7 17  1  0  0  0  0
  9 10  1  0  0  0  0
 10 18  1  0  0  0  0
 10 19  1  0  0  0  0
 10 20  1  0  0  0  0
M  END
>  <DRUGBANK_ID>
DB14480

>  <SECONDARY_ACCESSION_NUMBERS>
DBSALT001544

>  <COMMON_NAME>
Acetylcysteine amide

>  <CAS_NUMBER>
38520-57-9

>  <UNII>
4N69717RKW

>  <SYNONYMS>
N-Acetyl cysteine amide; N-Acetyl-cysteine-amide; N-Acetyl-L-cysteinamide; N-Acetyl-L-cysteine amide; N-Acetylcysteinamide; N-Acetylcysteine amide; Nac amide; NACA

$$$$
