
 OpenBabel10282417072D

 13  8  0  0  0  0  0  0  0  0999 V2000
   -2.3571    0.8250    0.0000 O   0  0  0  0  0  0  0  0  0  0  0  0
    0.0000    0.8250    0.0000 O   0  0  0  0  0  0  0  0  0  0  0  0
    2.3571    0.8250    0.0000 O   0  0  0  0  0  0  0  0  0  0  0  0
   -2.3571   -0.8250    0.0000 O   0  0  0  0  0  0  0  0  0  0  0  0
    0.5892   -0.8250    0.0000 Tc  0  5  0  0  0  0  0  0  0  0  0  0
   -1.3871    0.8250    0.0000 H   0  0  0  0  0  0  0  0  0  0  0  0
   -2.8421    1.6650    0.0000 H   0  0  0  0  0  0  0  0  0  0  0  0
    0.9700    0.8250    0.0000 H   0  0  0  0  0  0  0  0  0  0  0  0
   -0.4850    1.6650    0.0000 H   0  0  0  0  0  0  0  0  0  0  0  0
    3.3271    0.8250    0.0000 H   0  0  0  0  0  0  0  0  0  0  0  0
    1.8721    1.6650    0.0000 H   0  0  0  0  0  0  0  0  0  0  0  0
   -1.3871   -0.8250    0.0000 H   0  0  0  0  0  0  0  0  0  0  0  0
   -2.8421    0.0150    0.0000 H   0  0  0  0  0  0  0  0  0  0  0  0
  1  6  1  0  0  0  0
  1  7  1  0  0  0  0
  2  8  1  0  0  0  0
  2  9  1  0  0  0  0
  3 10  1  0  0  0  0
  3 11  1  0  0  0  0
  4 12  1  0  0  0  0
  4 13  1  0  0  0  0
M  ISO  1   5  98
M  CHG  1   5  -1
M  END
>  <DRUGBANK_ID>
DB09314

>  <SECONDARY_ACCESSION_NUMBERS>
DB13043

>  <COMMON_NAME>
Technetium Tc-99m pertechnetate

>  <CAS_NUMBER>
23288-61-1

>  <UNII>
PPP8783IQ1

>  <SYNONYMS>
(99Tc)pertechnetate; CPERT; GPERT; Pertechnetate-99Tc; Technetium (99mTc) Pertechnetate; Technetium Tc 99m Pertechnetate

$$$$
