
 OpenBabel10282417072D

 16 16  0  0  0  0  0  0  0  0999 V2000
   -0.3546   -0.8247    0.0000 N   0  0  0  0  0  0  0  0  0  0  0  0
    0.3546   -0.4124    0.0000 C   0  0  0  0  0  0  0  0  0  0  0  0
    0.3546    0.4124    0.0000 N   0  0  0  0  0  0  0  0  0  0  0  0
   -0.3712    0.8248    0.0000 C   0  0  0  0  0  0  0  0  0  0  0  0
   -1.0805    0.4124    0.0000 C   0  0  0  0  0  0  0  0  0  0  0  0
   -1.0805   -0.4288    0.0000 C   0  0  0  0  0  0  0  0  0  0  0  0
    1.0805   -0.8082    0.0000 O   0  0  0  0  0  0  0  0  0  0  0  0
   -0.3712    1.6496    0.0000 N   0  0  0  0  0  0  0  0  0  0  0  0
   -0.3381   -1.6496    0.0000 C   0  0  0  0  0  0  0  0  0  0  0  0
   -1.9750    0.9270    0.0000 H   0  0  0  0  0  0  0  0  0  0  0  0
   -1.9679   -0.9556    0.0000 H   0  0  0  0  0  0  0  0  0  0  0  0
    0.4814    2.1418    0.0000 H   0  0  0  0  0  0  0  0  0  0  0  0
   -1.2238    2.1418    0.0000 H   0  0  0  0  0  0  0  0  0  0  0  0
   -1.2539   -2.2030    0.0000 H   0  0  0  0  0  0  0  0  0  0  0  0
    0.5991   -2.1660    0.0000 H   0  0  0  0  0  0  0  0  0  0  0  0
   -0.3167   -2.7194    0.0000 H   0  0  0  0  0  0  0  0  0  0  0  0
  2  1  1  0  0  0  0
  3  2  1  0  0  0  0
  4  3  2  0  0  0  0
  5  4  1  0  0  0  0
  5 10  1  0  0  0  0
  6  1  1  0  0  0  0
  6  5  2  0  0  0  0
  6 11  1  0  0  0  0
  7  2  2  0  0  0  0
  8  4  1  0  0  0  0
  8 12  1  0  0  0  0
  8 13  1  0  0  0  0
  9  1  1  0  0  0  0
  9 14  1  0  0  0  0
  9 15  1  0  0  0  0
  9 16  1  0  0  0  0
M  END
>  <DRUGBANK_ID>
DB04314

>  <SECONDARY_ACCESSION_NUMBERS>
EXPT00076

>  <COMMON_NAME>
1-Methylcytosine

>  <CAS_NUMBER>
1122-47-0

>  <UNII>
1J54NE82RV

>  <SYNONYMS>
N-Methylcytosine

$$$$
