
 OpenBabel10282417072D

 47 49  0  0  0  0  0  0  0  0999 V2000
   -8.8860   -0.0809    0.0000 C   0  0  0  0  0  0  0  0  0  0  0  0
   -8.4735    0.6336    0.0000 N   0  0  0  0  0  0  0  0  0  0  0  0
   -7.6485    0.6336    0.0000 C   0  0  0  0  0  0  0  0  0  0  0  0
   -7.2360    1.3480    0.0000 C   0  0  0  0  0  0  0  0  0  0  0  0
   -6.4110    1.3480    0.0000 C   0  0  0  0  0  0  0  0  0  0  0  0
   -5.9985    0.6336    0.0000 C   0  0  0  0  0  0  0  0  0  0  0  0
   -5.1735    0.6336    0.0000 C   0  0  0  0  0  0  0  0  0  0  0  0
   -4.7610    1.3480    0.0000 C   0  0  0  0  0  0  0  0  0  0  0  0
   -3.9360    1.3480    0.0000 C   0  0  0  0  0  0  0  0  0  0  0  0
   -3.5235    2.0625    0.0000 C   0  0  0  0  0  0  0  0  0  0  0  0
   -2.6985    2.0625    0.0000 C   0  0  0  0  0  0  0  0  0  0  0  0
   -2.2136    1.3951    0.0000 N   0  0  0  0  0  0  0  0  0  0  0  0
   -1.4289    1.6500    0.0000 C   0  0  0  0  0  0  0  0  0  0  0  0
   -1.4289    2.4750    0.0000 C   0  0  0  0  0  0  0  0  0  0  0  0
   -2.2136    2.7299    0.0000 S   0  0  0  0  0  0  0  0  0  0  0  0
   -0.7145    2.8875    0.0000 C   0  0  0  0  0  0  0  0  0  0  0  0
    0.0000    2.4750    0.0000 C   0  0  0  0  0  0  0  0  0  0  0  0
    0.7145    2.8875    0.0000 O   0  0  0  0  0  0  0  0  0  0  0  0
    1.4289    2.4750    0.0000 C   0  0  0  0  0  0  0  0  0  0  0  0
    2.1434    2.8875    0.0000 C   0  0  3  0  0  0  0  0  0  0  0  0
    2.1434    3.7125    0.0000 O   0  0  0  0  0  0  0  0  0  0  0  0
    2.8579    2.4750    0.0000 C   0  0  0  0  0  0  0  0  0  0  0  0
    3.5724    2.8875    0.0000 F   0  0  0  0  0  0  0  0  0  0  0  0
    0.0000    1.6500    0.0000 C   0  0  0  0  0  0  0  0  0  0  0  0
   -0.7145    1.2375    0.0000 C   0  0  0  0  0  0  0  0  0  0  0  0
   -6.4110   -0.0809    0.0000 C   0  0  0  0  0  0  0  0  0  0  0  0
   -7.2360   -0.0809    0.0000 N   0  0  0  0  0  0  0  0  0  0  0  0
   -9.9560   -0.0809    0.0000 H   0  0  0  0  0  0  0  0  0  0  0  0
   -8.3510   -1.0075    0.0000 H   0  0  0  0  0  0  0  0  0  0  0  0
   -9.4210   -1.0076    0.0000 H   0  0  0  0  0  0  0  0  0  0  0  0
   -8.9658    1.4862    0.0000 H   0  0  0  0  0  0  0  0  0  0  0  0
   -7.7520    2.2417    0.0000 H   0  0  0  0  0  0  0  0  0  0  0  0
   -5.8950    2.2417    0.0000 H   0  0  0  0  0  0  0  0  0  0  0  0
   -4.6575   -0.2601    0.0000 H   0  0  0  0  0  0  0  0  0  0  0  0
   -5.2770    2.2417    0.0000 H   0  0  0  0  0  0  0  0  0  0  0  0
   -3.4200    0.4543    0.0000 H   0  0  0  0  0  0  0  0  0  0  0  0
   -4.0395    2.9562    0.0000 H   0  0  0  0  0  0  0  0  0  0  0  0
   -0.7145    3.9195    0.0000 H   0  0  0  0  0  0  0  0  0  0  0  0
    1.4289    1.4050    0.0000 H   0  0  0  0  0  0  0  0  0  0  0  0
    2.3555    1.9400    0.0000 H   0  0  0  0  0  0  0  0  0  0  0  0
    1.2168    3.4225    0.0000 H   0  0  0  0  0  0  0  0  0  0  0  0
    2.9834    4.1975    0.0000 H   0  0  0  0  0  0  0  0  0  0  0  0
    2.8579    1.4050    0.0000 H   0  0  0  0  0  0  0  0  0  0  0  0
    3.7845    1.9400    0.0000 H   0  0  0  0  0  0  0  0  0  0  0  0
    0.8937    1.1340    0.0000 H   0  0  0  0  0  0  0  0  0  0  0  0
   -0.7145    0.2055    0.0000 H   0  0  0  0  0  0  0  0  0  0  0  0
   -5.8950   -0.9746    0.0000 H   0  0  0  0  0  0  0  0  0  0  0  0
  1  2  1  0  0  0  0
  1 28  1  0  0  0  0
  1 29  1  0  0  0  0
  1 30  1  0  0  0  0
  2  3  1  0  0  0  0
  2 31  1  0  0  0  0
  3  4  2  0  0  0  0
  3 27  1  0  0  0  0
  4  5  1  0  0  0  0
  4 32  1  0  0  0  0
  5  6  2  0  0  0  0
  5 33  1  0  0  0  0
  6  7  1  0  0  0  0
  6 26  1  0  0  0  0
  7  8  2  0  0  0  0
  7 34  1  0  0  0  0
  8  9  1  0  0  0  0
  8 35  1  0  0  0  0
  9 10  2  0  0  0  0
  9 36  1  0  0  0  0
 10 11  1  0  0  0  0
 10 37  1  0  0  0  0
 11 12  2  0  0  0  0
 11 15  1  0  0  0  0
 12 13  1  0  0  0  0
 13 14  2  0  0  0  0
 13 25  1  0  0  0  0
 14 15  1  0  0  0  0
 14 16  1  0  0  0  0
 16 17  2  0  0  0  0
 16 38  1  0  0  0  0
 17 18  1  0  0  0  0
 17 24  1  0  0  0  0
 18 19  1  0  0  0  0
 19 20  1  0  0  0  0
 19 39  1  0  0  0  0
 19 40  1  0  0  0  0
 20 21  1  0  0  0  0
 20 22  1  0  0  0  0
 20 41  1  0  0  0  0
 21 42  1  0  0  0  0
 22 23  1  0  0  0  0
 22 43  1  0  0  0  0
 22 44  1  0  0  0  0
 24 25  2  0  0  0  0
 24 45  1  0  0  0  0
 25 46  1  0  0  0  0
 26 27  2  0  0  0  0
 26 47  1  0  0  0  0
M  ISO  1  23  18
M  END
>  <DRUGBANK_ID>
DB16297

>  <COMMON_NAME>
Florzolotau F-18

>  <CAS_NUMBER>
1565797-57-0

>  <UNII>
51M993JIQ4

$$$$
