
 OpenBabel10282417072D

 52 55  0  0  0  0  0  0  0  0999 V2000
   -2.6430    1.5911    0.0000 C   0  0  0  0  0  0  0  0  0  0  0  0
   -2.6430    2.4161    0.0000 C   0  0  0  0  0  0  0  0  0  0  0  0
   -1.9285    2.8286    0.0000 C   0  0  0  0  0  0  0  0  0  0  0  0
   -1.9285    1.1786    0.0000 C   0  0  0  0  0  0  0  0  0  0  0  0
   -1.2141    1.5911    0.0000 C   0  0  0  0  0  0  0  0  0  0  0  0
   -1.2141    2.4161    0.0000 C   0  0  0  0  0  0  0  0  0  0  0  0
   -0.4996    2.8286    0.0000 S   0  0  0  0  0  0  0  0  0  0  0  0
    0.2148    2.4161    0.0000 N   0  0  0  0  0  0  0  0  0  0  0  0
    0.2148    1.5911    0.0000 C   0  0  0  0  0  0  0  0  0  0  0  0
   -0.4995    1.1786    0.0000 C   0  0  0  0  0  0  0  0  0  0  0  0
   -0.4995    0.3535    0.0000 O   0  0  0  0  0  0  0  0  0  0  0  0
   -1.2748    0.0714    0.0000 C   0  0  0  0  0  0  0  0  0  0  0  0
   -1.4180   -0.7410    0.0000 C   0  0  0  0  0  0  0  0  0  0  0  0
   -1.7172    0.4426    0.0000 O   0  0  0  0  0  0  0  0  0  0  0  0
   -2.1933   -1.0232    0.0000 C   0  0  0  0  0  0  0  0  0  0  0  0
   -2.3366   -1.8356    0.0000 C   0  0  0  0  0  0  0  0  0  0  0  0
   -3.1118   -2.1178    0.0000 C   0  0  0  0  0  0  0  0  0  0  0  0
   -3.2551   -2.9303    0.0000 C   0  0  0  0  0  0  0  0  0  0  0  0
   -2.6230   -3.4606    0.0000 C   0  0  0  0  0  0  0  0  0  0  0  0
   -1.8478   -3.1784    0.0000 C   0  0  0  0  0  0  0  0  0  0  0  0
   -1.7045   -2.3660    0.0000 C   0  0  0  0  0  0  0  0  0  0  0  0
    0.0306    3.4606    0.0000 O   0  0  0  0  0  0  0  0  0  0  0  0
   -1.0299    3.4606    0.0000 O   0  0  0  0  0  0  0  0  0  0  0  0
    0.9293    2.8286    0.0000 C   0  0  0  0  0  0  0  0  0  0  0  0
    0.9293    1.1786    0.0000 C   0  0  0  0  0  0  0  0  0  0  0  0
    0.9293    0.3536    0.0000 N   0  0  0  0  0  0  0  0  0  0  0  0
    1.7045    0.0714    0.0000 C   0  0  0  0  0  0  0  0  0  0  0  0
    1.6438    1.5911    0.0000 O   0  0  0  0  0  0  0  0  0  0  0  0
    2.3366    0.6017    0.0000 C   0  0  0  0  0  0  0  0  0  0  0  0
    3.1118    0.3196    0.0000 C   0  0  0  0  0  0  0  0  0  0  0  0
    3.2551   -0.4928    0.0000 C   0  0  0  0  0  0  0  0  0  0  0  0
    2.6230   -1.0231    0.0000 C   0  0  0  0  0  0  0  0  0  0  0  0
    1.8478   -0.7410    0.0000 N   0  0  0  0  0  0  0  0  0  0  0  0
   -3.5367    1.0751    0.0000 H   0  0  0  0  0  0  0  0  0  0  0  0
   -3.5367    2.9321    0.0000 H   0  0  0  0  0  0  0  0  0  0  0  0
   -1.9285    3.8606    0.0000 H   0  0  0  0  0  0  0  0  0  0  0  0
   -1.9285    0.1466    0.0000 H   0  0  0  0  0  0  0  0  0  0  0  0
   -0.6274   -1.4043    0.0000 H   0  0  0  0  0  0  0  0  0  0  0  0
   -2.9838   -0.3598    0.0000 H   0  0  0  0  0  0  0  0  0  0  0  0
   -3.9024   -1.4544    0.0000 H   0  0  0  0  0  0  0  0  0  0  0  0
   -4.2249   -3.2833    0.0000 H   0  0  0  0  0  0  0  0  0  0  0  0
   -2.8021   -4.4769    0.0000 H   0  0  0  0  0  0  0  0  0  0  0  0
   -1.0572   -3.8418    0.0000 H   0  0  0  0  0  0  0  0  0  0  0  0
   -0.7347   -2.0131    0.0000 H   0  0  0  0  0  0  0  0  0  0  0  0
    1.8559    2.2936    0.0000 H   0  0  0  0  0  0  0  0  0  0  0  0
    0.9293    3.8986    0.0000 H   0  0  0  0  0  0  0  0  0  0  0  0
    1.8560    3.3636    0.0000 H   0  0  0  0  0  0  0  0  0  0  0  0
    0.1228   -0.2111    0.0000 H   0  0  0  0  0  0  0  0  0  0  0  0
    2.1574    1.6180    0.0000 H   0  0  0  0  0  0  0  0  0  0  0  0
    3.9023    0.9830    0.0000 H   0  0  0  0  0  0  0  0  0  0  0  0
    4.2249   -0.8458    0.0000 H   0  0  0  0  0  0  0  0  0  0  0  0
    2.8022   -2.0394    0.0000 H   0  0  0  0  0  0  0  0  0  0  0  0
  1  2  1  0  0  0  0
  1  4  2  0  0  0  0
  1 34  1  0  0  0  0
  2  3  2  0  0  0  0
  2 35  1  0  0  0  0
  3  6  1  0  0  0  0
  3 36  1  0  0  0  0
  4 37  1  0  0  0  0
  5  4  1  0  0  0  0
  5 10  1  0  0  0  0
  5  6  2  0  0  0  0
  6  7  1  0  0  0  0
  7  8  1  0  0  0  0
  7 22  2  0  0  0  0
  7 23  2  0  0  0  0
  8  9  1  0  0  0  0
  8 24  1  0  0  0  0
  9 10  2  0  0  0  0
  9 25  1  0  0  0  0
 10 11  1  0  0  0  0
 11 12  1  0  0  0  0
 12 13  1  0  0  0  0
 12 14  2  0  0  0  0
 13 15  2  0  0  0  0
 13 38  1  0  0  0  0
 15 16  1  0  0  0  0
 15 39  1  0  0  0  0
 16 17  2  0  0  0  0
 17 18  1  0  0  0  0
 17 40  1  0  0  0  0
 18 19  2  0  0  0  0
 18 41  1  0  0  0  0
 19 20  1  0  0  0  0
 19 42  1  0  0  0  0
 20 21  2  0  0  0  0
 20 43  1  0  0  0  0
 21 16  1  0  0  0  0
 21 44  1  0  0  0  0
 24 45  1  0  0  0  0
 24 46  1  0  0  0  0
 24 47  1  0  0  0  0
 25 26  1  0  0  0  0
 25 28  2  0  0  0  0
 26 27  1  0  0  0  0
 26 48  1  0  0  0  0
 27 29  2  0  0  0  0
 29 30  1  0  0  0  0
 29 49  1  0  0  0  0
 30 31  2  0  0  0  0
 30 50  1  0  0  0  0
 31 32  1  0  0  0  0
 31 51  1  0  0  0  0
 32 33  2  0  0  0  0
 32 52  1  0  0  0  0
 33 27  1  0  0  0  0
M  END
>  <DRUGBANK_ID>
DB15883

>  <COMMON_NAME>
Piroxicam cinnamate

>  <CAS_NUMBER>
87234-24-0

>  <UNII>
7E8Q32N75N

>  <SYNONYMS>
Cinnoxicam; Piroxicam cinnamate; Piroxicam cinnamic acid ester

$$$$
