
 OpenBabel10282417072D

 13 12  0  0  1  0  0  0  0  0999 V2000
    1.2375    0.7145    0.0000 C   0  0  1  0  0  0  0  0  0  0  0  0
    0.8250    0.0000    0.0000 C   0  0  0  0  0  0  0  0  0  0  0  0
    0.8250    1.4289    0.0000 C   0  0  0  0  0  0  0  0  0  0  0  0
    0.4125    2.1434    0.0000 F   0  0  0  0  0  0  0  0  0  0  0  0
    0.1105    1.0164    0.0000 F   0  0  0  0  0  0  0  0  0  0  0  0
    1.5395    1.8414    0.0000 F   0  0  0  0  0  0  0  0  0  0  0  0
    2.0625    0.7145    0.0000 N   0  0  0  0  0  0  0  0  0  0  0  0
    1.2375   -0.7145    0.0000 O   0  0  0  0  0  0  0  0  0  0  0  0
    0.0000    0.0000    0.0000 O   0  0  0  0  0  0  0  0  0  0  0  0
    0.4125    0.7145    0.0000 H   0  0  0  0  0  0  0  0  0  0  0  0
    2.5725   -0.1688    0.0000 H   0  0  0  0  0  0  0  0  0  0  0  0
    2.5725    1.5978    0.0000 H   0  0  0  0  0  0  0  0  0  0  0  0
   -0.4685    0.8115    0.0000 H   0  0  0  0  0  0  0  0  0  0  0  0
  1  7  1  0  0  0  0
  1 10  1  6  0  0  0
  2  1  1  0  0  0  0
  3  1  1  0  0  0  0
  4  3  1  0  0  0  0
  5  3  1  0  0  0  0
  6  3  1  0  0  0  0
  7 11  1  0  0  0  0
  7 12  1  0  0  0  0
  8  2  2  0  0  0  0
  9  2  1  0  0  0  0
  9 13  1  0  0  0  0
M  END
>  <DRUGBANK_ID>
DB03794

>  <SECONDARY_ACCESSION_NUMBERS>
EXPT01440

>  <COMMON_NAME>
Trifluoroalanine

>  <UNII>
NT6AV26MM7

$$$$
