TN4
 OpenBabel10282417072D

 55 57  0  0  0  0  0  0  0  0999 V2000
    1.4651    2.3006    0.0000 N   0  0  0  0  0  0  0  0  0  0  0  0
    0.7506    2.7131    0.0000 C   0  0  0  0  0  0  0  0  0  0  0  0
    0.7506    3.5381    0.0000 O   0  0  0  0  0  0  0  0  0  0  0  0
    0.0361    2.3006    0.0000 O   0  0  0  0  0  0  0  0  0  0  0  0
    0.0361    1.4756    0.0000 C   0  0  2  0  0  0  0  0  0  0  0  0
    0.7506    1.0631    0.0000 C   0  0  0  0  0  0  0  0  0  0  0  0
    0.7506    0.2381    0.0000 C   0  0  0  0  0  0  0  0  0  0  0  0
    0.0361   -0.1744    0.0000 C   0  0  2  0  0  0  0  0  0  0  0  0
    0.4486   -0.8889    0.0000 O   0  0  0  0  0  0  0  0  0  0  0  0
   -0.3764   -0.8889    0.0000 C   0  0  0  0  0  0  0  0  0  0  0  0
   -0.6783    0.2381    0.0000 C   0  0  2  0  0  0  0  0  0  0  0  0
   -0.6783    1.0631    0.0000 C   0  0  2  0  0  0  0  0  0  0  0  0
   -1.3928    1.4756    0.0000 O   0  0  0  0  0  0  0  0  0  0  0  0
   -2.1073    1.0631    0.0000 C   0  0  0  0  0  0  0  0  0  0  0  0
   -1.3928   -0.1744    0.0000 C   0  0  1  0  0  0  0  0  0  0  0  0
   -1.9231   -0.8064    0.0000 O   0  0  0  0  0  0  0  0  0  0  0  0
   -1.1106   -0.9497    0.0000 C   0  0  2  0  0  0  0  0  0  0  0  0
   -0.4787   -1.4800    0.0000 C   0  0  0  0  0  0  0  0  0  0  0  0
   -0.6219   -2.2924    0.0000 C   0  0  0  0  0  0  0  0  0  0  0  0
    0.0101   -2.8227    0.0000 C   0  0  0  0  0  0  0  0  0  0  0  0
   -0.1332   -3.6352    0.0000 C   0  0  0  0  0  0  0  0  0  0  0  0
    0.7853   -2.5406    0.0000 C   0  0  0  0  0  0  0  0  0  0  0  0
   -1.9231    0.4576    0.0000 C   0  0  0  0  0  0  0  0  0  0  0  0
    2.1795    2.7131    0.0000 C   0  0  0  0  0  0  0  0  0  0  0  0
    2.1795    3.5381    0.0000 O   0  0  0  0  0  0  0  0  0  0  0  0
    2.8940    2.3006    0.0000 C   0  0  0  0  0  0  0  0  0  0  0  0
    3.6085    2.7131    0.0000 Cl  0  0  0  0  0  0  0  0  0  0  0  0
    0.5418    1.7675    0.0000 H   0  0  0  0  0  0  0  0  0  0  0  0
   -0.4786   -0.3106    0.0000 H   0  0  0  0  0  0  0  0  0  0  0  0
   -0.6783    1.6470    0.0000 H   0  0  0  0  0  0  0  0  0  0  0  0
   -0.5466   -0.7985    0.0000 H   0  0  0  0  0  0  0  0  0  0  0  0
    1.4651    1.3161    0.0000 H   0  0  0  0  0  0  0  0  0  0  0  0
    1.6772    1.5981    0.0000 H   0  0  0  0  0  0  0  0  0  0  0  0
    1.6772    0.5281    0.0000 H   0  0  0  0  0  0  0  0  0  0  0  0
    1.6772   -0.2969    0.0000 H   0  0  0  0  0  0  0  0  0  0  0  0
    0.7506   -0.8319    0.0000 H   0  0  0  0  0  0  0  0  0  0  0  0
   -1.3030   -1.4239    0.0000 H   0  0  0  0  0  0  0  0  0  0  0  0
   -0.0995   -1.9224    0.0000 H   0  0  0  0  0  0  0  0  0  0  0  0
   -3.0339    1.5981    0.0000 H   0  0  0  0  0  0  0  0  0  0  0  0
   -2.1073   -0.0069    0.0000 H   0  0  0  0  0  0  0  0  0  0  0  0
   -3.0340    0.5281    0.0000 H   0  0  0  0  0  0  0  0  0  0  0  0
    0.5268   -1.1140    0.0000 H   0  0  0  0  0  0  0  0  0  0  0  0
    0.3410   -2.1678    0.0000 H   0  0  0  0  0  0  0  0  0  0  0  0
   -1.5917   -2.6454    0.0000 H   0  0  0  0  0  0  0  0  0  0  0  0
   -1.1387   -4.0011    0.0000 H   0  0  0  0  0  0  0  0  0  0  0  0
    0.6864   -4.3230    0.0000 H   0  0  0  0  0  0  0  0  0  0  0  0
   -0.3190   -4.6889    0.0000 H   0  0  0  0  0  0  0  0  0  0  0  0
    1.6049   -3.2284    0.0000 H   0  0  0  0  0  0  0  0  0  0  0  0
    0.9712   -1.4869    0.0000 H   0  0  0  0  0  0  0  0  0  0  0  0
    1.7908   -2.1747    0.0000 H   0  0  0  0  0  0  0  0  0  0  0  0
   -1.5571    1.4631    0.0000 H   0  0  0  0  0  0  0  0  0  0  0  0
   -2.9768    0.2718    0.0000 H   0  0  0  0  0  0  0  0  0  0  0  0
   -2.6109    1.2773    0.0000 H   0  0  0  0  0  0  0  0  0  0  0  0
    2.8940    1.2306    0.0000 H   0  0  0  0  0  0  0  0  0  0  0  0
    3.8206    1.7656    0.0000 H   0  0  0  0  0  0  0  0  0  0  0  0
  1  2  1  0  0  0  0
  1 24  1  0  0  0  0
  1 32  1  0  0  0  0
  2  3  2  0  0  0  0
  2  4  1  0  0  0  0
  5  4  1  0  0  0  0
  5  6  1  0  0  0  0
  5 12  1  0  0  0  0
  5 28  1  1  0  0  0
  6  7  1  0  0  0  0
  6 33  1  0  0  0  0
  6 34  1  0  0  0  0
  7  8  1  0  0  0  0
  7 35  1  0  0  0  0
  7 36  1  0  0  0  0
  8  9  1  1  0  0  0
  8 10  1  0  0  0  0
  8 11  1  0  0  0  0
  9 10  1  0  0  0  0
 10 37  1  0  0  0  0
 10 38  1  0  0  0  0
 11 12  1  0  0  0  0
 11 29  1  6  0  0  0
 12 13  1  0  0  0  0
 12 30  1  1  0  0  0
 13 14  1  0  0  0  0
 14 39  1  0  0  0  0
 14 40  1  0  0  0  0
 14 41  1  0  0  0  0
 15 11  1  0  0  0  0
 15 16  1  0  0  0  0
 15 17  1  0  0  0  0
 15 23  1  1  0  0  0
 16 17  1  0  0  0  0
 17 18  1  0  0  0  0
 17 31  1  6  0  0  0
 18 19  1  0  0  0  0
 18 42  1  0  0  0  0
 18 43  1  0  0  0  0
 19 20  2  0  0  0  0
 19 44  1  0  0  0  0
 20 21  1  0  0  0  0
 20 22  1  0  0  0  0
 21 45  1  0  0  0  0
 21 46  1  0  0  0  0
 21 47  1  0  0  0  0
 22 48  1  0  0  0  0
 22 49  1  0  0  0  0
 22 50  1  0  0  0  0
 23 51  1  0  0  0  0
 23 52  1  0  0  0  0
 23 53  1  0  0  0  0
 24 25  2  0  0  0  0
 24 26  1  0  0  0  0
 26 27  1  0  0  0  0
 26 54  1  0  0  0  0
 26 55  1  0  0  0  0
M  END
>  <DRUGBANK_ID>
DB08633

>  <SECONDARY_ACCESSION_NUMBERS>
DB12828

>  <COMMON_NAME>
TNP-470

>  <CAS_NUMBER>
129298-91-5

>  <UNII>
X47GR46481

>  <SYNONYMS>
O-(chloroacetylcarbamoyl)fumagillol; O-chloroacetylcarbamoylfumagillol

$$$$
