
 OpenBabel10282417072D

 41 42  0  0  1  0  0  0  0  0999 V2000
    1.2169    0.0000    0.0000 C   0  0  2  0  0  0  0  0  0  0  0  0
    2.0040    0.2613    0.0000 N   0  0  0  0  0  0  0  0  0  0  0  0
    0.5741    0.4744    0.0000 O   0  0  0  0  0  0  0  0  0  0  0  0
    0.9728   -0.8044    0.0000 C   0  0  0  0  0  0  0  0  0  0  0  0
    2.6227   -0.2888    0.0000 C   0  0  0  0  0  0  0  0  0  0  0  0
    2.1759    1.0656    0.0000 C   0  0  0  0  0  0  0  0  0  0  0  0
   -0.0997   -0.0171    0.0000 C   0  0  1  0  0  0  0  0  0  0  0  0
    0.1478   -0.8044    0.0000 C   0  0  1  0  0  0  0  0  0  0  0  0
    3.4133   -0.0309    0.0000 N   0  0  0  0  0  0  0  0  0  0  0  0
    2.4612   -1.0965    0.0000 O   0  0  0  0  0  0  0  0  0  0  0  0
    2.9562    1.3303    0.0000 C   0  0  0  0  0  0  0  0  0  0  0  0
   -0.8834    0.2372    0.0000 C   0  0  0  0  0  0  0  0  0  0  0  0
   -0.3403   -1.4678    0.0000 O   0  0  0  0  0  0  0  0  0  0  0  0
    3.5818    0.7803    0.0000 C   0  0  0  0  0  0  0  0  0  0  0  0
    3.1178    2.1381    0.0000 C   0  0  0  0  0  0  0  0  0  0  0  0
   -1.4953   -0.3128    0.0000 O   0  0  0  0  0  0  0  0  0  0  0  0
    4.3655    1.0346    0.0000 O   0  0  0  0  0  0  0  0  0  0  0  0
   -2.3168   -0.3128    0.0000 P   0  0  3  0  0  0  0  0  0  0  0  0
   -3.1418   -0.3128    0.0000 O   0  0  0  0  0  0  0  0  0  0  0  0
   -2.3237   -1.1378    0.0000 O   0  0  0  0  0  0  0  0  0  0  0  0
   -2.3237    0.5087    0.0000 O   0  0  0  0  0  0  0  0  0  0  0  0
   -3.9634   -0.3093    0.0000 P   0  0  0  0  0  0  0  0  0  0  0  0
   -3.9668   -1.1343    0.0000 O   0  0  0  0  0  0  0  0  0  0  0  0
   -4.7849   -0.3093    0.0000 O   0  0  0  0  0  0  0  0  0  0  0  0
   -3.9668    0.5122    0.0000 O   0  0  0  0  0  0  0  0  0  0  0  0
    1.3849    1.0567    0.0000 H   0  0  0  0  0  0  0  0  0  0  0  0
    1.6102   -1.6639    0.0000 H   0  0  0  0  0  0  0  0  0  0  0  0
    0.4917   -1.7601    0.0000 H   0  0  0  0  0  0  0  0  0  0  0  0
    1.4049    1.7516    0.0000 H   0  0  0  0  0  0  0  0  0  0  0  0
   -0.2683    1.0395    0.0000 H   0  0  0  0  0  0  0  0  0  0  0  0
    0.6307   -1.7592    0.0000 H   0  0  0  0  0  0  0  0  0  0  0  0
    4.1468   -0.6875    0.0000 H   0  0  0  0  0  0  0  0  0  0  0  0
   -1.1056    1.2839    0.0000 H   0  0  0  0  0  0  0  0  0  0  0  0
   -1.9008    0.5684    0.0000 H   0  0  0  0  0  0  0  0  0  0  0  0
   -1.3044   -1.3606    0.0000 H   0  0  0  0  0  0  0  0  0  0  0  0
    4.1314    2.4809    0.0000 H   0  0  0  0  0  0  0  0  0  0  0  0
    2.3141    2.8445    0.0000 H   0  0  0  0  0  0  0  0  0  0  0  0
    3.3277    3.1873    0.0000 H   0  0  0  0  0  0  0  0  0  0  0  0
   -3.1678   -1.6158    0.0000 H   0  0  0  0  0  0  0  0  0  0  0  0
   -4.8088   -1.6158    0.0000 H   0  0  0  0  0  0  0  0  0  0  0  0
   -5.2699    0.5307    0.0000 H   0  0  0  0  0  0  0  0  0  0  0  0
  1  2  1  0  0  0  0
  1  3  1  0  0  0  0
  1  4  1  0  0  0  0
  1 26  1  6  0  0  0
  2  5  1  0  0  0  0
  2  6  1  0  0  0  0
  3  7  1  0  0  0  0
  4  8  1  0  0  0  0
  4 27  1  0  0  0  0
  4 28  1  0  0  0  0
  5  9  1  0  0  0  0
  5 10  2  0  0  0  0
  6 11  2  0  0  0  0
  6 29  1  0  0  0  0
  7 12  1  0  0  0  0
  7  8  1  0  0  0  0
  7 30  1  6  0  0  0
  8 13  1  0  0  0  0
  8 31  1  1  0  0  0
  9 14  1  0  0  0  0
  9 32  1  0  0  0  0
 11 15  1  0  0  0  0
 11 14  1  0  0  0  0
 12 16  1  0  0  0  0
 12 33  1  0  0  0  0
 12 34  1  0  0  0  0
 13 35  1  0  0  0  0
 14 17  2  0  0  0  0
 15 36  1  0  0  0  0
 15 37  1  0  0  0  0
 15 38  1  0  0  0  0
 16 18  1  0  0  0  0
 18 19  1  0  0  0  0
 18 20  1  0  0  0  0
 18 21  2  0  0  0  0
 19 22  1  0  0  0  0
 20 39  1  0  0  0  0
 22 23  1  0  0  0  0
 22 24  1  0  0  0  0
 22 25  2  0  0  0  0
 23 40  1  0  0  0  0
 24 41  1  0  0  0  0
M  END
>  <DRUGBANK_ID>
DB03103

>  <SECONDARY_ACCESSION_NUMBERS>
EXPT03136

>  <COMMON_NAME>
Thymidine-5'- Diphosphate

>  <UNII>
QQ3K1P45DF

$$$$
