FOH
 OpenBabel10282417072D

 42 41  0  0  0  0  0  0  0  0999 V2000
   -1.9455   -0.7271    0.0000 C   0  0  0  0  0  0  0  0  0  0  0  0
   -1.1206   -0.7271    0.0000 C   0  0  0  0  0  0  0  0  0  0  0  0
   -0.7081   -0.0126    0.0000 C   0  0  0  0  0  0  0  0  0  0  0  0
   -0.7081   -1.4414    0.0000 C   0  0  0  0  0  0  0  0  0  0  0  0
    0.1169   -1.4414    0.0000 C   0  0  0  0  0  0  0  0  0  0  0  0
    0.5293   -0.7271    0.0000 C   0  0  0  0  0  0  0  0  0  0  0  0
    1.3543   -0.7271    0.0000 C   0  0  0  0  0  0  0  0  0  0  0  0
    1.7668   -1.4414    0.0000 C   0  0  0  0  0  0  0  0  0  0  0  0
    1.7668   -0.0126    0.0000 C   0  0  0  0  0  0  0  0  0  0  0  0
    1.3543    0.7019    0.0000 C   0  0  0  0  0  0  0  0  0  0  0  0
    0.5293    0.7019    0.0000 C   0  0  0  0  0  0  0  0  0  0  0  0
    0.1169    1.4162    0.0000 C   0  0  0  0  0  0  0  0  0  0  0  0
    0.5293    2.1307    0.0000 C   0  0  0  0  0  0  0  0  0  0  0  0
   -0.7081    1.4162    0.0000 C   0  0  0  0  0  0  0  0  0  0  0  0
   -1.1206    0.7019    0.0000 C   0  0  0  0  0  0  0  0  0  0  0  0
   -1.9455    0.7019    0.0000 O   0  0  0  0  0  0  0  0  0  0  0  0
   -2.4805    0.1995    0.0000 H   0  0  0  0  0  0  0  0  0  0  0  0
   -2.4805   -1.6537    0.0000 H   0  0  0  0  0  0  0  0  0  0  0  0
   -3.0155   -0.7271    0.0000 H   0  0  0  0  0  0  0  0  0  0  0  0
    0.3619   -0.0126    0.0000 H   0  0  0  0  0  0  0  0  0  0  0  0
   -1.2431    0.9140    0.0000 H   0  0  0  0  0  0  0  0  0  0  0  0
   -0.1731    0.9141    0.0000 H   0  0  0  0  0  0  0  0  0  0  0  0
   -1.2241   -2.3352    0.0000 H   0  0  0  0  0  0  0  0  0  0  0  0
    0.6519   -2.3680    0.0000 H   0  0  0  0  0  0  0  0  0  0  0  0
    1.1869   -1.4414    0.0000 H   0  0  0  0  0  0  0  0  0  0  0  0
   -0.0057    0.1995    0.0000 H   0  0  0  0  0  0  0  0  0  0  0  0
    1.0643    0.1995    0.0000 H   0  0  0  0  0  0  0  0  0  0  0  0
    1.2319   -2.3681    0.0000 H   0  0  0  0  0  0  0  0  0  0  0  0
    2.8368   -1.4413    0.0000 H   0  0  0  0  0  0  0  0  0  0  0  0
    2.3019   -2.3680    0.0000 H   0  0  0  0  0  0  0  0  0  0  0  0
    2.7988   -0.0126    0.0000 H   0  0  0  0  0  0  0  0  0  0  0  0
    1.8893    1.6285    0.0000 H   0  0  0  0  0  0  0  0  0  0  0  0
    0.8193    1.6285    0.0000 H   0  0  0  0  0  0  0  0  0  0  0  0
   -0.0057   -0.2247    0.0000 H   0  0  0  0  0  0  0  0  0  0  0  0
   -0.5407    0.7019    0.0000 H   0  0  0  0  0  0  0  0  0  0  0  0
    1.5993    2.1308    0.0000 H   0  0  0  0  0  0  0  0  0  0  0  0
   -0.0058    3.0573    0.0000 H   0  0  0  0  0  0  0  0  0  0  0  0
    1.0642    3.0574    0.0000 H   0  0  0  0  0  0  0  0  0  0  0  0
   -1.2241    2.3100    0.0000 H   0  0  0  0  0  0  0  0  0  0  0  0
   -0.5856   -0.2248    0.0000 H   0  0  0  0  0  0  0  0  0  0  0  0
   -1.6556   -0.2247    0.0000 H   0  0  0  0  0  0  0  0  0  0  0  0
   -2.4305    1.5419    0.0000 H   0  0  0  0  0  0  0  0  0  0  0  0
  1  2  1  0  0  0  0
  1 17  1  0  0  0  0
  1 18  1  0  0  0  0
  1 19  1  0  0  0  0
  2  3  1  0  0  0  0
  2  4  2  0  0  0  0
  3 20  1  0  0  0  0
  3 21  1  0  0  0  0
  3 22  1  0  0  0  0
  4  5  1  0  0  0  0
  4 23  1  0  0  0  0
  5  6  1  0  0  0  0
  5 24  1  0  0  0  0
  5 25  1  0  0  0  0
  6  7  1  0  0  0  0
  6 26  1  0  0  0  0
  6 27  1  0  0  0  0
  7  8  1  0  0  0  0
  7  9  2  0  0  0  0
  8 28  1  0  0  0  0
  8 29  1  0  0  0  0
  8 30  1  0  0  0  0
  9 10  1  0  0  0  0
  9 31  1  0  0  0  0
 10 11  1  0  0  0  0
 10 32  1  0  0  0  0
 10 33  1  0  0  0  0
 11 12  1  0  0  0  0
 11 34  1  0  0  0  0
 11 35  1  0  0  0  0
 12 13  1  0  0  0  0
 12 14  2  0  0  0  0
 13 36  1  0  0  0  0
 13 37  1  0  0  0  0
 13 38  1  0  0  0  0
 14 15  1  0  0  0  0
 14 39  1  0  0  0  0
 15 16  1  0  0  0  0
 15 40  1  0  0  0  0
 15 41  1  0  0  0  0
 16 42  1  0  0  0  0
M  END
>  <DRUGBANK_ID>
DB02509

>  <SECONDARY_ACCESSION_NUMBERS>
EXPT01466

>  <COMMON_NAME>
Farnesol

>  <CAS_NUMBER>
4602-84-0

>  <UNII>
J03523NK03

$$$$
