NW1
 OpenBabel10282417072D

 35 36  0  0  0  0  0  0  0  0999 V2000
   -1.0655    1.0567    0.0000 N   0  0  0  0  0  0  0  0  0  0  0  0
   -1.0655    0.2317    0.0000 C   0  0  0  0  0  0  0  0  0  0  0  0
   -0.3510   -0.1808    0.0000 O   0  0  0  0  0  0  0  0  0  0  0  0
    0.3634    0.2317    0.0000 C   0  0  0  0  0  0  0  0  0  0  0  0
    1.0779   -0.1808    0.0000 C   0  0  0  0  0  0  0  0  0  0  0  0
    1.7924    0.2317    0.0000 C   0  0  0  0  0  0  0  0  0  0  0  0
    2.5069   -0.1808    0.0000 C   0  0  0  0  0  0  0  0  0  0  0  0
    2.5069   -1.0058    0.0000 C   0  0  0  0  0  0  0  0  0  0  0  0
    1.7924   -1.4183    0.0000 C   0  0  0  0  0  0  0  0  0  0  0  0
    1.0779   -1.0058    0.0000 C   0  0  0  0  0  0  0  0  0  0  0  0
   -1.7800   -0.1808    0.0000 C   0  0  0  0  0  0  0  0  0  0  0  0
   -1.7800   -1.0058    0.0000 N   0  0  0  0  0  0  0  0  0  0  0  0
   -1.0655   -1.4183    0.0000 O   0  0  0  0  0  0  0  0  0  0  0  0
   -2.4944    0.2317    0.0000 C   0  0  0  0  0  0  0  0  0  0  0  0
   -3.2089   -0.1808    0.0000 N   0  0  0  0  0  0  0  0  0  0  0  0
   -2.4944    1.0567    0.0000 N   0  0  0  0  0  0  0  0  0  0  0  0
   -1.7800    1.4692    0.0000 C   0  0  0  0  0  0  0  0  0  0  0  0
   -1.7800    2.2942    0.0000 N   0  0  0  0  0  0  0  0  0  0  0  0
    0.3634    1.3017    0.0000 H   0  0  0  0  0  0  0  0  0  0  0  0
    1.2900    0.7667    0.0000 H   0  0  0  0  0  0  0  0  0  0  0  0
    2.0045   -0.7158    0.0000 H   0  0  0  0  0  0  0  0  0  0  0  0
    1.7924    1.3017    0.0000 H   0  0  0  0  0  0  0  0  0  0  0  0
    2.7190    0.7667    0.0000 H   0  0  0  0  0  0  0  0  0  0  0  0
    3.4335    0.3542    0.0000 H   0  0  0  0  0  0  0  0  0  0  0  0
    3.4335   -0.7158    0.0000 H   0  0  0  0  0  0  0  0  0  0  0  0
    3.4335   -1.5408    0.0000 H   0  0  0  0  0  0  0  0  0  0  0  0
    2.5069   -2.0758    0.0000 H   0  0  0  0  0  0  0  0  0  0  0  0
    1.7924   -2.4883    0.0000 H   0  0  0  0  0  0  0  0  0  0  0  0
    0.8658   -1.9533    0.0000 H   0  0  0  0  0  0  0  0  0  0  0  0
    0.1513   -1.5408    0.0000 H   0  0  0  0  0  0  0  0  0  0  0  0
    1.0779   -2.0758    0.0000 H   0  0  0  0  0  0  0  0  0  0  0  0
   -4.0615    0.3115    0.0000 H   0  0  0  0  0  0  0  0  0  0  0  0
   -3.2089   -1.1653    0.0000 H   0  0  0  0  0  0  0  0  0  0  0  0
   -0.9274    2.7865    0.0000 H   0  0  0  0  0  0  0  0  0  0  0  0
   -2.6326    2.7864    0.0000 H   0  0  0  0  0  0  0  0  0  0  0  0
  1  2  2  0  0  0  0
  1 17  1  0  0  0  0
  2  3  1  0  0  0  0
  2 11  1  0  0  0  0
  3  4  1  0  0  0  0
  4  5  1  0  0  0  0
  4 19  1  0  0  0  0
  4 20  1  0  0  0  0
  5  6  1  0  0  0  0
  5 10  1  0  0  0  0
  5 21  1  0  0  0  0
  6  7  1  0  0  0  0
  6 22  1  0  0  0  0
  6 23  1  0  0  0  0
  7  8  1  0  0  0  0
  7 24  1  0  0  0  0
  7 25  1  0  0  0  0
  8  9  1  0  0  0  0
  8 26  1  0  0  0  0
  8 27  1  0  0  0  0
  9 10  1  0  0  0  0
  9 28  1  0  0  0  0
  9 29  1  0  0  0  0
 10 30  1  0  0  0  0
 10 31  1  0  0  0  0
 11 12  1  0  0  0  0
 11 14  2  0  0  0  0
 12 13  2  0  0  0  0
 14 15  1  0  0  0  0
 14 16  1  0  0  0  0
 15 32  1  0  0  0  0
 15 33  1  0  0  0  0
 16 17  2  0  0  0  0
 17 18  1  0  0  0  0
 18 34  1  0  0  0  0
 18 35  1  0  0  0  0
M  END
>  <DRUGBANK_ID>
DB08312

>  <COMMON_NAME>
6-CYCLOHEXYLMETHYLOXY-5-NITROSO-PYRIMIDINE-2,4-DIAMINE

$$$$
