HNT
 OpenBabel10282417072D

 27 28  0  0  0  0  0  0  0  0999 V2000
   -0.0008   -0.7524    0.0000 C   0  0  0  0  0  0  0  0  0  0  0  0
   -0.7153   -0.3399    0.0000 C   0  0  2  0  0  0  0  0  0  0  0  0
    2.8570    1.7226    0.0000 O   0  5  0  0  0  0  0  0  0  0  0  0
   -0.0008    0.8976    0.0000 C   0  0  0  0  0  0  0  0  0  0  0  0
    1.4281    0.8976    0.0000 C   0  0  0  0  0  0  0  0  0  0  0  0
    2.1426    0.4851    0.0000 C   0  0  0  0  0  0  0  0  0  0  0  0
    2.1426   -0.3399    0.0000 C   0  0  0  0  0  0  0  0  0  0  0  0
    1.4281   -0.7524    0.0000 C   0  0  0  0  0  0  0  0  0  0  0  0
   -1.4298   -1.5774    0.0000 O   0  0  0  0  0  0  0  0  0  0  0  0
   -1.4298   -0.7524    0.0000 C   0  0  0  0  0  0  0  0  0  0  0  0
    0.7136   -0.3399    0.0000 C   0  0  0  0  0  0  0  0  0  0  0  0
    2.8570    0.8976    0.0000 N   0  3  0  0  0  0  0  0  0  0  0  0
    3.5715    0.4851    0.0000 O   0  0  0  0  0  0  0  0  0  0  0  0
    0.7136    0.4851    0.0000 C   0  0  0  0  0  0  0  0  0  0  0  0
   -0.7153    0.4851    0.0000 N   0  0  0  0  0  0  0  0  0  0  0  0
   -0.7153   -0.9238    0.0000 H   0  0  0  0  0  0  0  0  0  0  0  0
   -0.0008   -1.8224    0.0000 H   0  0  0  0  0  0  0  0  0  0  0  0
    0.9259   -1.2874    0.0000 H   0  0  0  0  0  0  0  0  0  0  0  0
   -0.0008    1.9676    0.0000 H   0  0  0  0  0  0  0  0  0  0  0  0
   -0.9274    1.4326    0.0000 H   0  0  0  0  0  0  0  0  0  0  0  0
    1.4281    1.9296    0.0000 H   0  0  0  0  0  0  0  0  0  0  0  0
    3.0363   -0.8559    0.0000 H   0  0  0  0  0  0  0  0  0  0  0  0
    1.4281   -1.7844    0.0000 H   0  0  0  0  0  0  0  0  0  0  0  0
   -2.2698   -2.0624    0.0000 H   0  0  0  0  0  0  0  0  0  0  0  0
   -2.3564   -0.2174    0.0000 H   0  0  0  0  0  0  0  0  0  0  0  0
   -2.3564   -1.2874    0.0000 H   0  0  0  0  0  0  0  0  0  0  0  0
   -1.5986    0.9951    0.0000 H   0  0  0  0  0  0  0  0  0  0  0  0
  1  2  1  0  0  0  0
  1 11  1  0  0  0  0
  1 17  1  0  0  0  0
  1 18  1  0  0  0  0
  2 10  1  0  0  0  0
  2 15  1  0  0  0  0
  2 16  1  1  0  0  0
  3 12  1  0  0  0  0
  4 14  1  0  0  0  0
  4 15  1  0  0  0  0
  4 19  1  0  0  0  0
  4 20  1  0  0  0  0
  5  6  1  0  0  0  0
  5 14  2  0  0  0  0
  5 21  1  0  0  0  0
  6  7  2  0  0  0  0
  6 12  1  0  0  0  0
  7  8  1  0  0  0  0
  7 22  1  0  0  0  0
  8 11  2  0  0  0  0
  8 23  1  0  0  0  0
  9 10  1  0  0  0  0
  9 24  1  0  0  0  0
 10 25  1  0  0  0  0
 10 26  1  0  0  0  0
 11 14  1  0  0  0  0
 12 13  2  0  0  0  0
 15 27  1  0  0  0  0
M  CHG  2   3  -1  12   1
M  END
>  <DRUGBANK_ID>
DB07906

>  <COMMON_NAME>
[(3R)-7-NITRO-1,2,3,4-TETRAHYDROISOQUINOLIN-3-YL]METHANOL

$$$$
