
 OpenBabel10282417072D

 41 41  0  0  0  0  0  0  0  0999 V2000
    2.0077    1.7395    0.0000 P   0  0  0  0  0  0  0  0  0  0  0  0
    1.2931    0.5020    0.0000 O   0  0  0  0  0  0  0  0  0  0  0  0
   -0.8503    1.7395    0.0000 O   0  0  0  0  0  0  0  0  0  0  0  0
   -0.1357   -1.1480    0.0000 O   0  0  0  0  0  0  0  0  0  0  0  0
    2.0077   -0.7355    0.0000 O   0  0  0  0  0  0  0  0  0  0  0  0
    2.7221    2.1520    0.0000 O   0  0  0  0  0  0  0  0  0  0  0  0
    1.5952    2.4540    0.0000 O   0  0  0  0  0  0  0  0  0  0  0  0
    2.4202    1.0250    0.0000 O   0  0  0  0  0  0  0  0  0  0  0  0
    2.0077   -2.3855    0.0000 O   0  0  0  0  0  0  0  0  0  0  0  0
   -1.5647    1.3270    0.0000 O   0  0  0  0  0  0  0  0  0  0  0  0
   -0.8503    0.0895    0.0000 N   0  0  0  0  0  0  0  0  0  0  0  0
   -0.1357    0.5020    0.0000 C   0  0  1  0  0  0  0  0  0  0  0  0
    0.5787    0.0895    0.0000 C   0  0  2  0  0  0  0  0  0  0  0  0
   -0.1357    1.3270    0.0000 C   0  0  2  0  0  0  0  0  0  0  0  0
    0.5787    1.7395    0.0000 C   0  0  0  0  0  0  0  0  0  0  0  0
    1.2931    1.3270    0.0000 C   0  0  2  0  0  0  0  0  0  0  0  0
    0.5787   -0.7355    0.0000 C   0  0  1  0  0  0  0  0  0  0  0  0
    1.2931   -1.1480    0.0000 C   0  0  1  0  0  0  0  0  0  0  0  0
    1.2931   -1.9730    0.0000 C   0  0  0  0  0  0  0  0  0  0  0  0
   -1.5647    0.5020    0.0000 C   0  0  0  0  0  0  0  0  0  0  0  0
   -2.2792    0.0895    0.0000 C   0  0  0  0  0  0  0  0  0  0  0  0
    1.2931   -0.3229    0.0000 H   0  0  0  0  0  0  0  0  0  0  0  0
   -0.8504    2.7095    0.0000 H   0  0  0  0  0  0  0  0  0  0  0  0
   -0.9758   -0.6630    0.0000 H   0  0  0  0  0  0  0  0  0  0  0  0
    2.8477   -1.2206    0.0000 H   0  0  0  0  0  0  0  0  0  0  0  0
    3.5622    1.6670    0.0000 H   0  0  0  0  0  0  0  0  0  0  0  0
    2.0802    3.2940    0.0000 H   0  0  0  0  0  0  0  0  0  0  0  0
    2.0078   -3.3555    0.0000 H   0  0  0  0  0  0  0  0  0  0  0  0
   -0.8504   -0.8950    0.0000 H   0  0  0  0  0  0  0  0  0  0  0  0
   -0.1358   -0.5680    0.0000 H   0  0  0  0  0  0  0  0  0  0  0  0
   -1.0623    0.7920    0.0000 H   0  0  0  0  0  0  0  0  0  0  0  0
    0.5787    2.8095    0.0000 H   0  0  0  0  0  0  0  0  0  0  0  0
    1.5054    2.2745    0.0000 H   0  0  0  0  0  0  0  0  0  0  0  0
    2.2197    0.7920    0.0000 H   0  0  0  0  0  0  0  0  0  0  0  0
   -0.3480   -0.2005    0.0000 H   0  0  0  0  0  0  0  0  0  0  0  0
    1.2932   -0.0780    0.0000 H   0  0  0  0  0  0  0  0  0  0  0  0
    0.3665   -2.5080    0.0000 H   0  0  0  0  0  0  0  0  0  0  0  0
    0.3664   -1.4380    0.0000 H   0  0  0  0  0  0  0  0  0  0  0  0
   -3.2058    0.6245    0.0000 H   0  0  0  0  0  0  0  0  0  0  0  0
   -2.2792   -0.9805    0.0000 H   0  0  0  0  0  0  0  0  0  0  0  0
   -3.2059   -0.4455    0.0000 H   0  0  0  0  0  0  0  0  0  0  0  0
  1  6  1  0  0  0  0
  1  7  1  0  0  0  0
  1  8  2  0  0  0  0
  2 13  1  0  0  0  0
  2 16  1  0  0  0  0
  3 23  1  0  0  0  0
  4 24  1  0  0  0  0
  5 25  1  0  0  0  0
  6 26  1  0  0  0  0
  7 27  1  0  0  0  0
  9 19  1  0  0  0  0
  9 28  1  0  0  0  0
 10 20  2  0  0  0  0
 11 20  1  0  0  0  0
 11 29  1  0  0  0  0
 12 11  1  0  0  0  0
 12 13  1  0  0  0  0
 12 14  1  0  0  0  0
 12 30  1  1  0  0  0
 13 17  1  0  0  0  0
 13 22  1  6  0  0  0
 14  3  1  0  0  0  0
 14 15  1  0  0  0  0
 14 31  1  6  0  0  0
 15 16  1  0  0  0  0
 15 32  1  0  0  0  0
 15 33  1  0  0  0  0
 16  1  1  0  0  0  0
 16 34  1  1  0  0  0
 17  4  1  0  0  0  0
 17 18  1  0  0  0  0
 17 35  1  6  0  0  0
 18  5  1  0  0  0  0
 18 19  1  0  0  0  0
 18 36  1  1  0  0  0
 19 37  1  0  0  0  0
 19 38  1  0  0  0  0
 20 21  1  0  0  0  0
 21 39  1  0  0  0  0
 21 40  1  0  0  0  0
 21 41  1  0  0  0  0
M  END
>  <DRUGBANK_ID>
DB04561

>  <SECONDARY_ACCESSION_NUMBERS>
EXPT00595

>  <COMMON_NAME>
4-acetamido-2,4-didexoy-D-glycero-beta-D-galacto-octopyranosylphosphonic acid

$$$$
