
 OpenBabel10282417072D

 57 61  0  0  0  0  0  0  0  0999 V2000
    8.3287    3.1727    0.0000 C   0  0  0  0  0  0  0  0  0  0  0  0
    7.5395    2.9325    0.0000 C   0  0  0  0  0  0  0  0  0  0  0  0
    7.2698    2.1528    0.0000 N   0  0  0  0  0  0  0  0  0  0  0  0
    6.4450    2.1683    0.0000 C   0  0  0  0  0  0  0  0  0  0  0  0
    5.8815    1.5657    0.0000 C   0  0  0  0  0  0  0  0  0  0  0  0
    5.0779    1.7523    0.0000 C   0  0  0  0  0  0  0  0  0  0  0  0
    4.8378    2.5416    0.0000 C   0  0  0  0  0  0  0  0  0  0  0  0
    5.4012    3.1442    0.0000 C   0  0  0  0  0  0  0  0  0  0  0  0
    6.2048    2.9575    0.0000 C   0  0  0  0  0  0  0  0  0  0  0  0
    6.8812    3.4299    0.0000 N   0  0  0  0  0  0  0  0  0  0  0  0
    4.5145    1.1497    0.0000 C   0  0  0  0  0  0  0  0  0  0  0  0
    4.7547    0.3604    0.0000 O   0  0  0  0  0  0  0  0  0  0  0  0
    3.7109    1.3363    0.0000 N   0  0  0  0  0  0  0  0  0  0  0  0
    3.1474    0.7337    0.0000 C   0  0  0  0  0  0  0  0  0  0  0  0
    2.3438    0.9203    0.0000 C   0  0  0  0  0  0  0  0  0  0  0  0
    2.1037    1.7096    0.0000 C   0  0  0  0  0  0  0  0  0  0  0  0
    2.6671    2.3122    0.0000 C   0  0  0  0  0  0  0  0  0  0  0  0
    3.4707    2.1256    0.0000 C   0  0  0  0  0  0  0  0  0  0  0  0
    1.5402    1.1070    0.0000 C   0  0  0  0  0  0  0  0  0  0  0  0
    0.7366    1.2936    0.0000 C   0  0  0  0  0  0  0  0  0  0  0  0
    0.0602    0.8213    0.0000 C   0  0  0  0  0  0  0  0  0  0  0  0
   -0.5980    1.3186    0.0000 N   0  0  0  0  0  0  0  0  0  0  0  0
   -0.3284    2.0983    0.0000 N   0  0  0  0  0  0  0  0  0  0  0  0
    0.4964    2.0829    0.0000 C   0  0  0  0  0  0  0  0  0  0  0  0
    1.0599    2.6855    0.0000 C   0  0  0  0  0  0  0  0  0  0  0  0
    0.8197    3.4748    0.0000 O   0  0  0  0  0  0  0  0  0  0  0  0
    1.8635    2.4988    0.0000 C   0  0  0  0  0  0  0  0  0  0  0  0
   -0.8007    2.7748    0.0000 C   0  0  0  0  0  0  0  0  0  0  0  0
   -1.6227    2.7039    0.0000 C   0  0  0  0  0  0  0  0  0  0  0  0
   -0.4511    3.5220    0.0000 C   0  0  0  0  0  0  0  0  0  0  0  0
    9.1103    2.4420    0.0000 H   0  0  0  0  0  0  0  0  0  0  0  0
    8.5707    4.2150    0.0000 H   0  0  0  0  0  0  0  0  0  0  0  0
    9.3523    3.4843    0.0000 H   0  0  0  0  0  0  0  0  0  0  0  0
    7.8334    1.3456    0.0000 H   0  0  0  0  0  0  0  0  0  0  0  0
    6.1819    0.5784    0.0000 H   0  0  0  0  0  0  0  0  0  0  0  0
    3.8326    2.7751    0.0000 H   0  0  0  0  0  0  0  0  0  0  0  0
    5.1008    4.1315    0.0000 H   0  0  0  0  0  0  0  0  0  0  0  0
    3.4589   -0.2900    0.0000 H   0  0  0  0  0  0  0  0  0  0  0  0
    2.4166   -0.0479    0.0000 H   0  0  0  0  0  0  0  0  0  0  0  0
    1.6130    0.1387    0.0000 H   0  0  0  0  0  0  0  0  0  0  0  0
    1.3016    1.1624    0.0000 H   0  0  0  0  0  0  0  0  0  0  0  0
    2.3556    3.3358    0.0000 H   0  0  0  0  0  0  0  0  0  0  0  0
    3.3978    3.0938    0.0000 H   0  0  0  0  0  0  0  0  0  0  0  0
    4.2014    2.9072    0.0000 H   0  0  0  0  0  0  0  0  0  0  0  0
    4.5130    1.8836    0.0000 H   0  0  0  0  0  0  0  0  0  0  0  0
    1.8517    0.0833    0.0000 H   0  0  0  0  0  0  0  0  0  0  0  0
    0.8094    0.3254    0.0000 H   0  0  0  0  0  0  0  0  0  0  0  0
    0.0409   -0.2105    0.0000 H   0  0  0  0  0  0  0  0  0  0  0  0
    2.5943    3.2804    0.0000 H   0  0  0  0  0  0  0  0  0  0  0  0
    2.9058    2.2568    0.0000 H   0  0  0  0  0  0  0  0  0  0  0  0
   -1.4133    3.6521    0.0000 H   0  0  0  0  0  0  0  0  0  0  0  0
   -2.2354    3.5811    0.0000 H   0  0  0  0  0  0  0  0  0  0  0  0
   -2.0761    1.7347    0.0000 H   0  0  0  0  0  0  0  0  0  0  0  0
   -2.6887    2.6120    0.0000 H   0  0  0  0  0  0  0  0  0  0  0  0
    0.6149    3.6139    0.0000 H   0  0  0  0  0  0  0  0  0  0  0  0
   -1.0637    4.3993    0.0000 H   0  0  0  0  0  0  0  0  0  0  0  0
    0.0024    4.4912    0.0000 H   0  0  0  0  0  0  0  0  0  0  0  0
  1  2  1  0  0  0  0
  1 31  1  0  0  0  0
  1 32  1  0  0  0  0
  1 33  1  0  0  0  0
  2  3  1  0  0  0  0
  2 10  2  0  0  0  0
  3  4  1  0  0  0  0
  3 34  1  0  0  0  0
  4  5  2  0  0  0  0
  4  9  1  0  0  0  0
  5  6  1  0  0  0  0
  5 35  1  0  0  0  0
  6  7  2  0  0  0  0
  6 11  1  0  0  0  0
  7  8  1  0  0  0  0
  7 36  1  0  0  0  0
  8  9  2  0  0  0  0
  8 37  1  0  0  0  0
  9 10  1  0  0  0  0
 11 12  2  0  0  0  0
 11 13  1  0  0  0  0
 13 14  1  0  0  0  0
 13 18  1  0  0  0  0
 14 15  1  0  0  0  0
 14 38  1  0  0  0  0
 14 39  1  0  0  0  0
 15 16  1  0  0  0  0
 15 40  1  0  0  0  0
 15 41  1  0  0  0  0
 16 17  1  0  0  0  0
 16 19  1  0  0  0  0
 16 27  1  0  0  0  0
 17 18  1  0  0  0  0
 17 42  1  0  0  0  0
 17 43  1  0  0  0  0
 18 44  1  0  0  0  0
 18 45  1  0  0  0  0
 19 20  1  0  0  0  0
 19 46  1  0  0  0  0
 19 47  1  0  0  0  0
 20 21  1  0  0  0  0
 20 24  2  0  0  0  0
 21 22  2  0  0  0  0
 21 48  1  0  0  0  0
 22 23  1  0  0  0  0
 23 24  1  0  0  0  0
 23 28  1  0  0  0  0
 24 25  1  0  0  0  0
 25 26  2  0  0  0  0
 25 27  1  0  0  0  0
 27 49  1  0  0  0  0
 27 50  1  0  0  0  0
 28 29  1  0  0  0  0
 28 30  1  0  0  0  0
 28 51  1  0  0  0  0
 29 52  1  0  0  0  0
 29 53  1  0  0  0  0
 29 54  1  0  0  0  0
 30 55  1  0  0  0  0
 30 56  1  0  0  0  0
 30 57  1  0  0  0  0
M  END
>  <DRUGBANK_ID>
DB12096

>  <COMMON_NAME>
PF-05175157

>  <CAS_NUMBER>
1301214-47-0

>  <UNII>
P826WR56FI

$$$$
