
 OpenBabel10282417072D

 52 56  0  0  0  0  0  0  0  0999 V2000
    4.5928    4.1449    0.0000 C   0  0  0  0  0  0  0  0  0  0  0  0
    1.5704    1.7945    0.0000 C   0  0  0  0  0  0  0  0  0  0  0  0
    5.0776    3.2076    0.0000 C   0  0  0  0  0  0  0  0  0  0  0  0
    6.2637    2.4106    0.0000 C   0  0  0  0  0  0  0  0  0  0  0  0
    4.6175    2.5229    0.0000 C   0  0  0  0  0  0  0  0  0  0  0  0
    5.8035    1.7258    0.0000 C   0  0  0  0  0  0  0  0  0  0  0  0
    4.4230   -0.3284    0.0000 C   0  0  0  0  0  0  0  0  0  0  0  0
    3.6971    1.1534    0.0000 C   0  0  0  0  0  0  0  0  0  0  0  0
    6.3609    3.8362    0.0000 C   0  0  0  0  0  0  0  0  0  0  0  0
    5.1853    4.7190    0.0000 C   0  0  0  0  0  0  0  0  0  0  0  0
    1.7292    0.9850    0.0000 C   0  0  3  0  0  0  0  0  0  0  0  0
    3.5999   -0.2722    0.0000 C   0  0  0  0  0  0  0  0  0  0  0  0
    4.8832    0.3564    0.0000 C   0  0  0  0  0  0  0  0  0  0  0  0
    3.2370    0.4686    0.0000 C   0  0  0  0  0  0  0  0  0  0  0  0
    4.5202    1.0972    0.0000 C   0  0  0  0  0  0  0  0  0  0  0  0
    5.9980    4.5771    0.0000 C   0  0  0  0  0  0  0  0  0  0  0  0
    2.3167   -0.9008    0.0000 C   0  0  0  0  0  0  0  0  0  0  0  0
    3.1397   -0.9570    0.0000 C   0  0  0  0  0  0  0  0  0  0  0  0
    1.9537   -0.1600    0.0000 C   0  0  0  0  0  0  0  0  0  0  0  0
    1.8565   -1.5856    0.0000 C   0  0  0  0  0  0  0  0  0  0  0  0
    5.8099    5.8987    0.0000 C   0  0  0  0  0  0  0  0  0  0  0  0
    5.7062    0.3002    0.0000 F   0  0  0  0  0  0  0  0  0  0  0  0
    5.9007    3.1515    0.0000 N   0  0  0  0  0  0  0  0  0  0  0  0
    4.9804    1.7820    0.0000 N   0  0  0  0  0  0  0  0  0  0  0  0
    2.4139    0.5248    0.0000 N   0  0  0  0  0  0  0  0  0  0  0  0
    3.5027   -1.6979    0.0000 O   0  0  0  0  0  0  0  0  0  0  0  0
    1.0334   -1.5294    0.0000 O   0  0  0  0  0  0  0  0  0  0  0  0
    2.2194   -2.3265    0.0000 O   0  0  0  0  0  0  0  0  0  0  0  0
    5.9518    6.7114    0.0000 O   0  0  0  0  0  0  0  0  0  0  0  0
    5.0691    5.5357    0.0000 O   0  0  0  0  0  0  0  0  0  0  0  0
    6.3840    5.3062    0.0000 O   0  0  0  0  0  0  0  0  0  0  0  0
    1.2690    0.3002    0.0000 S   0  0  0  0  0  0  0  0  0  0  0  0
    3.5638    4.4381    0.0000 H   0  0  0  0  0  0  0  0  0  0  0  0
    4.8534    3.1071    0.0000 H   0  0  0  0  0  0  0  0  0  0  0  0
    3.8244    3.4003    0.0000 H   0  0  0  0  0  0  0  0  0  0  0  0
    2.3767    2.4979    0.0000 H   0  0  0  0  0  0  0  0  0  0  0  0
    0.5581    2.1411    0.0000 H   0  0  0  0  0  0  0  0  0  0  0  0
    1.3644    2.8445    0.0000 H   0  0  0  0  0  0  0  0  0  0  0  0
    4.6069    4.1685    0.0000 H   0  0  0  0  0  0  0  0  0  0  0  0
    5.6744    4.0957    0.0000 H   0  0  0  0  0  0  0  0  0  0  0  0
    7.3312    2.3378    0.0000 H   0  0  0  0  0  0  0  0  0  0  0  0
    6.8605    3.2987    0.0000 H   0  0  0  0  0  0  0  0  0  0  0  0
    3.5500    2.5957    0.0000 H   0  0  0  0  0  0  0  0  0  0  0  0
    4.0207    1.6348    0.0000 H   0  0  0  0  0  0  0  0  0  0  0  0
    6.2742    0.7649    0.0000 H   0  0  0  0  0  0  0  0  0  0  0  0
    5.2066    0.8377    0.0000 H   0  0  0  0  0  0  0  0  0  0  0  0
    4.8770   -1.2552    0.0000 H   0  0  0  0  0  0  0  0  0  0  0  0
    3.2431    2.0802    0.0000 H   0  0  0  0  0  0  0  0  0  0  0  0
    7.4284    3.7633    0.0000 H   0  0  0  0  0  0  0  0  0  0  0  0
    6.8315    2.8753    0.0000 H   0  0  0  0  0  0  0  0  0  0  0  0
    2.6205    1.5771    0.0000 H   0  0  0  0  0  0  0  0  0  0  0  0
    1.6967   -3.1042    0.0000 H   0  0  0  0  0  0  0  0  0  0  0  0
  1 33  1  0  0  0  0
  1 34  1  0  0  0  0
  1 35  1  0  0  0  0
  2 36  1  0  0  0  0
  2 37  1  0  0  0  0
  2 38  1  0  0  0  0
  3 39  1  0  0  0  0
  3 40  1  0  0  0  0
  4 41  1  0  0  0  0
  4 42  1  0  0  0  0
  5  3  1  0  0  0  0
  5 43  1  0  0  0  0
  5 44  1  0  0  0  0
  6  4  1  0  0  0  0
  6 45  1  0  0  0  0
  6 46  1  0  0  0  0
  7 47  1  0  0  0  0
  8 48  1  0  0  0  0
  9 49  1  0  0  0  0
  9 50  1  0  0  0  0
 10  1  1  0  0  0  0
 11  2  1  0  0  0  0
 11 51  1  0  0  0  0
 12  7  2  0  0  0  0
 13  7  1  0  0  0  0
 14  8  2  0  0  0  0
 14 12  1  0  0  0  0
 15  8  1  0  0  0  0
 15 13  2  0  0  0  0
 16  9  1  0  0  0  0
 16 10  2  0  0  0  0
 18 12  1  0  0  0  0
 18 17  1  0  0  0  0
 19 17  2  0  0  0  0
 20 17  1  0  0  0  0
 22 13  1  0  0  0  0
 23  3  1  0  0  0  0
 23  4  1  0  0  0  0
 23  9  1  0  0  0  0
 24  5  1  0  0  0  0
 24  6  1  0  0  0  0
 24 15  1  0  0  0  0
 25 11  1  0  0  0  0
 25 14  1  0  0  0  0
 25 19  1  0  0  0  0
 26 18  2  0  0  0  0
 27 20  2  0  0  0  0
 28 20  1  0  0  0  0
 28 52  1  0  0  0  0
 29 21  2  0  0  0  0
 30 10  1  0  0  0  0
 30 21  1  0  0  0  0
 31 16  1  0  0  0  0
 31 21  1  0  0  0  0
 32 11  1  0  0  0  0
 32 19  1  0  0  0  0
M  END
>  <DRUGBANK_ID>
DB11892

>  <COMMON_NAME>
Prulifloxacin

>  <CAS_NUMBER>
123447-62-1

>  <UNII>
J42298IESW

>  <SYNONYMS>
Prulifloxacin

$$$$
