GG1
 OpenBabel10282417072D

 52 55  0  0  0  0  0  0  0  0999 V2000
   -1.1006   -2.5726    0.0000 N   0  0  0  0  0  0  0  0  0  0  0  0
   -2.5296   -0.9226    0.0000 C   0  0  0  0  0  0  0  0  0  0  0  0
   -1.1006   -0.9226    0.0000 C   0  0  0  0  0  0  0  0  0  0  0  0
    1.0428   -2.1601    0.0000 C   0  0  0  0  0  0  0  0  0  0  0  0
    1.7573   -0.9226    0.0000 C   0  0  0  0  0  0  0  0  0  0  0  0
    1.0428   -1.3351    0.0000 C   0  0  0  0  0  0  0  0  0  0  0  0
   -4.6730   -2.1601    0.0000 C   0  0  0  0  0  0  0  0  0  0  0  0
   -4.6730   -1.3351    0.0000 C   0  0  0  0  0  0  0  0  0  0  0  0
   -3.9585   -0.9226    0.0000 C   0  0  0  0  0  0  0  0  0  0  0  0
   -3.2440   -2.1601    0.0000 C   0  0  0  0  0  0  0  0  0  0  0  0
    3.9007   -0.5101    0.0000 C   0  0  0  0  0  0  0  0  0  0  0  0
   -3.2440   -1.3351    0.0000 C   0  0  0  0  0  0  0  0  0  0  0  0
   -0.3862   -1.3351    0.0000 C   0  0  0  0  0  0  0  0  0  0  0  0
   -5.3875   -2.5726    0.0000 C   0  0  0  0  0  0  0  0  0  0  0  0
    2.4717   -0.5101    0.0000 C   0  0  0  0  0  0  0  0  0  0  0  0
   -5.3875   -3.3976    0.0000 O   0  0  0  0  0  0  0  0  0  0  0  0
   -6.1019   -2.1601    0.0000 O   0  0  0  0  0  0  0  0  0  0  0  0
   -3.9585   -2.5726    0.0000 C   0  0  0  0  0  0  0  0  0  0  0  0
   -1.8151   -1.3351    0.0000 N   0  0  0  0  0  0  0  0  0  0  0  0
   -1.1006   -0.0976    0.0000 O   0  0  0  0  0  0  0  0  0  0  0  0
   -0.3862   -2.1601    0.0000 C   0  0  0  0  0  0  0  0  0  0  0  0
    0.3283   -2.5726    0.0000 C   0  0  0  0  0  0  0  0  0  0  0  0
   -1.1006   -3.3976    0.0000 C   0  0  0  0  0  0  0  0  0  0  0  0
   -1.8151   -2.1601    0.0000 C   0  0  0  0  0  0  0  0  0  0  0  0
   -2.5296   -2.5726    0.0000 O   0  0  0  0  0  0  0  0  0  0  0  0
    0.3283   -0.9226    0.0000 C   0  0  0  0  0  0  0  0  0  0  0  0
    3.1862   -0.0976    0.0000 C   0  0  0  0  0  0  0  0  0  0  0  0
    4.6151   -0.0976    0.0000 C   0  0  0  0  0  0  0  0  0  0  0  0
    5.3296   -0.5101    0.0000 C   0  0  0  0  0  0  0  0  0  0  0  0
    3.9007   -1.3351    0.0000 C   0  0  0  0  0  0  0  0  0  0  0  0
    4.6151   -1.7476    0.0000 C   0  0  0  0  0  0  0  0  0  0  0  0
    5.3296   -1.3351    0.0000 C   0  0  0  0  0  0  0  0  0  0  0  0
   -2.5296    0.1474    0.0000 H   0  0  0  0  0  0  0  0  0  0  0  0
   -3.4563   -0.3876    0.0000 H   0  0  0  0  0  0  0  0  0  0  0  0
    1.9365   -2.6761    0.0000 H   0  0  0  0  0  0  0  0  0  0  0  0
   -5.5667   -0.8191    0.0000 H   0  0  0  0  0  0  0  0  0  0  0  0
   -3.9585    0.1094    0.0000 H   0  0  0  0  0  0  0  0  0  0  0  0
   -2.3503   -2.6761    0.0000 H   0  0  0  0  0  0  0  0  0  0  0  0
   -6.1019   -1.2231    0.0000 H   0  0  0  0  0  0  0  0  0  0  0  0
   -3.9585   -3.6046    0.0000 H   0  0  0  0  0  0  0  0  0  0  0  0
    0.3283   -3.6046    0.0000 H   0  0  0  0  0  0  0  0  0  0  0  0
   -2.0272   -3.9326    0.0000 H   0  0  0  0  0  0  0  0  0  0  0  0
   -0.1740   -3.9326    0.0000 H   0  0  0  0  0  0  0  0  0  0  0  0
   -1.1006   -4.4676    0.0000 H   0  0  0  0  0  0  0  0  0  0  0  0
    0.3283    0.1094    0.0000 H   0  0  0  0  0  0  0  0  0  0  0  0
    3.1862    0.9724    0.0000 H   0  0  0  0  0  0  0  0  0  0  0  0
    2.2596    0.4374    0.0000 H   0  0  0  0  0  0  0  0  0  0  0  0
    4.6151    0.9344    0.0000 H   0  0  0  0  0  0  0  0  0  0  0  0
    6.2233    0.0059    0.0000 H   0  0  0  0  0  0  0  0  0  0  0  0
    3.0070   -1.8511    0.0000 H   0  0  0  0  0  0  0  0  0  0  0  0
    4.6151   -2.7796    0.0000 H   0  0  0  0  0  0  0  0  0  0  0  0
    6.2233   -1.8511    0.0000 H   0  0  0  0  0  0  0  0  0  0  0  0
  1 23  1  0  0  0  0
  1 21  1  0  0  0  0
  1 24  1  0  0  0  0
  2 19  1  0  0  0  0
  2 12  1  0  0  0  0
  2 33  1  0  0  0  0
  2 34  1  0  0  0  0
  3 13  1  0  0  0  0
  3 19  1  0  0  0  0
  3 20  2  0  0  0  0
  4 22  2  0  0  0  0
  4  6  1  0  0  0  0
  4 35  1  0  0  0  0
  5 15  3  0  0  0  0
  5  6  1  0  0  0  0
  6 26  2  0  0  0  0
  7  8  2  0  0  0  0
  7 18  1  0  0  0  0
  7 14  1  0  0  0  0
  8  9  1  0  0  0  0
  8 36  1  0  0  0  0
  9 12  2  0  0  0  0
  9 37  1  0  0  0  0
 10 12  1  0  0  0  0
 10 18  2  0  0  0  0
 10 38  1  0  0  0  0
 11 28  1  0  0  0  0
 11 27  1  0  0  0  0
 11 30  2  0  0  0  0
 13 21  2  0  0  0  0
 13 26  1  0  0  0  0
 14 16  2  0  0  0  0
 14 17  1  0  0  0  0
 15 27  1  0  0  0  0
 17 39  1  0  0  0  0
 18 40  1  0  0  0  0
 19 24  1  0  0  0  0
 21 22  1  0  0  0  0
 22 41  1  0  0  0  0
 23 42  1  0  0  0  0
 23 43  1  0  0  0  0
 23 44  1  0  0  0  0
 24 25  2  0  0  0  0
 26 45  1  0  0  0  0
 27 46  1  0  0  0  0
 27 47  1  0  0  0  0
 28 29  2  0  0  0  0
 28 48  1  0  0  0  0
 29 32  1  0  0  0  0
 29 49  1  0  0  0  0
 30 31  1  0  0  0  0
 30 50  1  0  0  0  0
 31 32  2  0  0  0  0
 31 51  1  0  0  0  0
 32 52  1  0  0  0  0
M  END
>  <DRUGBANK_ID>
DB07827

>  <COMMON_NAME>
4-{[1-METHYL-2,4-DIOXO-6-(3-PHENYLPROP-1-YN-1-YL)-1,4-DIHYDROQUINAZOLIN-3(2H)-YL]METHYL}BENZOIC ACID

$$$$
