
 OpenBabel10282417072D

 60 64  0  0  0  0  0  0  0  0999 V2000
    1.3140    4.4609    0.0000 S   0  0  0  0  0  0  0  0  0  0  0  0
   -3.2816   -1.6947    0.0000 O   0  0  0  0  0  0  0  0  0  0  0  0
   -0.5195   -2.5921    0.0000 O   0  0  0  0  0  0  0  0  0  0  0  0
   -1.8294   -1.9247    0.0000 N   0  0  0  0  0  0  0  0  0  0  0  0
    1.0590    2.3414    0.0000 N   0  0  0  0  0  0  0  0  0  0  0  0
    0.8292    3.7935    0.0000 N   0  0  0  0  0  0  0  0  0  0  0  0
    0.5492    0.7722    0.0000 N   0  0  0  0  0  0  0  0  0  0  0  0
   -2.6141   -3.0046    0.0000 C   0  0  2  0  0  0  0  0  0  0  0  0
   -1.8294   -3.2595    0.0000 C   0  0  1  0  0  0  0  0  0  0  0  0
   -2.6141   -2.1796    0.0000 C   0  0  0  0  0  0  0  0  0  0  0  0
   -1.3445   -2.5921    0.0000 C   0  0  0  0  0  0  0  0  0  0  0  0
    1.3140    3.1260    0.0000 C   0  0  0  0  0  0  0  0  0  0  0  0
    2.0987    3.3810    0.0000 C   0  0  0  0  0  0  0  0  0  0  0  0
    2.0987    4.2060    0.0000 C   0  0  0  0  0  0  0  0  0  0  0  0
   -3.2272   -3.5566    0.0000 C   0  0  0  0  0  0  0  0  0  0  0  0
   -1.6579   -4.0665    0.0000 C   0  0  0  0  0  0  0  0  0  0  0  0
   -1.5745   -1.1400    0.0000 C   0  0  0  0  0  0  0  0  0  0  0  0
    2.8132    2.9685    0.0000 C   0  0  0  0  0  0  0  0  0  0  0  0
    2.8132    4.6185    0.0000 C   0  0  0  0  0  0  0  0  0  0  0  0
    1.6112    1.7283    0.0000 C   0  0  0  0  0  0  0  0  0  0  0  0
    0.2521    2.1699    0.0000 C   0  0  0  0  0  0  0  0  0  0  0  0
   -3.0557   -4.3636    0.0000 C   0  0  0  0  0  0  0  0  0  0  0  0
   -2.2711   -4.6185    0.0000 C   0  0  0  0  0  0  0  0  0  0  0  0
    3.5276    3.3810    0.0000 C   0  0  0  0  0  0  0  0  0  0  0  0
    1.3562    0.9437    0.0000 C   0  0  0  0  0  0  0  0  0  0  0  0
   -0.0028    1.3853    0.0000 C   0  0  0  0  0  0  0  0  0  0  0  0
    3.5276    4.2060    0.0000 C   0  0  0  0  0  0  0  0  0  0  0  0
   -0.7676   -0.9685    0.0000 C   0  0  0  0  0  0  0  0  0  0  0  0
    0.2942   -0.0124    0.0000 C   0  0  0  0  0  0  0  0  0  0  0  0
   -0.5126   -0.1839    0.0000 C   0  0  0  0  0  0  0  0  0  0  0  0
   -0.8514   -3.4674    0.0000 H   0  0  0  0  0  0  0  0  0  0  0  0
   -3.5276   -2.5978    0.0000 H   0  0  0  0  0  0  0  0  0  0  0  0
   -4.2448   -3.2259    0.0000 H   0  0  0  0  0  0  0  0  0  0  0  0
   -4.0224   -4.2725    0.0000 H   0  0  0  0  0  0  0  0  0  0  0  0
   -0.6403   -4.3972    0.0000 H   0  0  0  0  0  0  0  0  0  0  0  0
   -1.4355   -5.1131    0.0000 H   0  0  0  0  0  0  0  0  0  0  0  0
   -2.2905   -0.3449    0.0000 H   0  0  0  0  0  0  0  0  0  0  0  0
   -1.2439   -0.1224    0.0000 H   0  0  0  0  0  0  0  0  0  0  0  0
    2.8132    1.9365    0.0000 H   0  0  0  0  0  0  0  0  0  0  0  0
    2.8132    5.6505    0.0000 H   0  0  0  0  0  0  0  0  0  0  0  0
    2.6578    1.9508    0.0000 H   0  0  0  0  0  0  0  0  0  0  0  0
    2.3272    0.9331    0.0000 H   0  0  0  0  0  0  0  0  0  0  0  0
   -0.4639    2.9651    0.0000 H   0  0  0  0  0  0  0  0  0  0  0  0
   -0.7945    1.9474    0.0000 H   0  0  0  0  0  0  0  0  0  0  0  0
   -3.8509   -5.0796    0.0000 H   0  0  0  0  0  0  0  0  0  0  0  0
   -2.8332   -5.4102    0.0000 H   0  0  0  0  0  0  0  0  0  0  0  0
   -2.0487   -5.6651    0.0000 H   0  0  0  0  0  0  0  0  0  0  0  0
   -3.0663   -5.3345    0.0000 H   0  0  0  0  0  0  0  0  0  0  0  0
    4.4213    2.8650    0.0000 H   0  0  0  0  0  0  0  0  0  0  0  0
    2.0721    0.1485    0.0000 H   0  0  0  0  0  0  0  0  0  0  0  0
    2.4028    1.1661    0.0000 H   0  0  0  0  0  0  0  0  0  0  0  0
   -1.0494    1.1628    0.0000 H   0  0  0  0  0  0  0  0  0  0  0  0
   -0.7188    2.1805    0.0000 H   0  0  0  0  0  0  0  0  0  0  0  0
    4.4213    4.7220    0.0000 H   0  0  0  0  0  0  0  0  0  0  0  0
   -0.0517   -1.7637    0.0000 H   0  0  0  0  0  0  0  0  0  0  0  0
    0.2790   -0.7461    0.0000 H   0  0  0  0  0  0  0  0  0  0  0  0
    1.0101   -0.8076    0.0000 H   0  0  0  0  0  0  0  0  0  0  0  0
   -0.0365   -1.0300    0.0000 H   0  0  0  0  0  0  0  0  0  0  0  0
   -1.2285    0.6113    0.0000 H   0  0  0  0  0  0  0  0  0  0  0  0
   -0.1819    0.8337    0.0000 H   0  0  0  0  0  0  0  0  0  0  0  0
  1  6  1  0  0  0  0
  1 14  1  0  0  0  0
  2 10  2  0  0  0  0
  3 11  2  0  0  0  0
  4 10  1  0  0  0  0
  4 11  1  0  0  0  0
  4 17  1  0  0  0  0
  5 12  1  0  0  0  0
  5 20  1  0  0  0  0
  5 21  1  0  0  0  0
  6 12  2  0  0  0  0
  7 25  1  0  0  0  0
  7 26  1  0  0  0  0
  7 29  1  0  0  0  0
  8  9  1  0  0  0  0
  8 10  1  0  0  0  0
  8 15  1  0  0  0  0
  8 32  1  6  0  0  0
  9 11  1  0  0  0  0
  9 16  1  0  0  0  0
  9 31  1  6  0  0  0
 12 13  1  0  0  0  0
 13 14  1  0  0  0  0
 13 18  2  0  0  0  0
 14 19  2  0  0  0  0
 15 22  1  0  0  0  0
 15 33  1  0  0  0  0
 15 34  1  0  0  0  0
 16 23  1  0  0  0  0
 16 35  1  0  0  0  0
 16 36  1  0  0  0  0
 17 28  1  0  0  0  0
 17 37  1  0  0  0  0
 17 38  1  0  0  0  0
 18 24  1  0  0  0  0
 18 39  1  0  0  0  0
 19 27  1  0  0  0  0
 19 40  1  0  0  0  0
 20 25  1  0  0  0  0
 20 41  1  0  0  0  0
 20 42  1  0  0  0  0
 21 26  1  0  0  0  0
 21 43  1  0  0  0  0
 21 44  1  0  0  0  0
 22 23  1  0  0  0  0
 22 45  1  0  0  0  0
 22 46  1  0  0  0  0
 23 47  1  0  0  0  0
 23 48  1  0  0  0  0
 24 27  2  0  0  0  0
 24 49  1  0  0  0  0
 25 50  1  0  0  0  0
 25 51  1  0  0  0  0
 26 52  1  0  0  0  0
 26 53  1  0  0  0  0
 27 54  1  0  0  0  0
 28 30  1  0  0  0  0
 28 55  1  0  0  0  0
 28 56  1  0  0  0  0
 29 30  1  0  0  0  0
 29 57  1  0  0  0  0
 29 58  1  0  0  0  0
 30 59  1  0  0  0  0
 30 60  1  0  0  0  0
M  END
>  <DRUGBANK_ID>
DB08922

>  <COMMON_NAME>
Perospirone

>  <CAS_NUMBER>
150915-41-6

>  <UNII>
N303OK87DT

>  <SYNONYMS>
cis-N-(4-(4-(1,2-Benzisothiazol-3-yl)-1-piperazinyl)butyl)-1,2-cyclohexanedicarboximide; Perospirone; SM-9018

$$$$
