
 OpenBabel10282417072D

 27 28  0  0  0  0  0  0  0  0999 V2000
   -0.1075    0.4991    0.0000 C   0  0  1  0  0  0  0  0  0  0  0  0
    0.6694    0.2205    0.0000 C   0  0  0  0  0  0  0  0  0  0  0  0
    1.3842   -0.1857    0.0000 C   0  0  0  0  0  0  0  0  0  0  0  0
    1.0117    0.9712    0.0000 C   0  0  0  0  0  0  0  0  0  0  0  0
    0.1997   -0.4539    0.0000 C   0  0  0  0  0  0  0  0  0  0  0  0
   -0.5724   -0.1751    0.0000 C   0  0  2  0  0  0  0  0  0  0  0  0
   -0.6428   -0.9998    0.0000 C   0  0  0  0  0  0  0  0  0  0  0  0
   -1.3842   -0.3258    0.0000 C   0  0  0  0  0  0  0  0  0  0  0  0
   -0.9144    0.3535    0.0000 C   0  0  0  0  0  0  0  0  0  0  0  0
   -0.4576    1.2412    0.0000 C   0  0  0  0  0  0  0  0  0  0  0  0
    0.4486   -1.2412    0.0000 O   0  0  0  0  0  0  0  0  0  0  0  0
    0.6117    1.2913    0.0000 H   0  0  0  0  0  0  0  0  0  0  0  0
    1.3915   -1.2557    0.0000 H   0  0  0  0  0  0  0  0  0  0  0  0
    2.3072    0.3556    0.0000 H   0  0  0  0  0  0  0  0  0  0  0  0
    2.3145   -0.7144    0.0000 H   0  0  0  0  0  0  0  0  0  0  0  0
    2.0768    1.0735    0.0000 H   0  0  0  0  0  0  0  0  0  0  0  0
    0.3905    1.8424    0.0000 H   0  0  0  0  0  0  0  0  0  0  0  0
    1.4556    1.9448    0.0000 H   0  0  0  0  0  0  0  0  0  0  0  0
   -1.6116   -1.4540    0.0000 H   0  0  0  0  0  0  0  0  0  0  0  0
    0.2350   -1.6117    0.0000 H   0  0  0  0  0  0  0  0  0  0  0  0
   -0.7338   -2.0659    0.0000 H   0  0  0  0  0  0  0  0  0  0  0  0
   -2.2823   -0.9074    0.0000 H   0  0  0  0  0  0  0  0  0  0  0  0
   -2.1292    0.4422    0.0000 H   0  0  0  0  0  0  0  0  0  0  0  0
   -1.4937    1.2531    0.0000 H   0  0  0  0  0  0  0  0  0  0  0  0
   -0.4878    1.3348    0.0000 H   0  0  0  0  0  0  0  0  0  0  0  0
   -0.6491    2.2939    0.0000 H   0  0  0  0  0  0  0  0  0  0  0  0
    0.5613    1.5680    0.0000 H   0  0  0  0  0  0  0  0  0  0  0  0
  1  2  1  0  0  0  0
  1  9  1  0  0  0  0
  1 10  1  0  0  0  0
  1 12  1  6  0  0  0
  2  3  1  0  0  0  0
  2  4  1  0  0  0  0
  2  5  1  0  0  0  0
  3 13  1  0  0  0  0
  3 14  1  0  0  0  0
  3 15  1  0  0  0  0
  4 16  1  0  0  0  0
  4 17  1  0  0  0  0
  4 18  1  0  0  0  0
  5  6  1  0  0  0  0
  5 11  2  0  0  0  0
  6  7  1  1  0  0  0
  6  8  1  0  0  0  0
  6 10  1  0  0  0  0
  7 19  1  0  0  0  0
  7 20  1  0  0  0  0
  7 21  1  0  0  0  0
  8 22  1  0  0  0  0
  8 23  1  0  0  0  0
  9  8  1  0  0  0  0
  9 24  1  0  0  0  0
  9 25  1  0  0  0  0
 10 26  1  0  0  0  0
 10 27  1  0  0  0  0
M  END
>  <DRUGBANK_ID>
DB15918

>  <COMMON_NAME>
Fenchone

>  <CAS_NUMBER>
1195-79-5

>  <UNII>
4Q6W8568TG

>  <SYNONYMS>
(+/-)-Fenchone; DL-Fenchone; Fenchon

$$$$
