
 OpenBabel10282417072D

 37 39  0  0  0  0  0  0  0  0999 V2000
    2.6945   -0.4583    0.0000 C   0  0  0  0  0  0  0  0  0  0  0  0
    3.4697   -0.1761    0.0000 C   0  0  0  0  0  0  0  0  0  0  0  0
    3.6130    0.6363    0.0000 C   0  0  0  0  0  0  0  0  0  0  0  0
    3.4697    1.4488    0.0000 C   0  0  0  0  0  0  0  0  0  0  0  0
    2.6945    1.7310    0.0000 O   0  0  0  0  0  0  0  0  0  0  0  0
    4.1017    1.9791    0.0000 N   0  0  0  0  0  0  0  0  0  0  0  0
    4.8770    1.6969    0.0000 C   0  0  0  0  0  0  0  0  0  0  0  0
    5.5090    2.2272    0.0000 O   0  0  0  0  0  0  0  0  0  0  0  0
    5.0202    0.8845    0.0000 N   0  0  0  0  0  0  0  0  0  0  0  0
    4.3882    0.3542    0.0000 C   0  0  0  0  0  0  0  0  0  0  0  0
    4.5315   -0.4583    0.0000 O   0  0  0  0  0  0  0  0  0  0  0  0
    2.7880    0.6363    0.0000 C   0  0  0  0  0  0  0  0  0  0  0  0
    2.4300    1.3796    0.0000 C   0  0  0  0  0  0  0  0  0  0  0  0
    1.6257    1.5632    0.0000 C   0  0  3  0  0  0  0  0  0  0  0  0
    0.9807    1.0488    0.0000 C   0  0  0  0  0  0  0  0  0  0  0  0
    0.9807    0.2238    0.0000 C   0  0  0  0  0  0  0  0  0  0  0  0
    1.6257   -0.2905    0.0000 C   0  0  3  0  0  0  0  0  0  0  0  0
    1.3940    0.6363    0.0000 C   0  0  0  0  0  0  0  0  0  0  0  0
    2.4300   -0.1070    0.0000 C   0  0  0  0  0  0  0  0  0  0  0  0
    1.8748    0.2294    0.0000 H   0  0  0  0  0  0  0  0  0  0  0  0
    2.5088   -1.5121    0.0000 H   0  0  0  0  0  0  0  0  0  0  0  0
    1.6890   -0.8243    0.0000 H   0  0  0  0  0  0  0  0  0  0  0  0
    4.2894   -0.8639    0.0000 H   0  0  0  0  0  0  0  0  0  0  0  0
    4.4752    0.1898    0.0000 H   0  0  0  0  0  0  0  0  0  0  0  0
    3.9308    2.9486    0.0000 H   0  0  0  0  0  0  0  0  0  0  0  0
    5.9453    0.5477    0.0000 H   0  0  0  0  0  0  0  0  0  0  0  0
    3.0734    2.1865    0.0000 H   0  0  0  0  0  0  0  0  0  0  0  0
    1.8638    0.5200    0.0000 H   0  0  0  0  0  0  0  0  0  0  0  0
    0.0167    1.5130    0.0000 H   0  0  0  0  0  0  0  0  0  0  0  0
    0.0747    0.4795    0.0000 H   0  0  0  0  0  0  0  0  0  0  0  0
    0.0167   -0.2405    0.0000 H   0  0  0  0  0  0  0  0  0  0  0  0
    0.8610   -0.8395    0.0000 H   0  0  0  0  0  0  0  0  0  0  0  0
    1.0471    0.6096    0.0000 H   0  0  0  0  0  0  0  0  0  0  0  0
    0.3240    0.6363    0.0000 H   0  0  0  0  0  0  0  0  0  0  0  0
    0.7355    1.4797    0.0000 H   0  0  0  0  0  0  0  0  0  0  0  0
    3.0971   -0.9436    0.0000 H   0  0  0  0  0  0  0  0  0  0  0  0
    3.4933    0.0127    0.0000 H   0  0  0  0  0  0  0  0  0  0  0  0
  1  2  1  0  0  0  0
  1 20  1  0  0  0  0
  1 21  1  0  0  0  0
  1 22  1  0  0  0  0
  2  3  1  0  0  0  0
  2 23  1  0  0  0  0
  2 24  1  0  0  0  0
  3  4  1  0  0  0  0
  3 10  1  0  0  0  0
  3 12  1  0  0  0  0
  4  5  2  0  0  0  0
  4  6  1  0  0  0  0
  6  7  1  0  0  0  0
  6 25  1  0  0  0  0
  7  8  2  0  0  0  0
  7  9  1  0  0  0  0
  9 10  1  0  0  0  0
  9 26  1  0  0  0  0
 10 11  2  0  0  0  0
 12 13  2  0  0  0  0
 12 19  1  0  0  0  0
 13 14  1  0  0  0  0
 13 27  1  0  0  0  0
 14 15  1  0  0  0  0
 14 18  1  0  0  0  0
 14 28  1  0  0  0  0
 15 16  1  0  0  0  0
 15 29  1  0  0  0  0
 15 30  1  0  0  0  0
 16 17  1  0  0  0  0
 16 31  1  0  0  0  0
 16 32  1  0  0  0  0
 17 18  1  0  0  0  0
 17 19  1  0  0  0  0
 17 33  1  0  0  0  0
 18 34  1  0  0  0  0
 18 35  1  0  0  0  0
 19 36  1  0  0  0  0
 19 37  1  0  0  0  0
M  END
>  <DRUGBANK_ID>
DB13805

>  <COMMON_NAME>
Reposal

>  <CAS_NUMBER>
3625-25-0

>  <UNII>
3T5TIX1AYI

$$$$
