
 OpenBabel10282417072D

 22 22  0  0  1  0  0  0  0  0999 V2000
    0.5678    1.9393    0.0000 C   0  0  0  0  0  0  0  0  0  0  0  0
    1.2352    0.6294    0.0000 C   0  0  0  0  0  0  0  0  0  0  0  0
    0.5678    1.1143    0.0000 C   0  0  2  0  0  0  0  0  0  0  0  0
    0.9803   -0.1553    0.0000 C   0  0  2  0  0  0  0  0  0  0  0  0
   -0.0997    0.6294    0.0000 C   0  0  2  0  0  0  0  0  0  0  0  0
   -0.8843    0.8843    0.0000 C   0  0  0  0  0  0  0  0  0  0  0  0
    1.4652   -0.8227    0.0000 N   0  0  0  0  0  0  0  0  0  0  0  0
    0.1553   -0.1553    0.0000 N   0  0  0  0  0  0  0  0  0  0  0  0
   -1.4974    0.3323    0.0000 O   0  0  0  0  0  0  0  0  0  0  0  0
   -1.0558    1.6913    0.0000 O   0  0  0  0  0  0  0  0  0  0  0  0
    1.3028    1.4888    0.0000 H   0  0  0  0  0  0  0  0  0  0  0  0
    1.7951   -0.0262    0.0000 H   0  0  0  0  0  0  0  0  0  0  0  0
   -0.2287    1.4442    0.0000 H   0  0  0  0  0  0  0  0  0  0  0  0
    1.4944    2.4743    0.0000 H   0  0  0  0  0  0  0  0  0  0  0  0
   -0.3588    2.4743    0.0000 H   0  0  0  0  0  0  0  0  0  0  0  0
    0.5678    3.0093    0.0000 H   0  0  0  0  0  0  0  0  0  0  0  0
    2.2528    0.9601    0.0000 H   0  0  0  0  0  0  0  0  0  0  0  0
    1.9918   -0.1272    0.0000 H   0  0  0  0  0  0  0  0  0  0  0  0
    1.0503   -1.7545    0.0000 H   0  0  0  0  0  0  0  0  0  0  0  0
    2.4796   -0.7161    0.0000 H   0  0  0  0  0  0  0  0  0  0  0  0
   -0.4442   -0.9805    0.0000 H   0  0  0  0  0  0  0  0  0  0  0  0
   -0.3594    2.3182    0.0000 H   0  0  0  0  0  0  0  0  0  0  0  0
  1 14  1  0  0  0  0
  1 15  1  0  0  0  0
  1 16  1  0  0  0  0
  2 17  1  0  0  0  0
  2 18  1  0  0  0  0
  3  1  1  0  0  0  0
  3  2  1  0  0  0  0
  3 11  1  1  0  0  0
  4  2  1  0  0  0  0
  4  7  1  0  0  0  0
  4 12  1  1  0  0  0
  5  3  1  0  0  0  0
  5  6  1  0  0  0  0
  5 13  1  6  0  0  0
  7 19  1  0  0  0  0
  7 20  1  0  0  0  0
  8  4  1  0  0  0  0
  8  5  1  0  0  0  0
  8 21  1  0  0  0  0
  9  6  2  0  0  0  0
 10  6  1  0  0  0  0
 10 22  1  0  0  0  0
M  END
>  <DRUGBANK_ID>
DB03184

>  <SECONDARY_ACCESSION_NUMBERS>
EXPT03249

>  <COMMON_NAME>
5-Amino-3-Methyl-Pyrrolidine-2-Carboxylic Acid

$$$$
