
 OpenBabel10282417072D

 30 30  0  0  0  0  0  0  0  0999 V2000
    0.3627    0.8350    0.0000 C   0  0  2  0  0  0  0  0  0  0  0  0
    1.0718    1.2482    0.0000 O   0  0  0  0  0  0  0  0  0  0  0  0
    0.3627    0.0000    0.0000 C   0  0  1  0  0  0  0  0  0  0  0  0
   -0.3545   -0.4274    0.0000 C   0  0  1  0  0  0  0  0  0  0  0  0
   -0.3464   -1.2482    0.0000 O   0  0  0  0  0  0  0  0  0  0  0  0
   -1.0719   -0.0199    0.0000 C   0  0  2  0  0  0  0  0  0  0  0  0
   -1.7811   -0.4329    0.0000 O   0  0  0  0  0  0  0  0  0  0  0  0
   -1.0719    0.8151    0.0000 C   0  0  2  0  0  0  0  0  0  0  0  0
   -0.3544    1.2425    0.0000 O   0  0  0  0  0  0  0  0  0  0  0  0
   -1.7892    1.2226    0.0000 C   0  0  0  0  0  0  0  0  0  0  0  0
   -2.5065    0.7952    0.0000 O   0  0  0  0  0  0  0  0  0  0  0  0
    1.0801   -0.4075    0.0000 N   0  0  0  0  0  0  0  0  0  0  0  0
    1.7892    0.0055    0.0000 C   0  0  0  0  0  0  0  0  0  0  0  0
    1.7892    0.8405    0.0000 O   0  0  0  0  0  0  0  0  0  0  0  0
    2.5065   -0.4020    0.0000 C   0  0  0  0  0  0  0  0  0  0  0  0
    1.2904    0.3019    0.0000 H   0  0  0  0  0  0  0  0  0  0  0  0
    1.9138    0.7666    0.0000 H   0  0  0  0  0  0  0  0  0  0  0  0
    1.2875    0.5383    0.0000 H   0  0  0  0  0  0  0  0  0  0  0  0
    0.5784   -0.9514    0.0000 H   0  0  0  0  0  0  0  0  0  0  0  0
   -1.1816   -1.7415    0.0000 H   0  0  0  0  0  0  0  0  0  0  0  0
   -1.0661   -1.0899    0.0000 H   0  0  0  0  0  0  0  0  0  0  0  0
   -2.6230    0.0490    0.0000 H   0  0  0  0  0  0  0  0  0  0  0  0
   -1.9967    0.2769    0.0000 H   0  0  0  0  0  0  0  0  0  0  0  0
   -1.8003    2.2925    0.0000 H   0  0  0  0  0  0  0  0  0  0  0  0
   -2.7222    1.7464    0.0000 H   0  0  0  0  0  0  0  0  0  0  0  0
   -3.3531    1.2686    0.0000 H   0  0  0  0  0  0  0  0  0  0  0  0
    1.0854   -1.3920    0.0000 H   0  0  0  0  0  0  0  0  0  0  0  0
    2.5140   -1.4720    0.0000 H   0  0  0  0  0  0  0  0  0  0  0  0
    3.4294    0.1394    0.0000 H   0  0  0  0  0  0  0  0  0  0  0  0
    3.4369   -0.9305    0.0000 H   0  0  0  0  0  0  0  0  0  0  0  0
  1  2  1  0  0  0  0
  1 16  1  1  0  0  0
  2 17  1  0  0  0  0
  3  1  1  0  0  0  0
  3 12  1  0  0  0  0
  3 18  1  1  0  0  0
  4  3  1  0  0  0  0
  4  5  1  0  0  0  0
  4 19  1  6  0  0  0
  5 20  1  0  0  0  0
  6  4  1  0  0  0  0
  6  7  1  0  0  0  0
  6 21  1  1  0  0  0
  7 22  1  0  0  0  0
  8  6  1  0  0  0  0
  8 10  1  0  0  0  0
  8 23  1  6  0  0  0
  9  1  1  0  0  0  0
  9  8  1  0  0  0  0
 10 24  1  0  0  0  0
 10 25  1  0  0  0  0
 11 10  1  0  0  0  0
 11 26  1  0  0  0  0
 12 27  1  0  0  0  0
 13 12  1  0  0  0  0
 14 13  2  0  0  0  0
 15 13  1  0  0  0  0
 15 28  1  0  0  0  0
 15 29  1  0  0  0  0
 15 30  1  0  0  0  0
M  END
>  <DRUGBANK_ID>
DB03740

>  <SECONDARY_ACCESSION_NUMBERS>
EXPT02319

>  <COMMON_NAME>
N-acetyl-alpha-D-glucosamine

>  <CAS_NUMBER>
10036-64-3

>  <UNII>
T13TI5GH3D

>  <SYNONYMS>
2-(acetylamino)-2-deoxy-A-D-glucopyranose; 2-(acetylamino)-2-deoxy-α-D-glucopyranose; N-acetyl-α-D-glucosamine; α-D-GlcNAc; α-GlcNAc

$$$$
