
 OpenBabel10282417072D

 70 75  0  0  1  0  0  0  0  0999 V2000
    5.2942    1.4420    0.0000 C   0  0  0  0  0  0  0  0  0  0  0  0
    5.3805    0.6215    0.0000 N   0  0  0  0  0  0  0  0  0  0  0  0
    6.0949    0.2090    0.0000 N   0  0  0  0  0  0  0  0  0  0  0  0
    5.9234   -0.5980    0.0000 N   0  0  0  0  0  0  0  0  0  0  0  0
    5.1029   -0.6842    0.0000 C   0  0  0  0  0  0  0  0  0  0  0  0
    4.6904   -1.3987    0.0000 C   0  0  0  0  0  0  0  0  0  0  0  0
    4.7674    0.0694    0.0000 C   0  0  0  0  0  0  0  0  0  0  0  0
    3.9604    0.2410    0.0000 C   0  0  0  0  0  0  0  0  0  0  0  0
    3.4084   -0.3721    0.0000 C   0  0  0  0  0  0  0  0  0  0  0  0
    2.6014   -0.2006    0.0000 C   0  0  0  0  0  0  0  0  0  0  0  0
    2.3464    0.5840    0.0000 C   0  0  0  0  0  0  0  0  0  0  0  0
    2.8985    1.1971    0.0000 N   0  0  0  0  0  0  0  0  0  0  0  0
    3.7054    1.0256    0.0000 C   0  0  0  0  0  0  0  0  0  0  0  0
    1.5214    0.5840    0.0000 C   0  0  0  0  0  0  0  0  0  0  0  0
    1.2665   -0.2006    0.0000 C   0  0  0  0  0  0  0  0  0  0  0  0
    0.4595   -0.3721    0.0000 C   0  0  0  0  0  0  0  0  0  0  0  0
   -0.0925    0.2410    0.0000 C   0  0  0  0  0  0  0  0  0  0  0  0
    0.1624    1.0256    0.0000 C   0  0  0  0  0  0  0  0  0  0  0  0
    0.9694    1.1971    0.0000 C   0  0  0  0  0  0  0  0  0  0  0  0
   -0.8995    0.0694    0.0000 C   0  0  0  0  0  0  0  0  0  0  0  0
   -1.7064   -0.1021    0.0000 C   0  0  0  0  0  0  0  0  0  0  0  0
   -1.0710    0.8764    0.0000 C   0  0  0  0  0  0  0  0  0  0  0  0
   -0.7279   -0.7375    0.0000 O   0  0  0  0  0  0  0  0  0  0  0  0
    1.9339   -0.6855    0.0000 N   0  0  0  0  0  0  0  0  0  0  0  0
    1.9339   -1.5105    0.0000 C   0  0  1  0  0  0  0  0  0  0  0  0
    2.6484   -1.9230    0.0000 C   0  0  0  0  0  0  0  0  0  0  0  0
    3.3629   -1.5105    0.0000 C   0  0  0  0  0  0  0  0  0  0  0  0
    4.0774   -1.9230    0.0000 C   0  0  0  0  0  0  0  0  0  0  0  0
    4.0774   -2.7480    0.0000 O   0  0  0  0  0  0  0  0  0  0  0  0
    3.3629   -3.1605    0.0000 C   0  0  0  0  0  0  0  0  0  0  0  0
    2.6484   -2.7480    0.0000 C   0  0  0  0  0  0  0  0  0  0  0  0
    1.2195   -1.9230    0.0000 C   0  0  0  0  0  0  0  0  0  0  0  0
    1.2195   -2.7480    0.0000 C   0  0  0  0  0  0  0  0  0  0  0  0
    0.5050   -3.1605    0.0000 C   0  0  0  0  0  0  0  0  0  0  0  0
   -0.2095   -2.7480    0.0000 C   0  0  0  0  0  0  0  0  0  0  0  0
   -0.2095   -1.9230    0.0000 C   0  0  0  0  0  0  0  0  0  0  0  0
    0.5050   -1.5105    0.0000 C   0  0  0  0  0  0  0  0  0  0  0  0
    6.1598    2.0710    0.0000 H   0  0  0  0  0  0  0  0  0  0  0  0
    4.3167    1.8771    0.0000 H   0  0  0  0  0  0  0  0  0  0  0  0
    5.1823    2.5061    0.0000 H   0  0  0  0  0  0  0  0  0  0  0  0
    3.6204   -1.3987    0.0000 H   0  0  0  0  0  0  0  0  0  0  0  0
    5.2254   -2.3253    0.0000 H   0  0  0  0  0  0  0  0  0  0  0  0
    4.1554   -2.3254    0.0000 H   0  0  0  0  0  0  0  0  0  0  0  0
    3.7273   -1.3536    0.0000 H   0  0  0  0  0  0  0  0  0  0  0  0
    4.3959    1.7926    0.0000 H   0  0  0  0  0  0  0  0  0  0  0  0
    0.1406   -1.3536    0.0000 H   0  0  0  0  0  0  0  0  0  0  0  0
   -0.5281    1.7925    0.0000 H   0  0  0  0  0  0  0  0  0  0  0  0
    1.2883    2.1786    0.0000 H   0  0  0  0  0  0  0  0  0  0  0  0
   -2.4224    0.6931    0.0000 H   0  0  0  0  0  0  0  0  0  0  0  0
   -2.0371   -1.1197    0.0000 H   0  0  0  0  0  0  0  0  0  0  0  0
   -2.7530   -0.3246    0.0000 H   0  0  0  0  0  0  0  0  0  0  0  0
   -0.2758    1.5923    0.0000 H   0  0  0  0  0  0  0  0  0  0  0  0
   -2.0886    1.2071    0.0000 H   0  0  0  0  0  0  0  0  0  0  0  0
   -1.2934    1.9230    0.0000 H   0  0  0  0  0  0  0  0  0  0  0  0
   -1.4487   -1.3866    0.0000 H   0  0  0  0  0  0  0  0  0  0  0  0
    2.8605   -0.9755    0.0000 H   0  0  0  0  0  0  0  0  0  0  0  0
    3.5750   -2.4580    0.0000 H   0  0  0  0  0  0  0  0  0  0  0  0
    3.3629   -0.4405    0.0000 H   0  0  0  0  0  0  0  0  0  0  0  0
    4.2895   -0.9755    0.0000 H   0  0  0  0  0  0  0  0  0  0  0  0
    5.0040   -1.3880    0.0000 H   0  0  0  0  0  0  0  0  0  0  0  0
    5.0040   -2.4580    0.0000 H   0  0  0  0  0  0  0  0  0  0  0  0
    3.3629   -4.2305    0.0000 H   0  0  0  0  0  0  0  0  0  0  0  0
    2.4363   -3.6955    0.0000 H   0  0  0  0  0  0  0  0  0  0  0  0
    1.7218   -3.2830    0.0000 H   0  0  0  0  0  0  0  0  0  0  0  0
    1.7218   -2.2130    0.0000 H   0  0  0  0  0  0  0  0  0  0  0  0
    2.1132   -3.2640    0.0000 H   0  0  0  0  0  0  0  0  0  0  0  0
    0.5050   -4.1925    0.0000 H   0  0  0  0  0  0  0  0  0  0  0  0
   -1.1032   -3.2640    0.0000 H   0  0  0  0  0  0  0  0  0  0  0  0
   -1.1032   -1.4070    0.0000 H   0  0  0  0  0  0  0  0  0  0  0  0
    0.5050   -0.4785    0.0000 H   0  0  0  0  0  0  0  0  0  0  0  0
  1  2  1  0  0  0  0
  1 38  1  0  0  0  0
  1 39  1  0  0  0  0
  1 40  1  0  0  0  0
  2  3  1  0  0  0  0
  2  7  1  0  0  0  0
  3  4  2  0  0  0  0
  4  5  1  0  0  0  0
  5  6  1  0  0  0  0
  5  7  2  0  0  0  0
  6 41  1  0  0  0  0
  6 42  1  0  0  0  0
  6 43  1  0  0  0  0
  7  8  1  0  0  0  0
  8  9  2  0  0  0  0
  8 13  1  0  0  0  0
  9 10  1  0  0  0  0
  9 44  1  0  0  0  0
 10 11  2  0  0  0  0
 10 24  1  0  0  0  0
 11 12  1  0  0  0  0
 11 14  1  0  0  0  0
 12 13  2  0  0  0  0
 13 45  1  0  0  0  0
 14 15  2  0  0  0  0
 14 19  1  0  0  0  0
 15 16  1  0  0  0  0
 15 24  1  0  0  0  0
 16 17  2  0  0  0  0
 16 46  1  0  0  0  0
 17 18  1  0  0  0  0
 17 20  1  0  0  0  0
 18 19  2  0  0  0  0
 18 47  1  0  0  0  0
 19 48  1  0  0  0  0
 20 21  1  0  0  0  0
 20 22  1  0  0  0  0
 20 23  1  0  0  0  0
 21 49  1  0  0  0  0
 21 50  1  0  0  0  0
 21 51  1  0  0  0  0
 22 52  1  0  0  0  0
 22 53  1  0  0  0  0
 22 54  1  0  0  0  0
 23 55  1  0  0  0  0
 25 24  1  0  0  0  0
 25 26  1  0  0  0  0
 25 32  1  0  0  0  0
 25 56  1  6  0  0  0
 26 27  1  0  0  0  0
 26 31  1  0  0  0  0
 26 57  1  0  0  0  0
 27 28  1  0  0  0  0
 27 58  1  0  0  0  0
 27 59  1  0  0  0  0
 28 29  1  0  0  0  0
 28 60  1  0  0  0  0
 28 61  1  0  0  0  0
 29 30  1  0  0  0  0
 30 31  1  0  0  0  0
 30 62  1  0  0  0  0
 30 63  1  0  0  0  0
 31 64  1  0  0  0  0
 31 65  1  0  0  0  0
 32 33  2  0  0  0  0
 32 37  1  0  0  0  0
 33 34  1  0  0  0  0
 33 66  1  0  0  0  0
 34 35  2  0  0  0  0
 34 67  1  0  0  0  0
 35 36  1  0  0  0  0
 35 68  1  0  0  0  0
 36 37  2  0  0  0  0
 36 69  1  0  0  0  0
 37 70  1  0  0  0  0
M  END
>  <DRUGBANK_ID>
DB15435

>  <COMMON_NAME>
BMS-986158

>  <CAS_NUMBER>
1800340-40-2

>  <UNII>
X8BW0MQ5PI

$$$$
