CPV
 OpenBabel10282417072D

 48 48  0  0  0  0  0  0  0  0999 V2000
    2.4787   -1.6440    0.0000 C   0  0  0  0  0  0  0  0  0  0  0  0
   -0.4087   -0.9296    0.0000 N   0  0  0  0  0  0  0  0  0  0  0  0
    3.3036   -1.6440    0.0000 O   0  0  0  0  0  0  0  0  0  0  0  0
    0.0038   -0.2151    0.0000 C   0  0  1  0  0  0  0  0  0  0  0  0
   -0.4087    0.4992    0.0000 C   0  0  0  0  0  0  0  0  0  0  0  0
   -1.2337    0.4992    0.0000 C   0  0  0  0  0  0  0  0  0  0  0  0
    0.8288   -0.2151    0.0000 C   0  0  1  0  0  0  0  0  0  0  0  0
    1.2412    0.4992    0.0000 O   0  0  0  0  0  0  0  0  0  0  0  0
   -2.8836    0.4992    0.0000 C   0  0  0  0  0  0  0  0  0  0  0  0
    2.0662   -0.9296    0.0000 C   0  0  2  0  0  0  0  0  0  0  0  0
    2.4787   -0.2151    0.0000 C   0  0  0  0  0  0  0  0  0  0  0  0
    1.2412   -0.9296    0.0000 C   0  0  0  0  0  0  0  0  0  0  0  0
   -1.6461    1.2138    0.0000 C   0  0  0  0  0  0  0  0  0  0  0  0
   -1.6461   -0.2151    0.0000 C   0  0  0  0  0  0  0  0  0  0  0  0
   -2.4711    1.2138    0.0000 C   0  0  0  0  0  0  0  0  0  0  0  0
   -2.4711   -0.2151    0.0000 C   0  0  0  0  0  0  0  0  0  0  0  0
    3.3036   -0.2151    0.0000 C   0  0  0  0  0  0  0  0  0  0  0  0
    2.0662    0.4992    0.0000 C   0  0  0  0  0  0  0  0  0  0  0  0
    2.0662   -2.3584    0.0000 O   0  0  0  0  0  0  0  0  0  0  0  0
   -0.5800   -0.2151    0.0000 H   0  0  0  0  0  0  0  0  0  0  0  0
    0.5367    0.2906    0.0000 H   0  0  0  0  0  0  0  0  0  0  0  0
    1.7742   -1.4352    0.0000 H   0  0  0  0  0  0  0  0  0  0  0  0
   -1.4287   -0.9296    0.0000 H   0  0  0  0  0  0  0  0  0  0  0  0
    0.1013   -1.8129    0.0000 H   0  0  0  0  0  0  0  0  0  0  0  0
    0.1263    1.4259    0.0000 H   0  0  0  0  0  0  0  0  0  0  0  0
   -0.9437    1.4258    0.0000 H   0  0  0  0  0  0  0  0  0  0  0  0
   -2.3037    0.4993    0.0000 H   0  0  0  0  0  0  0  0  0  0  0  0
    2.2112    0.4992    0.0000 H   0  0  0  0  0  0  0  0  0  0  0  0
   -3.9536    0.4991    0.0000 H   0  0  0  0  0  0  0  0  0  0  0  0
   -3.4185   -0.4275    0.0000 H   0  0  0  0  0  0  0  0  0  0  0  0
    3.0137    0.7116    0.0000 H   0  0  0  0  0  0  0  0  0  0  0  0
    0.7061   -1.8562    0.0000 H   0  0  0  0  0  0  0  0  0  0  0  0
    1.7762   -1.8563    0.0000 H   0  0  0  0  0  0  0  0  0  0  0  0
   -1.1110    2.1404    0.0000 H   0  0  0  0  0  0  0  0  0  0  0  0
   -2.1811    2.1405    0.0000 H   0  0  0  0  0  0  0  0  0  0  0  0
   -1.1111   -1.1417    0.0000 H   0  0  0  0  0  0  0  0  0  0  0  0
   -2.1811   -1.1417    0.0000 H   0  0  0  0  0  0  0  0  0  0  0  0
   -3.0061    2.1404    0.0000 H   0  0  0  0  0  0  0  0  0  0  0  0
   -1.9361    2.1405    0.0000 H   0  0  0  0  0  0  0  0  0  0  0  0
   -3.0061   -1.1418    0.0000 H   0  0  0  0  0  0  0  0  0  0  0  0
   -1.9361   -1.1417    0.0000 H   0  0  0  0  0  0  0  0  0  0  0  0
    3.8386   -1.1417    0.0000 H   0  0  0  0  0  0  0  0  0  0  0  0
    3.8386    0.7115    0.0000 H   0  0  0  0  0  0  0  0  0  0  0  0
    4.3736   -0.2151    0.0000 H   0  0  0  0  0  0  0  0  0  0  0  0
    2.6011    1.4259    0.0000 H   0  0  0  0  0  0  0  0  0  0  0  0
    0.9962    0.4991    0.0000 H   0  0  0  0  0  0  0  0  0  0  0  0
    1.5311    1.4258    0.0000 H   0  0  0  0  0  0  0  0  0  0  0  0
    1.1292   -2.3584    0.0000 H   0  0  0  0  0  0  0  0  0  0  0  0
  1  3  2  0  0  0  0
  1 10  1  0  0  0  0
  1 19  1  0  0  0  0
  2 23  1  0  0  0  0
  2 24  1  0  0  0  0
  4  2  1  0  0  0  0
  4 20  1  6  0  0  0
  5  4  1  0  0  0  0
  5 25  1  0  0  0  0
  5 26  1  0  0  0  0
  6  5  1  0  0  0  0
  6 14  1  0  0  0  0
  6 13  1  0  0  0  0
  6 27  1  0  0  0  0
  7  4  1  0  0  0  0
  7  8  1  0  0  0  0
  7 12  1  0  0  0  0
  7 21  1  6  0  0  0
  8 28  1  0  0  0  0
  9 29  1  0  0  0  0
  9 30  1  0  0  0  0
 10 12  1  0  0  0  0
 10 11  1  0  0  0  0
 10 22  1  6  0  0  0
 11 18  1  0  0  0  0
 11 31  1  0  0  0  0
 12 32  1  0  0  0  0
 12 33  1  0  0  0  0
 13 34  1  0  0  0  0
 13 35  1  0  0  0  0
 14 36  1  0  0  0  0
 14 37  1  0  0  0  0
 15  9  1  0  0  0  0
 15 13  1  0  0  0  0
 15 38  1  0  0  0  0
 15 39  1  0  0  0  0
 16  9  1  0  0  0  0
 16 14  1  0  0  0  0
 16 40  1  0  0  0  0
 16 41  1  0  0  0  0
 17 11  1  0  0  0  0
 17 42  1  0  0  0  0
 17 43  1  0  0  0  0
 17 44  1  0  0  0  0
 18 45  1  0  0  0  0
 18 46  1  0  0  0  0
 18 47  1  0  0  0  0
 19 48  1  0  0  0  0
M  END
>  <DRUGBANK_ID>
DB07581

>  <COMMON_NAME>
5-AMINO-6-CYCLOHEXYL-4-HYDROXY-2-ISOPROPYL-HEXANOIC ACID

$$$$
