
 OpenBabel10282417072D

 20 21  0  0  0  0  0  0  0  0999 V2000
   -0.3572    0.0000    0.0000 C   0  0  0  0  0  0  0  0  0  0  0  0
   -0.3572   -0.8250    0.0000 C   0  0  0  0  0  0  0  0  0  0  0  0
   -1.0716    0.4126    0.0000 C   0  0  0  0  0  0  0  0  0  0  0  0
   -1.0716   -1.2376    0.0000 C   0  0  0  0  0  0  0  0  0  0  0  0
    0.3571   -1.2376    0.0000 C   0  0  0  0  0  0  0  0  0  0  0  0
   -1.7861    0.0000    0.0000 C   0  0  0  0  0  0  0  0  0  0  0  0
   -1.7861   -0.8249    0.0000 C   0  0  0  0  0  0  0  0  0  0  0  0
    1.0716   -0.8250    0.0000 C   0  0  0  0  0  0  0  0  0  0  0  0
    0.3571    0.4126    0.0000 C   0  0  0  0  0  0  0  0  0  0  0  0
    0.3571    1.2376    0.0000 O   0  0  0  0  0  0  0  0  0  0  0  0
    1.0716    0.0000    0.0000 C   0  0  0  0  0  0  0  0  0  0  0  0
    1.7861    0.4126    0.0000 O   0  0  0  0  0  0  0  0  0  0  0  0
   -1.0716    1.4446    0.0000 H   0  0  0  0  0  0  0  0  0  0  0  0
   -1.0716   -2.2696    0.0000 H   0  0  0  0  0  0  0  0  0  0  0  0
    0.3570   -2.2696    0.0000 H   0  0  0  0  0  0  0  0  0  0  0  0
   -2.6799    0.5160    0.0000 H   0  0  0  0  0  0  0  0  0  0  0  0
   -2.6799   -1.3408    0.0000 H   0  0  0  0  0  0  0  0  0  0  0  0
    1.9654   -1.3410    0.0000 H   0  0  0  0  0  0  0  0  0  0  0  0
    1.1686    1.7061    0.0000 H   0  0  0  0  0  0  0  0  0  0  0  0
    2.5976   -0.0558    0.0000 H   0  0  0  0  0  0  0  0  0  0  0  0
  1  2  1  0  0  0  0
  1  3  2  0  0  0  0
  1  9  1  0  0  0  0
  2  4  2  0  0  0  0
  2  5  1  0  0  0  0
  3  6  1  0  0  0  0
  3 13  1  0  0  0  0
  4  7  1  0  0  0  0
  4 14  1  0  0  0  0
  5  8  2  0  0  0  0
  5 15  1  0  0  0  0
  6  7  2  0  0  0  0
  6 16  1  0  0  0  0
  7 17  1  0  0  0  0
  8 18  1  0  0  0  0
  9 11  2  0  0  0  0
  9 10  1  0  0  0  0
 10 19  1  0  0  0  0
 11  8  1  0  0  0  0
 11 12  1  0  0  0  0
 12 20  1  0  0  0  0
M  END
>  <DRUGBANK_ID>
DB07610

>  <COMMON_NAME>
1,2-Dihydroxynaphthalene

>  <CAS_NUMBER>
574-00-5

>  <UNII>
2R5017T335

>  <SYNONYMS>
1,2-Naphthalenediol; 1,2-naphthohydroquinone; beta-Naphthohydroquinone; Naphthalene-1,2-diol; Î²-naphthohydroquinone

$$$$
