
 OpenBabel10282417072D

 73 76  0  0  0  0  0  0  0  0999 V2000
    3.8543   -2.6968    0.0000 Br  0  0  0  0  0  0  0  0  0  0  0  0
    5.3506    0.5734    0.0000 O   0  0  0  0  0  0  0  0  0  0  0  0
    2.6818   -1.6807    0.0000 O   0  0  0  0  0  0  0  0  0  0  0  0
    6.9930   -3.7165    0.0000 O   0  0  0  0  0  0  0  0  0  0  0  0
    5.7667   -4.8207    0.0000 O   0  0  0  0  0  0  0  0  0  0  0  0
    4.2959   -1.3377    0.0000 N   0  3  0  0  0  0  0  0  0  0  0  0
    6.8873    3.7651    0.0000 C   0  0  3  0  0  0  0  0  0  0  0  0
    8.3987    3.5661    0.0000 C   0  0  0  0  0  0  0  0  0  0  0  0
    7.1008    4.5621    0.0000 C   0  0  3  0  0  0  0  0  0  0  0  0
    6.4931    5.3727    0.0000 C   0  0  0  0  0  0  0  0  0  0  0  0
    5.6207    2.7394    0.0000 C   0  0  3  0  0  0  0  0  0  0  0  0
    4.9532    3.8956    0.0000 C   0  0  0  0  0  0  0  0  0  0  0  0
    4.8669    3.0751    0.0000 C   0  0  0  0  0  0  0  0  0  0  0  0
    9.1132    3.9787    0.0000 C   0  0  0  0  0  0  0  0  0  0  0  0
    8.8112    2.8516    0.0000 C   0  0  0  0  0  0  0  0  0  0  0  0
    5.7922    1.9325    0.0000 C   0  0  0  0  0  0  0  0  0  0  0  0
    5.1791    1.3804    0.0000 C   0  0  0  0  0  0  0  0  0  0  0  0
    4.7374    0.0213    0.0000 C   0  0  0  0  0  0  0  0  0  0  0  0
    4.9090   -0.7856    0.0000 C   0  0  0  0  0  0  0  0  0  0  0  0
    3.7438   -0.7245    0.0000 C   0  0  0  0  0  0  0  0  0  0  0  0
    4.0409   -2.1223    0.0000 C   0  0  0  0  0  0  0  0  0  0  0  0
    5.0806   -1.5926    0.0000 C   0  0  0  0  0  0  0  0  0  0  0  0
    2.9368   -0.8961    0.0000 C   0  0  0  0  0  0  0  0  0  0  0  0
    3.2339   -2.2939    0.0000 C   0  0  0  0  0  0  0  0  0  0  0  0
    5.2521   -2.3997    0.0000 C   0  0  0  0  0  0  0  0  0  0  0  0
    6.0367   -2.6546    0.0000 C   0  0  0  0  0  0  0  0  0  0  0  0
    4.6389   -2.9517    0.0000 C   0  0  0  0  0  0  0  0  0  0  0  0
    6.2083   -3.4616    0.0000 C   0  0  0  0  0  0  0  0  0  0  0  0
    4.8105   -3.7587    0.0000 C   0  0  0  0  0  0  0  0  0  0  0  0
    5.5952   -4.0137    0.0000 C   0  0  0  0  0  0  0  0  0  0  0  0
    7.6061   -3.1645    0.0000 C   0  0  0  0  0  0  0  0  0  0  0  0
    5.1536   -5.3727    0.0000 C   0  0  0  0  0  0  0  0  0  0  0  0
    7.6013    4.5620    0.0000 H   0  0  0  0  0  0  0  0  0  0  0  0
    7.8616    5.3144    0.0000 H   0  0  0  0  0  0  0  0  0  0  0  0
    6.0355    6.3399    0.0000 H   0  0  0  0  0  0  0  0  0  0  0  0
    7.4094    5.9252    0.0000 H   0  0  0  0  0  0  0  0  0  0  0  0
    5.4811    3.8003    0.0000 H   0  0  0  0  0  0  0  0  0  0  0  0
    4.1262    4.5745    0.0000 H   0  0  0  0  0  0  0  0  0  0  0  0
    3.9633    3.4895    0.0000 H   0  0  0  0  0  0  0  0  0  0  0  0
    3.9402    2.5402    0.0000 H   0  0  0  0  0  0  0  0  0  0  0  0
    3.9696    3.6579    0.0000 H   0  0  0  0  0  0  0  0  0  0  0  0
   10.0399    3.4438    0.0000 H   0  0  0  0  0  0  0  0  0  0  0  0
    9.1131    5.0487    0.0000 H   0  0  0  0  0  0  0  0  0  0  0  0
   10.0398    4.5138    0.0000 H   0  0  0  0  0  0  0  0  0  0  0  0
    8.2762    1.9250    0.0000 H   0  0  0  0  0  0  0  0  0  0  0  0
    9.8812    2.8516    0.0000 H   0  0  0  0  0  0  0  0  0  0  0  0
    9.3462    1.9249    0.0000 H   0  0  0  0  0  0  0  0  0  0  0  0
    6.8098    1.6019    0.0000 H   0  0  0  0  0  0  0  0  0  0  0  0
    6.0147    0.8859    0.0000 H   0  0  0  0  0  0  0  0  0  0  0  0
    4.1615    1.7110    0.0000 H   0  0  0  0  0  0  0  0  0  0  0  0
    4.9566    2.4270    0.0000 H   0  0  0  0  0  0  0  0  0  0  0  0
    3.7198    0.3519    0.0000 H   0  0  0  0  0  0  0  0  0  0  0  0
    3.9423   -0.6947    0.0000 H   0  0  0  0  0  0  0  0  0  0  0  0
    5.9267   -1.1162    0.0000 H   0  0  0  0  0  0  0  0  0  0  0  0
    5.7041   -0.0696    0.0000 H   0  0  0  0  0  0  0  0  0  0  0  0
    4.0744    0.2931    0.0000 H   0  0  0  0  0  0  0  0  0  0  0  0
    3.0278    0.0706    0.0000 H   0  0  0  0  0  0  0  0  0  0  0  0
    4.7569   -2.9175    0.0000 H   0  0  0  0  0  0  0  0  0  0  0  0
    3.7103   -3.1399    0.0000 H   0  0  0  0  0  0  0  0  0  0  0  0
    5.8758   -0.8766    0.0000 H   0  0  0  0  0  0  0  0  0  0  0  0
    6.0982   -1.9233    0.0000 H   0  0  0  0  0  0  0  0  0  0  0  0
    2.2208   -0.1009    0.0000 H   0  0  0  0  0  0  0  0  0  0  0  0
    3.2674    0.1215    0.0000 H   0  0  0  0  0  0  0  0  0  0  0  0
    2.9033   -3.3115    0.0000 H   0  0  0  0  0  0  0  0  0  0  0  0
    3.9499   -3.0890    0.0000 H   0  0  0  0  0  0  0  0  0  0  0  0
    6.8036   -1.9640    0.0000 H   0  0  0  0  0  0  0  0  0  0  0  0
    4.0436   -4.4493    0.0000 H   0  0  0  0  0  0  0  0  0  0  0  0
    8.6237   -3.4952    0.0000 H   0  0  0  0  0  0  0  0  0  0  0  0
    7.3837   -2.1179    0.0000 H   0  0  0  0  0  0  0  0  0  0  0  0
    8.4013   -2.4486    0.0000 H   0  0  0  0  0  0  0  0  0  0  0  0
    4.1360   -5.0420    0.0000 H   0  0  0  0  0  0  0  0  0  0  0  0
    5.3760   -6.4193    0.0000 H   0  0  0  0  0  0  0  0  0  0  0  0
    4.3584   -6.0886    0.0000 H   0  0  0  0  0  0  0  0  0  0  0  0
  1 27  1  0  0  0  0
  2 17  1  0  0  0  0
  2 18  1  0  0  0  0
  3 23  1  0  0  0  0
  3 24  1  0  0  0  0
  4 28  1  0  0  0  0
  4 31  1  0  0  0  0
  5 30  1  0  0  0  0
  5 32  1  0  0  0  0
  6 19  1  0  0  0  0
  6 20  1  0  0  0  0
  6 21  1  0  0  0  0
  6 22  1  0  0  0  0
  7  8  1  0  0  0  0
  7 10  1  0  0  0  0
  7 11  1  0  0  0  0
  7 33  1  0  0  0  0
  8  9  1  0  0  0  0
  8 14  1  0  0  0  0
  8 15  1  0  0  0  0
  9 10  1  0  0  0  0
  9 12  1  0  0  0  0
  9 34  1  0  0  0  0
 10 35  1  0  0  0  0
 10 36  1  0  0  0  0
 11 13  1  0  0  0  0
 11 16  1  0  0  0  0
 11 37  1  0  0  0  0
 12 13  1  0  0  0  0
 12 38  1  0  0  0  0
 12 39  1  0  0  0  0
 13 40  1  0  0  0  0
 13 41  1  0  0  0  0
 14 42  1  0  0  0  0
 14 43  1  0  0  0  0
 14 44  1  0  0  0  0
 15 45  1  0  0  0  0
 15 46  1  0  0  0  0
 15 47  1  0  0  0  0
 16 17  1  0  0  0  0
 16 48  1  0  0  0  0
 16 49  1  0  0  0  0
 17 50  1  0  0  0  0
 17 51  1  0  0  0  0
 18 19  1  0  0  0  0
 18 52  1  0  0  0  0
 18 53  1  0  0  0  0
 19 54  1  0  0  0  0
 19 55  1  0  0  0  0
 20 23  1  0  0  0  0
 20 56  1  0  0  0  0
 20 57  1  0  0  0  0
 21 24  1  0  0  0  0
 21 58  1  0  0  0  0
 21 59  1  0  0  0  0
 22 25  1  0  0  0  0
 22 60  1  0  0  0  0
 22 61  1  0  0  0  0
 23 62  1  0  0  0  0
 23 63  1  0  0  0  0
 24 64  1  0  0  0  0
 24 65  1  0  0  0  0
 25 26  2  0  0  0  0
 25 27  1  0  0  0  0
 26 28  1  0  0  0  0
 26 66  1  0  0  0  0
 27 29  2  0  0  0  0
 28 30  2  0  0  0  0
 29 30  1  0  0  0  0
 29 67  1  0  0  0  0
 31 68  1  0  0  0  0
 31 69  1  0  0  0  0
 31 70  1  0  0  0  0
 32 71  1  0  0  0  0
 32 72  1  0  0  0  0
 32 73  1  0  0  0  0
M  CHG  1   6   1
M  END
>  <DRUGBANK_ID>
DB09090

>  <COMMON_NAME>
Pinaverium

>  <CAS_NUMBER>
59995-65-2

>  <UNII>
U2368VVE7O

$$$$
