
 OpenBabel10282417072D

 12 11  0  0  0  0  0  0  0  0999 V2000
    0.3019   -0.7145    0.0000 S   0  0  0  0  0  0  0  0  0  0  0  0
   -0.7144    0.0000    0.0000 P   0  0  0  0  0  0  0  0  0  0  0  0
    0.7145    0.0000    0.0000 P   0  0  2  0  0  0  0  0  0  0  0  0
    0.0000    0.4124    0.0000 O   0  0  0  0  0  0  0  0  0  0  0  0
   -1.4289   -0.4125    0.0000 O   0  0  0  0  0  0  0  0  0  0  0  0
   -1.1269    0.7145    0.0000 O   0  0  0  0  0  0  0  0  0  0  0  0
    1.4289   -0.4125    0.0000 O   0  0  0  0  0  0  0  0  0  0  0  0
   -0.3019   -0.7145    0.0000 O   0  0  0  0  0  0  0  0  0  0  0  0
    1.1270    0.7145    0.0000 O   0  5  0  0  0  0  0  0  0  0  0  0
   -2.2689    0.0725    0.0000 H   0  0  0  0  0  0  0  0  0  0  0  0
   -0.6419    1.5545    0.0000 H   0  0  0  0  0  0  0  0  0  0  0  0
    1.4289   -1.3825    0.0000 H   0  0  0  0  0  0  0  0  0  0  0  0
  2  4  1  0  0  0  0
  2  5  1  0  0  0  0
  2  6  1  0  0  0  0
  2  8  2  0  0  0  0
  3  1  2  1  0  0  0
  3  4  1  0  0  0  0
  3  7  1  0  0  0  0
  3  9  1  0  0  0  0
  5 10  1  0  0  0  0
  6 11  1  0  0  0  0
  7 12  1  0  0  0  0
M  CHG  1   9  -1
M  END
>  <DRUGBANK_ID>
DB02423

>  <SECONDARY_ACCESSION_NUMBERS>
EXPT02603

>  <COMMON_NAME>
Thiopyrophosphate

>  <CAS_NUMBER>
68488-87-9

>  <SYNONYMS>
Trihydrogen thiodiphosphate

$$$$
