
 OpenBabel10282417072D

 46 48  0  0  0  0  0  0  0  0999 V2000
   -1.8411   -3.2232    0.0000 C   0  0  0  0  0  0  0  0  0  0  0  0
   -1.8411   -2.3982    0.0000 O   0  0  0  0  0  0  0  0  0  0  0  0
   -1.1267   -1.9857    0.0000 C   0  0  0  0  0  0  0  0  0  0  0  0
   -1.1267   -1.1607    0.0000 C   0  0  0  0  0  0  0  0  0  0  0  0
   -0.4122   -0.7482    0.0000 C   0  0  0  0  0  0  0  0  0  0  0  0
    0.3023   -1.1607    0.0000 C   0  0  0  0  0  0  0  0  0  0  0  0
    0.3023   -1.9857    0.0000 C   0  0  0  0  0  0  0  0  0  0  0  0
   -0.4122   -2.3982    0.0000 C   0  0  0  0  0  0  0  0  0  0  0  0
   -0.4122   -3.2232    0.0000 C   0  0  0  0  0  0  0  0  0  0  0  0
    0.2552   -3.7081    0.0000 C   0  0  0  0  0  0  0  0  0  0  0  0
    0.0003   -4.4928    0.0000 C   0  0  0  0  0  0  0  0  0  0  0  0
   -0.8247   -4.4928    0.0000 N   0  0  0  0  0  0  0  0  0  0  0  0
   -1.0796   -3.7081    0.0000 N   0  0  0  0  0  0  0  0  0  0  0  0
    0.4852   -5.1602    0.0000 N   0  0  0  0  0  0  0  0  0  0  0  0
    0.1497   -5.9139    0.0000 C   0  0  0  0  0  0  0  0  0  0  0  0
    0.6346   -6.5813    0.0000 C   0  0  0  0  0  0  0  0  0  0  0  0
    0.2990   -7.3350    0.0000 N   0  0  0  0  0  0  0  0  0  0  0  0
   -0.5214   -7.4212    0.0000 C   0  0  0  0  0  0  0  0  0  0  0  0
   -1.0064   -6.7538    0.0000 C   0  0  0  0  0  0  0  0  0  0  0  0
   -0.6708   -6.0001    0.0000 N   0  0  0  0  0  0  0  0  0  0  0  0
   -0.8570   -8.1749    0.0000 C   0  0  0  0  0  0  0  0  0  0  0  0
   -1.1926   -8.9286    0.0000 N   0  0  0  0  0  0  0  0  0  0  0  0
    1.0167   -2.3982    0.0000 O   0  0  0  0  0  0  0  0  0  0  0  0
    1.0167   -3.2232    0.0000 C   0  0  0  0  0  0  0  0  0  0  0  0
    1.7312   -3.6357    0.0000 C   0  0  0  0  0  0  0  0  0  0  0  0
    2.4457   -3.2232    0.0000 C   0  0  0  0  0  0  0  0  0  0  0  0
    2.4457   -2.3982    0.0000 N   0  0  0  0  0  0  0  0  0  0  0  0
   -2.7677   -3.7582    0.0000 H   0  0  0  0  0  0  0  0  0  0  0  0
   -0.9145   -3.7582    0.0000 H   0  0  0  0  0  0  0  0  0  0  0  0
   -1.8411   -4.2932    0.0000 H   0  0  0  0  0  0  0  0  0  0  0  0
   -2.0204   -0.6447    0.0000 H   0  0  0  0  0  0  0  0  0  0  0  0
   -0.4122    0.2838    0.0000 H   0  0  0  0  0  0  0  0  0  0  0  0
    1.1960   -0.6447    0.0000 H   0  0  0  0  0  0  0  0  0  0  0  0
    1.2367   -3.3892    0.0000 H   0  0  0  0  0  0  0  0  0  0  0  0
   -2.0159   -3.4038    0.0000 H   0  0  0  0  0  0  0  0  0  0  0  0
    1.4643   -5.0573    0.0000 H   0  0  0  0  0  0  0  0  0  0  0  0
    1.6609   -6.4734    0.0000 H   0  0  0  0  0  0  0  0  0  0  0  0
   -2.0327   -6.8617    0.0000 H   0  0  0  0  0  0  0  0  0  0  0  0
    0.0901   -3.7582    0.0000 H   0  0  0  0  0  0  0  0  0  0  0  0
    1.0167   -4.2932    0.0000 H   0  0  0  0  0  0  0  0  0  0  0  0
    1.7312   -4.7057    0.0000 H   0  0  0  0  0  0  0  0  0  0  0  0
    2.6578   -4.1707    0.0000 H   0  0  0  0  0  0  0  0  0  0  0  0
    3.3723   -3.7582    0.0000 H   0  0  0  0  0  0  0  0  0  0  0  0
    3.3723   -2.6882    0.0000 H   0  0  0  0  0  0  0  0  0  0  0  0
    3.3290   -1.8882    0.0000 H   0  0  0  0  0  0  0  0  0  0  0  0
    1.5624   -1.8882    0.0000 H   0  0  0  0  0  0  0  0  0  0  0  0
  1  2  1  0  0  0  0
  1 28  1  0  0  0  0
  1 29  1  0  0  0  0
  1 30  1  0  0  0  0
  2  3  1  0  0  0  0
  3  4  2  0  0  0  0
  3  8  1  0  0  0  0
  4  5  1  0  0  0  0
  4 31  1  0  0  0  0
  5  6  2  0  0  0  0
  5 32  1  0  0  0  0
  6  7  1  0  0  0  0
  6 33  1  0  0  0  0
  7  8  2  0  0  0  0
  7 23  1  0  0  0  0
  8  9  1  0  0  0  0
  9 10  2  0  0  0  0
  9 13  1  0  0  0  0
 10 11  1  0  0  0  0
 10 34  1  0  0  0  0
 11 12  2  0  0  0  0
 11 14  1  0  0  0  0
 12 13  1  0  0  0  0
 13 35  1  0  0  0  0
 14 15  1  0  0  0  0
 14 36  1  0  0  0  0
 15 16  2  0  0  0  0
 15 20  1  0  0  0  0
 16 17  1  0  0  0  0
 16 37  1  0  0  0  0
 17 18  2  0  0  0  0
 18 19  1  0  0  0  0
 18 21  1  0  0  0  0
 19 20  2  0  0  0  0
 19 38  1  0  0  0  0
 21 22  3  0  0  0  0
 23 24  1  0  0  0  0
 24 25  1  0  0  0  0
 24 39  1  0  0  0  0
 24 40  1  0  0  0  0
 25 26  1  0  0  0  0
 25 41  1  0  0  0  0
 25 42  1  0  0  0  0
 26 27  1  0  0  0  0
 26 43  1  0  0  0  0
 26 44  1  0  0  0  0
 27 45  1  0  0  0  0
 27 46  1  0  0  0  0
M  END
>  <DRUGBANK_ID>
DB12008

>  <COMMON_NAME>
Prexasertib

>  <CAS_NUMBER>
1234015-52-1

>  <UNII>
820NH671E6

>  <SYNONYMS>
Prexasertib

$$$$
