
 OpenBabel10282417072D

132131  0  0  1  0  0  0  0  0999 V2000
   14.1355   -8.9862    0.0000 C   0  0  0  0  0  0  0  0  0  0  0  0
   14.8500   -8.5737    0.0000 C   0  0  0  0  0  0  0  0  0  0  0  0
   15.5645   -8.9862    0.0000 C   0  0  0  0  0  0  0  0  0  0  0  0
   16.2789   -8.5737    0.0000 C   0  0  0  0  0  0  0  0  0  0  0  0
   16.9934   -8.9862    0.0000 C   0  0  0  0  0  0  0  0  0  0  0  0
   17.7079   -8.5737    0.0000 C   0  0  0  0  0  0  0  0  0  0  0  0
   18.4224   -8.9862    0.0000 C   0  0  0  0  0  0  0  0  0  0  0  0
   19.1368   -8.5737    0.0000 C   0  0  0  0  0  0  0  0  0  0  0  0
   19.8513   -8.9862    0.0000 C   0  0  0  0  0  0  0  0  0  0  0  0
   20.5658   -8.5737    0.0000 C   0  0  0  0  0  0  0  0  0  0  0  0
   21.2802   -8.9862    0.0000 C   0  0  0  0  0  0  0  0  0  0  0  0
   21.9947   -8.5737    0.0000 C   0  0  0  0  0  0  0  0  0  0  0  0
   22.7092   -8.9862    0.0000 C   0  0  0  0  0  0  0  0  0  0  0  0
   23.4237   -8.5737    0.0000 C   0  0  0  0  0  0  0  0  0  0  0  0
   24.1381   -8.9862    0.0000 C   0  0  0  0  0  0  0  0  0  0  0  0
   24.8526   -8.5737    0.0000 C   0  0  0  0  0  0  0  0  0  0  0  0
   25.5671   -8.9862    0.0000 C   0  0  0  0  0  0  0  0  0  0  0  0
   26.2815   -8.5737    0.0000 C   0  0  0  0  0  0  0  0  0  0  0  0
   26.9960   -8.9862    0.0000 O   0  0  0  0  0  0  0  0  0  0  0  0
   27.7105   -8.5737    0.0000 C   0  0  0  0  0  0  0  0  0  0  0  0
   28.4249   -8.9862    0.0000 C   0  0  2  0  0  0  0  0  0  0  0  0
   28.4249   -9.8112    0.0000 C   0  0  0  0  0  0  0  0  0  0  0  0
   29.1394  -10.2237    0.0000 O   0  0  0  0  0  0  0  0  0  0  0  0
   29.1394  -11.0487    0.0000 P   0  0  3  0  0  0  0  0  0  0  0  0
   29.9644  -11.0487    0.0000 O   0  0  0  0  0  0  0  0  0  0  0  0
   28.3144  -11.0487    0.0000 O   0  0  0  0  0  0  0  0  0  0  0  0
   29.1394  -11.8737    0.0000 O   0  0  0  0  0  0  0  0  0  0  0  0
   28.4249  -12.2862    0.0000 C   0  0  0  0  0  0  0  0  0  0  0  0
   28.4249  -13.1112    0.0000 C   0  0  0  0  0  0  0  0  0  0  0  0
   27.7105  -13.5237    0.0000 N   0  0  0  0  0  0  0  0  0  0  0  0
   29.1394   -8.5737    0.0000 O   0  0  0  0  0  0  0  0  0  0  0  0
   29.8539   -8.9862    0.0000 C   0  0  0  0  0  0  0  0  0  0  0  0
   29.8539   -9.8112    0.0000 O   0  0  0  0  0  0  0  0  0  0  0  0
   30.5684   -8.5737    0.0000 C   0  0  0  0  0  0  0  0  0  0  0  0
   31.2828   -8.9862    0.0000 C   0  0  0  0  0  0  0  0  0  0  0  0
   31.9973   -8.5737    0.0000 C   0  0  0  0  0  0  0  0  0  0  0  0
   32.7118   -8.9862    0.0000 C   0  0  0  0  0  0  0  0  0  0  0  0
   33.4262   -8.5737    0.0000 C   0  0  0  0  0  0  0  0  0  0  0  0
   33.4262   -7.7487    0.0000 C   0  0  0  0  0  0  0  0  0  0  0  0
   34.1407   -7.3362    0.0000 C   0  0  0  0  0  0  0  0  0  0  0  0
   34.1407   -6.5112    0.0000 C   0  0  0  0  0  0  0  0  0  0  0  0
   33.4262   -6.0987    0.0000 C   0  0  0  0  0  0  0  0  0  0  0  0
   33.4262   -5.2737    0.0000 C   0  0  0  0  0  0  0  0  0  0  0  0
   32.7118   -4.8612    0.0000 C   0  0  0  0  0  0  0  0  0  0  0  0
   31.9973   -5.2737    0.0000 C   0  0  0  0  0  0  0  0  0  0  0  0
   31.2828   -4.8612    0.0000 C   0  0  0  0  0  0  0  0  0  0  0  0
   30.5684   -5.2737    0.0000 C   0  0  0  0  0  0  0  0  0  0  0  0
   30.5684   -6.0987    0.0000 C   0  0  0  0  0  0  0  0  0  0  0  0
   29.8539   -6.5112    0.0000 C   0  0  0  0  0  0  0  0  0  0  0  0
   29.8539   -7.3362    0.0000 C   0  0  0  0  0  0  0  0  0  0  0  0
   29.1394   -7.7487    0.0000 C   0  0  0  0  0  0  0  0  0  0  0  0
   28.4249   -7.3362    0.0000 C   0  0  0  0  0  0  0  0  0  0  0  0
   13.2089   -8.4512    0.0000 H   0  0  0  0  0  0  0  0  0  0  0  0
   14.1355  -10.0562    0.0000 H   0  0  0  0  0  0  0  0  0  0  0  0
   13.2088   -9.5212    0.0000 H   0  0  0  0  0  0  0  0  0  0  0  0
   14.8500   -7.5037    0.0000 H   0  0  0  0  0  0  0  0  0  0  0  0
   15.7766   -8.0387    0.0000 H   0  0  0  0  0  0  0  0  0  0  0  0
   15.5645  -10.0562    0.0000 H   0  0  0  0  0  0  0  0  0  0  0  0
   16.4912   -9.5212    0.0000 H   0  0  0  0  0  0  0  0  0  0  0  0
   16.2789   -7.5037    0.0000 H   0  0  0  0  0  0  0  0  0  0  0  0
   17.2055   -8.0387    0.0000 H   0  0  0  0  0  0  0  0  0  0  0  0
   16.9934  -10.0562    0.0000 H   0  0  0  0  0  0  0  0  0  0  0  0
   17.9200   -9.5212    0.0000 H   0  0  0  0  0  0  0  0  0  0  0  0
   17.7079   -7.5037    0.0000 H   0  0  0  0  0  0  0  0  0  0  0  0
   18.6345   -8.0387    0.0000 H   0  0  0  0  0  0  0  0  0  0  0  0
   18.4224  -10.0562    0.0000 H   0  0  0  0  0  0  0  0  0  0  0  0
   19.3491   -9.5212    0.0000 H   0  0  0  0  0  0  0  0  0  0  0  0
   19.1368   -7.5037    0.0000 H   0  0  0  0  0  0  0  0  0  0  0  0
   20.0634   -8.0387    0.0000 H   0  0  0  0  0  0  0  0  0  0  0  0
   19.8513  -10.0562    0.0000 H   0  0  0  0  0  0  0  0  0  0  0  0
   20.7779   -9.5212    0.0000 H   0  0  0  0  0  0  0  0  0  0  0  0
   20.5658   -7.5037    0.0000 H   0  0  0  0  0  0  0  0  0  0  0  0
   21.4925   -8.0387    0.0000 H   0  0  0  0  0  0  0  0  0  0  0  0
   21.2802  -10.0562    0.0000 H   0  0  0  0  0  0  0  0  0  0  0  0
   22.2068   -9.5212    0.0000 H   0  0  0  0  0  0  0  0  0  0  0  0
   21.9947   -7.5037    0.0000 H   0  0  0  0  0  0  0  0  0  0  0  0
   22.9213   -8.0387    0.0000 H   0  0  0  0  0  0  0  0  0  0  0  0
   22.7092  -10.0562    0.0000 H   0  0  0  0  0  0  0  0  0  0  0  0
   23.6358   -9.5212    0.0000 H   0  0  0  0  0  0  0  0  0  0  0  0
   23.4237   -7.5037    0.0000 H   0  0  0  0  0  0  0  0  0  0  0  0
   24.3504   -8.0387    0.0000 H   0  0  0  0  0  0  0  0  0  0  0  0
   24.1381  -10.0562    0.0000 H   0  0  0  0  0  0  0  0  0  0  0  0
   25.0647   -9.5212    0.0000 H   0  0  0  0  0  0  0  0  0  0  0  0
   24.8526   -7.5037    0.0000 H   0  0  0  0  0  0  0  0  0  0  0  0
   25.7792   -8.0387    0.0000 H   0  0  0  0  0  0  0  0  0  0  0  0
   25.5671  -10.0562    0.0000 H   0  0  0  0  0  0  0  0  0  0  0  0
   26.4938   -9.5212    0.0000 H   0  0  0  0  0  0  0  0  0  0  0  0
   26.2815   -7.5037    0.0000 H   0  0  0  0  0  0  0  0  0  0  0  0
   27.2081   -8.0387    0.0000 H   0  0  0  0  0  0  0  0  0  0  0  0
   27.7105   -7.5037    0.0000 H   0  0  0  0  0  0  0  0  0  0  0  0
   28.6372   -8.0387    0.0000 H   0  0  0  0  0  0  0  0  0  0  0  0
   28.4249   -7.9162    0.0000 H   0  0  0  0  0  0  0  0  0  0  0  0
   27.4983  -10.3462    0.0000 H   0  0  0  0  0  0  0  0  0  0  0  0
   28.4249  -10.8812    0.0000 H   0  0  0  0  0  0  0  0  0  0  0  0
   30.4494  -11.8887    0.0000 H   0  0  0  0  0  0  0  0  0  0  0  0
   27.4983  -11.7512    0.0000 H   0  0  0  0  0  0  0  0  0  0  0  0
   27.4983  -12.8212    0.0000 H   0  0  0  0  0  0  0  0  0  0  0  0
   29.3516  -13.6462    0.0000 H   0  0  0  0  0  0  0  0  0  0  0  0
   28.4249  -14.1812    0.0000 H   0  0  0  0  0  0  0  0  0  0  0  0
   26.8271  -13.0137    0.0000 H   0  0  0  0  0  0  0  0  0  0  0  0
   27.7105  -14.5437    0.0000 H   0  0  0  0  0  0  0  0  0  0  0  0
   30.5684   -7.5037    0.0000 H   0  0  0  0  0  0  0  0  0  0  0  0
   31.4951   -8.0387    0.0000 H   0  0  0  0  0  0  0  0  0  0  0  0
   31.2828  -10.0562    0.0000 H   0  0  0  0  0  0  0  0  0  0  0  0
   32.2094   -9.5212    0.0000 H   0  0  0  0  0  0  0  0  0  0  0  0
   31.9973   -7.5037    0.0000 H   0  0  0  0  0  0  0  0  0  0  0  0
   32.9239   -8.0387    0.0000 H   0  0  0  0  0  0  0  0  0  0  0  0
   32.7118  -10.0182    0.0000 H   0  0  0  0  0  0  0  0  0  0  0  0
   34.3199   -9.0897    0.0000 H   0  0  0  0  0  0  0  0  0  0  0  0
   32.4996   -7.2137    0.0000 H   0  0  0  0  0  0  0  0  0  0  0  0
   33.4262   -6.6787    0.0000 H   0  0  0  0  0  0  0  0  0  0  0  0
   35.0344   -7.8522    0.0000 H   0  0  0  0  0  0  0  0  0  0  0  0
   35.0344   -5.9952    0.0000 H   0  0  0  0  0  0  0  0  0  0  0  0
   32.4996   -6.6337    0.0000 H   0  0  0  0  0  0  0  0  0  0  0  0
   32.4996   -5.5637    0.0000 H   0  0  0  0  0  0  0  0  0  0  0  0
   34.3199   -4.7577    0.0000 H   0  0  0  0  0  0  0  0  0  0  0  0
   32.7118   -3.8292    0.0000 H   0  0  0  0  0  0  0  0  0  0  0  0
   31.9973   -6.3437    0.0000 H   0  0  0  0  0  0  0  0  0  0  0  0
   31.0707   -5.8087    0.0000 H   0  0  0  0  0  0  0  0  0  0  0  0
   31.2828   -3.8292    0.0000 H   0  0  0  0  0  0  0  0  0  0  0  0
   29.6747   -4.7577    0.0000 H   0  0  0  0  0  0  0  0  0  0  0  0
   31.4950   -6.6337    0.0000 H   0  0  0  0  0  0  0  0  0  0  0  0
   30.5684   -7.1687    0.0000 H   0  0  0  0  0  0  0  0  0  0  0  0
   28.9273   -5.9762    0.0000 H   0  0  0  0  0  0  0  0  0  0  0  0
   28.9273   -7.0462    0.0000 H   0  0  0  0  0  0  0  0  0  0  0  0
   30.7805   -7.8712    0.0000 H   0  0  0  0  0  0  0  0  0  0  0  0
   29.8539   -8.4062    0.0000 H   0  0  0  0  0  0  0  0  0  0  0  0
   29.1394   -8.8187    0.0000 H   0  0  0  0  0  0  0  0  0  0  0  0
   28.2128   -8.2837    0.0000 H   0  0  0  0  0  0  0  0  0  0  0  0
   28.4249   -6.2662    0.0000 H   0  0  0  0  0  0  0  0  0  0  0  0
   27.4983   -7.8712    0.0000 H   0  0  0  0  0  0  0  0  0  0  0  0
   27.4982   -6.8012    0.0000 H   0  0  0  0  0  0  0  0  0  0  0  0
  1  2  1  0  0  0  0
  1 53  1  0  0  0  0
  1 54  1  0  0  0  0
  1 55  1  0  0  0  0
  2  3  1  0  0  0  0
  2 56  1  0  0  0  0
  2 57  1  0  0  0  0
  3  4  1  0  0  0  0
  3 58  1  0  0  0  0
  3 59  1  0  0  0  0
  4  5  1  0  0  0  0
  4 60  1  0  0  0  0
  4 61  1  0  0  0  0
  5  6  1  0  0  0  0
  5 62  1  0  0  0  0
  5 63  1  0  0  0  0
  6  7  1  0  0  0  0
  6 64  1  0  0  0  0
  6 65  1  0  0  0  0
  7  8  1  0  0  0  0
  7 66  1  0  0  0  0
  7 67  1  0  0  0  0
  8  9  1  0  0  0  0
  8 68  1  0  0  0  0
  8 69  1  0  0  0  0
  9 10  1  0  0  0  0
  9 70  1  0  0  0  0
  9 71  1  0  0  0  0
 10 11  1  0  0  0  0
 10 72  1  0  0  0  0
 10 73  1  0  0  0  0
 11 12  1  0  0  0  0
 11 74  1  0  0  0  0
 11 75  1  0  0  0  0
 12 13  1  0  0  0  0
 12 76  1  0  0  0  0
 12 77  1  0  0  0  0
 13 14  1  0  0  0  0
 13 78  1  0  0  0  0
 13 79  1  0  0  0  0
 14 15  1  0  0  0  0
 14 80  1  0  0  0  0
 14 81  1  0  0  0  0
 15 16  1  0  0  0  0
 15 82  1  0  0  0  0
 15 83  1  0  0  0  0
 16 17  1  0  0  0  0
 16 84  1  0  0  0  0
 16 85  1  0  0  0  0
 17 18  1  0  0  0  0
 17 86  1  0  0  0  0
 17 87  1  0  0  0  0
 18 19  1  0  0  0  0
 18 88  1  0  0  0  0
 18 89  1  0  0  0  0
 19 20  1  0  0  0  0
 20 90  1  0  0  0  0
 20 91  1  0  0  0  0
 21 20  1  0  0  0  0
 21 22  1  0  0  0  0
 21 31  1  0  0  0  0
 21 92  1  6  0  0  0
 22 23  1  0  0  0  0
 22 93  1  0  0  0  0
 22 94  1  0  0  0  0
 23 24  1  0  0  0  0
 24 25  1  0  0  0  0
 24 26  2  0  0  0  0
 24 27  1  0  0  0  0
 25 95  1  0  0  0  0
 27 28  1  0  0  0  0
 28 29  1  0  0  0  0
 28 96  1  0  0  0  0
 28 97  1  0  0  0  0
 29 30  1  0  0  0  0
 29 98  1  0  0  0  0
 29 99  1  0  0  0  0
 30100  1  0  0  0  0
 30101  1  0  0  0  0
 31 32  1  0  0  0  0
 32 33  2  0  0  0  0
 32 34  1  0  0  0  0
 34 35  1  0  0  0  0
 34102  1  0  0  0  0
 34103  1  0  0  0  0
 35 36  1  0  0  0  0
 35104  1  0  0  0  0
 35105  1  0  0  0  0
 36 37  1  0  0  0  0
 36106  1  0  0  0  0
 36107  1  0  0  0  0
 37 38  2  0  0  0  0
 37108  1  0  0  0  0
 38 39  1  0  0  0  0
 38109  1  0  0  0  0
 39 40  1  0  0  0  0
 39110  1  0  0  0  0
 39111  1  0  0  0  0
 40 41  2  0  0  0  0
 40112  1  0  0  0  0
 41 42  1  0  0  0  0
 41113  1  0  0  0  0
 42 43  1  0  0  0  0
 42114  1  0  0  0  0
 42115  1  0  0  0  0
 43 44  2  0  0  0  0
 43116  1  0  0  0  0
 44 45  1  0  0  0  0
 44117  1  0  0  0  0
 45 46  1  0  0  0  0
 45118  1  0  0  0  0
 45119  1  0  0  0  0
 46 47  2  0  0  0  0
 46120  1  0  0  0  0
 47 48  1  0  0  0  0
 47121  1  0  0  0  0
 48 49  1  0  0  0  0
 48122  1  0  0  0  0
 48123  1  0  0  0  0
 49 50  1  0  0  0  0
 49124  1  0  0  0  0
 49125  1  0  0  0  0
 50 51  1  0  0  0  0
 50126  1  0  0  0  0
 50127  1  0  0  0  0
 51 52  1  0  0  0  0
 51128  1  0  0  0  0
 51129  1  0  0  0  0
 52130  1  0  0  0  0
 52131  1  0  0  0  0
 52132  1  0  0  0  0
M  END
>  <DRUGBANK_ID>
DB18093

>  <COMMON_NAME>
KIT-13

>  <CAS_NUMBER>
103628-72-4

>  <UNII>
6B7M56U62N

>  <SYNONYMS>
1-o-octadecyl-2-arachidonoyl-sn-glycerol-3-phosphoethanolamine

$$$$
