
 OpenBabel10282417072D

 46 49  0  0  1  0  0  0  0  0999 V2000
    1.6273   -1.6144    0.0000 C   0  0  0  0  0  0  0  0  0  0  0  0
    1.2148   -2.3288    0.0000 C   0  0  0  0  0  0  0  0  0  0  0  0
    1.6273   -3.0433    0.0000 C   0  0  2  0  0  0  0  0  0  0  0  0
    2.4478   -3.1295    0.0000 C   0  0  0  0  0  0  0  0  0  0  0  0
    2.6193   -3.9365    0.0000 N   0  0  0  0  0  0  0  0  0  0  0  0
    1.9049   -4.3490    0.0000 C   0  0  0  0  0  0  0  0  0  0  0  0
    1.2918   -3.7970    0.0000 C   0  0  2  0  0  0  0  0  0  0  0  0
    0.4848   -3.9685    0.0000 C   0  0  0  0  0  0  0  0  0  0  0  0
    0.1492   -4.7222    0.0000 C   0  0  0  0  0  0  0  0  0  0  0  0
   -0.6711   -4.6359    0.0000 N   0  0  0  0  0  0  0  0  0  0  0  0
   -0.8427   -3.8290    0.0000 C   0  0  0  0  0  0  0  0  0  0  0  0
   -1.5571   -3.4165    0.0000 C   0  0  0  0  0  0  0  0  0  0  0  0
   -1.5571   -2.5915    0.0000 N   0  0  0  0  0  0  0  0  0  0  0  0
   -0.8427   -2.1790    0.0000 C   0  0  0  0  0  0  0  0  0  0  0  0
   -0.1282   -2.5915    0.0000 C   0  0  0  0  0  0  0  0  0  0  0  0
    0.4848   -2.0394    0.0000 C   0  0  0  0  0  0  0  0  0  0  0  0
    0.1492   -1.2858    0.0000 C   0  0  0  0  0  0  0  0  0  0  0  0
   -0.6711   -1.3720    0.0000 N   0  0  0  0  0  0  0  0  0  0  0  0
   -0.1282   -3.4165    0.0000 N   0  0  0  0  0  0  0  0  0  0  0  0
    3.3730   -4.2721    0.0000 C   0  0  0  0  0  0  0  0  0  0  0  0
    3.4592   -5.0925    0.0000 O   0  0  0  0  0  0  0  0  0  0  0  0
    4.0404   -3.7871    0.0000 N   0  0  0  0  0  0  0  0  0  0  0  0
    4.7941   -4.1227    0.0000 C   0  0  0  0  0  0  0  0  0  0  0  0
    5.4616   -3.6378    0.0000 C   0  0  0  0  0  0  0  0  0  0  0  0
    6.1290   -3.1529    0.0000 F   0  0  0  0  0  0  0  0  0  0  0  0
    5.9465   -4.3052    0.0000 F   0  0  0  0  0  0  0  0  0  0  0  0
    4.9766   -2.9703    0.0000 F   0  0  0  0  0  0  0  0  0  0  0  0
    2.6973   -1.6144    0.0000 H   0  0  0  0  0  0  0  0  0  0  0  0
    1.0923   -0.6877    0.0000 H   0  0  0  0  0  0  0  0  0  0  0  0
    2.1623   -0.6878    0.0000 H   0  0  0  0  0  0  0  0  0  0  0  0
    0.1448   -2.3288    0.0000 H   0  0  0  0  0  0  0  0  0  0  0  0
    0.6798   -3.2554    0.0000 H   0  0  0  0  0  0  0  0  0  0  0  0
    2.2101   -2.1459    0.0000 H   0  0  0  0  0  0  0  0  0  0  0  0
    3.1638   -2.3343    0.0000 H   0  0  0  0  0  0  0  0  0  0  0  0
    3.4813   -3.4065    0.0000 H   0  0  0  0  0  0  0  0  0  0  0  0
    1.7931   -5.4131    0.0000 H   0  0  0  0  0  0  0  0  0  0  0  0
    0.9060   -4.7325    0.0000 H   0  0  0  0  0  0  0  0  0  0  0  0
    1.0149   -4.8305    0.0000 H   0  0  0  0  0  0  0  0  0  0  0  0
    0.6651   -5.6160    0.0000 H   0  0  0  0  0  0  0  0  0  0  0  0
   -2.4508   -3.9325    0.0000 H   0  0  0  0  0  0  0  0  0  0  0  0
    1.4943   -2.2539    0.0000 H   0  0  0  0  0  0  0  0  0  0  0  0
    0.6652   -0.3920    0.0000 H   0  0  0  0  0  0  0  0  0  0  0  0
   -1.3298   -0.6403    0.0000 H   0  0  0  0  0  0  0  0  0  0  0  0
    3.9375   -2.8080    0.0000 H   0  0  0  0  0  0  0  0  0  0  0  0
    4.9059   -5.1868    0.0000 H   0  0  0  0  0  0  0  0  0  0  0  0
    5.7716   -4.5580    0.0000 H   0  0  0  0  0  0  0  0  0  0  0  0
  1  2  1  0  0  0  0
  1 28  1  0  0  0  0
  1 29  1  0  0  0  0
  1 30  1  0  0  0  0
  2 31  1  0  0  0  0
  2 32  1  0  0  0  0
  3  2  1  0  0  0  0
  3  4  1  0  0  0  0
  3  7  1  0  0  0  0
  3 33  1  1  0  0  0
  4  5  1  0  0  0  0
  4 34  1  0  0  0  0
  4 35  1  0  0  0  0
  5  6  1  0  0  0  0
  5 20  1  0  0  0  0
  6 36  1  0  0  0  0
  6 37  1  0  0  0  0
  7  6  1  0  0  0  0
  7  8  1  0  0  0  0
  7 38  1  1  0  0  0
  8  9  2  0  0  0  0
  8 19  1  0  0  0  0
  9 10  1  0  0  0  0
  9 39  1  0  0  0  0
 10 11  2  0  0  0  0
 11 12  1  0  0  0  0
 11 19  1  0  0  0  0
 12 13  2  0  0  0  0
 12 40  1  0  0  0  0
 13 14  1  0  0  0  0
 14 15  2  0  0  0  0
 14 18  1  0  0  0  0
 15 16  1  0  0  0  0
 15 19  1  0  0  0  0
 16 17  2  0  0  0  0
 16 41  1  0  0  0  0
 17 18  1  0  0  0  0
 17 42  1  0  0  0  0
 18 43  1  0  0  0  0
 20 21  2  0  0  0  0
 20 22  1  0  0  0  0
 22 23  1  0  0  0  0
 22 44  1  0  0  0  0
 23 24  1  0  0  0  0
 23 45  1  0  0  0  0
 23 46  1  0  0  0  0
 24 25  1  0  0  0  0
 24 26  1  0  0  0  0
 24 27  1  0  0  0  0
M  END
>  <DRUGBANK_ID>
DB15091

>  <COMMON_NAME>
Upadacitinib

>  <CAS_NUMBER>
1310726-60-3

>  <UNII>
4RA0KN46E0

>  <SYNONYMS>
Upadacitinib

$$$$
