
 OpenBabel10282417072D

 55 58  0  0  0  0  0  0  0  0999 V2000
    4.3330   -1.6277    0.0000 O   0  5  0  0  0  0  0  0  0  0  0  0
   -0.6724   -0.6197    0.0000 O   0  0  0  0  0  0  0  0  0  0  0  0
   -0.9748    0.7768    0.0000 O   0  0  0  0  0  0  0  0  0  0  0  0
    3.5488   -1.3714    0.0000 N   0  3  3  0  0  0  0  0  0  0  0  0
    2.6316   -0.1030    0.0000 N   0  0  0  0  0  0  0  0  0  0  0  0
   -2.0331   -0.1833    0.0000 N   0  0  0  0  0  0  0  0  0  0  0  0
    2.2191   -1.3726    0.0000 C   0  0  3  0  0  0  0  0  0  0  0  0
    2.8866   -0.8876    0.0000 C   0  0  3  0  0  0  0  0  0  0  0  0
    2.4746   -2.1519    0.0000 C   0  0  0  0  0  0  0  0  0  0  0  0
    3.2947   -2.1512    0.0000 C   0  0  0  0  0  0  0  0  0  0  0  0
    1.5516   -0.8876    0.0000 C   0  0  0  0  0  0  0  0  0  0  0  0
    1.8066   -0.1030    0.0000 C   0  0  0  0  0  0  0  0  0  0  0  0
    1.5516   -1.8575    0.0000 C   0  0  0  0  0  0  0  0  0  0  0  0
    4.0349   -0.7048    0.0000 C   0  0  0  0  0  0  0  0  0  0  0  0
    3.1165    0.5644    0.0000 C   0  0  0  0  0  0  0  0  0  0  0  0
    0.7139   -1.0792    0.0000 C   0  0  0  0  0  0  0  0  0  0  0  0
    1.2415    0.5443    0.0000 C   0  0  0  0  0  0  0  0  0  0  0  0
    0.1339   -0.4450    0.0000 C   0  0  0  0  0  0  0  0  0  0  0  0
    0.3995    0.3722    0.0000 C   0  0  0  0  0  0  0  0  0  0  0  0
   -1.2267   -0.0087    0.0000 C   0  0  0  0  0  0  0  0  0  0  0  0
   -2.5875    0.4275    0.0000 C   0  0  0  0  0  0  0  0  0  0  0  0
   -2.3355    1.2132    0.0000 C   0  0  0  0  0  0  0  0  0  0  0  0
   -3.3938    0.2529    0.0000 C   0  0  0  0  0  0  0  0  0  0  0  0
   -1.5292    1.3878    0.0000 C   0  0  0  0  0  0  0  0  0  0  0  0
   -2.8900    1.8241    0.0000 C   0  0  0  0  0  0  0  0  0  0  0  0
   -3.9482    0.8639    0.0000 C   0  0  0  0  0  0  0  0  0  0  0  0
   -3.6963    1.6495    0.0000 C   0  0  0  0  0  0  0  0  0  0  0  0
   -1.2773    2.1735    0.0000 C   0  0  0  0  0  0  0  0  0  0  0  0
   -2.3337   -1.1208    0.0000 H   0  0  0  0  0  0  0  0  0  0  0  0
    3.7531   -0.2598    0.0000 H   0  0  0  0  0  0  0  0  0  0  0  0
    1.8472   -3.0187    0.0000 H   0  0  0  0  0  0  0  0  0  0  0  0
    2.9616   -3.1046    0.0000 H   0  0  0  0  0  0  0  0  0  0  0  0
    3.9236   -3.0168    0.0000 H   0  0  0  0  0  0  0  0  0  0  0  0
    2.8093   -3.1048    0.0000 H   0  0  0  0  0  0  0  0  0  0  0  0
    0.5741   -1.4222    0.0000 H   0  0  0  0  0  0  0  0  0  0  0  0
    1.6634   -2.9216    0.0000 H   0  0  0  0  0  0  0  0  0  0  0  0
    0.6859   -2.4864    0.0000 H   0  0  0  0  0  0  0  0  0  0  0  0
    5.0988   -0.8185    0.0000 H   0  0  0  0  0  0  0  0  0  0  0  0
    3.6014    0.2735    0.0000 H   0  0  0  0  0  0  0  0  0  0  0  0
    4.6653    0.1597    0.0000 H   0  0  0  0  0  0  0  0  0  0  0  0
    4.1806    0.4525    0.0000 H   0  0  0  0  0  0  0  0  0  0  0  0
    2.6813    1.5419    0.0000 H   0  0  0  0  0  0  0  0  0  0  0  0
    3.7454    1.4300    0.0000 H   0  0  0  0  0  0  0  0  0  0  0  0
    0.4064   -2.0643    0.0000 H   0  0  0  0  0  0  0  0  0  0  0  0
    1.5717    1.5220    0.0000 H   0  0  0  0  0  0  0  0  0  0  0  0
   -0.2880    1.1418    0.0000 H   0  0  0  0  0  0  0  0  0  0  0  0
   -3.7090   -0.7298    0.0000 H   0  0  0  0  0  0  0  0  0  0  0  0
   -0.8102    0.5954    0.0000 H   0  0  0  0  0  0  0  0  0  0  0  0
   -0.4835    1.6143    0.0000 H   0  0  0  0  0  0  0  0  0  0  0  0
   -2.5749    2.8068    0.0000 H   0  0  0  0  0  0  0  0  0  0  0  0
   -4.9568    0.6454    0.0000 H   0  0  0  0  0  0  0  0  0  0  0  0
   -4.3898    2.4138    0.0000 H   0  0  0  0  0  0  0  0  0  0  0  0
   -0.2316    2.4001    0.0000 H   0  0  0  0  0  0  0  0  0  0  0  0
   -1.9964    2.9659    0.0000 H   0  0  0  0  0  0  0  0  0  0  0  0
   -0.9506    3.1924    0.0000 H   0  0  0  0  0  0  0  0  0  0  0  0
  1  4  1  0  0  0  0
  2 18  1  0  0  0  0
  2 20  1  0  0  0  0
  3 20  2  0  0  0  0
  4  8  1  0  0  0  0
  4 10  1  0  0  0  0
  4 14  1  0  0  0  0
  5  8  1  0  0  0  0
  5 12  1  0  0  0  0
  5 15  1  0  0  0  0
  6 20  1  0  0  0  0
  6 21  1  0  0  0  0
  6 29  1  0  0  0  0
  7  8  1  0  0  0  0
  7  9  1  0  0  0  0
  7 11  1  0  0  0  0
  7 13  1  0  0  0  0
  8 30  1  0  0  0  0
  9 10  1  0  0  0  0
  9 31  1  0  0  0  0
  9 32  1  0  0  0  0
 10 33  1  0  0  0  0
 10 34  1  0  0  0  0
 11 12  2  0  0  0  0
 11 16  1  0  0  0  0
 12 17  1  0  0  0  0
 13 35  1  0  0  0  0
 13 36  1  0  0  0  0
 13 37  1  0  0  0  0
 14 38  1  0  0  0  0
 14 39  1  0  0  0  0
 14 40  1  0  0  0  0
 15 41  1  0  0  0  0
 15 42  1  0  0  0  0
 15 43  1  0  0  0  0
 16 18  2  0  0  0  0
 16 44  1  0  0  0  0
 17 19  2  0  0  0  0
 17 45  1  0  0  0  0
 18 19  1  0  0  0  0
 19 46  1  0  0  0  0
 21 22  1  0  0  0  0
 21 23  2  0  0  0  0
 22 24  1  0  0  0  0
 22 25  2  0  0  0  0
 23 26  1  0  0  0  0
 23 47  1  0  0  0  0
 24 28  1  0  0  0  0
 24 48  1  0  0  0  0
 24 49  1  0  0  0  0
 25 27  1  0  0  0  0
 25 50  1  0  0  0  0
 26 27  2  0  0  0  0
 26 51  1  0  0  0  0
 27 52  1  0  0  0  0
 28 53  1  0  0  0  0
 28 54  1  0  0  0  0
 28 55  1  0  0  0  0
M  CHG  2   1  -1   4   1
M  END
>  <DRUGBANK_ID>
DB07846

>  <COMMON_NAME>
(3,4,8b-Trimethyl-3-oxido-2,3a-dihydro-1H-pyrrolo[2,3-b]indol-3-ium-7-yl) N-(2-ethylphenyl)carbamate

$$$$
