
 OpenBabel10282417072D

 48 52  0  0  0  0  0  0  0  0999 V2000
   -1.0257   -0.6191    0.0000 C   0  0  0  0  0  0  0  0  0  0  0  0
   -0.3110   -0.2067    0.0000 N   0  0  0  0  0  0  0  0  0  0  0  0
    0.4010   -0.6187    0.0000 N   0  0  0  0  0  0  0  0  0  0  0  0
    0.4010   -1.4441    0.0000 C   0  0  0  0  0  0  0  0  0  0  0  0
   -0.3093   -1.8557    0.0000 N   0  0  0  0  0  0  0  0  0  0  0  0
   -1.0257   -1.4478    0.0000 C   0  0  0  0  0  0  0  0  0  0  0  0
    1.1784   -1.6988    0.0000 N   0  0  0  0  0  0  0  0  0  0  0  0
    1.6648   -1.0356    0.0000 C   0  0  0  0  0  0  0  0  0  0  0  0
    1.1881   -0.3708    0.0000 C   0  0  0  0  0  0  0  0  0  0  0  0
   -1.7401   -0.2065    0.0000 C   0  0  0  0  0  0  0  0  0  0  0  0
    1.6005    0.3437    0.0000 C   0  0  0  0  0  0  0  0  0  0  0  0
    2.4255    0.3437    0.0000 C   0  0  0  0  0  0  0  0  0  0  0  0
    2.8384    1.0581    0.0000 C   0  0  0  0  0  0  0  0  0  0  0  0
    3.6610    1.0573    0.0000 C   0  0  0  0  0  0  0  0  0  0  0  0
    4.0735    0.3427    0.0000 C   0  0  0  0  0  0  0  0  0  0  0  0
    3.6645   -0.3691    0.0000 C   0  0  0  0  0  0  0  0  0  0  0  0
    2.8399   -0.3739    0.0000 C   0  0  0  0  0  0  0  0  0  0  0  0
    4.0727    1.7695    0.0000 C   0  0  0  0  0  0  0  0  0  0  0  0
    4.8982    1.7698    0.0000 C   0  0  0  0  0  0  0  0  0  0  0  0
    5.3104    1.0596    0.0000 C   0  0  0  0  0  0  0  0  0  0  0  0
    4.9023    0.3429    0.0000 N   0  0  0  0  0  0  0  0  0  0  0  0
   -2.4548   -0.6189    0.0000 C   0  0  0  0  0  0  0  0  0  0  0  0
   -3.1668   -0.2069    0.0000 C   0  0  0  0  0  0  0  0  0  0  0  0
   -3.1668    0.6182    0.0000 C   0  0  0  0  0  0  0  0  0  0  0  0
   -2.4566    1.0300    0.0000 C   0  0  0  0  0  0  0  0  0  0  0  0
   -1.7401    0.6219    0.0000 C   0  0  0  0  0  0  0  0  0  0  0  0
   -3.8813    1.0307    0.0000 C   0  0  0  0  0  0  0  0  0  0  0  0
   -4.5959    0.6182    0.0000 N   0  0  0  0  0  0  0  0  0  0  0  0
   -5.3104    1.0307    0.0000 C   0  0  0  0  0  0  0  0  0  0  0  0
   -3.8813   -0.6195    0.0000 F   0  0  0  0  0  0  0  0  0  0  0  0
   -3.8813    1.8557    0.0000 O   0  0  0  0  0  0  0  0  0  0  0  0
   -1.9179   -1.9665    0.0000 H   0  0  0  0  0  0  0  0  0  0  0  0
    2.6968   -1.0411    0.0000 H   0  0  0  0  0  0  0  0  0  0  0  0
    1.0654    1.2703    0.0000 H   0  0  0  0  0  0  0  0  0  0  0  0
    2.1355    1.2704    0.0000 H   0  0  0  0  0  0  0  0  0  0  0  0
    2.3230    1.9522    0.0000 H   0  0  0  0  0  0  0  0  0  0  0  0
    4.1840   -1.2608    0.0000 H   0  0  0  0  0  0  0  0  0  0  0  0
    2.3265   -1.2692    0.0000 H   0  0  0  0  0  0  0  0  0  0  0  0
    3.5568    2.6633    0.0000 H   0  0  0  0  0  0  0  0  0  0  0  0
    5.4130    2.6642    0.0000 H   0  0  0  0  0  0  0  0  0  0  0  0
    6.3424    1.0639    0.0000 H   0  0  0  0  0  0  0  0  0  0  0  0
   -2.4554   -1.6509    0.0000 H   0  0  0  0  0  0  0  0  0  0  0  0
   -2.4606    2.0620    0.0000 H   0  0  0  0  0  0  0  0  0  0  0  0
   -0.8479    1.1405    0.0000 H   0  0  0  0  0  0  0  0  0  0  0  0
   -4.5959   -0.3663    0.0000 H   0  0  0  0  0  0  0  0  0  0  0  0
   -5.3104    2.1007    0.0000 H   0  0  0  0  0  0  0  0  0  0  0  0
   -6.2370    0.4957    0.0000 H   0  0  0  0  0  0  0  0  0  0  0  0
   -6.2371    1.5657    0.0000 H   0  0  0  0  0  0  0  0  0  0  0  0
  1  6  1  0  0  0  0
  1 10  1  0  0  0  0
  2  1  2  0  0  0  0
  3  2  1  0  0  0  0
  3  9  1  0  0  0  0
  4  3  1  0  0  0  0
  4  7  2  0  0  0  0
  5  4  1  0  0  0  0
  6  5  2  0  0  0  0
  6 32  1  0  0  0  0
  7  8  1  0  0  0  0
  8  9  2  0  0  0  0
  8 33  1  0  0  0  0
  9 11  1  0  0  0  0
 10 26  1  0  0  0  0
 11 12  1  0  0  0  0
 11 34  1  0  0  0  0
 11 35  1  0  0  0  0
 12 17  1  0  0  0  0
 13 12  2  0  0  0  0
 13 36  1  0  0  0  0
 14 13  1  0  0  0  0
 14 18  1  0  0  0  0
 15 14  2  0  0  0  0
 15 21  1  0  0  0  0
 16 15  1  0  0  0  0
 16 37  1  0  0  0  0
 17 16  2  0  0  0  0
 17 38  1  0  0  0  0
 18 39  1  0  0  0  0
 19 18  2  0  0  0  0
 19 40  1  0  0  0  0
 20 19  1  0  0  0  0
 20 41  1  0  0  0  0
 21 20  2  0  0  0  0
 22 10  2  0  0  0  0
 22 42  1  0  0  0  0
 23 22  1  0  0  0  0
 23 30  1  0  0  0  0
 24 23  2  0  0  0  0
 24 27  1  0  0  0  0
 25 24  1  0  0  0  0
 25 43  1  0  0  0  0
 26 25  2  0  0  0  0
 26 44  1  0  0  0  0
 27 28  1  0  0  0  0
 27 31  2  0  0  0  0
 28 29  1  0  0  0  0
 28 45  1  0  0  0  0
 29 46  1  0  0  0  0
 29 47  1  0  0  0  0
 29 48  1  0  0  0  0
M  END
>  <DRUGBANK_ID>
DB11791

>  <COMMON_NAME>
Capmatinib

>  <CAS_NUMBER>
1029712-80-8

>  <UNII>
TY34L4F9OZ

>  <SYNONYMS>
Capmatinib

$$$$
