
 OpenBabel10282417072D

 63 65  0  0  1  0  0  0  0  0999 V2000
    5.5541    3.5789    0.0000 O   0  0  0  0  0  0  0  0  0  0  0  0
    4.5080   -1.9751    0.0000 O   0  0  0  0  0  0  0  0  0  0  0  0
    2.3645   -4.0376    0.0000 O   0  0  0  0  0  0  0  0  0  0  0  0
    1.6500   -2.8001    0.0000 O   0  0  0  0  0  0  0  0  0  0  0  0
    3.0791    0.5000    0.0000 N   0  0  0  0  0  0  0  0  0  0  0  0
    3.0791   -1.9751    0.0000 N   0  0  0  0  0  0  0  0  0  0  0  0
    3.0791    2.1500    0.0000 C   0  0  1  0  0  0  0  0  0  0  0  0
    2.3645    1.7375    0.0000 C   0  0  2  0  0  0  0  0  0  0  0  0
    3.7935    1.7375    0.0000 C   0  0  0  0  0  0  0  0  0  0  0  0
    2.3645    0.9125    0.0000 C   0  0  0  0  0  0  0  0  0  0  0  0
    3.7935    0.9125    0.0000 C   0  0  0  0  0  0  0  0  0  0  0  0
    3.4916    2.8645    0.0000 C   0  0  0  0  0  0  0  0  0  0  0  0
    2.6665    2.8645    0.0000 C   0  0  0  0  0  0  0  0  0  0  0  0
    1.6500    2.1500    0.0000 C   0  0  0  0  0  0  0  0  0  0  0  0
    3.0791   -0.3251    0.0000 C   0  0  0  0  0  0  0  0  0  0  0  0
    3.7935   -0.7376    0.0000 C   0  0  2  0  0  0  0  0  0  0  0  0
    4.3166    2.8645    0.0000 C   0  0  0  0  0  0  0  0  0  0  0  0
    3.0791    3.5789    0.0000 C   0  0  0  0  0  0  0  0  0  0  0  0
    4.5080   -0.3251    0.0000 C   0  0  0  0  0  0  0  0  0  0  0  0
    3.7935   -1.5626    0.0000 C   0  0  0  0  0  0  0  0  0  0  0  0
    4.7291    3.5789    0.0000 C   0  0  0  0  0  0  0  0  0  0  0  0
    3.4916    4.2934    0.0000 C   0  0  0  0  0  0  0  0  0  0  0  0
    4.3166    4.2934    0.0000 C   0  0  0  0  0  0  0  0  0  0  0  0
    5.2224   -0.7376    0.0000 C   0  0  0  0  0  0  0  0  0  0  0  0
    5.9370   -0.3251    0.0000 C   0  0  0  0  0  0  0  0  0  0  0  0
    5.2224   -1.5626    0.0000 C   0  0  0  0  0  0  0  0  0  0  0  0
    3.0791   -2.8001    0.0000 C   0  0  0  0  0  0  0  0  0  0  0  0
    6.6515   -0.7376    0.0000 C   0  0  0  0  0  0  0  0  0  0  0  0
    5.9370   -1.9751    0.0000 C   0  0  0  0  0  0  0  0  0  0  0  0
    6.6515   -1.5626    0.0000 C   0  0  0  0  0  0  0  0  0  0  0  0
    2.3645   -3.2126    0.0000 C   0  0  0  0  0  0  0  0  0  0  0  0
    6.0226    2.7674    0.0000 H   0  0  0  0  0  0  0  0  0  0  0  0
    1.5530   -4.5061    0.0000 H   0  0  0  0  0  0  0  0  0  0  0  0
    2.2265   -1.4829    0.0000 H   0  0  0  0  0  0  0  0  0  0  0  0
    2.3645    2.8075    0.0000 H   0  0  0  0  0  0  0  0  0  0  0  0
    4.7202    2.2725    0.0000 H   0  0  0  0  0  0  0  0  0  0  0  0
    4.7201    1.2025    0.0000 H   0  0  0  0  0  0  0  0  0  0  0  0
    1.4379    0.3775    0.0000 H   0  0  0  0  0  0  0  0  0  0  0  0
    1.4378    1.4475    0.0000 H   0  0  0  0  0  0  0  0  0  0  0  0
    4.7202    0.3775    0.0000 H   0  0  0  0  0  0  0  0  0  0  0  0
    4.7201    1.4475    0.0000 H   0  0  0  0  0  0  0  0  0  0  0  0
    3.2014    3.7912    0.0000 H   0  0  0  0  0  0  0  0  0  0  0  0
    1.5965    2.8644    0.0000 H   0  0  0  0  0  0  0  0  0  0  0  0
    2.1314    3.7911    0.0000 H   0  0  0  0  0  0  0  0  0  0  0  0
    1.6500    3.2200    0.0000 H   0  0  0  0  0  0  0  0  0  0  0  0
    0.7234    1.6150    0.0000 H   0  0  0  0  0  0  0  0  0  0  0  0
    0.7233    2.6850    0.0000 H   0  0  0  0  0  0  0  0  0  0  0  0
    2.1524   -0.8601    0.0000 H   0  0  0  0  0  0  0  0  0  0  0  0
    3.0791   -1.3951    0.0000 H   0  0  0  0  0  0  0  0  0  0  0  0
    2.8668   -1.2726    0.0000 H   0  0  0  0  0  0  0  0  0  0  0  0
    4.8326    1.9708    0.0000 H   0  0  0  0  0  0  0  0  0  0  0  0
    2.0471    3.5789    0.0000 H   0  0  0  0  0  0  0  0  0  0  0  0
    4.5080    0.7449    0.0000 H   0  0  0  0  0  0  0  0  0  0  0  0
    5.4347    0.2099    0.0000 H   0  0  0  0  0  0  0  0  0  0  0  0
    2.9756    5.1871    0.0000 H   0  0  0  0  0  0  0  0  0  0  0  0
    4.8326    5.1871    0.0000 H   0  0  0  0  0  0  0  0  0  0  0  0
    5.9370    0.7069    0.0000 H   0  0  0  0  0  0  0  0  0  0  0  0
    4.3287   -2.0786    0.0000 H   0  0  0  0  0  0  0  0  0  0  0  0
    4.0057   -3.3351    0.0000 H   0  0  0  0  0  0  0  0  0  0  0  0
    3.0790   -3.8701    0.0000 H   0  0  0  0  0  0  0  0  0  0  0  0
    7.5452   -0.2216    0.0000 H   0  0  0  0  0  0  0  0  0  0  0  0
    5.9370   -3.0071    0.0000 H   0  0  0  0  0  0  0  0  0  0  0  0
    7.5452   -2.0786    0.0000 H   0  0  0  0  0  0  0  0  0  0  0  0
  1 21  1  0  0  0  0
  1 32  1  0  0  0  0
  2 20  2  0  0  0  0
  3 31  1  0  0  0  0
  3 33  1  0  0  0  0
  4 31  2  0  0  0  0
  5 10  1  0  0  0  0
  5 11  1  0  0  0  0
  5 15  1  0  0  0  0
  6 20  1  0  0  0  0
  6 27  1  0  0  0  0
  6 34  1  0  0  0  0
  7  8  1  0  0  0  0
  7  9  1  0  0  0  0
  7 12  1  0  0  0  0
  7 13  1  1  0  0  0
  8 10  1  0  0  0  0
  8 14  1  0  0  0  0
  8 35  1  1  0  0  0
  9 11  1  0  0  0  0
  9 36  1  0  0  0  0
  9 37  1  0  0  0  0
 10 38  1  0  0  0  0
 10 39  1  0  0  0  0
 11 40  1  0  0  0  0
 11 41  1  0  0  0  0
 12 17  2  0  0  0  0
 12 18  1  0  0  0  0
 13 42  1  0  0  0  0
 13 43  1  0  0  0  0
 13 44  1  0  0  0  0
 14 45  1  0  0  0  0
 14 46  1  0  0  0  0
 14 47  1  0  0  0  0
 15 16  1  0  0  0  0
 15 48  1  0  0  0  0
 15 49  1  0  0  0  0
 16 19  1  0  0  0  0
 16 20  1  0  0  0  0
 16 50  1  1  0  0  0
 17 21  1  0  0  0  0
 17 51  1  0  0  0  0
 18 22  2  0  0  0  0
 18 52  1  0  0  0  0
 19 24  1  0  0  0  0
 19 53  1  0  0  0  0
 19 54  1  0  0  0  0
 21 23  2  0  0  0  0
 22 23  1  0  0  0  0
 22 55  1  0  0  0  0
 23 56  1  0  0  0  0
 24 25  2  0  0  0  0
 24 26  1  0  0  0  0
 25 28  1  0  0  0  0
 25 57  1  0  0  0  0
 26 29  2  0  0  0  0
 26 58  1  0  0  0  0
 27 31  1  0  0  0  0
 27 59  1  0  0  0  0
 27 60  1  0  0  0  0
 28 30  2  0  0  0  0
 28 61  1  0  0  0  0
 29 30  1  0  0  0  0
 29 62  1  0  0  0  0
 30 63  1  0  0  0  0
M  END
>  <DRUGBANK_ID>
DB06274

>  <COMMON_NAME>
Alvimopan

>  <CAS_NUMBER>
156053-89-3

>  <UNII>
Q153V49P3Z

>  <SYNONYMS>
Alvimopan; Alvimopan anhydrous; Anhydrous alvimopan

$$$$
