
 OpenBabel10282417072D

 14  9  0  0  0  0  0  0  0  0999 V2000
   -0.5500   -1.4290    0.0000 La  0  1  0  0  0  0  0  0  0  0  0  0
   -0.5500    1.4290    0.0000 La  0  1  0  0  0  0  0  0  0  0  0  0
   -0.1375   -0.7145    0.0000 O   0  5  0  0  0  0  0  0  0  0  0  0
   -0.1375    0.7145    0.0000 O   0  5  0  0  0  0  0  0  0  0  0  0
    3.3394   -0.7145    0.0000 O   0  5  0  0  0  0  0  0  0  0  0  0
    3.3394    0.7145    0.0000 O   0  5  0  0  0  0  0  0  0  0  0  0
   -0.4125   -4.5081    0.0000 O   0  5  0  0  0  0  0  0  0  0  0  0
   -0.4125   -3.0791    0.0000 O   0  5  0  0  0  0  0  0  0  0  0  0
    1.1001    0.0000    0.0000 O   0  0  0  0  0  0  0  0  0  0  0  0
    4.5770    0.0000    0.0000 O   0  0  0  0  0  0  0  0  0  0  0  0
    0.8251   -3.7937    0.0000 O   0  0  0  0  0  0  0  0  0  0  0  0
    0.2750    0.0000    0.0000 C   0  0  0  0  0  0  0  0  0  0  0  0
    3.7520    0.0000    0.0000 C   0  0  0  0  0  0  0  0  0  0  0  0
    0.0000   -3.7937    0.0000 C   0  0  0  0  0  0  0  0  0  0  0  0
  3 12  1  0  0  0  0
  4 12  1  0  0  0  0
  5 13  1  0  0  0  0
  6 13  1  0  0  0  0
  7 14  1  0  0  0  0
  8 14  1  0  0  0  0
  9 12  2  0  0  0  0
 10 13  2  0  0  0  0
 11 14  2  0  0  0  0
M  CHG  8   1   3   2   3   3  -1   4  -1   5  -1   6  -1   7  -1   8  -1
M  END
>  <DRUGBANK_ID>
DB06792

>  <COMMON_NAME>
Lanthanum carbonate

>  <CAS_NUMBER>
587-26-8

>  <UNII>
0M78EU4V9H

>  <SYNONYMS>
Lanthanum (III) carbonate; Lanthanum carbonate anhydrous; Lanthanum sesquicarbonate; Lanthanum(3+) carbonate

$$$$
