
 OpenBabel10282417072D

 57 59  0  0  0  0  0  0  0  0999 V2000
   -0.1372    0.6317    0.0000 P   0  0  3  0  0  0  0  0  0  0  0  0
   -0.8517    1.8691    0.0000 P   0  0  3  0  0  0  0  0  0  0  0  0
    1.2446   -1.9157    0.0000 O   0  0  0  0  0  0  0  0  0  0  0  0
   -0.8748   -1.6608    0.0000 O   0  0  0  0  0  0  0  0  0  0  0  0
   -0.3201   -3.3678    0.0000 O   0  0  0  0  0  0  0  0  0  0  0  0
   -0.8517    3.5191    0.0000 O   0  0  0  0  0  0  0  0  0  0  0  0
   -0.1372   -0.1932    0.0000 O   0  0  0  0  0  0  0  0  0  0  0  0
   -1.5661    2.2816    0.0000 O   0  0  0  0  0  0  0  0  0  0  0  0
   -2.9951    4.7566    0.0000 O   0  0  0  0  0  0  0  0  0  0  0  0
   -2.9951    3.1066    0.0000 O   0  0  0  0  0  0  0  0  0  0  0  0
   -1.5661    5.5816    0.0000 O   0  0  0  0  0  0  0  0  0  0  0  0
   -0.1372    1.4566    0.0000 O   0  0  0  0  0  0  0  0  0  0  0  0
    0.3186   -4.2077    0.0000 O   0  0  0  0  0  0  0  0  0  0  0  0
    0.6877    0.6317    0.0000 O   0  0  0  0  0  0  0  0  0  0  0  0
   -1.2642    1.1546    0.0000 O   0  0  0  0  0  0  0  0  0  0  0  0
   -0.9622    0.6317    0.0000 O   0  0  0  0  0  0  0  0  0  0  0  0
   -0.4392    2.5836    0.0000 O   0  0  0  0  0  0  0  0  0  0  0  0
    1.4746   -3.3678    0.0000 N   0  0  0  0  0  0  0  0  0  0  0  0
    1.6240   -4.7889    0.0000 N   0  0  0  0  0  0  0  0  0  0  0  0
    2.9294   -5.3701    0.0000 N   0  0  0  0  0  0  0  0  0  0  0  0
   -0.0902   -1.9157    0.0000 C   0  0  1  0  0  0  0  0  0  0  0  0
    0.1647   -2.7003    0.0000 C   0  0  2  0  0  0  0  0  0  0  0  0
    0.5772   -1.4308    0.0000 C   0  0  1  0  0  0  0  0  0  0  0  0
    0.9897   -2.7003    0.0000 C   0  0  1  0  0  0  0  0  0  0  0  0
    0.5772   -0.6057    0.0000 C   0  0  0  0  0  0  0  0  0  0  0  0
   -2.2806    4.3441    0.0000 C   0  0  2  0  0  0  0  0  0  0  0  0
   -2.2806    3.5191    0.0000 C   0  0  2  0  0  0  0  0  0  0  0  0
   -1.5661    4.7566    0.0000 C   0  0  1  0  0  0  0  0  0  0  0  0
   -1.5661    3.1066    0.0000 C   0  0  2  0  0  0  0  0  0  0  0  0
   -0.8517    4.3441    0.0000 C   0  0  0  0  0  0  0  0  0  0  0  0
    2.2951   -3.2816    0.0000 C   0  0  0  0  0  0  0  0  0  0  0  0
    1.1390   -4.1215    0.0000 C   0  0  0  0  0  0  0  0  0  0  0  0
    2.7800   -3.9490    0.0000 C   0  0  0  0  0  0  0  0  0  0  0  0
    2.4444   -4.7026    0.0000 C   0  0  0  0  0  0  0  0  0  0  0  0
   -1.0765   -0.7120    0.0000 H   0  0  0  0  0  0  0  0  0  0  0  0
   -1.2848   -3.2666    0.0000 H   0  0  0  0  0  0  0  0  0  0  0  0
   -2.9951    5.7266    0.0000 H   0  0  0  0  0  0  0  0  0  0  0  0
   -3.8351    3.5916    0.0000 H   0  0  0  0  0  0  0  0  0  0  0  0
   -0.7261    6.0666    0.0000 H   0  0  0  0  0  0  0  0  0  0  0  0
    1.1727   -0.2083    0.0000 H   0  0  0  0  0  0  0  0  0  0  0  0
   -2.2342    1.1546    0.0000 H   0  0  0  0  0  0  0  0  0  0  0  0
    2.5290   -6.2695    0.0000 H   0  0  0  0  0  0  0  0  0  0  0  0
    3.9085   -5.2672    0.0000 H   0  0  0  0  0  0  0  0  0  0  0  0
   -0.8468   -2.6723    0.0000 H   0  0  0  0  0  0  0  0  0  0  0  0
   -0.8921   -2.5330    0.0000 H   0  0  0  0  0  0  0  0  0  0  0  0
    1.5306   -0.9450    0.0000 H   0  0  0  0  0  0  0  0  0  0  0  0
    2.0465   -2.5329    0.0000 H   0  0  0  0  0  0  0  0  0  0  0  0
    1.5039   -0.0707    0.0000 H   0  0  0  0  0  0  0  0  0  0  0  0
    1.5038   -1.1407    0.0000 H   0  0  0  0  0  0  0  0  0  0  0  0
   -3.2072    3.8091    0.0000 H   0  0  0  0  0  0  0  0  0  0  0  0
   -3.2072    4.0541    0.0000 H   0  0  0  0  0  0  0  0  0  0  0  0
   -2.4927    5.2916    0.0000 H   0  0  0  0  0  0  0  0  0  0  0  0
   -0.6394    2.5716    0.0000 H   0  0  0  0  0  0  0  0  0  0  0  0
    0.0750    4.8791    0.0000 H   0  0  0  0  0  0  0  0  0  0  0  0
   -0.8517    5.4141    0.0000 H   0  0  0  0  0  0  0  0  0  0  0  0
    2.7149   -2.3388    0.0000 H   0  0  0  0  0  0  0  0  0  0  0  0
    3.8064   -3.8412    0.0000 H   0  0  0  0  0  0  0  0  0  0  0  0
  1  7  1  0  0  0  0
  1 12  1  0  0  0  0
  1 14  1  0  0  0  0
  1 16  2  0  0  0  0
  2  8  1  0  0  0  0
  2 12  1  0  0  0  0
  2 15  1  0  0  0  0
  2 17  2  0  0  0  0
  3 23  1  0  0  0  0
  3 24  1  0  0  0  0
  4 35  1  0  0  0  0
  5 36  1  0  0  0  0
  6 29  1  0  0  0  0
  6 30  1  0  0  0  0
  7 25  1  0  0  0  0
  9 37  1  0  0  0  0
 10 38  1  0  0  0  0
 11 39  1  0  0  0  0
 13 32  2  0  0  0  0
 14 40  1  0  0  0  0
 15 41  1  0  0  0  0
 18 31  1  0  0  0  0
 18 32  1  0  0  0  0
 19 32  1  0  0  0  0
 19 34  2  0  0  0  0
 20 34  1  0  0  0  0
 20 42  1  0  0  0  0
 20 43  1  0  0  0  0
 21  4  1  0  0  0  0
 21 22  1  0  0  0  0
 21 23  1  0  0  0  0
 21 44  1  1  0  0  0
 22  5  1  0  0  0  0
 22 24  1  0  0  0  0
 22 45  1  1  0  0  0
 23 25  1  0  0  0  0
 23 46  1  6  0  0  0
 24 18  1  0  0  0  0
 24 47  1  6  0  0  0
 25 48  1  0  0  0  0
 25 49  1  0  0  0  0
 26  9  1  0  0  0  0
 26 27  1  0  0  0  0
 26 28  1  0  0  0  0
 26 50  1  6  0  0  0
 27 10  1  0  0  0  0
 27 29  1  0  0  0  0
 27 51  1  1  0  0  0
 28 11  1  0  0  0  0
 28 30  1  0  0  0  0
 28 52  1  1  0  0  0
 29  8  1  0  0  0  0
 29 53  1  1  0  0  0
 30 54  1  0  0  0  0
 30 55  1  0  0  0  0
 31 33  2  0  0  0  0
 31 56  1  0  0  0  0
 33 34  1  0  0  0  0
 33 57  1  0  0  0  0
M  END
>  <DRUGBANK_ID>
DB03069

>  <SECONDARY_ACCESSION_NUMBERS>
EXPT01072

>  <COMMON_NAME>
Cytidine-5'-diphospho-beta-D-xylose

$$$$
