
 OpenBabel10282417072D

 23 24  0  0  0  0  0  0  0  0999 V2000
    4.2868    5.5286    0.0000 C   0  0  0  0  0  0  0  0  0  0  0  0
    3.5724    5.9411    0.0000 C   0  0  0  0  0  0  0  0  0  0  0  0
    4.2868    4.7036    0.0000 C   0  0  0  0  0  0  0  0  0  0  0  0
    1.7309    2.1965    0.0000 C   0  0  0  0  0  0  0  0  0  0  0  0
    2.5559    2.1965    0.0000 C   0  0  0  0  0  0  0  0  0  0  0  0
    2.8579    5.5286    0.0000 C   0  0  0  0  0  0  0  0  0  0  0  0
    3.5724    4.2911    0.0000 C   0  0  0  0  0  0  0  0  0  0  0  0
    2.8579    4.7036    0.0000 C   0  0  0  0  0  0  0  0  0  0  0  0
    2.1434    3.4661    0.0000 C   0  0  0  0  0  0  0  0  0  0  0  0
    2.1434    5.9411    0.0000 Br  0  0  0  0  0  0  0  0  0  0  0  0
    3.5724    3.4661    0.0000 F   0  0  0  0  0  0  0  0  0  0  0  0
    1.4760    2.9812    0.0000 N   0  0  0  0  0  0  0  0  0  0  0  0
    2.8109    2.9812    0.0000 N   0  0  0  0  0  0  0  0  0  0  0  0
    2.1434    4.2911    0.0000 N   0  0  0  0  0  0  0  0  0  0  0  0
    5.1805    6.0446    0.0000 H   0  0  0  0  0  0  0  0  0  0  0  0
    3.5724    6.9731    0.0000 H   0  0  0  0  0  0  0  0  0  0  0  0
    5.1805    4.1876    0.0000 H   0  0  0  0  0  0  0  0  0  0  0  0
    1.1019    1.3309    0.0000 H   0  0  0  0  0  0  0  0  0  0  0  0
    0.6741    2.3639    0.0000 H   0  0  0  0  0  0  0  0  0  0  0  0
    3.1848    1.3308    0.0000 H   0  0  0  0  0  0  0  0  0  0  0  0
    3.6127    2.3639    0.0000 H   0  0  0  0  0  0  0  0  0  0  0  0
    3.7472    3.2854    0.0000 H   0  0  0  0  0  0  0  0  0  0  0  0
    1.2908    4.7834    0.0000 H   0  0  0  0  0  0  0  0  0  0  0  0
  1 15  1  0  0  0  0
  2  1  2  0  0  0  0
  2 16  1  0  0  0  0
  3  1  1  0  0  0  0
  3 17  1  0  0  0  0
  4 18  1  0  0  0  0
  4 19  1  0  0  0  0
  5  4  1  0  0  0  0
  5 20  1  0  0  0  0
  5 21  1  0  0  0  0
  6  2  1  0  0  0  0
  7  3  2  0  0  0  0
  8  6  2  0  0  0  0
  8  7  1  0  0  0  0
 10  6  1  0  0  0  0
 11  7  1  0  0  0  0
 12  4  1  0  0  0  0
 12  9  2  0  0  0  0
 13  5  1  0  0  0  0
 13  9  1  0  0  0  0
 13 22  1  0  0  0  0
 14  8  1  0  0  0  0
 14  9  1  0  0  0  0
 14 23  1  0  0  0  0
M  END
>  <DRUGBANK_ID>
DB11543

>  <COMMON_NAME>
Romifidine

>  <CAS_NUMBER>
65896-16-4

>  <UNII>
876351L05K

>  <SYNONYMS>
Romifidine

$$$$
