132
 OpenBabel10282417072D

 50 49  0  0  0  0  0  0  0  0999 V2000
    2.3645    3.2217    0.0000 O   0  0  0  0  0  0  0  0  0  0  0  0
    1.6500    1.9842    0.0000 O   0  0  0  0  0  0  0  0  0  0  0  0
    3.7935   -0.0784    0.0000 C   0  0  0  0  0  0  0  0  0  0  0  0
    4.5080   -0.4909    0.0000 C   0  0  0  0  0  0  0  0  0  0  0  0
    3.7935    0.7466    0.0000 C   0  0  0  0  0  0  0  0  0  0  0  0
    4.5080   -1.3159    0.0000 C   0  0  0  0  0  0  0  0  0  0  0  0
    3.0791    1.1592    0.0000 C   0  0  0  0  0  0  0  0  0  0  0  0
    5.2224   -1.7284    0.0000 C   0  0  0  0  0  0  0  0  0  0  0  0
    3.0791    1.9842    0.0000 C   0  0  0  0  0  0  0  0  0  0  0  0
    5.2224   -2.5534    0.0000 C   0  0  0  0  0  0  0  0  0  0  0  0
    2.3645    2.3967    0.0000 C   0  0  0  0  0  0  0  0  0  0  0  0
    5.9370   -2.9659    0.0000 C   0  0  0  0  0  0  0  0  0  0  0  0
    6.6515   -2.5534    0.0000 C   0  0  0  0  0  0  0  0  0  0  0  0
    7.3659   -2.9659    0.0000 C   0  0  0  0  0  0  0  0  0  0  0  0
    8.0804   -2.5534    0.0000 C   0  0  0  0  0  0  0  0  0  0  0  0
    8.0804   -1.7284    0.0000 C   0  0  0  0  0  0  0  0  0  0  0  0
    8.7949   -1.3159    0.0000 C   0  0  0  0  0  0  0  0  0  0  0  0
    8.7949   -0.4909    0.0000 C   0  0  0  0  0  0  0  0  0  0  0  0
    8.0804   -0.0784    0.0000 C   0  0  0  0  0  0  0  0  0  0  0  0
    8.0804    0.7466    0.0000 C   0  0  0  0  0  0  0  0  0  0  0  0
    3.1760    3.6902    0.0000 H   0  0  0  0  0  0  0  0  0  0  0  0
    2.8669   -0.6134    0.0000 H   0  0  0  0  0  0  0  0  0  0  0  0
    2.8669    0.4566    0.0000 H   0  0  0  0  0  0  0  0  0  0  0  0
    5.4346    0.0441    0.0000 H   0  0  0  0  0  0  0  0  0  0  0  0
    5.4346   -1.0259    0.0000 H   0  0  0  0  0  0  0  0  0  0  0  0
    4.7202    1.2815    0.0000 H   0  0  0  0  0  0  0  0  0  0  0  0
    3.7936    1.8166    0.0000 H   0  0  0  0  0  0  0  0  0  0  0  0
    3.5813   -1.8509    0.0000 H   0  0  0  0  0  0  0  0  0  0  0  0
    4.5080   -2.3859    0.0000 H   0  0  0  0  0  0  0  0  0  0  0  0
    2.1524    0.6243    0.0000 H   0  0  0  0  0  0  0  0  0  0  0  0
    2.1525    1.6942    0.0000 H   0  0  0  0  0  0  0  0  0  0  0  0
    6.1491   -1.1934    0.0000 H   0  0  0  0  0  0  0  0  0  0  0  0
    6.1490   -2.2634    0.0000 H   0  0  0  0  0  0  0  0  0  0  0  0
    4.0057    2.5192    0.0000 H   0  0  0  0  0  0  0  0  0  0  0  0
    3.0790    3.0542    0.0000 H   0  0  0  0  0  0  0  0  0  0  0  0
    4.3287   -3.0694    0.0000 H   0  0  0  0  0  0  0  0  0  0  0  0
    5.9370   -3.9979    0.0000 H   0  0  0  0  0  0  0  0  0  0  0  0
    6.6515   -1.4834    0.0000 H   0  0  0  0  0  0  0  0  0  0  0  0
    7.5782   -2.0184    0.0000 H   0  0  0  0  0  0  0  0  0  0  0  0
    7.3659   -3.9979    0.0000 H   0  0  0  0  0  0  0  0  0  0  0  0
    8.9741   -3.0694    0.0000 H   0  0  0  0  0  0  0  0  0  0  0  0
    7.1538   -1.1934    0.0000 H   0  0  0  0  0  0  0  0  0  0  0  0
    8.0804   -0.6584    0.0000 H   0  0  0  0  0  0  0  0  0  0  0  0
    9.6886   -1.8319    0.0000 H   0  0  0  0  0  0  0  0  0  0  0  0
    9.6886    0.0251    0.0000 H   0  0  0  0  0  0  0  0  0  0  0  0
    7.1538   -0.6134    0.0000 H   0  0  0  0  0  0  0  0  0  0  0  0
    7.1538    0.4566    0.0000 H   0  0  0  0  0  0  0  0  0  0  0  0
    9.0070    1.2816    0.0000 H   0  0  0  0  0  0  0  0  0  0  0  0
    7.1538    1.2816    0.0000 H   0  0  0  0  0  0  0  0  0  0  0  0
    8.0804    1.8166    0.0000 H   0  0  0  0  0  0  0  0  0  0  0  0
  1 11  1  0  0  0  0
  1 21  1  0  0  0  0
  2 11  2  0  0  0  0
  3  4  1  0  0  0  0
  3  5  1  0  0  0  0
  3 22  1  0  0  0  0
  3 23  1  0  0  0  0
  4  6  1  0  0  0  0
  4 24  1  0  0  0  0
  4 25  1  0  0  0  0
  5  7  1  0  0  0  0
  5 26  1  0  0  0  0
  5 27  1  0  0  0  0
  6  8  1  0  0  0  0
  6 28  1  0  0  0  0
  6 29  1  0  0  0  0
  7  9  1  0  0  0  0
  7 30  1  0  0  0  0
  7 31  1  0  0  0  0
  8 10  1  0  0  0  0
  8 32  1  0  0  0  0
  8 33  1  0  0  0  0
  9 11  1  0  0  0  0
  9 34  1  0  0  0  0
  9 35  1  0  0  0  0
 10 12  2  0  0  0  0
 10 36  1  0  0  0  0
 12 13  1  0  0  0  0
 12 37  1  0  0  0  0
 13 14  1  0  0  0  0
 13 38  1  0  0  0  0
 13 39  1  0  0  0  0
 14 15  2  0  0  0  0
 14 40  1  0  0  0  0
 15 16  1  0  0  0  0
 15 41  1  0  0  0  0
 16 17  1  0  0  0  0
 16 42  1  0  0  0  0
 16 43  1  0  0  0  0
 17 18  2  0  0  0  0
 17 44  1  0  0  0  0
 18 19  1  0  0  0  0
 18 45  1  0  0  0  0
 19 20  1  0  0  0  0
 19 46  1  0  0  0  0
 19 47  1  0  0  0  0
 20 48  1  0  0  0  0
 20 49  1  0  0  0  0
 20 50  1  0  0  0  0
M  END
>  <DRUGBANK_ID>
DB00132

>  <SECONDARY_ACCESSION_NUMBERS>
NUTR00034

>  <COMMON_NAME>
alpha-Linolenic acid

>  <CAS_NUMBER>
463-40-1

>  <UNII>
0RBV727H71

>  <SYNONYMS>
(9,12,15)-linolenic acid; (9Z,12Z,15Z)-Octadecatrienoic acid; (Z,Z,Z)-9,12,15-octadecatrienoic acid; 9-cis,12-cis,15-cis-octadecatrienoic acid; 9,12,15-Octadecatrienoic acid; ALA; all-cis-9,12,15-Octadecatrienoic acid; alpha-Linolenic acid; cis-delta(9,12,15)-Octadecatrienoic acid; cis,cis,cis-9,12,15-Octadecatrienoic acid; Linolenic acid; Î±-linolenic acid

$$$$
