9IP
 OpenBabel10282417072D

 41 43  0  0  0  0  0  0  0  0999 V2000
    4.1914    3.2790    0.0000 C   0  0  0  0  0  0  0  0  0  0  0  0
    3.4769    2.8665    0.0000 O   0  0  0  0  0  0  0  0  0  0  0  0
    3.4769    2.0415    0.0000 C   0  0  0  0  0  0  0  0  0  0  0  0
    4.1914    1.6290    0.0000 C   0  0  0  0  0  0  0  0  0  0  0  0
    4.1914    0.8040    0.0000 N   0  0  0  0  0  0  0  0  0  0  0  0
    3.4769    0.3915    0.0000 C   0  0  0  0  0  0  0  0  0  0  0  0
    2.7625    0.8040    0.0000 C   0  0  0  0  0  0  0  0  0  0  0  0
    2.7625    1.6290    0.0000 C   0  0  0  0  0  0  0  0  0  0  0  0
    2.0480    0.3915    0.0000 C   0  0  0  0  0  0  0  0  0  0  0  0
    1.3335    0.8040    0.0000 C   0  0  0  0  0  0  0  0  0  0  0  0
    0.6191    0.3915    0.0000 C   0  0  0  0  0  0  0  0  0  0  0  0
    0.6191   -0.4335    0.0000 C   0  0  0  0  0  0  0  0  0  0  0  0
    1.3335   -0.8460    0.0000 C   0  0  0  0  0  0  0  0  0  0  0  0
    1.3335   -1.6710    0.0000 C   0  0  0  0  0  0  0  0  0  0  0  0
    0.6191   -2.0835    0.0000 N   0  0  0  0  0  0  0  0  0  0  0  0
    0.6191   -2.9085    0.0000 C   0  0  0  0  0  0  0  0  0  0  0  0
   -0.0954   -3.3210    0.0000 C   0  0  0  0  0  0  0  0  0  0  0  0
   -0.0954   -4.1460    0.0000 C   0  0  0  0  0  0  0  0  0  0  0  0
    0.6191   -4.5585    0.0000 C   0  0  0  0  0  0  0  0  0  0  0  0
    1.3335   -4.1460    0.0000 N   0  0  0  0  0  0  0  0  0  0  0  0
    1.3335   -3.3210    0.0000 C   0  0  0  0  0  0  0  0  0  0  0  0
    2.0480   -2.9085    0.0000 N   0  0  0  0  0  0  0  0  0  0  0  0
    2.0480   -0.4335    0.0000 C   0  0  0  0  0  0  0  0  0  0  0  0
    5.1180    2.7440    0.0000 H   0  0  0  0  0  0  0  0  0  0  0  0
    4.1914    4.3490    0.0000 H   0  0  0  0  0  0  0  0  0  0  0  0
    5.1181    3.8140    0.0000 H   0  0  0  0  0  0  0  0  0  0  0  0
    5.0851    2.1450    0.0000 H   0  0  0  0  0  0  0  0  0  0  0  0
    3.4769   -0.6405    0.0000 H   0  0  0  0  0  0  0  0  0  0  0  0
    1.8688    2.1450    0.0000 H   0  0  0  0  0  0  0  0  0  0  0  0
    1.3335    1.8360    0.0000 H   0  0  0  0  0  0  0  0  0  0  0  0
   -0.2746    0.9075    0.0000 H   0  0  0  0  0  0  0  0  0  0  0  0
   -0.2746   -0.9495    0.0000 H   0  0  0  0  0  0  0  0  0  0  0  0
    2.2602   -2.2060    0.0000 H   0  0  0  0  0  0  0  0  0  0  0  0
    1.3335   -2.7410    0.0000 H   0  0  0  0  0  0  0  0  0  0  0  0
   -0.2335   -1.5913    0.0000 H   0  0  0  0  0  0  0  0  0  0  0  0
   -0.9891   -2.8050    0.0000 H   0  0  0  0  0  0  0  0  0  0  0  0
   -0.9891   -4.6620    0.0000 H   0  0  0  0  0  0  0  0  0  0  0  0
    0.6191   -5.5905    0.0000 H   0  0  0  0  0  0  0  0  0  0  0  0
    2.9006   -3.4008    0.0000 H   0  0  0  0  0  0  0  0  0  0  0  0
    2.0480   -1.9240    0.0000 H   0  0  0  0  0  0  0  0  0  0  0  0
    2.9417   -0.9495    0.0000 H   0  0  0  0  0  0  0  0  0  0  0  0
  1  2  1  0  0  0  0
  1 24  1  0  0  0  0
  1 25  1  0  0  0  0
  1 26  1  0  0  0  0
  2  3  1  0  0  0  0
  3  4  2  0  0  0  0
  3  8  1  0  0  0  0
  4  5  1  0  0  0  0
  4 27  1  0  0  0  0
  5  6  2  0  0  0  0
  6  7  1  0  0  0  0
  6 28  1  0  0  0  0
  7  8  2  0  0  0  0
  7  9  1  0  0  0  0
  8 29  1  0  0  0  0
  9 23  2  0  0  0  0
  9 10  1  0  0  0  0
 10 11  2  0  0  0  0
 10 30  1  0  0  0  0
 11 12  1  0  0  0  0
 11 31  1  0  0  0  0
 12 13  2  0  0  0  0
 12 32  1  0  0  0  0
 13 23  1  0  0  0  0
 13 14  1  0  0  0  0
 14 15  1  0  0  0  0
 14 33  1  0  0  0  0
 14 34  1  0  0  0  0
 15 16  1  0  0  0  0
 15 35  1  0  0  0  0
 16 21  1  0  0  0  0
 16 17  2  0  0  0  0
 17 18  1  0  0  0  0
 17 36  1  0  0  0  0
 18 19  2  0  0  0  0
 18 37  1  0  0  0  0
 19 20  1  0  0  0  0
 19 38  1  0  0  0  0
 20 21  2  0  0  0  0
 21 22  1  0  0  0  0
 22 39  1  0  0  0  0
 22 40  1  0  0  0  0
 23 41  1  0  0  0  0
M  END
>  <DRUGBANK_ID>
DB07303

>  <COMMON_NAME>
N~3~-[3-(5-METHOXYPYRIDIN-3-YL)BENZYL]PYRIDINE-2,3-DIAMINE

$$$$
