440
 OpenBabel10282417072D

 34 34  0  0  0  0  0  0  0  0999 V2000
   -0.5880    1.1591    0.0000 C   0  0  0  0  0  0  0  0  0  0  0  0
    0.1265    0.7466    0.0000 C   0  0  0  0  0  0  0  0  0  0  0  0
   -0.5880   -0.4909    0.0000 C   0  0  0  0  0  0  0  0  0  0  0  0
   -1.3024   -0.0784    0.0000 C   0  0  0  0  0  0  0  0  0  0  0  0
   -1.3024    0.7466    0.0000 C   0  0  0  0  0  0  0  0  0  0  0  0
   -2.0169    1.1591    0.0000 O   0  0  0  0  0  0  0  0  0  0  0  0
   -2.7314    0.7466    0.0000 C   0  0  0  0  0  0  0  0  0  0  0  0
   -4.8748    1.9841    0.0000 C   0  0  0  0  0  0  0  0  0  0  0  0
   -4.1603    1.5716    0.0000 C   0  0  0  0  0  0  0  0  0  0  0  0
   -3.4458    1.1591    0.0000 C   0  0  0  0  0  0  0  0  0  0  0  0
    0.1265   -0.0784    0.0000 C   0  0  0  0  0  0  0  0  0  0  0  0
    0.4285   -1.2054    0.0000 O   0  0  0  0  0  0  0  0  0  0  0  0
    1.2535    0.2235    0.0000 O   0  0  0  0  0  0  0  0  0  0  0  0
    0.8410   -0.4909    0.0000 S   0  0  0  0  0  0  0  0  0  0  0  0
    1.5555   -0.9034    0.0000 C   0  0  0  0  0  0  0  0  0  0  0  0
    2.2699   -0.4909    0.0000 C   0  0  0  0  0  0  0  0  0  0  0  0
    2.9844   -0.9034    0.0000 C   0  0  0  0  0  0  0  0  0  0  0  0
    3.6989   -0.4909    0.0000 S   0  0  0  0  0  0  0  0  0  0  0  0
   -0.5880    2.1911    0.0000 H   0  0  0  0  0  0  0  0  0  0  0  0
    1.0202    1.2626    0.0000 H   0  0  0  0  0  0  0  0  0  0  0  0
   -0.5880   -1.5229    0.0000 H   0  0  0  0  0  0  0  0  0  0  0  0
   -2.1961   -0.5944    0.0000 H   0  0  0  0  0  0  0  0  0  0  0  0
   -2.7314   -0.3234    0.0000 H   0  0  0  0  0  0  0  0  0  0  0  0
   -3.6581    0.2116    0.0000 H   0  0  0  0  0  0  0  0  0  0  0  0
   -4.8748    3.0541    0.0000 H   0  0  0  0  0  0  0  0  0  0  0  0
   -5.8014    1.4491    0.0000 H   0  0  0  0  0  0  0  0  0  0  0  0
   -5.8015    2.5191    0.0000 H   0  0  0  0  0  0  0  0  0  0  0  0
    1.5555   -1.9734    0.0000 H   0  0  0  0  0  0  0  0  0  0  0  0
    2.4822   -1.4384    0.0000 H   0  0  0  0  0  0  0  0  0  0  0  0
    2.2699    0.5791    0.0000 H   0  0  0  0  0  0  0  0  0  0  0  0
    3.1965    0.0441    0.0000 H   0  0  0  0  0  0  0  0  0  0  0  0
    2.9844   -1.9734    0.0000 H   0  0  0  0  0  0  0  0  0  0  0  0
    2.0578   -1.4384    0.0000 H   0  0  0  0  0  0  0  0  0  0  0  0
    4.8767   -1.1709    0.0000 H   0  0  0  0  0  0  0  0  0  0  0  0
  1 19  1  0  0  0  0
  2  1  1  0  0  0  0
  2 20  1  0  0  0  0
  3  4  2  0  0  0  0
  3 11  1  0  0  0  0
  3 21  1  0  0  0  0
  4  5  1  0  0  0  0
  4 22  1  0  0  0  0
  5  6  1  0  0  0  0
  5  1  2  0  0  0  0
  6  7  1  0  0  0  0
  7 23  1  0  0  0  0
  7 24  1  0  0  0  0
  8  9  1  0  0  0  0
  8 25  1  0  0  0  0
  8 26  1  0  0  0  0
  8 27  1  0  0  0  0
  9 10  3  0  0  0  0
 10  7  1  0  0  0  0
 11  2  2  0  0  0  0
 12 14  2  0  0  0  0
 13 14  2  0  0  0  0
 14 11  1  0  0  0  0
 14 15  1  0  0  0  0
 15 16  1  0  0  0  0
 15 28  1  0  0  0  0
 15 29  1  0  0  0  0
 16 30  1  0  0  0  0
 16 31  1  0  0  0  0
 17 18  1  0  0  0  0
 17 16  1  0  0  0  0
 17 32  1  0  0  0  0
 17 33  1  0  0  0  0
 18 34  1  0  0  0  0
M  END
>  <DRUGBANK_ID>
DB07079

>  <COMMON_NAME>
3-{[4-(but-2-yn-1-yloxy)phenyl]sulfonyl}propane-1-thiol

$$$$
