
 OpenBabel10282417072D

 73 69  0  0  1  0  0  0  0  0999 V2000
   -2.1434    0.2357    0.0000 C   0  0  0  0  0  0  0  0  0  0  0  0
   -1.4289   -0.1768    0.0000 C   0  0  2  0  0  0  0  0  0  0  0  0
   -0.7145    0.2357    0.0000 C   0  0  2  0  0  0  0  0  0  0  0  0
    0.0000   -0.1768    0.0000 C   0  0  1  0  0  0  0  0  0  0  0  0
    0.7145    0.2357    0.0000 C   0  0  2  0  0  0  0  0  0  0  0  0
    1.4289   -0.1768    0.0000 C   0  0  0  0  0  0  0  0  0  0  0  0
    1.4289   -1.0018    0.0000 O   0  0  0  0  0  0  0  0  0  0  0  0
    2.1434    0.2357    0.0000 O   0  5  0  0  0  0  0  0  0  0  0  0
    0.7145    1.0607    0.0000 O   0  0  0  0  0  0  0  0  0  0  0  0
    0.0000   -1.0018    0.0000 O   0  0  0  0  0  0  0  0  0  0  0  0
   -0.7145    1.0607    0.0000 O   0  0  0  0  0  0  0  0  0  0  0  0
   -1.4289   -1.0018    0.0000 O   0  0  0  0  0  0  0  0  0  0  0  0
   -2.8579   -0.1768    0.0000 O   0  0  0  0  0  0  0  0  0  0  0  0
    5.4581    0.2856    0.0000 C   0  0  0  0  0  0  0  0  0  0  0  0
    6.1725   -0.1269    0.0000 C   0  0  2  0  0  0  0  0  0  0  0  0
    6.8870    0.2856    0.0000 C   0  0  2  0  0  0  0  0  0  0  0  0
    7.6015   -0.1269    0.0000 C   0  0  1  0  0  0  0  0  0  0  0  0
    8.3160    0.2856    0.0000 C   0  0  2  0  0  0  0  0  0  0  0  0
    9.0304   -0.1269    0.0000 C   0  0  0  0  0  0  0  0  0  0  0  0
    9.7449    0.2856    0.0000 O   0  0  0  0  0  0  0  0  0  0  0  0
    9.0304   -0.9519    0.0000 O   0  5  0  0  0  0  0  0  0  0  0  0
    8.3160    1.1106    0.0000 O   0  0  0  0  0  0  0  0  0  0  0  0
    7.6015   -0.9519    0.0000 O   0  0  0  0  0  0  0  0  0  0  0  0
    6.8870    1.1106    0.0000 O   0  0  0  0  0  0  0  0  0  0  0  0
    6.1725   -0.9519    0.0000 O   0  0  0  0  0  0  0  0  0  0  0  0
    4.7436   -0.1269    0.0000 O   0  0  0  0  0  0  0  0  0  0  0  0
   -1.9236   -3.4768    0.0000 C   0  0  0  0  0  0  0  0  0  0  0  0
   -1.2091   -3.8893    0.0000 C   0  0  2  0  0  0  0  0  0  0  0  0
   -0.4946   -3.4768    0.0000 C   0  0  2  0  0  0  0  0  0  0  0  0
    0.2198   -3.8893    0.0000 C   0  0  1  0  0  0  0  0  0  0  0  0
    0.9343   -3.4768    0.0000 C   0  0  2  0  0  0  0  0  0  0  0  0
    1.6488   -3.8893    0.0000 C   0  0  0  0  0  0  0  0  0  0  0  0
    2.3633   -3.4768    0.0000 O   0  0  0  0  0  0  0  0  0  0  0  0
    1.6488   -4.7143    0.0000 O   0  5  0  0  0  0  0  0  0  0  0  0
    0.9343   -2.6518    0.0000 O   0  0  0  0  0  0  0  0  0  0  0  0
    0.2198   -4.7143    0.0000 O   0  0  0  0  0  0  0  0  0  0  0  0
   -0.4946   -2.6518    0.0000 O   0  0  0  0  0  0  0  0  0  0  0  0
   -1.2091   -4.7143    0.0000 O   0  0  0  0  0  0  0  0  0  0  0  0
   -2.6380   -3.8893    0.0000 O   0  0  0  0  0  0  0  0  0  0  0  0
    2.8579    0.6482    0.0000 Cr  0  1  0  0  0  0  0  0  0  0  0  0
   -2.1434    1.3057    0.0000 H   0  0  0  0  0  0  0  0  0  0  0  0
   -3.0700    0.7707    0.0000 H   0  0  0  0  0  0  0  0  0  0  0  0
   -2.3555   -0.7118    0.0000 H   0  0  0  0  0  0  0  0  0  0  0  0
   -1.6412    0.7707    0.0000 H   0  0  0  0  0  0  0  0  0  0  0  0
   -0.9266   -0.7118    0.0000 H   0  0  0  0  0  0  0  0  0  0  0  0
   -0.2121    0.7707    0.0000 H   0  0  0  0  0  0  0  0  0  0  0  0
    1.5545    1.5457    0.0000 H   0  0  0  0  0  0  0  0  0  0  0  0
   -0.8400   -1.4868    0.0000 H   0  0  0  0  0  0  0  0  0  0  0  0
    0.1255    1.5457    0.0000 H   0  0  0  0  0  0  0  0  0  0  0  0
   -2.2689   -1.4868    0.0000 H   0  0  0  0  0  0  0  0  0  0  0  0
   -3.6979    0.3082    0.0000 H   0  0  0  0  0  0  0  0  0  0  0  0
    5.4581    1.3556    0.0000 H   0  0  0  0  0  0  0  0  0  0  0  0
    4.5315    0.8206    0.0000 H   0  0  0  0  0  0  0  0  0  0  0  0
    5.2458   -0.6619    0.0000 H   0  0  0  0  0  0  0  0  0  0  0  0
    5.9604    0.8206    0.0000 H   0  0  0  0  0  0  0  0  0  0  0  0
    6.6749   -0.6619    0.0000 H   0  0  0  0  0  0  0  0  0  0  0  0
    7.3894    0.8206    0.0000 H   0  0  0  0  0  0  0  0  0  0  0  0
    9.1560    1.5956    0.0000 H   0  0  0  0  0  0  0  0  0  0  0  0
    6.7615   -1.4369    0.0000 H   0  0  0  0  0  0  0  0  0  0  0  0
    7.7270    1.5956    0.0000 H   0  0  0  0  0  0  0  0  0  0  0  0
    5.3325   -1.4369    0.0000 H   0  0  0  0  0  0  0  0  0  0  0  0
    3.9036    0.3581    0.0000 H   0  0  0  0  0  0  0  0  0  0  0  0
   -1.9236   -2.4068    0.0000 H   0  0  0  0  0  0  0  0  0  0  0  0
   -2.8503   -2.9418    0.0000 H   0  0  0  0  0  0  0  0  0  0  0  0
   -2.1357   -4.4243    0.0000 H   0  0  0  0  0  0  0  0  0  0  0  0
   -1.4212   -2.9418    0.0000 H   0  0  0  0  0  0  0  0  0  0  0  0
   -0.7069   -4.4243    0.0000 H   0  0  0  0  0  0  0  0  0  0  0  0
    0.0077   -2.9418    0.0000 H   0  0  0  0  0  0  0  0  0  0  0  0
    1.7743   -2.1668    0.0000 H   0  0  0  0  0  0  0  0  0  0  0  0
   -0.6202   -5.1993    0.0000 H   0  0  0  0  0  0  0  0  0  0  0  0
    0.3454   -2.1668    0.0000 H   0  0  0  0  0  0  0  0  0  0  0  0
   -2.0491   -5.1993    0.0000 H   0  0  0  0  0  0  0  0  0  0  0  0
   -3.4781   -3.4043    0.0000 H   0  0  0  0  0  0  0  0  0  0  0  0
  1  2  1  0  0  0  0
  1 13  1  0  0  0  0
  1 41  1  0  0  0  0
  1 42  1  0  0  0  0
  2  3  1  0  0  0  0
  2 12  1  0  0  0  0
  2 43  1  1  0  0  0
  3  4  1  0  0  0  0
  3 11  1  0  0  0  0
  3 44  1  6  0  0  0
  4  5  1  0  0  0  0
  4 10  1  0  0  0  0
  4 45  1  6  0  0  0
  5  6  1  0  0  0  0
  5  9  1  0  0  0  0
  5 46  1  6  0  0  0
  6  7  2  0  0  0  0
  6  8  1  0  0  0  0
  9 47  1  0  0  0  0
 10 48  1  0  0  0  0
 11 49  1  0  0  0  0
 12 50  1  0  0  0  0
 13 51  1  0  0  0  0
 14 15  1  0  0  0  0
 14 26  1  0  0  0  0
 14 52  1  0  0  0  0
 14 53  1  0  0  0  0
 15 16  1  0  0  0  0
 15 25  1  0  0  0  0
 15 54  1  1  0  0  0
 16 17  1  0  0  0  0
 16 24  1  0  0  0  0
 16 55  1  6  0  0  0
 17 18  1  0  0  0  0
 17 23  1  0  0  0  0
 17 56  1  6  0  0  0
 18 19  1  0  0  0  0
 18 22  1  0  0  0  0
 18 57  1  6  0  0  0
 19 20  2  0  0  0  0
 19 21  1  0  0  0  0
 22 58  1  0  0  0  0
 23 59  1  0  0  0  0
 24 60  1  0  0  0  0
 25 61  1  0  0  0  0
 26 62  1  0  0  0  0
 27 28  1  0  0  0  0
 27 39  1  0  0  0  0
 27 63  1  0  0  0  0
 27 64  1  0  0  0  0
 28 29  1  0  0  0  0
 28 38  1  0  0  0  0
 28 65  1  1  0  0  0
 29 30  1  0  0  0  0
 29 37  1  0  0  0  0
 29 66  1  6  0  0  0
 30 31  1  0  0  0  0
 30 36  1  0  0  0  0
 30 67  1  6  0  0  0
 31 32  1  0  0  0  0
 31 35  1  0  0  0  0
 31 68  1  6  0  0  0
 32 33  2  0  0  0  0
 32 34  1  0  0  0  0
 35 69  1  0  0  0  0
 36 70  1  0  0  0  0
 37 71  1  0  0  0  0
 38 72  1  0  0  0  0
 39 73  1  0  0  0  0
M  CHG  4   8  -1  21  -1  34  -1  40   3
M  END
>  <DRUGBANK_ID>
DB14528

>  <SECONDARY_ACCESSION_NUMBERS>
DBSALT002356

>  <COMMON_NAME>
Chromium gluconate

>  <CAS_NUMBER>
33661-40-4

>  <UNII>
V236ZVR3RL

$$$$
