64U
 OpenBabel10282417072D

 57 59  0  0  0  0  0  0  0  0999 V2000
    2.4567   -0.5008    0.0000 C   0  0  0  0  0  0  0  0  0  0  0  0
    1.5006   -1.5627    0.0000 N   0  0  0  0  0  0  0  0  0  0  0  0
    1.6721   -0.7558    0.0000 C   0  0  1  0  0  0  0  0  0  0  0  0
    1.0590   -0.2037    0.0000 C   0  0  0  0  0  0  0  0  0  0  0  0
    1.2305    0.6032    0.0000 O   0  0  0  0  0  0  0  0  0  0  0  0
    0.2744   -0.4587    0.0000 N   0  0  0  0  0  0  0  0  0  0  0  0
    0.0194   -1.2433    0.0000 C   0  0  0  0  0  0  0  0  0  0  0  0
   -0.8056   -1.2433    0.0000 C   0  0  0  0  0  0  0  0  0  0  0  0
   -1.0605   -0.4587    0.0000 C   0  0  0  0  0  0  0  0  0  0  0  0
   -0.3931    0.0263    0.0000 C   0  0  1  0  0  0  0  0  0  0  0  0
   -0.3931    0.8513    0.0000 C   0  0  0  0  0  0  0  0  0  0  0  0
   -1.1075    1.2638    0.0000 N   0  0  0  0  0  0  0  0  0  0  0  0
   -1.1075    2.0888    0.0000 C   0  0  0  0  0  0  0  0  0  0  0  0
   -1.8220    2.5013    0.0000 C   0  0  0  0  0  0  0  0  0  0  0  0
   -2.5365    2.0888    0.0000 C   0  0  0  0  0  0  0  0  0  0  0  0
   -3.2509    2.5013    0.0000 C   0  0  0  0  0  0  0  0  0  0  0  0
   -3.2509    3.3263    0.0000 C   0  0  0  0  0  0  0  0  0  0  0  0
   -2.5365    3.7388    0.0000 C   0  0  0  0  0  0  0  0  0  0  0  0
   -1.8220    3.3263    0.0000 C   0  0  0  0  0  0  0  0  0  0  0  0
    0.3214    1.2638    0.0000 O   0  0  0  0  0  0  0  0  0  0  0  0
    3.0698   -1.0529    0.0000 C   0  0  0  0  0  0  0  0  0  0  0  0
    3.8544   -0.7979    0.0000 C   0  0  0  0  0  0  0  0  0  0  0  0
    4.4675   -1.3499    0.0000 C   0  0  0  0  0  0  0  0  0  0  0  0
    4.2960   -2.1569    0.0000 C   0  0  0  0  0  0  0  0  0  0  0  0
    3.5114   -2.4119    0.0000 C   0  0  0  0  0  0  0  0  0  0  0  0
    2.8983   -1.8598    0.0000 C   0  0  0  0  0  0  0  0  0  0  0  0
   -3.9654    2.0888    0.0000 Cl  0  0  0  0  0  0  0  0  0  0  0  0
    2.1060   -1.1465    0.0000 H   0  0  0  0  0  0  0  0  0  0  0  0
    0.1272    0.2914    0.0000 H   0  0  0  0  0  0  0  0  0  0  0  0
    2.6792    0.5458    0.0000 H   0  0  0  0  0  0  0  0  0  0  0  0
    3.4743   -0.1702    0.0000 H   0  0  0  0  0  0  0  0  0  0  0  0
    0.5305   -1.8779    0.0000 H   0  0  0  0  0  0  0  0  0  0  0  0
    2.2586   -2.2452    0.0000 H   0  0  0  0  0  0  0  0  0  0  0  0
    0.6483   -2.1090    0.0000 H   0  0  0  0  0  0  0  0  0  0  0  0
   -0.4664   -2.1967    0.0000 H   0  0  0  0  0  0  0  0  0  0  0  0
   -1.4345   -2.1089    0.0000 H   0  0  0  0  0  0  0  0  0  0  0  0
   -1.8624   -1.0759    0.0000 H   0  0  0  0  0  0  0  0  0  0  0  0
   -2.0781   -0.1281    0.0000 H   0  0  0  0  0  0  0  0  0  0  0  0
   -1.2280    0.5981    0.0000 H   0  0  0  0  0  0  0  0  0  0  0  0
   -1.9601    0.7716    0.0000 H   0  0  0  0  0  0  0  0  0  0  0  0
   -0.1809    2.6238    0.0000 H   0  0  0  0  0  0  0  0  0  0  0  0
   -1.1075    3.1588    0.0000 H   0  0  0  0  0  0  0  0  0  0  0  0
   -2.5365    1.0568    0.0000 H   0  0  0  0  0  0  0  0  0  0  0  0
   -4.1446    3.8423    0.0000 H   0  0  0  0  0  0  0  0  0  0  0  0
   -2.5365    4.7708    0.0000 H   0  0  0  0  0  0  0  0  0  0  0  0
   -0.9283    3.8423    0.0000 H   0  0  0  0  0  0  0  0  0  0  0  0
    3.8650   -1.7688    0.0000 H   0  0  0  0  0  0  0  0  0  0  0  0
    4.0768    0.2487    0.0000 H   0  0  0  0  0  0  0  0  0  0  0  0
    4.8720   -0.4672    0.0000 H   0  0  0  0  0  0  0  0  0  0  0  0
    5.4851   -1.0192    0.0000 H   0  0  0  0  0  0  0  0  0  0  0  0
    5.2627   -2.0658    0.0000 H   0  0  0  0  0  0  0  0  0  0  0  0
    5.0912   -2.8728    0.0000 H   0  0  0  0  0  0  0  0  0  0  0  0
    4.0736   -3.2035    0.0000 H   0  0  0  0  0  0  0  0  0  0  0  0
    3.2889   -3.4585    0.0000 H   0  0  0  0  0  0  0  0  0  0  0  0
    2.4938   -2.7425    0.0000 H   0  0  0  0  0  0  0  0  0  0  0  0
    1.8807   -2.1904    0.0000 H   0  0  0  0  0  0  0  0  0  0  0  0
    2.6758   -2.9064    0.0000 H   0  0  0  0  0  0  0  0  0  0  0  0
  1  3  1  0  0  0  0
  1 21  1  0  0  0  0
  1 30  1  0  0  0  0
  1 31  1  0  0  0  0
  2 32  1  0  0  0  0
  2 33  1  0  0  0  0
  3  2  1  0  0  0  0
  3  4  1  0  0  0  0
  3 28  1  6  0  0  0
  4  5  2  0  0  0  0
  4  6  1  0  0  0  0
  6  7  1  0  0  0  0
  6 10  1  0  0  0  0
  7  8  1  0  0  0  0
  7 34  1  0  0  0  0
  7 35  1  0  0  0  0
  8  9  1  0  0  0  0
  8 36  1  0  0  0  0
  8 37  1  0  0  0  0
  9 10  1  0  0  0  0
  9 38  1  0  0  0  0
  9 39  1  0  0  0  0
 10 11  1  0  0  0  0
 10 29  1  6  0  0  0
 11 12  1  0  0  0  0
 11 20  2  0  0  0  0
 12 13  1  0  0  0  0
 12 40  1  0  0  0  0
 13 14  1  0  0  0  0
 13 41  1  0  0  0  0
 13 42  1  0  0  0  0
 14 15  2  0  0  0  0
 14 19  1  0  0  0  0
 15 16  1  0  0  0  0
 15 43  1  0  0  0  0
 16 17  2  0  0  0  0
 16 27  1  0  0  0  0
 17 18  1  0  0  0  0
 17 44  1  0  0  0  0
 18 19  2  0  0  0  0
 18 45  1  0  0  0  0
 19 46  1  0  0  0  0
 21 22  1  0  0  0  0
 21 26  1  0  0  0  0
 21 47  1  0  0  0  0
 22 23  1  0  0  0  0
 22 48  1  0  0  0  0
 22 49  1  0  0  0  0
 23 24  1  0  0  0  0
 23 50  1  0  0  0  0
 23 51  1  0  0  0  0
 24 25  1  0  0  0  0
 24 52  1  0  0  0  0
 24 53  1  0  0  0  0
 25 26  1  0  0  0  0
 25 54  1  0  0  0  0
 25 55  1  0  0  0  0
 26 56  1  0  0  0  0
 26 57  1  0  0  0  0
M  END
>  <DRUGBANK_ID>
DB07190

>  <COMMON_NAME>
3-cyclohexyl-D-alanyl-N-(3-chlorobenzyl)-L-prolinamide

$$$$
