
 OpenBabel10282417072D

 41 41  0  0  0  0  0  0  0  0999 V2000
    3.5723    0.4125    0.0000 C   0  0  2  0  0  0  0  0  0  0  0  0
    4.2868    0.8250    0.0000 C   0  0  0  0  0  0  0  0  0  0  0  0
    5.0013    0.4125    0.0000 O   0  0  0  0  0  0  0  0  0  0  0  0
    4.2868    1.6500    0.0000 O   0  0  0  0  0  0  0  0  0  0  0  0
    2.8578    0.8250    0.0000 N   0  0  0  0  0  0  0  0  0  0  0  0
    3.5723   -0.4125    0.0000 C   0  0  0  0  0  0  0  0  0  0  0  0
    2.1434    0.4125    0.0000 C   0  0  0  0  0  0  0  0  0  0  0  0
    1.4288    0.8250    0.0000 C   0  0  0  0  0  0  0  0  0  0  0  0
    2.1434   -0.4125    0.0000 O   0  0  0  0  0  0  0  0  0  0  0  0
    0.7144    0.4125    0.0000 C   0  0  0  0  0  0  0  0  0  0  0  0
    0.0000    0.8250    0.0000 C   0  0  0  0  0  0  0  0  0  0  0  0
   -0.7145    0.4125    0.0000 P   0  0  3  0  0  0  0  0  0  0  0  0
   -1.4290    0.8250    0.0000 O   0  0  0  0  0  0  0  0  0  0  0  0
   -2.1435    0.4125    0.0000 C   0  0  0  0  0  0  0  0  0  0  0  0
   -2.8579    0.8250    0.0000 C   0  0  0  0  0  0  0  0  0  0  0  0
   -3.5724    0.4125    0.0000 C   0  0  0  0  0  0  0  0  0  0  0  0
   -3.5724   -0.4126    0.0000 C   0  0  0  0  0  0  0  0  0  0  0  0
   -2.8579   -0.8251    0.0000 C   0  0  0  0  0  0  0  0  0  0  0  0
   -2.1435   -0.4126    0.0000 C   0  0  0  0  0  0  0  0  0  0  0  0
   -0.7145   -0.4125    0.0000 O   0  0  0  0  0  0  0  0  0  0  0  0
   -0.9280    1.2093    0.0000 O   0  0  0  0  0  0  0  0  0  0  0  0
   -4.2870   -0.8250    0.0000 N   0  3  0  0  0  0  0  0  0  0  0  0
   -4.2870   -1.6500    0.0000 O   0  0  0  0  0  0  0  0  0  0  0  0
   -5.0013   -0.4125    0.0000 O   0  5  0  0  0  0  0  0  0  0  0  0
    4.4989   -0.1225    0.0000 H   0  0  0  0  0  0  0  0  0  0  0  0
    5.0013   -0.5245    0.0000 H   0  0  0  0  0  0  0  0  0  0  0  0
    2.8578    1.8095    0.0000 H   0  0  0  0  0  0  0  0  0  0  0  0
    2.6457   -0.9475    0.0000 H   0  0  0  0  0  0  0  0  0  0  0  0
    4.4989   -0.9475    0.0000 H   0  0  0  0  0  0  0  0  0  0  0  0
    3.5723   -1.4825    0.0000 H   0  0  0  0  0  0  0  0  0  0  0  0
    1.4287    1.8950    0.0000 H   0  0  0  0  0  0  0  0  0  0  0  0
    0.5021    1.3600    0.0000 H   0  0  0  0  0  0  0  0  0  0  0  0
    0.7144   -0.6575    0.0000 H   0  0  0  0  0  0  0  0  0  0  0  0
   -0.2123   -0.1225    0.0000 H   0  0  0  0  0  0  0  0  0  0  0  0
    0.0000    1.8950    0.0000 H   0  0  0  0  0  0  0  0  0  0  0  0
   -0.9266    1.3600    0.0000 H   0  0  0  0  0  0  0  0  0  0  0  0
   -2.8579    1.8570    0.0000 H   0  0  0  0  0  0  0  0  0  0  0  0
   -4.4661    0.9285    0.0000 H   0  0  0  0  0  0  0  0  0  0  0  0
   -2.8579   -1.8571    0.0000 H   0  0  0  0  0  0  0  0  0  0  0  0
   -1.2498   -0.9286    0.0000 H   0  0  0  0  0  0  0  0  0  0  0  0
   -0.2421    1.8952    0.0000 H   0  0  0  0  0  0  0  0  0  0  0  0
  1  2  1  0  0  0  0
  1  5  1  0  0  0  0
  1  6  1  0  0  0  0
  1 25  1  6  0  0  0
  2  3  1  0  0  0  0
  2  4  2  0  0  0  0
  3 26  1  0  0  0  0
  5  7  1  0  0  0  0
  5 27  1  0  0  0  0
  6 28  1  0  0  0  0
  6 29  1  0  0  0  0
  6 30  1  0  0  0  0
  7  8  1  0  0  0  0
  7  9  2  0  0  0  0
  8 10  1  0  0  0  0
  8 31  1  0  0  0  0
  8 32  1  0  0  0  0
 10 11  1  0  0  0  0
 10 33  1  0  0  0  0
 10 34  1  0  0  0  0
 11 12  1  0  0  0  0
 11 35  1  0  0  0  0
 11 36  1  0  0  0  0
 12 13  1  0  0  0  0
 12 20  2  0  0  0  0
 12 21  1  0  0  0  0
 13 14  1  0  0  0  0
 15 14  1  0  0  0  0
 15 16  2  0  0  0  0
 15 37  1  0  0  0  0
 16 17  1  0  0  0  0
 16 38  1  0  0  0  0
 17 18  2  0  0  0  0
 17 22  1  0  0  0  0
 18 19  1  0  0  0  0
 18 39  1  0  0  0  0
 19 14  2  0  0  0  0
 19 40  1  0  0  0  0
 21 41  1  0  0  0  0
 22 23  2  0  0  0  0
 22 24  1  0  0  0  0
M  CHG  2  22   1  24  -1
M  END
>  <DRUGBANK_ID>
DB08377

>  <COMMON_NAME>
N-[4-(4-nitrophenylphospho)butanoyl]-D-alanine

>  <SYNONYMS>
N-[4-(4-nitrophenylphospho)butyryl]-D-alanine; p-nitrophenyl phosphonobutanoyl D-alanine

$$$$
