POT
 OpenBabel10282417072D

 32 32  0  0  0  0  0  0  0  0999 V2000
    0.4704   -0.3150    0.0000 P   0  0  1  0  0  0  0  0  0  0  0  0
   -0.2440    0.0975    0.0000 C   0  0  0  0  0  0  0  0  0  0  0  0
    0.0579   -1.0296    0.0000 O   0  0  0  0  0  0  0  0  0  0  0  0
    1.1850   -0.7276    0.0000 O   0  0  0  0  0  0  0  0  0  0  0  0
    1.8995   -0.3150    0.0000 C   0  0  1  0  0  0  0  0  0  0  0  0
    1.8995    0.5100    0.0000 C   0  0  0  0  0  0  0  0  0  0  0  0
    2.6140    0.9226    0.0000 C   0  0  0  0  0  0  0  0  0  0  0  0
    2.6140   -0.7276    0.0000 C   0  0  0  0  0  0  0  0  0  0  0  0
    3.3285   -0.3150    0.0000 O   0  0  0  0  0  0  0  0  0  0  0  0
    4.7577   -1.9651    0.0000 C   0  0  0  0  0  0  0  0  0  0  0  0
    5.4721   -1.5526    0.0000 C   0  0  0  0  0  0  0  0  0  0  0  0
    5.4721   -0.7276    0.0000 C   0  0  0  0  0  0  0  0  0  0  0  0
    4.7577   -0.3150    0.0000 C   0  0  0  0  0  0  0  0  0  0  0  0
    4.0431   -0.7276    0.0000 C   0  0  0  0  0  0  0  0  0  0  0  0
    4.0431   -1.5526    0.0000 C   0  0  0  0  0  0  0  0  0  0  0  0
    0.8830    0.3994    0.0000 Cl  0  0  0  0  0  0  0  0  0  0  0  0
    1.3938   -0.0231    0.0000 H   0  0  0  0  0  0  0  0  0  0  0  0
   -0.2440    1.1675    0.0000 H   0  0  0  0  0  0  0  0  0  0  0  0
   -1.1707   -0.4375    0.0000 H   0  0  0  0  0  0  0  0  0  0  0  0
   -1.1706    0.6325    0.0000 H   0  0  0  0  0  0  0  0  0  0  0  0
    0.9728    1.0450    0.0000 H   0  0  0  0  0  0  0  0  0  0  0  0
    1.8994    1.5800    0.0000 H   0  0  0  0  0  0  0  0  0  0  0  0
    3.5407    0.3877    0.0000 H   0  0  0  0  0  0  0  0  0  0  0  0
    2.6139    1.9926    0.0000 H   0  0  0  0  0  0  0  0  0  0  0  0
    3.5406    1.4577    0.0000 H   0  0  0  0  0  0  0  0  0  0  0  0
    2.6140   -1.7976    0.0000 H   0  0  0  0  0  0  0  0  0  0  0  0
    3.5407   -1.2626    0.0000 H   0  0  0  0  0  0  0  0  0  0  0  0
    4.7578   -2.9971    0.0000 H   0  0  0  0  0  0  0  0  0  0  0  0
    6.3658   -2.0686    0.0000 H   0  0  0  0  0  0  0  0  0  0  0  0
    6.3659   -0.2117    0.0000 H   0  0  0  0  0  0  0  0  0  0  0  0
    4.7578    0.7170    0.0000 H   0  0  0  0  0  0  0  0  0  0  0  0
    3.1494   -2.0686    0.0000 H   0  0  0  0  0  0  0  0  0  0  0  0
  1  4  1  0  0  0  0
  1  2  1  0  0  0  0
  1  3  2  1  0  0  0
  1 16  1  0  0  0  0
  2 18  1  0  0  0  0
  2 19  1  0  0  0  0
  2 20  1  0  0  0  0
  5  4  1  0  0  0  0
  5  6  1  0  0  0  0
  5  8  1  0  0  0  0
  5 17  1  6  0  0  0
  6  7  1  0  0  0  0
  6 21  1  0  0  0  0
  6 22  1  0  0  0  0
  7 23  1  0  0  0  0
  7 24  1  0  0  0  0
  7 25  1  0  0  0  0
  8  9  1  0  0  0  0
  8 26  1  0  0  0  0
  8 27  1  0  0  0  0
  9 14  1  0  0  0  0
 10 15  1  0  0  0  0
 10 11  2  0  0  0  0
 10 28  1  0  0  0  0
 11 12  1  0  0  0  0
 11 29  1  0  0  0  0
 12 13  2  0  0  0  0
 12 30  1  0  0  0  0
 13 14  1  0  0  0  0
 13 31  1  0  0  0  0
 14 15  2  0  0  0  0
 15 32  1  0  0  0  0
M  END
>  <DRUGBANK_ID>
DB08419

>  <COMMON_NAME>
(1S)-1-(PHENOXYMETHYL)PROPYL METHYLPHOSPHONOCHLORIDOATE

$$$$
