
 OpenBabel10282417072D

 33 35  0  0  0  0  0  0  0  0999 V2000
   -1.8857   -5.2446    0.0000 N   0  0  0  0  0  0  0  0  0  0  0  0
   -2.6002   -5.6571    0.0000 C   0  0  0  0  0  0  0  0  0  0  0  0
   -2.6002   -6.4822    0.0000 C   0  0  0  0  0  0  0  0  0  0  0  0
   -1.8857   -6.8947    0.0000 N   0  0  0  0  0  0  0  0  0  0  0  0
   -1.1712   -6.4822    0.0000 C   0  0  0  0  0  0  0  0  0  0  0  0
   -1.1712   -5.6571    0.0000 C   0  0  0  0  0  0  0  0  0  0  0  0
   -0.4568   -5.2446    0.0000 C   0  0  0  0  0  0  0  0  0  0  0  0
   -0.4568   -6.8947    0.0000 C   0  0  0  0  0  0  0  0  0  0  0  0
    0.2577   -6.4822    0.0000 C   0  0  0  0  0  0  0  0  0  0  0  0
    0.2577   -5.6571    0.0000 C   0  0  0  0  0  0  0  0  0  0  0  0
   -3.3147   -6.8946    0.0000 N   0  0  0  0  0  0  0  0  0  0  0  0
   -4.0291   -6.4821    0.0000 S   0  0  0  0  0  0  0  0  0  0  0  0
   -4.7436   -6.0696    0.0000 C   0  0  0  0  0  0  0  0  0  0  0  0
   -3.6166   -5.7677    0.0000 O   0  0  0  0  0  0  0  0  0  0  0  0
   -4.4416   -7.1966    0.0000 O   0  0  0  0  0  0  0  0  0  0  0  0
   -5.4581   -4.8321    0.0000 C   0  0  0  0  0  0  0  0  0  0  0  0
   -6.1725   -5.2446    0.0000 C   0  0  0  0  0  0  0  0  0  0  0  0
   -6.1725   -6.0696    0.0000 C   0  0  0  0  0  0  0  0  0  0  0  0
   -5.4581   -6.4822    0.0000 C   0  0  0  0  0  0  0  0  0  0  0  0
   -4.7436   -5.2446    0.0000 C   0  0  0  0  0  0  0  0  0  0  0  0
   -6.8870   -4.8321    0.0000 N   0  0  0  0  0  0  0  0  0  0  0  0
   -3.4939   -5.1411    0.0000 H   0  0  0  0  0  0  0  0  0  0  0  0
   -0.4568   -4.2126    0.0000 H   0  0  0  0  0  0  0  0  0  0  0  0
   -0.4568   -7.9267    0.0000 H   0  0  0  0  0  0  0  0  0  0  0  0
    1.1514   -6.9982    0.0000 H   0  0  0  0  0  0  0  0  0  0  0  0
    1.1514   -5.1411    0.0000 H   0  0  0  0  0  0  0  0  0  0  0  0
   -3.3148   -7.8791    0.0000 H   0  0  0  0  0  0  0  0  0  0  0  0
   -5.4581   -3.8001    0.0000 H   0  0  0  0  0  0  0  0  0  0  0  0
   -7.0663   -6.5855    0.0000 H   0  0  0  0  0  0  0  0  0  0  0  0
   -5.4581   -7.5142    0.0000 H   0  0  0  0  0  0  0  0  0  0  0  0
   -3.8499   -4.7286    0.0000 H   0  0  0  0  0  0  0  0  0  0  0  0
   -6.8870   -3.8476    0.0000 H   0  0  0  0  0  0  0  0  0  0  0  0
   -7.7396   -5.3244    0.0000 H   0  0  0  0  0  0  0  0  0  0  0  0
  1  2  2  0  0  0  0
  1  6  1  0  0  0  0
  2  3  1  0  0  0  0
  2 22  1  0  0  0  0
  3  4  2  0  0  0  0
  3 11  1  0  0  0  0
  4  5  1  0  0  0  0
  5  6  2  0  0  0  0
  5  8  1  0  0  0  0
  7  6  1  0  0  0  0
  7 10  2  0  0  0  0
  7 23  1  0  0  0  0
  8  9  2  0  0  0  0
  8 24  1  0  0  0  0
  9 10  1  0  0  0  0
  9 25  1  0  0  0  0
 10 26  1  0  0  0  0
 11 12  1  0  0  0  0
 11 27  1  0  0  0  0
 12 13  1  0  0  0  0
 12 14  2  0  0  0  0
 12 15  2  0  0  0  0
 13 20  1  0  0  0  0
 16 17  1  0  0  0  0
 16 20  2  0  0  0  0
 16 28  1  0  0  0  0
 17 18  2  0  0  0  0
 17 21  1  0  0  0  0
 18 19  1  0  0  0  0
 18 29  1  0  0  0  0
 19 13  2  0  0  0  0
 19 30  1  0  0  0  0
 20 31  1  0  0  0  0
 21 32  1  0  0  0  0
 21 33  1  0  0  0  0
M  END
>  <DRUGBANK_ID>
DB11464

>  <COMMON_NAME>
Sulfaquinoxaline

>  <CAS_NUMBER>
59-40-5

>  <UNII>
WNW8115TM9

>  <SYNONYMS>
Sulfaquinoxaline

$$$$
