MEI
 OpenBabel10282417072D

 47 46  0  0  0  0  0  0  0  0999 V2000
   -3.4964   -0.8275    0.0000 C   0  0  0  0  0  0  0  0  0  0  0  0
   -2.8728   -0.2874    0.0000 O   0  0  0  0  0  0  0  0  0  0  0  0
   -2.0932   -0.5574    0.0000 C   0  0  0  0  0  0  0  0  0  0  0  0
   -2.3633   -1.3370    0.0000 C   0  0  0  0  0  0  0  0  0  0  0  0
   -1.8232    0.2221    0.0000 C   0  0  0  0  0  0  0  0  0  0  0  0
   -1.3137   -0.8275    0.0000 C   0  0  0  0  0  0  0  0  0  0  0  0
   -0.6900   -0.2874    0.0000 C   0  0  0  0  0  0  0  0  0  0  0  0
    0.0895   -0.5574    0.0000 C   0  0  0  0  0  0  0  0  0  0  0  0
    0.7132   -0.0173    0.0000 C   0  0  2  0  0  0  0  0  0  0  0  0
    0.5573    0.7928    0.0000 C   0  0  0  0  0  0  0  0  0  0  0  0
    1.4927   -0.2874    0.0000 C   0  0  0  0  0  0  0  0  0  0  0  0
    2.1164    0.2527    0.0000 C   0  0  0  0  0  0  0  0  0  0  0  0
    2.8959   -0.0173    0.0000 C   0  0  0  0  0  0  0  0  0  0  0  0
    3.5196    0.5228    0.0000 C   0  0  0  0  0  0  0  0  0  0  0  0
    3.3637    1.3329    0.0000 C   0  0  0  0  0  0  0  0  0  0  0  0
    4.2991    0.2527    0.0000 C   0  0  0  0  0  0  0  0  0  0  0  0
    4.9228    0.7928    0.0000 C   0  0  0  0  0  0  0  0  0  0  0  0
    4.7668    1.6029    0.0000 O   0  0  0  0  0  0  0  0  0  0  0  0
    5.7023    0.5228    0.0000 O   0  0  0  0  0  0  0  0  0  0  0  0
    0.1614    0.1738    0.0000 H   0  0  0  0  0  0  0  0  0  0  0  0
   -4.5075   -0.4773    0.0000 H   0  0  0  0  0  0  0  0  0  0  0  0
   -3.2941   -1.8782    0.0000 H   0  0  0  0  0  0  0  0  0  0  0  0
   -4.3052   -1.5280    0.0000 H   0  0  0  0  0  0  0  0  0  0  0  0
   -3.4140   -1.5392    0.0000 H   0  0  0  0  0  0  0  0  0  0  0  0
   -1.6629   -2.1459    0.0000 H   0  0  0  0  0  0  0  0  0  0  0  0
   -2.7136   -2.3480    0.0000 H   0  0  0  0  0  0  0  0  0  0  0  0
   -0.7725    0.4243    0.0000 H   0  0  0  0  0  0  0  0  0  0  0  0
   -2.5237    1.0309    0.0000 H   0  0  0  0  0  0  0  0  0  0  0  0
   -1.4730    1.2332    0.0000 H   0  0  0  0  0  0  0  0  0  0  0  0
   -1.1116   -1.8782    0.0000 H   0  0  0  0  0  0  0  0  0  0  0  0
   -0.3027   -1.1778    0.0000 H   0  0  0  0  0  0  0  0  0  0  0  0
   -0.8922    0.7633    0.0000 H   0  0  0  0  0  0  0  0  0  0  0  0
    0.1188    0.4131    0.0000 H   0  0  0  0  0  0  0  0  0  0  0  0
    0.2917   -1.6081    0.0000 H   0  0  0  0  0  0  0  0  0  0  0  0
    1.1005   -0.9077    0.0000 H   0  0  0  0  0  0  0  0  0  0  0  0
    1.3661    1.4933    0.0000 H   0  0  0  0  0  0  0  0  0  0  0  0
   -0.4538    1.1430    0.0000 H   0  0  0  0  0  0  0  0  0  0  0  0
    0.3551    1.8435    0.0000 H   0  0  0  0  0  0  0  0  0  0  0  0
    1.6948   -1.3381    0.0000 H   0  0  0  0  0  0  0  0  0  0  0  0
    2.5037   -0.6377    0.0000 H   0  0  0  0  0  0  0  0  0  0  0  0
    1.9214    1.2661    0.0000 H   0  0  0  0  0  0  0  0  0  0  0  0
    3.0909   -1.0307    0.0000 H   0  0  0  0  0  0  0  0  0  0  0  0
    4.1725    2.0334    0.0000 H   0  0  0  0  0  0  0  0  0  0  0  0
    2.3526    1.6831    0.0000 H   0  0  0  0  0  0  0  0  0  0  0  0
    3.1615    2.3836    0.0000 H   0  0  0  0  0  0  0  0  0  0  0  0
    4.4941   -0.7607    0.0000 H   0  0  0  0  0  0  0  0  0  0  0  0
    5.4750    2.2164    0.0000 H   0  0  0  0  0  0  0  0  0  0  0  0
  1  2  1  0  0  0  0
  1 21  1  0  0  0  0
  1 22  1  0  0  0  0
  1 23  1  0  0  0  0
  2  3  1  0  0  0  0
  3  4  1  0  0  0  0
  3  5  1  0  0  0  0
  3  6  1  0  0  0  0
  4 24  1  0  0  0  0
  4 25  1  0  0  0  0
  4 26  1  0  0  0  0
  5 27  1  0  0  0  0
  5 28  1  0  0  0  0
  5 29  1  0  0  0  0
  6  7  1  0  0  0  0
  6 30  1  0  0  0  0
  6 31  1  0  0  0  0
  7  8  1  0  0  0  0
  7 32  1  0  0  0  0
  7 33  1  0  0  0  0
  8  9  1  0  0  0  0
  8 34  1  0  0  0  0
  8 35  1  0  0  0  0
  9 10  1  0  0  0  0
  9 11  1  0  0  0  0
  9 20  1  1  0  0  0
 10 36  1  0  0  0  0
 10 37  1  0  0  0  0
 10 38  1  0  0  0  0
 11 12  1  0  0  0  0
 11 39  1  0  0  0  0
 11 40  1  0  0  0  0
 12 13  2  0  0  0  0
 12 41  1  0  0  0  0
 13 14  1  0  0  0  0
 13 42  1  0  0  0  0
 14 15  1  0  0  0  0
 14 16  2  0  0  0  0
 15 43  1  0  0  0  0
 15 44  1  0  0  0  0
 15 45  1  0  0  0  0
 16 17  1  0  0  0  0
 16 46  1  0  0  0  0
 17 18  1  0  0  0  0
 17 19  2  0  0  0  0
 18 47  1  0  0  0  0
M  END
>  <DRUGBANK_ID>
DB08175

>  <COMMON_NAME>
(2E,4E)-11-METHOXY-3,7,11-TRIMETHYLDODECA-2,4-DIENOIC ACID

>  <UNII>
MB9LR353F8

$$$$
