
 OpenBabel10282417072D

 65 69  0  0  1  0  0  0  0  0999 V2000
    0.2758    1.0430    0.0000 C   0  0  0  0  0  0  0  0  0  0  0  0
    0.8279    1.6561    0.0000 C   0  0  0  0  0  0  0  0  0  0  0  0
    0.5729    2.4407    0.0000 N   0  0  0  0  0  0  0  0  0  0  0  0
    1.1250    3.0538    0.0000 C   0  0  0  0  0  0  0  0  0  0  0  0
    1.0387    3.8743    0.0000 C   0  0  0  0  0  0  0  0  0  0  0  0
    1.7924    4.2099    0.0000 C   0  0  0  0  0  0  0  0  0  0  0  0
    2.3444    3.5968    0.0000 S   0  0  0  0  0  0  0  0  0  0  0  0
    1.9319    2.8823    0.0000 C   0  0  0  0  0  0  0  0  0  0  0  0
    2.1869    2.0977    0.0000 C   0  0  0  0  0  0  0  0  0  0  0  0
    1.6348    1.4846    0.0000 N   0  0  0  0  0  0  0  0  0  0  0  0
    2.9938    1.9262    0.0000 N   0  0  0  0  0  0  0  0  0  0  0  0
    3.2488    1.1415    0.0000 C   0  0  0  0  0  0  0  0  0  0  0  0
    4.0334    0.8866    0.0000 C   0  0  0  0  0  0  0  0  0  0  0  0
    4.0334    0.0616    0.0000 C   0  0  0  0  0  0  0  0  0  0  0  0
    3.2488   -0.1933    0.0000 N   0  0  0  0  0  0  0  0  0  0  0  0
    2.7639    0.4741    0.0000 N   0  0  0  0  0  0  0  0  0  0  0  0
    4.8180   -0.1933    0.0000 C   0  0  0  0  0  0  0  0  0  0  0  0
    5.3030    0.4741    0.0000 N   0  0  0  0  0  0  0  0  0  0  0  0
    4.8180    1.1415    0.0000 C   0  0  0  0  0  0  0  0  0  0  0  0
    6.1280    0.4741    0.0000 C   0  0  0  0  0  0  0  0  0  0  0  0
    6.5405   -0.2404    0.0000 O   0  0  0  0  0  0  0  0  0  0  0  0
    6.5405    1.1886    0.0000 N   0  0  0  0  0  0  0  0  0  0  0  0
    7.3655    1.1886    0.0000 C   0  0  2  0  0  0  0  0  0  0  0  0
    7.7780    0.4741    0.0000 C   0  0  0  0  0  0  0  0  0  0  0  0
    7.3655   -0.2404    0.0000 N   0  0  0  0  0  0  0  0  0  0  0  0
    6.6980   -0.7253    0.0000 C   0  0  0  0  0  0  0  0  0  0  0  0
    7.7780   -0.9548    0.0000 C   0  0  0  0  0  0  0  0  0  0  0  0
    7.7780    1.9030    0.0000 C   0  0  0  0  0  0  0  0  0  0  0  0
    7.3655    2.6175    0.0000 C   0  0  0  0  0  0  0  0  0  0  0  0
    7.7780    3.3320    0.0000 C   0  0  0  0  0  0  0  0  0  0  0  0
    8.6030    3.3320    0.0000 C   0  0  0  0  0  0  0  0  0  0  0  0
    9.0155    2.6175    0.0000 C   0  0  0  0  0  0  0  0  0  0  0  0
    8.6030    1.9030    0.0000 C   0  0  0  0  0  0  0  0  0  0  0  0
    4.6550   -1.0021    0.0000 C   0  0  0  0  0  0  0  0  0  0  0  0
    5.4253   -0.7518    0.0000 C   0  0  0  0  0  0  0  0  0  0  0  0
   -0.7708    1.2655    0.0000 H   0  0  0  0  0  0  0  0  0  0  0  0
    0.6064    0.0254    0.0000 H   0  0  0  0  0  0  0  0  0  0  0  0
   -0.4402    0.2479    0.0000 H   0  0  0  0  0  0  0  0  0  0  0  0
    0.1449    4.3903    0.0000 H   0  0  0  0  0  0  0  0  0  0  0  0
    2.0070    5.2193    0.0000 H   0  0  0  0  0  0  0  0  0  0  0  0
    3.6525    2.6578    0.0000 H   0  0  0  0  0  0  0  0  0  0  0  0
    2.9446   -1.1296    0.0000 H   0  0  0  0  0  0  0  0  0  0  0  0
    5.1486    2.1591    0.0000 H   0  0  0  0  0  0  0  0  0  0  0  0
    4.0614    1.8981    0.0000 H   0  0  0  0  0  0  0  0  0  0  0  0
    6.0482    2.0412    0.0000 H   0  0  0  0  0  0  0  0  0  0  0  0
    6.8305    0.2620    0.0000 H   0  0  0  0  0  0  0  0  0  0  0  0
    8.8480    0.4741    0.0000 H   0  0  0  0  0  0  0  0  0  0  0  0
    8.3130   -0.4525    0.0000 H   0  0  0  0  0  0  0  0  0  0  0  0
    5.7205   -0.2900    0.0000 H   0  0  0  0  0  0  0  0  0  0  0  0
    6.8098   -1.7894    0.0000 H   0  0  0  0  0  0  0  0  0  0  0  0
    5.8323   -1.3542    0.0000 H   0  0  0  0  0  0  0  0  0  0  0  0
    7.2430   -1.8815    0.0000 H   0  0  0  0  0  0  0  0  0  0  0  0
    8.8480   -0.9548    0.0000 H   0  0  0  0  0  0  0  0  0  0  0  0
    8.3130   -1.8814    0.0000 H   0  0  0  0  0  0  0  0  0  0  0  0
    6.3335    2.6175    0.0000 H   0  0  0  0  0  0  0  0  0  0  0  0
    7.2620    4.2257    0.0000 H   0  0  0  0  0  0  0  0  0  0  0  0
    9.1190    4.2257    0.0000 H   0  0  0  0  0  0  0  0  0  0  0  0
   10.0475    2.6175    0.0000 H   0  0  0  0  0  0  0  0  0  0  0  0
    9.1190    1.0093    0.0000 H   0  0  0  0  0  0  0  0  0  0  0  0
    3.6409   -1.3435    0.0000 H   0  0  0  0  0  0  0  0  0  0  0  0
    5.4577   -1.7096    0.0000 H   0  0  0  0  0  0  0  0  0  0  0  0
    4.4436   -2.0510    0.0000 H   0  0  0  0  0  0  0  0  0  0  0  0
    5.1918   -1.7960    0.0000 H   0  0  0  0  0  0  0  0  0  0  0  0
    6.4464   -0.4319    0.0000 H   0  0  0  0  0  0  0  0  0  0  0  0
    6.2129   -1.4761    0.0000 H   0  0  0  0  0  0  0  0  0  0  0  0
  1  2  1  0  0  0  0
  1 36  1  0  0  0  0
  1 37  1  0  0  0  0
  1 38  1  0  0  0  0
  2  3  1  0  0  0  0
  2 10  2  0  0  0  0
  3  4  2  0  0  0  0
  4  5  1  0  0  0  0
  4  8  1  0  0  0  0
  5  6  2  0  0  0  0
  5 39  1  0  0  0  0
  6  7  1  0  0  0  0
  6 40  1  0  0  0  0
  7  8  1  0  0  0  0
  8  9  2  0  0  0  0
  9 10  1  0  0  0  0
  9 11  1  0  0  0  0
 11 12  1  0  0  0  0
 11 41  1  0  0  0  0
 12 13  1  0  0  0  0
 12 16  2  0  0  0  0
 13 14  2  0  0  0  0
 13 19  1  0  0  0  0
 14 15  1  0  0  0  0
 14 17  1  0  0  0  0
 15 16  1  0  0  0  0
 15 42  1  0  0  0  0
 17 18  1  0  0  0  0
 17 34  1  0  0  0  0
 17 35  1  0  0  0  0
 18 19  1  0  0  0  0
 18 20  1  0  0  0  0
 19 43  1  0  0  0  0
 19 44  1  0  0  0  0
 20 21  2  0  0  0  0
 20 22  1  0  0  0  0
 22 45  1  0  0  0  0
 23 22  1  0  0  0  0
 23 24  1  0  0  0  0
 23 28  1  0  0  0  0
 23 46  1  6  0  0  0
 24 25  1  0  0  0  0
 24 47  1  0  0  0  0
 24 48  1  0  0  0  0
 25 26  1  0  0  0  0
 25 27  1  0  0  0  0
 26 49  1  0  0  0  0
 26 50  1  0  0  0  0
 26 51  1  0  0  0  0
 27 52  1  0  0  0  0
 27 53  1  0  0  0  0
 27 54  1  0  0  0  0
 28 29  2  0  0  0  0
 28 33  1  0  0  0  0
 29 30  1  0  0  0  0
 29 55  1  0  0  0  0
 30 31  2  0  0  0  0
 30 56  1  0  0  0  0
 31 32  1  0  0  0  0
 31 57  1  0  0  0  0
 32 33  2  0  0  0  0
 32 58  1  0  0  0  0
 33 59  1  0  0  0  0
 34 60  1  0  0  0  0
 34 61  1  0  0  0  0
 34 62  1  0  0  0  0
 35 63  1  0  0  0  0
 35 64  1  0  0  0  0
 35 65  1  0  0  0  0
M  END
>  <DRUGBANK_ID>
DB11775

>  <COMMON_NAME>
PF-03758309

>  <CAS_NUMBER>
898044-15-0

>  <UNII>
PK459EA5I2

$$$$
