
 OpenBabel10282417072D

 95 96  0  0  1  0  0  0  0  0999 V2000
   -6.1487   -8.6892    0.0000 C   0  0  0  0  0  0  0  0  0  0  0  0
   -5.3291   -8.5946    0.0000 C   0  0  0  0  0  0  0  0  0  0  0  0
   -5.0013   -7.8375    0.0000 C   0  0  0  0  0  0  0  0  0  0  0  0
   -4.1817   -7.7429    0.0000 C   0  0  0  0  0  0  0  0  0  0  0  0
   -3.8539   -6.9858    0.0000 C   0  0  0  0  0  0  0  0  0  0  0  0
   -3.0344   -6.8912    0.0000 C   0  0  0  0  0  0  0  0  0  0  0  0
   -2.7065   -6.1341    0.0000 N   0  0  0  0  0  0  0  0  0  0  0  0
   -3.1983   -5.4717    0.0000 C   0  0  0  0  0  0  0  0  0  0  0  0
   -4.0178   -5.5663    0.0000 C   0  0  0  0  0  0  0  0  0  0  0  0
   -4.5096   -4.9038    0.0000 O   0  0  0  0  0  0  0  0  0  0  0  0
   -5.3291   -4.9985    0.0000 C   0  0  0  0  0  0  0  0  0  0  0  0
   -5.6569   -5.7556    0.0000 C   0  0  0  0  0  0  0  0  0  0  0  0
   -6.4765   -5.8502    0.0000 C   0  0  0  0  0  0  0  0  0  0  0  0
   -6.9682   -5.1877    0.0000 C   0  0  0  0  0  0  0  0  0  0  0  0
   -7.7878   -5.2824    0.0000 C   0  0  0  0  0  0  0  0  0  0  0  0
   -8.2795   -4.6199    0.0000 C   0  0  0  0  0  0  0  0  0  0  0  0
   -9.0991   -4.7146    0.0000 C   0  0  0  0  0  0  0  0  0  0  0  0
   -9.5908   -4.0521    0.0000 C   0  0  0  0  0  0  0  0  0  0  0  0
  -10.4104   -4.1468    0.0000 N   0  0  0  0  0  0  0  0  0  0  0  0
  -10.9021   -3.4843    0.0000 C   0  0  0  0  0  0  0  0  0  0  0  0
  -10.5743   -2.7273    0.0000 N   0  0  0  0  0  0  0  0  0  0  0  0
  -11.7216   -3.5790    0.0000 N   0  0  0  0  0  0  0  0  0  0  0  0
  -12.2134   -2.9165    0.0000 C   0  0  0  0  0  0  0  0  0  0  0  0
  -11.8856   -2.1595    0.0000 O   0  0  0  0  0  0  0  0  0  0  0  0
  -13.0329   -3.0112    0.0000 C   0  0  0  0  0  0  0  0  0  0  0  0
  -13.3608   -3.7682    0.0000 N   0  0  0  0  0  0  0  0  0  0  0  0
  -14.1803   -3.8629    0.0000 C   0  0  0  0  0  0  0  0  0  0  0  0
  -14.5081   -4.6199    0.0000 Cl  0  0  0  0  0  0  0  0  0  0  0  0
  -14.6720   -3.2004    0.0000 C   0  0  0  0  0  0  0  0  0  0  0  0
  -15.4916   -3.2951    0.0000 N   0  0  0  0  0  0  0  0  0  0  0  0
  -14.3442   -2.4434    0.0000 N   0  0  0  0  0  0  0  0  0  0  0  0
  -13.5247   -2.3487    0.0000 C   0  0  0  0  0  0  0  0  0  0  0  0
  -13.1968   -1.5917    0.0000 N   0  0  0  0  0  0  0  0  0  0  0  0
   -6.6404   -4.4307    0.0000 C   0  0  0  0  0  0  0  0  0  0  0  0
   -5.8209   -4.3360    0.0000 C   0  0  0  0  0  0  0  0  0  0  0  0
   -1.8870   -6.0395    0.0000 C   0  0  0  0  0  0  0  0  0  0  0  0
   -1.3953   -6.7019    0.0000 C   0  0  2  0  0  0  0  0  0  0  0  0
   -1.7231   -7.4590    0.0000 O   0  0  0  0  0  0  0  0  0  0  0  0
   -0.5757   -6.6073    0.0000 C   0  0  1  0  0  0  0  0  0  0  0  0
   -0.2479   -5.8502    0.0000 O   0  0  0  0  0  0  0  0  0  0  0  0
   -0.0840   -7.2697    0.0000 C   0  0  2  0  0  0  0  0  0  0  0  0
   -0.4118   -8.0268    0.0000 O   0  0  0  0  0  0  0  0  0  0  0  0
    0.7356   -7.1751    0.0000 C   0  0  2  0  0  0  0  0  0  0  0  0
    1.0634   -6.4180    0.0000 O   0  0  0  0  0  0  0  0  0  0  0  0
    1.2273   -7.8375    0.0000 C   0  0  0  0  0  0  0  0  0  0  0  0
    2.0469   -7.7429    0.0000 O   0  0  0  0  0  0  0  0  0  0  0  0
   -6.7864   -7.8300    0.0000 H   0  0  0  0  0  0  0  0  0  0  0  0
   -6.5739   -9.6711    0.0000 H   0  0  0  0  0  0  0  0  0  0  0  0
   -7.2116   -8.8119    0.0000 H   0  0  0  0  0  0  0  0  0  0  0  0
   -4.6913   -9.4538    0.0000 H   0  0  0  0  0  0  0  0  0  0  0  0
   -4.2662   -8.4718    0.0000 H   0  0  0  0  0  0  0  0  0  0  0  0
   -5.6391   -6.9783    0.0000 H   0  0  0  0  0  0  0  0  0  0  0  0
   -4.5761   -6.8556    0.0000 H   0  0  0  0  0  0  0  0  0  0  0  0
   -3.5439   -8.6021    0.0000 H   0  0  0  0  0  0  0  0  0  0  0  0
   -3.1188   -7.6201    0.0000 H   0  0  0  0  0  0  0  0  0  0  0  0
   -4.4917   -6.1266    0.0000 H   0  0  0  0  0  0  0  0  0  0  0  0
   -3.4287   -6.0039    0.0000 H   0  0  0  0  0  0  0  0  0  0  0  0
   -2.3967   -7.7504    0.0000 H   0  0  0  0  0  0  0  0  0  0  0  0
   -1.9715   -6.7685    0.0000 H   0  0  0  0  0  0  0  0  0  0  0  0
   -2.7732   -4.4898    0.0000 H   0  0  0  0  0  0  0  0  0  0  0  0
   -3.8361   -4.6125    0.0000 H   0  0  0  0  0  0  0  0  0  0  0  0
   -4.4430   -6.5482    0.0000 H   0  0  0  0  0  0  0  0  0  0  0  0
   -5.0807   -5.6890    0.0000 H   0  0  0  0  0  0  0  0  0  0  0  0
   -5.0418   -6.5843    0.0000 H   0  0  0  0  0  0  0  0  0  0  0  0
   -6.8866   -6.7972    0.0000 H   0  0  0  0  0  0  0  0  0  0  0  0
   -8.2130   -6.2643    0.0000 H   0  0  0  0  0  0  0  0  0  0  0  0
   -8.8507   -5.4051    0.0000 H   0  0  0  0  0  0  0  0  0  0  0  0
   -7.8543   -3.6380    0.0000 H   0  0  0  0  0  0  0  0  0  0  0  0
   -8.9173   -3.7608    0.0000 H   0  0  0  0  0  0  0  0  0  0  0  0
   -9.5243   -5.6965    0.0000 H   0  0  0  0  0  0  0  0  0  0  0  0
  -10.1620   -4.8373    0.0000 H   0  0  0  0  0  0  0  0  0  0  0  0
   -9.1656   -3.0702    0.0000 H   0  0  0  0  0  0  0  0  0  0  0  0
  -10.2286   -3.1930    0.0000 H   0  0  0  0  0  0  0  0  0  0  0  0
  -10.8016   -5.0502    0.0000 H   0  0  0  0  0  0  0  0  0  0  0  0
   -9.5963   -2.6144    0.0000 H   0  0  0  0  0  0  0  0  0  0  0  0
  -12.1128   -4.4825    0.0000 H   0  0  0  0  0  0  0  0  0  0  0  0
  -16.0785   -2.5046    0.0000 H   0  0  0  0  0  0  0  0  0  0  0  0
  -15.8827   -4.1986    0.0000 H   0  0  0  0  0  0  0  0  0  0  0  0
  -12.2188   -1.4789    0.0000 H   0  0  0  0  0  0  0  0  0  0  0  0
  -13.7835   -0.8011    0.0000 H   0  0  0  0  0  0  0  0  0  0  0  0
   -7.2555   -3.6021    0.0000 H   0  0  0  0  0  0  0  0  0  0  0  0
   -5.4109   -3.3889    0.0000 H   0  0  0  0  0  0  0  0  0  0  0  0
   -1.4618   -5.0576    0.0000 H   0  0  0  0  0  0  0  0  0  0  0  0
   -0.8241   -5.9168    0.0000 H   0  0  0  0  0  0  0  0  0  0  0  0
   -2.4582   -6.8247    0.0000 H   0  0  0  0  0  0  0  0  0  0  0  0
   -2.6867   -7.5703    0.0000 H   0  0  0  0  0  0  0  0  0  0  0  0
   -1.2135   -5.7481    0.0000 H   0  0  0  0  0  0  0  0  0  0  0  0
    0.7157   -5.7389    0.0000 H   0  0  0  0  0  0  0  0  0  0  0  0
   -1.1469   -7.3925    0.0000 H   0  0  0  0  0  0  0  0  0  0  0  0
   -1.3754   -8.1381    0.0000 H   0  0  0  0  0  0  0  0  0  0  0  0
    0.0978   -6.3159    0.0000 H   0  0  0  0  0  0  0  0  0  0  0  0
    2.0270   -6.3067    0.0000 H   0  0  0  0  0  0  0  0  0  0  0  0
    0.8021   -8.8194    0.0000 H   0  0  0  0  0  0  0  0  0  0  0  0
    1.8650   -8.6967    0.0000 H   0  0  0  0  0  0  0  0  0  0  0  0
    2.6250   -8.5218    0.0000 H   0  0  0  0  0  0  0  0  0  0  0  0
  1  2  1  0  0  0  0
  1 47  1  0  0  0  0
  1 48  1  0  0  0  0
  1 49  1  0  0  0  0
  2  3  1  0  0  0  0
  2 50  1  0  0  0  0
  2 51  1  0  0  0  0
  3  4  1  0  0  0  0
  3 52  1  0  0  0  0
  3 53  1  0  0  0  0
  4  5  1  0  0  0  0
  4 54  1  0  0  0  0
  4 55  1  0  0  0  0
  5  6  1  0  0  0  0
  5 56  1  0  0  0  0
  5 57  1  0  0  0  0
  6  7  1  0  0  0  0
  6 58  1  0  0  0  0
  6 59  1  0  0  0  0
  7  8  1  0  0  0  0
  7 36  1  0  0  0  0
  8  9  1  0  0  0  0
  8 60  1  0  0  0  0
  8 61  1  0  0  0  0
  9 10  1  0  0  0  0
  9 62  1  0  0  0  0
  9 63  1  0  0  0  0
 10 11  1  0  0  0  0
 11 12  2  0  0  0  0
 11 35  1  0  0  0  0
 12 13  1  0  0  0  0
 12 64  1  0  0  0  0
 13 14  2  0  0  0  0
 13 65  1  0  0  0  0
 14 15  1  0  0  0  0
 14 34  1  0  0  0  0
 15 16  1  0  0  0  0
 15 66  1  0  0  0  0
 15 67  1  0  0  0  0
 16 17  1  0  0  0  0
 16 68  1  0  0  0  0
 16 69  1  0  0  0  0
 17 18  1  0  0  0  0
 17 70  1  0  0  0  0
 17 71  1  0  0  0  0
 18 19  1  0  0  0  0
 18 72  1  0  0  0  0
 18 73  1  0  0  0  0
 19 20  1  0  0  0  0
 19 74  1  0  0  0  0
 20 21  2  0  0  0  0
 20 22  1  0  0  0  0
 21 75  1  0  0  0  0
 22 23  1  0  0  0  0
 22 76  1  0  0  0  0
 23 24  2  0  0  0  0
 23 25  1  0  0  0  0
 25 26  2  0  0  0  0
 25 32  1  0  0  0  0
 26 27  1  0  0  0  0
 27 28  1  0  0  0  0
 27 29  2  0  0  0  0
 29 30  1  0  0  0  0
 29 31  1  0  0  0  0
 30 77  1  0  0  0  0
 30 78  1  0  0  0  0
 31 32  2  0  0  0  0
 32 33  1  0  0  0  0
 33 79  1  0  0  0  0
 33 80  1  0  0  0  0
 34 35  2  0  0  0  0
 34 81  1  0  0  0  0
 35 82  1  0  0  0  0
 36 83  1  0  0  0  0
 36 84  1  0  0  0  0
 37 36  1  0  0  0  0
 37 38  1  0  0  0  0
 37 85  1  6  0  0  0
 38 86  1  0  0  0  0
 39 37  1  0  0  0  0
 39 40  1  0  0  0  0
 39 41  1  0  0  0  0
 39 87  1  6  0  0  0
 40 88  1  0  0  0  0
 41 42  1  0  0  0  0
 41 43  1  0  0  0  0
 41 89  1  6  0  0  0
 42 90  1  0  0  0  0
 43 44  1  0  0  0  0
 43 45  1  0  0  0  0
 43 91  1  1  0  0  0
 44 92  1  0  0  0  0
 45 46  1  0  0  0  0
 45 93  1  0  0  0  0
 45 94  1  0  0  0  0
 46 95  1  0  0  0  0
M  END
>  <DRUGBANK_ID>
DB18042

>  <COMMON_NAME>
Idrevloride

>  <CAS_NUMBER>
1416973-63-1

>  <UNII>
NY2J56S3YA

>  <SYNONYMS>
3,5-diamino-6-chloro-N-(N-(4-(4-(2-(hexyl((2S,3R,4R, 5R)-2,3,4,5,6-pentahydroxyhexyl)amino)ethoxy)phenyl)butyl)-carbamimidoyl)pyrazine-2-carboxamide; 3,5-diamino-6-chloro-n-(n-(4-(4-(2-(hexyl((2s,3r,4r,5r)-2,3,4,5,6-pentahydroxylhexyl)amino)ethoxy)phenyl)butyl)-carbamimidoyl)pyrazine-2-carboxamide; D-glucitol, 1-deoxy-1-((2-(4-(4-(((((3,5-diamino-6-chloro-2-pyrazinyl)carbonyl)amino)iminomethyl)amino)butyl)phenoxy)ethyl)hexylamino)-

$$$$
