S80
 OpenBabel10282417072D

 66 66  0  0  0  0  0  0  0  0999 V2000
    1.6751   -0.9662    0.0000 C   0  0  0  0  0  0  0  0  0  0  0  0
    1.9765   -0.1982    0.0000 O   0  0  0  0  0  0  0  0  0  0  0  0
    2.2362   -1.5710    0.0000 N   0  0  0  0  0  0  0  0  0  0  0  0
    2.1133   -2.3868    0.0000 C   0  0  0  0  0  0  0  0  0  0  0  0
    1.3988   -2.7993    0.0000 C   0  0  0  0  0  0  0  0  0  0  0  0
    0.6308   -2.4978    0.0000 C   0  0  0  0  0  0  0  0  0  0  0  0
    0.3876   -1.7095    0.0000 C   0  0  0  0  0  0  0  0  0  0  0  0
    0.8524   -1.0279    0.0000 C   0  0  2  0  0  0  0  0  0  0  0  0
    0.4399   -0.3134    0.0000 N   0  0  0  0  0  0  0  0  0  0  0  0
   -0.3851   -0.3134    0.0000 C   0  0  0  0  0  0  0  0  0  0  0  0
   -0.7976    0.4011    0.0000 C   0  0  1  0  0  0  0  0  0  0  0  0
   -1.6226    0.4011    0.0000 C   0  0  1  0  0  0  0  0  0  0  0  0
   -2.0351   -0.3134    0.0000 C   0  0  0  0  0  0  0  0  0  0  0  0
   -2.8601   -0.3134    0.0000 O   0  0  0  0  0  0  0  0  0  0  0  0
   -1.6226   -1.0279    0.0000 N   0  0  0  0  0  0  0  0  0  0  0  0
   -2.0351   -1.7423    0.0000 O   0  0  0  0  0  0  0  0  0  0  0  0
   -2.0351    1.1156    0.0000 C   0  0  0  0  0  0  0  0  0  0  0  0
   -2.8601    1.1156    0.0000 C   0  0  0  0  0  0  0  0  0  0  0  0
   -3.2726    1.8300    0.0000 C   0  0  0  0  0  0  0  0  0  0  0  0
   -4.0976    1.8300    0.0000 O   0  0  0  0  0  0  0  0  0  0  0  0
   -0.3851    1.1156    0.0000 C   0  0  0  0  0  0  0  0  0  0  0  0
   -0.7976    1.8300    0.0000 C   0  0  0  0  0  0  0  0  0  0  0  0
   -1.6226    1.8300    0.0000 C   0  0  0  0  0  0  0  0  0  0  0  0
   -0.3851    2.5445    0.0000 C   0  0  0  0  0  0  0  0  0  0  0  0
   -0.7976   -1.0279    0.0000 O   0  0  0  0  0  0  0  0  0  0  0  0
    3.0246   -1.3278    0.0000 C   0  0  0  0  0  0  0  0  0  0  0  0
    3.2081   -0.5235    0.0000 C   0  0  0  0  0  0  0  0  0  0  0  0
    3.9965   -0.2803    0.0000 O   0  0  0  0  0  0  0  0  0  0  0  0
    4.1801    0.5240    0.0000 C   0  0  0  0  0  0  0  0  0  0  0  0
    1.1252   -0.5116    0.0000 H   0  0  0  0  0  0  0  0  0  0  0  0
   -0.8990   -0.1740    0.0000 H   0  0  0  0  0  0  0  0  0  0  0  0
   -1.5212   -0.1740    0.0000 H   0  0  0  0  0  0  0  0  0  0  0  0
    2.9974   -2.9895    0.0000 H   0  0  0  0  0  0  0  0  0  0  0  0
    2.0733   -3.4561    0.0000 H   0  0  0  0  0  0  0  0  0  0  0  0
    1.4787   -3.8663    0.0000 H   0  0  0  0  0  0  0  0  0  0  0  0
    0.5378   -3.4346    0.0000 H   0  0  0  0  0  0  0  0  0  0  0  0
   -0.1536   -3.2256    0.0000 H   0  0  0  0  0  0  0  0  0  0  0  0
   -0.4027   -2.2209    0.0000 H   0  0  0  0  0  0  0  0  0  0  0  0
   -0.6704   -1.5500    0.0000 H   0  0  0  0  0  0  0  0  0  0  0  0
   -0.0402   -0.7288    0.0000 H   0  0  0  0  0  0  0  0  0  0  0  0
    0.9322    0.5392    0.0000 H   0  0  0  0  0  0  0  0  0  0  0  0
   -0.6381   -1.0279    0.0000 H   0  0  0  0  0  0  0  0  0  0  0  0
   -3.0051   -1.7423    0.0000 H   0  0  0  0  0  0  0  0  0  0  0  0
   -1.5001    2.0422    0.0000 H   0  0  0  0  0  0  0  0  0  0  0  0
   -2.5701    2.0422    0.0000 H   0  0  0  0  0  0  0  0  0  0  0  0
   -3.3951    0.1889    0.0000 H   0  0  0  0  0  0  0  0  0  0  0  0
   -3.9301    1.1156    0.0000 H   0  0  0  0  0  0  0  0  0  0  0  0
   -2.7376    2.7567    0.0000 H   0  0  0  0  0  0  0  0  0  0  0  0
   -3.8076    2.7566    0.0000 H   0  0  0  0  0  0  0  0  0  0  0  0
   -4.5826    2.6700    0.0000 H   0  0  0  0  0  0  0  0  0  0  0  0
    0.6849    1.1156    0.0000 H   0  0  0  0  0  0  0  0  0  0  0  0
    0.1499    2.0423    0.0000 H   0  0  0  0  0  0  0  0  0  0  0  0
   -1.3326    2.7566    0.0000 H   0  0  0  0  0  0  0  0  0  0  0  0
   -2.1576    2.7566    0.0000 H   0  0  0  0  0  0  0  0  0  0  0  0
   -2.1576    0.9034    0.0000 H   0  0  0  0  0  0  0  0  0  0  0  0
   -2.6926    1.8300    0.0000 H   0  0  0  0  0  0  0  0  0  0  0  0
    0.6849    2.5445    0.0000 H   0  0  0  0  0  0  0  0  0  0  0  0
   -0.9201    3.4711    0.0000 H   0  0  0  0  0  0  0  0  0  0  0  0
    0.1499    3.4712    0.0000 H   0  0  0  0  0  0  0  0  0  0  0  0
    3.8090   -2.0555    0.0000 H   0  0  0  0  0  0  0  0  0  0  0  0
    4.0470   -1.0123    0.0000 H   0  0  0  0  0  0  0  0  0  0  0  0
    2.4237    0.2042    0.0000 H   0  0  0  0  0  0  0  0  0  0  0  0
    3.4462    0.5197    0.0000 H   0  0  0  0  0  0  0  0  0  0  0  0
    5.2026    0.8394    0.0000 H   0  0  0  0  0  0  0  0  0  0  0  0
    3.3958    1.2518    0.0000 H   0  0  0  0  0  0  0  0  0  0  0  0
    4.4182    1.5672    0.0000 H   0  0  0  0  0  0  0  0  0  0  0  0
  1  2  2  0  0  0  0
  1  3  1  0  0  0  0
  1  8  1  0  0  0  0
  3  4  1  0  0  0  0
  3 26  1  0  0  0  0
  4  5  1  0  0  0  0
  4 33  1  0  0  0  0
  4 34  1  0  0  0  0
  5  6  1  0  0  0  0
  5 35  1  0  0  0  0
  5 36  1  0  0  0  0
  6  7  1  0  0  0  0
  6 37  1  0  0  0  0
  6 38  1  0  0  0  0
  7  8  1  0  0  0  0
  7 39  1  0  0  0  0
  7 40  1  0  0  0  0
  8  9  1  0  0  0  0
  8 30  1  1  0  0  0
  9 10  1  0  0  0  0
  9 41  1  0  0  0  0
 10 11  1  0  0  0  0
 10 25  2  0  0  0  0
 11 12  1  0  0  0  0
 11 21  1  0  0  0  0
 11 31  1  6  0  0  0
 12 13  1  0  0  0  0
 12 17  1  0  0  0  0
 12 32  1  6  0  0  0
 13 14  2  0  0  0  0
 13 15  1  0  0  0  0
 15 16  1  0  0  0  0
 15 42  1  0  0  0  0
 16 43  1  0  0  0  0
 17 18  1  0  0  0  0
 17 44  1  0  0  0  0
 17 45  1  0  0  0  0
 18 19  1  0  0  0  0
 18 46  1  0  0  0  0
 18 47  1  0  0  0  0
 19 20  1  0  0  0  0
 19 48  1  0  0  0  0
 19 49  1  0  0  0  0
 20 50  1  0  0  0  0
 21 22  1  0  0  0  0
 21 51  1  0  0  0  0
 21 52  1  0  0  0  0
 22 23  1  0  0  0  0
 22 24  1  0  0  0  0
 22 53  1  0  0  0  0
 23 54  1  0  0  0  0
 23 55  1  0  0  0  0
 23 56  1  0  0  0  0
 24 57  1  0  0  0  0
 24 58  1  0  0  0  0
 24 59  1  0  0  0  0
 26 27  1  0  0  0  0
 26 60  1  0  0  0  0
 26 61  1  0  0  0  0
 27 28  1  0  0  0  0
 27 62  1  0  0  0  0
 27 63  1  0  0  0  0
 28 29  1  0  0  0  0
 29 64  1  0  0  0  0
 29 65  1  0  0  0  0
 29 66  1  0  0  0  0
M  END
>  <DRUGBANK_ID>
DB02090

>  <SECONDARY_ACCESSION_NUMBERS>
EXPT02835

>  <COMMON_NAME>
A Disubstituted Succinyl Caprolactam Hydroxymate Mmp3inhibitor

$$$$
