
 OpenBabel10282417072D

 49 52  0  0  1  0  0  0  0  0999 V2000
   23.3972  -11.4754    0.0000 C   0  0  0  0  0  0  0  0  0  0  0  0
   23.3972  -12.3004    0.0000 C   0  0  0  0  0  0  0  0  0  0  0  0
   24.1117  -12.7129    0.0000 C   0  0  0  0  0  0  0  0  0  0  0  0
   24.8261  -12.3004    0.0000 C   0  0  0  0  0  0  0  0  0  0  0  0
   24.8261  -11.4754    0.0000 C   0  0  2  0  0  0  0  0  0  0  0  0
   24.1117  -11.0629    0.0000 C   0  0  0  0  0  0  0  0  0  0  0  0
   25.5406  -12.7129    0.0000 C   0  0  0  0  0  0  0  0  0  0  0  0
   26.2550  -12.3004    0.0000 C   0  0  0  0  0  0  0  0  0  0  0  0
   26.2550  -11.4754    0.0000 C   0  0  2  0  0  0  0  0  0  0  0  0
   25.5406  -11.0629    0.0000 C   0  0  2  0  0  0  0  0  0  0  0  0
   26.9695  -11.0629    0.0000 C   0  0  1  0  0  0  0  0  0  0  0  0
   26.9695  -10.2379    0.0000 C   0  0  2  0  0  0  0  0  0  0  0  0
   26.2550   -9.8254    0.0000 C   0  0  0  0  0  0  0  0  0  0  0  0
   25.5406  -10.2379    0.0000 C   0  0  0  0  0  0  0  0  0  0  0  0
   27.7542  -11.3178    0.0000 C   0  0  0  0  0  0  0  0  0  0  0  0
   28.2391  -10.6504    0.0000 C   0  0  0  0  0  0  0  0  0  0  0  0
   27.7542   -9.9829    0.0000 C   0  0  1  0  0  0  0  0  0  0  0  0
   22.6827  -12.7129    0.0000 O   0  0  0  0  0  0  0  0  0  0  0  0
   27.0558   -9.4174    0.0000 C   0  0  0  0  0  0  0  0  0  0  0  0
   28.0091   -9.1983    0.0000 O   0  0  0  0  0  0  0  0  0  0  0  0
   25.5406  -11.8879    0.0000 H   0  0  0  0  0  0  0  0  0  0  0  0
   24.8261  -10.6504    0.0000 C   0  0  0  0  0  0  0  0  0  0  0  0
   26.2550  -10.6504    0.0000 H   0  0  0  0  0  0  0  0  0  0  0  0
   27.0558  -11.8834    0.0000 H   0  0  0  0  0  0  0  0  0  0  0  0
   22.4706  -10.9404    0.0000 H   0  0  0  0  0  0  0  0  0  0  0  0
   23.3972  -10.4054    0.0000 H   0  0  0  0  0  0  0  0  0  0  0  0
   24.1117  -13.7449    0.0000 H   0  0  0  0  0  0  0  0  0  0  0  0
   24.1117   -9.9929    0.0000 H   0  0  0  0  0  0  0  0  0  0  0  0
   23.1851  -10.5279    0.0000 H   0  0  0  0  0  0  0  0  0  0  0  0
   25.5406  -13.7829    0.0000 H   0  0  0  0  0  0  0  0  0  0  0  0
   26.4673  -13.2479    0.0000 H   0  0  0  0  0  0  0  0  0  0  0  0
   27.1817  -12.8354    0.0000 H   0  0  0  0  0  0  0  0  0  0  0  0
   27.1816  -11.7654    0.0000 H   0  0  0  0  0  0  0  0  0  0  0  0
   26.2550   -8.7554    0.0000 H   0  0  0  0  0  0  0  0  0  0  0  0
   25.3283   -9.2904    0.0000 H   0  0  0  0  0  0  0  0  0  0  0  0
   24.6139   -9.7029    0.0000 H   0  0  0  0  0  0  0  0  0  0  0  0
   24.6140  -10.7729    0.0000 H   0  0  0  0  0  0  0  0  0  0  0  0
   28.0849  -12.3354    0.0000 H   0  0  0  0  0  0  0  0  0  0  0  0
   28.8110  -11.4852    0.0000 H   0  0  0  0  0  0  0  0  0  0  0  0
   29.3091  -10.6504    0.0000 H   0  0  0  0  0  0  0  0  0  0  0  0
   28.7249   -9.6970    0.0000 H   0  0  0  0  0  0  0  0  0  0  0  0
   28.8110   -9.8155    0.0000 H   0  0  0  0  0  0  0  0  0  0  0  0
   28.0333   -8.9823    0.0000 H   0  0  0  0  0  0  0  0  0  0  0  0
   26.1902   -8.7884    0.0000 H   0  0  0  0  0  0  0  0  0  0  0  0
   27.1677   -8.3533    0.0000 H   0  0  0  0  0  0  0  0  0  0  0  0
   28.9579   -8.9966    0.0000 H   0  0  0  0  0  0  0  0  0  0  0  0
   25.7527  -10.1154    0.0000 H   0  0  0  0  0  0  0  0  0  0  0  0
   23.8995  -10.1154    0.0000 H   0  0  0  0  0  0  0  0  0  0  0  0
   24.8261   -9.5804    0.0000 H   0  0  0  0  0  0  0  0  0  0  0  0
  1  2  1  0  0  0  0
  1 25  1  0  0  0  0
  1 26  1  0  0  0  0
  2  3  1  0  0  0  0
  2 18  2  0  0  0  0
  3  4  2  0  0  0  0
  3 27  1  0  0  0  0
  4  5  1  0  0  0  0
  4  7  1  0  0  0  0
  5  6  1  0  0  0  0
  5 22  1  1  0  0  0
  6  1  1  0  0  0  0
  6 28  1  0  0  0  0
  6 29  1  0  0  0  0
  7  8  1  0  0  0  0
  7 30  1  0  0  0  0
  7 31  1  0  0  0  0
  8  9  1  0  0  0  0
  8 32  1  0  0  0  0
  8 33  1  0  0  0  0
  9 10  1  0  0  0  0
  9 11  1  0  0  0  0
  9 23  1  1  0  0  0
 10  5  1  0  0  0  0
 10 21  1  6  0  0  0
 11 12  1  0  0  0  0
 11 15  1  0  0  0  0
 11 24  1  6  0  0  0
 12 13  1  0  0  0  0
 12 19  1  1  0  0  0
 13 14  1  0  0  0  0
 13 34  1  0  0  0  0
 13 35  1  0  0  0  0
 14 10  1  0  0  0  0
 14 36  1  0  0  0  0
 14 37  1  0  0  0  0
 15 16  1  0  0  0  0
 15 38  1  0  0  0  0
 15 39  1  0  0  0  0
 16 17  1  0  0  0  0
 16 40  1  0  0  0  0
 16 41  1  0  0  0  0
 17 12  1  0  0  0  0
 17 20  1  0  0  0  0
 17 42  1  1  0  0  0
 19 43  1  0  0  0  0
 19 44  1  0  0  0  0
 19 45  1  0  0  0  0
 20 46  1  0  0  0  0
 22 47  1  0  0  0  0
 22 48  1  0  0  0  0
 22 49  1  0  0  0  0
M  END
>  <DRUGBANK_ID>
DB07768

>  <COMMON_NAME>
Epitestosterone

>  <CAS_NUMBER>
481-30-1

>  <UNII>
48L726977Z

>  <SYNONYMS>
(17-alpha)-17-Hydroxyandrost-4-en-3-one; 17-alpha-Hydroxyandrost-4-en-3-one; 17-alpha-Testosterone; 17-Epitestosterone; 17alpha-cis-Testosterone; cis-Testosterone; Isotestosterone

$$$$
