
 OpenBabel10282417072D

 39 40  0  0  0  0  0  0  0  0999 V2000
   -0.4703   -0.0969    0.0000 C   0  0  2  0  0  0  0  0  0  0  0  0
   -1.2004   -0.5094    0.0000 C   0  0  0  0  0  0  0  0  0  0  0  0
    0.3589   -0.5466    0.0000 N   0  0  0  0  0  0  0  0  0  0  0  0
    1.1138   -0.1588    0.0000 C   0  0  0  0  0  0  0  0  0  0  0  0
    1.8317   -0.5589    0.0000 C   0  0  0  0  0  0  0  0  0  0  0  0
   -0.4826    0.7157    0.0000 C   0  0  0  0  0  0  0  0  0  0  0  0
    2.5495   -0.1588    0.0000 C   0  0  0  0  0  0  0  0  0  0  0  0
    1.8317   -1.2892    0.0000 C   0  0  0  0  0  0  0  0  0  0  0  0
   -1.2004   -1.3511    0.0000 C   0  0  0  0  0  0  0  0  0  0  0  0
   -1.9225   -0.0969    0.0000 C   0  0  0  0  0  0  0  0  0  0  0  0
    1.1138    0.6662    0.0000 C   0  0  0  0  0  0  0  0  0  0  0  0
   -1.1757    1.0994    0.0000 O   0  0  0  0  0  0  0  0  0  0  0  0
    2.6361   -1.7306    0.0000 O   0  0  0  0  0  0  0  0  0  0  0  0
    0.1815    1.1160    0.0000 N   0  0  0  0  0  0  0  0  0  0  0  0
    2.5495    0.6662    0.0000 C   0  0  0  0  0  0  0  0  0  0  0  0
    1.8317    1.0870    0.0000 C   0  0  0  0  0  0  0  0  0  0  0  0
   -0.4621   -1.7553    0.0000 Br  0  0  0  0  0  0  0  0  0  0  0  0
   -1.9225    0.6043    0.0000 Br  0  0  0  0  0  0  0  0  0  0  0  0
   -2.6361   -1.3511    0.0000 C   0  0  0  0  0  0  0  0  0  0  0  0
   -1.9225   -1.7595    0.0000 C   0  0  0  0  0  0  0  0  0  0  0  0
   -2.6361   -0.5094    0.0000 C   0  0  0  0  0  0  0  0  0  0  0  0
    1.1592   -1.6977    0.0000 C   0  0  0  0  0  0  0  0  0  0  0  0
    1.8317    1.7595    0.0000 C   0  0  0  0  0  0  0  0  0  0  0  0
   -1.3985    0.4354    0.0000 H   0  0  0  0  0  0  0  0  0  0  0  0
    0.3479   -1.5310    0.0000 H   0  0  0  0  0  0  0  0  0  0  0  0
    3.4393   -0.6815    0.0000 H   0  0  0  0  0  0  0  0  0  0  0  0
    0.2184    1.1793    0.0000 H   0  0  0  0  0  0  0  0  0  0  0  0
    1.0432    0.6399    0.0000 H   0  0  0  0  0  0  0  0  0  0  0  0
    0.1629    2.1003    0.0000 H   0  0  0  0  0  0  0  0  0  0  0  0
    3.4449    1.1792    0.0000 H   0  0  0  0  0  0  0  0  0  0  0  0
   -3.5289   -1.8688    0.0000 H   0  0  0  0  0  0  0  0  0  0  0  0
   -1.9251   -2.7915    0.0000 H   0  0  0  0  0  0  0  0  0  0  0  0
   -3.5300    0.0064    0.0000 H   0  0  0  0  0  0  0  0  0  0  0  0
    0.2209   -1.1835    0.0000 H   0  0  0  0  0  0  0  0  0  0  0  0
    1.1830   -2.7674    0.0000 H   0  0  0  0  0  0  0  0  0  0  0  0
    0.2447   -2.2532    0.0000 H   0  0  0  0  0  0  0  0  0  0  0  0
    2.7583    2.2945    0.0000 H   0  0  0  0  0  0  0  0  0  0  0  0
    0.9051    2.2945    0.0000 H   0  0  0  0  0  0  0  0  0  0  0  0
    1.8317    2.8295    0.0000 H   0  0  0  0  0  0  0  0  0  0  0  0
  1  6  1  0  0  0  0
  1 24  1  6  0  0  0
  2  1  1  0  0  0  0
  3  1  1  0  0  0  0
  3 25  1  0  0  0  0
  4  3  1  0  0  0  0
  5  4  2  0  0  0  0
  7  5  1  0  0  0  0
  7 26  1  0  0  0  0
  8  5  1  0  0  0  0
  9  2  1  0  0  0  0
 10  2  2  0  0  0  0
 11  4  1  0  0  0  0
 11 27  1  0  0  0  0
 12  6  2  0  0  0  0
 13  8  2  0  0  0  0
 14  6  1  0  0  0  0
 14 28  1  0  0  0  0
 14 29  1  0  0  0  0
 15 16  1  0  0  0  0
 15  7  2  0  0  0  0
 15 30  1  0  0  0  0
 16 11  2  0  0  0  0
 17  9  1  0  0  0  0
 18 10  1  0  0  0  0
 19 21  2  0  0  0  0
 19 20  1  0  0  0  0
 19 31  1  0  0  0  0
 20  9  2  0  0  0  0
 20 32  1  0  0  0  0
 21 10  1  0  0  0  0
 21 33  1  0  0  0  0
 22  8  1  0  0  0  0
 22 34  1  0  0  0  0
 22 35  1  0  0  0  0
 22 36  1  0  0  0  0
 23 16  1  0  0  0  0
 23 37  1  0  0  0  0
 23 38  1  0  0  0  0
 23 39  1  0  0  0  0
M  END
>  <DRUGBANK_ID>
DB07327

>  <COMMON_NAME>
R-95845

>  <CAS_NUMBER>
163435-77-6

>  <UNII>
X1KA97Q99G

$$$$
