
 OpenBabel10282417072D

 28 30  0  0  1  0  0  0  0  0999 V2000
   -1.1670   -0.3348    0.0000 C   0  0  0  0  0  0  0  0  0  0  0  0
   -0.3968   -0.0390    0.0000 C   0  0  0  0  0  0  0  0  0  0  0  0
   -1.2959   -1.1496    0.0000 C   0  0  0  0  0  0  0  0  0  0  0  0
    1.7132   -0.1214    0.0000 C   0  0  0  0  0  0  0  0  0  0  0  0
    1.6290   -1.9119    0.0000 C   0  0  0  0  0  0  0  0  0  0  0  0
    1.2248   -1.5105    0.0000 C   0  0  0  0  0  0  0  0  0  0  0  0
    0.6220   -0.9357    0.0000 C   0  0  0  0  0  0  0  0  0  0  0  0
    1.5820   -0.9250    0.0000 C   0  0  1  0  0  0  0  0  0  0  0  0
    1.1634   -0.5574    0.0000 C   0  0  2  0  0  0  0  0  0  0  0  0
    0.2444   -0.5581    0.0000 C   0  0  0  0  0  0  0  0  0  0  0  0
   -0.6547   -1.6687    0.0000 C   0  0  0  0  0  0  0  0  0  0  0  0
    0.8127   -2.0914    0.0000 N   0  0  0  0  0  0  0  0  0  0  0  0
    0.1154   -1.3730    0.0000 N   0  0  0  0  0  0  0  0  0  0  0  0
   -0.7837   -2.4836    0.0000 O   0  0  0  0  0  0  0  0  0  0  0  0
    2.1480   -0.3248    0.0000 H   0  0  0  0  0  0  0  0  0  0  0  0
    1.4875    0.2013    0.0000 H   0  0  0  0  0  0  0  0  0  0  0  0
   -1.9691    0.3145    0.0000 H   0  0  0  0  0  0  0  0  0  0  0  0
   -0.2355    0.9803    0.0000 H   0  0  0  0  0  0  0  0  0  0  0  0
   -2.2593   -1.5196    0.0000 H   0  0  0  0  0  0  0  0  0  0  0  0
    2.2551    0.8012    0.0000 H   0  0  0  0  0  0  0  0  0  0  0  0
    0.9057    0.5807    0.0000 H   0  0  0  0  0  0  0  0  0  0  0  0
    2.4786   -2.5623    0.0000 H   0  0  0  0  0  0  0  0  0  0  0  0
    1.3971   -2.9565    0.0000 H   0  0  0  0  0  0  0  0  0  0  0  0
    2.2542   -1.8024    0.0000 H   0  0  0  0  0  0  0  0  0  0  0  0
    1.5803   -2.5197    0.0000 H   0  0  0  0  0  0  0  0  0  0  0  0
    0.2434    0.0651    0.0000 H   0  0  0  0  0  0  0  0  0  0  0  0
   -0.4151   -0.6725    0.0000 H   0  0  0  0  0  0  0  0  0  0  0  0
   -0.0376   -2.6547    0.0000 H   0  0  0  0  0  0  0  0  0  0  0  0
  1 17  1  0  0  0  0
  2  1  1  0  0  0  0
  2 18  1  0  0  0  0
  3  1  2  0  0  0  0
  3 19  1  0  0  0  0
  4 20  1  0  0  0  0
  4 21  1  0  0  0  0
  5 22  1  0  0  0  0
  5 23  1  0  0  0  0
  6 24  1  0  0  0  0
  6 25  1  0  0  0  0
  7 26  1  0  0  0  0
  7 27  1  0  0  0  0
  8  4  1  0  0  0  0
  8  5  1  0  0  0  0
  8  7  1  0  0  0  0
  8 15  1  6  0  0  0
  9  4  1  0  0  0  0
  9  6  1  0  0  0  0
  9 16  1  1  0  0  0
 10  2  2  0  0  0  0
 10  9  1  0  0  0  0
 11  3  1  0  0  0  0
 12  5  1  0  0  0  0
 12  6  1  0  0  0  0
 12 28  1  0  0  0  0
 13  7  1  0  0  0  0
 13 10  1  0  0  0  0
 13 11  1  0  0  0  0
 14 11  2  0  0  0  0
M  END
>  <DRUGBANK_ID>
DB09028

>  <COMMON_NAME>
Cytisine

>  <CAS_NUMBER>
485-35-8

>  <UNII>
53S5U404NU

>  <SYNONYMS>
(1R,5S)-1,2,3,4,5,6-Hexahydro-1,5-methano-8H-pyrido[1,2a][1,5]diazocin-8-one; Baptitoxine; Sophorine; Ulexin

$$$$
