
 OpenBabel10282417072D

 67 70  0  0  1  0  0  0  0  0999 V2000
    5.2703  -10.2896    0.0000 C   0  0  0  0  0  0  0  0  0  0  0  0
    6.0907  -10.2033    0.0000 C   0  0  2  0  0  0  0  0  0  0  0  0
    6.4263   -9.4496    0.0000 N   0  0  0  0  0  0  0  0  0  0  0  0
    5.9414   -8.7822    0.0000 P   0  0  3  0  0  0  0  0  0  0  0  0
    6.6088   -8.2973    0.0000 O   0  0  0  0  0  0  0  0  0  0  0  0
    5.4565   -8.1148    0.0000 O   0  0  0  0  0  0  0  0  0  0  0  0
    5.7920   -7.3611    0.0000 C   0  0  0  0  0  0  0  0  0  0  0  0
    5.3071   -6.6937    0.0000 C   0  0  1  0  0  0  0  0  0  0  0  0
    4.4821   -6.6937    0.0000 O   0  0  0  0  0  0  0  0  0  0  0  0
    4.2272   -5.9090    0.0000 C   0  0  1  0  0  0  0  0  0  0  0  0
    3.4425   -5.6541    0.0000 N   0  0  0  0  0  0  0  0  0  0  0  0
    2.8294   -6.2061    0.0000 C   0  0  0  0  0  0  0  0  0  0  0  0
    2.0448   -5.9512    0.0000 C   0  0  0  0  0  0  0  0  0  0  0  0
    1.8733   -5.1442    0.0000 C   0  0  0  0  0  0  0  0  0  0  0  0
    1.0887   -4.8893    0.0000 N   0  0  0  0  0  0  0  0  0  0  0  0
    2.4864   -4.5922    0.0000 N   0  0  0  0  0  0  0  0  0  0  0  0
    3.2710   -4.8471    0.0000 C   0  0  0  0  0  0  0  0  0  0  0  0
    3.8841   -4.2951    0.0000 O   0  0  0  0  0  0  0  0  0  0  0  0
    4.8946   -5.4241    0.0000 C   0  0  0  0  0  0  0  0  0  0  0  0
    4.3426   -4.8110    0.0000 F   0  0  0  0  0  0  0  0  0  0  0  0
    5.4466   -4.8110    0.0000 F   0  0  0  0  0  0  0  0  0  0  0  0
    5.5620   -5.9090    0.0000 C   0  0  2  0  0  0  0  0  0  0  0  0
    6.3467   -5.6541    0.0000 O   0  0  0  0  0  0  0  0  0  0  0  0
    5.2739   -9.2671    0.0000 O   0  0  0  0  0  0  0  0  0  0  0  0
    4.5203   -8.9316    0.0000 C   0  0  0  0  0  0  0  0  0  0  0  0
    3.8528   -9.4165    0.0000 C   0  0  0  0  0  0  0  0  0  0  0  0
    3.0992   -9.0809    0.0000 C   0  0  0  0  0  0  0  0  0  0  0  0
    3.0129   -8.2605    0.0000 C   0  0  0  0  0  0  0  0  0  0  0  0
    3.6804   -7.7755    0.0000 C   0  0  0  0  0  0  0  0  0  0  0  0
    4.4340   -8.1111    0.0000 C   0  0  0  0  0  0  0  0  0  0  0  0
    6.5757  -10.8708    0.0000 C   0  0  0  0  0  0  0  0  0  0  0  0
    7.3961  -10.7845    0.0000 O   0  0  0  0  0  0  0  0  0  0  0  0
    6.2401  -11.6244    0.0000 O   0  0  0  0  0  0  0  0  0  0  0  0
    6.7250  -12.2919    0.0000 C   0  0  0  0  0  0  0  0  0  0  0  0
    6.3895  -13.0455    0.0000 C   0  0  0  0  0  0  0  0  0  0  0  0
    6.8744  -13.7130    0.0000 C   0  0  0  0  0  0  0  0  0  0  0  0
    6.5388  -14.4667    0.0000 C   0  0  0  0  0  0  0  0  0  0  0  0
    5.7184  -14.5529    0.0000 C   0  0  0  0  0  0  0  0  0  0  0  0
    5.2334  -13.8855    0.0000 C   0  0  0  0  0  0  0  0  0  0  0  0
    5.5690  -13.1318    0.0000 C   0  0  0  0  0  0  0  0  0  0  0  0
    4.6413   -9.4240    0.0000 H   0  0  0  0  0  0  0  0  0  0  0  0
    4.8352  -11.2671    0.0000 H   0  0  0  0  0  0  0  0  0  0  0  0
    4.2062  -10.4015    0.0000 H   0  0  0  0  0  0  0  0  0  0  0  0
    5.4617   -9.3377    0.0000 H   0  0  0  0  0  0  0  0  0  0  0  0
    7.4407   -9.3430    0.0000 H   0  0  0  0  0  0  0  0  0  0  0  0
    6.8561   -7.2492    0.0000 H   0  0  0  0  0  0  0  0  0  0  0  0
    6.2272   -6.3836    0.0000 H   0  0  0  0  0  0  0  0  0  0  0  0
    4.8213   -7.6471    0.0000 H   0  0  0  0  0  0  0  0  0  0  0  0
    3.4706   -6.6656    0.0000 H   0  0  0  0  0  0  0  0  0  0  0  0
    3.0440   -7.2155    0.0000 H   0  0  0  0  0  0  0  0  0  0  0  0
    1.2779   -6.6417    0.0000 H   0  0  0  0  0  0  0  0  0  0  0  0
    0.8840   -3.9263    0.0000 H   0  0  0  0  0  0  0  0  0  0  0  0
    0.3571   -5.5481    0.0000 H   0  0  0  0  0  0  0  0  0  0  0  0
    5.7294   -4.8522    0.0000 H   0  0  0  0  0  0  0  0  0  0  0  0
    7.0675   -6.3032    0.0000 H   0  0  0  0  0  0  0  0  0  0  0  0
    3.9606  -10.4429    0.0000 H   0  0  0  0  0  0  0  0  0  0  0  0
    2.2643   -9.6875    0.0000 H   0  0  0  0  0  0  0  0  0  0  0  0
    2.0701   -7.8408    0.0000 H   0  0  0  0  0  0  0  0  0  0  0  0
    3.5726   -6.7492    0.0000 H   0  0  0  0  0  0  0  0  0  0  0  0
    5.2689   -7.5045    0.0000 H   0  0  0  0  0  0  0  0  0  0  0  0
    7.7891  -12.1801    0.0000 H   0  0  0  0  0  0  0  0  0  0  0  0
    7.3539  -13.1575    0.0000 H   0  0  0  0  0  0  0  0  0  0  0  0
    7.9008  -13.6052    0.0000 H   0  0  0  0  0  0  0  0  0  0  0  0
    7.1454  -15.3016    0.0000 H   0  0  0  0  0  0  0  0  0  0  0  0
    5.2987  -15.4957    0.0000 H   0  0  0  0  0  0  0  0  0  0  0  0
    4.2071  -13.9934    0.0000 H   0  0  0  0  0  0  0  0  0  0  0  0
    4.9624  -12.2969    0.0000 H   0  0  0  0  0  0  0  0  0  0  0  0
  1 41  1  0  0  0  0
  1 42  1  0  0  0  0
  1 43  1  0  0  0  0
  2  1  1  0  0  0  0
  2  3  1  0  0  0  0
  2 31  1  0  0  0  0
  2 44  1  1  0  0  0
  3  4  1  0  0  0  0
  3 45  1  0  0  0  0
  4  5  2  0  0  0  0
  4  6  1  0  0  0  0
  4 24  1  0  0  0  0
  6  7  1  0  0  0  0
  7 46  1  0  0  0  0
  7 47  1  0  0  0  0
  8  7  1  0  0  0  0
  8  9  1  0  0  0  0
  8 22  1  0  0  0  0
  8 48  1  6  0  0  0
 10  9  1  0  0  0  0
 10 11  1  0  0  0  0
 10 19  1  0  0  0  0
 10 49  1  6  0  0  0
 11 12  1  0  0  0  0
 11 17  1  0  0  0  0
 12 13  2  0  0  0  0
 12 50  1  0  0  0  0
 13 14  1  0  0  0  0
 13 51  1  0  0  0  0
 14 15  1  0  0  0  0
 14 16  2  0  0  0  0
 15 52  1  0  0  0  0
 15 53  1  0  0  0  0
 16 17  1  0  0  0  0
 17 18  2  0  0  0  0
 19 20  1  0  0  0  0
 19 21  1  0  0  0  0
 22 19  1  0  0  0  0
 22 23  1  0  0  0  0
 22 54  1  1  0  0  0
 23 55  1  0  0  0  0
 24 25  1  0  0  0  0
 25 26  2  0  0  0  0
 25 30  1  0  0  0  0
 26 27  1  0  0  0  0
 26 56  1  0  0  0  0
 27 28  2  0  0  0  0
 27 57  1  0  0  0  0
 28 29  1  0  0  0  0
 28 58  1  0  0  0  0
 29 30  2  0  0  0  0
 29 59  1  0  0  0  0
 30 60  1  0  0  0  0
 31 32  2  0  0  0  0
 31 33  1  0  0  0  0
 33 34  1  0  0  0  0
 34 35  1  0  0  0  0
 34 61  1  0  0  0  0
 34 62  1  0  0  0  0
 35 36  2  0  0  0  0
 35 40  1  0  0  0  0
 36 37  1  0  0  0  0
 36 63  1  0  0  0  0
 37 38  2  0  0  0  0
 37 64  1  0  0  0  0
 38 39  1  0  0  0  0
 38 65  1  0  0  0  0
 39 40  2  0  0  0  0
 39 66  1  0  0  0  0
 40 67  1  0  0  0  0
M  END
>  <DRUGBANK_ID>
DB15057

>  <COMMON_NAME>
osgemcitabine palabenamide

>  <CAS_NUMBER>
840506-29-8

>  <UNII>
XCL1K2T28K

>  <SYNONYMS>
ACELARIN; BENZYL (2S)-2-((((2R,3R,5R)-5-(4-AMINO-2-OXO-PYRIMIDIN-1-YL)-4,4-DIFLUORO-3-HYDROXY-TETRAHYDROFURAN-2-YL)METHOXY-PHENOXY-PHOSPHORYL)AMINO)PROPANOATE; Fosgemcitabine palabenamide, p(rs)-; L-ALANINE, N-(2'-DEOXY-2',2'-DIFLUORO-P-PHENYL-5'-CYTIDYLYL)-, PHENYLMETHYL ESTER; L-Alanine, N-[[P(S)]-2?-deoxy-2?,2?-difluoro-P-phenyl-5?-cytidylyl]-, phenylmethyl ester; N-[[P(S)]-2?-deoxy-2?,2?-difluoro-P-phenyl-5?-cytidylyl]-L-alanine phenylmethyl ester

$$$$
