
 OpenBabel10282417072D

 11 10  0  0  1  0  0  0  0  0999 V2000
    2.0625   -0.7145    0.0000 C   0  0  0  0  0  0  0  0  0  0  0  0
    1.2375   -0.7145    0.0000 C   0  0  1  0  0  0  0  0  0  0  0  0
    0.8250   -1.4289    0.0000 Cl  0  0  0  0  0  0  0  0  0  0  0  0
    0.8250    0.0000    0.0000 C   0  0  0  0  0  0  0  0  0  0  0  0
    0.0000    0.0000    0.0000 Cl  0  0  0  0  0  0  0  0  0  0  0  0
    2.5975   -1.6411    0.0000 H   0  0  0  0  0  0  0  0  0  0  0  0
    2.5975    0.2121    0.0000 H   0  0  0  0  0  0  0  0  0  0  0  0
    3.1325   -0.7145    0.0000 H   0  0  0  0  0  0  0  0  0  0  0  0
    1.7725   -1.6412    0.0000 H   0  0  0  0  0  0  0  0  0  0  0  0
    1.3600    0.9266    0.0000 H   0  0  0  0  0  0  0  0  0  0  0  0
    0.2900    0.9266    0.0000 H   0  0  0  0  0  0  0  0  0  0  0  0
  1  2  1  0  0  0  0
  1  6  1  0  0  0  0
  1  7  1  0  0  0  0
  1  8  1  0  0  0  0
  2  3  1  0  0  0  0
  2  4  1  0  0  0  0
  2  9  1  6  0  0  0
  4  5  1  0  0  0  0
  4 10  1  0  0  0  0
  4 11  1  0  0  0  0
M  END
>  <DRUGBANK_ID>
DB01701

>  <SECONDARY_ACCESSION_NUMBERS>
EXPT00992

>  <COMMON_NAME>
1,2-Dichloro-Propane

>  <CAS_NUMBER>
78-87-5

>  <UNII>
RRZ023OFWL

$$$$
