
 OpenBabel10282417072D

 82 84  0  0  1  0  0  0  0  0999 V2000
    4.5080   -4.3480    0.0000 F   0  0  0  0  0  0  0  0  0  0  0  0
    6.6746    2.8947    0.0000 O   0  0  0  0  0  0  0  0  0  0  0  0
    5.9370    0.6021    0.0000 O   0  0  0  0  0  0  0  0  0  0  0  0
    6.6515    0.1896    0.0000 O   0  0  0  0  0  0  0  0  0  0  0  0
    2.3645    2.6646    0.0000 O   0  0  0  0  0  0  0  0  0  0  0  0
    8.7949   -1.8730    0.0000 O   0  0  0  0  0  0  0  0  0  0  0  0
    1.6500    1.4271    0.0000 O   0  0  0  0  0  0  0  0  0  0  0  0
   10.8152   -0.3579    0.0000 O   0  0  0  0  0  0  0  0  0  0  0  0
    5.6350    3.9342    0.0000 N   0  0  0  0  0  0  0  0  0  0  0  0
    4.5080    0.6021    0.0000 N   0  0  0  0  0  0  0  0  0  0  0  0
    8.0804   -0.6354    0.0000 N   0  0  0  0  0  0  0  0  0  0  0  0
   10.2631   -0.9710    0.0000 N   0  0  0  0  0  0  0  0  0  0  0  0
    5.2224    2.6646    0.0000 C   0  0  2  0  0  0  0  0  0  0  0  0
    5.2224    1.8396    0.0000 C   0  0  0  0  0  0  0  0  0  0  0  0
    4.5550    3.1496    0.0000 C   0  0  0  0  0  0  0  0  0  0  0  0
    4.5080    1.4271    0.0000 C   0  0  1  0  0  0  0  0  0  0  0  0
    4.8099    3.9342    0.0000 C   0  0  0  0  0  0  0  0  0  0  0  0
    5.8899    3.1496    0.0000 C   0  0  0  0  0  0  0  0  0  0  0  0
    5.2224   -0.6354    0.0000 C   0  0  2  0  0  0  0  0  0  0  0  0
    5.9370   -1.0479    0.0000 C   0  0  0  0  0  0  0  0  0  0  0  0
    5.2224    0.1896    0.0000 C   0  0  0  0  0  0  0  0  0  0  0  0
    7.3659   -1.0479    0.0000 C   0  0  1  0  0  0  0  0  0  0  0  0
    4.5080   -1.0479    0.0000 C   0  0  0  0  0  0  0  0  0  0  0  0
    7.3659   -1.8730    0.0000 C   0  0  0  0  0  0  0  0  0  0  0  0
    6.6515   -0.6354    0.0000 C   0  0  0  0  0  0  0  0  0  0  0  0
    3.7935    1.8396    0.0000 C   0  0  0  0  0  0  0  0  0  0  0  0
    4.5080   -1.8730    0.0000 C   0  0  0  0  0  0  0  0  0  0  0  0
    6.6515   -2.2855    0.0000 C   0  0  0  0  0  0  0  0  0  0  0  0
    8.0804   -2.2855    0.0000 C   0  0  0  0  0  0  0  0  0  0  0  0
    3.0791    1.4271    0.0000 C   0  0  0  0  0  0  0  0  0  0  0  0
    5.2224   -2.2855    0.0000 C   0  0  0  0  0  0  0  0  0  0  0  0
    3.7935   -2.2855    0.0000 C   0  0  0  0  0  0  0  0  0  0  0  0
    8.7949   -1.0479    0.0000 C   0  0  0  0  0  0  0  0  0  0  0  0
    2.3645    1.8396    0.0000 C   0  0  0  0  0  0  0  0  0  0  0  0
    5.2224   -3.1105    0.0000 C   0  0  0  0  0  0  0  0  0  0  0  0
    3.7935   -3.1105    0.0000 C   0  0  0  0  0  0  0  0  0  0  0  0
    9.5094   -0.6354    0.0000 C   0  0  0  0  0  0  0  0  0  0  0  0
    4.5080   -3.5230    0.0000 C   0  0  0  0  0  0  0  0  0  0  0  0
    9.5956    0.1851    0.0000 C   0  0  0  0  0  0  0  0  0  0  0  0
   10.4027    0.3566    0.0000 C   0  0  0  0  0  0  0  0  0  0  0  0
    1.6500    3.0772    0.0000 C   0  0  0  0  0  0  0  0  0  0  0  0
   10.7382    1.1103    0.0000 C   0  0  0  0  0  0  0  0  0  0  0  0
    1.6500    3.9022    0.0000 C   0  0  0  0  0  0  0  0  0  0  0  0
    6.2137    4.7307    0.0000 H   0  0  0  0  0  0  0  0  0  0  0  0
    3.6554    0.1099    0.0000 H   0  0  0  0  0  0  0  0  0  0  0  0
    8.0804    0.3491    0.0000 H   0  0  0  0  0  0  0  0  0  0  0  0
    4.2690    2.1789    0.0000 H   0  0  0  0  0  0  0  0  0  0  0  0
    6.1491    1.3046    0.0000 H   0  0  0  0  0  0  0  0  0  0  0  0
    5.2224    0.7696    0.0000 H   0  0  0  0  0  0  0  0  0  0  0  0
    3.5374    2.8190    0.0000 H   0  0  0  0  0  0  0  0  0  0  0  0
    3.7984    3.9062    0.0000 H   0  0  0  0  0  0  0  0  0  0  0  0
    5.4347    0.8921    0.0000 H   0  0  0  0  0  0  0  0  0  0  0  0
    4.1810    4.7998    0.0000 H   0  0  0  0  0  0  0  0  0  0  0  0
    3.7531    3.7668    0.0000 H   0  0  0  0  0  0  0  0  0  0  0  0
    6.1490   -0.1004    0.0000 H   0  0  0  0  0  0  0  0  0  0  0  0
    5.9370   -2.1179    0.0000 H   0  0  0  0  0  0  0  0  0  0  0  0
    6.8637   -1.5829    0.0000 H   0  0  0  0  0  0  0  0  0  0  0  0
    8.2925   -1.5829    0.0000 H   0  0  0  0  0  0  0  0  0  0  0  0
    3.5813   -0.5129    0.0000 H   0  0  0  0  0  0  0  0  0  0  0  0
    3.5814   -1.5829    0.0000 H   0  0  0  0  0  0  0  0  0  0  0  0
    7.3659   -2.9430    0.0000 H   0  0  0  0  0  0  0  0  0  0  0  0
    3.7935    2.8716    0.0000 H   0  0  0  0  0  0  0  0  0  0  0  0
    5.7248   -1.7505    0.0000 H   0  0  0  0  0  0  0  0  0  0  0  0
    6.6515   -3.3555    0.0000 H   0  0  0  0  0  0  0  0  0  0  0  0
    5.7249   -2.8205    0.0000 H   0  0  0  0  0  0  0  0  0  0  0  0
    8.0804   -3.3555    0.0000 H   0  0  0  0  0  0  0  0  0  0  0  0
    9.0070   -1.7505    0.0000 H   0  0  0  0  0  0  0  0  0  0  0  0
    9.0071   -2.8205    0.0000 H   0  0  0  0  0  0  0  0  0  0  0  0
    3.0792    0.3951    0.0000 H   0  0  0  0  0  0  0  0  0  0  0  0
    6.1161   -1.7695    0.0000 H   0  0  0  0  0  0  0  0  0  0  0  0
    2.8998   -1.7695    0.0000 H   0  0  0  0  0  0  0  0  0  0  0  0
    6.1161   -3.6265    0.0000 H   0  0  0  0  0  0  0  0  0  0  0  0
    2.8998   -3.6265    0.0000 H   0  0  0  0  0  0  0  0  0  0  0  0
    8.8287    0.8756    0.0000 H   0  0  0  0  0  0  0  0  0  0  0  0
    0.7233    2.5422    0.0000 H   0  0  0  0  0  0  0  0  0  0  0  0
    0.7234    3.6122    0.0000 H   0  0  0  0  0  0  0  0  0  0  0  0
   11.8023    1.2222    0.0000 H   0  0  0  0  0  0  0  0  0  0  0  0
   10.1092    1.9759    0.0000 H   0  0  0  0  0  0  0  0  0  0  0  0
   11.1733    2.0878    0.0000 H   0  0  0  0  0  0  0  0  0  0  0  0
    2.5766    4.4372    0.0000 H   0  0  0  0  0  0  0  0  0  0  0  0
    0.7234    4.4372    0.0000 H   0  0  0  0  0  0  0  0  0  0  0  0
    1.6500    4.9722    0.0000 H   0  0  0  0  0  0  0  0  0  0  0  0
  1 38  1  0  0  0  0
  2 18  2  0  0  0  0
  3 21  2  0  0  0  0
  4 25  2  0  0  0  0
  5 34  1  0  0  0  0
  5 41  1  0  0  0  0
  6 33  2  0  0  0  0
  7 34  2  0  0  0  0
  8 12  1  0  0  0  0
  8 40  1  0  0  0  0
  9 17  1  0  0  0  0
  9 18  1  0  0  0  0
  9 44  1  0  0  0  0
 10 21  1  0  0  0  0
 10 45  1  0  0  0  0
 11 33  1  0  0  0  0
 11 46  1  0  0  0  0
 12 37  2  0  0  0  0
 13 14  1  0  0  0  0
 13 15  1  0  0  0  0
 13 18  1  0  0  0  0
 13 47  1  1  0  0  0
 14 16  1  0  0  0  0
 14 48  1  0  0  0  0
 14 49  1  0  0  0  0
 15 17  1  0  0  0  0
 15 50  1  0  0  0  0
 15 51  1  0  0  0  0
 16 10  1  0  0  0  0
 16 26  1  0  0  0  0
 16 52  1  1  0  0  0
 17 53  1  0  0  0  0
 17 54  1  0  0  0  0
 19 20  1  0  0  0  0
 19 21  1  0  0  0  0
 19 23  1  0  0  0  0
 19 55  1  6  0  0  0
 20 25  1  0  0  0  0
 20 56  1  0  0  0  0
 20 57  1  0  0  0  0
 22 11  1  0  0  0  0
 22 24  1  0  0  0  0
 22 25  1  0  0  0  0
 22 58  1  6  0  0  0
 23 27  1  0  0  0  0
 23 59  1  0  0  0  0
 23 60  1  0  0  0  0
 24 28  1  0  0  0  0
 24 29  1  0  0  0  0
 24 61  1  0  0  0  0
 26 30  2  0  0  0  0
 26 62  1  0  0  0  0
 27 31  2  0  0  0  0
 27 32  1  0  0  0  0
 28 63  1  0  0  0  0
 28 64  1  0  0  0  0
 28 65  1  0  0  0  0
 29 66  1  0  0  0  0
 29 67  1  0  0  0  0
 29 68  1  0  0  0  0
 30 34  1  0  0  0  0
 30 69  1  0  0  0  0
 31 35  1  0  0  0  0
 31 70  1  0  0  0  0
 32 36  2  0  0  0  0
 32 71  1  0  0  0  0
 33 37  1  0  0  0  0
 35 38  2  0  0  0  0
 35 72  1  0  0  0  0
 36 38  1  0  0  0  0
 36 73  1  0  0  0  0
 37 39  1  0  0  0  0
 39 40  2  0  0  0  0
 39 74  1  0  0  0  0
 40 42  1  0  0  0  0
 41 43  1  0  0  0  0
 41 75  1  0  0  0  0
 41 76  1  0  0  0  0
 42 77  1  0  0  0  0
 42 78  1  0  0  0  0
 42 79  1  0  0  0  0
 43 80  1  0  0  0  0
 43 81  1  0  0  0  0
 43 82  1  0  0  0  0
M  END
>  <DRUGBANK_ID>
DB05102

>  <COMMON_NAME>
Rupintrivir

>  <CAS_NUMBER>
223537-30-2

>  <UNII>
RGE5K1Q5QW

>  <SYNONYMS>
Rupintrivir

$$$$
