N5B
 OpenBabel10282417072D

 30 32  0  0  0  0  0  0  0  0999 V2000
    1.1651   -1.2417    0.0000 C   0  0  0  0  0  0  0  0  0  0  0  0
    1.1651   -2.0667    0.0000 C   0  0  0  0  0  0  0  0  0  0  0  0
    0.4977   -0.7568    0.0000 C   0  0  0  0  0  0  0  0  0  0  0  0
    1.8326   -0.7568    0.0000 N   0  0  0  0  0  0  0  0  0  0  0  0
    1.5776   -2.7812    0.0000 C   0  0  0  0  0  0  0  0  0  0  0  0
    0.7526   -2.7812    0.0000 C   0  0  0  0  0  0  0  0  0  0  0  0
    0.7526    0.0278    0.0000 C   0  0  0  0  0  0  0  0  0  0  0  0
    1.5776    0.0278    0.0000 N   0  0  0  0  0  0  0  0  0  0  0  0
    0.2677    0.6953    0.0000 N   0  0  0  0  0  0  0  0  0  0  0  0
   -0.5528    0.6090    0.0000 C   0  0  0  0  0  0  0  0  0  0  0  0
   -1.0377    1.2765    0.0000 C   0  0  0  0  0  0  0  0  0  0  0  0
   -0.8883   -0.1446    0.0000 O   0  0  0  0  0  0  0  0  0  0  0  0
   -1.8582    1.1902    0.0000 C   0  0  0  0  0  0  0  0  0  0  0  0
   -0.7021    2.0302    0.0000 C   0  0  0  0  0  0  0  0  0  0  0  0
   -2.3431    1.8577    0.0000 C   0  0  0  0  0  0  0  0  0  0  0  0
   -1.1871    2.6976    0.0000 C   0  0  0  0  0  0  0  0  0  0  0  0
   -2.0075    2.6114    0.0000 C   0  0  0  0  0  0  0  0  0  0  0  0
    1.1651   -3.1367    0.0000 H   0  0  0  0  0  0  0  0  0  0  0  0
   -0.4838   -1.0757    0.0000 H   0  0  0  0  0  0  0  0  0  0  0  0
    2.5042   -3.3162    0.0000 H   0  0  0  0  0  0  0  0  0  0  0  0
    1.3007   -3.8147    0.0000 H   0  0  0  0  0  0  0  0  0  0  0  0
   -0.1740   -3.3162    0.0000 H   0  0  0  0  0  0  0  0  0  0  0  0
    1.0295   -3.8147    0.0000 H   0  0  0  0  0  0  0  0  0  0  0  0
    2.1562    0.8243    0.0000 H   0  0  0  0  0  0  0  0  0  0  0  0
    0.6681    1.5947    0.0000 H   0  0  0  0  0  0  0  0  0  0  0  0
   -2.2779    0.2474    0.0000 H   0  0  0  0  0  0  0  0  0  0  0  0
    0.3242    2.1381    0.0000 H   0  0  0  0  0  0  0  0  0  0  0  0
   -3.3695    1.7499    0.0000 H   0  0  0  0  0  0  0  0  0  0  0  0
   -0.7674    3.6404    0.0000 H   0  0  0  0  0  0  0  0  0  0  0  0
   -2.6141    3.4463    0.0000 H   0  0  0  0  0  0  0  0  0  0  0  0
  1  2  1  0  0  0  0
  1  3  1  0  0  0  0
  1  4  2  0  0  0  0
  2  5  1  0  0  0  0
  2  6  1  0  0  0  0
  2 18  1  0  0  0  0
  3  7  2  0  0  0  0
  3 19  1  0  0  0  0
  4  8  1  0  0  0  0
  5  6  1  0  0  0  0
  5 20  1  0  0  0  0
  5 21  1  0  0  0  0
  6 22  1  0  0  0  0
  6 23  1  0  0  0  0
  7  8  1  0  0  0  0
  7  9  1  0  0  0  0
  8 24  1  0  0  0  0
  9 10  1  0  0  0  0
  9 25  1  0  0  0  0
 10 11  1  0  0  0  0
 10 12  2  0  0  0  0
 11 13  2  0  0  0  0
 11 14  1  0  0  0  0
 13 15  1  0  0  0  0
 13 26  1  0  0  0  0
 14 16  2  0  0  0  0
 14 27  1  0  0  0  0
 15 17  2  0  0  0  0
 15 28  1  0  0  0  0
 16 17  1  0  0  0  0
 16 29  1  0  0  0  0
 17 30  1  0  0  0  0
M  END
>  <DRUGBANK_ID>
DB02647

>  <SECONDARY_ACCESSION_NUMBERS>
EXPT02278

>  <COMMON_NAME>
N-(5-Cyclopropyl-1h-Pyrazol-3-Yl)Benzamide

$$$$
