2A6
 OpenBabel10282417072D

 45 48  0  0  0  0  0  0  0  0999 V2000
    0.6470    1.4019    0.0000 C   0  0  0  0  0  0  0  0  0  0  0  0
   -2.0515    0.9894    0.0000 C   0  0  0  0  0  0  0  0  0  0  0  0
   -0.7819   -1.0731    0.0000 C   0  0  0  0  0  0  0  0  0  0  0  0
   -0.7819   -1.8981    0.0000 C   0  0  0  0  0  0  0  0  0  0  0  0
   -0.0674   -2.3106    0.0000 C   0  0  0  0  0  0  0  0  0  0  0  0
   -0.0674   -3.1356    0.0000 C   0  0  0  0  0  0  0  0  0  0  0  0
   -0.7819   -3.5481    0.0000 C   0  0  0  0  0  0  0  0  0  0  0  0
   -1.4964   -3.1356    0.0000 C   0  0  0  0  0  0  0  0  0  0  0  0
   -1.4964   -2.3106    0.0000 C   0  0  0  0  0  0  0  0  0  0  0  0
    0.6470    3.8769    0.0000 C   0  0  0  0  0  0  0  0  0  0  0  0
    1.3615    4.2894    0.0000 C   0  0  0  0  0  0  0  0  0  0  0  0
    2.0760    3.8769    0.0000 C   0  0  0  0  0  0  0  0  0  0  0  0
    2.0760    3.0519    0.0000 C   0  0  0  0  0  0  0  0  0  0  0  0
    0.6470    0.5769    0.0000 N   0  0  0  0  0  0  0  0  0  0  0  0
   -0.0674    0.1644    0.0000 C   0  0  0  0  0  0  0  0  0  0  0  0
   -0.0674   -0.6606    0.0000 O   0  0  0  0  0  0  0  0  0  0  0  0
   -0.7819    0.5769    0.0000 C   0  0  0  0  0  0  0  0  0  0  0  0
   -1.5665    0.3219    0.0000 N   0  0  0  0  0  0  0  0  0  0  0  0
   -1.5665    1.6568    0.0000 N   0  0  0  0  0  0  0  0  0  0  0  0
   -0.7819    1.4019    0.0000 C   0  0  0  0  0  0  0  0  0  0  0  0
   -0.0674    1.8144    0.0000 N   0  0  0  0  0  0  0  0  0  0  0  0
    1.3615    1.8144    0.0000 N   0  0  0  0  0  0  0  0  0  0  0  0
    1.3615    2.6394    0.0000 C   0  0  0  0  0  0  0  0  0  0  0  0
    0.6470    3.0519    0.0000 C   0  0  0  0  0  0  0  0  0  0  0  0
   -3.0835    0.9894    0.0000 H   0  0  0  0  0  0  0  0  0  0  0  0
   -1.7085   -0.5381    0.0000 H   0  0  0  0  0  0  0  0  0  0  0  0
   -0.7819   -0.0031    0.0000 H   0  0  0  0  0  0  0  0  0  0  0  0
   -0.7819   -2.9681    0.0000 H   0  0  0  0  0  0  0  0  0  0  0  0
    0.8592   -1.7756    0.0000 H   0  0  0  0  0  0  0  0  0  0  0  0
    0.8592   -2.8456    0.0000 H   0  0  0  0  0  0  0  0  0  0  0  0
    0.8592   -3.6706    0.0000 H   0  0  0  0  0  0  0  0  0  0  0  0
   -0.0674   -4.2056    0.0000 H   0  0  0  0  0  0  0  0  0  0  0  0
   -0.7819   -4.6181    0.0000 H   0  0  0  0  0  0  0  0  0  0  0  0
   -1.7085   -4.0831    0.0000 H   0  0  0  0  0  0  0  0  0  0  0  0
   -2.4230   -3.6706    0.0000 H   0  0  0  0  0  0  0  0  0  0  0  0
   -2.4230   -2.6006    0.0000 H   0  0  0  0  0  0  0  0  0  0  0  0
   -2.4230   -1.7756    0.0000 H   0  0  0  0  0  0  0  0  0  0  0  0
   -2.4230   -2.8456    0.0000 H   0  0  0  0  0  0  0  0  0  0  0  0
   -0.2467    4.3929    0.0000 H   0  0  0  0  0  0  0  0  0  0  0  0
    1.3615    5.3214    0.0000 H   0  0  0  0  0  0  0  0  0  0  0  0
    2.9697    4.3929    0.0000 H   0  0  0  0  0  0  0  0  0  0  0  0
    2.9697    2.5359    0.0000 H   0  0  0  0  0  0  0  0  0  0  0  0
   -1.8707   -0.6144    0.0000 H   0  0  0  0  0  0  0  0  0  0  0  0
    2.2141    1.3221    0.0000 H   0  0  0  0  0  0  0  0  0  0  0  0
   -0.2467    2.5359    0.0000 H   0  0  0  0  0  0  0  0  0  0  0  0
  1 14  2  0  0  0  0
  1 21  1  0  0  0  0
  1 22  1  0  0  0  0
  2 18  1  0  0  0  0
  2 19  2  0  0  0  0
  2 25  1  0  0  0  0
  3  4  1  0  0  0  0
  3 16  1  0  0  0  0
  3 26  1  0  0  0  0
  3 27  1  0  0  0  0
  4  5  1  0  0  0  0
  4  9  1  0  0  0  0
  4 28  1  0  0  0  0
  5  6  1  0  0  0  0
  5 29  1  0  0  0  0
  5 30  1  0  0  0  0
  6  7  1  0  0  0  0
  6 31  1  0  0  0  0
  6 32  1  0  0  0  0
  7  8  1  0  0  0  0
  7 33  1  0  0  0  0
  7 34  1  0  0  0  0
  8  9  1  0  0  0  0
  8 35  1  0  0  0  0
  8 36  1  0  0  0  0
  9 37  1  0  0  0  0
  9 38  1  0  0  0  0
 10 11  2  0  0  0  0
 10 24  1  0  0  0  0
 10 39  1  0  0  0  0
 11 12  1  0  0  0  0
 11 40  1  0  0  0  0
 12 13  2  0  0  0  0
 12 41  1  0  0  0  0
 13 23  1  0  0  0  0
 13 42  1  0  0  0  0
 14 15  1  0  0  0  0
 15 16  1  0  0  0  0
 15 17  2  0  0  0  0
 17 18  1  0  0  0  0
 17 20  1  0  0  0  0
 18 43  1  0  0  0  0
 19 20  1  0  0  0  0
 20 21  2  0  0  0  0
 22 23  1  0  0  0  0
 22 44  1  0  0  0  0
 23 24  2  0  0  0  0
 24 45  1  0  0  0  0
M  END
>  <DRUGBANK_ID>
DB06948

>  <COMMON_NAME>
2-ANILINO-6-CYCLOHEXYLMETHOXYPURINE

$$$$
