998
 OpenBabel10282417072D

 35 37  0  0  1  0  0  0  0  0999 V2000
    6.6612   -1.7546    0.0000 O   0  0  0  0  0  0  0  0  0  0  0  0
    4.6342    1.2635    0.0000 N   0  0  0  0  0  0  0  0  0  0  0  0
    2.3595   -1.0023    0.0000 N   0  0  0  0  0  0  0  0  0  0  0  0
    7.6843   -0.8406    0.0000 N   0  0  0  0  0  0  0  0  0  0  0  0
    2.8873   -0.4116    0.0000 C   0  0  1  0  0  0  0  0  0  0  0  0
    3.6956   -0.5770    0.0000 C   0  0  0  0  0  0  0  0  0  0  0  0
    2.6323    0.3731    0.0000 C   0  0  0  0  0  0  0  0  0  0  0  0
    4.2382    0.0447    0.0000 C   0  0  0  0  0  0  0  0  0  0  0  0
    3.1892    0.9819    0.0000 C   0  0  0  0  0  0  0  0  0  0  0  0
    3.9934    0.7979    0.0000 C   0  0  0  0  0  0  0  0  0  0  0  0
    5.0303    0.0447    0.0000 C   0  0  0  0  0  0  0  0  0  0  0  0
    5.2750    0.7979    0.0000 C   0  0  0  0  0  0  0  0  0  0  0  0
    5.5729   -0.5770    0.0000 C   0  0  0  0  0  0  0  0  0  0  0  0
    6.0793    0.9819    0.0000 C   0  0  0  0  0  0  0  0  0  0  0  0
    6.3812   -0.4116    0.0000 C   0  0  0  0  0  0  0  0  0  0  0  0
    1.5842   -0.8406    0.0000 C   0  0  0  0  0  0  0  0  0  0  0  0
    6.6361    0.3731    0.0000 C   0  0  0  0  0  0  0  0  0  0  0  0
    6.9089   -1.0023    0.0000 C   0  0  0  0  0  0  0  0  0  0  0  0
    4.6342    2.2480    0.0000 H   0  0  0  0  0  0  0  0  0  0  0  0
    2.6784   -1.9712    0.0000 H   0  0  0  0  0  0  0  0  0  0  0  0
    8.3402   -1.5748    0.0000 H   0  0  0  0  0  0  0  0  0  0  0  0
    7.9921    0.0945    0.0000 H   0  0  0  0  0  0  0  0  0  0  0  0
    3.2238   -1.4273    0.0000 H   0  0  0  0  0  0  0  0  0  0  0  0
    4.0380   -1.5907    0.0000 H   0  0  0  0  0  0  0  0  0  0  0  0
    4.7451   -0.7853    0.0000 H   0  0  0  0  0  0  0  0  0  0  0  0
    1.5866    0.5997    0.0000 H   0  0  0  0  0  0  0  0  0  0  0  0
    2.3077    1.3927    0.0000 H   0  0  0  0  0  0  0  0  0  0  0  0
    2.8705    2.0033    0.0000 H   0  0  0  0  0  0  0  0  0  0  0  0
    3.9159    1.7673    0.0000 H   0  0  0  0  0  0  0  0  0  0  0  0
    5.2427   -1.5547    0.0000 H   0  0  0  0  0  0  0  0  0  0  0  0
    6.3868    1.9670    0.0000 H   0  0  0  0  0  0  0  0  0  0  0  0
    1.2497    0.1758    0.0000 H   0  0  0  0  0  0  0  0  0  0  0  0
    0.8713   -1.6385    0.0000 H   0  0  0  0  0  0  0  0  0  0  0  0
    0.5367   -0.6221    0.0000 H   0  0  0  0  0  0  0  0  0  0  0  0
    7.6447    0.5916    0.0000 H   0  0  0  0  0  0  0  0  0  0  0  0
  1 18  2  0  0  0  0
  2 10  1  0  0  0  0
  2 12  1  0  0  0  0
  2 19  1  0  0  0  0
  3 16  1  0  0  0  0
  3 20  1  0  0  0  0
  4 18  1  0  0  0  0
  4 21  1  0  0  0  0
  4 22  1  0  0  0  0
  5  3  1  0  0  0  0
  5  6  1  0  0  0  0
  5  7  1  0  0  0  0
  5 23  1  1  0  0  0
  6  8  1  0  0  0  0
  6 24  1  0  0  0  0
  6 25  1  0  0  0  0
  7  9  1  0  0  0  0
  7 26  1  0  0  0  0
  7 27  1  0  0  0  0
  8 10  2  0  0  0  0
  8 11  1  0  0  0  0
  9 10  1  0  0  0  0
  9 28  1  0  0  0  0
  9 29  1  0  0  0  0
 11 12  2  0  0  0  0
 11 13  1  0  0  0  0
 12 14  1  0  0  0  0
 13 15  2  0  0  0  0
 13 30  1  0  0  0  0
 14 17  2  0  0  0  0
 14 31  1  0  0  0  0
 15 17  1  0  0  0  0
 15 18  1  0  0  0  0
 16 32  1  0  0  0  0
 16 33  1  0  0  0  0
 16 34  1  0  0  0  0
 17 35  1  0  0  0  0
M  END
>  <DRUGBANK_ID>
DB00998

>  <SECONDARY_ACCESSION_NUMBERS>
APRD00270

>  <COMMON_NAME>
Frovatriptan

>  <CAS_NUMBER>
158747-02-5

>  <UNII>
H82Q2D5WA7

>  <SYNONYMS>
Frovatriptan

$$$$
