
 OpenBabel10282417072D

 22 22  0  0  1  0  0  0  0  0999 V2000
    0.5678    1.9393    0.0000 C   0  0  0  0  0  0  0  0  0  0  0  0
    1.2352    0.6294    0.0000 C   0  0  0  0  0  0  0  0  0  0  0  0
   -0.1467    3.1768    0.0000 C   0  0  0  0  0  0  0  0  0  0  0  0
    0.1553   -0.1553    0.0000 C   0  0  0  0  0  0  0  0  0  0  0  0
   -0.1467    2.3518    0.0000 C   0  0  1  0  0  0  0  0  0  0  0  0
    0.5678    1.1143    0.0000 C   0  0  0  0  0  0  0  0  0  0  0  0
   -0.8612    1.9393    0.0000 N   0  3  0  0  0  0  0  0  0  0  0  0
    0.9803   -0.1553    0.0000 N   0  0  0  0  0  0  0  0  0  0  0  0
   -0.0997    0.6294    0.0000 N   0  0  0  0  0  0  0  0  0  0  0  0
   -0.8612    3.5893    0.0000 O   0  0  0  0  0  0  0  0  0  0  0  0
    0.5678    2.7643    0.0000 H   0  0  0  0  0  0  0  0  0  0  0  0
    1.4944    2.4743    0.0000 H   0  0  0  0  0  0  0  0  0  0  0  0
    1.4944    1.4043    0.0000 H   0  0  0  0  0  0  0  0  0  0  0  0
    2.2167    0.9483    0.0000 H   0  0  0  0  0  0  0  0  0  0  0  0
    0.7799    3.7118    0.0000 H   0  0  0  0  0  0  0  0  0  0  0  0
   -0.1467    4.2468    0.0000 H   0  0  0  0  0  0  0  0  0  0  0  0
   -0.4513   -0.9902    0.0000 H   0  0  0  0  0  0  0  0  0  0  0  0
   -1.7445    2.4493    0.0000 H   0  0  0  0  0  0  0  0  0  0  0  0
   -0.8612    0.9193    0.0000 H   0  0  0  0  0  0  0  0  0  0  0  0
   -1.7446    1.4293    0.0000 H   0  0  0  0  0  0  0  0  0  0  0  0
   -1.0360    0.9336    0.0000 H   0  0  0  0  0  0  0  0  0  0  0  0
   -0.8612    4.5593    0.0000 H   0  0  0  0  0  0  0  0  0  0  0  0
  1 12  1  0  0  0  0
  1 13  1  0  0  0  0
  2 14  1  0  0  0  0
  3 15  1  0  0  0  0
  3 16  1  0  0  0  0
  4 17  1  0  0  0  0
  5  1  1  0  0  0  0
  5  3  1  0  0  0  0
  5  7  1  0  0  0  0
  5 11  1  1  0  0  0
  6  1  1  0  0  0  0
  6  2  2  0  0  0  0
  7 18  1  0  0  0  0
  7 19  1  0  0  0  0
  7 20  1  0  0  0  0
  8  2  1  0  0  0  0
  8  4  2  0  0  0  0
  9  4  1  0  0  0  0
  9  6  1  0  0  0  0
  9 21  1  0  0  0  0
 10  3  1  0  0  0  0
 10 22  1  0  0  0  0
M  CHG  1   7   1
M  END
>  <DRUGBANK_ID>
DB03811

>  <SECONDARY_ACCESSION_NUMBERS>
EXPT01786

>  <COMMON_NAME>
Histidinol

$$$$
