340
 OpenBabel10282417072D

 40 42  0  0  0  0  0  0  0  0999 V2000
    2.0254   -1.5341    0.0000 C   0  0  0  0  0  0  0  0  0  0  0  0
    1.3110   -1.9466    0.0000 C   0  0  0  0  0  0  0  0  0  0  0  0
    0.5965   -1.5341    0.0000 C   0  0  0  0  0  0  0  0  0  0  0  0
    0.5965   -0.7091    0.0000 C   0  0  0  0  0  0  0  0  0  0  0  0
    1.3110   -0.2966    0.0000 C   0  0  0  0  0  0  0  0  0  0  0  0
    2.0254   -0.7091    0.0000 C   0  0  0  0  0  0  0  0  0  0  0  0
   -0.1881   -1.7890    0.0000 N   0  0  0  0  0  0  0  0  0  0  0  0
   -0.6731   -1.1216    0.0000 C   0  0  0  0  0  0  0  0  0  0  0  0
   -0.1881   -0.4542    0.0000 C   0  0  0  0  0  0  0  0  0  0  0  0
    1.3110    0.5284    0.0000 O   0  0  0  0  0  0  0  0  0  0  0  0
    1.3110   -2.7716    0.0000 O   0  0  0  0  0  0  0  0  0  0  0  0
   -0.4431   -2.5737    0.0000 C   0  0  0  0  0  0  0  0  0  0  0  0
   -0.4431    0.3305    0.0000 C   0  0  0  0  0  0  0  0  0  0  0  0
   -1.2500    0.5020    0.0000 O   0  0  0  0  0  0  0  0  0  0  0  0
   -1.5050    1.2866    0.0000 C   0  0  0  0  0  0  0  0  0  0  0  0
   -2.3120    1.4581    0.0000 C   0  0  0  0  0  0  0  0  0  0  0  0
   -2.5669    2.2428    0.0000 C   0  0  0  0  0  0  0  0  0  0  0  0
   -2.0149    2.8559    0.0000 C   0  0  0  0  0  0  0  0  0  0  0  0
   -1.2079    2.6843    0.0000 C   0  0  0  0  0  0  0  0  0  0  0  0
   -0.9530    1.8997    0.0000 C   0  0  0  0  0  0  0  0  0  0  0  0
   -1.4981   -1.1216    0.0000 C   0  0  0  0  0  0  0  0  0  0  0  0
    2.7399   -0.2966    0.0000 O   0  0  0  0  0  0  0  0  0  0  0  0
    2.7399    0.5284    0.0000 C   0  0  0  0  0  0  0  0  0  0  0  0
    2.9191   -2.0501    0.0000 H   0  0  0  0  0  0  0  0  0  0  0  0
   -1.4897   -2.7961    0.0000 H   0  0  0  0  0  0  0  0  0  0  0  0
    0.2728   -3.3689    0.0000 H   0  0  0  0  0  0  0  0  0  0  0  0
   -0.7738   -3.5913    0.0000 H   0  0  0  0  0  0  0  0  0  0  0  0
    0.2728    1.1257    0.0000 H   0  0  0  0  0  0  0  0  0  0  0  0
   -0.7738    1.3481    0.0000 H   0  0  0  0  0  0  0  0  0  0  0  0
   -3.0026    0.6912    0.0000 H   0  0  0  0  0  0  0  0  0  0  0  0
   -3.5763    2.4574    0.0000 H   0  0  0  0  0  0  0  0  0  0  0  0
   -2.3338    3.8374    0.0000 H   0  0  0  0  0  0  0  0  0  0  0  0
   -0.5173    3.4512    0.0000 H   0  0  0  0  0  0  0  0  0  0  0  0
    0.0564    1.6851    0.0000 H   0  0  0  0  0  0  0  0  0  0  0  0
   -2.0331   -0.1950    0.0000 H   0  0  0  0  0  0  0  0  0  0  0  0
   -2.0331   -2.0482    0.0000 H   0  0  0  0  0  0  0  0  0  0  0  0
   -2.5681   -1.1216    0.0000 H   0  0  0  0  0  0  0  0  0  0  0  0
    3.6665    1.0634    0.0000 H   0  0  0  0  0  0  0  0  0  0  0  0
    1.8133    1.0634    0.0000 H   0  0  0  0  0  0  0  0  0  0  0  0
    2.7399    1.5984    0.0000 H   0  0  0  0  0  0  0  0  0  0  0  0
  1  2  1  0  0  0  0
  1  6  2  0  0  0  0
  1 24  1  0  0  0  0
  2  3  1  0  0  0  0
  2 11  2  0  0  0  0
  3  4  2  0  0  0  0
  3  7  1  0  0  0  0
  4  5  1  0  0  0  0
  4  9  1  0  0  0  0
  5  6  1  0  0  0  0
  5 10  2  0  0  0  0
  6 22  1  0  0  0  0
  7  8  1  0  0  0  0
  7 12  1  0  0  0  0
  8  9  2  0  0  0  0
  8 21  1  0  0  0  0
  9 13  1  0  0  0  0
 12 25  1  0  0  0  0
 12 26  1  0  0  0  0
 12 27  1  0  0  0  0
 13 14  1  0  0  0  0
 13 28  1  0  0  0  0
 13 29  1  0  0  0  0
 14 15  1  0  0  0  0
 15 16  2  0  0  0  0
 15 20  1  0  0  0  0
 16 17  1  0  0  0  0
 16 30  1  0  0  0  0
 17 18  2  0  0  0  0
 17 31  1  0  0  0  0
 18 19  1  0  0  0  0
 18 32  1  0  0  0  0
 19 20  2  0  0  0  0
 19 33  1  0  0  0  0
 20 34  1  0  0  0  0
 21 35  1  0  0  0  0
 21 36  1  0  0  0  0
 21 37  1  0  0  0  0
 22 23  1  0  0  0  0
 23 38  1  0  0  0  0
 23 39  1  0  0  0  0
 23 40  1  0  0  0  0
M  END
>  <DRUGBANK_ID>
DB03626

>  <SECONDARY_ACCESSION_NUMBERS>
EXPT00154

>  <COMMON_NAME>
5-Methoxy-1,2-Dimethyl-3-(Phenoxymethyl)Indole-4,7-Dione

$$$$
