LY2
 OpenBabel10282417072D

 40 43  0  0  0  0  0  0  0  0999 V2000
   -1.2242   -0.2431    0.0000 N   0  0  0  0  0  0  0  0  0  0  0  0
   -1.9386   -0.6556    0.0000 C   0  0  0  0  0  0  0  0  0  0  0  0
   -1.2242    0.5819    0.0000 C   0  0  0  0  0  0  0  0  0  0  0  0
   -0.5097   -0.6556    0.0000 C   0  0  0  0  0  0  0  0  0  0  0  0
   -2.6531   -0.2431    0.0000 C   0  0  0  0  0  0  0  0  0  0  0  0
   -2.6531    0.5819    0.0000 O   0  0  0  0  0  0  0  0  0  0  0  0
   -1.9386    0.9944    0.0000 C   0  0  0  0  0  0  0  0  0  0  0  0
    2.3482   -1.4806    0.0000 C   0  0  0  0  0  0  0  0  0  0  0  0
    1.6337   -1.8931    0.0000 C   0  0  0  0  0  0  0  0  0  0  0  0
    2.3482   -0.6556    0.0000 C   0  0  0  0  0  0  0  0  0  0  0  0
    0.9192   -1.4806    0.0000 C   0  0  0  0  0  0  0  0  0  0  0  0
    0.9192   -0.6556    0.0000 C   0  0  0  0  0  0  0  0  0  0  0  0
    0.2048   -1.8931    0.0000 C   0  0  0  0  0  0  0  0  0  0  0  0
    1.6337   -0.2431    0.0000 C   0  0  0  0  0  0  0  0  0  0  0  0
    0.2048   -0.2431    0.0000 O   0  0  0  0  0  0  0  0  0  0  0  0
    1.6337    0.5819    0.0000 C   0  0  0  0  0  0  0  0  0  0  0  0
    0.9192    0.9944    0.0000 C   0  0  0  0  0  0  0  0  0  0  0  0
    0.9192    1.8194    0.0000 C   0  0  0  0  0  0  0  0  0  0  0  0
    2.3482    0.9944    0.0000 C   0  0  0  0  0  0  0  0  0  0  0  0
    2.3482    1.8194    0.0000 C   0  0  0  0  0  0  0  0  0  0  0  0
    1.6337    2.2319    0.0000 C   0  0  0  0  0  0  0  0  0  0  0  0
   -0.5097   -1.4806    0.0000 C   0  0  0  0  0  0  0  0  0  0  0  0
    0.2048   -2.7181    0.0000 O   0  0  0  0  0  0  0  0  0  0  0  0
   -1.9386   -1.7256    0.0000 H   0  0  0  0  0  0  0  0  0  0  0  0
   -2.8652   -1.1906    0.0000 H   0  0  0  0  0  0  0  0  0  0  0  0
   -0.2975    1.1169    0.0000 H   0  0  0  0  0  0  0  0  0  0  0  0
   -1.2242    1.6519    0.0000 H   0  0  0  0  0  0  0  0  0  0  0  0
   -3.5797   -0.7781    0.0000 H   0  0  0  0  0  0  0  0  0  0  0  0
   -3.5797    0.2919    0.0000 H   0  0  0  0  0  0  0  0  0  0  0  0
   -1.9386    2.0644    0.0000 H   0  0  0  0  0  0  0  0  0  0  0  0
   -2.8652    1.5294    0.0000 H   0  0  0  0  0  0  0  0  0  0  0  0
    3.2419   -1.9966    0.0000 H   0  0  0  0  0  0  0  0  0  0  0  0
    1.6337   -2.9251    0.0000 H   0  0  0  0  0  0  0  0  0  0  0  0
    3.2419   -0.1396    0.0000 H   0  0  0  0  0  0  0  0  0  0  0  0
    0.0255    0.4784    0.0000 H   0  0  0  0  0  0  0  0  0  0  0  0
    0.0255    2.3354    0.0000 H   0  0  0  0  0  0  0  0  0  0  0  0
    3.2419    0.4784    0.0000 H   0  0  0  0  0  0  0  0  0  0  0  0
    3.2419    2.3354    0.0000 H   0  0  0  0  0  0  0  0  0  0  0  0
    1.6337    3.2639    0.0000 H   0  0  0  0  0  0  0  0  0  0  0  0
   -1.4034   -1.9966    0.0000 H   0  0  0  0  0  0  0  0  0  0  0  0
  1  2  1  0  0  0  0
  1  3  1  0  0  0  0
  1  4  1  0  0  0  0
  2  5  1  0  0  0  0
  2 24  1  0  0  0  0
  2 25  1  0  0  0  0
  3  7  1  0  0  0  0
  3 26  1  0  0  0  0
  3 27  1  0  0  0  0
  4 15  1  0  0  0  0
  4 22  2  0  0  0  0
  5  6  1  0  0  0  0
  5 28  1  0  0  0  0
  5 29  1  0  0  0  0
  6  7  1  0  0  0  0
  7 30  1  0  0  0  0
  7 31  1  0  0  0  0
  8  9  2  0  0  0  0
  8 10  1  0  0  0  0
  8 32  1  0  0  0  0
  9 11  1  0  0  0  0
  9 33  1  0  0  0  0
 10 14  2  0  0  0  0
 10 34  1  0  0  0  0
 11 12  2  0  0  0  0
 11 13  1  0  0  0  0
 12 14  1  0  0  0  0
 12 15  1  0  0  0  0
 13 22  1  0  0  0  0
 13 23  2  0  0  0  0
 14 16  1  0  0  0  0
 16 17  2  0  0  0  0
 16 19  1  0  0  0  0
 17 18  1  0  0  0  0
 17 35  1  0  0  0  0
 18 21  2  0  0  0  0
 18 36  1  0  0  0  0
 19 20  2  0  0  0  0
 19 37  1  0  0  0  0
 20 21  1  0  0  0  0
 20 38  1  0  0  0  0
 21 39  1  0  0  0  0
 22 40  1  0  0  0  0
M  END
>  <DRUGBANK_ID>
DB02656

>  <SECONDARY_ACCESSION_NUMBERS>
EXPT02073

>  <COMMON_NAME>
LY-294002

>  <CAS_NUMBER>
154447-36-6

>  <UNII>
31M2U1DVID

>  <SYNONYMS>
2-(4-morpholinyl)-8-phenyl-4H-1-benzopyran-4-one

$$$$
