
 OpenBabel10282417072D

 52 56  0  0  1  0  0  0  0  0999 V2000
   -1.6904   -1.6839    0.0000 C   0  0  0  0  0  0  0  0  0  0  0  0
   -1.2779   -0.9694    0.0000 C   0  0  0  0  0  0  0  0  0  0  0  0
   -1.6904   -0.2549    0.0000 C   0  0  0  0  0  0  0  0  0  0  0  0
   -1.2779    0.4595    0.0000 C   0  0  0  0  0  0  0  0  0  0  0  0
   -1.6904    1.1740    0.0000 C   0  0  0  0  0  0  0  0  0  0  0  0
   -0.4529    0.4595    0.0000 N   0  0  0  0  0  0  0  0  0  0  0  0
   -0.0404   -0.2549    0.0000 C   0  0  0  0  0  0  0  0  0  0  0  0
   -0.4529   -0.9694    0.0000 N   0  0  0  0  0  0  0  0  0  0  0  0
    0.7846   -0.2549    0.0000 N   0  0  0  0  0  0  0  0  0  0  0  0
    1.2695    0.4125    0.0000 C   0  0  0  0  0  0  0  0  0  0  0  0
    2.0542    0.1576    0.0000 C   0  0  2  0  0  0  0  0  0  0  0  0
    2.8388    0.4125    0.0000 C   0  0  0  0  0  0  0  0  0  0  0  0
    3.3237   -0.2549    0.0000 N   0  0  0  0  0  0  0  0  0  0  0  0
    2.8388   -0.9224    0.0000 C   0  0  0  0  0  0  0  0  0  0  0  0
    2.0542   -0.6674    0.0000 C   0  0  2  0  0  0  0  0  0  0  0  0
    1.2695   -0.9224    0.0000 C   0  0  0  0  0  0  0  0  0  0  0  0
    4.1487   -0.2549    0.0000 C   0  0  0  0  0  0  0  0  0  0  0  0
    4.5612   -0.9694    0.0000 O   0  0  0  0  0  0  0  0  0  0  0  0
    4.5612    0.4595    0.0000 C   0  0  0  0  0  0  0  0  0  0  0  0
    4.1487    1.1740    0.0000 C   0  0  0  0  0  0  0  0  0  0  0  0
    3.3237    1.1740    0.0000 F   0  0  0  0  0  0  0  0  0  0  0  0
    4.5612    1.8885    0.0000 C   0  0  0  0  0  0  0  0  0  0  0  0
    5.3862    1.8885    0.0000 C   0  0  0  0  0  0  0  0  0  0  0  0
    5.7987    1.1740    0.0000 C   0  0  0  0  0  0  0  0  0  0  0  0
    5.3862    0.4595    0.0000 C   0  0  0  0  0  0  0  0  0  0  0  0
    5.7987   -0.2549    0.0000 N   0  0  0  0  0  0  0  0  0  0  0  0
    6.6192   -0.3412    0.0000 N   0  0  0  0  0  0  0  0  0  0  0  0
    6.7907   -1.1481    0.0000 C   0  0  0  0  0  0  0  0  0  0  0  0
    6.0762   -1.5606    0.0000 C   0  0  0  0  0  0  0  0  0  0  0  0
    5.4632   -1.0086    0.0000 N   0  0  0  0  0  0  0  0  0  0  0  0
   -2.7604   -1.6839    0.0000 H   0  0  0  0  0  0  0  0  0  0  0  0
   -1.1554   -2.6105    0.0000 H   0  0  0  0  0  0  0  0  0  0  0  0
   -2.2254   -2.6106    0.0000 H   0  0  0  0  0  0  0  0  0  0  0  0
   -2.7224   -0.2549    0.0000 H   0  0  0  0  0  0  0  0  0  0  0  0
   -1.1554    2.1006    0.0000 H   0  0  0  0  0  0  0  0  0  0  0  0
   -2.7604    1.1740    0.0000 H   0  0  0  0  0  0  0  0  0  0  0  0
   -2.2254    2.1007    0.0000 H   0  0  0  0  0  0  0  0  0  0  0  0
    0.9388    1.4301    0.0000 H   0  0  0  0  0  0  0  0  0  0  0  0
    2.0261    1.1691    0.0000 H   0  0  0  0  0  0  0  0  0  0  0  0
    2.0542    1.2276    0.0000 H   0  0  0  0  0  0  0  0  0  0  0  0
    3.1695    1.4301    0.0000 H   0  0  0  0  0  0  0  0  0  0  0  0
    3.8956    0.5799    0.0000 H   0  0  0  0  0  0  0  0  0  0  0  0
    3.1694   -1.9400    0.0000 H   0  0  0  0  0  0  0  0  0  0  0  0
    2.0822   -1.6790    0.0000 H   0  0  0  0  0  0  0  0  0  0  0  0
    2.9199   -0.0385    0.0000 H   0  0  0  0  0  0  0  0  0  0  0  0
    0.9388   -1.9400    0.0000 H   0  0  0  0  0  0  0  0  0  0  0  0
    0.2127   -1.0897    0.0000 H   0  0  0  0  0  0  0  0  0  0  0  0
    4.0452    2.7822    0.0000 H   0  0  0  0  0  0  0  0  0  0  0  0
    5.9022    2.7822    0.0000 H   0  0  0  0  0  0  0  0  0  0  0  0
    6.8307    1.1740    0.0000 H   0  0  0  0  0  0  0  0  0  0  0  0
    7.7335   -1.5679    0.0000 H   0  0  0  0  0  0  0  0  0  0  0  0
    5.9683   -2.5869    0.0000 H   0  0  0  0  0  0  0  0  0  0  0  0
  1  2  1  0  0  0  0
  1 31  1  0  0  0  0
  1 32  1  0  0  0  0
  1 33  1  0  0  0  0
  2  3  2  0  0  0  0
  2  8  1  0  0  0  0
  3  4  1  0  0  0  0
  3 34  1  0  0  0  0
  4  5  1  0  0  0  0
  4  6  2  0  0  0  0
  5 35  1  0  0  0  0
  5 36  1  0  0  0  0
  5 37  1  0  0  0  0
  6  7  1  0  0  0  0
  7  8  2  0  0  0  0
  7  9  1  0  0  0  0
  9 10  1  0  0  0  0
  9 16  1  0  0  0  0
 10 38  1  0  0  0  0
 10 39  1  0  0  0  0
 11 10  1  0  0  0  0
 11 12  1  0  0  0  0
 11 15  1  0  0  0  0
 11 40  1  1  0  0  0
 12 13  1  0  0  0  0
 12 41  1  0  0  0  0
 12 42  1  0  0  0  0
 13 14  1  0  0  0  0
 13 17  1  0  0  0  0
 14 43  1  0  0  0  0
 14 44  1  0  0  0  0
 15 14  1  0  0  0  0
 15 16  1  0  0  0  0
 15 45  1  1  0  0  0
 16 46  1  0  0  0  0
 16 47  1  0  0  0  0
 17 18  2  0  0  0  0
 17 19  1  0  0  0  0
 19 20  2  0  0  0  0
 19 25  1  0  0  0  0
 20 21  1  0  0  0  0
 20 22  1  0  0  0  0
 22 23  2  0  0  0  0
 22 48  1  0  0  0  0
 23 24  1  0  0  0  0
 23 49  1  0  0  0  0
 24 25  2  0  0  0  0
 24 50  1  0  0  0  0
 25 26  1  0  0  0  0
 26 27  1  0  0  0  0
 26 30  1  0  0  0  0
 27 28  2  0  0  0  0
 28 29  1  0  0  0  0
 28 51  1  0  0  0  0
 29 30  2  0  0  0  0
 29 52  1  0  0  0  0
M  END
>  <DRUGBANK_ID>
DB14961

>  <COMMON_NAME>
Seltorexant

>  <CAS_NUMBER>
1452539-75-1

>  <UNII>
AIS8N3O50B

>  <SYNONYMS>
JNJ-42847922; Seltorexant

$$$$
