384
 OpenBabel10282417072D

 30 32  0  0  0  0  0  0  0  0999 V2000
    4.5079   -0.4720    0.0000 N   0  0  0  0  0  0  0  0  0  0  0  0
    4.5079    1.1780    0.0000 N   0  0  0  0  0  0  0  0  0  0  0  0
    5.9599    1.2066    0.0000 N   0  0  0  0  0  0  0  0  0  0  0  0
    6.7073   -0.0766    0.0000 N   0  0  0  0  0  0  0  0  0  0  0  0
    3.0790    1.1780    0.0000 N   0  0  0  0  0  0  0  0  0  0  0  0
    5.9503   -1.3255    0.0000 N   0  0  0  0  0  0  0  0  0  0  0  0
    7.4202    1.1980    0.0000 N   0  0  0  0  0  0  0  0  0  0  0  0
    3.7934   -0.0595    0.0000 C   0  0  0  0  0  0  0  0  0  0  0  0
    5.2223   -0.0595    0.0000 C   0  0  0  0  0  0  0  0  0  0  0  0
    3.0790   -0.4720    0.0000 C   0  0  0  0  0  0  0  0  0  0  0  0
    5.2223    0.7655    0.0000 C   0  0  0  0  0  0  0  0  0  0  0  0
    3.7934    0.7655    0.0000 C   0  0  0  0  0  0  0  0  0  0  0  0
    5.9599   -0.5005    0.0000 C   0  0  0  0  0  0  0  0  0  0  0  0
    3.0790   -1.2970    0.0000 C   0  0  0  0  0  0  0  0  0  0  0  0
    2.3644   -0.0595    0.0000 C   0  0  0  0  0  0  0  0  0  0  0  0
    6.7073    0.7827    0.0000 C   0  0  0  0  0  0  0  0  0  0  0  0
    2.3644   -1.7095    0.0000 C   0  0  0  0  0  0  0  0  0  0  0  0
    1.6500   -0.4720    0.0000 C   0  0  0  0  0  0  0  0  0  0  0  0
    1.6500   -1.2970    0.0000 C   0  0  0  0  0  0  0  0  0  0  0  0
    3.0790    2.1625    0.0000 H   0  0  0  0  0  0  0  0  0  0  0  0
    2.2264    0.6858    0.0000 H   0  0  0  0  0  0  0  0  0  0  0  0
    5.0920   -1.8078    0.0000 H   0  0  0  0  0  0  0  0  0  0  0  0
    6.7971   -1.8276    0.0000 H   0  0  0  0  0  0  0  0  0  0  0  0
    8.2747    0.7091    0.0000 H   0  0  0  0  0  0  0  0  0  0  0  0
    7.4164    2.1825    0.0000 H   0  0  0  0  0  0  0  0  0  0  0  0
    3.9727   -1.8130    0.0000 H   0  0  0  0  0  0  0  0  0  0  0  0
    2.3643    0.9725    0.0000 H   0  0  0  0  0  0  0  0  0  0  0  0
    2.3643   -2.7415    0.0000 H   0  0  0  0  0  0  0  0  0  0  0  0
    0.7563    0.0440    0.0000 H   0  0  0  0  0  0  0  0  0  0  0  0
    0.7563   -1.8130    0.0000 H   0  0  0  0  0  0  0  0  0  0  0  0
  1  8  2  0  0  0  0
  1  9  1  0  0  0  0
  2 11  1  0  0  0  0
  2 12  2  0  0  0  0
  3 11  2  0  0  0  0
  3 16  1  0  0  0  0
  4 13  1  0  0  0  0
  4 16  2  0  0  0  0
  5 12  1  0  0  0  0
  5 20  1  0  0  0  0
  5 21  1  0  0  0  0
  6 13  1  0  0  0  0
  6 22  1  0  0  0  0
  6 23  1  0  0  0  0
  7 16  1  0  0  0  0
  7 24  1  0  0  0  0
  7 25  1  0  0  0  0
  8 10  1  0  0  0  0
  8 12  1  0  0  0  0
  9 11  1  0  0  0  0
  9 13  2  0  0  0  0
 10 14  2  0  0  0  0
 10 15  1  0  0  0  0
 14 17  1  0  0  0  0
 14 26  1  0  0  0  0
 15 18  2  0  0  0  0
 15 27  1  0  0  0  0
 17 19  2  0  0  0  0
 17 28  1  0  0  0  0
 18 19  1  0  0  0  0
 18 29  1  0  0  0  0
 19 30  1  0  0  0  0
M  END
>  <DRUGBANK_ID>
DB00384

>  <SECONDARY_ACCESSION_NUMBERS>
APRD00079

>  <COMMON_NAME>
Triamterene

>  <CAS_NUMBER>
396-01-0

>  <UNII>
WS821Z52LQ

>  <SYNONYMS>
6-phenylpteridine-2,4,7-triamine; Teridin; Triamteren; Triamterena; Triamtérène; Triamterene; Triamtereno; Triamterenum

$$$$
