
 OpenBabel10282417072D

 30 32  0  0  0  0  0  0  0  0999 V2000
    1.0818   -0.4093    0.0000 C   0  0  0  0  0  0  0  0  0  0  0  0
    0.6693    0.3051    0.0000 C   0  0  0  0  0  0  0  0  0  0  0  0
    1.0818    1.0195    0.0000 C   0  0  0  0  0  0  0  0  0  0  0  0
    1.9068    1.0196    0.0000 C   0  0  0  0  0  0  0  0  0  0  0  0
    2.3193    0.3051    0.0000 C   0  0  0  0  0  0  0  0  0  0  0  0
    1.9068   -0.4093    0.0000 C   0  0  0  0  0  0  0  0  0  0  0  0
    3.1571    0.3050    0.0000 N   0  0  0  0  0  0  0  0  0  0  0  0
    3.5672    1.0150    0.0000 C   0  0  0  0  0  0  0  0  0  0  0  0
    2.3193   -1.1238    0.0000 F   0  0  0  0  0  0  0  0  0  0  0  0
   -0.1556    0.3050    0.0000 C   0  0  0  0  0  0  0  0  0  0  0  0
   -0.6333   -0.3526    0.0000 S   0  0  0  0  0  0  0  0  0  0  0  0
   -1.4065   -0.1014    0.0000 C   0  0  0  0  0  0  0  0  0  0  0  0
   -1.4066    0.7114    0.0000 C   0  0  0  0  0  0  0  0  0  0  0  0
   -0.6335    0.9626    0.0000 N   0  0  0  0  0  0  0  0  0  0  0  0
   -2.1209   -0.5140    0.0000 C   0  0  0  0  0  0  0  0  0  0  0  0
   -2.8354   -0.1016    0.0000 C   0  0  0  0  0  0  0  0  0  0  0  0
   -2.8355    0.7112    0.0000 C   0  0  0  0  0  0  0  0  0  0  0  0
   -2.1211    1.1238    0.0000 C   0  0  0  0  0  0  0  0  0  0  0  0
   -3.5672   -0.5243    0.0000 O   0  0  0  0  0  0  0  0  0  0  0  0
    0.5658   -1.3030    0.0000 H   0  0  0  0  0  0  0  0  0  0  0  0
    0.5658    1.9132    0.0000 H   0  0  0  0  0  0  0  0  0  0  0  0
    2.4228    1.9134    0.0000 H   0  0  0  0  0  0  0  0  0  0  0  0
    3.6492   -0.5477    0.0000 H   0  0  0  0  0  0  0  0  0  0  0  0
    4.6372    1.0148    0.0000 H   0  0  0  0  0  0  0  0  0  0  0  0
    3.0324    1.9417    0.0000 H   0  0  0  0  0  0  0  0  0  0  0  0
    4.1024    1.9415    0.0000 H   0  0  0  0  0  0  0  0  0  0  0  0
   -2.1208   -1.5460    0.0000 H   0  0  0  0  0  0  0  0  0  0  0  0
   -3.7293    1.2271    0.0000 H   0  0  0  0  0  0  0  0  0  0  0  0
   -2.1212    2.1558    0.0000 H   0  0  0  0  0  0  0  0  0  0  0  0
   -4.3788   -0.0560    0.0000 H   0  0  0  0  0  0  0  0  0  0  0  0
  1  2  2  0  0  0  0
  1  6  1  0  0  0  0
  1 20  1  0  0  0  0
  2  3  1  0  0  0  0
  2 10  1  0  0  0  0
  3  4  2  0  0  0  0
  3 21  1  0  0  0  0
  4  5  1  0  0  0  0
  4 22  1  0  0  0  0
  5  6  2  0  0  0  0
  5  7  1  0  0  0  0
  6  9  1  0  0  0  0
  7  8  1  0  0  0  0
  7 23  1  0  0  0  0
  8 24  1  0  0  0  0
  8 25  1  0  0  0  0
  8 26  1  0  0  0  0
 10 11  1  0  0  0  0
 10 14  2  0  0  0  0
 11 12  1  0  0  0  0
 12 13  1  0  0  0  0
 12 15  2  0  0  0  0
 13 14  1  0  0  0  0
 13 18  2  0  0  0  0
 15 16  1  0  0  0  0
 15 27  1  0  0  0  0
 16 17  2  0  0  0  0
 16 19  1  0  0  0  0
 17 18  1  0  0  0  0
 17 28  1  0  0  0  0
 18 29  1  0  0  0  0
 19 30  1  0  0  0  0
M  ISO  1   9  18
M  END
>  <DRUGBANK_ID>
DB09151

>  <COMMON_NAME>
Flutemetamol (18F)

>  <CAS_NUMBER>
765922-62-1

>  <UNII>
L49M066S0O

>  <SYNONYMS>
[18F]-Flutemetamol; 2-[3-(18F)fluoro-4-(methylamino)phenyl]-1,3-benzothiazol-6-ol; Flutemetamol (18F); Flutemetamol F 18; Flutemetamol F-18; Flutemetamol F18

$$$$
