
 OpenBabel10282417072D

 22 23  0  0  0  0  0  0  0  0999 V2000
   -0.3572   -0.8250    0.0000 C   0  0  0  0  0  0  0  0  0  0  0  0
    0.3572   -0.4125    0.0000 C   0  0  0  0  0  0  0  0  0  0  0  0
    0.3572    0.4125    0.0000 C   0  0  0  0  0  0  0  0  0  0  0  0
   -0.3572    0.8250    0.0000 C   0  0  0  0  0  0  0  0  0  0  0  0
   -1.0717    0.4125    0.0000 C   0  0  0  0  0  0  0  0  0  0  0  0
   -1.0717   -0.4125    0.0000 C   0  0  0  0  0  0  0  0  0  0  0  0
   -1.7861   -0.8250    0.0000 N   0  3  0  0  0  0  0  0  0  0  0  0
   -2.5006   -0.4125    0.0000 O   0  0  0  0  0  0  0  0  0  0  0  0
   -1.7861   -1.6500    0.0000 O   0  5  0  0  0  0  0  0  0  0  0  0
   -1.7861    0.8250    0.0000 N   0  3  0  0  0  0  0  0  0  0  0  0
   -2.5006    0.4125    0.0000 O   0  0  0  0  0  0  0  0  0  0  0  0
   -1.7861    1.6500    0.0000 O   0  5  0  0  0  0  0  0  0  0  0  0
    1.0716    0.8250    0.0000 N   0  0  0  0  0  0  0  0  0  0  0  0
    1.7861    0.4125    0.0000 C   0  0  0  0  0  0  0  0  0  0  0  0
    2.5006    0.8250    0.0000 O   0  0  0  0  0  0  0  0  0  0  0  0
    1.7861   -0.4125    0.0000 C   0  0  0  0  0  0  0  0  0  0  0  0
    2.5006   -0.8250    0.0000 O   0  0  0  0  0  0  0  0  0  0  0  0
    1.0716   -0.8250    0.0000 N   0  0  0  0  0  0  0  0  0  0  0  0
   -0.3572   -1.8570    0.0000 H   0  0  0  0  0  0  0  0  0  0  0  0
   -0.3572    1.8570    0.0000 H   0  0  0  0  0  0  0  0  0  0  0  0
    1.0716    1.8095    0.0000 H   0  0  0  0  0  0  0  0  0  0  0  0
    1.0716   -1.8095    0.0000 H   0  0  0  0  0  0  0  0  0  0  0  0
  1  2  2  0  0  0  0
  1 19  1  0  0  0  0
  2  3  1  0  0  0  0
  3  4  2  0  0  0  0
  3 13  1  0  0  0  0
  4  5  1  0  0  0  0
  4 20  1  0  0  0  0
  5  6  2  0  0  0  0
  5 10  1  0  0  0  0
  6  1  1  0  0  0  0
  6  7  1  0  0  0  0
  7  8  2  0  0  0  0
  7  9  1  0  0  0  0
 10 11  2  0  0  0  0
 10 12  1  0  0  0  0
 13 14  1  0  0  0  0
 13 21  1  0  0  0  0
 14 15  2  0  0  0  0
 14 16  1  0  0  0  0
 16 17  2  0  0  0  0
 16 18  1  0  0  0  0
 18  2  1  0  0  0  0
 18 22  1  0  0  0  0
M  CHG  4   7   1   9  -1  10   1  12  -1
M  END
>  <DRUGBANK_ID>
DB03759

>  <SECONDARY_ACCESSION_NUMBERS>
EXPT01239

>  <COMMON_NAME>
FG-9041

>  <CAS_NUMBER>
2379-57-9

>  <UNII>
62T278S1MX

>  <SYNONYMS>
2,3-quinoxalinedione, 1,4-dihydro-6,7-dinitro-; 6,7-dinitro-1,4-dihydroquinoxaline-2,3-dione; 6,7-dinitroquinoxaline-2,3-dione; DNQX

$$$$
