
 OpenBabel10282417072D

  4  3  0  0  0  0  0  0  0  0999 V2000
    1.2375    0.7145    0.0000 O   0  5  0  0  0  0  0  0  0  0  0  0
    0.8250    0.0000    0.0000 As  0  0  0  0  0  0  0  0  0  0  0  0
    1.2375   -0.7145    0.0000 O   0  5  0  0  0  0  0  0  0  0  0  0
    0.0000    0.0000    0.0000 O   0  5  0  0  0  0  0  0  0  0  0  0
  1  2  1  0  0  0  0
  2  3  1  0  0  0  0
  2  4  1  0  0  0  0
M  CHG  3   1  -1   3  -1   4  -1
M  END
>  <DRUGBANK_ID>
DB18509

>  <COMMON_NAME>
Arsenite ion

>  <CAS_NUMBER>
15502-74-6

>  <UNII>
N5509X556J

>  <SYNONYMS>
Arsenite; Arsenite anion; Ortho-arsenite

$$$$
