
 OpenBabel10282417072D

 30 29  0  0  1  0  0  0  0  0999 V2000
   -2.4750    1.4289    0.0000 C   0  0  0  0  0  0  0  0  0  0  0  0
   -1.2375    0.7145    0.0000 C   0  0  0  0  0  0  0  0  0  0  0  0
    1.2375   -0.7145    0.0000 C   0  0  0  0  0  0  0  0  0  0  0  0
   -2.0625    0.7145    0.0000 C   0  0  2  0  0  0  0  0  0  0  0  0
    2.0625   -0.7145    0.0000 C   0  0  1  0  0  0  0  0  0  0  0  0
    2.4750   -1.4289    0.0000 C   0  0  0  0  0  0  0  0  0  0  0  0
    2.4750   -0.0000    0.0000 N   0  0  0  0  0  0  0  0  0  0  0  0
   -3.3000    1.4289    0.0000 O   0  0  0  0  0  0  0  0  0  0  0  0
   -2.4750    0.0000    0.0000 O   0  0  0  0  0  0  0  0  0  0  0  0
    3.3000   -1.4289    0.0000 O   0  0  0  0  0  0  0  0  0  0  0  0
    2.0625   -2.1434    0.0000 O   0  0  0  0  0  0  0  0  0  0  0  0
    0.0000   -0.8250    0.0000 O   0  0  0  0  0  0  0  0  0  0  0  0
   -0.0000    0.8250    0.0000 O   0  0  0  0  0  0  0  0  0  0  0  0
   -0.8250   -0.0000    0.0000 O   0  0  0  0  0  0  0  0  0  0  0  0
    0.8250    0.0000    0.0000 O   0  0  0  0  0  0  0  0  0  0  0  0
    0.0000    0.0000    0.0000 P   0  0  3  0  0  0  0  0  0  0  0  0
   -1.6500    1.4289    0.0000 H   0  0  0  0  0  0  0  0  0  0  0  0
    1.6500   -1.4289    0.0000 H   0  0  0  0  0  0  0  0  0  0  0  0
   -1.9400    2.3556    0.0000 H   0  0  0  0  0  0  0  0  0  0  0  0
   -3.0100    2.3555    0.0000 H   0  0  0  0  0  0  0  0  0  0  0  0
   -0.7025    1.6411    0.0000 H   0  0  0  0  0  0  0  0  0  0  0  0
   -0.1675    0.7145    0.0000 H   0  0  0  0  0  0  0  0  0  0  0  0
    0.7025   -1.6411    0.0000 H   0  0  0  0  0  0  0  0  0  0  0  0
    0.1675   -0.7145    0.0000 H   0  0  0  0  0  0  0  0  0  0  0  0
    3.4950    0.0000    0.0000 H   0  0  0  0  0  0  0  0  0  0  0  0
    1.9650    0.8833    0.0000 H   0  0  0  0  0  0  0  0  0  0  0  0
   -3.7850    2.2689    0.0000 H   0  0  0  0  0  0  0  0  0  0  0  0
   -3.4450   -0.0000    0.0000 H   0  0  0  0  0  0  0  0  0  0  0  0
    1.1255   -2.1434    0.0000 H   0  0  0  0  0  0  0  0  0  0  0  0
   -0.8400   -1.3100    0.0000 H   0  0  0  0  0  0  0  0  0  0  0  0
  1 19  1  0  0  0  0
  1 20  1  0  0  0  0
  2 21  1  0  0  0  0
  2 22  1  0  0  0  0
  3 23  1  0  0  0  0
  3 24  1  0  0  0  0
  4  1  1  0  0  0  0
  4  2  1  0  0  0  0
  4  9  1  0  0  0  0
  4 17  1  1  0  0  0
  5  3  1  0  0  0  0
  5  7  1  0  0  0  0
  5 18  1  1  0  0  0
  6  5  1  0  0  0  0
  7 25  1  0  0  0  0
  7 26  1  0  0  0  0
  8  1  1  0  0  0  0
  8 27  1  0  0  0  0
  9 28  1  0  0  0  0
 10  6  2  0  0  0  0
 11  6  1  0  0  0  0
 11 29  1  0  0  0  0
 12 30  1  0  0  0  0
 14  2  1  0  0  0  0
 15  3  1  0  0  0  0
 16 12  1  0  0  0  0
 16 13  2  0  0  0  0
 16 14  1  0  0  0  0
 16 15  1  0  0  0  0
M  END
>  <DRUGBANK_ID>
DB02497

>  <SECONDARY_ACCESSION_NUMBERS>
EXPT01649

>  <COMMON_NAME>
L-Alpha-Glycerophosphorylserine

$$$$
