
 OpenBabel10282417072D

 24 23  0  0  1  0  0  0  0  0999 V2000
    4.2361   -1.0312    0.0000 O   0  0  0  0  0  0  0  0  0  0  0  0
    3.5217    1.0312    0.0000 O   0  0  0  0  0  0  0  0  0  0  0  0
    4.9504    1.0312    0.0000 O   0  0  0  0  0  0  0  0  0  0  0  0
    2.0928    0.2063    0.0000 O   0  0  0  0  0  0  0  0  0  0  0  0
    5.6650   -1.0312    0.0000 O   0  0  0  0  0  0  0  0  0  0  0  0
    7.0938   -0.2063    0.0000 O   0  0  0  0  0  0  0  0  0  0  0  0
    4.2361   -0.2063    0.0000 C   0  0  1  0  0  0  0  0  0  0  0  0
    3.5217    0.2063    0.0000 C   0  0  1  0  0  0  0  0  0  0  0  0
    4.9504    0.2063    0.0000 C   0  0  1  0  0  0  0  0  0  0  0  0
    2.8072   -0.2063    0.0000 C   0  0  0  0  0  0  0  0  0  0  0  0
    5.6650   -0.2063    0.0000 C   0  0  0  0  0  0  0  0  0  0  0  0
    6.3793    0.2063    0.0000 C   0  0  0  0  0  0  0  0  0  0  0  0
    3.3961   -1.5162    0.0000 H   0  0  0  0  0  0  0  0  0  0  0  0
    4.3617    1.5162    0.0000 H   0  0  0  0  0  0  0  0  0  0  0  0
    5.7904    1.5162    0.0000 H   0  0  0  0  0  0  0  0  0  0  0  0
    2.0929    1.1763    0.0000 H   0  0  0  0  0  0  0  0  0  0  0  0
    7.0937   -1.1763    0.0000 H   0  0  0  0  0  0  0  0  0  0  0  0
    3.3094   -0.7412    0.0000 H   0  0  0  0  0  0  0  0  0  0  0  0
    4.4484    0.7412    0.0000 H   0  0  0  0  0  0  0  0  0  0  0  0
    4.0237    0.7412    0.0000 H   0  0  0  0  0  0  0  0  0  0  0  0
    2.8072   -1.2763    0.0000 H   0  0  0  0  0  0  0  0  0  0  0  0
    3.7339   -0.7413    0.0000 H   0  0  0  0  0  0  0  0  0  0  0  0
    6.3792    1.2763    0.0000 H   0  0  0  0  0  0  0  0  0  0  0  0
    5.4526    0.7412    0.0000 H   0  0  0  0  0  0  0  0  0  0  0  0
  1 13  1  0  0  0  0
  2 14  1  0  0  0  0
  3 15  1  0  0  0  0
  4 10  1  0  0  0  0
  4 16  1  0  0  0  0
  5 11  2  0  0  0  0
  6 12  1  0  0  0  0
  6 17  1  0  0  0  0
  7  1  1  0  0  0  0
  7  8  1  0  0  0  0
  7  9  1  0  0  0  0
  7 18  1  6  0  0  0
  8  2  1  0  0  0  0
  8 10  1  0  0  0  0
  8 19  1  6  0  0  0
  9  3  1  0  0  0  0
  9 11  1  0  0  0  0
  9 20  1  1  0  0  0
 10 21  1  0  0  0  0
 10 22  1  0  0  0  0
 11 12  1  0  0  0  0
 12 23  1  0  0  0  0
 12 24  1  0  0  0  0
M  END
>  <DRUGBANK_ID>
DB04936

>  <COMMON_NAME>
Tagatose

>  <CAS_NUMBER>
87-81-0

>  <UNII>
T7A20Y888Y

>  <SYNONYMS>
(3S,4S,5R)-1,3,4,5,6-pentahydroxyhexan-2-one; D-lyxo-hex-2-ulose; D-lyxo-hexulose; D-tag; D-tagatose; keto-D-tagatose

$$$$
