11F
 OpenBabel10282417072D

 49 51  0  0  0  0  0  0  0  0999 V2000
    2.2299   -1.8516    0.0000 C   0  0  0  0  0  0  0  0  0  0  0  0
    2.9444   -2.2641    0.0000 C   0  0  0  0  0  0  0  0  0  0  0  0
    2.9444   -3.0891    0.0000 C   0  0  0  0  0  0  0  0  0  0  0  0
    2.2299   -3.5016    0.0000 C   0  0  0  0  0  0  0  0  0  0  0  0
    1.5154   -3.0891    0.0000 C   0  0  0  0  0  0  0  0  0  0  0  0
    1.5154   -2.2641    0.0000 C   0  0  0  0  0  0  0  0  0  0  0  0
    0.8010   -1.8516    0.0000 C   0  0  0  0  0  0  0  0  0  0  0  0
    0.8010   -1.0266    0.0000 C   0  0  0  0  0  0  0  0  0  0  0  0
    0.0865   -0.6141    0.0000 C   0  0  0  0  0  0  0  0  0  0  0  0
    1.5154   -0.6141    0.0000 O   0  0  0  0  0  0  0  0  0  0  0  0
    1.5154    0.2109    0.0000 C   0  0  0  0  0  0  0  0  0  0  0  0
    0.0865   -2.2641    0.0000 C   0  0  0  0  0  0  0  0  0  0  0  0
   -0.6280   -1.8516    0.0000 C   0  0  0  0  0  0  0  0  0  0  0  0
   -0.6280   -1.0266    0.0000 C   0  0  0  0  0  0  0  0  0  0  0  0
   -1.3425   -0.6141    0.0000 C   0  0  2  0  0  0  0  0  0  0  0  0
   -2.0569   -1.0266    0.0000 C   0  0  0  0  0  0  0  0  0  0  0  0
   -1.3425    0.2109    0.0000 C   0  0  0  0  0  0  0  0  0  0  0  0
   -1.3425    1.0359    0.0000 C   0  0  0  0  0  0  0  0  0  0  0  0
   -1.3425    1.8609    0.0000 C   0  0  0  0  0  0  0  0  0  0  0  0
   -2.0569    2.2734    0.0000 C   0  0  0  0  0  0  0  0  0  0  0  0
   -2.7714    1.8609    0.0000 C   0  0  0  0  0  0  0  0  0  0  0  0
   -2.0569    3.0984    0.0000 N   0  0  0  0  0  0  0  0  0  0  0  0
   -1.3425    3.5109    0.0000 C   0  0  0  0  0  0  0  0  0  0  0  0
   -1.3425    4.3359    0.0000 N   0  0  0  0  0  0  0  0  0  0  0  0
   -0.6280    3.0984    0.0000 N   0  0  0  0  0  0  0  0  0  0  0  0
   -0.6280    2.2734    0.0000 C   0  0  0  0  0  0  0  0  0  0  0  0
    0.0865    1.8609    0.0000 N   0  0  0  0  0  0  0  0  0  0  0  0
   -1.3425   -1.1981    0.0000 H   0  0  0  0  0  0  0  0  0  0  0  0
    2.2299   -0.8196    0.0000 H   0  0  0  0  0  0  0  0  0  0  0  0
    3.8381   -1.7481    0.0000 H   0  0  0  0  0  0  0  0  0  0  0  0
    3.8381   -3.6051    0.0000 H   0  0  0  0  0  0  0  0  0  0  0  0
    2.2299   -4.5336    0.0000 H   0  0  0  0  0  0  0  0  0  0  0  0
    0.6217   -3.6051    0.0000 H   0  0  0  0  0  0  0  0  0  0  0  0
    0.0865    0.4179    0.0000 H   0  0  0  0  0  0  0  0  0  0  0  0
    2.4420    0.7459    0.0000 H   0  0  0  0  0  0  0  0  0  0  0  0
    0.5888    0.7459    0.0000 H   0  0  0  0  0  0  0  0  0  0  0  0
    1.5154    1.2809    0.0000 H   0  0  0  0  0  0  0  0  0  0  0  0
    0.0865   -3.2961    0.0000 H   0  0  0  0  0  0  0  0  0  0  0  0
   -1.5217   -2.3676    0.0000 H   0  0  0  0  0  0  0  0  0  0  0  0
   -2.9836   -0.4916    0.0000 H   0  0  0  0  0  0  0  0  0  0  0  0
   -2.0569   -2.0966    0.0000 H   0  0  0  0  0  0  0  0  0  0  0  0
   -2.9835   -1.5616    0.0000 H   0  0  0  0  0  0  0  0  0  0  0  0
   -3.6980    2.3959    0.0000 H   0  0  0  0  0  0  0  0  0  0  0  0
   -2.7714    0.7909    0.0000 H   0  0  0  0  0  0  0  0  0  0  0  0
   -3.6981    1.3259    0.0000 H   0  0  0  0  0  0  0  0  0  0  0  0
   -0.4899    4.8281    0.0000 H   0  0  0  0  0  0  0  0  0  0  0  0
   -2.1951    4.8281    0.0000 H   0  0  0  0  0  0  0  0  0  0  0  0
    0.0865    0.8764    0.0000 H   0  0  0  0  0  0  0  0  0  0  0  0
    0.9391    2.3532    0.0000 H   0  0  0  0  0  0  0  0  0  0  0  0
  1  2  1  0  0  0  0
  1 29  1  0  0  0  0
  2  3  2  0  0  0  0
  2 30  1  0  0  0  0
  3 31  1  0  0  0  0
  4  3  1  0  0  0  0
  4 32  1  0  0  0  0
  5  4  2  0  0  0  0
  5 33  1  0  0  0  0
  6  1  2  0  0  0  0
  6  5  1  0  0  0  0
  7  6  1  0  0  0  0
  8  7  2  0  0  0  0
  8 10  1  0  0  0  0
  9  8  1  0  0  0  0
  9 34  1  0  0  0  0
 11 10  1  0  0  0  0
 11 35  1  0  0  0  0
 11 36  1  0  0  0  0
 11 37  1  0  0  0  0
 12  7  1  0  0  0  0
 12 38  1  0  0  0  0
 13 12  2  0  0  0  0
 13 39  1  0  0  0  0
 14  9  2  0  0  0  0
 14 13  1  0  0  0  0
 15 14  1  0  0  0  0
 15 16  1  0  0  0  0
 15 28  1  1  0  0  0
 16 40  1  0  0  0  0
 16 41  1  0  0  0  0
 16 42  1  0  0  0  0
 17 15  1  0  0  0  0
 18 17  3  0  0  0  0
 19 18  1  0  0  0  0
 19 20  1  0  0  0  0
 20 21  1  0  0  0  0
 21 43  1  0  0  0  0
 21 44  1  0  0  0  0
 21 45  1  0  0  0  0
 22 20  2  0  0  0  0
 23 22  1  0  0  0  0
 24 23  1  0  0  0  0
 24 46  1  0  0  0  0
 24 47  1  0  0  0  0
 25 23  2  0  0  0  0
 25 26  1  0  0  0  0
 26 19  2  0  0  0  0
 27 26  1  0  0  0  0
 27 48  1  0  0  0  0
 27 49  1  0  0  0  0
M  END
>  <DRUGBANK_ID>
DB06847

>  <COMMON_NAME>
5-[(3S)-3-(2-methoxybiphenyl-4-yl)but-1-yn-1-yl]-6-methylpyrimidine-2,4-diamine

$$$$
