
 OpenBabel10282417072D

 28 27  0  0  0  0  0  0  0  0999 V2000
    0.3788    1.2058    0.0000 C   0  0  0  0  0  0  0  0  0  0  0  0
    1.1081    0.7630    0.0000 C   0  0  0  0  0  0  0  0  0  0  0  0
    1.7913    1.2058    0.0000 O   0  0  0  0  0  0  0  0  0  0  0  0
    1.1081   -0.0505    0.0000 O   0  0  0  0  0  0  0  0  0  0  0  0
   -0.3445    0.8090    0.0000 C   0  0  1  0  0  0  0  0  0  0  0  0
   -1.0498    1.2372    0.0000 C   0  0  0  0  0  0  0  0  0  0  0  0
   -1.7731    0.8405    0.0000 N   0  0  0  0  0  0  0  0  0  0  0  0
   -0.3627   -0.0157    0.0000 C   0  0  0  0  0  0  0  0  0  0  0  0
   -1.0861   -0.4123    0.0000 C   0  0  0  0  0  0  0  0  0  0  0  0
   -1.7913    0.0156    0.0000 C   0  0  0  0  0  0  0  0  0  0  0  0
   -1.1042   -1.2372    0.0000 C   0  0  0  0  0  0  0  0  0  0  0  0
    0.4023    2.2755    0.0000 H   0  0  0  0  0  0  0  0  0  0  0  0
   -0.5359    1.7610    0.0000 H   0  0  0  0  0  0  0  0  0  0  0  0
    2.6258    0.7797    0.0000 H   0  0  0  0  0  0  0  0  0  0  0  0
   -0.3210    1.8787    0.0000 H   0  0  0  0  0  0  0  0  0  0  0  0
   -1.0263    2.3069    0.0000 H   0  0  0  0  0  0  0  0  0  0  0  0
   -1.9645    1.7924    0.0000 H   0  0  0  0  0  0  0  0  0  0  0  0
   -2.6450    1.3698    0.0000 H   0  0  0  0  0  0  0  0  0  0  0  0
   -1.7955   -0.1793    0.0000 H   0  0  0  0  0  0  0  0  0  0  0  0
    0.5519   -0.5710    0.0000 H   0  0  0  0  0  0  0  0  0  0  0  0
   -0.3863   -1.0854    0.0000 H   0  0  0  0  0  0  0  0  0  0  0  0
   -2.0242   -0.9269    0.0000 H   0  0  0  0  0  0  0  0  0  0  0  0
   -1.7680    1.0853    0.0000 H   0  0  0  0  0  0  0  0  0  0  0  0
   -2.7294   -0.4991    0.0000 H   0  0  0  0  0  0  0  0  0  0  0  0
   -2.7061    0.5707    0.0000 H   0  0  0  0  0  0  0  0  0  0  0  0
   -2.0424   -1.7517    0.0000 H   0  0  0  0  0  0  0  0  0  0  0  0
   -0.1895   -1.7924    0.0000 H   0  0  0  0  0  0  0  0  0  0  0  0
   -1.1277   -2.3069    0.0000 H   0  0  0  0  0  0  0  0  0  0  0  0
  1  2  1  0  0  0  0
  1  5  1  0  0  0  0
  1 12  1  0  0  0  0
  1 13  1  0  0  0  0
  2  3  1  0  0  0  0
  2  4  2  0  0  0  0
  3 14  1  0  0  0  0
  5  6  1  0  0  0  0
  5  8  1  0  0  0  0
  5 15  1  1  0  0  0
  6  7  1  0  0  0  0
  6 16  1  0  0  0  0
  6 17  1  0  0  0  0
  7 18  1  0  0  0  0
  7 19  1  0  0  0  0
  8  9  1  0  0  0  0
  8 20  1  0  0  0  0
  8 21  1  0  0  0  0
  9 10  1  0  0  0  0
  9 11  1  0  0  0  0
  9 22  1  0  0  0  0
 10 23  1  0  0  0  0
 10 24  1  0  0  0  0
 10 25  1  0  0  0  0
 11 26  1  0  0  0  0
 11 27  1  0  0  0  0
 11 28  1  0  0  0  0
M  END
>  <DRUGBANK_ID>
DB00230

>  <SECONDARY_ACCESSION_NUMBERS>
APRD01198

>  <COMMON_NAME>
Pregabalin

>  <CAS_NUMBER>
148553-50-8

>  <UNII>
55JG375S6M

>  <SYNONYMS>
(S)-3-Isobutyl GABA; 3-Isobutyl GABA; Pregabalin; Pregabalina

$$$$
