
 OpenBabel10282417072D

 65 66  0  0  0  0  0  0  0  0999 V2000
    3.0534    2.3480    0.0000 C   0  0  0  0  0  0  0  0  0  0  0  0
    3.6827    1.8145    0.0000 C   0  0  0  0  0  0  0  0  0  0  0  0
    3.5353    1.0028    0.0000 N   0  0  0  0  0  0  0  0  0  0  0  0
    2.7586    0.7245    0.0000 C   0  0  0  0  0  0  0  0  0  0  0  0
    2.1293    1.2581    0.0000 N   0  0  0  0  0  0  0  0  0  0  0  0
    2.2767    2.0698    0.0000 C   0  0  0  0  0  0  0  0  0  0  0  0
    1.3526    0.9799    0.0000 C   0  0  1  0  0  0  0  0  0  0  0  0
    1.1211    0.1879    0.0000 C   0  0  0  0  0  0  0  0  0  0  0  0
    0.2964    0.1633    0.0000 C   0  0  1  0  0  0  0  0  0  0  0  0
    0.0181    0.9400    0.0000 C   0  0  2  0  0  0  0  0  0  0  0  0
    0.6709    1.4447    0.0000 O   0  0  0  0  0  0  0  0  0  0  0  0
   -0.7736    1.1714    0.0000 C   0  0  0  0  0  0  0  0  0  0  0  0
   -1.3700    0.6013    0.0000 O   0  0  0  0  0  0  0  0  0  0  0  0
   -2.1620    0.8328    0.0000 P   0  0  3  0  0  0  0  0  0  0  0  0
   -2.3934    0.0408    0.0000 O   0  0  0  0  0  0  0  0  0  0  0  0
   -3.1949   -0.1546    0.0000 C   0  0  0  0  0  0  0  0  0  0  0  0
   -3.4264   -0.9465    0.0000 C   0  0  0  0  0  0  0  0  0  0  0  0
   -4.2279   -1.1421    0.0000 C   0  0  0  0  0  0  0  0  0  0  0  0
   -4.4594   -1.9339    0.0000 C   0  0  0  0  0  0  0  0  0  0  0  0
   -1.9305    1.6247    0.0000 O   0  0  0  0  0  0  0  0  0  0  0  0
   -2.9539    1.0642    0.0000 O   0  0  0  0  0  0  0  0  0  0  0  0
   -0.1683   -0.5183    0.0000 O   0  0  0  0  0  0  0  0  0  0  0  0
   -0.9678   -0.3146    0.0000 P   0  0  3  0  0  0  0  0  0  0  0  0
   -1.1714   -1.1140    0.0000 O   0  0  0  0  0  0  0  0  0  0  0  0
   -1.9657   -1.3375    0.0000 C   0  0  0  0  0  0  0  0  0  0  0  0
   -2.1694   -2.1370    0.0000 C   0  0  0  0  0  0  0  0  0  0  0  0
   -2.9636   -2.3604    0.0000 C   0  0  0  0  0  0  0  0  0  0  0  0
   -3.1672   -3.1598    0.0000 C   0  0  0  0  0  0  0  0  0  0  0  0
   -1.7674   -0.1109    0.0000 O   0  0  0  0  0  0  0  0  0  0  0  0
   -0.7641    0.4848    0.0000 O   0  0  0  0  0  0  0  0  0  0  0  0
    2.6112   -0.0872    0.0000 O   0  0  0  0  0  0  0  0  0  0  0  0
    4.4594    2.0928    0.0000 O   0  0  0  0  0  0  0  0  0  0  0  0
    3.2007    3.1598    0.0000 C   0  0  0  0  0  0  0  0  0  0  0  0
    4.2863    0.3662    0.0000 H   0  0  0  0  0  0  0  0  0  0  0  0
    1.4895    2.7372    0.0000 H   0  0  0  0  0  0  0  0  0  0  0  0
    2.1314    0.2462    0.0000 H   0  0  0  0  0  0  0  0  0  0  0  0
    1.7755   -0.6586    0.0000 H   0  0  0  0  0  0  0  0  0  0  0  0
    0.6640   -0.7795    0.0000 H   0  0  0  0  0  0  0  0  0  0  0  0
    0.8104   -0.7751    0.0000 H   0  0  0  0  0  0  0  0  0  0  0  0
   -0.7156    0.1612    0.0000 H   0  0  0  0  0  0  0  0  0  0  0  0
   -1.0272    2.2109    0.0000 H   0  0  0  0  0  0  0  0  0  0  0  0
   -1.8006    1.4716    0.0000 H   0  0  0  0  0  0  0  0  0  0  0  0
   -3.9342    0.6189    0.0000 H   0  0  0  0  0  0  0  0  0  0  0  0
   -4.2344   -0.4081    0.0000 H   0  0  0  0  0  0  0  0  0  0  0  0
   -2.6870   -1.7200    0.0000 H   0  0  0  0  0  0  0  0  0  0  0  0
   -3.7265   -1.9736    0.0000 H   0  0  0  0  0  0  0  0  0  0  0  0
   -4.9673   -0.3686    0.0000 H   0  0  0  0  0  0  0  0  0  0  0  0
   -5.2674   -1.3956    0.0000 H   0  0  0  0  0  0  0  0  0  0  0  0
   -5.4989   -2.1874    0.0000 H   0  0  0  0  0  0  0  0  0  0  0  0
   -3.7201   -2.7074    0.0000 H   0  0  0  0  0  0  0  0  0  0  0  0
   -4.7597   -2.9609    0.0000 H   0  0  0  0  0  0  0  0  0  0  0  0
   -3.1838    2.0066    0.0000 H   0  0  0  0  0  0  0  0  0  0  0  0
   -2.7316   -0.5903    0.0000 H   0  0  0  0  0  0  0  0  0  0  0  0
   -2.9957   -1.6272    0.0000 H   0  0  0  0  0  0  0  0  0  0  0  0
   -1.4035   -2.8842    0.0000 H   0  0  0  0  0  0  0  0  0  0  0  0
   -2.4335   -3.1739    0.0000 H   0  0  0  0  0  0  0  0  0  0  0  0
   -3.7295   -1.6132    0.0000 H   0  0  0  0  0  0  0  0  0  0  0  0
   -3.9936   -2.6501    0.0000 H   0  0  0  0  0  0  0  0  0  0  0  0
   -4.1972   -3.4495    0.0000 H   0  0  0  0  0  0  0  0  0  0  0  0
   -2.4013   -3.9070    0.0000 H   0  0  0  0  0  0  0  0  0  0  0  0
   -3.4313   -4.1967    0.0000 H   0  0  0  0  0  0  0  0  0  0  0  0
    0.1697    0.7474    0.0000 H   0  0  0  0  0  0  0  0  0  0  0  0
    4.2080    3.5208    0.0000 H   0  0  0  0  0  0  0  0  0  0  0  0
    2.3845    3.8516    0.0000 H   0  0  0  0  0  0  0  0  0  0  0  0
    3.3917    4.2126    0.0000 H   0  0  0  0  0  0  0  0  0  0  0  0
  1  2  1  0  0  0  0
  1  6  2  0  0  0  0
  1 33  1  0  0  0  0
  2 32  2  0  0  0  0
  3  2  1  0  0  0  0
  3 34  1  0  0  0  0
  4  3  1  0  0  0  0
  4 31  2  0  0  0  0
  5  4  1  0  0  0  0
  6  5  1  0  0  0  0
  6 35  1  0  0  0  0
  7  5  1  0  0  0  0
  7 11  1  0  0  0  0
  7 36  1  6  0  0  0
  8  7  1  0  0  0  0
  8  9  1  0  0  0  0
  8 37  1  0  0  0  0
  8 38  1  0  0  0  0
  9 10  1  0  0  0  0
  9 22  1  0  0  0  0
  9 39  1  1  0  0  0
 10 12  1  0  0  0  0
 10 40  1  6  0  0  0
 11 10  1  0  0  0  0
 12 13  1  0  0  0  0
 12 41  1  0  0  0  0
 12 42  1  0  0  0  0
 13 14  1  0  0  0  0
 14 15  1  0  0  0  0
 14 20  2  0  0  0  0
 14 21  1  0  0  0  0
 15 16  1  0  0  0  0
 16 17  1  0  0  0  0
 16 43  1  0  0  0  0
 16 44  1  0  0  0  0
 17 18  1  0  0  0  0
 17 45  1  0  0  0  0
 17 46  1  0  0  0  0
 18 19  1  0  0  0  0
 18 47  1  0  0  0  0
 18 48  1  0  0  0  0
 19 49  1  0  0  0  0
 19 50  1  0  0  0  0
 19 51  1  0  0  0  0
 21 52  1  0  0  0  0
 22 23  1  0  0  0  0
 23 24  1  0  0  0  0
 23 29  2  0  0  0  0
 23 30  1  0  0  0  0
 24 25  1  0  0  0  0
 25 26  1  0  0  0  0
 25 53  1  0  0  0  0
 25 54  1  0  0  0  0
 26 27  1  0  0  0  0
 26 55  1  0  0  0  0
 26 56  1  0  0  0  0
 27 28  1  0  0  0  0
 27 57  1  0  0  0  0
 27 58  1  0  0  0  0
 28 59  1  0  0  0  0
 28 60  1  0  0  0  0
 28 61  1  0  0  0  0
 30 62  1  0  0  0  0
 33 63  1  0  0  0  0
 33 64  1  0  0  0  0
 33 65  1  0  0  0  0
M  END
>  <DRUGBANK_ID>
DB16015

>  <COMMON_NAME>
Bisphosphocin Nu-3

>  <CAS_NUMBER>
403717-06-6

>  <UNII>
8BK3483OW5

>  <SYNONYMS>
3'-thymidylic acid, monobutyl ester, 5'-(butyl hydrogen phosphate); Bisphosphocin Nu-3; Bisphosphocin Nu3; Nu-3

$$$$
