
 OpenBabel10282417072D

258257  0  0  0  0  0  0  0  0999 V2000
   -4.5078   -2.8971    0.0000 C   0  0  1  0  0  0  0  0  0  0  0  0
   -3.7932   -3.3096    0.0000 C   0  0  0  0  0  0  0  0  0  0  0  0
   -4.5078   -2.0721    0.0000 C   0  0  0  0  0  0  0  0  0  0  0  0
   -3.0789   -2.8971    0.0000 O   0  0  0  0  0  0  0  0  0  0  0  0
   -2.2539   -2.8971    0.0000 P   0  0  3  0  0  0  0  0  0  0  0  0
   -1.4290   -2.8971    0.0000 O   0  0  0  0  0  0  0  0  0  0  0  0
   -2.2539   -2.0721    0.0000 O   0  0  0  0  0  0  0  0  0  0  0  0
   -2.2539   -3.7221    0.0000 O   0  0  0  0  0  0  0  0  0  0  0  0
   -0.7145   -3.3096    0.0000 C   0  0  0  0  0  0  0  0  0  0  0  0
    0.0000   -2.8971    0.0000 C   0  0  3  0  0  0  0  0  0  0  0  0
    0.7143   -3.3096    0.0000 C   0  0  0  0  0  0  0  0  0  0  0  0
    0.0000   -2.0721    0.0000 O   0  0  0  0  0  0  0  0  0  0  0  0
    1.4289   -2.8971    0.0000 O   0  0  0  0  0  0  0  0  0  0  0  0
    2.2538   -2.8971    0.0000 P   0  0  3  0  0  0  0  0  0  0  0  0
    3.0787   -2.8971    0.0000 O   0  0  0  0  0  0  0  0  0  0  0  0
    2.2538   -2.0721    0.0000 O   0  0  0  0  0  0  0  0  0  0  0  0
    2.2538   -3.7221    0.0000 O   0  0  0  0  0  0  0  0  0  0  0  0
    3.7932   -3.3096    0.0000 C   0  0  0  0  0  0  0  0  0  0  0  0
    4.5077   -2.8971    0.0000 C   0  0  1  0  0  0  0  0  0  0  0  0
    4.5077   -2.0721    0.0000 C   0  0  0  0  0  0  0  0  0  0  0  0
  -11.6526   -2.8967    0.0000 C   0  0  0  0  0  0  0  0  0  0  0  0
  -12.3671   -3.3091    0.0000 C   0  0  0  0  0  0  0  0  0  0  0  0
   -5.9366   -2.8971    0.0000 C   0  0  0  0  0  0  0  0  0  0  0  0
   -6.6512   -3.2913    0.0000 C   0  0  0  0  0  0  0  0  0  0  0  0
   -5.9366   -2.0720    0.0000 O   0  0  0  0  0  0  0  0  0  0  0  0
   -7.3658   -2.8969    0.0000 C   0  0  0  0  0  0  0  0  0  0  0  0
   -8.0802   -3.3094    0.0000 C   0  0  0  0  0  0  0  0  0  0  0  0
   -8.7946   -2.8969    0.0000 C   0  0  0  0  0  0  0  0  0  0  0  0
   -9.5092   -3.3092    0.0000 C   0  0  0  0  0  0  0  0  0  0  0  0
  -10.2237   -2.8967    0.0000 C   0  0  0  0  0  0  0  0  0  0  0  0
  -10.9382   -3.3092    0.0000 C   0  0  0  0  0  0  0  0  0  0  0  0
   -5.2222   -3.3096    0.0000 O   0  0  0  0  0  0  0  0  0  0  0  0
  -12.3671   -4.1342    0.0000 C   0  0  0  0  0  0  0  0  0  0  0  0
  -11.6527   -4.5467    0.0000 C   0  0  0  0  0  0  0  0  0  0  0  0
  -10.9382   -4.1343    0.0000 C   0  0  0  0  0  0  0  0  0  0  0  0
  -10.2236   -4.5468    0.0000 C   0  0  0  0  0  0  0  0  0  0  0  0
   -9.5091   -4.1343    0.0000 C   0  0  0  0  0  0  0  0  0  0  0  0
   -8.7948   -4.5468    0.0000 C   0  0  0  0  0  0  0  0  0  0  0  0
   -8.0801   -4.1344    0.0000 C   0  0  0  0  0  0  0  0  0  0  0  0
   -7.3656   -4.5468    0.0000 C   0  0  0  0  0  0  0  0  0  0  0  0
   -8.0495    4.1305    0.0000 C   0  0  0  0  0  0  0  0  0  0  0  0
   -8.7615    4.5468    0.0000 C   0  0  0  0  0  0  0  0  0  0  0  0
   -5.2178   -0.8347    0.0000 C   0  0  0  0  0  0  0  0  0  0  0  0
   -5.9301   -0.4183    0.0000 C   0  0  0  0  0  0  0  0  0  0  0  0
   -4.5012   -0.4259    0.0000 O   0  0  0  0  0  0  0  0  0  0  0  0
   -5.9257    0.4067    0.0000 C   0  0  0  0  0  0  0  0  0  0  0  0
   -6.6380    0.8229    0.0000 C   0  0  0  0  0  0  0  0  0  0  0  0
   -6.6337    1.6478    0.0000 C   0  0  0  0  0  0  0  0  0  0  0  0
   -7.3458    2.0642    0.0000 C   0  0  0  0  0  0  0  0  0  0  0  0
   -7.3416    2.8892    0.0000 C   0  0  0  0  0  0  0  0  0  0  0  0
   -8.0537    3.3057    0.0000 C   0  0  0  0  0  0  0  0  0  0  0  0
   -5.2222   -1.6596    0.0000 O   0  0  0  0  0  0  0  0  0  0  0  0
   -9.4783    4.1381    0.0000 C   0  0  0  0  0  0  0  0  0  0  0  0
   -9.4827    3.3132    0.0000 C   0  0  0  0  0  0  0  0  0  0  0  0
   -8.7705    2.8968    0.0000 C   0  0  0  0  0  0  0  0  0  0  0  0
   -8.7748    2.0717    0.0000 C   0  0  0  0  0  0  0  0  0  0  0  0
   -8.0624    1.6555    0.0000 C   0  0  0  0  0  0  0  0  0  0  0  0
   -8.0669    0.8306    0.0000 C   0  0  0  0  0  0  0  0  0  0  0  0
   -7.3546    0.4142    0.0000 C   0  0  0  0  0  0  0  0  0  0  0  0
   -7.3589   -0.4107    0.0000 C   0  0  0  0  0  0  0  0  0  0  0  0
   11.6525   -2.8967    0.0000 C   0  0  0  0  0  0  0  0  0  0  0  0
   12.3669   -3.3091    0.0000 C   0  0  0  0  0  0  0  0  0  0  0  0
    5.9365   -2.8971    0.0000 C   0  0  0  0  0  0  0  0  0  0  0  0
    6.6510   -3.3095    0.0000 C   0  0  0  0  0  0  0  0  0  0  0  0
    5.9365   -2.0720    0.0000 O   0  0  0  0  0  0  0  0  0  0  0  0
    7.3655   -2.8969    0.0000 C   0  0  0  0  0  0  0  0  0  0  0  0
    8.0802   -3.3094    0.0000 C   0  0  0  0  0  0  0  0  0  0  0  0
    8.7945   -2.8969    0.0000 C   0  0  0  0  0  0  0  0  0  0  0  0
    9.5090   -3.3092    0.0000 C   0  0  0  0  0  0  0  0  0  0  0  0
   10.2235   -2.8967    0.0000 C   0  0  0  0  0  0  0  0  0  0  0  0
   10.9381   -3.3092    0.0000 C   0  0  0  0  0  0  0  0  0  0  0  0
    5.2221   -3.3096    0.0000 O   0  0  0  0  0  0  0  0  0  0  0  0
   12.3670   -4.1342    0.0000 C   0  0  0  0  0  0  0  0  0  0  0  0
   11.6525   -4.5467    0.0000 C   0  0  0  0  0  0  0  0  0  0  0  0
   10.9380   -4.1343    0.0000 C   0  0  0  0  0  0  0  0  0  0  0  0
   10.2235   -4.5468    0.0000 C   0  0  0  0  0  0  0  0  0  0  0  0
    9.5090   -4.1343    0.0000 C   0  0  0  0  0  0  0  0  0  0  0  0
    8.7947   -4.5468    0.0000 C   0  0  0  0  0  0  0  0  0  0  0  0
    8.0801   -4.1344    0.0000 C   0  0  0  0  0  0  0  0  0  0  0  0
    7.3655   -4.5468    0.0000 C   0  0  0  0  0  0  0  0  0  0  0  0
    6.6963    4.0928    0.0000 C   0  0  0  0  0  0  0  0  0  0  0  0
    7.4139    4.4997    0.0000 C   0  0  0  0  0  0  0  0  0  0  0  0
    3.7932   -0.8097    0.0000 C   0  0  0  0  0  0  0  0  0  0  0  0
    4.5174   -0.4279    0.0000 C   0  0  0  0  0  0  0  0  0  0  0  0
    3.0885   -0.4165    0.0000 O   0  0  0  0  0  0  0  0  0  0  0  0
    4.5238    0.3972    0.0000 C   0  0  0  0  0  0  0  0  0  0  0  0
    5.2416    0.8040    0.0000 C   0  0  0  0  0  0  0  0  0  0  0  0
    5.2480    1.6290    0.0000 C   0  0  0  0  0  0  0  0  0  0  0  0
    5.9657    2.0360    0.0000 C   0  0  0  0  0  0  0  0  0  0  0  0
    5.9722    2.8610    0.0000 C   0  0  0  0  0  0  0  0  0  0  0  0
    6.6900    3.2679    0.0000 C   0  0  0  0  0  0  0  0  0  0  0  0
    3.7932   -1.6596    0.0000 O   0  0  0  0  0  0  0  0  0  0  0  0
    8.1253    4.0815    0.0000 C   0  0  0  0  0  0  0  0  0  0  0  0
    8.1188    3.2565    0.0000 C   0  0  0  0  0  0  0  0  0  0  0  0
    7.4011    2.8497    0.0000 C   0  0  0  0  0  0  0  0  0  0  0  0
    7.3946    2.0247    0.0000 C   0  0  0  0  0  0  0  0  0  0  0  0
    6.6768    1.6177    0.0000 C   0  0  0  0  0  0  0  0  0  0  0  0
    6.6704    0.7929    0.0000 C   0  0  0  0  0  0  0  0  0  0  0  0
    5.9527    0.3859    0.0000 C   0  0  0  0  0  0  0  0  0  0  0  0
    5.9461   -0.4390    0.0000 C   0  0  0  0  0  0  0  0  0  0  0  0
   -4.5077   -3.9671    0.0000 H   0  0  0  0  0  0  0  0  0  0  0  0
   -3.7931   -4.3796    0.0000 H   0  0  0  0  0  0  0  0  0  0  0  0
   -2.8665   -3.8445    0.0000 H   0  0  0  0  0  0  0  0  0  0  0  0
   -3.5811   -1.5371    0.0000 H   0  0  0  0  0  0  0  0  0  0  0  0
   -4.5078   -1.0021    0.0000 H   0  0  0  0  0  0  0  0  0  0  0  0
   -1.4139   -1.5871    0.0000 H   0  0  0  0  0  0  0  0  0  0  0  0
   -0.7145   -4.3796    0.0000 H   0  0  0  0  0  0  0  0  0  0  0  0
    0.2121   -3.8446    0.0000 H   0  0  0  0  0  0  0  0  0  0  0  0
   -0.0001   -3.9671    0.0000 H   0  0  0  0  0  0  0  0  0  0  0  0
    0.7142   -4.3796    0.0000 H   0  0  0  0  0  0  0  0  0  0  0  0
    1.6409   -3.8447    0.0000 H   0  0  0  0  0  0  0  0  0  0  0  0
    0.8400   -1.5871    0.0000 H   0  0  0  0  0  0  0  0  0  0  0  0
    3.0938   -1.5871    0.0000 H   0  0  0  0  0  0  0  0  0  0  0  0
    3.7932   -4.3796    0.0000 H   0  0  0  0  0  0  0  0  0  0  0  0
    4.7198   -3.8446    0.0000 H   0  0  0  0  0  0  0  0  0  0  0  0
    4.5077   -3.9671    0.0000 H   0  0  0  0  0  0  0  0  0  0  0  0
    5.4343   -1.5371    0.0000 H   0  0  0  0  0  0  0  0  0  0  0  0
    4.5077   -1.0021    0.0000 H   0  0  0  0  0  0  0  0  0  0  0  0
  -11.6525   -1.8267    0.0000 H   0  0  0  0  0  0  0  0  0  0  0  0
  -12.5792   -2.3616    0.0000 H   0  0  0  0  0  0  0  0  0  0  0  0
  -13.2937   -2.7740    0.0000 H   0  0  0  0  0  0  0  0  0  0  0  0
  -13.2938   -3.8441    0.0000 H   0  0  0  0  0  0  0  0  0  0  0  0
   -6.6513   -4.3613    0.0000 H   0  0  0  0  0  0  0  0  0  0  0  0
   -7.5727   -3.8352    0.0000 H   0  0  0  0  0  0  0  0  0  0  0  0
   -7.3761   -1.8269    0.0000 H   0  0  0  0  0  0  0  0  0  0  0  0
   -8.2950   -2.3664    0.0000 H   0  0  0  0  0  0  0  0  0  0  0  0
   -8.0802   -4.3794    0.0000 H   0  0  0  0  0  0  0  0  0  0  0  0
   -9.0069   -3.8444    0.0000 H   0  0  0  0  0  0  0  0  0  0  0  0
   -8.7944   -1.8269    0.0000 H   0  0  0  0  0  0  0  0  0  0  0  0
   -9.7211   -2.3617    0.0000 H   0  0  0  0  0  0  0  0  0  0  0  0
   -9.5093   -4.3792    0.0000 H   0  0  0  0  0  0  0  0  0  0  0  0
  -10.4359   -3.8441    0.0000 H   0  0  0  0  0  0  0  0  0  0  0  0
  -10.2237   -1.8267    0.0000 H   0  0  0  0  0  0  0  0  0  0  0  0
  -11.1503   -2.3617    0.0000 H   0  0  0  0  0  0  0  0  0  0  0  0
  -10.9382   -4.3792    0.0000 H   0  0  0  0  0  0  0  0  0  0  0  0
  -10.0116   -3.8442    0.0000 H   0  0  0  0  0  0  0  0  0  0  0  0
  -13.2938   -4.6692    0.0000 H   0  0  0  0  0  0  0  0  0  0  0  0
  -12.3671   -5.2042    0.0000 H   0  0  0  0  0  0  0  0  0  0  0  0
  -11.6528   -5.6167    0.0000 H   0  0  0  0  0  0  0  0  0  0  0  0
  -10.7261   -5.0818    0.0000 H   0  0  0  0  0  0  0  0  0  0  0  0
  -10.9382   -3.0643    0.0000 H   0  0  0  0  0  0  0  0  0  0  0  0
  -10.0116   -3.5993    0.0000 H   0  0  0  0  0  0  0  0  0  0  0  0
  -10.2236   -5.6168    0.0000 H   0  0  0  0  0  0  0  0  0  0  0  0
   -9.2969   -5.0818    0.0000 H   0  0  0  0  0  0  0  0  0  0  0  0
   -9.5090   -3.0643    0.0000 H   0  0  0  0  0  0  0  0  0  0  0  0
   -8.5824   -3.5994    0.0000 H   0  0  0  0  0  0  0  0  0  0  0  0
   -8.7950   -5.6168    0.0000 H   0  0  0  0  0  0  0  0  0  0  0  0
   -7.8683   -5.0820    0.0000 H   0  0  0  0  0  0  0  0  0  0  0  0
   -8.0800   -3.0644    0.0000 H   0  0  0  0  0  0  0  0  0  0  0  0
   -7.1535   -3.5994    0.0000 H   0  0  0  0  0  0  0  0  0  0  0  0
   -7.3655   -5.6168    0.0000 H   0  0  0  0  0  0  0  0  0  0  0  0
   -6.4390   -4.0117    0.0000 H   0  0  0  0  0  0  0  0  0  0  0  0
   -6.4389   -5.0817    0.0000 H   0  0  0  0  0  0  0  0  0  0  0  0
   -7.1200    4.6606    0.0000 H   0  0  0  0  0  0  0  0  0  0  0  0
   -8.0437    5.2005    0.0000 H   0  0  0  0  0  0  0  0  0  0  0  0
   -8.7557    5.6168    0.0000 H   0  0  0  0  0  0  0  0  0  0  0  0
   -9.6852    5.0868    0.0000 H   0  0  0  0  0  0  0  0  0  0  0  0
   -6.8596   -0.9483    0.0000 H   0  0  0  0  0  0  0  0  0  0  0  0
   -6.8539    0.1217    0.0000 H   0  0  0  0  0  0  0  0  0  0  0  0
   -4.9962    0.9368    0.0000 H   0  0  0  0  0  0  0  0  0  0  0  0
   -5.9201    1.4767    0.0000 H   0  0  0  0  0  0  0  0  0  0  0  0
   -7.5674    0.2927    0.0000 H   0  0  0  0  0  0  0  0  0  0  0  0
   -7.5618    1.3627    0.0000 H   0  0  0  0  0  0  0  0  0  0  0  0
   -5.7042    2.1778    0.0000 H   0  0  0  0  0  0  0  0  0  0  0  0
   -6.6279    2.7178    0.0000 H   0  0  0  0  0  0  0  0  0  0  0  0
   -8.2753    1.5341    0.0000 H   0  0  0  0  0  0  0  0  0  0  0  0
   -8.2697    2.6040    0.0000 H   0  0  0  0  0  0  0  0  0  0  0  0
   -6.4121    3.4192    0.0000 H   0  0  0  0  0  0  0  0  0  0  0  0
   -7.3357    3.9592    0.0000 H   0  0  0  0  0  0  0  0  0  0  0  0
   -8.9832    2.7757    0.0000 H   0  0  0  0  0  0  0  0  0  0  0  0
   -8.0596    2.2357    0.0000 H   0  0  0  0  0  0  0  0  0  0  0  0
  -10.4021    4.6781    0.0000 H   0  0  0  0  0  0  0  0  0  0  0  0
  -10.4078    3.6081    0.0000 H   0  0  0  0  0  0  0  0  0  0  0  0
  -10.4122    2.7832    0.0000 H   0  0  0  0  0  0  0  0  0  0  0  0
   -9.4885    2.2432    0.0000 H   0  0  0  0  0  0  0  0  0  0  0  0
   -7.8410    3.4268    0.0000 H   0  0  0  0  0  0  0  0  0  0  0  0
   -7.8467    2.3569    0.0000 H   0  0  0  0  0  0  0  0  0  0  0  0
   -9.7042    1.5415    0.0000 H   0  0  0  0  0  0  0  0  0  0  0  0
   -8.7803    1.0017    0.0000 H   0  0  0  0  0  0  0  0  0  0  0  0
   -7.1329    2.1856    0.0000 H   0  0  0  0  0  0  0  0  0  0  0  0
   -7.1386    1.1155    0.0000 H   0  0  0  0  0  0  0  0  0  0  0  0
   -8.9964    0.3006    0.0000 H   0  0  0  0  0  0  0  0  0  0  0  0
   -8.0727   -0.2394    0.0000 H   0  0  0  0  0  0  0  0  0  0  0  0
   -6.4251    0.9443    0.0000 H   0  0  0  0  0  0  0  0  0  0  0  0
   -6.4308   -0.1257    0.0000 H   0  0  0  0  0  0  0  0  0  0  0  0
   -8.2883   -0.9409    0.0000 H   0  0  0  0  0  0  0  0  0  0  0  0
   -6.4351   -0.9505    0.0000 H   0  0  0  0  0  0  0  0  0  0  0  0
   -7.3645   -1.4807    0.0000 H   0  0  0  0  0  0  0  0  0  0  0  0
   11.6524   -1.8267    0.0000 H   0  0  0  0  0  0  0  0  0  0  0  0
   12.5791   -2.3616    0.0000 H   0  0  0  0  0  0  0  0  0  0  0  0
   13.2935   -2.7740    0.0000 H   0  0  0  0  0  0  0  0  0  0  0  0
   13.2936   -3.8440    0.0000 H   0  0  0  0  0  0  0  0  0  0  0  0
    6.6511   -4.3795    0.0000 H   0  0  0  0  0  0  0  0  0  0  0  0
    7.5777   -3.8444    0.0000 H   0  0  0  0  0  0  0  0  0  0  0  0
    7.3654   -1.8269    0.0000 H   0  0  0  0  0  0  0  0  0  0  0  0
    8.2921   -2.3618    0.0000 H   0  0  0  0  0  0  0  0  0  0  0  0
    8.0803   -4.3794    0.0000 H   0  0  0  0  0  0  0  0  0  0  0  0
    9.0069   -3.8443    0.0000 H   0  0  0  0  0  0  0  0  0  0  0  0
    8.7943   -1.8269    0.0000 H   0  0  0  0  0  0  0  0  0  0  0  0
    9.7210   -2.3617    0.0000 H   0  0  0  0  0  0  0  0  0  0  0  0
    9.5091   -4.3792    0.0000 H   0  0  0  0  0  0  0  0  0  0  0  0
   10.4357   -3.8442    0.0000 H   0  0  0  0  0  0  0  0  0  0  0  0
   10.2235   -1.8267    0.0000 H   0  0  0  0  0  0  0  0  0  0  0  0
   11.1501   -2.3616    0.0000 H   0  0  0  0  0  0  0  0  0  0  0  0
   10.9382   -4.3792    0.0000 H   0  0  0  0  0  0  0  0  0  0  0  0
   10.0115   -3.8443    0.0000 H   0  0  0  0  0  0  0  0  0  0  0  0
   13.2937   -4.6692    0.0000 H   0  0  0  0  0  0  0  0  0  0  0  0
   12.3670   -5.2042    0.0000 H   0  0  0  0  0  0  0  0  0  0  0  0
   11.6526   -5.6167    0.0000 H   0  0  0  0  0  0  0  0  0  0  0  0
   10.7259   -5.0818    0.0000 H   0  0  0  0  0  0  0  0  0  0  0  0
   10.9379   -3.0643    0.0000 H   0  0  0  0  0  0  0  0  0  0  0  0
   10.0113   -3.5993    0.0000 H   0  0  0  0  0  0  0  0  0  0  0  0
   10.2235   -5.6168    0.0000 H   0  0  0  0  0  0  0  0  0  0  0  0
    9.2969   -5.0818    0.0000 H   0  0  0  0  0  0  0  0  0  0  0  0
    9.5089   -3.0643    0.0000 H   0  0  0  0  0  0  0  0  0  0  0  0
    8.5823   -3.5994    0.0000 H   0  0  0  0  0  0  0  0  0  0  0  0
    8.7949   -5.6168    0.0000 H   0  0  0  0  0  0  0  0  0  0  0  0
    7.8681   -5.0820    0.0000 H   0  0  0  0  0  0  0  0  0  0  0  0
    8.0801   -3.0644    0.0000 H   0  0  0  0  0  0  0  0  0  0  0  0
    7.1535   -3.5993    0.0000 H   0  0  0  0  0  0  0  0  0  0  0  0
    6.4390   -4.0116    0.0000 H   0  0  0  0  0  0  0  0  0  0  0  0
    7.3653   -5.6168    0.0000 H   0  0  0  0  0  0  0  0  0  0  0  0
    6.4388   -5.0816    0.0000 H   0  0  0  0  0  0  0  0  0  0  0  0
    5.7738    4.6349    0.0000 H   0  0  0  0  0  0  0  0  0  0  0  0
    6.7046    5.1628    0.0000 H   0  0  0  0  0  0  0  0  0  0  0  0
    7.4223    5.5697    0.0000 H   0  0  0  0  0  0  0  0  0  0  0  0
    8.3447    5.0274    0.0000 H   0  0  0  0  0  0  0  0  0  0  0  0
    5.4314   -0.9842    0.0000 H   0  0  0  0  0  0  0  0  0  0  0  0
    5.4522    0.0927    0.0000 H   0  0  0  0  0  0  0  0  0  0  0  0
    3.6014    0.9395    0.0000 H   0  0  0  0  0  0  0  0  0  0  0  0
    4.5323    1.4672    0.0000 H   0  0  0  0  0  0  0  0  0  0  0  0
    6.1640    0.2617    0.0000 H   0  0  0  0  0  0  0  0  0  0  0  0
    6.1724    1.3317    0.0000 H   0  0  0  0  0  0  0  0  0  0  0  0
    4.3255    2.1712    0.0000 H   0  0  0  0  0  0  0  0  0  0  0  0
    5.2563    2.6990    0.0000 H   0  0  0  0  0  0  0  0  0  0  0  0
    6.8881    1.4938    0.0000 H   0  0  0  0  0  0  0  0  0  0  0  0
    6.8965    2.5637    0.0000 H   0  0  0  0  0  0  0  0  0  0  0  0
    5.0498    3.4033    0.0000 H   0  0  0  0  0  0  0  0  0  0  0  0
    5.9806    3.9310    0.0000 H   0  0  0  0  0  0  0  0  0  0  0  0
    7.6125    2.7257    0.0000 H   0  0  0  0  0  0  0  0  0  0  0  0
    6.6816    2.1979    0.0000 H   0  0  0  0  0  0  0  0  0  0  0  0
    9.0561    4.6092    0.0000 H   0  0  0  0  0  0  0  0  0  0  0  0
    9.0477    3.5392    0.0000 H   0  0  0  0  0  0  0  0  0  0  0  0
    9.0412    2.7142    0.0000 H   0  0  0  0  0  0  0  0  0  0  0  0
    8.1103    2.1865    0.0000 H   0  0  0  0  0  0  0  0  0  0  0  0
    6.4787    3.3920    0.0000 H   0  0  0  0  0  0  0  0  0  0  0  0
    6.4703    2.3220    0.0000 H   0  0  0  0  0  0  0  0  0  0  0  0
    8.3170    1.4825    0.0000 H   0  0  0  0  0  0  0  0  0  0  0  0
    7.3862    0.9547    0.0000 H   0  0  0  0  0  0  0  0  0  0  0  0
    5.7543    2.1599    0.0000 H   0  0  0  0  0  0  0  0  0  0  0  0
    5.7460    1.0899    0.0000 H   0  0  0  0  0  0  0  0  0  0  0  0
    7.5929    0.2507    0.0000 H   0  0  0  0  0  0  0  0  0  0  0  0
    6.6621   -0.2771    0.0000 H   0  0  0  0  0  0  0  0  0  0  0  0
    5.0303    0.9282    0.0000 H   0  0  0  0  0  0  0  0  0  0  0  0
    5.0218   -0.1417    0.0000 H   0  0  0  0  0  0  0  0  0  0  0  0
    5.0152   -0.9666    0.0000 H   0  0  0  0  0  0  0  0  0  0  0  0
    6.8684   -0.9814    0.0000 H   0  0  0  0  0  0  0  0  0  0  0  0
    5.9375   -1.5090    0.0000 H   0  0  0  0  0  0  0  0  0  0  0  0
  1 32  1  0  0  0  0
  1  2  1  0  0  0  0
  1  3  1  0  0  0  0
  1101  1  1  0  0  0
  2  4  1  0  0  0  0
  2102  1  0  0  0  0
  2103  1  0  0  0  0
  3 52  1  0  0  0  0
  3104  1  0  0  0  0
  3105  1  0  0  0  0
  4  5  1  0  0  0  0
  5  6  1  0  0  0  0
  5  7  1  0  0  0  0
  5  8  2  0  0  0  0
  6  9  1  0  0  0  0
  7106  1  0  0  0  0
  9 10  1  0  0  0  0
  9107  1  0  0  0  0
  9108  1  0  0  0  0
 10 11  1  0  0  0  0
 10 12  1  0  0  0  0
 10109  1  0  0  0  0
 11 13  1  0  0  0  0
 11110  1  0  0  0  0
 11111  1  0  0  0  0
 12112  1  0  0  0  0
 13 14  1  0  0  0  0
 14 15  1  0  0  0  0
 14 16  1  0  0  0  0
 14 17  2  0  0  0  0
 15 18  1  0  0  0  0
 16113  1  0  0  0  0
 18 19  1  0  0  0  0
 18114  1  0  0  0  0
 18115  1  0  0  0  0
 19 72  1  0  0  0  0
 19 20  1  0  0  0  0
 19116  1  6  0  0  0
 20 92  1  0  0  0  0
 20117  1  0  0  0  0
 20118  1  0  0  0  0
 21 22  1  0  0  0  0
 21119  1  0  0  0  0
 21120  1  0  0  0  0
 22121  1  0  0  0  0
 22122  1  0  0  0  0
 23 24  1  0  0  0  0
 23 25  2  0  0  0  0
 23 32  1  0  0  0  0
 24 26  1  0  0  0  0
 24123  1  0  0  0  0
 24124  1  0  0  0  0
 26 27  1  0  0  0  0
 26125  1  0  0  0  0
 26126  1  0  0  0  0
 27 28  1  0  0  0  0
 27127  1  0  0  0  0
 27128  1  0  0  0  0
 28 29  1  0  0  0  0
 28129  1  0  0  0  0
 28130  1  0  0  0  0
 29 30  1  0  0  0  0
 29131  1  0  0  0  0
 29132  1  0  0  0  0
 30 31  1  0  0  0  0
 30133  1  0  0  0  0
 30134  1  0  0  0  0
 31 21  1  0  0  0  0
 31135  1  0  0  0  0
 31136  1  0  0  0  0
 33 22  1  0  0  0  0
 33137  1  0  0  0  0
 33138  1  0  0  0  0
 34 33  1  0  0  0  0
 34139  1  0  0  0  0
 34140  1  0  0  0  0
 35 34  1  0  0  0  0
 35141  1  0  0  0  0
 35142  1  0  0  0  0
 36 35  1  0  0  0  0
 36143  1  0  0  0  0
 36144  1  0  0  0  0
 37 36  1  0  0  0  0
 37145  1  0  0  0  0
 37146  1  0  0  0  0
 38 37  1  0  0  0  0
 38147  1  0  0  0  0
 38148  1  0  0  0  0
 39 38  1  0  0  0  0
 39149  1  0  0  0  0
 39150  1  0  0  0  0
 40 39  1  0  0  0  0
 40151  1  0  0  0  0
 40152  1  0  0  0  0
 40153  1  0  0  0  0
 41 42  1  0  0  0  0
 41154  1  0  0  0  0
 41155  1  0  0  0  0
 42156  1  0  0  0  0
 42157  1  0  0  0  0
 43 44  1  0  0  0  0
 43 45  2  0  0  0  0
 43 52  1  0  0  0  0
 44 46  1  0  0  0  0
 44158  1  0  0  0  0
 44159  1  0  0  0  0
 46 47  1  0  0  0  0
 46160  1  0  0  0  0
 46161  1  0  0  0  0
 47 48  1  0  0  0  0
 47162  1  0  0  0  0
 47163  1  0  0  0  0
 48 49  1  0  0  0  0
 48164  1  0  0  0  0
 48165  1  0  0  0  0
 49 50  1  0  0  0  0
 49166  1  0  0  0  0
 49167  1  0  0  0  0
 50 51  1  0  0  0  0
 50168  1  0  0  0  0
 50169  1  0  0  0  0
 51 41  1  0  0  0  0
 51170  1  0  0  0  0
 51171  1  0  0  0  0
 53 42  1  0  0  0  0
 53172  1  0  0  0  0
 53173  1  0  0  0  0
 54 53  1  0  0  0  0
 54174  1  0  0  0  0
 54175  1  0  0  0  0
 55 54  1  0  0  0  0
 55176  1  0  0  0  0
 55177  1  0  0  0  0
 56 55  1  0  0  0  0
 56178  1  0  0  0  0
 56179  1  0  0  0  0
 57 56  1  0  0  0  0
 57180  1  0  0  0  0
 57181  1  0  0  0  0
 58 57  1  0  0  0  0
 58182  1  0  0  0  0
 58183  1  0  0  0  0
 59 58  1  0  0  0  0
 59184  1  0  0  0  0
 59185  1  0  0  0  0
 60 59  1  0  0  0  0
 60186  1  0  0  0  0
 60187  1  0  0  0  0
 60188  1  0  0  0  0
 61 62  1  0  0  0  0
 61189  1  0  0  0  0
 61190  1  0  0  0  0
 62191  1  0  0  0  0
 62192  1  0  0  0  0
 63 64  1  0  0  0  0
 63 65  2  0  0  0  0
 63 72  1  0  0  0  0
 64 66  1  0  0  0  0
 64193  1  0  0  0  0
 64194  1  0  0  0  0
 66 67  1  0  0  0  0
 66195  1  0  0  0  0
 66196  1  0  0  0  0
 67 68  1  0  0  0  0
 67197  1  0  0  0  0
 67198  1  0  0  0  0
 68 69  1  0  0  0  0
 68199  1  0  0  0  0
 68200  1  0  0  0  0
 69 70  1  0  0  0  0
 69201  1  0  0  0  0
 69202  1  0  0  0  0
 70 71  1  0  0  0  0
 70203  1  0  0  0  0
 70204  1  0  0  0  0
 71 61  1  0  0  0  0
 71205  1  0  0  0  0
 71206  1  0  0  0  0
 73 62  1  0  0  0  0
 73207  1  0  0  0  0
 73208  1  0  0  0  0
 74 73  1  0  0  0  0
 74209  1  0  0  0  0
 74210  1  0  0  0  0
 75 74  1  0  0  0  0
 75211  1  0  0  0  0
 75212  1  0  0  0  0
 76 75  1  0  0  0  0
 76213  1  0  0  0  0
 76214  1  0  0  0  0
 77 76  1  0  0  0  0
 77215  1  0  0  0  0
 77216  1  0  0  0  0
 78 77  1  0  0  0  0
 78217  1  0  0  0  0
 78218  1  0  0  0  0
 79 78  1  0  0  0  0
 79219  1  0  0  0  0
 79220  1  0  0  0  0
 80 79  1  0  0  0  0
 80221  1  0  0  0  0
 80222  1  0  0  0  0
 80223  1  0  0  0  0
 81 82  1  0  0  0  0
 81224  1  0  0  0  0
 81225  1  0  0  0  0
 82226  1  0  0  0  0
 82227  1  0  0  0  0
 83 84  1  0  0  0  0
 83 85  2  0  0  0  0
 83 92  1  0  0  0  0
 84 86  1  0  0  0  0
 84228  1  0  0  0  0
 84229  1  0  0  0  0
 86 87  1  0  0  0  0
 86230  1  0  0  0  0
 86231  1  0  0  0  0
 87 88  1  0  0  0  0
 87232  1  0  0  0  0
 87233  1  0  0  0  0
 88 89  1  0  0  0  0
 88234  1  0  0  0  0
 88235  1  0  0  0  0
 89 90  1  0  0  0  0
 89236  1  0  0  0  0
 89237  1  0  0  0  0
 90 91  1  0  0  0  0
 90238  1  0  0  0  0
 90239  1  0  0  0  0
 91 81  1  0  0  0  0
 91240  1  0  0  0  0
 91241  1  0  0  0  0
 93 82  1  0  0  0  0
 93242  1  0  0  0  0
 93243  1  0  0  0  0
 94 93  1  0  0  0  0
 94244  1  0  0  0  0
 94245  1  0  0  0  0
 95 94  1  0  0  0  0
 95246  1  0  0  0  0
 95247  1  0  0  0  0
 96 95  1  0  0  0  0
 96248  1  0  0  0  0
 96249  1  0  0  0  0
 97 96  1  0  0  0  0
 97250  1  0  0  0  0
 97251  1  0  0  0  0
 98 97  1  0  0  0  0
 98252  1  0  0  0  0
 98253  1  0  0  0  0
 99 98  1  0  0  0  0
 99254  1  0  0  0  0
 99255  1  0  0  0  0
100 99  1  0  0  0  0
100256  1  0  0  0  0
100257  1  0  0  0  0
100258  1  0  0  0  0
M  END
>  <DRUGBANK_ID>
DB03429

>  <SECONDARY_ACCESSION_NUMBERS>
EXPT00874

>  <COMMON_NAME>
Tetrastearoyl cardiolipin

>  <SYNONYMS>
1,1'2,2'-tetra-dodecanoyl cardiolipin; 1,1'2,2'-tetra-dodecanoylcardiolipin; 1,1'2,2'-tetrastearoyl cardiolipin; 1,1'2,2'-tetrastearoylcardiolipin; tetra-dodecanoyl cardiolipin; tetra-dodecanoylcardiolipin; tetrastearoylcardiolipin

$$$$
