
 OpenBabel10282417072D

 29 30  0  0  0  0  0  0  0  0999 V2000
   -2.0637    0.6187    0.0000 C   0  0  0  0  0  0  0  0  0  0  0  0
   -1.3492    1.0312    0.0000 C   0  0  0  0  0  0  0  0  0  0  0  0
    0.0796    1.0312    0.0000 C   0  0  0  0  0  0  0  0  0  0  0  0
   -2.7782    1.0312    0.0000 O   0  0  0  0  0  0  0  0  0  0  0  0
   -1.3492    1.8562    0.0000 C   0  0  0  0  0  0  0  0  0  0  0  0
    0.7942    0.6187    0.0000 N   0  0  0  0  0  0  0  0  0  0  0  0
    1.5087   -1.4437    0.0000 C   0  0  0  0  0  0  0  0  0  0  0  0
    1.5087   -0.6187    0.0000 C   0  0  0  0  0  0  0  0  0  0  0  0
    2.2933   -0.3638    0.0000 N   0  0  0  0  0  0  0  0  0  0  0  0
    2.2933   -1.6987    0.0000 N   0  0  0  0  0  0  0  0  0  0  0  0
    2.7782   -1.0312    0.0000 C   0  0  0  0  0  0  0  0  0  0  0  0
    0.7942   -1.8562    0.0000 N   0  0  0  0  0  0  0  0  0  0  0  0
    0.0796   -1.4437    0.0000 C   0  0  0  0  0  0  0  0  0  0  0  0
    0.7942   -0.2062    0.0000 C   0  0  0  0  0  0  0  0  0  0  0  0
   -0.6347    0.6187    0.0000 C   0  0  0  0  0  0  0  0  0  0  0  0
    0.0796   -0.6187    0.0000 N   0  0  0  0  0  0  0  0  0  0  0  0
   -2.0637   -0.4513    0.0000 H   0  0  0  0  0  0  0  0  0  0  0  0
   -2.9903    0.0837    0.0000 H   0  0  0  0  0  0  0  0  0  0  0  0
    0.0795    2.1012    0.0000 H   0  0  0  0  0  0  0  0  0  0  0  0
    1.0062    1.5663    0.0000 H   0  0  0  0  0  0  0  0  0  0  0  0
   -2.7782    2.0012    0.0000 H   0  0  0  0  0  0  0  0  0  0  0  0
   -0.4226    2.3912    0.0000 H   0  0  0  0  0  0  0  0  0  0  0  0
   -2.2758    2.3912    0.0000 H   0  0  0  0  0  0  0  0  0  0  0  0
   -1.3492    2.9262    0.0000 H   0  0  0  0  0  0  0  0  0  0  0  0
    1.6468    1.1110    0.0000 H   0  0  0  0  0  0  0  0  0  0  0  0
    2.5975   -2.6350    0.0000 H   0  0  0  0  0  0  0  0  0  0  0  0
    3.8102   -1.0312    0.0000 H   0  0  0  0  0  0  0  0  0  0  0  0
   -0.8141   -1.9597    0.0000 H   0  0  0  0  0  0  0  0  0  0  0  0
   -0.6346   -0.4133    0.0000 H   0  0  0  0  0  0  0  0  0  0  0  0
  1 17  1  0  0  0  0
  1 18  1  0  0  0  0
  2  1  1  0  0  0  0
  3 15  1  0  0  0  0
  3 19  1  0  0  0  0
  3 20  1  0  0  0  0
  4  1  1  0  0  0  0
  4 21  1  0  0  0  0
  5  2  1  0  0  0  0
  5 22  1  0  0  0  0
  5 23  1  0  0  0  0
  5 24  1  0  0  0  0
  6  3  1  0  0  0  0
  6 25  1  0  0  0  0
  8  7  1  0  0  0  0
  9  8  1  0  0  0  0
 10  7  1  0  0  0  0
 10 26  1  0  0  0  0
 11  9  2  0  0  0  0
 11 10  1  0  0  0  0
 11 27  1  0  0  0  0
 12  7  2  0  0  0  0
 13 12  1  0  0  0  0
 13 16  2  0  0  0  0
 13 28  1  0  0  0  0
 14  6  1  0  0  0  0
 14  8  2  0  0  0  0
 14 16  1  0  0  0  0
 15  2  2  0  0  0  0
 15 29  1  0  0  0  0
M  END
>  <DRUGBANK_ID>
DB11337

>  <COMMON_NAME>
Zeatin

>  <CAS_NUMBER>
1637-39-4

>  <UNII>
7I6OOJ9GR6

>  <SYNONYMS>
(E)-2-methyl-4-(1H-purin-6-ylamino)-2-buten-1-ol; (E)-2-methyl-4-(1H-purin-6-ylamino)but-2-en-1-ol; (E)-2-methyl-4-(purin-6-ylamino)-2-buten-1-ol; (E)-zeatin; N6-(4-Hydroxyisopentenyl)adenine; trans-Zeatin

$$$$
