
 OpenBabel10282417072D

 50 51  0  0  0  0  0  0  0  0999 V2000
    1.4235   -0.2033    0.0000 C   0  0  2  0  0  0  0  0  0  0  0  0
    1.4235    0.6155    0.0000 C   0  0  0  0  0  0  0  0  0  0  0  0
    0.7089   -0.6155    0.0000 C   0  0  0  0  0  0  0  0  0  0  0  0
    2.1382   -0.6155    0.0000 C   0  0  0  0  0  0  0  0  0  0  0  0
    0.7089    1.0277    0.0000 N   0  0  0  0  0  0  0  0  0  0  0  0
    2.1382    1.0277    0.0000 O   0  0  0  0  0  0  0  0  0  0  0  0
    0.7089   -1.4401    0.0000 C   0  0  0  0  0  0  0  0  0  0  0  0
    2.1382   -1.4401    0.0000 C   0  0  0  0  0  0  0  0  0  0  0  0
    0.7089    1.8523    0.0000 C   0  0  2  0  0  0  0  0  0  0  0  0
    1.4235   -1.8523    0.0000 C   0  0  2  0  0  0  0  0  0  0  0  0
    0.0000    2.2645    0.0000 C   0  0  0  0  0  0  0  0  0  0  0  0
    1.4235    2.2645    0.0000 C   0  0  0  0  0  0  0  0  0  0  0  0
    1.4235   -2.6768    0.0000 C   0  0  0  0  0  0  0  0  0  0  0  0
   -0.7089    1.8523    0.0000 C   0  0  0  0  0  0  0  0  0  0  0  0
    2.1382    1.8523    0.0000 O   0  0  0  0  0  0  0  0  0  0  0  0
    1.4235    3.0890    0.0000 O   0  0  0  0  0  0  0  0  0  0  0  0
    0.7089   -3.0890    0.0000 C   0  0  0  0  0  0  0  0  0  0  0  0
    2.1382   -3.0890    0.0000 C   0  0  0  0  0  0  0  0  0  0  0  0
   -1.4235    2.2645    0.0000 C   0  0  0  0  0  0  0  0  0  0  0  0
   -0.7089    1.0277    0.0000 C   0  0  0  0  0  0  0  0  0  0  0  0
   -2.1382    1.8523    0.0000 C   0  0  0  0  0  0  0  0  0  0  0  0
   -1.4235    0.6155    0.0000 C   0  0  0  0  0  0  0  0  0  0  0  0
   -2.1382    1.0277    0.0000 C   0  0  0  0  0  0  0  0  0  0  0  0
    0.4970    0.3319    0.0000 H   0  0  0  0  0  0  0  0  0  0  0  0
   -0.2176   -0.0803    0.0000 H   0  0  0  0  0  0  0  0  0  0  0  0
   -0.2178   -1.1504    0.0000 H   0  0  0  0  0  0  0  0  0  0  0  0
    3.0647   -0.0803    0.0000 H   0  0  0  0  0  0  0  0  0  0  0  0
    3.0649   -1.1504    0.0000 H   0  0  0  0  0  0  0  0  0  0  0  0
   -0.1436    0.5353    0.0000 H   0  0  0  0  0  0  0  0  0  0  0  0
   -0.2176   -1.9753    0.0000 H   0  0  0  0  0  0  0  0  0  0  0  0
    0.7092   -2.5101    0.0000 H   0  0  0  0  0  0  0  0  0  0  0  0
    3.0647   -1.9753    0.0000 H   0  0  0  0  0  0  0  0  0  0  0  0
    2.1378   -2.5101    0.0000 H   0  0  0  0  0  0  0  0  0  0  0  0
   -0.2186    1.3187    0.0000 H   0  0  0  0  0  0  0  0  0  0  0  0
    0.4970   -2.3875    0.0000 H   0  0  0  0  0  0  0  0  0  0  0  0
    0.0000    3.3345    0.0000 H   0  0  0  0  0  0  0  0  0  0  0  0
   -0.9275    2.7981    0.0000 H   0  0  0  0  0  0  0  0  0  0  0  0
    1.4235   -3.7468    0.0000 H   0  0  0  0  0  0  0  0  0  0  0  0
    2.1386    0.9153    0.0000 H   0  0  0  0  0  0  0  0  0  0  0  0
   -0.2175   -2.5536    0.0000 H   0  0  0  0  0  0  0  0  0  0  0  0
    0.7085   -4.1590    0.0000 H   0  0  0  0  0  0  0  0  0  0  0  0
   -0.2180   -3.6236    0.0000 H   0  0  0  0  0  0  0  0  0  0  0  0
    2.1387   -4.1590    0.0000 H   0  0  0  0  0  0  0  0  0  0  0  0
    3.0646   -2.5536    0.0000 H   0  0  0  0  0  0  0  0  0  0  0  0
    3.0651   -3.6236    0.0000 H   0  0  0  0  0  0  0  0  0  0  0  0
   -1.4235    3.2965    0.0000 H   0  0  0  0  0  0  0  0  0  0  0  0
    0.1847    0.5115    0.0000 H   0  0  0  0  0  0  0  0  0  0  0  0
   -3.0318    2.3685    0.0000 H   0  0  0  0  0  0  0  0  0  0  0  0
   -1.4235   -0.4165    0.0000 H   0  0  0  0  0  0  0  0  0  0  0  0
   -3.0318    0.5115    0.0000 H   0  0  0  0  0  0  0  0  0  0  0  0
  1  2  1  0  0  0  0
  1 24  1  6  0  0  0
  3  1  1  0  0  0  0
  3 25  1  0  0  0  0
  3 26  1  0  0  0  0
  4  1  1  0  0  0  0
  4 27  1  0  0  0  0
  4 28  1  0  0  0  0
  5  2  1  0  0  0  0
  5 29  1  0  0  0  0
  6  2  2  0  0  0  0
  7  3  1  0  0  0  0
  7 30  1  0  0  0  0
  7 31  1  0  0  0  0
  8  4  1  0  0  0  0
  8 32  1  0  0  0  0
  8 33  1  0  0  0  0
  9  5  1  0  0  0  0
  9 12  1  0  0  0  0
  9 34  1  1  0  0  0
 10  7  1  0  0  0  0
 10  8  1  0  0  0  0
 10 13  1  0  0  0  0
 10 35  1  1  0  0  0
 11  9  1  0  0  0  0
 11 36  1  0  0  0  0
 11 37  1  0  0  0  0
 13 38  1  0  0  0  0
 14 11  1  0  0  0  0
 15 12  1  0  0  0  0
 15 39  1  0  0  0  0
 16 12  2  0  0  0  0
 17 13  1  0  0  0  0
 17 40  1  0  0  0  0
 17 41  1  0  0  0  0
 17 42  1  0  0  0  0
 18 13  1  0  0  0  0
 18 43  1  0  0  0  0
 18 44  1  0  0  0  0
 18 45  1  0  0  0  0
 19 14  2  0  0  0  0
 19 46  1  0  0  0  0
 20 14  1  0  0  0  0
 20 47  1  0  0  0  0
 21 19  1  0  0  0  0
 21 48  1  0  0  0  0
 22 20  2  0  0  0  0
 22 49  1  0  0  0  0
 23 21  2  0  0  0  0
 23 22  1  0  0  0  0
 23 50  1  0  0  0  0
M  END
>  <DRUGBANK_ID>
DB00731

>  <SECONDARY_ACCESSION_NUMBERS>
APRD00593

>  <COMMON_NAME>
Nateglinide

>  <CAS_NUMBER>
105816-04-4

>  <UNII>
41X3PWK4O2

>  <SYNONYMS>
Nateglinida; NatÃ©glinide; Nateglinide; Nateglinidum

$$$$
