1487
 OpenBabel10282417072D

 48 48  0  0  0  0  0  0  0  0999 V2000
    1.6500   -3.2217    0.0000 O   0  0  0  0  0  0  0  0  0  0  0  0
    3.0791    1.7284    0.0000 O   0  0  0  0  0  0  0  0  0  0  0  0
    5.2224    3.7910    0.0000 O   0  0  0  0  0  0  0  0  0  0  0  0
    3.7935    0.4909    0.0000 N   0  0  0  0  0  0  0  0  0  0  0  0
    3.0791   -0.7466    0.0000 C   0  0  0  0  0  0  0  0  0  0  0  0
    3.9041   -0.7466    0.0000 C   0  0  0  0  0  0  0  0  0  0  0  0
    2.2540   -0.7466    0.0000 C   0  0  0  0  0  0  0  0  0  0  0  0
    3.0791    0.0784    0.0000 C   0  0  0  0  0  0  0  0  0  0  0  0
    3.0791   -1.5717    0.0000 C   0  0  0  0  0  0  0  0  0  0  0  0
    4.3166   -1.4611    0.0000 C   0  0  0  0  0  0  0  0  0  0  0  0
    1.8415   -0.0322    0.0000 C   0  0  0  0  0  0  0  0  0  0  0  0
    2.3645   -1.9842    0.0000 C   0  0  0  0  0  0  0  0  0  0  0  0
    3.7935   -1.9842    0.0000 C   0  0  0  0  0  0  0  0  0  0  0  0
    3.7935    1.3159    0.0000 C   0  0  0  0  0  0  0  0  0  0  0  0
    2.3645   -2.8092    0.0000 C   0  0  0  0  0  0  0  0  0  0  0  0
    3.7935   -2.8092    0.0000 C   0  0  0  0  0  0  0  0  0  0  0  0
    4.5080    1.7284    0.0000 C   0  0  0  0  0  0  0  0  0  0  0  0
    3.0791   -3.2217    0.0000 C   0  0  0  0  0  0  0  0  0  0  0  0
    4.5080    2.5534    0.0000 C   0  0  0  0  0  0  0  0  0  0  0  0
    5.2224    2.9659    0.0000 C   0  0  0  0  0  0  0  0  0  0  0  0
    1.6500   -4.0467    0.0000 C   0  0  0  0  0  0  0  0  0  0  0  0
    6.0624    4.2760    0.0000 H   0  0  0  0  0  0  0  0  0  0  0  0
    4.6461   -0.0013    0.0000 H   0  0  0  0  0  0  0  0  0  0  0  0
    4.4391    0.1800    0.0000 H   0  0  0  0  0  0  0  0  0  0  0  0
    4.9741   -0.7466    0.0000 H   0  0  0  0  0  0  0  0  0  0  0  0
    1.7190   -1.6733    0.0000 H   0  0  0  0  0  0  0  0  0  0  0  0
    1.1840   -0.7466    0.0000 H   0  0  0  0  0  0  0  0  0  0  0  0
    2.1524    0.6134    0.0000 H   0  0  0  0  0  0  0  0  0  0  0  0
    2.1525   -0.4566    0.0000 H   0  0  0  0  0  0  0  0  0  0  0  0
    3.7816   -2.3877    0.0000 H   0  0  0  0  0  0  0  0  0  0  0  0
    5.3866   -1.4611    0.0000 H   0  0  0  0  0  0  0  0  0  0  0  0
    4.8516   -2.3878    0.0000 H   0  0  0  0  0  0  0  0  0  0  0  0
    2.3765    0.8945    0.0000 H   0  0  0  0  0  0  0  0  0  0  0  0
    0.7715   -0.0322    0.0000 H   0  0  0  0  0  0  0  0  0  0  0  0
    1.3065    0.8944    0.0000 H   0  0  0  0  0  0  0  0  0  0  0  0
    1.4708   -1.4682    0.0000 H   0  0  0  0  0  0  0  0  0  0  0  0
    4.6872   -1.4682    0.0000 H   0  0  0  0  0  0  0  0  0  0  0  0
    4.6872   -3.3252    0.0000 H   0  0  0  0  0  0  0  0  0  0  0  0
    5.4346    1.1934    0.0000 H   0  0  0  0  0  0  0  0  0  0  0  0
    5.4346    2.2634    0.0000 H   0  0  0  0  0  0  0  0  0  0  0  0
    3.0792   -4.2537    0.0000 H   0  0  0  0  0  0  0  0  0  0  0  0
    3.5813    3.0884    0.0000 H   0  0  0  0  0  0  0  0  0  0  0  0
    4.5080    3.6234    0.0000 H   0  0  0  0  0  0  0  0  0  0  0  0
    6.1491    2.4309    0.0000 H   0  0  0  0  0  0  0  0  0  0  0  0
    5.2224    1.8959    0.0000 H   0  0  0  0  0  0  0  0  0  0  0  0
    0.7234   -4.5817    0.0000 H   0  0  0  0  0  0  0  0  0  0  0  0
    2.5766   -4.5817    0.0000 H   0  0  0  0  0  0  0  0  0  0  0  0
    1.6500   -5.1167    0.0000 H   0  0  0  0  0  0  0  0  0  0  0  0
  1 15  1  0  0  0  0
  1 21  1  0  0  0  0
  2 14  2  0  0  0  0
  3 20  1  0  0  0  0
  3 22  1  0  0  0  0
  4  8  1  0  0  0  0
  4 14  1  0  0  0  0
  4 23  1  0  0  0  0
  5  6  1  0  0  0  0
  5  7  1  0  0  0  0
  5  8  1  0  0  0  0
  5  9  1  0  0  0  0
  6 10  1  0  0  0  0
  6 24  1  0  0  0  0
  6 25  1  0  0  0  0
  7 11  1  0  0  0  0
  7 26  1  0  0  0  0
  7 27  1  0  0  0  0
  8 28  1  0  0  0  0
  8 29  1  0  0  0  0
  9 12  2  0  0  0  0
  9 13  1  0  0  0  0
 10 30  1  0  0  0  0
 10 31  1  0  0  0  0
 10 32  1  0  0  0  0
 11 33  1  0  0  0  0
 11 34  1  0  0  0  0
 11 35  1  0  0  0  0
 12 15  1  0  0  0  0
 12 36  1  0  0  0  0
 13 16  2  0  0  0  0
 13 37  1  0  0  0  0
 14 17  1  0  0  0  0
 15 18  2  0  0  0  0
 16 18  1  0  0  0  0
 16 38  1  0  0  0  0
 17 19  1  0  0  0  0
 17 39  1  0  0  0  0
 17 40  1  0  0  0  0
 18 41  1  0  0  0  0
 19 20  1  0  0  0  0
 19 42  1  0  0  0  0
 19 43  1  0  0  0  0
 20 44  1  0  0  0  0
 20 45  1  0  0  0  0
 21 46  1  0  0  0  0
 21 47  1  0  0  0  0
 21 48  1  0  0  0  0
M  END
>  <DRUGBANK_ID>
DB01487

>  <SECONDARY_ACCESSION_NUMBERS>
DB11402

>  <COMMON_NAME>
Embutramide

>  <CAS_NUMBER>
15687-14-6

>  <UNII>
3P4TQG94T1

>  <SYNONYMS>
Embutramid; Embutramide

$$$$
