
 OpenBabel10282417072D

 59 61  0  0  1  0  0  0  0  0999 V2000
    3.7935   -1.8563    0.0000 O   0  0  0  0  0  0  0  0  0  0  0  0
    2.3645   -3.5063    0.0000 N   0  0  0  0  0  0  0  0  0  0  0  0
    3.0791    1.8563    0.0000 C   0  0  3  0  0  0  0  0  0  0  0  0
    3.7935    1.4438    0.0000 C   0  0  3  0  0  0  0  0  0  0  0  0
    2.3645    1.4438    0.0000 C   0  0  0  0  0  0  0  0  0  0  0  0
    3.0791    2.6813    0.0000 C   0  0  0  0  0  0  0  0  0  0  0  0
    3.7935    0.6188    0.0000 C   0  0  0  0  0  0  0  0  0  0  0  0
    4.5080    1.8563    0.0000 C   0  0  0  0  0  0  0  0  0  0  0  0
    1.6500    1.8563    0.0000 C   0  0  0  0  0  0  0  0  0  0  0  0
    3.0791    0.2063    0.0000 C   0  0  0  0  0  0  0  0  0  0  0  0
    4.5080    0.2063    0.0000 C   0  0  0  0  0  0  0  0  0  0  0  0
    2.3645    3.0938    0.0000 C   0  0  0  0  0  0  0  0  0  0  0  0
    3.7935    3.0938    0.0000 C   0  0  0  0  0  0  0  0  0  0  0  0
    4.5080    2.6813    0.0000 C   0  0  0  0  0  0  0  0  0  0  0  0
    5.2224    1.4438    0.0000 C   0  0  0  0  0  0  0  0  0  0  0  0
    3.0791   -0.6188    0.0000 C   0  0  0  0  0  0  0  0  0  0  0  0
    4.5080   -0.6188    0.0000 C   0  0  0  0  0  0  0  0  0  0  0  0
    3.7935   -1.0313    0.0000 C   0  0  0  0  0  0  0  0  0  0  0  0
    2.3645    3.9188    0.0000 C   0  0  0  0  0  0  0  0  0  0  0  0
    3.7935    3.9188    0.0000 C   0  0  0  0  0  0  0  0  0  0  0  0
    5.2224    3.0938    0.0000 C   0  0  0  0  0  0  0  0  0  0  0  0
    5.9370    1.8563    0.0000 C   0  0  0  0  0  0  0  0  0  0  0  0
    3.0791    4.3313    0.0000 C   0  0  0  0  0  0  0  0  0  0  0  0
    5.9370    2.6813    0.0000 C   0  0  0  0  0  0  0  0  0  0  0  0
    3.0791   -2.2688    0.0000 C   0  0  0  0  0  0  0  0  0  0  0  0
    3.0791   -3.0938    0.0000 C   0  0  0  0  0  0  0  0  0  0  0  0
    2.3645   -4.3313    0.0000 C   0  0  0  0  0  0  0  0  0  0  0  0
    1.6500   -3.0938    0.0000 C   0  0  0  0  0  0  0  0  0  0  0  0
    3.0790    0.7863    0.0000 H   0  0  0  0  0  0  0  0  0  0  0  0
    2.8668    0.9088    0.0000 H   0  0  0  0  0  0  0  0  0  0  0  0
    2.3645    0.3738    0.0000 H   0  0  0  0  0  0  0  0  0  0  0  0
    1.4378    0.9088    0.0000 H   0  0  0  0  0  0  0  0  0  0  0  0
    1.6500    2.9263    0.0000 H   0  0  0  0  0  0  0  0  0  0  0  0
    0.7234    1.3213    0.0000 H   0  0  0  0  0  0  0  0  0  0  0  0
    0.7233    2.3913    0.0000 H   0  0  0  0  0  0  0  0  0  0  0  0
    2.1854    0.7223    0.0000 H   0  0  0  0  0  0  0  0  0  0  0  0
    5.4017    0.7223    0.0000 H   0  0  0  0  0  0  0  0  0  0  0  0
    1.4708    2.5778    0.0000 H   0  0  0  0  0  0  0  0  0  0  0  0
    4.6872    2.5778    0.0000 H   0  0  0  0  0  0  0  0  0  0  0  0
    3.6143    3.1973    0.0000 H   0  0  0  0  0  0  0  0  0  0  0  0
    5.2223    0.4118    0.0000 H   0  0  0  0  0  0  0  0  0  0  0  0
    2.1854   -1.1348    0.0000 H   0  0  0  0  0  0  0  0  0  0  0  0
    5.4017   -1.1348    0.0000 H   0  0  0  0  0  0  0  0  0  0  0  0
    1.4708    4.4348    0.0000 H   0  0  0  0  0  0  0  0  0  0  0  0
    4.6872    4.4348    0.0000 H   0  0  0  0  0  0  0  0  0  0  0  0
    5.2223    4.1258    0.0000 H   0  0  0  0  0  0  0  0  0  0  0  0
    6.8307    1.3403    0.0000 H   0  0  0  0  0  0  0  0  0  0  0  0
    3.0792    5.3633    0.0000 H   0  0  0  0  0  0  0  0  0  0  0  0
    6.8307    3.1973    0.0000 H   0  0  0  0  0  0  0  0  0  0  0  0
    2.1524   -1.7338    0.0000 H   0  0  0  0  0  0  0  0  0  0  0  0
    2.1525   -2.8038    0.0000 H   0  0  0  0  0  0  0  0  0  0  0  0
    4.0057   -3.6288    0.0000 H   0  0  0  0  0  0  0  0  0  0  0  0
    4.0058   -2.5588    0.0000 H   0  0  0  0  0  0  0  0  0  0  0  0
    1.4379   -4.8663    0.0000 H   0  0  0  0  0  0  0  0  0  0  0  0
    3.2911   -4.8663    0.0000 H   0  0  0  0  0  0  0  0  0  0  0  0
    2.3645   -5.4013    0.0000 H   0  0  0  0  0  0  0  0  0  0  0  0
    1.6500   -2.0238    0.0000 H   0  0  0  0  0  0  0  0  0  0  0  0
    0.7234   -3.6288    0.0000 H   0  0  0  0  0  0  0  0  0  0  0  0
    0.7233   -2.5588    0.0000 H   0  0  0  0  0  0  0  0  0  0  0  0
  1 18  1  0  0  0  0
  1 25  1  0  0  0  0
  2 26  1  0  0  0  0
  2 27  1  0  0  0  0
  2 28  1  0  0  0  0
  3  4  1  0  0  0  0
  3  5  1  0  0  0  0
  3  6  1  0  0  0  0
  3 29  1  0  0  0  0
  4  7  1  0  0  0  0
  4  8  1  0  0  0  0
  4 30  1  0  0  0  0
  5  9  1  0  0  0  0
  5 31  1  0  0  0  0
  5 32  1  0  0  0  0
  6 12  2  0  0  0  0
  6 13  1  0  0  0  0
  7 10  2  0  0  0  0
  7 11  1  0  0  0  0
  8 14  2  0  0  0  0
  8 15  1  0  0  0  0
  9 33  1  0  0  0  0
  9 34  1  0  0  0  0
  9 35  1  0  0  0  0
 10 16  1  0  0  0  0
 10 36  1  0  0  0  0
 11 17  2  0  0  0  0
 11 37  1  0  0  0  0
 12 19  1  0  0  0  0
 12 38  1  0  0  0  0
 13 20  2  0  0  0  0
 13 39  1  0  0  0  0
 14 21  1  0  0  0  0
 14 40  1  0  0  0  0
 15 22  2  0  0  0  0
 15 41  1  0  0  0  0
 16 18  2  0  0  0  0
 16 42  1  0  0  0  0
 17 18  1  0  0  0  0
 17 43  1  0  0  0  0
 19 23  2  0  0  0  0
 19 44  1  0  0  0  0
 20 23  1  0  0  0  0
 20 45  1  0  0  0  0
 21 24  2  0  0  0  0
 21 46  1  0  0  0  0
 22 24  1  0  0  0  0
 22 47  1  0  0  0  0
 23 48  1  0  0  0  0
 24 49  1  0  0  0  0
 25 26  1  0  0  0  0
 25 50  1  0  0  0  0
 25 51  1  0  0  0  0
 26 52  1  0  0  0  0
 26 53  1  0  0  0  0
 27 54  1  0  0  0  0
 27 55  1  0  0  0  0
 27 56  1  0  0  0  0
 28 57  1  0  0  0  0
 28 58  1  0  0  0  0
 28 59  1  0  0  0  0
M  END
>  <DRUGBANK_ID>
DB05462

>  <COMMON_NAME>
Chlorotoxin I-131

>  <UNII>
544WOQ7W6W

>  <SYNONYMS>
I(131)-TM-601 (chlorotoxin)

$$$$
