SUA
 OpenBabel10282417072D

 35 36  0  0  0  0  0  0  0  0999 V2000
   -3.2585   -1.1266    0.0000 S   0  0  0  0  0  0  0  0  0  0  0  0
   -3.9730   -1.5391    0.0000 O   0  0  0  0  0  0  0  0  0  0  0  0
   -2.8460   -1.8411    0.0000 O   0  0  0  0  0  0  0  0  0  0  0  0
   -3.6710   -0.4121    0.0000 N   0  0  0  0  0  0  0  0  0  0  0  0
   -1.1151   -0.7141    0.0000 C   0  0  0  0  0  0  0  0  0  0  0  0
   -1.8296   -1.1266    0.0000 C   0  0  0  0  0  0  0  0  0  0  0  0
   -2.5441   -0.7141    0.0000 C   0  0  0  0  0  0  0  0  0  0  0  0
   -2.5441    0.1109    0.0000 C   0  0  0  0  0  0  0  0  0  0  0  0
   -1.8296    0.5234    0.0000 C   0  0  0  0  0  0  0  0  0  0  0  0
   -1.1151    0.1109    0.0000 C   0  0  0  0  0  0  0  0  0  0  0  0
   -0.4007    0.5234    0.0000 N   0  0  0  0  0  0  0  0  0  0  0  0
    0.3138    0.1109    0.0000 C   0  0  0  0  0  0  0  0  0  0  0  0
    0.3138   -0.7141    0.0000 S   0  0  0  0  0  0  0  0  0  0  0  0
    1.0283    0.5234    0.0000 O   0  0  0  0  0  0  0  0  0  0  0  0
    1.7428    0.1109    0.0000 C   0  0  0  0  0  0  0  0  0  0  0  0
    2.4572    0.5234    0.0000 C   0  0  0  0  0  0  0  0  0  0  0  0
    3.1717    0.1109    0.0000 C   0  0  0  0  0  0  0  0  0  0  0  0
    3.9254    0.4465    0.0000 C   0  0  0  0  0  0  0  0  0  0  0  0
    4.4774   -0.1666    0.0000 C   0  0  0  0  0  0  0  0  0  0  0  0
    4.0649   -0.8811    0.0000 S   0  0  0  0  0  0  0  0  0  0  0  0
    3.2579   -0.7096    0.0000 C   0  0  0  0  0  0  0  0  0  0  0  0
   -3.1610    0.4712    0.0000 H   0  0  0  0  0  0  0  0  0  0  0  0
   -4.6910   -0.4121    0.0000 H   0  0  0  0  0  0  0  0  0  0  0  0
   -0.2214   -1.2301    0.0000 H   0  0  0  0  0  0  0  0  0  0  0  0
   -1.8296   -2.1586    0.0000 H   0  0  0  0  0  0  0  0  0  0  0  0
   -3.4378    0.6269    0.0000 H   0  0  0  0  0  0  0  0  0  0  0  0
   -1.8296    1.5554    0.0000 H   0  0  0  0  0  0  0  0  0  0  0  0
   -0.4007    1.5079    0.0000 H   0  0  0  0  0  0  0  0  0  0  0  0
    1.7428   -0.9591    0.0000 H   0  0  0  0  0  0  0  0  0  0  0  0
    2.6695   -0.4241    0.0000 H   0  0  0  0  0  0  0  0  0  0  0  0
    2.4572    1.5934    0.0000 H   0  0  0  0  0  0  0  0  0  0  0  0
    3.3838    1.0584    0.0000 H   0  0  0  0  0  0  0  0  0  0  0  0
    4.1400    1.4559    0.0000 H   0  0  0  0  0  0  0  0  0  0  0  0
    5.5037   -0.0587    0.0000 H   0  0  0  0  0  0  0  0  0  0  0  0
    2.4910   -1.4001    0.0000 H   0  0  0  0  0  0  0  0  0  0  0  0
  1  2  2  0  0  0  0
  1  3  2  0  0  0  0
  1  4  1  0  0  0  0
  1  7  1  0  0  0  0
  4 22  1  0  0  0  0
  4 23  1  0  0  0  0
  5  6  2  0  0  0  0
  5 10  1  0  0  0  0
  5 24  1  0  0  0  0
  6  7  1  0  0  0  0
  6 25  1  0  0  0  0
  7  8  2  0  0  0  0
  8  9  1  0  0  0  0
  8 26  1  0  0  0  0
  9 10  2  0  0  0  0
  9 27  1  0  0  0  0
 10 11  1  0  0  0  0
 11 12  1  0  0  0  0
 11 28  1  0  0  0  0
 12 13  2  0  0  0  0
 12 14  1  0  0  0  0
 14 15  1  0  0  0  0
 15 16  1  0  0  0  0
 15 29  1  0  0  0  0
 15 30  1  0  0  0  0
 16 17  1  0  0  0  0
 16 31  1  0  0  0  0
 16 32  1  0  0  0  0
 17 18  1  0  0  0  0
 17 21  2  0  0  0  0
 18 19  2  0  0  0  0
 18 33  1  0  0  0  0
 19 20  1  0  0  0  0
 19 34  1  0  0  0  0
 20 21  1  0  0  0  0
 21 35  1  0  0  0  0
M  END
>  <DRUGBANK_ID>
DB03333

>  <SECONDARY_ACCESSION_NUMBERS>
EXPT02975

>  <COMMON_NAME>
(4-sulfamoyl-phenyl)-thiocarbamic acid O-(2-thiophen-3-yl-ethyl) ester

$$$$
