
 OpenBabel10282417072D

 56 56  0  0  0  0  0  0  0  0999 V2000
   -0.3563   -0.2030    0.0000 C   0  0  0  0  0  0  0  0  0  0  0  0
   -0.3563   -1.0282    0.0000 C   0  0  0  0  0  0  0  0  0  0  0  0
    0.3599   -1.4407    0.0000 C   0  0  0  0  0  0  0  0  0  0  0  0
    1.0720   -1.0282    0.0000 C   0  0  0  0  0  0  0  0  0  0  0  0
    1.0720   -0.2030    0.0000 C   0  0  0  0  0  0  0  0  0  0  0  0
    0.3599    0.2093    0.0000 C   0  0  0  0  0  0  0  0  0  0  0  0
    0.3609    1.0344    0.0000 C   0  0  0  0  0  0  0  0  0  0  0  0
    0.3609   -2.2659    0.0000 I   0  0  0  0  0  0  0  0  0  0  0  0
   -1.0706    0.2096    0.0000 I   0  0  0  0  0  0  0  0  0  0  0  0
    1.7814   -1.4366    0.0000 N   0  0  0  0  0  0  0  0  0  0  0  0
    2.4938   -1.0241    0.0000 C   0  0  0  0  0  0  0  0  0  0  0  0
    3.2065   -1.4324    0.0000 C   0  0  0  0  0  0  0  0  0  0  0  0
    3.9191   -1.0199    0.0000 O   0  0  0  0  0  0  0  0  0  0  0  0
    4.6316   -1.4282    0.0000 C   0  0  0  0  0  0  0  0  0  0  0  0
    2.4783   -0.1989    0.0000 O   0  0  0  0  0  0  0  0  0  0  0  0
   -1.0689   -1.4407    0.0000 C   0  0  0  0  0  0  0  0  0  0  0  0
   -1.7814   -1.0324    0.0000 N   0  0  0  0  0  0  0  0  0  0  0  0
   -2.4939   -1.4450    0.0000 C   0  0  0  0  0  0  0  0  0  0  0  0
   -3.2065   -1.0366    0.0000 C   0  0  3  0  0  0  0  0  0  0  0  0
   -3.9191   -1.4491    0.0000 C   0  0  0  0  0  0  0  0  0  0  0  0
   -4.6316   -1.0407    0.0000 O   0  0  0  0  0  0  0  0  0  0  0  0
   -1.7832   -0.2072    0.0000 C   0  0  0  0  0  0  0  0  0  0  0  0
   -3.2083   -0.2114    0.0000 O   0  0  0  0  0  0  0  0  0  0  0  0
   -1.0670   -2.2659    0.0000 O   0  0  0  0  0  0  0  0  0  0  0  0
    1.0730    1.4427    0.0000 N   0  0  0  0  0  0  0  0  0  0  0  0
   -0.3527    1.4483    0.0000 O   0  0  0  0  0  0  0  0  0  0  0  0
    1.7869    1.0292    0.0000 C   0  0  0  0  0  0  0  0  0  0  0  0
    1.7858    0.2041    0.0000 I   0  0  0  0  0  0  0  0  0  0  0  0
    2.5020    1.4407    0.0000 C   0  0  3  0  0  0  0  0  0  0  0  0
    3.2160    1.0271    0.0000 C   0  0  0  0  0  0  0  0  0  0  0  0
    3.9310    1.4386    0.0000 O   0  0  0  0  0  0  0  0  0  0  0  0
    2.5031    2.2659    0.0000 O   0  0  0  0  0  0  0  0  0  0  0  0
    1.7826   -2.4211    0.0000 H   0  0  0  0  0  0  0  0  0  0  0  0
    3.2089   -2.5024    0.0000 H   0  0  0  0  0  0  0  0  0  0  0  0
    4.1340   -1.9658    0.0000 H   0  0  0  0  0  0  0  0  0  0  0  0
    4.6351   -2.4982    0.0000 H   0  0  0  0  0  0  0  0  0  0  0  0
    5.5565   -0.8902    0.0000 H   0  0  0  0  0  0  0  0  0  0  0  0
    5.5600   -1.9602    0.0000 H   0  0  0  0  0  0  0  0  0  0  0  0
   -2.4915   -2.5150    0.0000 H   0  0  0  0  0  0  0  0  0  0  0  0
   -3.4191   -1.9825    0.0000 H   0  0  0  0  0  0  0  0  0  0  0  0
   -3.2042   -2.1066    0.0000 H   0  0  0  0  0  0  0  0  0  0  0  0
   -3.9168   -2.5191    0.0000 H   0  0  0  0  0  0  0  0  0  0  0  0
   -4.8443   -1.9865    0.0000 H   0  0  0  0  0  0  0  0  0  0  0  0
   -4.6346   -0.0707    0.0000 H   0  0  0  0  0  0  0  0  0  0  0  0
   -0.8577    0.3298    0.0000 H   0  0  0  0  0  0  0  0  0  0  0  0
   -2.7110    0.3258    0.0000 H   0  0  0  0  0  0  0  0  0  0  0  0
   -1.7855    0.8628    0.0000 H   0  0  0  0  0  0  0  0  0  0  0  0
   -2.3693    0.2754    0.0000 H   0  0  0  0  0  0  0  0  0  0  0  0
    1.0752    2.4272    0.0000 H   0  0  0  0  0  0  0  0  0  0  0  0
    1.7854   -0.0408    0.0000 H   0  0  0  0  0  0  0  0  0  0  0  0
    2.7128    0.4929    0.0000 H   0  0  0  0  0  0  0  0  0  0  0  0
    2.5005    0.3707    0.0000 H   0  0  0  0  0  0  0  0  0  0  0  0
    3.2145   -0.0429    0.0000 H   0  0  0  0  0  0  0  0  0  0  0  0
    4.1419    0.4908    0.0000 H   0  0  0  0  0  0  0  0  0  0  0  0
    4.7704    0.9524    0.0000 H   0  0  0  0  0  0  0  0  0  0  0  0
    3.3438    2.7498    0.0000 H   0  0  0  0  0  0  0  0  0  0  0  0
  1  2  2  0  0  0  0
  1  9  1  0  0  0  0
  2 16  1  0  0  0  0
  2  3  1  0  0  0  0
  3  8  1  0  0  0  0
  3  4  2  0  0  0  0
  4 10  1  0  0  0  0
  4  5  1  0  0  0  0
  5 28  1  0  0  0  0
  5  6  2  0  0  0  0
  6  1  1  0  0  0  0
  6  7  1  0  0  0  0
  7 25  1  0  0  0  0
  7 26  2  0  0  0  0
 10 11  1  0  0  0  0
 10 33  1  0  0  0  0
 11 12  1  0  0  0  0
 11 15  2  0  0  0  0
 12 13  1  0  0  0  0
 12 34  1  0  0  0  0
 12 35  1  0  0  0  0
 13 14  1  0  0  0  0
 14 36  1  0  0  0  0
 14 37  1  0  0  0  0
 14 38  1  0  0  0  0
 16 17  1  0  0  0  0
 16 24  2  0  0  0  0
 17 18  1  0  0  0  0
 17 22  1  0  0  0  0
 18 19  1  0  0  0  0
 18 39  1  0  0  0  0
 18 40  1  0  0  0  0
 19 20  1  0  0  0  0
 19 23  1  0  0  0  0
 19 41  1  0  0  0  0
 20 21  1  0  0  0  0
 20 42  1  0  0  0  0
 20 43  1  0  0  0  0
 21 44  1  0  0  0  0
 22 45  1  0  0  0  0
 22 46  1  0  0  0  0
 22 47  1  0  0  0  0
 23 48  1  0  0  0  0
 25 27  1  0  0  0  0
 25 49  1  0  0  0  0
 27 29  1  0  0  0  0
 27 50  1  0  0  0  0
 27 51  1  0  0  0  0
 29 30  1  0  0  0  0
 29 32  1  0  0  0  0
 29 52  1  0  0  0  0
 30 31  1  0  0  0  0
 30 53  1  0  0  0  0
 30 54  1  0  0  0  0
 31 55  1  0  0  0  0
 32 56  1  0  0  0  0
M  END
>  <DRUGBANK_ID>
DB09156

>  <COMMON_NAME>
Iopromide

>  <CAS_NUMBER>
73334-07-3

>  <UNII>
712BAC33MZ

>  <SYNONYMS>
Iopromida; Iopromide; N,N'-bis(2,3-dihydroxypropyl)-2,4,6-triiodo-5-[(methoxyacetyl)amino]-N-methylisophthalamide

$$$$
