
 OpenBabel10282417072D

 63 68  0  0  0  0  0  0  0  0999 V2000
   -4.9312   -3.0545    0.0000 C   0  0  0  0  0  0  0  0  0  0  0  0
   -5.6457   -1.8170    0.0000 C   0  0  0  0  0  0  0  0  0  0  0  0
    6.8513   -1.6500    0.0000 C   0  0  0  0  0  0  0  0  0  0  0  0
   -3.5022   -0.5795    0.0000 C   0  0  0  0  0  0  0  0  0  0  0  0
   -2.7878   -1.8170    0.0000 C   0  0  0  0  0  0  0  0  0  0  0  0
    0.0574    1.1270    0.0000 C   0  0  0  0  0  0  0  0  0  0  0  0
   -4.2167   -0.9920    0.0000 C   0  0  0  0  0  0  0  0  0  0  0  0
   -3.5022   -2.2295    0.0000 C   0  0  0  0  0  0  0  0  0  0  0  0
    3.9934    0.8250    0.0000 C   0  0  0  0  0  0  0  0  0  0  0  0
   -0.7676    1.1270    0.0000 C   0  0  0  0  0  0  0  0  0  0  0  0
    3.2789    1.2375    0.0000 C   0  0  0  0  0  0  0  0  0  0  0  0
    6.1368   -0.4125    0.0000 C   0  0  0  0  0  0  0  0  0  0  0  0
    5.4223   -1.6500    0.0000 C   0  0  0  0  0  0  0  0  0  0  0  0
    5.4223   -0.0000    0.0000 C   0  0  0  0  0  0  0  0  0  0  0  0
    4.7079   -1.2375    0.0000 C   0  0  0  0  0  0  0  0  0  0  0  0
    0.0574   -0.3020    0.0000 C   0  0  0  0  0  0  0  0  0  0  0  0
    3.2789   -0.4125    0.0000 C   0  0  0  0  0  0  0  0  0  0  0  0
   -2.7878   -0.9920    0.0000 C   0  0  0  0  0  0  0  0  0  0  0  0
    0.4699    0.4125    0.0000 C   0  0  0  0  0  0  0  0  0  0  0  0
   -4.2167   -1.8170    0.0000 C   0  0  0  0  0  0  0  0  0  0  0  0
    3.9934    0.0000    0.0000 C   0  0  0  0  0  0  0  0  0  0  0  0
   -1.1801    0.4125    0.0000 C   0  0  0  0  0  0  0  0  0  0  0  0
    2.5645    0.8250    0.0000 C   0  0  0  0  0  0  0  0  0  0  0  0
   -0.7676   -0.3020    0.0000 C   0  0  0  0  0  0  0  0  0  0  0  0
    2.5645    0.0000    0.0000 C   0  0  0  0  0  0  0  0  0  0  0  0
   -2.0733   -0.5795    0.0000 C   0  0  0  0  0  0  0  0  0  0  0  0
    1.2949    0.4125    0.0000 C   0  0  0  0  0  0  0  0  0  0  0  0
   -1.9871    0.2410    0.0000 N   0  0  0  0  0  0  0  0  0  0  0  0
    1.7798    1.0799    0.0000 N   0  0  0  0  0  0  0  0  0  0  0  0
   -1.3196   -0.9151    0.0000 N   0  0  0  0  0  0  0  0  0  0  0  0
    1.7798   -0.2549    0.0000 N   0  0  0  0  0  0  0  0  0  0  0  0
   -4.9312   -2.2295    0.0000 N   0  0  0  0  0  0  0  0  0  0  0  0
    6.1368   -1.2375    0.0000 N   0  0  0  0  0  0  0  0  0  0  0  0
    4.7079   -0.4125    0.0000 N   0  0  0  0  0  0  0  0  0  0  0  0
   -5.8578   -3.5895    0.0000 H   0  0  0  0  0  0  0  0  0  0  0  0
   -4.0046   -3.5895    0.0000 H   0  0  0  0  0  0  0  0  0  0  0  0
   -4.9312   -4.1245    0.0000 H   0  0  0  0  0  0  0  0  0  0  0  0
   -5.6457   -0.7470    0.0000 H   0  0  0  0  0  0  0  0  0  0  0  0
   -6.5723   -2.3520    0.0000 H   0  0  0  0  0  0  0  0  0  0  0  0
   -6.5724   -1.2820    0.0000 H   0  0  0  0  0  0  0  0  0  0  0  0
    6.8513   -2.7200    0.0000 H   0  0  0  0  0  0  0  0  0  0  0  0
    7.7779   -1.1150    0.0000 H   0  0  0  0  0  0  0  0  0  0  0  0
    7.7780   -2.1850    0.0000 H   0  0  0  0  0  0  0  0  0  0  0  0
   -3.5022    0.4525    0.0000 H   0  0  0  0  0  0  0  0  0  0  0  0
   -1.8941   -2.3330    0.0000 H   0  0  0  0  0  0  0  0  0  0  0  0
    0.5734    2.0207    0.0000 H   0  0  0  0  0  0  0  0  0  0  0  0
   -5.1104   -0.4760    0.0000 H   0  0  0  0  0  0  0  0  0  0  0  0
   -3.5022   -3.2615    0.0000 H   0  0  0  0  0  0  0  0  0  0  0  0
    4.8871    1.3410    0.0000 H   0  0  0  0  0  0  0  0  0  0  0  0
   -1.2836    2.0207    0.0000 H   0  0  0  0  0  0  0  0  0  0  0  0
    3.2789    2.2695    0.0000 H   0  0  0  0  0  0  0  0  0  0  0  0
    7.0634    0.1225    0.0000 H   0  0  0  0  0  0  0  0  0  0  0  0
    7.0634   -0.9475    0.0000 H   0  0  0  0  0  0  0  0  0  0  0  0
    5.4223   -2.7200    0.0000 H   0  0  0  0  0  0  0  0  0  0  0  0
    6.3489   -2.1850    0.0000 H   0  0  0  0  0  0  0  0  0  0  0  0
    5.4223    1.0700    0.0000 H   0  0  0  0  0  0  0  0  0  0  0  0
    4.4956    0.5350    0.0000 H   0  0  0  0  0  0  0  0  0  0  0  0
    3.7812   -1.7725    0.0000 H   0  0  0  0  0  0  0  0  0  0  0  0
    3.7813   -0.7025    0.0000 H   0  0  0  0  0  0  0  0  0  0  0  0
    0.5734   -1.1957    0.0000 H   0  0  0  0  0  0  0  0  0  0  0  0
    3.2789   -1.4445    0.0000 H   0  0  0  0  0  0  0  0  0  0  0  0
   -2.7187    0.8998    0.0000 H   0  0  0  0  0  0  0  0  0  0  0  0
    1.4755   -1.1912    0.0000 H   0  0  0  0  0  0  0  0  0  0  0  0
  1 35  1  0  0  0  0
  1 36  1  0  0  0  0
  1 37  1  0  0  0  0
  2 38  1  0  0  0  0
  2 39  1  0  0  0  0
  2 40  1  0  0  0  0
  3 41  1  0  0  0  0
  3 42  1  0  0  0  0
  3 43  1  0  0  0  0
  4 44  1  0  0  0  0
  5 45  1  0  0  0  0
  6 46  1  0  0  0  0
  7  4  1  0  0  0  0
  7 47  1  0  0  0  0
  8  5  2  0  0  0  0
  8 48  1  0  0  0  0
  9 49  1  0  0  0  0
 10  6  2  0  0  0  0
 10 50  1  0  0  0  0
 11  9  2  0  0  0  0
 11 51  1  0  0  0  0
 12 52  1  0  0  0  0
 12 53  1  0  0  0  0
 13 54  1  0  0  0  0
 13 55  1  0  0  0  0
 14 12  1  0  0  0  0
 14 56  1  0  0  0  0
 14 57  1  0  0  0  0
 15 13  1  0  0  0  0
 15 58  1  0  0  0  0
 15 59  1  0  0  0  0
 16 60  1  0  0  0  0
 17 61  1  0  0  0  0
 18  4  2  0  0  0  0
 18  5  1  0  0  0  0
 19  6  1  0  0  0  0
 19 16  2  0  0  0  0
 20  7  2  0  0  0  0
 20  8  1  0  0  0  0
 21  9  1  0  0  0  0
 21 17  2  0  0  0  0
 22 10  1  0  0  0  0
 23 11  1  0  0  0  0
 24 16  1  0  0  0  0
 24 22  2  0  0  0  0
 25 17  1  0  0  0  0
 25 23  2  0  0  0  0
 26 18  1  0  0  0  0
 27 19  1  0  0  0  0
 28 22  1  0  0  0  0
 28 26  1  0  0  0  0
 28 62  1  0  0  0  0
 29 23  1  0  0  0  0
 29 27  2  0  0  0  0
 30 24  1  0  0  0  0
 30 26  2  0  0  0  0
 31 25  1  0  0  0  0
 31 27  1  0  0  0  0
 31 63  1  0  0  0  0
 32  1  1  0  0  0  0
 32  2  1  0  0  0  0
 32 20  1  0  0  0  0
 33  3  1  0  0  0  0
 33 12  1  0  0  0  0
 33 13  1  0  0  0  0
 34 14  1  0  0  0  0
 34 15  1  0  0  0  0
 34 21  1  0  0  0  0
M  END
>  <DRUGBANK_ID>
DB04011

>  <SECONDARY_ACCESSION_NUMBERS>
EXPT00636

>  <COMMON_NAME>
2'-(4-Dimethylaminophenyl)-5-(4-Methyl-1-Piperazinyl)-2,5'-Bi-Benzimidazole

$$$$
