R88
 OpenBabel10282417072D

 47 49  0  0  0  0  0  0  0  0999 V2000
    1.3226    3.5451    0.0000 C   0  0  0  0  0  0  0  0  0  0  0  0
    0.6081    3.1326    0.0000 C   0  0  0  0  0  0  0  0  0  0  0  0
   -0.1064    3.5451    0.0000 O   0  0  0  0  0  0  0  0  0  0  0  0
    0.6081    2.3076    0.0000 C   0  0  0  0  0  0  0  0  0  0  0  0
    1.3226    1.8951    0.0000 C   0  0  0  0  0  0  0  0  0  0  0  0
    1.3226    1.0701    0.0000 C   0  0  0  0  0  0  0  0  0  0  0  0
    0.6081    0.6576    0.0000 C   0  0  0  0  0  0  0  0  0  0  0  0
   -0.1064   -0.5799    0.0000 C   0  0  0  0  0  0  0  0  0  0  0  0
   -0.1064   -1.4049    0.0000 C   0  0  0  0  0  0  0  0  0  0  0  0
   -0.8208   -1.8174    0.0000 C   0  0  0  0  0  0  0  0  0  0  0  0
   -0.8208   -2.6424    0.0000 C   0  0  0  0  0  0  0  0  0  0  0  0
   -1.5353   -3.0549    0.0000 N   0  0  0  0  0  0  0  0  0  0  0  0
   -2.2498   -2.6424    0.0000 C   0  0  0  0  0  0  0  0  0  0  0  0
   -1.5353   -3.8799    0.0000 C   0  0  0  0  0  0  0  0  0  0  0  0
   -1.1228   -4.5944    0.0000 C   0  0  0  0  0  0  0  0  0  0  0  0
   -0.1064    1.0701    0.0000 C   0  0  0  0  0  0  0  0  0  0  0  0
   -0.1064    1.8951    0.0000 C   0  0  0  0  0  0  0  0  0  0  0  0
    1.3226    4.3701    0.0000 C   0  0  0  0  0  0  0  0  0  0  0  0
    2.0370    4.7826    0.0000 C   0  0  0  0  0  0  0  0  0  0  0  0
    2.7515    4.3701    0.0000 C   0  0  0  0  0  0  0  0  0  0  0  0
    0.6081   -0.1674    0.0000 O   0  0  0  0  0  0  0  0  0  0  0  0
   -1.9478   -4.5944    0.0000 C   0  0  0  0  0  0  0  0  0  0  0  0
    3.4660    4.7826    0.0000 Br  0  0  0  0  0  0  0  0  0  0  0  0
    2.7515    3.5451    0.0000 C   0  0  0  0  0  0  0  0  0  0  0  0
    2.0370    3.1326    0.0000 C   0  0  0  0  0  0  0  0  0  0  0  0
    2.2163    2.4111    0.0000 H   0  0  0  0  0  0  0  0  0  0  0  0
    2.2163    0.5541    0.0000 H   0  0  0  0  0  0  0  0  0  0  0  0
   -1.0330   -0.0449    0.0000 H   0  0  0  0  0  0  0  0  0  0  0  0
   -0.1064    0.4901    0.0000 H   0  0  0  0  0  0  0  0  0  0  0  0
    0.7873   -1.9209    0.0000 H   0  0  0  0  0  0  0  0  0  0  0  0
   -1.7145   -1.3014    0.0000 H   0  0  0  0  0  0  0  0  0  0  0  0
    0.1058   -3.1774    0.0000 H   0  0  0  0  0  0  0  0  0  0  0  0
   -0.8208   -3.7124    0.0000 H   0  0  0  0  0  0  0  0  0  0  0  0
   -2.2498   -1.5724    0.0000 H   0  0  0  0  0  0  0  0  0  0  0  0
   -3.1764   -3.1774    0.0000 H   0  0  0  0  0  0  0  0  0  0  0  0
   -3.1765   -2.1074    0.0000 H   0  0  0  0  0  0  0  0  0  0  0  0
   -1.5353   -4.9499    0.0000 H   0  0  0  0  0  0  0  0  0  0  0  0
   -0.1962   -5.1294    0.0000 H   0  0  0  0  0  0  0  0  0  0  0  0
   -1.3997   -5.6279    0.0000 H   0  0  0  0  0  0  0  0  0  0  0  0
   -1.0001    0.5541    0.0000 H   0  0  0  0  0  0  0  0  0  0  0  0
   -1.0001    2.4111    0.0000 H   0  0  0  0  0  0  0  0  0  0  0  0
    0.4289    4.8861    0.0000 H   0  0  0  0  0  0  0  0  0  0  0  0
    2.0370    5.8146    0.0000 H   0  0  0  0  0  0  0  0  0  0  0  0
   -2.8744   -5.1294    0.0000 H   0  0  0  0  0  0  0  0  0  0  0  0
   -1.6709   -5.6279    0.0000 H   0  0  0  0  0  0  0  0  0  0  0  0
    3.6452    3.0291    0.0000 H   0  0  0  0  0  0  0  0  0  0  0  0
    2.0370    2.1006    0.0000 H   0  0  0  0  0  0  0  0  0  0  0  0
  1  2  1  0  0  0  0
  1 18  2  0  0  0  0
  1 25  1  0  0  0  0
  2  3  2  0  0  0  0
  2  4  1  0  0  0  0
  4  5  2  0  0  0  0
  4 17  1  0  0  0  0
  5  6  1  0  0  0  0
  5 26  1  0  0  0  0
  6  7  2  0  0  0  0
  6 27  1  0  0  0  0
  7 16  1  0  0  0  0
  7 21  1  0  0  0  0
  8  9  1  0  0  0  0
  8 21  1  0  0  0  0
  8 28  1  0  0  0  0
  8 29  1  0  0  0  0
  9 10  2  0  0  0  0
  9 30  1  0  0  0  0
 10 11  1  0  0  0  0
 10 31  1  0  0  0  0
 11 12  1  0  0  0  0
 11 32  1  0  0  0  0
 11 33  1  0  0  0  0
 12 13  1  0  0  0  0
 12 14  1  0  0  0  0
 13 34  1  0  0  0  0
 13 35  1  0  0  0  0
 13 36  1  0  0  0  0
 14 15  1  0  0  0  0
 14 22  1  0  0  0  0
 14 37  1  0  0  0  0
 15 22  1  0  0  0  0
 15 38  1  0  0  0  0
 15 39  1  0  0  0  0
 16 17  2  0  0  0  0
 16 40  1  0  0  0  0
 17 41  1  0  0  0  0
 18 19  1  0  0  0  0
 18 42  1  0  0  0  0
 19 20  2  0  0  0  0
 19 43  1  0  0  0  0
 20 23  1  0  0  0  0
 20 24  1  0  0  0  0
 22 44  1  0  0  0  0
 22 45  1  0  0  0  0
 24 25  2  0  0  0  0
 24 46  1  0  0  0  0
 25 47  1  0  0  0  0
M  END
>  <DRUGBANK_ID>
DB08458

>  <COMMON_NAME>
(4-BROMOPHENYL)[4-({(2E)-4-[CYCLOPROPYL(METHYL)AMINO]BUT-2-ENYL}OXY)PHENYL]METHANONE

$$$$
