
 OpenBabel10282417072D

  8  7  0  0  0  0  0  0  0  0999 V2000
   -0.4125    0.7145    0.0000 C   0  0  0  0  0  0  0  0  0  0  0  0
    1.0164    0.7145    0.0000 N   0  0  0  0  0  0  0  0  0  0  0  0
    0.3020    0.3020    0.0000 O   0  0  0  0  0  0  0  0  0  0  0  0
   -0.4125    1.7845    0.0000 H   0  0  0  0  0  0  0  0  0  0  0  0
   -1.3391    0.1795    0.0000 H   0  0  0  0  0  0  0  0  0  0  0  0
   -1.3392    1.2495    0.0000 H   0  0  0  0  0  0  0  0  0  0  0  0
    1.8998    0.2045    0.0000 H   0  0  0  0  0  0  0  0  0  0  0  0
    1.0164    1.7345    0.0000 H   0  0  0  0  0  0  0  0  0  0  0  0
  1  4  1  0  0  0  0
  1  5  1  0  0  0  0
  1  6  1  0  0  0  0
  2  7  1  0  0  0  0
  2  8  1  0  0  0  0
  3  1  1  0  0  0  0
  3  2  1  0  0  0  0
M  END
>  <DRUGBANK_ID>
DB06328

>  <COMMON_NAME>
Methoxyamine

>  <CAS_NUMBER>
67-62-9

>  <UNII>
9TZH4WY30J

$$$$
