
 OpenBabel10282417072D

 56 58  0  0  0  0  0  0  0  0999 V2000
    1.6369    0.7057    0.0000 N   0  0  0  0  0  0  0  0  0  0  0  0
    1.2235    1.4281    0.0000 C   0  0  0  0  0  0  0  0  0  0  0  0
    2.4763    0.6891    0.0000 C   0  0  1  0  0  0  0  0  0  0  0  0
    1.2192   -0.0083    0.0000 C   0  0  0  0  0  0  0  0  0  0  0  0
    2.8771   -0.0208    0.0000 C   0  0  0  0  0  0  0  0  0  0  0  0
   -0.0084    0.7266    0.0000 N   0  0  0  0  0  0  0  0  0  0  0  0
    2.9105    1.3906    0.0000 C   0  0  0  0  0  0  0  0  0  0  0  0
    0.4092    1.4407    0.0000 C   0  0  1  0  0  0  0  0  0  0  0  0
   -1.2361    1.4532    0.0000 C   0  0  0  0  0  0  0  0  0  0  0  0
    1.6244   -0.7265    0.0000 C   0  0  0  0  0  0  0  0  0  0  0  0
    2.4512   -0.7390    0.0000 C   0  0  0  0  0  0  0  0  0  0  0  0
   -0.8309    0.7391    0.0000 C   0  0  2  0  0  0  0  0  0  0  0  0
    1.6494    2.1422    0.0000 O   0  0  0  0  0  0  0  0  0  0  0  0
    2.5222    2.1171    0.0000 O   0  0  0  0  0  0  0  0  0  0  0  0
   -2.0587    1.4657    0.0000 O   0  0  0  0  0  0  0  0  0  0  0  0
   -1.2486    0.0250    0.0000 C   0  0  0  0  0  0  0  0  0  0  0  0
    3.7290    1.3655    0.0000 O   0  0  0  0  0  0  0  0  0  0  0  0
   -0.8184    2.1673    0.0000 O   0  0  0  0  0  0  0  0  0  0  0  0
   -2.0711    0.0375    0.0000 C   0  0  0  0  0  0  0  0  0  0  0  0
   -2.4846   -0.6890    0.0000 C   0  0  0  0  0  0  0  0  0  0  0  0
    0.0041    2.1548    0.0000 C   0  0  0  0  0  0  0  0  0  0  0  0
    2.8605   -1.4615    0.0000 C   0  0  0  0  0  0  0  0  0  0  0  0
    1.1985   -1.4491    0.0000 C   0  0  0  0  0  0  0  0  0  0  0  0
   -3.3031   -0.6765    0.0000 C   0  0  0  0  0  0  0  0  0  0  0  0
   -2.0837   -1.4032    0.0000 C   0  0  0  0  0  0  0  0  0  0  0  0
    1.6078   -2.1547    0.0000 C   0  0  0  0  0  0  0  0  0  0  0  0
    2.4387   -2.1673    0.0000 C   0  0  0  0  0  0  0  0  0  0  0  0
   -2.4971   -2.1171    0.0000 C   0  0  0  0  0  0  0  0  0  0  0  0
   -3.7290   -1.3905    0.0000 C   0  0  0  0  0  0  0  0  0  0  0  0
   -3.3282   -2.1046    0.0000 C   0  0  0  0  0  0  0  0  0  0  0  0
    1.9648    1.6289    0.0000 H   0  0  0  0  0  0  0  0  0  0  0  0
    0.1492    0.0001    0.0000 H   0  0  0  0  0  0  0  0  0  0  0  0
    0.6760   -0.9302    0.0000 H   0  0  0  0  0  0  0  0  0  0  0  0
    3.9470   -0.0322    0.0000 H   0  0  0  0  0  0  0  0  0  0  0  0
    3.4017   -0.9534    0.0000 H   0  0  0  0  0  0  0  0  0  0  0  0
    0.4924   -0.1620    0.0000 H   0  0  0  0  0  0  0  0  0  0  0  0
   -0.6608    1.4477    0.0000 H   0  0  0  0  0  0  0  0  0  0  0  0
   -0.2854    1.6596    0.0000 H   0  0  0  0  0  0  0  0  0  0  0  0
   -0.7233   -0.9072    0.0000 H   0  0  0  0  0  0  0  0  0  0  0  0
   -1.7954   -0.8947    0.0000 H   0  0  0  0  0  0  0  0  0  0  0  0
    4.1724    0.5401    0.0000 H   0  0  0  0  0  0  0  0  0  0  0  0
    0.1186    2.1620    0.0000 H   0  0  0  0  0  0  0  0  0  0  0  0
   -2.6019    0.9666    0.0000 H   0  0  0  0  0  0  0  0  0  0  0  0
   -3.1411    0.0366    0.0000 H   0  0  0  0  0  0  0  0  0  0  0  0
    0.5461    3.0774    0.0000 H   0  0  0  0  0  0  0  0  0  0  0  0
   -1.0659    2.1629    0.0000 H   0  0  0  0  0  0  0  0  0  0  0  0
   -0.5239    3.0855    0.0000 H   0  0  0  0  0  0  0  0  0  0  0  0
    3.8924   -1.4735    0.0000 H   0  0  0  0  0  0  0  0  0  0  0  0
    0.1665   -1.4455    0.0000 H   0  0  0  0  0  0  0  0  0  0  0  0
   -3.8059    0.2248    0.0000 H   0  0  0  0  0  0  0  0  0  0  0  0
   -1.0517   -1.4101    0.0000 H   0  0  0  0  0  0  0  0  0  0  0  0
    1.0859   -3.0450    0.0000 H   0  0  0  0  0  0  0  0  0  0  0  0
    2.9411   -3.0687    0.0000 H   0  0  0  0  0  0  0  0  0  0  0  0
   -1.9884   -3.0150    0.0000 H   0  0  0  0  0  0  0  0  0  0  0  0
   -4.7609   -1.3769    0.0000 H   0  0  0  0  0  0  0  0  0  0  0  0
   -3.8563   -2.9912    0.0000 H   0  0  0  0  0  0  0  0  0  0  0  0
  2  1  1  0  0  0  0
  3  1  1  0  0  0  0
  3  7  1  0  0  0  0
  3 31  1  1  0  0  0
  4  1  1  0  0  0  0
  4 32  1  0  0  0  0
  4 33  1  0  0  0  0
  5  3  1  0  0  0  0
  5 11  1  0  0  0  0
  5 34  1  0  0  0  0
  5 35  1  0  0  0  0
  6  8  1  0  0  0  0
  6 36  1  0  0  0  0
  8  2  1  0  0  0  0
  8 21  1  0  0  0  0
  8 37  1  6  0  0  0
  9 12  1  0  0  0  0
 10  4  1  0  0  0  0
 11 10  2  0  0  0  0
 12  6  1  0  0  0  0
 12 38  1  6  0  0  0
 13  2  2  0  0  0  0
 14  7  2  0  0  0  0
 15  9  2  0  0  0  0
 16 12  1  0  0  0  0
 16 39  1  0  0  0  0
 16 40  1  0  0  0  0
 17  7  1  0  0  0  0
 17 41  1  0  0  0  0
 18  9  1  0  0  0  0
 18 42  1  0  0  0  0
 19 16  1  0  0  0  0
 19 43  1  0  0  0  0
 19 44  1  0  0  0  0
 20 19  1  0  0  0  0
 21 45  1  0  0  0  0
 21 46  1  0  0  0  0
 21 47  1  0  0  0  0
 22 11  1  0  0  0  0
 22 48  1  0  0  0  0
 23 10  1  0  0  0  0
 23 49  1  0  0  0  0
 24 20  2  0  0  0  0
 24 50  1  0  0  0  0
 25 20  1  0  0  0  0
 25 51  1  0  0  0  0
 26 23  2  0  0  0  0
 26 52  1  0  0  0  0
 27 22  2  0  0  0  0
 27 26  1  0  0  0  0
 27 53  1  0  0  0  0
 28 25  2  0  0  0  0
 28 54  1  0  0  0  0
 29 24  1  0  0  0  0
 29 30  2  0  0  0  0
 29 55  1  0  0  0  0
 30 28  1  0  0  0  0
 30 56  1  0  0  0  0
M  END
>  <DRUGBANK_ID>
DB14217

>  <COMMON_NAME>
Quinaprilat

>  <CAS_NUMBER>
82768-85-2

>  <UNII>
34SSX5LDE5

>  <SYNONYMS>
Quinaprilat

$$$$
