649
 OpenBabel10282417072D

 28 29  0  0  1  0  0  0  0  0999 V2000
    3.7465   -0.5827    0.0000 O   0  0  0  0  0  0  0  0  0  0  0  0
    3.6409   -2.7885    0.0000 O   0  0  0  0  0  0  0  0  0  0  0  0
    1.6500    0.7273    0.0000 O   0  0  0  0  0  0  0  0  0  0  0  0
    3.0791    3.2023    0.0000 O   0  0  0  0  0  0  0  0  0  0  0  0
    3.0791    0.7273    0.0000 N   0  0  0  0  0  0  0  0  0  0  0  0
    2.3645    1.9648    0.0000 N   0  0  0  0  0  0  0  0  0  0  0  0
    3.0791   -0.0978    0.0000 C   0  0  1  0  0  0  0  0  0  0  0  0
    3.4916   -1.3673    0.0000 C   0  0  1  0  0  0  0  0  0  0  0  0
    2.4115   -0.5827    0.0000 C   0  0  0  0  0  0  0  0  0  0  0  0
    2.6665   -1.3673    0.0000 C   0  0  0  0  0  0  0  0  0  0  0  0
    3.9764   -2.0348    0.0000 C   0  0  0  0  0  0  0  0  0  0  0  0
    3.7935    1.1398    0.0000 C   0  0  0  0  0  0  0  0  0  0  0  0
    2.3645    1.1398    0.0000 C   0  0  0  0  0  0  0  0  0  0  0  0
    3.7935    1.9648    0.0000 C   0  0  0  0  0  0  0  0  0  0  0  0
    3.0791    2.3773    0.0000 C   0  0  0  0  0  0  0  0  0  0  0  0
    4.5080    2.3773    0.0000 C   0  0  0  0  0  0  0  0  0  0  0  0
    2.6762   -2.8900    0.0000 H   0  0  0  0  0  0  0  0  0  0  0  0
    1.5119    2.4571    0.0000 H   0  0  0  0  0  0  0  0  0  0  0  0
    4.0325    0.3880    0.0000 H   0  0  0  0  0  0  0  0  0  0  0  0
    4.5484   -1.2000    0.0000 H   0  0  0  0  0  0  0  0  0  0  0  0
    1.4300   -0.2638    0.0000 H   0  0  0  0  0  0  0  0  0  0  0  0
    2.0599   -2.2022    0.0000 H   0  0  0  0  0  0  0  0  0  0  0  0
    5.0405   -1.9230    0.0000 H   0  0  0  0  0  0  0  0  0  0  0  0
    4.4117   -1.0574    0.0000 H   0  0  0  0  0  0  0  0  0  0  0  0
    4.6872    0.6238    0.0000 H   0  0  0  0  0  0  0  0  0  0  0  0
    5.4346    1.8423    0.0000 H   0  0  0  0  0  0  0  0  0  0  0  0
    4.5080    3.4473    0.0000 H   0  0  0  0  0  0  0  0  0  0  0  0
    5.4347    2.9123    0.0000 H   0  0  0  0  0  0  0  0  0  0  0  0
  1  7  1  0  0  0  0
  1  8  1  0  0  0  0
  2 11  1  0  0  0  0
  2 17  1  0  0  0  0
  3 13  2  0  0  0  0
  4 15  2  0  0  0  0
  5 12  1  0  0  0  0
  5 13  1  0  0  0  0
  6 13  1  0  0  0  0
  6 15  1  0  0  0  0
  6 18  1  0  0  0  0
  7  5  1  0  0  0  0
  7  9  1  0  0  0  0
  7 19  1  1  0  0  0
  8 10  1  0  0  0  0
  8 11  1  0  0  0  0
  8 20  1  1  0  0  0
  9 10  2  0  0  0  0
  9 21  1  0  0  0  0
 10 22  1  0  0  0  0
 11 23  1  0  0  0  0
 11 24  1  0  0  0  0
 12 14  2  0  0  0  0
 12 25  1  0  0  0  0
 14 15  1  0  0  0  0
 14 16  1  0  0  0  0
 16 26  1  0  0  0  0
 16 27  1  0  0  0  0
 16 28  1  0  0  0  0
M  END
>  <DRUGBANK_ID>
DB00649

>  <SECONDARY_ACCESSION_NUMBERS>
APRD00440

>  <COMMON_NAME>
Stavudine

>  <CAS_NUMBER>
3056-17-5

>  <UNII>
BO9LE4QFZF

>  <SYNONYMS>
1-(2,3-Dideoxy-beta-D-glycero-pent-2-enofuranosyl)thymine; 2',3'-Didehydro-3'-deoxythimidine; 3'-Deoxy-2'-thymidinene; Estavudina; Sanilvudine; Stavudin; Stavudine; Stavudinum; STV

$$$$
