816
 OpenBabel10282417072D

 32 32  0  0  1  0  0  0  0  0999 V2000
    2.3645    0.6683    0.0000 O   0  0  0  0  0  0  0  0  0  0  0  0
    1.6500   -2.2193    0.0000 O   0  0  0  0  0  0  0  0  0  0  0  0
    4.5080   -2.2193    0.0000 O   0  0  0  0  0  0  0  0  0  0  0  0
    3.7935    1.4933    0.0000 N   0  0  0  0  0  0  0  0  0  0  0  0
    3.0791    0.2558    0.0000 C   0  0  3  0  0  0  0  0  0  0  0  0
    3.7935    0.6683    0.0000 C   0  0  0  0  0  0  0  0  0  0  0  0
    4.5080    1.9058    0.0000 C   0  0  0  0  0  0  0  0  0  0  0  0
    3.0791   -0.5693    0.0000 C   0  0  0  0  0  0  0  0  0  0  0  0
    4.5080    2.7308    0.0000 C   0  0  0  0  0  0  0  0  0  0  0  0
    5.2224    1.4933    0.0000 C   0  0  0  0  0  0  0  0  0  0  0  0
    3.7935   -0.9818    0.0000 C   0  0  0  0  0  0  0  0  0  0  0  0
    2.3645   -0.9818    0.0000 C   0  0  0  0  0  0  0  0  0  0  0  0
    2.3645   -1.8068    0.0000 C   0  0  0  0  0  0  0  0  0  0  0  0
    3.7935   -1.8068    0.0000 C   0  0  0  0  0  0  0  0  0  0  0  0
    3.0791   -2.2193    0.0000 C   0  0  0  0  0  0  0  0  0  0  0  0
    2.3644    1.6383    0.0000 H   0  0  0  0  0  0  0  0  0  0  0  0
    0.8385   -1.7508    0.0000 H   0  0  0  0  0  0  0  0  0  0  0  0
    4.5080   -3.1563    0.0000 H   0  0  0  0  0  0  0  0  0  0  0  0
    2.9102    2.0033    0.0000 H   0  0  0  0  0  0  0  0  0  0  0  0
    3.0790    1.3258    0.0000 H   0  0  0  0  0  0  0  0  0  0  0  0
    4.7202    0.1333    0.0000 H   0  0  0  0  0  0  0  0  0  0  0  0
    3.7935   -0.4017    0.0000 H   0  0  0  0  0  0  0  0  0  0  0  0
    5.4347    2.4408    0.0000 H   0  0  0  0  0  0  0  0  0  0  0  0
    5.4346    3.2658    0.0000 H   0  0  0  0  0  0  0  0  0  0  0  0
    3.5814    3.2658    0.0000 H   0  0  0  0  0  0  0  0  0  0  0  0
    4.5080    3.8008    0.0000 H   0  0  0  0  0  0  0  0  0  0  0  0
    5.2224    0.4233    0.0000 H   0  0  0  0  0  0  0  0  0  0  0  0
    6.1491    2.0283    0.0000 H   0  0  0  0  0  0  0  0  0  0  0  0
    6.1490    0.9583    0.0000 H   0  0  0  0  0  0  0  0  0  0  0  0
    4.6872   -0.4658    0.0000 H   0  0  0  0  0  0  0  0  0  0  0  0
    1.4708   -0.4658    0.0000 H   0  0  0  0  0  0  0  0  0  0  0  0
    3.0792   -3.2513    0.0000 H   0  0  0  0  0  0  0  0  0  0  0  0
  1  5  1  0  0  0  0
  1 16  1  0  0  0  0
  2 13  1  0  0  0  0
  2 17  1  0  0  0  0
  3 14  1  0  0  0  0
  3 18  1  0  0  0  0
  4  6  1  0  0  0  0
  4  7  1  0  0  0  0
  4 19  1  0  0  0  0
  5  6  1  0  0  0  0
  5  8  1  0  0  0  0
  5 20  1  0  0  0  0
  6 21  1  0  0  0  0
  6 22  1  0  0  0  0
  7  9  1  0  0  0  0
  7 10  1  0  0  0  0
  7 23  1  0  0  0  0
  8 11  2  0  0  0  0
  8 12  1  0  0  0  0
  9 24  1  0  0  0  0
  9 25  1  0  0  0  0
  9 26  1  0  0  0  0
 10 27  1  0  0  0  0
 10 28  1  0  0  0  0
 10 29  1  0  0  0  0
 11 14  1  0  0  0  0
 11 30  1  0  0  0  0
 12 13  2  0  0  0  0
 12 31  1  0  0  0  0
 13 15  1  0  0  0  0
 14 15  2  0  0  0  0
 15 32  1  0  0  0  0
M  END
>  <DRUGBANK_ID>
DB00816

>  <SECONDARY_ACCESSION_NUMBERS>
APRD00210

>  <COMMON_NAME>
Orciprenaline

>  <CAS_NUMBER>
586-06-1

>  <UNII>
53QOG569E0

>  <SYNONYMS>
Metaproterenol; Orciprenalina; Orciprenaline; Orciprenalinum

$$$$
