
 OpenBabel10282417072D

 17 12  0  0  0  0  0  0  0  0999 V2000
   -0.5598    0.1105    0.0000 C   0  0  0  0  0  0  0  0  0  0  0  0
   -0.9723    0.8250    0.0000 C   0  0  0  0  0  0  0  0  0  0  0  0
    0.2651    0.1105    0.0000 N   0  0  0  0  0  0  0  0  0  0  0  0
   -0.5598    1.5394    0.0000 O   0  0  0  0  0  0  0  0  0  0  0  0
   -1.7973    0.8250    0.0000 O   0  5  0  0  0  0  0  0  0  0  0  0
   -2.6223    0.8250    0.0000 Al  0  1  0  0  0  0  0  0  0  0  0  0
    2.6223    0.7059    0.0000 O   0  5  0  0  0  0  0  0  0  0  0  0
   -1.0410   -1.5394    0.0000 O   0  5  0  0  0  0  0  0  0  0  0  0
    1.3160   -1.5394    0.0000 O   0  0  0  0  0  0  0  0  0  0  0  0
   -1.0948   -0.8161    0.0000 H   0  0  0  0  0  0  0  0  0  0  0  0
   -0.0248   -0.8161    0.0000 H   0  0  0  0  0  0  0  0  0  0  0  0
    0.7751   -0.7728    0.0000 H   0  0  0  0  0  0  0  0  0  0  0  0
    0.7751    0.9938    0.0000 H   0  0  0  0  0  0  0  0  0  0  0  0
    3.5923    0.7059    0.0000 H   0  0  0  0  0  0  0  0  0  0  0  0
   -0.0710   -1.5394    0.0000 H   0  0  0  0  0  0  0  0  0  0  0  0
    2.2860   -1.5394    0.0000 H   0  0  0  0  0  0  0  0  0  0  0  0
    0.8310   -0.6994    0.0000 H   0  0  0  0  0  0  0  0  0  0  0  0
  1 10  1  0  0  0  0
  1 11  1  0  0  0  0
  2  1  1  0  0  0  0
  3  1  1  0  0  0  0
  3 12  1  0  0  0  0
  3 13  1  0  0  0  0
  4  2  2  0  0  0  0
  5  2  1  0  0  0  0
  7 14  1  0  0  0  0
  8 15  1  0  0  0  0
  9 16  1  0  0  0  0
  9 17  1  0  0  0  0
M  CHG  4   5  -1   6   3   7  -1   8  -1
M  END
>  <DRUGBANK_ID>
DB13626

>  <COMMON_NAME>
Aluminium glycinate

>  <CAS_NUMBER>
41354-48-7

>  <UNII>
DO250MG0W6

>  <SYNONYMS>
Aluminio glicinato; Aluminum glycinate; Dihydroxyaluminum aminoacetate

$$$$
