LZD
 OpenBabel10282417072D

 42 44  0  0  0  0  0  0  0  0999 V2000
   16.6798    6.6497    0.0000 C   0  0  0  0  0  0  0  0  0  0  0  0
   17.3942    6.2372    0.0000 C   0  0  0  0  0  0  0  0  0  0  0  0
   17.3942    5.4122    0.0000 C   0  0  0  0  0  0  0  0  0  0  0  0
   16.6798    4.9997    0.0000 C   0  0  2  0  0  0  0  0  0  0  0  0
   16.6798    4.1747    0.0000 N   0  0  0  0  0  0  0  0  0  0  0  0
   15.9653    3.7622    0.0000 C   0  0  0  0  0  0  0  0  0  0  0  0
   15.2508    4.1747    0.0000 O   0  0  0  0  0  0  0  0  0  0  0  0
   15.9653    2.9372    0.0000 C   0  0  0  0  0  0  0  0  0  0  0  0
   16.6327    2.4522    0.0000 N   0  0  0  0  0  0  0  0  0  0  0  0
   16.3778    1.6676    0.0000 N   0  0  0  0  0  0  0  0  0  0  0  0
   15.5528    1.6676    0.0000 C   0  0  0  0  0  0  0  0  0  0  0  0
   15.2978    2.4522    0.0000 C   0  0  0  0  0  0  0  0  0  0  0  0
   14.5132    2.7072    0.0000 N   0  0  0  0  0  0  0  0  0  0  0  0
   13.9001    2.1551    0.0000 C   0  0  0  0  0  0  0  0  0  0  0  0
   14.0717    1.3482    0.0000 O   0  0  0  0  0  0  0  0  0  0  0  0
   13.1155    2.4101    0.0000 C   0  0  0  0  0  0  0  0  0  0  0  0
   12.5024    1.8580    0.0000 C   0  0  0  0  0  0  0  0  0  0  0  0
   12.6739    1.0511    0.0000 F   0  0  0  0  0  0  0  0  0  0  0  0
   11.7178    2.1130    0.0000 C   0  0  0  0  0  0  0  0  0  0  0  0
   11.5463    2.9200    0.0000 C   0  0  0  0  0  0  0  0  0  0  0  0
   12.1594    3.4720    0.0000 C   0  0  0  0  0  0  0  0  0  0  0  0
   12.9440    3.2170    0.0000 C   0  0  0  0  0  0  0  0  0  0  0  0
   13.5571    3.7691    0.0000 F   0  0  0  0  0  0  0  0  0  0  0  0
   15.9653    5.4122    0.0000 C   0  0  0  0  0  0  0  0  0  0  0  0
   15.9653    6.2372    0.0000 N   0  0  0  0  0  0  0  0  0  0  0  0
   17.1855    4.7077    0.0000 H   0  0  0  0  0  0  0  0  0  0  0  0
   16.6798    7.7197    0.0000 H   0  0  0  0  0  0  0  0  0  0  0  0
   15.7532    7.1847    0.0000 H   0  0  0  0  0  0  0  0  0  0  0  0
   18.3209    6.7722    0.0000 H   0  0  0  0  0  0  0  0  0  0  0  0
   18.3208    5.7022    0.0000 H   0  0  0  0  0  0  0  0  0  0  0  0
   18.3209    4.8772    0.0000 H   0  0  0  0  0  0  0  0  0  0  0  0
   17.3942    4.3422    0.0000 H   0  0  0  0  0  0  0  0  0  0  0  0
   17.5324    3.6824    0.0000 H   0  0  0  0  0  0  0  0  0  0  0  0
   16.9565    0.8711    0.0000 H   0  0  0  0  0  0  0  0  0  0  0  0
   14.9462    0.8327    0.0000 H   0  0  0  0  0  0  0  0  0  0  0  0
   14.3085    3.6702    0.0000 H   0  0  0  0  0  0  0  0  0  0  0  0
   10.9508    1.4225    0.0000 H   0  0  0  0  0  0  0  0  0  0  0  0
   10.5648    3.2389    0.0000 H   0  0  0  0  0  0  0  0  0  0  0  0
   11.9449    4.4815    0.0000 H   0  0  0  0  0  0  0  0  0  0  0  0
   15.0387    4.8772    0.0000 H   0  0  0  0  0  0  0  0  0  0  0  0
   15.0387    5.9472    0.0000 H   0  0  0  0  0  0  0  0  0  0  0  0
   15.0820    6.7472    0.0000 H   0  0  0  0  0  0  0  0  0  0  0  0
  1  2  1  0  0  0  0
  1 25  1  0  0  0  0
  1 27  1  0  0  0  0
  1 28  1  0  0  0  0
  2  3  1  0  0  0  0
  2 29  1  0  0  0  0
  2 30  1  0  0  0  0
  3  4  1  0  0  0  0
  3 31  1  0  0  0  0
  3 32  1  0  0  0  0
  4  5  1  0  0  0  0
  4 24  1  0  0  0  0
  4 26  1  1  0  0  0
  5  6  1  0  0  0  0
  5 33  1  0  0  0  0
  6  7  2  0  0  0  0
  6  8  1  0  0  0  0
  8  9  2  0  0  0  0
  8 12  1  0  0  0  0
  9 10  1  0  0  0  0
 10 11  1  0  0  0  0
 10 34  1  0  0  0  0
 11 12  2  0  0  0  0
 11 35  1  0  0  0  0
 12 13  1  0  0  0  0
 13 14  1  0  0  0  0
 13 36  1  0  0  0  0
 14 15  2  0  0  0  0
 14 16  1  0  0  0  0
 16 17  1  0  0  0  0
 16 22  2  0  0  0  0
 17 18  1  0  0  0  0
 17 19  2  0  0  0  0
 19 20  1  0  0  0  0
 19 37  1  0  0  0  0
 20 21  2  0  0  0  0
 20 38  1  0  0  0  0
 21 22  1  0  0  0  0
 21 39  1  0  0  0  0
 22 23  1  0  0  0  0
 24 25  1  0  0  0  0
 24 40  1  0  0  0  0
 24 41  1  0  0  0  0
 25 42  1  0  0  0  0
M  END
>  <DRUGBANK_ID>
DB08141

>  <COMMON_NAME>
4-{[(2,6-difluorophenyl)carbonyl]amino}-N-[(3S)-piperidin-3-yl]-1H-pyrazole-3-carboxamide

$$$$
