
 OpenBabel10282417072D

 26 26  0  0  1  0  0  0  0  0999 V2000
    0.5678    1.9393    0.0000 C   0  0  0  0  0  0  0  0  0  0  0  0
    2.2857   -0.7365    0.0000 C   0  0  0  0  0  0  0  0  0  0  0  0
    1.2352    0.6294    0.0000 C   0  0  0  0  0  0  0  0  0  0  0  0
    0.5678    1.1143    0.0000 C   0  0  2  0  0  0  0  0  0  0  0  0
    0.9803   -0.1553    0.0000 C   0  0  2  0  0  0  0  0  0  0  0  0
   -0.0997    0.6294    0.0000 C   0  0  2  0  0  0  0  0  0  0  0  0
   -0.8843    0.8843    0.0000 C   0  0  0  0  0  0  0  0  0  0  0  0
    0.1553   -0.1553    0.0000 N   0  0  0  0  0  0  0  0  0  0  0  0
    1.4652   -0.8227    0.0000 N   0  0  0  0  0  0  0  0  0  0  0  0
   -1.4974    0.3323    0.0000 O   0  0  0  0  0  0  0  0  0  0  0  0
   -1.0558    1.6913    0.0000 O   0  0  0  0  0  0  0  0  0  0  0  0
    1.1296   -1.5764    0.0000 O   0  0  0  0  0  0  0  0  0  0  0  0
    1.3028    1.4888    0.0000 H   0  0  0  0  0  0  0  0  0  0  0  0
    1.7951   -0.0262    0.0000 H   0  0  0  0  0  0  0  0  0  0  0  0
   -0.2287    1.4442    0.0000 H   0  0  0  0  0  0  0  0  0  0  0  0
    1.4944    2.4743    0.0000 H   0  0  0  0  0  0  0  0  0  0  0  0
   -0.3588    2.4743    0.0000 H   0  0  0  0  0  0  0  0  0  0  0  0
    0.5678    3.0093    0.0000 H   0  0  0  0  0  0  0  0  0  0  0  0
    2.9146   -1.6022    0.0000 H   0  0  0  0  0  0  0  0  0  0  0  0
    2.7210    0.2410    0.0000 H   0  0  0  0  0  0  0  0  0  0  0  0
    3.3498   -0.6247    0.0000 H   0  0  0  0  0  0  0  0  0  0  0  0
    2.2528    0.9601    0.0000 H   0  0  0  0  0  0  0  0  0  0  0  0
    1.9918   -0.1272    0.0000 H   0  0  0  0  0  0  0  0  0  0  0  0
   -0.4442   -0.9805    0.0000 H   0  0  0  0  0  0  0  0  0  0  0  0
   -0.3594    2.3182    0.0000 H   0  0  0  0  0  0  0  0  0  0  0  0
    0.1649   -1.6778    0.0000 H   0  0  0  0  0  0  0  0  0  0  0  0
  1 16  1  0  0  0  0
  1 17  1  0  0  0  0
  1 18  1  0  0  0  0
  2 19  1  0  0  0  0
  2 20  1  0  0  0  0
  2 21  1  0  0  0  0
  3 22  1  0  0  0  0
  3 23  1  0  0  0  0
  4  1  1  0  0  0  0
  4  3  1  0  0  0  0
  4 13  1  1  0  0  0
  5  3  1  0  0  0  0
  5  9  1  0  0  0  0
  5 14  1  6  0  0  0
  6  4  1  0  0  0  0
  6  7  1  0  0  0  0
  6 15  1  6  0  0  0
  8  5  1  0  0  0  0
  8  6  1  0  0  0  0
  8 24  1  0  0  0  0
  9  2  1  0  0  0  0
 10  7  2  0  0  0  0
 11  7  1  0  0  0  0
 11 25  1  0  0  0  0
 12  9  1  0  0  0  0
 12 26  1  0  0  0  0
M  END
>  <DRUGBANK_ID>
DB01855

>  <SECONDARY_ACCESSION_NUMBERS>
EXPT00682

>  <COMMON_NAME>
5-(Hydroxy-Methyl-Amino)-3-Methyl-Pyrrolidine-2-Carboxylic Acid

$$$$
