864
 OpenBabel10282417072D

 60 61  0  0  0  0  0  0  0  0999 V2000
    1.6736   -0.1724    0.0000 C   0  0  2  0  0  0  0  0  0  0  0  0
    1.7414    0.6499    0.0000 C   0  0  0  0  0  0  0  0  0  0  0  0
    2.3518   -0.6422    0.0000 C   0  0  0  0  0  0  0  0  0  0  0  0
    2.2839   -1.4644    0.0000 C   0  0  0  0  0  0  0  0  0  0  0  0
    2.9621   -1.9342    0.0000 C   0  0  0  0  0  0  0  0  0  0  0  0
    3.7080   -1.5819    0.0000 C   0  0  0  0  0  0  0  0  0  0  0  0
    3.7759   -0.7596    0.0000 C   0  0  0  0  0  0  0  0  0  0  0  0
    3.0977   -0.2898    0.0000 C   0  0  0  0  0  0  0  0  0  0  0  0
    4.5218   -0.4073    0.0000 C   0  0  0  0  0  0  0  0  0  0  0  0
    5.2000   -0.8771    0.0000 N   0  0  0  0  0  0  0  0  0  0  0  0
    2.4874    1.0022    0.0000 O   0  0  0  0  0  0  0  0  0  0  0  0
    1.0633    1.1197    0.0000 O   0  0  0  0  0  0  0  0  0  0  0  0
    0.9276   -0.5247    0.0000 C   0  0  0  0  0  0  0  0  0  0  0  0
    0.2495   -0.0549    0.0000 P   0  0  1  0  0  0  0  0  0  0  0  0
   -0.4286    0.4149    0.0000 C   0  0  2  0  0  0  0  0  0  0  0  0
   -0.3608    1.2371    0.0000 C   0  0  0  0  0  0  0  0  0  0  0  0
   -1.0390    1.7070    0.0000 C   0  0  0  0  0  0  0  0  0  0  0  0
    0.3851    1.5895    0.0000 C   0  0  0  0  0  0  0  0  0  0  0  0
   -1.1746    0.0626    0.0000 N   0  0  0  0  0  0  0  0  0  0  0  0
   -1.8528    0.5324    0.0000 C   0  0  0  0  0  0  0  0  0  0  0  0
   -1.7849    1.3546    0.0000 O   0  0  0  0  0  0  0  0  0  0  0  0
   -2.5987    0.1800    0.0000 O   0  0  0  0  0  0  0  0  0  0  0  0
   -3.2769    0.6499    0.0000 C   0  0  0  0  0  0  0  0  0  0  0  0
    0.7193    0.6233    0.0000 O   0  0  0  0  0  0  0  0  0  0  0  0
   -0.2203   -0.7330    0.0000 O   0  0  0  0  0  0  0  0  0  0  0  0
   -4.0228    0.2975    0.0000 C   0  0  0  0  0  0  0  0  0  0  0  0
   -4.7010    0.7673    0.0000 C   0  0  0  0  0  0  0  0  0  0  0  0
   -5.4469    0.4149    0.0000 C   0  0  0  0  0  0  0  0  0  0  0  0
   -5.5147   -0.4073    0.0000 C   0  0  0  0  0  0  0  0  0  0  0  0
   -4.8366   -0.8771    0.0000 C   0  0  0  0  0  0  0  0  0  0  0  0
   -4.0906   -0.5247    0.0000 C   0  0  0  0  0  0  0  0  0  0  0  0
    1.6256   -0.7543    0.0000 H   0  0  0  0  0  0  0  0  0  0  0  0
    0.0993    0.6643    0.0000 H   0  0  0  0  0  0  0  0  0  0  0  0
    1.3508   -1.9052    0.0000 H   0  0  0  0  0  0  0  0  0  0  0  0
    2.8773   -2.9627    0.0000 H   0  0  0  0  0  0  0  0  0  0  0  0
    4.5563   -2.1697    0.0000 H   0  0  0  0  0  0  0  0  0  0  0  0
    3.1825    0.7387    0.0000 H   0  0  0  0  0  0  0  0  0  0  0  0
    4.6097    0.6591    0.0000 H   0  0  0  0  0  0  0  0  0  0  0  0
    5.4893    0.0498    0.0000 H   0  0  0  0  0  0  0  0  0  0  0  0
    5.1162   -1.8937    0.0000 H   0  0  0  0  0  0  0  0  0  0  0  0
    6.1222   -0.4414    0.0000 H   0  0  0  0  0  0  0  0  0  0  0  0
    3.2576    0.4685    0.0000 H   0  0  0  0  0  0  0  0  0  0  0  0
    0.8396   -1.5911    0.0000 H   0  0  0  0  0  0  0  0  0  0  0  0
   -0.0399   -0.9817    0.0000 H   0  0  0  0  0  0  0  0  0  0  0  0
   -0.2729    2.3035    0.0000 H   0  0  0  0  0  0  0  0  0  0  0  0
   -0.9510    2.7734    0.0000 H   0  0  0  0  0  0  0  0  0  0  0  0
   -2.0065    1.2500    0.0000 H   0  0  0  0  0  0  0  0  0  0  0  0
   -1.9185    2.3164    0.0000 H   0  0  0  0  0  0  0  0  0  0  0  0
    1.2647    0.9802    0.0000 H   0  0  0  0  0  0  0  0  0  0  0  0
    0.4730    2.6559    0.0000 H   0  0  0  0  0  0  0  0  0  0  0  0
    1.3526    2.0466    0.0000 H   0  0  0  0  0  0  0  0  0  0  0  0
   -1.2555   -0.9186    0.0000 H   0  0  0  0  0  0  0  0  0  0  0  0
   -3.1890    1.7163    0.0000 H   0  0  0  0  0  0  0  0  0  0  0  0
   -4.1565    1.2592    0.0000 H   0  0  0  0  0  0  0  0  0  0  0  0
   -1.1870   -0.6533    0.0000 H   0  0  0  0  0  0  0  0  0  0  0  0
   -4.6162    1.7958    0.0000 H   0  0  0  0  0  0  0  0  0  0  0  0
   -6.2952    1.0026    0.0000 H   0  0  0  0  0  0  0  0  0  0  0  0
   -6.4478   -0.8481    0.0000 H   0  0  0  0  0  0  0  0  0  0  0  0
   -4.9214   -1.9056    0.0000 H   0  0  0  0  0  0  0  0  0  0  0  0
   -3.2423   -1.1124    0.0000 H   0  0  0  0  0  0  0  0  0  0  0  0
  1  3  1  0  0  0  0
  1 13  1  0  0  0  0
  1  2  1  0  0  0  0
  1 32  1  1  0  0  0
  2 12  2  0  0  0  0
  2 11  1  0  0  0  0
  3  8  2  0  0  0  0
  3  4  1  0  0  0  0
  4  5  2  0  0  0  0
  4 34  1  0  0  0  0
  5  6  1  0  0  0  0
  5 35  1  0  0  0  0
  6  7  2  0  0  0  0
  6 36  1  0  0  0  0
  7  9  1  0  0  0  0
  7  8  1  0  0  0  0
  8 37  1  0  0  0  0
  9 10  1  0  0  0  0
  9 38  1  0  0  0  0
  9 39  1  0  0  0  0
 10 40  1  0  0  0  0
 10 41  1  0  0  0  0
 11 42  1  0  0  0  0
 13 43  1  0  0  0  0
 13 44  1  0  0  0  0
 14 13  1  0  0  0  0
 14 24  2  6  0  0  0
 14 15  1  0  0  0  0
 14 25  1  0  0  0  0
 15 16  1  0  0  0  0
 15 19  1  0  0  0  0
 15 33  1  6  0  0  0
 16 17  1  0  0  0  0
 16 18  1  0  0  0  0
 16 45  1  0  0  0  0
 17 46  1  0  0  0  0
 17 47  1  0  0  0  0
 17 48  1  0  0  0  0
 18 49  1  0  0  0  0
 18 50  1  0  0  0  0
 18 51  1  0  0  0  0
 19 20  1  0  0  0  0
 19 52  1  0  0  0  0
 20 21  2  0  0  0  0
 20 22  1  0  0  0  0
 22 23  1  0  0  0  0
 23 26  1  0  0  0  0
 23 53  1  0  0  0  0
 23 54  1  0  0  0  0
 25 55  1  0  0  0  0
 26 31  2  0  0  0  0
 26 27  1  0  0  0  0
 27 28  2  0  0  0  0
 27 56  1  0  0  0  0
 28 29  1  0  0  0  0
 28 57  1  0  0  0  0
 29 30  2  0  0  0  0
 29 58  1  0  0  0  0
 30 31  1  0  0  0  0
 30 59  1  0  0  0  0
 31 60  1  0  0  0  0
M  END
>  <DRUGBANK_ID>
DB07269

>  <COMMON_NAME>
(2S)-2-[3-(AMINOMETHYL)PHENYL]-3-[(R)-[(1R)-1-{[(BENZYLOXY)CARBONYL]AMINO}-2-METHYLPROPYL](HYDROXY)PHOSPHORYL]PROPANOIC ACID

$$$$
