P9A
 OpenBabel10282417072D

 61 65  0  0  0  0  0  0  0  0999 V2000
    2.9711   -0.1812    0.0000 O   0  0  0  0  0  0  0  0  0  0  0  0
   -0.7681    0.2635    0.0000 O   0  0  0  0  0  0  0  0  0  0  0  0
    0.1561    2.4826    0.0000 O   0  0  0  0  0  0  0  0  0  0  0  0
   -0.6280    2.7390    0.0000 O   0  0  0  0  0  0  0  0  0  0  0  0
   -1.5161    0.0229    0.0000 O   0  0  0  0  0  0  0  0  0  0  0  0
   -3.8685    0.7921    0.0000 O   0  0  0  0  0  0  0  0  0  0  0  0
   -2.9143   -0.2716    0.0000 O   0  0  0  0  0  0  0  0  0  0  0  0
   -0.2880    1.1245    0.0000 N   0  0  0  0  0  0  0  0  0  0  0  0
    0.3261    1.6754    0.0000 C   0  0  0  0  0  0  0  0  0  0  0  0
    1.1102    1.4190    0.0000 C   0  0  0  0  0  0  0  0  0  0  0  0
    1.2802    0.6118    0.0000 C   0  0  0  0  0  0  0  0  0  0  0  0
    0.6662    0.0609    0.0000 C   0  0  2  0  0  0  0  0  0  0  0  0
   -0.1153   -0.2410    0.0000 C   0  0  0  0  0  0  0  0  0  0  0  0
   -0.2105   -1.0750    0.0000 C   0  0  0  0  0  0  0  0  0  0  0  0
    0.4664   -1.5743    0.0000 C   0  0  0  0  0  0  0  0  0  0  0  0
    1.2892   -1.3465    0.0000 C   0  0  2  0  0  0  0  0  0  0  0  0
    1.3411   -0.4612    0.0000 C   0  0  1  0  0  0  0  0  0  0  0  0
    2.1210   -0.0639    0.0000 C   0  0  2  0  0  0  0  0  0  0  0  0
    2.4479   -0.8253    0.0000 C   0  0  0  0  0  0  0  0  0  0  0  0
    2.5900   -1.7396    0.0000 C   0  0  2  0  0  0  0  0  0  0  0  0
    1.7833   -2.0618    0.0000 C   0  0  0  0  0  0  0  0  0  0  0  0
    2.1268   -1.3146    0.0000 C   0  0  0  0  0  0  0  0  0  0  0  0
    3.0160   -1.0541    0.0000 C   0  0  2  0  0  0  0  0  0  0  0  0
    3.8149   -1.2601    0.0000 C   0  0  0  0  0  0  0  0  0  0  0  0
    0.2350    0.7643    0.0000 C   0  0  0  0  0  0  0  0  0  0  0  0
   -3.0843    0.5357    0.0000 C   0  0  0  0  0  0  0  0  0  0  0  0
   -2.4702    1.0864    0.0000 C   0  0  0  0  0  0  0  0  0  0  0  0
   -1.6861    0.8300    0.0000 C   0  0  0  0  0  0  0  0  0  0  0  0
   -1.0720    1.3809    0.0000 C   0  0  0  0  0  0  0  0  0  0  0  0
   -1.2420    2.1882    0.0000 C   0  0  0  0  0  0  0  0  0  0  0  0
   -2.0262    2.4445    0.0000 C   0  0  0  0  0  0  0  0  0  0  0  0
   -2.6402    1.8937    0.0000 C   0  0  0  0  0  0  0  0  0  0  0  0
    0.8096   -0.7030    0.0000 H   0  0  0  0  0  0  0  0  0  0  0  0
    2.2266    0.5104    0.0000 H   0  0  0  0  0  0  0  0  0  0  0  0
    2.9650   -2.1872    0.0000 H   0  0  0  0  0  0  0  0  0  0  0  0
    0.2626    2.4478    0.0000 H   0  0  0  0  0  0  0  0  0  0  0  0
   -2.2136   -0.6028    0.0000 H   0  0  0  0  0  0  0  0  0  0  0  0
   -3.6118   -0.8973    0.0000 H   0  0  0  0  0  0  0  0  0  0  0  0
   -0.0851    0.1611    0.0000 H   0  0  0  0  0  0  0  0  0  0  0  0
    1.9067    2.1335    0.0000 H   0  0  0  0  0  0  0  0  0  0  0  0
    2.1272    1.0864    0.0000 H   0  0  0  0  0  0  0  0  0  0  0  0
    2.2972    0.2793    0.0000 H   0  0  0  0  0  0  0  0  0  0  0  0
    1.5008   -0.4352    0.0000 H   0  0  0  0  0  0  0  0  0  0  0  0
   -1.1915   -1.5023    0.0000 H   0  0  0  0  0  0  0  0  0  0  0  0
   -0.3305   -2.1383    0.0000 H   0  0  0  0  0  0  0  0  0  0  0  0
    0.2720   -2.6265    0.0000 H   0  0  0  0  0  0  0  0  0  0  0  0
    1.2553   -2.2971    0.0000 H   0  0  0  0  0  0  0  0  0  0  0  0
    3.4763   -0.5297    0.0000 H   0  0  0  0  0  0  0  0  0  0  0  0
    3.3497   -1.4012    0.0000 H   0  0  0  0  0  0  0  0  0  0  0  0
    1.4741   -3.0862    0.0000 H   0  0  0  0  0  0  0  0  0  0  0  0
    2.5720   -2.7848    0.0000 H   0  0  0  0  0  0  0  0  0  0  0  0
    2.2989   -2.3707    0.0000 H   0  0  0  0  0  0  0  0  0  0  0  0
    3.0321   -1.8849    0.0000 H   0  0  0  0  0  0  0  0  0  0  0  0
    4.1016   -2.2910    0.0000 H   0  0  0  0  0  0  0  0  0  0  0  0
    4.5643   -0.4964    0.0000 H   0  0  0  0  0  0  0  0  0  0  0  0
    4.8510   -1.5273    0.0000 H   0  0  0  0  0  0  0  0  0  0  0  0
    0.7454    1.7047    0.0000 H   0  0  0  0  0  0  0  0  0  0  0  0
   -0.8346    0.7361    0.0000 H   0  0  0  0  0  0  0  0  0  0  0  0
   -0.3242    1.6765    0.0000 H   0  0  0  0  0  0  0  0  0  0  0  0
   -2.2390    3.4543    0.0000 H   0  0  0  0  0  0  0  0  0  0  0  0
   -3.6211    2.2144    0.0000 H   0  0  0  0  0  0  0  0  0  0  0  0
  2 13  2  0  0  0  0
  3  9  2  0  0  0  0
  4 30  1  0  0  0  0
  4 36  1  0  0  0  0
  5 28  1  0  0  0  0
  5 37  1  0  0  0  0
  6 26  2  0  0  0  0
  7 38  1  0  0  0  0
  8 29  1  0  0  0  0
  8 39  1  0  0  0  0
  9  8  1  0  0  0  0
 10  9  1  0  0  0  0
 10 11  1  0  0  0  0
 10 40  1  0  0  0  0
 10 41  1  0  0  0  0
 11 42  1  0  0  0  0
 11 43  1  0  0  0  0
 12 11  1  1  0  0  0
 12 25  1  0  0  0  0
 12 17  1  0  0  0  0
 13 12  1  0  0  0  0
 14 13  1  0  0  0  0
 14 15  1  0  0  0  0
 14 44  1  0  0  0  0
 14 45  1  0  0  0  0
 15 46  1  0  0  0  0
 15 47  1  0  0  0  0
 16 15  1  1  0  0  0
 16 21  1  0  0  0  0
 16 22  1  0  0  0  0
 16 17  1  0  0  0  0
 17 18  1  0  0  0  0
 17 33  1  1  0  0  0
 18  1  1  0  0  0  0
 18 19  1  0  0  0  0
 18 34  1  6  0  0  0
 19 48  1  0  0  0  0
 19 49  1  0  0  0  0
 20 19  1  0  0  0  0
 20 23  1  0  0  0  0
 20 35  1  6  0  0  0
 21 20  1  0  0  0  0
 21 50  1  0  0  0  0
 21 51  1  0  0  0  0
 22 23  1  0  0  0  0
 22 52  1  0  0  0  0
 22 53  1  0  0  0  0
 23  1  1  0  0  0  0
 23 24  1  1  0  0  0
 24 54  1  0  0  0  0
 24 55  1  0  0  0  0
 24 56  1  0  0  0  0
 25 57  1  0  0  0  0
 25 58  1  0  0  0  0
 25 59  1  0  0  0  0
 26  7  1  0  0  0  0
 27 26  1  0  0  0  0
 27 32  1  0  0  0  0
 28 27  2  0  0  0  0
 29 28  1  0  0  0  0
 29 30  2  0  0  0  0
 30 31  1  0  0  0  0
 31 32  2  0  0  0  0
 31 60  1  0  0  0  0
 32 61  1  0  0  0  0
M  END
>  <DRUGBANK_ID>
DB08366

>  <COMMON_NAME>
3-({3-[(1S,4aS,6S,7S,9S,9aR)-1,6-dimethyl-2-oxodecahydro-6,9-epoxy-4a,7-methanobenzo[7]annulen-1-yl]propanoyl}amino)-2,4-dihydroxybenzoic acid

$$$$
