TRU
 OpenBabel10282417072D

 28 29  0  0  0  0  0  0  0  0999 V2000
   -0.7887   -0.6630    0.0000 S   0  0  0  0  0  0  0  0  0  0  0  0
   -1.3190   -1.2950    0.0000 O   0  0  0  0  0  0  0  0  0  0  0  0
   -0.2584   -1.2950    0.0000 O   0  0  0  0  0  0  0  0  0  0  0  0
   -1.5031   -0.2505    0.0000 N   0  0  0  0  0  0  0  0  0  0  0  0
   -1.5031    0.5745    0.0000 C   0  0  2  0  0  0  0  0  0  0  0  0
   -2.2176    0.9870    0.0000 C   0  0  0  0  0  0  0  0  0  0  0  0
   -2.9321    0.5745    0.0000 Cl  0  0  0  0  0  0  0  0  0  0  0  0
   -2.2176    1.8120    0.0000 Cl  0  0  0  0  0  0  0  0  0  0  0  0
   -0.7887    0.9870    0.0000 N   0  0  0  0  0  0  0  0  0  0  0  0
   -0.0742    0.5745    0.0000 C   0  0  0  0  0  0  0  0  0  0  0  0
    0.6403    0.9870    0.0000 C   0  0  0  0  0  0  0  0  0  0  0  0
    1.3548    0.5745    0.0000 C   0  0  0  0  0  0  0  0  0  0  0  0
    2.0692    0.9870    0.0000 Cl  0  0  0  0  0  0  0  0  0  0  0  0
    1.3548   -0.2505    0.0000 C   0  0  0  0  0  0  0  0  0  0  0  0
    2.0692   -0.6630    0.0000 S   0  0  0  0  0  0  0  0  0  0  0  0
    2.7837   -1.0755    0.0000 N   0  0  0  0  0  0  0  0  0  0  0  0
    1.6567   -1.3775    0.0000 O   0  0  0  0  0  0  0  0  0  0  0  0
    2.4817    0.0515    0.0000 O   0  0  0  0  0  0  0  0  0  0  0  0
    0.6403   -0.6630    0.0000 C   0  0  0  0  0  0  0  0  0  0  0  0
   -0.0742   -0.2505    0.0000 C   0  0  0  0  0  0  0  0  0  0  0  0
   -1.8785    0.1272    0.0000 H   0  0  0  0  0  0  0  0  0  0  0  0
   -2.3865   -0.7605    0.0000 H   0  0  0  0  0  0  0  0  0  0  0  0
   -3.1442    1.5220    0.0000 H   0  0  0  0  0  0  0  0  0  0  0  0
   -0.7887    1.9715    0.0000 H   0  0  0  0  0  0  0  0  0  0  0  0
    0.6403    2.0190    0.0000 H   0  0  0  0  0  0  0  0  0  0  0  0
    2.7837   -2.0955    0.0000 H   0  0  0  0  0  0  0  0  0  0  0  0
    3.6670   -0.5655    0.0000 H   0  0  0  0  0  0  0  0  0  0  0  0
    0.6403   -1.6950    0.0000 H   0  0  0  0  0  0  0  0  0  0  0  0
  1  2  2  0  0  0  0
  1  3  2  0  0  0  0
  1  4  1  0  0  0  0
  1 20  1  0  0  0  0
  4  5  1  0  0  0  0
  4 22  1  0  0  0  0
  5  6  1  0  0  0  0
  5  9  1  0  0  0  0
  5 21  1  1  0  0  0
  6  7  1  0  0  0  0
  6  8  1  0  0  0  0
  6 23  1  0  0  0  0
  9 10  1  0  0  0  0
  9 24  1  0  0  0  0
 10 11  2  0  0  0  0
 10 20  1  0  0  0  0
 11 12  1  0  0  0  0
 11 25  1  0  0  0  0
 12 13  1  0  0  0  0
 12 14  2  0  0  0  0
 14 15  1  0  0  0  0
 14 19  1  0  0  0  0
 15 16  1  0  0  0  0
 15 17  2  0  0  0  0
 15 18  2  0  0  0  0
 16 26  1  0  0  0  0
 16 27  1  0  0  0  0
 19 20  2  0  0  0  0
 19 28  1  0  0  0  0
M  END
>  <DRUGBANK_ID>
DB08645

>  <COMMON_NAME>
6-CHLORO-3-(DICHLOROMETHYL)-3,4-DIHYDRO-2H-1,2,4-BENZOTHIADIAZINE-7-SULFONAMIDE 1,1-DIOXIDE

$$$$
