
 OpenBabel10282417072D

 38 39  0  0  0  0  0  0  0  0999 V2000
   -2.0625   -1.7605    0.0000 C   0  0  0  0  0  0  0  0  0  0  0  0
    2.0625   -3.1895    0.0000 C   0  0  0  0  0  0  0  0  0  0  0  0
    2.8579    0.8250    0.0000 C   0  0  0  0  0  0  0  0  0  0  0  0
   -1.2375   -1.7605    0.0000 C   0  0  0  0  0  0  0  0  0  0  0  0
    1.2375   -3.1895    0.0000 C   0  0  0  0  0  0  0  0  0  0  0  0
    0.7145   -0.4125    0.0000 C   0  0  0  0  0  0  0  0  0  0  0  0
    1.4289    0.0000    0.0000 C   0  0  0  0  0  0  0  0  0  0  0  0
    1.4289   -1.6500    0.0000 C   0  0  0  0  0  0  0  0  0  0  0  0
    2.8579    0.0000    0.0000 C   0  0  0  0  0  0  0  0  0  0  0  0
    0.7145   -1.2375    0.0000 C   0  0  0  0  0  0  0  0  0  0  0  0
    2.1434   -0.4125    0.0000 C   0  0  0  0  0  0  0  0  0  0  0  0
    2.1434   -1.2375    0.0000 C   0  0  0  0  0  0  0  0  0  0  0  0
    3.5724   -0.4125    0.0000 C   0  0  0  0  0  0  0  0  0  0  0  0
    3.5724   -1.2375    0.0000 C   0  0  0  0  0  0  0  0  0  0  0  0
    4.2868   -0.0000    0.0000 Cl  0  0  0  0  0  0  0  0  0  0  0  0
    4.2868   -1.6500    0.0000 O   0  0  0  0  0  0  0  0  0  0  0  0
   -0.8250   -2.4750    0.0000 O   0  0  0  0  0  0  0  0  0  0  0  0
    0.8250   -2.4750    0.0000 O   0  0  0  0  0  0  0  0  0  0  0  0
    2.8579   -1.6500    0.0000 O   0  0  0  0  0  0  0  0  0  0  0  0
    0.0000   -1.6500    0.0000 O   0  0  0  0  0  0  0  0  0  0  0  0
    0.0000   -2.4750    0.0000 P   0  0  0  0  0  0  0  0  0  0  0  0
    0.0000   -3.3000    0.0000 S   0  0  0  0  0  0  0  0  0  0  0  0
   -2.5975   -0.8339    0.0000 H   0  0  0  0  0  0  0  0  0  0  0  0
   -2.5975   -2.6871    0.0000 H   0  0  0  0  0  0  0  0  0  0  0  0
   -3.1325   -1.7605    0.0000 H   0  0  0  0  0  0  0  0  0  0  0  0
    2.5975   -4.1161    0.0000 H   0  0  0  0  0  0  0  0  0  0  0  0
    2.5975   -2.2629    0.0000 H   0  0  0  0  0  0  0  0  0  0  0  0
    3.1325   -3.1895    0.0000 H   0  0  0  0  0  0  0  0  0  0  0  0
    3.7845    1.3600    0.0000 H   0  0  0  0  0  0  0  0  0  0  0  0
    1.9313    1.3600    0.0000 H   0  0  0  0  0  0  0  0  0  0  0  0
    2.8579    1.8950    0.0000 H   0  0  0  0  0  0  0  0  0  0  0  0
   -0.7025   -0.8339    0.0000 H   0  0  0  0  0  0  0  0  0  0  0  0
   -0.1675   -1.7605    0.0000 H   0  0  0  0  0  0  0  0  0  0  0  0
    0.7025   -4.1161    0.0000 H   0  0  0  0  0  0  0  0  0  0  0  0
    0.1675   -3.1895    0.0000 H   0  0  0  0  0  0  0  0  0  0  0  0
   -0.1792    0.1035    0.0000 H   0  0  0  0  0  0  0  0  0  0  0  0
    1.4289    1.0320    0.0000 H   0  0  0  0  0  0  0  0  0  0  0  0
    1.4289   -2.6820    0.0000 H   0  0  0  0  0  0  0  0  0  0  0  0
  1 23  1  0  0  0  0
  1 24  1  0  0  0  0
  1 25  1  0  0  0  0
  2 26  1  0  0  0  0
  2 27  1  0  0  0  0
  2 28  1  0  0  0  0
  3 29  1  0  0  0  0
  3 30  1  0  0  0  0
  3 31  1  0  0  0  0
  4  1  1  0  0  0  0
  4 32  1  0  0  0  0
  4 33  1  0  0  0  0
  5  2  1  0  0  0  0
  5 34  1  0  0  0  0
  5 35  1  0  0  0  0
  6 36  1  0  0  0  0
  7  6  2  0  0  0  0
  7 37  1  0  0  0  0
  8 38  1  0  0  0  0
  9  3  1  0  0  0  0
 10  6  1  0  0  0  0
 10  8  2  0  0  0  0
 11  7  1  0  0  0  0
 11  9  1  0  0  0  0
 12  8  1  0  0  0  0
 12 11  2  0  0  0  0
 13  9  2  0  0  0  0
 14 13  1  0  0  0  0
 15 13  1  0  0  0  0
 16 14  2  0  0  0  0
 17  4  1  0  0  0  0
 18  5  1  0  0  0  0
 19 12  1  0  0  0  0
 19 14  1  0  0  0  0
 20 10  1  0  0  0  0
 21 17  1  0  0  0  0
 21 18  1  0  0  0  0
 21 20  1  0  0  0  0
 22 21  2  0  0  0  0
M  END
>  <DRUGBANK_ID>
DB11390

>  <COMMON_NAME>
Coumaphos

>  <CAS_NUMBER>
56-72-4

>  <UNII>
L08SZ5Z5JC

>  <SYNONYMS>
3-Chloro-4-methyl-7-coumarinyl diethyl phosphorothioate; 3-Chloro-4-methyl-7-hydroxycoumarin diethyl thiophosphoric acid ester; 3-Chloro-7-diethoxyphosphinothioyloxy-4-methylcoumarin; 3-Chloro-7-hydroxy-4-methyl-coumarin O,O-diethyl phosphorothioate; Coumafos; Coumaphos; O-(3-chloro-4-methyl-2-oxo-2H-chromen-7-yl) O,O-diethyl thiophosphate; O,O-Diethyl 3-chloro-4-methyl-7-umbelliferone thiophosphate; O,O-Diethyl O-(3-chloro-4-methyl-2-oxo-2H-1-benzopyran-7-yl)phosphorothioate; Phosphorothioic acid, O-(3-chloro-4-methyl-2-oxo-2H-1-benzopyran-7-yl) O,O-diethyl ester

$$$$
