
 OpenBabel10282417072D

 73 32  0  0  0  0  0  0  0  0999 V2000
    0.4125    0.0000    0.0000 N   0  3  0  0  0  0  0  0  0  0  0  0
    3.5946    0.0000    0.0000 N   0  3  0  0  0  0  0  0  0  0  0  0
    6.7767    0.0000    0.0000 N   0  3  0  0  0  0  0  0  0  0  0  0
    9.9589    0.0000    0.0000 N   0  3  0  0  0  0  0  0  0  0  0  0
   13.1410    0.0000    0.0000 N   0  3  0  0  0  0  0  0  0  0  0  0
   16.3232    0.0000    0.0000 N   0  3  0  0  0  0  0  0  0  0  0  0
    0.0000   -1.6500    0.0000 O   0  0  0  0  0  0  0  0  0  0  0  0
    2.3571   -1.6500    0.0000 O   0  0  0  0  0  0  0  0  0  0  0  0
    4.7142   -1.6500    0.0000 O   0  0  0  0  0  0  0  0  0  0  0  0
    7.0714   -1.6500    0.0000 O   0  0  0  0  0  0  0  0  0  0  0  0
   -0.4125    0.0000    0.0000 O   0  6  0  0  0  0  0  0  0  0  0  0
    2.7696    0.0000    0.0000 O   0  6  0  0  0  0  0  0  0  0  0  0
    5.9517    0.0000    0.0000 O   0  6  0  0  0  0  0  0  0  0  0  0
    9.1339    0.0000    0.0000 O   0  6  0  0  0  0  0  0  0  0  0  0
   12.3160    0.0000    0.0000 O   0  6  0  0  0  0  0  0  0  0  0  0
   15.4982    0.0000    0.0000 O   0  6  0  0  0  0  0  0  0  0  0  0
   10.3714   -1.6500    0.0000 O   0  6  0  0  0  0  0  0  0  0  0  0
   13.6714   -1.6500    0.0000 O   0  6  0  0  0  0  0  0  0  0  0  0
    0.4125   -3.3000    0.0000 O   0  6  0  0  0  0  0  0  0  0  0  0
    3.7125   -3.3000    0.0000 O   0  6  0  0  0  0  0  0  0  0  0  0
    7.0125   -3.3000    0.0000 O   0  6  0  0  0  0  0  0  0  0  0  0
   10.3125   -3.3000    0.0000 O   0  6  0  0  0  0  0  0  0  0  0  0
   13.6125   -3.3000    0.0000 O   0  6  0  0  0  0  0  0  0  0  0  0
   15.9696   -3.3000    0.0000 O   0  6  0  0  0  0  0  0  0  0  0  0
    0.0000   -4.9500    0.0000 O   0  6  0  0  0  0  0  0  0  0  0  0
    1.1196   -4.9500    0.0000 O   0  6  0  0  0  0  0  0  0  0  0  0
    2.2392   -4.9500    0.0000 O   0  6  0  0  0  0  0  0  0  0  0  0
    3.3589   -4.9500    0.0000 O   0  6  0  0  0  0  0  0  0  0  0  0
    4.4785   -4.9500    0.0000 O   0  6  0  0  0  0  0  0  0  0  0  0
    5.5982   -4.9500    0.0000 O   0  6  0  0  0  0  0  0  0  0  0  0
    0.0000   -6.6000    0.0000 O   0  6  0  0  0  0  0  0  0  0  0  0
    1.1196   -6.6000    0.0000 O   0  6  0  0  0  0  0  0  0  0  0  0
    2.2392   -6.6000    0.0000 O   0  6  0  0  0  0  0  0  0  0  0  0
    3.3589   -6.6000    0.0000 O   0  6  0  0  0  0  0  0  0  0  0  0
    9.5464   -1.6500    0.0000 Mo  0  0  0  0  0  0  0  0  0  0  0  0
   12.8464   -1.6500    0.0000 Mo  0  0  0  0  0  0  0  0  0  0  0  0
   -0.4125   -3.3000    0.0000 Mo  0  0  0  0  0  0  0  0  0  0  0  0
    2.8875   -3.3000    0.0000 Mo  0  0  0  0  0  0  0  0  0  0  0  0
    6.1875   -3.3000    0.0000 Mo  0  0  0  0  0  0  0  0  0  0  0  0
    9.4875   -3.3000    0.0000 Mo  0  0  0  0  0  0  0  0  0  0  0  0
   12.7875   -3.3000    0.0000 Mo  0  0  0  0  0  0  0  0  0  0  0  0
    1.4325    0.0000    0.0000 H   0  0  0  0  0  0  0  0  0  0  0  0
   -0.0975    0.8833    0.0000 H   0  0  0  0  0  0  0  0  0  0  0  0
   -0.0975   -0.8833    0.0000 H   0  0  0  0  0  0  0  0  0  0  0  0
   -0.6075   -0.0000    0.0000 H   0  0  0  0  0  0  0  0  0  0  0  0
    4.6146    0.0000    0.0000 H   0  0  0  0  0  0  0  0  0  0  0  0
    3.0846    0.8833    0.0000 H   0  0  0  0  0  0  0  0  0  0  0  0
    3.0846   -0.8833    0.0000 H   0  0  0  0  0  0  0  0  0  0  0  0
    2.5746   -0.0000    0.0000 H   0  0  0  0  0  0  0  0  0  0  0  0
    7.7967    0.0000    0.0000 H   0  0  0  0  0  0  0  0  0  0  0  0
    6.2667    0.8833    0.0000 H   0  0  0  0  0  0  0  0  0  0  0  0
    6.2667   -0.8833    0.0000 H   0  0  0  0  0  0  0  0  0  0  0  0
    5.7567    0.0000    0.0000 H   0  0  0  0  0  0  0  0  0  0  0  0
   10.9789    0.0000    0.0000 H   0  0  0  0  0  0  0  0  0  0  0  0
    9.4489    0.8833    0.0000 H   0  0  0  0  0  0  0  0  0  0  0  0
    9.4489   -0.8833    0.0000 H   0  0  0  0  0  0  0  0  0  0  0  0
    8.9389    0.0000    0.0000 H   0  0  0  0  0  0  0  0  0  0  0  0
   14.1610    0.0000    0.0000 H   0  0  0  0  0  0  0  0  0  0  0  0
   12.6310    0.8833    0.0000 H   0  0  0  0  0  0  0  0  0  0  0  0
   12.6310   -0.8833    0.0000 H   0  0  0  0  0  0  0  0  0  0  0  0
   12.1210    0.0000    0.0000 H   0  0  0  0  0  0  0  0  0  0  0  0
   17.3432    0.0000    0.0000 H   0  0  0  0  0  0  0  0  0  0  0  0
   15.8132    0.8833    0.0000 H   0  0  0  0  0  0  0  0  0  0  0  0
   15.8132   -0.8833    0.0000 H   0  0  0  0  0  0  0  0  0  0  0  0
   15.3032    0.0000    0.0000 H   0  0  0  0  0  0  0  0  0  0  0  0
    0.9700   -1.6500    0.0000 H   0  0  0  0  0  0  0  0  0  0  0  0
   -0.4850   -0.8100    0.0000 H   0  0  0  0  0  0  0  0  0  0  0  0
    3.3271   -1.6500    0.0000 H   0  0  0  0  0  0  0  0  0  0  0  0
    1.8721   -0.8100    0.0000 H   0  0  0  0  0  0  0  0  0  0  0  0
    5.6842   -1.6500    0.0000 H   0  0  0  0  0  0  0  0  0  0  0  0
    4.2292   -0.8100    0.0000 H   0  0  0  0  0  0  0  0  0  0  0  0
    8.0414   -1.6500    0.0000 H   0  0  0  0  0  0  0  0  0  0  0  0
    6.5864   -0.8100    0.0000 H   0  0  0  0  0  0  0  0  0  0  0  0
  1 42  1  0  0  0  0
  1 43  1  0  0  0  0
  1 44  1  0  0  0  0
  1 45  1  0  0  0  0
  2 46  1  0  0  0  0
  2 47  1  0  0  0  0
  2 48  1  0  0  0  0
  2 49  1  0  0  0  0
  3 50  1  0  0  0  0
  3 51  1  0  0  0  0
  3 52  1  0  0  0  0
  3 53  1  0  0  0  0
  4 54  1  0  0  0  0
  4 55  1  0  0  0  0
  4 56  1  0  0  0  0
  4 57  1  0  0  0  0
  5 58  1  0  0  0  0
  5 59  1  0  0  0  0
  5 60  1  0  0  0  0
  5 61  1  0  0  0  0
  6 62  1  0  0  0  0
  6 63  1  0  0  0  0
  6 64  1  0  0  0  0
  6 65  1  0  0  0  0
  7 66  1  0  0  0  0
  7 67  1  0  0  0  0
  8 68  1  0  0  0  0
  8 69  1  0  0  0  0
  9 70  1  0  0  0  0
  9 71  1  0  0  0  0
 10 72  1  0  0  0  0
 10 73  1  0  0  0  0
M  CHG  8   1   1   2   1   3   1   4   1   5   1   6   1  11  -2  12  -2
M  CHG  8  13  -2  14  -2  15  -2  16  -2  17  -2  18  -2  19  -2  20  -2
M  CHG  8  21  -2  22  -2  23  -2  24  -2  25  -2  26  -2  27  -2  28  -2
M  CHG  8  29  -2  30  -2  31  -2  32  -2  33  -2  34  -2  35   6  36   6
M  CHG  5  37   6  38   6  39   6  40   6  41   6
M  END
>  <DRUGBANK_ID>
DB11128

>  <COMMON_NAME>
Ammonium molybdate

>  <CAS_NUMBER>
12054-85-2

>  <UNII>
OGI154X474

>  <SYNONYMS>
Ammonium molybdate; Ammonium molybdate tetrahydrate; Ammonium molybdate(VI) tetrahydrate; Ammonium paramolybdate tetrahydrate; Hexaammonium heptamolybdate tetrahydrate; Hexaammonium molybdate tetrahydrate; Molybdenum (as ammonium molybdate)

$$$$
