
 OpenBabel10282417072D

 46 48  0  0  0  0  0  0  0  0999 V2000
    4.2868    4.1250    0.0000 C   0  0  0  0  0  0  0  0  0  0  0  0
    4.2868    4.9500    0.0000 C   0  0  0  0  0  0  0  0  0  0  0  0
   -0.7145    2.8875    0.0000 C   0  0  0  0  0  0  0  0  0  0  0  0
   -1.4289    2.4750    0.0000 C   0  0  0  0  0  0  0  0  0  0  0  0
    3.5724    3.7125    0.0000 C   0  0  0  0  0  0  0  0  0  0  0  0
   -3.5724    2.8875    0.0000 C   0  0  0  0  0  0  0  0  0  0  0  0
   -2.8579    1.6500    0.0000 C   0  0  0  0  0  0  0  0  0  0  0  0
   -4.2868    2.4750    0.0000 C   0  0  0  0  0  0  0  0  0  0  0  0
   -3.5724    1.2375    0.0000 C   0  0  0  0  0  0  0  0  0  0  0  0
    3.5724    5.3625    0.0000 C   0  0  0  0  0  0  0  0  0  0  0  0
    0.0000    2.4750    0.0000 C   0  0  0  0  0  0  0  0  0  0  0  0
    1.4289    2.4750    0.0000 C   0  0  0  0  0  0  0  0  0  0  0  0
    0.7145    3.7125    0.0000 C   0  0  0  0  0  0  0  0  0  0  0  0
    2.1434    2.8875    0.0000 C   0  0  0  0  0  0  0  0  0  0  0  0
    1.4289    4.1250    0.0000 C   0  0  0  0  0  0  0  0  0  0  0  0
   -2.8579    2.4750    0.0000 C   0  0  0  0  0  0  0  0  0  0  0  0
   -4.2868    1.6500    0.0000 C   0  0  0  0  0  0  0  0  0  0  0  0
   -2.1434    2.8875    0.0000 C   0  0  0  0  0  0  0  0  0  0  0  0
    2.8579    4.1250    0.0000 C   0  0  0  0  0  0  0  0  0  0  0  0
   -5.0013    1.2375    0.0000 F   0  0  0  0  0  0  0  0  0  0  0  0
    2.8579    4.9500    0.0000 N   0  0  0  0  0  0  0  0  0  0  0  0
    0.7145    2.8875    0.0000 N   0  0  0  0  0  0  0  0  0  0  0  0
    2.1434    3.7125    0.0000 N   0  0  0  0  0  0  0  0  0  0  0  0
   -2.1434    3.7125    0.0000 O   0  0  0  0  0  0  0  0  0  0  0  0
    5.1805    3.6090    0.0000 H   0  0  0  0  0  0  0  0  0  0  0  0
    5.1805    5.4660    0.0000 H   0  0  0  0  0  0  0  0  0  0  0  0
   -0.7145    3.9575    0.0000 H   0  0  0  0  0  0  0  0  0  0  0  0
    0.2121    3.4225    0.0000 H   0  0  0  0  0  0  0  0  0  0  0  0
   -1.4289    1.4050    0.0000 H   0  0  0  0  0  0  0  0  0  0  0  0
   -2.3555    1.9400    0.0000 H   0  0  0  0  0  0  0  0  0  0  0  0
    3.5724    2.6805    0.0000 H   0  0  0  0  0  0  0  0  0  0  0  0
   -3.5724    3.9195    0.0000 H   0  0  0  0  0  0  0  0  0  0  0  0
   -1.9642    1.1340    0.0000 H   0  0  0  0  0  0  0  0  0  0  0  0
   -5.1805    2.9910    0.0000 H   0  0  0  0  0  0  0  0  0  0  0  0
   -3.5724    0.2055    0.0000 H   0  0  0  0  0  0  0  0  0  0  0  0
    3.5724    6.3945    0.0000 H   0  0  0  0  0  0  0  0  0  0  0  0
    0.0000    1.4050    0.0000 H   0  0  0  0  0  0  0  0  0  0  0  0
    0.9266    1.9400    0.0000 H   0  0  0  0  0  0  0  0  0  0  0  0
    1.4289    1.4050    0.0000 H   0  0  0  0  0  0  0  0  0  0  0  0
    0.5022    1.9400    0.0000 H   0  0  0  0  0  0  0  0  0  0  0  0
   -0.2122    4.2475    0.0000 H   0  0  0  0  0  0  0  0  0  0  0  0
   -0.2121    3.1775    0.0000 H   0  0  0  0  0  0  0  0  0  0  0  0
    3.0700    2.3525    0.0000 H   0  0  0  0  0  0  0  0  0  0  0  0
    3.0700    3.4225    0.0000 H   0  0  0  0  0  0  0  0  0  0  0  0
    1.4289    5.1950    0.0000 H   0  0  0  0  0  0  0  0  0  0  0  0
    2.3555    4.6600    0.0000 H   0  0  0  0  0  0  0  0  0  0  0  0
  1 25  1  0  0  0  0
  2  1  2  0  0  0  0
  2 26  1  0  0  0  0
  3 27  1  0  0  0  0
  3 28  1  0  0  0  0
  4  3  1  0  0  0  0
  4 29  1  0  0  0  0
  4 30  1  0  0  0  0
  5  1  1  0  0  0  0
  5 31  1  0  0  0  0
  6 32  1  0  0  0  0
  7 33  1  0  0  0  0
  8  6  1  0  0  0  0
  8 34  1  0  0  0  0
  9  7  2  0  0  0  0
  9 35  1  0  0  0  0
 10  2  1  0  0  0  0
 10 36  1  0  0  0  0
 11  3  1  0  0  0  0
 11 37  1  0  0  0  0
 11 38  1  0  0  0  0
 12 39  1  0  0  0  0
 12 40  1  0  0  0  0
 13 41  1  0  0  0  0
 13 42  1  0  0  0  0
 14 12  1  0  0  0  0
 14 43  1  0  0  0  0
 14 44  1  0  0  0  0
 15 13  1  0  0  0  0
 15 45  1  0  0  0  0
 15 46  1  0  0  0  0
 16  6  2  0  0  0  0
 16  7  1  0  0  0  0
 17  8  2  0  0  0  0
 17  9  1  0  0  0  0
 18  4  1  0  0  0  0
 18 16  1  0  0  0  0
 19  5  2  0  0  0  0
 20 17  1  0  0  0  0
 21 10  2  0  0  0  0
 21 19  1  0  0  0  0
 22 11  1  0  0  0  0
 22 12  1  0  0  0  0
 22 13  1  0  0  0  0
 23 14  1  0  0  0  0
 23 15  1  0  0  0  0
 23 19  1  0  0  0  0
 24 18  2  0  0  0  0
M  END
>  <DRUGBANK_ID>
DB11376

>  <COMMON_NAME>
Azaperone

>  <CAS_NUMBER>
1649-18-9

>  <UNII>
19BV78AK7W

>  <SYNONYMS>
1-(3-(4-Fluorobenzoyl)propyl)-4-(2-pyridyl)piperazine; 1-(4-Fluorophenyl)-4-[4-(2-pyridinyl)-1-piperazinyl]-1-butanone; 4'-Fluoro-4-(4-(2-pyridyl)-1-piperazinyl)butyrophenone; Azaperon; Azaperona; Azaperone; Azaperonum

$$$$
