
 OpenBabel10282417072D

128127  0  0  0  0  0  0  0  0999 V2000
    2.0442    3.4536    0.0000 C   0  0  0  0  0  0  0  0  0  0  0  0
    1.3337    3.0448    0.0000 C   0  0  1  0  0  0  0  0  0  0  0  0
    0.6237    3.4536    0.0000 C   0  0  0  0  0  0  0  0  0  0  0  0
    2.7542    3.0448    0.0000 O   0  0  0  0  0  0  0  0  0  0  0  0
    1.3334    2.2198    0.0000 O   0  0  0  0  0  0  0  0  0  0  0  0
   -0.7939    3.4693    0.0000 C   0  0  0  0  0  0  0  0  0  0  0  0
   -1.5014    3.0448    0.0000 C   0  0  0  0  0  0  0  0  0  0  0  0
   -2.2088    3.4693    0.0000 C   0  0  0  0  0  0  0  0  0  0  0  0
   -2.9163    3.0448    0.0000 C   0  0  0  0  0  0  0  0  0  0  0  0
   -3.6235    3.4693    0.0000 C   0  0  0  0  0  0  0  0  0  0  0  0
   -4.3309    3.0448    0.0000 C   0  0  0  0  0  0  0  0  0  0  0  0
   -5.0384    3.4693    0.0000 C   0  0  0  0  0  0  0  0  0  0  0  0
   -0.7939    4.2711    0.0000 O   0  0  0  0  0  0  0  0  0  0  0  0
   -0.0865    3.0448    0.0000 O   0  0  0  0  0  0  0  0  0  0  0  0
   -5.7598    3.0690    0.0000 C   0  0  0  0  0  0  0  0  0  0  0  0
   -5.7737    2.2439    0.0000 C   0  0  0  0  0  0  0  0  0  0  0  0
   -3.6374    1.7936    0.0000 C   0  0  0  0  0  0  0  0  0  0  0  0
   -4.3448    2.2181    0.0000 C   0  0  0  0  0  0  0  0  0  0  0  0
   -5.0740    1.8069    0.0000 C   0  0  0  0  0  0  0  0  0  0  0  0
   -7.1886    3.0690    0.0000 C   0  0  0  0  0  0  0  0  0  0  0  0
   -7.1886    2.2439    0.0000 C   0  0  0  0  0  0  0  0  0  0  0  0
   -6.4741    3.4814    0.0000 C   0  0  0  0  0  0  0  0  0  0  0  0
   -6.4741    1.8313    0.0000 C   0  0  0  0  0  0  0  0  0  0  0  0
    2.0615    1.8314    0.0000 C   0  0  0  0  0  0  0  0  0  0  0  0
    2.0615    1.0064    0.0000 C   0  0  0  0  0  0  0  0  0  0  0  0
    2.7893    0.6182    0.0000 C   0  0  0  0  0  0  0  0  0  0  0  0
    2.7893   -0.2068    0.0000 C   0  0  0  0  0  0  0  0  0  0  0  0
    3.5174   -0.5948    0.0000 C   0  0  0  0  0  0  0  0  0  0  0  0
    3.5172   -1.4198    0.0000 C   0  0  0  0  0  0  0  0  0  0  0  0
    4.2453   -1.8081    0.0000 C   0  0  0  0  0  0  0  0  0  0  0  0
    2.7490    2.2439    0.0000 O   0  0  0  0  0  0  0  0  0  0  0  0
    4.2732   -2.6327    0.0000 C   0  0  0  0  0  0  0  0  0  0  0  0
    3.5729   -3.0690    0.0000 C   0  0  0  0  0  0  0  0  0  0  0  0
    1.3594   -0.2555    0.0000 C   0  0  0  0  0  0  0  0  0  0  0  0
    2.0875   -0.6436    0.0000 C   0  0  0  0  0  0  0  0  0  0  0  0
    2.0875   -1.4688    0.0000 C   0  0  0  0  0  0  0  0  0  0  0  0
    2.8156   -1.8569    0.0000 C   0  0  0  0  0  0  0  0  0  0  0  0
    2.8380   -2.6939    0.0000 C   0  0  0  0  0  0  0  0  0  0  0  0
    5.0084   -3.8579    0.0000 C   0  0  0  0  0  0  0  0  0  0  0  0
    4.3008   -4.2823    0.0000 C   0  0  0  0  0  0  0  0  0  0  0  0
    4.9943   -3.0329    0.0000 C   0  0  0  0  0  0  0  0  0  0  0  0
    3.5794   -3.8819    0.0000 C   0  0  0  0  0  0  0  0  0  0  0  0
    3.4688    4.2823    0.0000 O   0  0  0  0  0  0  0  0  0  0  0  0
    6.3265    3.4574    0.0000 C   0  0  0  0  0  0  0  0  0  0  0  0
    4.8977    3.4574    0.0000 C   0  0  0  0  0  0  0  0  0  0  0  0
    5.6121    3.0449    0.0000 C   0  0  3  0  0  0  0  0  0  0  0  0
    4.1832    3.0449    0.0000 O   0  0  0  0  0  0  0  0  0  0  0  0
    3.4688    3.4573    0.0000 P   0  0  3  0  0  0  0  0  0  0  0  0
    3.4810    2.6323    0.0000 O   0  0  0  0  0  0  0  0  0  0  0  0
    7.1886    2.9446    0.0000 O   0  0  0  0  0  0  0  0  0  0  0  0
    5.6271    2.2079    0.0000 O   0  0  0  0  0  0  0  0  0  0  0  0
    2.0444    4.5236    0.0000 H   0  0  0  0  0  0  0  0  0  0  0  0
    1.1180    3.9894    0.0000 H   0  0  0  0  0  0  0  0  0  0  0  0
    2.2599    2.5089    0.0000 H   0  0  0  0  0  0  0  0  0  0  0  0
    0.6238    4.5236    0.0000 H   0  0  0  0  0  0  0  0  0  0  0  0
   -0.3026    3.9892    0.0000 H   0  0  0  0  0  0  0  0  0  0  0  0
   -1.5014    1.9748    0.0000 H   0  0  0  0  0  0  0  0  0  0  0  0
   -2.4325    2.5177    0.0000 H   0  0  0  0  0  0  0  0  0  0  0  0
   -2.2088    4.5393    0.0000 H   0  0  0  0  0  0  0  0  0  0  0  0
   -3.1399    3.9965    0.0000 H   0  0  0  0  0  0  0  0  0  0  0  0
   -2.9164    1.9748    0.0000 H   0  0  0  0  0  0  0  0  0  0  0  0
   -3.8475    2.5177    0.0000 H   0  0  0  0  0  0  0  0  0  0  0  0
   -3.6234    4.5393    0.0000 H   0  0  0  0  0  0  0  0  0  0  0  0
   -4.5546    3.9965    0.0000 H   0  0  0  0  0  0  0  0  0  0  0  0
   -4.3309    1.9748    0.0000 H   0  0  0  0  0  0  0  0  0  0  0  0
   -5.2620    2.5176    0.0000 H   0  0  0  0  0  0  0  0  0  0  0  0
   -5.0203    4.5391    0.0000 H   0  0  0  0  0  0  0  0  0  0  0  0
   -5.9558    4.0199    0.0000 H   0  0  0  0  0  0  0  0  0  0  0  0
   -5.7689    1.9990    0.0000 H   0  0  0  0  0  0  0  0  0  0  0  0
   -6.6887    2.5379    0.0000 H   0  0  0  0  0  0  0  0  0  0  0  0
   -5.7598    3.3138    0.0000 H   0  0  0  0  0  0  0  0  0  0  0  0
   -6.6992    2.7808    0.0000 H   0  0  0  0  0  0  0  0  0  0  0  0
   -3.6555    0.7238    0.0000 H   0  0  0  0  0  0  0  0  0  0  0  0
   -2.7019    2.3129    0.0000 H   0  0  0  0  0  0  0  0  0  0  0  0
   -2.7199    1.2430    0.0000 H   0  0  0  0  0  0  0  0  0  0  0  0
   -4.3303    3.2880    0.0000 H   0  0  0  0  0  0  0  0  0  0  0  0
   -5.2651    2.7640    0.0000 H   0  0  0  0  0  0  0  0  0  0  0  0
   -5.0980    0.7372    0.0000 H   0  0  0  0  0  0  0  0  0  0  0  0
   -6.0155    1.2986    0.0000 H   0  0  0  0  0  0  0  0  0  0  0  0
   -8.1152    3.6041    0.0000 H   0  0  0  0  0  0  0  0  0  0  0  0
   -7.1885    4.1390    0.0000 H   0  0  0  0  0  0  0  0  0  0  0  0
   -8.1153    1.7089    0.0000 H   0  0  0  0  0  0  0  0  0  0  0  0
   -7.1887    1.1739    0.0000 H   0  0  0  0  0  0  0  0  0  0  0  0
   -6.4740    4.5514    0.0000 H   0  0  0  0  0  0  0  0  0  0  0  0
   -5.5474    4.0164    0.0000 H   0  0  0  0  0  0  0  0  0  0  0  0
   -6.4695    0.7613    0.0000 H   0  0  0  0  0  0  0  0  0  0  0  0
   -5.5440    1.3024    0.0000 H   0  0  0  0  0  0  0  0  0  0  0  0
    1.1440    0.4559    0.0000 H   0  0  0  0  0  0  0  0  0  0  0  0
    2.0885   -0.0633    0.0000 H   0  0  0  0  0  0  0  0  0  0  0  0
    3.7068    1.1687    0.0000 H   0  0  0  0  0  0  0  0  0  0  0  0
    3.7204    0.0910    0.0000 H   0  0  0  0  0  0  0  0  0  0  0  0
    1.8719   -0.7575    0.0000 H   0  0  0  0  0  0  0  0  0  0  0  0
    2.8166   -1.2765    0.0000 H   0  0  0  0  0  0  0  0  0  0  0  0
    4.4349   -0.0442    0.0000 H   0  0  0  0  0  0  0  0  0  0  0  0
    4.4485   -1.1221    0.0000 H   0  0  0  0  0  0  0  0  0  0  0  0
    2.5996   -1.9702    0.0000 H   0  0  0  0  0  0  0  0  0  0  0  0
    3.5441   -2.4895    0.0000 H   0  0  0  0  0  0  0  0  0  0  0  0
    5.1534   -1.2421    0.0000 H   0  0  0  0  0  0  0  0  0  0  0  0
    5.1895   -2.3115    0.0000 H   0  0  0  0  0  0  0  0  0  0  0  0
    3.3604   -3.1910    0.0000 H   0  0  0  0  0  0  0  0  0  0  0  0
    4.2958   -3.7025    0.0000 H   0  0  0  0  0  0  0  0  0  0  0  0
    4.4832   -2.5066    0.0000 H   0  0  0  0  0  0  0  0  0  0  0  0
    4.5095   -3.5864    0.0000 H   0  0  0  0  0  0  0  0  0  0  0  0
    1.3232    0.8139    0.0000 H   0  0  0  0  0  0  0  0  0  0  0  0
    0.4514   -0.8216    0.0000 H   0  0  0  0  0  0  0  0  0  0  0  0
    0.4152    0.2478    0.0000 H   0  0  0  0  0  0  0  0  0  0  0  0
    3.0050   -0.0930    0.0000 H   0  0  0  0  0  0  0  0  0  0  0  0
    3.0186   -1.1707    0.0000 H   0  0  0  0  0  0  0  0  0  0  0  0
    1.1700   -2.0194    0.0000 H   0  0  0  0  0  0  0  0  0  0  0  0
    2.1147   -2.5385    0.0000 H   0  0  0  0  0  0  0  0  0  0  0  0
    3.7256   -1.2941    0.0000 H   0  0  0  0  0  0  0  0  0  0  0  0
    3.7571   -2.3652    0.0000 H   0  0  0  0  0  0  0  0  0  0  0  0
    1.9330   -3.2648    0.0000 H   0  0  0  0  0  0  0  0  0  0  0  0
    2.8866   -3.7628    0.0000 H   0  0  0  0  0  0  0  0  0  0  0  0
    5.9107   -4.3587    0.0000 H   0  0  0  0  0  0  0  0  0  0  0  0
    4.3188   -5.3521    0.0000 H   0  0  0  0  0  0  0  0  0  0  0  0
    3.3833   -4.8328    0.0000 H   0  0  0  0  0  0  0  0  0  0  0  0
    5.8791   -2.5018    0.0000 H   0  0  0  0  0  0  0  0  0  0  0  0
    2.6595   -4.4284    0.0000 H   0  0  0  0  0  0  0  0  0  0  0  0
    2.6473   -3.3564    0.0000 H   0  0  0  0  0  0  0  0  0  0  0  0
    6.3334    4.5274    0.0000 H   0  0  0  0  0  0  0  0  0  0  0  0
    7.2583    3.9833    0.0000 H   0  0  0  0  0  0  0  0  0  0  0  0
    4.8977    4.5274    0.0000 H   0  0  0  0  0  0  0  0  0  0  0  0
    3.9711    3.9924    0.0000 H   0  0  0  0  0  0  0  0  0  0  0  0
    5.6121    4.1149    0.0000 H   0  0  0  0  0  0  0  0  0  0  0  0
    2.6482    2.1349    0.0000 H   0  0  0  0  0  0  0  0  0  0  0  0
    7.1760    1.9747    0.0000 H   0  0  0  0  0  0  0  0  0  0  0  0
    4.7959    1.7079    0.0000 H   0  0  0  0  0  0  0  0  0  0  0  0
  1  2  1  0  0  0  0
  1 52  1  0  0  0  0
  1 53  1  0  0  0  0
  2  3  1  0  0  0  0
  2  5  1  0  0  0  0
  2 54  1  1  0  0  0
  3 14  1  0  0  0  0
  3 55  1  0  0  0  0
  3 56  1  0  0  0  0
  4  1  1  0  0  0  0
  4 48  1  0  0  0  0
  5 24  1  0  0  0  0
  7  6  1  0  0  0  0
  7 57  1  0  0  0  0
  7 58  1  0  0  0  0
  8  7  1  0  0  0  0
  8  9  1  0  0  0  0
  8 59  1  0  0  0  0
  8 60  1  0  0  0  0
  9 61  1  0  0  0  0
  9 62  1  0  0  0  0
 10  9  1  0  0  0  0
 10 11  1  0  0  0  0
 10 63  1  0  0  0  0
 10 64  1  0  0  0  0
 11 65  1  0  0  0  0
 11 66  1  0  0  0  0
 12 11  1  0  0  0  0
 12 15  1  0  0  0  0
 12 67  1  0  0  0  0
 12 68  1  0  0  0  0
 13  6  2  0  0  0  0
 14  6  1  0  0  0  0
 15 22  1  0  0  0  0
 15 69  1  0  0  0  0
 15 70  1  0  0  0  0
 16 23  1  0  0  0  0
 16 71  1  0  0  0  0
 16 72  1  0  0  0  0
 17 18  1  0  0  0  0
 17 73  1  0  0  0  0
 17 74  1  0  0  0  0
 17 75  1  0  0  0  0
 18 19  1  0  0  0  0
 18 76  1  0  0  0  0
 18 77  1  0  0  0  0
 19 16  1  0  0  0  0
 19 78  1  0  0  0  0
 19 79  1  0  0  0  0
 20 80  1  0  0  0  0
 20 81  1  0  0  0  0
 21 20  1  0  0  0  0
 21 82  1  0  0  0  0
 21 83  1  0  0  0  0
 22 20  1  0  0  0  0
 22 84  1  0  0  0  0
 22 85  1  0  0  0  0
 23 21  1  0  0  0  0
 23 86  1  0  0  0  0
 23 87  1  0  0  0  0
 25 24  1  0  0  0  0
 25 88  1  0  0  0  0
 25 89  1  0  0  0  0
 26 25  1  0  0  0  0
 26 27  1  0  0  0  0
 26 90  1  0  0  0  0
 26 91  1  0  0  0  0
 27 92  1  0  0  0  0
 27 93  1  0  0  0  0
 28 27  1  0  0  0  0
 28 29  1  0  0  0  0
 28 94  1  0  0  0  0
 28 95  1  0  0  0  0
 29 96  1  0  0  0  0
 29 97  1  0  0  0  0
 30 29  1  0  0  0  0
 30 32  1  0  0  0  0
 30 98  1  0  0  0  0
 30 99  1  0  0  0  0
 31 24  2  0  0  0  0
 32 41  1  0  0  0  0
 32100  1  0  0  0  0
 32101  1  0  0  0  0
 33 42  1  0  0  0  0
 33102  1  0  0  0  0
 33103  1  0  0  0  0
 34 35  1  0  0  0  0
 34104  1  0  0  0  0
 34105  1  0  0  0  0
 34106  1  0  0  0  0
 35 36  1  0  0  0  0
 35107  1  0  0  0  0
 35108  1  0  0  0  0
 36 37  1  0  0  0  0
 36109  1  0  0  0  0
 36110  1  0  0  0  0
 37 38  1  0  0  0  0
 37111  1  0  0  0  0
 37112  1  0  0  0  0
 38 33  1  0  0  0  0
 38113  1  0  0  0  0
 38114  1  0  0  0  0
 39115  1  0  0  0  0
 40 39  1  0  0  0  0
 40116  1  0  0  0  0
 40117  1  0  0  0  0
 41 39  2  0  0  0  0
 41118  1  0  0  0  0
 42 40  1  0  0  0  0
 42119  1  0  0  0  0
 42120  1  0  0  0  0
 43 48  2  0  0  0  0
 44 46  1  0  0  0  0
 44121  1  0  0  0  0
 44122  1  0  0  0  0
 45 46  1  0  0  0  0
 45 47  1  0  0  0  0
 45123  1  0  0  0  0
 45124  1  0  0  0  0
 46 51  1  0  0  0  0
 46125  1  0  0  0  0
 47 48  1  0  0  0  0
 48 49  1  0  0  0  0
 49126  1  0  0  0  0
 50 44  1  0  0  0  0
 50127  1  0  0  0  0
 51128  1  0  0  0  0
M  END
>  <DRUGBANK_ID>
DB11331

>  <SECONDARY_ACCESSION_NUMBERS>
DB14095

>  <COMMON_NAME>
1-Palmitoyl-2-oleoyl-sn-glycero-3-(phospho-rac-(1-glycerol))

>  <CAS_NUMBER>
185435-28-3

>  <UNII>
F72017VPR7

>  <SYNONYMS>
1-Palmitoyl-2-oleoyl-sn-glycero-3-(phospho-rac-(1-glycerol)); 1-Palmitoyl-2-oleoyl-sn-glycero-3-phosphatidylglycerol; 1-palmitoyl-2-oleoyl-sn-glycero-3-phosphoglycerol; l-Alpha-1-palmitoyl-2-oleoylglycerophosphoglycerol; Palmitoyloleoyl-phosphatidylglycerol; PG(16:0/18:1(9Z)); PG(16:0/18:1); POPG

$$$$
