
 OpenBabel10282417072D

 43 42  0  0  0  0  0  0  0  0999 V2000
   -0.7366   -1.4289    0.0000 C   0  0  0  0  0  0  0  0  0  0  0  0
   -1.5616   -1.4289    0.0000 C   0  0  0  0  0  0  0  0  0  0  0  0
   -1.9741   -2.1434    0.0000 C   0  0  0  0  0  0  0  0  0  0  0  0
   -2.7991   -2.1434    0.0000 C   0  0  0  0  0  0  0  0  0  0  0  0
   -3.2116   -1.4289    0.0000 C   0  0  0  0  0  0  0  0  0  0  0  0
   -2.7991   -0.7144    0.0000 C   0  0  0  0  0  0  0  0  0  0  0  0
   -1.9741   -0.7144    0.0000 C   0  0  0  0  0  0  0  0  0  0  0  0
   -1.5616    0.0000    0.0000 N   0  0  0  0  0  0  0  0  0  0  0  0
   -0.7366    0.0000    0.0000 C   0  0  0  0  0  0  0  0  0  0  0  0
   -0.3241   -0.7144    0.0000 O   0  0  0  0  0  0  0  0  0  0  0  0
   -0.3241    0.7144    0.0000 C   0  0  0  0  0  0  0  0  0  0  0  0
    0.5008    0.7144    0.0000 N   0  0  0  0  0  0  0  0  0  0  0  0
    0.9133    1.4289    0.0000 C   0  0  0  0  0  0  0  0  0  0  0  0
    0.5008    2.1434    0.0000 C   0  0  0  0  0  0  0  0  0  0  0  0
    0.9133    2.8578    0.0000 O   0  0  0  0  0  0  0  0  0  0  0  0
   -0.3241    2.1434    0.0000 O   0  0  0  0  0  0  0  0  0  0  0  0
    0.9133    0.0000    0.0000 C   0  0  0  0  0  0  0  0  0  0  0  0
    1.7383    0.0000    0.0000 C   0  0  0  0  0  0  0  0  0  0  0  0
    2.1508    0.7144    0.0000 O   0  0  0  0  0  0  0  0  0  0  0  0
    2.1508   -0.7144    0.0000 O   0  0  0  0  0  0  0  0  0  0  0  0
   -3.2116    0.0000    0.0000 C   0  0  0  0  0  0  0  0  0  0  0  0
   -4.0366   -1.4289    0.0000 Br  0  0  0  0  0  0  0  0  0  0  0  0
   -3.2116   -2.8578    0.0000 C   0  0  0  0  0  0  0  0  0  0  0  0
    4.0366   -0.2174    0.0000 Tc  0  0  0  0  0  0  0  0  0  0  0  0
   -0.2016   -2.3555    0.0000 H   0  0  0  0  0  0  0  0  0  0  0  0
   -0.2016   -0.5023    0.0000 H   0  0  0  0  0  0  0  0  0  0  0  0
    0.3334   -1.4289    0.0000 H   0  0  0  0  0  0  0  0  0  0  0  0
   -1.4581   -3.0371    0.0000 H   0  0  0  0  0  0  0  0  0  0  0  0
   -2.0538    0.8526    0.0000 H   0  0  0  0  0  0  0  0  0  0  0  0
   -0.8591    1.6411    0.0000 H   0  0  0  0  0  0  0  0  0  0  0  0
    0.2109    1.6410    0.0000 H   0  0  0  0  0  0  0  0  0  0  0  0
    1.9833    1.4289    0.0000 H   0  0  0  0  0  0  0  0  0  0  0  0
    1.4483    2.3555    0.0000 H   0  0  0  0  0  0  0  0  0  0  0  0
   -0.7926    2.9549    0.0000 H   0  0  0  0  0  0  0  0  0  0  0  0
    0.3783   -0.9267    0.0000 H   0  0  0  0  0  0  0  0  0  0  0  0
    1.4483   -0.9266    0.0000 H   0  0  0  0  0  0  0  0  0  0  0  0
    1.6823   -1.5259    0.0000 H   0  0  0  0  0  0  0  0  0  0  0  0
   -2.6766    0.9267    0.0000 H   0  0  0  0  0  0  0  0  0  0  0  0
   -4.2816   -0.0000    0.0000 H   0  0  0  0  0  0  0  0  0  0  0  0
   -3.7466    0.9266    0.0000 H   0  0  0  0  0  0  0  0  0  0  0  0
   -4.2816   -2.8578    0.0000 H   0  0  0  0  0  0  0  0  0  0  0  0
   -2.6766   -3.7845    0.0000 H   0  0  0  0  0  0  0  0  0  0  0  0
   -3.7466   -3.7844    0.0000 H   0  0  0  0  0  0  0  0  0  0  0  0
  1  2  1  0  0  0  0
  1 25  1  0  0  0  0
  1 26  1  0  0  0  0
  1 27  1  0  0  0  0
  2  3  2  0  0  0  0
  2  7  1  0  0  0  0
  3  4  1  0  0  0  0
  3 28  1  0  0  0  0
  4  5  2  0  0  0  0
  4 23  1  0  0  0  0
  5  6  1  0  0  0  0
  5 22  1  0  0  0  0
  6  7  2  0  0  0  0
  6 21  1  0  0  0  0
  7  8  1  0  0  0  0
  8  9  1  0  0  0  0
  8 29  1  0  0  0  0
  9 10  2  0  0  0  0
  9 11  1  0  0  0  0
 11 12  1  0  0  0  0
 11 30  1  0  0  0  0
 11 31  1  0  0  0  0
 12 13  1  0  0  0  0
 12 17  1  0  0  0  0
 13 14  1  0  0  0  0
 13 32  1  0  0  0  0
 13 33  1  0  0  0  0
 14 15  2  0  0  0  0
 14 16  1  0  0  0  0
 16 34  1  0  0  0  0
 17 18  1  0  0  0  0
 17 35  1  0  0  0  0
 17 36  1  0  0  0  0
 18 19  2  0  0  0  0
 18 20  1  0  0  0  0
 20 37  1  0  0  0  0
 21 38  1  0  0  0  0
 21 39  1  0  0  0  0
 21 40  1  0  0  0  0
 23 41  1  0  0  0  0
 23 42  1  0  0  0  0
 23 43  1  0  0  0  0
M  END
>  <DRUGBANK_ID>
DB09137

>  <COMMON_NAME>
Technetium Tc-99m mebrofenin

>  <CAS_NUMBER>
1415247-71-0

>  <UNII>
F2NQ468L52

>  <SYNONYMS>
Bis(2-[[2-(3-bromo-2,4,6-trimethylanilino)-2-oxoethyl]-(carboxymethyl)amino]acetate) technetium; Technetium (99mTc) mebrofenin; Technetium Tc 99m diisopropyl-iminodiacetic acid; Technetium Tc 99m DISIDA; Technetium Tc 99m Mebrofenin

$$$$
