
 OpenBabel10282417072D

 27 27  0  0  0  0  0  0  0  0999 V2000
   -1.4289    0.0000    0.0000 C   0  0  0  0  0  0  0  0  0  0  0  0
   -2.1434   -0.4125    0.0000 O   0  0  0  0  0  0  0  0  0  0  0  0
   -1.4289    0.8249    0.0000 C   0  0  0  0  0  0  0  0  0  0  0  0
   -0.7144    1.2375    0.0000 C   0  0  0  0  0  0  0  0  0  0  0  0
    0.0000    0.8249    0.0000 C   0  0  0  0  0  0  0  0  0  0  0  0
    0.0000    0.0000    0.0000 C   0  0  0  0  0  0  0  0  0  0  0  0
    0.7144   -0.4125    0.0000 C   0  0  1  0  0  0  0  0  0  0  0  0
    1.4289    0.0000    0.0000 N   0  0  0  0  0  0  0  0  0  0  0  0
    2.1434   -0.4125    0.0000 C   0  0  0  0  0  0  0  0  0  0  0  0
    1.4289    0.8249    0.0000 C   0  0  0  0  0  0  0  0  0  0  0  0
    0.7144   -1.2375    0.0000 C   0  0  0  0  0  0  0  0  0  0  0  0
   -0.7144   -0.4125    0.0000 C   0  0  0  0  0  0  0  0  0  0  0  0
   -2.9549    0.0560    0.0000 H   0  0  0  0  0  0  0  0  0  0  0  0
   -2.3227    1.3409    0.0000 H   0  0  0  0  0  0  0  0  0  0  0  0
   -0.7144    2.2695    0.0000 H   0  0  0  0  0  0  0  0  0  0  0  0
    0.8938    1.3408    0.0000 H   0  0  0  0  0  0  0  0  0  0  0  0
   -0.2123   -0.9475    0.0000 H   0  0  0  0  0  0  0  0  0  0  0  0
    2.1434   -1.4825    0.0000 H   0  0  0  0  0  0  0  0  0  0  0  0
    3.0700    0.1225    0.0000 H   0  0  0  0  0  0  0  0  0  0  0  0
    3.0701   -0.9475    0.0000 H   0  0  0  0  0  0  0  0  0  0  0  0
    2.3555    1.3599    0.0000 H   0  0  0  0  0  0  0  0  0  0  0  0
    0.5023    1.3599    0.0000 H   0  0  0  0  0  0  0  0  0  0  0  0
    1.4289    1.8949    0.0000 H   0  0  0  0  0  0  0  0  0  0  0  0
   -0.2122   -1.7725    0.0000 H   0  0  0  0  0  0  0  0  0  0  0  0
    1.6410   -1.7725    0.0000 H   0  0  0  0  0  0  0  0  0  0  0  0
    0.7144   -2.3075    0.0000 H   0  0  0  0  0  0  0  0  0  0  0  0
   -0.7144   -1.4445    0.0000 H   0  0  0  0  0  0  0  0  0  0  0  0
  1  2  1  0  0  0  0
  1  3  2  0  0  0  0
  1 12  1  0  0  0  0
  2 13  1  0  0  0  0
  3 14  1  0  0  0  0
  4  3  1  0  0  0  0
  4 15  1  0  0  0  0
  5  4  2  0  0  0  0
  5 16  1  0  0  0  0
  6  5  1  0  0  0  0
  6  7  1  0  0  0  0
  7  8  1  0  0  0  0
  7 11  1  0  0  0  0
  7 17  1  6  0  0  0
  8  9  1  0  0  0  0
  8 10  1  0  0  0  0
  9 18  1  0  0  0  0
  9 19  1  0  0  0  0
  9 20  1  0  0  0  0
 10 21  1  0  0  0  0
 10 22  1  0  0  0  0
 10 23  1  0  0  0  0
 11 24  1  0  0  0  0
 11 25  1  0  0  0  0
 11 26  1  0  0  0  0
 12  6  2  0  0  0  0
 12 27  1  0  0  0  0
M  END
>  <DRUGBANK_ID>
DB04556

>  <SECONDARY_ACCESSION_NUMBERS>
EXPT02841

>  <COMMON_NAME>
NAP-226-90

>  <CAS_NUMBER>
139306-10-8

>  <UNII>
1608PLR9ZO

>  <SYNONYMS>
(-)-3-((1S)-1-(Dimethylamino)ethyl)phenol; 3-((1S)-1-(Dimethylamino)ethyl)phenol

$$$$
