1166
 OpenBabel10282417072D

 54 57  0  0  0  0  0  0  0  0999 V2000
    5.9913   -0.0906    0.0000 O   0  0  0  0  0  0  0  0  0  0  0  0
    1.6500   -1.7606    0.0000 O   0  0  0  0  0  0  0  0  0  0  0  0
   10.3176   -0.1509    0.0000 N   0  0  0  0  0  0  0  0  0  0  0  0
   10.8720   -0.7618    0.0000 N   0  0  0  0  0  0  0  0  0  0  0  0
    9.6546   -1.3094    0.0000 N   0  0  0  0  0  0  0  0  0  0  0  0
   10.4622   -1.4779    0.0000 N   0  0  0  0  0  0  0  0  0  0  0  0
    3.0790   -1.7606    0.0000 N   0  0  0  0  0  0  0  0  0  0  0  0
   10.4860    0.6568    0.0000 C   0  0  0  0  0  0  0  0  0  0  0  0
    9.8708    1.2064    0.0000 C   0  0  0  0  0  0  0  0  0  0  0  0
   11.2697    0.9148    0.0000 C   0  0  0  0  0  0  0  0  0  0  0  0
   10.0392    2.0141    0.0000 C   0  0  0  0  0  0  0  0  0  0  0  0
   11.4380    1.7224    0.0000 C   0  0  0  0  0  0  0  0  0  0  0  0
   10.8228    2.2721    0.0000 C   0  0  0  0  0  0  0  0  0  0  0  0
    9.5652   -0.4893    0.0000 C   0  0  0  0  0  0  0  0  0  0  0  0
    8.8492   -0.0796    0.0000 C   0  0  0  0  0  0  0  0  0  0  0  0
    8.1363   -0.4948    0.0000 C   0  0  0  0  0  0  0  0  0  0  0  0
    7.4202   -0.0851    0.0000 C   0  0  0  0  0  0  0  0  0  0  0  0
    6.7073   -0.5004    0.0000 C   0  0  0  0  0  0  0  0  0  0  0  0
    3.7934   -0.5231    0.0000 C   0  0  0  0  0  0  0  0  0  0  0  0
    3.0790   -0.1106    0.0000 C   0  0  0  0  0  0  0  0  0  0  0  0
    3.7934   -1.3480    0.0000 C   0  0  0  0  0  0  0  0  0  0  0  0
    2.3645   -0.5231    0.0000 C   0  0  0  0  0  0  0  0  0  0  0  0
    5.2784   -0.5058    0.0000 C   0  0  0  0  0  0  0  0  0  0  0  0
    4.5309   -0.0819    0.0000 C   0  0  0  0  0  0  0  0  0  0  0  0
    2.3645   -1.3480    0.0000 C   0  0  0  0  0  0  0  0  0  0  0  0
    4.5309   -1.7891    0.0000 C   0  0  0  0  0  0  0  0  0  0  0  0
    5.2784   -1.3652    0.0000 C   0  0  0  0  0  0  0  0  0  0  0  0
    3.0790   -2.7451    0.0000 H   0  0  0  0  0  0  0  0  0  0  0  0
   10.7044    1.7043    0.0000 H   0  0  0  0  0  0  0  0  0  0  0  0
    8.8545    0.8718    0.0000 H   0  0  0  0  0  0  0  0  0  0  0  0
    9.0729    1.9193    0.0000 H   0  0  0  0  0  0  0  0  0  0  0  0
   12.0677    0.2020    0.0000 H   0  0  0  0  0  0  0  0  0  0  0  0
   12.2860    1.2495    0.0000 H   0  0  0  0  0  0  0  0  0  0  0  0
    9.2412    2.7270    0.0000 H   0  0  0  0  0  0  0  0  0  0  0  0
   10.2576    3.0616    0.0000 H   0  0  0  0  0  0  0  0  0  0  0  0
   12.4543    2.0570    0.0000 H   0  0  0  0  0  0  0  0  0  0  0  0
   11.6564    2.7699    0.0000 H   0  0  0  0  0  0  0  0  0  0  0  0
   11.0412    3.3196    0.0000 H   0  0  0  0  0  0  0  0  0  0  0  0
   11.8392    2.6066    0.0000 H   0  0  0  0  0  0  0  0  0  0  0  0
    8.8451    0.9904    0.0000 H   0  0  0  0  0  0  0  0  0  0  0  0
    7.9205    0.4519    0.0000 H   0  0  0  0  0  0  0  0  0  0  0  0
    8.1404   -1.5648    0.0000 H   0  0  0  0  0  0  0  0  0  0  0  0
    7.2117   -1.0334    0.0000 H   0  0  0  0  0  0  0  0  0  0  0  0
    7.4160    0.9849    0.0000 H   0  0  0  0  0  0  0  0  0  0  0  0
    6.4915    0.4463    0.0000 H   0  0  0  0  0  0  0  0  0  0  0  0
    6.7114   -1.5704    0.0000 H   0  0  0  0  0  0  0  0  0  0  0  0
    7.6360   -1.0318    0.0000 H   0  0  0  0  0  0  0  0  0  0  0  0
    3.0790    0.9594    0.0000 H   0  0  0  0  0  0  0  0  0  0  0  0
    2.1524    0.4244    0.0000 H   0  0  0  0  0  0  0  0  0  0  0  0
    1.4379    0.0119    0.0000 H   0  0  0  0  0  0  0  0  0  0  0  0
    1.4379   -1.0581    0.0000 H   0  0  0  0  0  0  0  0  0  0  0  0
    4.5189    0.9500    0.0000 H   0  0  0  0  0  0  0  0  0  0  0  0
    4.5190   -2.8210    0.0000 H   0  0  0  0  0  0  0  0  0  0  0  0
    6.1701   -1.8847    0.0000 H   0  0  0  0  0  0  0  0  0  0  0  0
  1 18  1  0  0  0  0
  1 23  1  0  0  0  0
  2 25  2  0  0  0  0
  3  4  1  0  0  0  0
  3  8  1  0  0  0  0
  3 14  1  0  0  0  0
  4  6  2  0  0  0  0
  5  6  1  0  0  0  0
  5 14  2  0  0  0  0
  7 21  1  0  0  0  0
  7 25  1  0  0  0  0
  7 28  1  0  0  0  0
  8  9  1  0  0  0  0
  8 10  1  0  0  0  0
  8 29  1  0  0  0  0
  9 11  1  0  0  0  0
  9 30  1  0  0  0  0
  9 31  1  0  0  0  0
 10 12  1  0  0  0  0
 10 32  1  0  0  0  0
 10 33  1  0  0  0  0
 11 13  1  0  0  0  0
 11 34  1  0  0  0  0
 11 35  1  0  0  0  0
 12 13  1  0  0  0  0
 12 36  1  0  0  0  0
 12 37  1  0  0  0  0
 13 38  1  0  0  0  0
 13 39  1  0  0  0  0
 14 15  1  0  0  0  0
 15 16  1  0  0  0  0
 15 40  1  0  0  0  0
 15 41  1  0  0  0  0
 16 17  1  0  0  0  0
 16 42  1  0  0  0  0
 16 43  1  0  0  0  0
 17 18  1  0  0  0  0
 17 44  1  0  0  0  0
 17 45  1  0  0  0  0
 18 46  1  0  0  0  0
 18 47  1  0  0  0  0
 19 20  1  0  0  0  0
 19 21  2  0  0  0  0
 19 24  1  0  0  0  0
 20 22  1  0  0  0  0
 20 48  1  0  0  0  0
 20 49  1  0  0  0  0
 21 26  1  0  0  0  0
 22 25  1  0  0  0  0
 22 50  1  0  0  0  0
 22 51  1  0  0  0  0
 23 24  2  0  0  0  0
 23 27  1  0  0  0  0
 24 52  1  0  0  0  0
 26 27  2  0  0  0  0
 26 53  1  0  0  0  0
 27 54  1  0  0  0  0
M  END
>  <DRUGBANK_ID>
DB01166

>  <SECONDARY_ACCESSION_NUMBERS>
APRD00155

>  <COMMON_NAME>
Cilostazol

>  <CAS_NUMBER>
73963-72-1

>  <UNII>
N7Z035406B

>  <SYNONYMS>
3,4-dihydro-6-(4-(1-cyclohexyl-1H-tetrazol-5-yl)butoxy)-2(1H)-quinolinone; 6-(4-(1-cyclohexyl-1H-tetrazol-5-yl)butoxy)-3,4-dihydro-2(1H)-quinolinone; 6-(4-(1-cyclohexyl-1H-tetrazol-5-yl)butoxy)-3,4-dihydrocarbostyril; 6-[4-(1-Cyclohexyl-1H-tetrazol-5-yl)-butoxy]-3,4-dihydro-1H-quinolin-2-one; Cilostazol; Cilostazole; Cilostazolum

$$$$
