
 OpenBabel10282417072D

 24 24  0  0  0  0  0  0  0  0999 V2000
   -1.7299   -0.1529    0.0000 N   0  0  0  0  0  0  0  0  0  0  0  0
   -2.1422    0.5651    0.0000 C   0  0  0  0  0  0  0  0  0  0  0  0
   -2.5545   -0.1529    0.0000 C   0  0  0  0  0  0  0  0  0  0  0  0
   -1.0152   -0.5651    0.0000 C   0  0  0  0  0  0  0  0  0  0  0  0
    0.4105   -0.5651    0.0000 N   0  0  0  0  0  0  0  0  0  0  0  0
    2.5545   -0.1493    0.0000 N   0  0  0  0  0  0  0  0  0  0  0  0
   -0.3006   -0.1529    0.0000 C   0  0  0  0  0  0  0  0  0  0  0  0
    1.1252   -0.1529    0.0000 C   0  0  0  0  0  0  0  0  0  0  0  0
    1.8364   -0.5651    0.0000 C   0  0  0  0  0  0  0  0  0  0  0  0
   -2.1422    1.6351    0.0000 H   0  0  0  0  0  0  0  0  0  0  0  0
   -3.1761    0.8408    0.0000 H   0  0  0  0  0  0  0  0  0  0  0  0
   -3.4805   -0.6890    0.0000 H   0  0  0  0  0  0  0  0  0  0  0  0
   -3.3124    0.6024    0.0000 H   0  0  0  0  0  0  0  0  0  0  0  0
   -1.0152   -1.6351    0.0000 H   0  0  0  0  0  0  0  0  0  0  0  0
   -0.0886   -1.1003    0.0000 H   0  0  0  0  0  0  0  0  0  0  0  0
    0.4094   -1.5851    0.0000 H   0  0  0  0  0  0  0  0  0  0  0  0
    3.4385   -0.6582    0.0000 H   0  0  0  0  0  0  0  0  0  0  0  0
    2.5532    0.8707    0.0000 H   0  0  0  0  0  0  0  0  0  0  0  0
   -0.2995    0.9171    0.0000 H   0  0  0  0  0  0  0  0  0  0  0  0
   -1.2269    0.3828    0.0000 H   0  0  0  0  0  0  0  0  0  0  0  0
    1.1263    0.9171    0.0000 H   0  0  0  0  0  0  0  0  0  0  0  0
    2.0526    0.3808    0.0000 H   0  0  0  0  0  0  0  0  0  0  0  0
    1.8362   -1.6351    0.0000 H   0  0  0  0  0  0  0  0  0  0  0  0
    0.9092   -1.0992    0.0000 H   0  0  0  0  0  0  0  0  0  0  0  0
  2  1  1  0  0  0  0
  2 10  1  0  0  0  0
  2 11  1  0  0  0  0
  3  1  1  0  0  0  0
  3  2  1  0  0  0  0
  3 12  1  0  0  0  0
  3 13  1  0  0  0  0
  4  1  1  0  0  0  0
  4 14  1  0  0  0  0
  4 15  1  0  0  0  0
  5  7  1  0  0  0  0
  5 16  1  0  0  0  0
  6  9  1  0  0  0  0
  6 17  1  0  0  0  0
  6 18  1  0  0  0  0
  7  4  1  0  0  0  0
  7 19  1  0  0  0  0
  7 20  1  0  0  0  0
  8  5  1  0  0  0  0
  8 21  1  0  0  0  0
  8 22  1  0  0  0  0
  9  8  1  0  0  0  0
  9 23  1  0  0  0  0
  9 24  1  0  0  0  0
M  END
>  <DRUGBANK_ID>
DB15643

>  <COMMON_NAME>
N-(2-Aminoethyl)-1-aziridineethanamine

>  <CAS_NUMBER>
23435-23-6

>  <UNII>
K93WMR7E2S

>  <SYNONYMS>
N-(2-((2-Aminoethyl)amino)ethyl)aziridine; N-(2-aminoethyl)-1 aziridine-ethanamine

$$$$
