S91
 OpenBabel10282417072D

 47 49  0  0  0  0  0  0  0  0999 V2000
    0.6780    3.0243    0.0000 C   0  0  0  0  0  0  0  0  0  0  0  0
    1.3924    2.6118    0.0000 C   0  0  0  0  0  0  0  0  0  0  0  0
    1.3924    1.7868    0.0000 C   0  0  0  0  0  0  0  0  0  0  0  0
    0.6780    1.3743    0.0000 C   0  0  0  0  0  0  0  0  0  0  0  0
   -0.0365    1.7868    0.0000 C   0  0  0  0  0  0  0  0  0  0  0  0
   -0.0365    2.6118    0.0000 C   0  0  0  0  0  0  0  0  0  0  0  0
    0.6780    3.8493    0.0000 C   0  0  0  0  0  0  0  0  0  0  0  0
   -0.0365    4.2618    0.0000 C   0  0  0  0  0  0  0  0  0  0  0  0
   -0.0365    5.0868    0.0000 O   0  0  0  0  0  0  0  0  0  0  0  0
   -0.7510    3.8493    0.0000 O   0  0  0  0  0  0  0  0  0  0  0  0
   -0.0365   -0.6882    0.0000 N   0  0  0  0  0  0  0  0  0  0  0  0
   -0.7510   -1.1007    0.0000 C   0  0  0  0  0  0  0  0  0  0  0  0
   -1.4655   -0.6882    0.0000 C   0  0  0  0  0  0  0  0  0  0  0  0
   -1.4655    0.1368    0.0000 C   0  0  0  0  0  0  0  0  0  0  0  0
   -0.7510    0.5493    0.0000 N   0  0  0  0  0  0  0  0  0  0  0  0
   -0.0365    0.1368    0.0000 C   0  0  0  0  0  0  0  0  0  0  0  0
   -2.1799   -1.1007    0.0000 C   0  0  0  0  0  0  0  0  0  0  0  0
   -2.8944   -0.6882    0.0000 O   0  0  0  0  0  0  0  0  0  0  0  0
   -0.7510   -1.9257    0.0000 N   0  0  0  0  0  0  0  0  0  0  0  0
    0.6780    0.5493    0.0000 N   0  0  0  0  0  0  0  0  0  0  0  0
   -2.1799   -1.9257    0.0000 N   0  0  0  0  0  0  0  0  0  0  0  0
    1.3924   -3.1632    0.0000 C   0  0  0  0  0  0  0  0  0  0  0  0
    0.6780   -3.5757    0.0000 C   0  0  0  0  0  0  0  0  0  0  0  0
   -0.0365   -3.1632    0.0000 C   0  0  0  0  0  0  0  0  0  0  0  0
   -0.0365   -2.3382    0.0000 C   0  0  0  0  0  0  0  0  0  0  0  0
    0.6780   -1.9257    0.0000 C   0  0  0  0  0  0  0  0  0  0  0  0
    1.3924   -2.3382    0.0000 C   0  0  0  0  0  0  0  0  0  0  0  0
    2.1069   -1.9257    0.0000 C   0  0  0  0  0  0  0  0  0  0  0  0
    2.2861    3.1278    0.0000 H   0  0  0  0  0  0  0  0  0  0  0  0
    2.2861    1.2708    0.0000 H   0  0  0  0  0  0  0  0  0  0  0  0
   -0.9302    1.2708    0.0000 H   0  0  0  0  0  0  0  0  0  0  0  0
   -0.9302    3.1278    0.0000 H   0  0  0  0  0  0  0  0  0  0  0  0
    1.6046    4.3843    0.0000 H   0  0  0  0  0  0  0  0  0  0  0  0
    0.6780    4.9193    0.0000 H   0  0  0  0  0  0  0  0  0  0  0  0
    0.7750    5.5553    0.0000 H   0  0  0  0  0  0  0  0  0  0  0  0
   -2.3592    0.6528    0.0000 H   0  0  0  0  0  0  0  0  0  0  0  0
   -1.6036   -2.4180    0.0000 H   0  0  0  0  0  0  0  0  0  0  0  0
    1.5306    0.0570    0.0000 H   0  0  0  0  0  0  0  0  0  0  0  0
   -3.0325   -2.4180    0.0000 H   0  0  0  0  0  0  0  0  0  0  0  0
   -1.3273   -2.4179    0.0000 H   0  0  0  0  0  0  0  0  0  0  0  0
    2.2861   -3.6792    0.0000 H   0  0  0  0  0  0  0  0  0  0  0  0
    0.6780   -4.6077    0.0000 H   0  0  0  0  0  0  0  0  0  0  0  0
   -0.9302   -3.6792    0.0000 H   0  0  0  0  0  0  0  0  0  0  0  0
    0.6780   -0.8937    0.0000 H   0  0  0  0  0  0  0  0  0  0  0  0
    3.0335   -2.4607    0.0000 H   0  0  0  0  0  0  0  0  0  0  0  0
    2.1069   -0.8557    0.0000 H   0  0  0  0  0  0  0  0  0  0  0  0
    3.0336   -1.3907    0.0000 H   0  0  0  0  0  0  0  0  0  0  0  0
  1  2  1  0  0  0  0
  1  6  2  0  0  0  0
  1  7  1  0  0  0  0
  2  3  2  0  0  0  0
  2 29  1  0  0  0  0
  3  4  1  0  0  0  0
  3 30  1  0  0  0  0
  4  5  2  0  0  0  0
  4 20  1  0  0  0  0
  5  6  1  0  0  0  0
  5 31  1  0  0  0  0
  6 32  1  0  0  0  0
  7  8  1  0  0  0  0
  7 33  1  0  0  0  0
  7 34  1  0  0  0  0
  8  9  1  0  0  0  0
  8 10  2  0  0  0  0
  9 35  1  0  0  0  0
 11 12  2  0  0  0  0
 11 16  1  0  0  0  0
 12 13  1  0  0  0  0
 12 19  1  0  0  0  0
 13 14  2  0  0  0  0
 13 17  1  0  0  0  0
 14 15  1  0  0  0  0
 14 36  1  0  0  0  0
 15 16  2  0  0  0  0
 16 20  1  0  0  0  0
 17 18  2  0  0  0  0
 17 21  1  0  0  0  0
 19 25  1  0  0  0  0
 19 37  1  0  0  0  0
 20 38  1  0  0  0  0
 21 39  1  0  0  0  0
 21 40  1  0  0  0  0
 22 23  2  0  0  0  0
 22 27  1  0  0  0  0
 22 41  1  0  0  0  0
 23 24  1  0  0  0  0
 23 42  1  0  0  0  0
 24 25  2  0  0  0  0
 24 43  1  0  0  0  0
 25 26  1  0  0  0  0
 26 27  2  0  0  0  0
 26 44  1  0  0  0  0
 27 28  1  0  0  0  0
 28 45  1  0  0  0  0
 28 46  1  0  0  0  0
 28 47  1  0  0  0  0
M  END
>  <DRUGBANK_ID>
DB08513

>  <COMMON_NAME>
[4-({5-(AMINOCARBONYL)-4-[(3-METHYLPHENYL)AMINO]PYRIMIDIN-2-YL}AMINO)PHENYL]ACETIC ACID

$$$$
