D92
 OpenBabel10282417072D

 58 62  0  0  0  0  0  0  0  0999 V2000
    0.0548   -4.8527    0.0000 Cl  0  0  0  0  0  0  0  0  0  0  0  0
    0.0548   -4.0277    0.0000 C   0  0  0  0  0  0  0  0  0  0  0  0
    0.7692   -3.6152    0.0000 C   0  0  0  0  0  0  0  0  0  0  0  0
    0.7692   -2.7902    0.0000 C   0  0  0  0  0  0  0  0  0  0  0  0
    0.0548   -2.3777    0.0000 C   0  0  0  0  0  0  0  0  0  0  0  0
   -0.1168   -1.5707    0.0000 N   0  0  0  0  0  0  0  0  0  0  0  0
   -0.6597   -3.6152    0.0000 C   0  0  0  0  0  0  0  0  0  0  0  0
   -0.6597   -2.7902    0.0000 C   0  0  0  0  0  0  0  0  0  0  0  0
   -1.2728   -2.2382    0.0000 C   0  0  0  0  0  0  0  0  0  0  0  0
   -0.9372   -1.4845    0.0000 C   0  0  0  0  0  0  0  0  0  0  0  0
   -1.3497   -0.7700    0.0000 C   0  0  0  0  0  0  0  0  0  0  0  0
   -2.1747   -0.7700    0.0000 O   0  0  0  0  0  0  0  0  0  0  0  0
   -0.9372   -0.0556    0.0000 N   0  0  0  0  0  0  0  0  0  0  0  0
   -1.3497    0.6589    0.0000 C   0  0  1  0  0  0  0  0  0  0  0  0
   -2.1747    0.6589    0.0000 C   0  0  0  0  0  0  0  0  0  0  0  0
   -2.5872    1.3734    0.0000 C   0  0  0  0  0  0  0  0  0  0  0  0
   -2.1747    2.0879    0.0000 C   0  0  0  0  0  0  0  0  0  0  0  0
   -1.3497    2.0879    0.0000 C   0  0  0  0  0  0  0  0  0  0  0  0
   -0.9372    1.3734    0.0000 C   0  0  1  0  0  0  0  0  0  0  0  0
   -0.1122    1.3734    0.0000 N   0  0  0  0  0  0  0  0  0  0  0  0
    0.3003    2.0879    0.0000 C   0  0  0  0  0  0  0  0  0  0  0  0
   -0.1122    2.8023    0.0000 O   0  0  0  0  0  0  0  0  0  0  0  0
    1.1253    2.0879    0.0000 C   0  0  0  0  0  0  0  0  0  0  0  0
    1.6102    2.7553    0.0000 S   0  0  0  0  0  0  0  0  0  0  0  0
    2.3948    2.5004    0.0000 C   0  0  0  0  0  0  0  0  0  0  0  0
    3.1093    2.9129    0.0000 C   0  0  0  0  0  0  0  0  0  0  0  0
    3.8237    2.5004    0.0000 N   0  0  0  0  0  0  0  0  0  0  0  0
    4.5382    2.9129    0.0000 C   0  0  0  0  0  0  0  0  0  0  0  0
    3.8237    1.6754    0.0000 C   0  0  0  0  0  0  0  0  0  0  0  0
    3.1093    1.2629    0.0000 C   0  0  0  0  0  0  0  0  0  0  0  0
    2.3948    1.6754    0.0000 C   0  0  0  0  0  0  0  0  0  0  0  0
    1.6102    1.4204    0.0000 N   0  0  0  0  0  0  0  0  0  0  0  0
   -1.6417    0.1532    0.0000 H   0  0  0  0  0  0  0  0  0  0  0  0
   -0.6453    0.8677    0.0000 H   0  0  0  0  0  0  0  0  0  0  0  0
    1.6629   -4.1312    0.0000 H   0  0  0  0  0  0  0  0  0  0  0  0
    1.6629   -2.2742    0.0000 H   0  0  0  0  0  0  0  0  0  0  0  0
    0.5419   -0.8390    0.0000 H   0  0  0  0  0  0  0  0  0  0  0  0
   -1.5534   -4.1312    0.0000 H   0  0  0  0  0  0  0  0  0  0  0  0
   -2.2822   -2.4528    0.0000 H   0  0  0  0  0  0  0  0  0  0  0  0
    0.0473   -0.0556    0.0000 H   0  0  0  0  0  0  0  0  0  0  0  0
   -2.7097   -0.2677    0.0000 H   0  0  0  0  0  0  0  0  0  0  0  0
   -3.2447    0.6589    0.0000 H   0  0  0  0  0  0  0  0  0  0  0  0
   -3.6572    1.3734    0.0000 H   0  0  0  0  0  0  0  0  0  0  0  0
   -3.1222    2.3000    0.0000 H   0  0  0  0  0  0  0  0  0  0  0  0
   -2.7097    3.0145    0.0000 H   0  0  0  0  0  0  0  0  0  0  0  0
   -1.6397    3.0145    0.0000 H   0  0  0  0  0  0  0  0  0  0  0  0
   -0.8147    3.0145    0.0000 H   0  0  0  0  0  0  0  0  0  0  0  0
   -0.2797    2.0879    0.0000 H   0  0  0  0  0  0  0  0  0  0  0  0
    0.3801    0.5208    0.0000 H   0  0  0  0  0  0  0  0  0  0  0  0
    3.1093    3.9829    0.0000 H   0  0  0  0  0  0  0  0  0  0  0  0
    4.0360    3.4479    0.0000 H   0  0  0  0  0  0  0  0  0  0  0  0
    5.4648    2.3779    0.0000 H   0  0  0  0  0  0  0  0  0  0  0  0
    4.5382    3.9829    0.0000 H   0  0  0  0  0  0  0  0  0  0  0  0
    5.4649    3.4479    0.0000 H   0  0  0  0  0  0  0  0  0  0  0  0
    4.7504    1.1404    0.0000 H   0  0  0  0  0  0  0  0  0  0  0  0
    3.8237    0.6054    0.0000 H   0  0  0  0  0  0  0  0  0  0  0  0
    3.1093    0.1929    0.0000 H   0  0  0  0  0  0  0  0  0  0  0  0
    2.1827    0.7279    0.0000 H   0  0  0  0  0  0  0  0  0  0  0  0
  1  2  1  0  0  0  0
  2  7  2  0  0  0  0
  2  3  1  0  0  0  0
  3  4  2  0  0  0  0
  3 35  1  0  0  0  0
  4  5  1  0  0  0  0
  4 36  1  0  0  0  0
  5  8  2  0  0  0  0
  5  6  1  0  0  0  0
  6 10  1  0  0  0  0
  6 37  1  0  0  0  0
  7  8  1  0  0  0  0
  7 38  1  0  0  0  0
  8  9  1  0  0  0  0
  9 10  2  0  0  0  0
  9 39  1  0  0  0  0
 10 11  1  0  0  0  0
 11 13  1  0  0  0  0
 11 12  2  0  0  0  0
 13 40  1  0  0  0  0
 14 13  1  0  0  0  0
 14 15  1  0  0  0  0
 14 19  1  0  0  0  0
 14 33  1  6  0  0  0
 15 16  1  0  0  0  0
 15 41  1  0  0  0  0
 15 42  1  0  0  0  0
 16 17  1  0  0  0  0
 16 43  1  0  0  0  0
 16 44  1  0  0  0  0
 17 18  1  0  0  0  0
 17 45  1  0  0  0  0
 17 46  1  0  0  0  0
 18 19  1  0  0  0  0
 18 47  1  0  0  0  0
 18 48  1  0  0  0  0
 19 20  1  0  0  0  0
 19 34  1  6  0  0  0
 20 21  1  0  0  0  0
 20 49  1  0  0  0  0
 21 23  1  0  0  0  0
 21 22  2  0  0  0  0
 23 32  2  0  0  0  0
 23 24  1  0  0  0  0
 24 25  1  0  0  0  0
 25 26  1  0  0  0  0
 25 31  2  0  0  0  0
 26 27  1  0  0  0  0
 26 50  1  0  0  0  0
 26 51  1  0  0  0  0
 27 28  1  0  0  0  0
 27 29  1  0  0  0  0
 28 52  1  0  0  0  0
 28 53  1  0  0  0  0
 28 54  1  0  0  0  0
 29 30  1  0  0  0  0
 29 55  1  0  0  0  0
 29 56  1  0  0  0  0
 30 31  1  0  0  0  0
 30 57  1  0  0  0  0
 30 58  1  0  0  0  0
 31 32  1  0  0  0  0
M  END
>  <DRUGBANK_ID>
DB07629

>  <COMMON_NAME>
N-((1R,2S)-2-(5-CHLORO-1H-INDOLE-2-CARBOXAMIDO)CYCLOHEXYL)-5-METHYL-4,5,6,7-TETRAHYDROTHIAZOLO[5,4-C]PYRIDINE-2-CARBOXAMIDE

$$$$
