
 OpenBabel10282417072D

 65 66  0  0  1  0  0  0  0  0999 V2000
    0.2905   -3.1169    0.0000 C   0  0  0  0  0  0  0  0  0  0  0  0
    0.1884   -2.2982    0.0000 O   0  0  0  0  0  0  0  0  0  0  0  0
    0.8464   -1.8005    0.0000 C   0  0  0  0  0  0  0  0  0  0  0  0
    0.7443   -0.9818    0.0000 C   0  0  0  0  0  0  0  0  0  0  0  0
   -0.0157   -0.6609    0.0000 C   0  0  0  0  0  0  0  0  0  0  0  0
   -0.1178    0.1578    0.0000 C   0  0  0  0  0  0  0  0  0  0  0  0
    0.5402    0.6555    0.0000 C   0  0  0  0  0  0  0  0  0  0  0  0
    1.3002    0.3346    0.0000 C   0  0  0  0  0  0  0  0  0  0  0  0
    1.9581    0.8323    0.0000 C   0  0  0  0  0  0  0  0  0  0  0  0
    2.7181    0.5114    0.0000 C   0  0  2  0  0  0  0  0  0  0  0  0
    2.8202   -0.3073    0.0000 O   0  0  0  0  0  0  0  0  0  0  0  0
    3.3761    1.0091    0.0000 C   0  0  0  0  0  0  0  0  0  0  0  0
    4.1361    0.6881    0.0000 C   0  0  0  0  0  0  0  0  0  0  0  0
    4.7941    1.1859    0.0000 C   0  0  1  0  0  0  0  0  0  0  0  0
    4.7781    2.0107    0.0000 C   0  0  2  0  0  0  0  0  0  0  0  0
    4.1014    2.4827    0.0000 O   0  0  0  0  0  0  0  0  0  0  0  0
    5.5577    2.2808    0.0000 C   0  0  0  0  0  0  0  0  0  0  0  0
    6.0554    1.6228    0.0000 C   0  0  0  0  0  0  0  0  0  0  0  0
    6.8802    1.6387    0.0000 O   0  0  0  0  0  0  0  0  0  0  0  0
    5.5834    0.9461    0.0000 C   0  0  2  0  0  0  0  0  0  0  0  0
    5.8535    0.1666    0.0000 C   0  0  0  0  0  0  0  0  0  0  0  0
    5.3134   -0.4571    0.0000 C   0  0  0  0  0  0  0  0  0  0  0  0
    5.5834   -1.2366    0.0000 S   0  0  0  0  0  0  0  0  0  0  0  0
    6.3936   -1.3925    0.0000 C   0  0  0  0  0  0  0  0  0  0  0  0
    6.9337   -0.7689    0.0000 C   0  0  0  0  0  0  0  0  0  0  0  0
    7.7438   -0.9248    0.0000 C   0  0  0  0  0  0  0  0  0  0  0  0
    8.2839   -0.3012    0.0000 C   0  0  0  0  0  0  0  0  0  0  0  0
    8.0139    0.4784    0.0000 O   0  0  0  0  0  0  0  0  0  0  0  0
    9.0940   -0.4571    0.0000 O   0  0  0  0  0  0  0  0  0  0  0  0
    9.6341    0.1666    0.0000 C   0  0  0  0  0  0  0  0  0  0  0  0
    1.4022   -0.4841    0.0000 C   0  0  0  0  0  0  0  0  0  0  0  0
   -0.5628   -3.7625    0.0000 H   0  0  0  0  0  0  0  0  0  0  0  0
    1.2762   -3.5331    0.0000 H   0  0  0  0  0  0  0  0  0  0  0  0
    0.4229   -4.1787    0.0000 H   0  0  0  0  0  0  0  0  0  0  0  0
    1.8321   -2.2168    0.0000 H   0  0  0  0  0  0  0  0  0  0  0  0
    1.6997   -1.1550    0.0000 H   0  0  0  0  0  0  0  0  0  0  0  0
   -0.8387   -1.2835    0.0000 H   0  0  0  0  0  0  0  0  0  0  0  0
   -1.0685    0.5593    0.0000 H   0  0  0  0  0  0  0  0  0  0  0  0
    0.4125    1.6796    0.0000 H   0  0  0  0  0  0  0  0  0  0  0  0
    1.8257    1.8941    0.0000 H   0  0  0  0  0  0  0  0  0  0  0  0
    2.8114    1.4779    0.0000 H   0  0  0  0  0  0  0  0  0  0  0  0
    1.8648   -0.1342    0.0000 H   0  0  0  0  0  0  0  0  0  0  0  0
    2.0466   -0.8925    0.0000 H   0  0  0  0  0  0  0  0  0  0  0  0
    3.2485    2.0332    0.0000 H   0  0  0  0  0  0  0  0  0  0  0  0
    4.2638   -0.3360    0.0000 H   0  0  0  0  0  0  0  0  0  0  0  0
    3.8315    1.6531    0.0000 H   0  0  0  0  0  0  0  0  0  0  0  0
    3.8343    1.5066    0.0000 H   0  0  0  0  0  0  0  0  0  0  0  0
    4.1842    3.4492    0.0000 H   0  0  0  0  0  0  0  0  0  0  0  0
    5.8686    3.3046    0.0000 H   0  0  0  0  0  0  0  0  0  0  0  0
    6.6111    2.4685    0.0000 H   0  0  0  0  0  0  0  0  0  0  0  0
    6.6433    0.7992    0.0000 H   0  0  0  0  0  0  0  0  0  0  0  0
    6.9042   -0.0355    0.0000 H   0  0  0  0  0  0  0  0  0  0  0  0
    6.2038   -0.8444    0.0000 H   0  0  0  0  0  0  0  0  0  0  0  0
    4.2627   -0.2549    0.0000 H   0  0  0  0  0  0  0  0  0  0  0  0
    4.6129   -1.2659    0.0000 H   0  0  0  0  0  0  0  0  0  0  0  0
    6.7438   -2.4036    0.0000 H   0  0  0  0  0  0  0  0  0  0  0  0
    7.4443   -1.5947    0.0000 H   0  0  0  0  0  0  0  0  0  0  0  0
    6.5835    0.2422    0.0000 H   0  0  0  0  0  0  0  0  0  0  0  0
    7.6342    0.0399    0.0000 H   0  0  0  0  0  0  0  0  0  0  0  0
    8.0940   -1.9359    0.0000 H   0  0  0  0  0  0  0  0  0  0  0  0
    8.7945   -1.1270    0.0000 H   0  0  0  0  0  0  0  0  0  0  0  0
   10.6848   -0.0356    0.0000 H   0  0  0  0  0  0  0  0  0  0  0  0
    9.2838    1.1776    0.0000 H   0  0  0  0  0  0  0  0  0  0  0  0
   10.3345    0.9755    0.0000 H   0  0  0  0  0  0  0  0  0  0  0  0
    2.3529   -0.8856    0.0000 H   0  0  0  0  0  0  0  0  0  0  0  0
  1  2  1  0  0  0  0
  1 32  1  0  0  0  0
  1 33  1  0  0  0  0
  1 34  1  0  0  0  0
  2  3  1  0  0  0  0
  3  4  1  0  0  0  0
  3 35  1  0  0  0  0
  3 36  1  0  0  0  0
  4  5  2  0  0  0  0
  4 31  1  0  0  0  0
  5  6  1  0  0  0  0
  5 37  1  0  0  0  0
  6  7  2  0  0  0  0
  6 38  1  0  0  0  0
  7  8  1  0  0  0  0
  7 39  1  0  0  0  0
  8  9  1  0  0  0  0
  8 31  2  0  0  0  0
  9 40  1  0  0  0  0
  9 41  1  0  0  0  0
 10  9  1  0  0  0  0
 10 11  1  0  0  0  0
 10 12  1  0  0  0  0
 10 42  1  6  0  0  0
 11 43  1  0  0  0  0
 12 13  2  0  0  0  0
 12 44  1  0  0  0  0
 13 45  1  0  0  0  0
 14 13  1  0  0  0  0
 14 15  1  0  0  0  0
 14 20  1  0  0  0  0
 14 46  1  6  0  0  0
 15 16  1  0  0  0  0
 15 17  1  0  0  0  0
 15 47  1  1  0  0  0
 16 48  1  0  0  0  0
 17 18  1  0  0  0  0
 17 49  1  0  0  0  0
 17 50  1  0  0  0  0
 18 19  2  0  0  0  0
 20 18  1  0  0  0  0
 20 21  1  0  0  0  0
 20 51  1  1  0  0  0
 21 22  1  0  0  0  0
 21 52  1  0  0  0  0
 21 53  1  0  0  0  0
 22 23  1  0  0  0  0
 22 54  1  0  0  0  0
 22 55  1  0  0  0  0
 23 24  1  0  0  0  0
 24 25  1  0  0  0  0
 24 56  1  0  0  0  0
 24 57  1  0  0  0  0
 25 26  1  0  0  0  0
 25 58  1  0  0  0  0
 25 59  1  0  0  0  0
 26 27  1  0  0  0  0
 26 60  1  0  0  0  0
 26 61  1  0  0  0  0
 27 28  2  0  0  0  0
 27 29  1  0  0  0  0
 29 30  1  0  0  0  0
 30 62  1  0  0  0  0
 30 63  1  0  0  0  0
 30 64  1  0  0  0  0
 31 65  1  0  0  0  0
M  END
>  <DRUGBANK_ID>
DB16315

>  <COMMON_NAME>
Rivenprost

>  <CAS_NUMBER>
256382-08-8

>  <UNII>
1WBO45T413

>  <SYNONYMS>
Rivenprost

$$$$
