
 OpenBabel10282417072D

 55 54  0  0  0  0  0  0  0  0999 V2000
   -3.2151   -1.8562    0.0000 N   0  0  0  0  0  0  0  0  0  0  0  0
   -3.2151   -1.0312    0.0000 C   0  0  1  0  0  0  0  0  0  0  0  0
   -2.5006   -0.6187    0.0000 C   0  0  0  0  0  0  0  0  0  0  0  0
   -1.7861   -1.0312    0.0000 C   0  0  0  0  0  0  0  0  0  0  0  0
   -1.0717   -0.6187    0.0000 C   0  0  0  0  0  0  0  0  0  0  0  0
   -1.0717    0.2062    0.0000 O   0  0  0  0  0  0  0  0  0  0  0  0
   -0.3572   -1.0312    0.0000 N   0  0  0  0  0  0  0  0  0  0  0  0
    0.3572   -0.6187    0.0000 C   0  0  1  0  0  0  0  0  0  0  0  0
    0.3572    0.2062    0.0000 C   0  0  0  0  0  0  0  0  0  0  0  0
    1.0716   -1.0313    0.0000 C   0  0  0  0  0  0  0  0  0  0  0  0
    1.0716   -1.8563    0.0000 O   0  0  0  0  0  0  0  0  0  0  0  0
    1.7861   -0.6188    0.0000 N   0  0  0  0  0  0  0  0  0  0  0  0
    2.5006   -1.0313    0.0000 C   0  0  0  0  0  0  0  0  0  0  0  0
    3.2151   -0.6188    0.0000 C   0  0  0  0  0  0  0  0  0  0  0  0
    3.2151    0.2061    0.0000 O   0  0  0  0  0  0  0  0  0  0  0  0
    3.9295   -1.0313    0.0000 O   0  0  0  0  0  0  0  0  0  0  0  0
   -3.9296   -0.6188    0.0000 C   0  0  0  0  0  0  0  0  0  0  0  0
   -3.9296    0.2062    0.0000 O   0  0  0  0  0  0  0  0  0  0  0  0
   -4.6440   -1.0313    0.0000 O   0  0  0  0  0  0  0  0  0  0  0  0
    1.0716    0.6187    0.0000 S   0  0  0  0  0  0  0  0  0  0  0  0
    1.0716    1.4438    0.0000 C   0  0  0  0  0  0  0  0  0  0  0  0
    1.7861    1.8563    0.0000 C   0  0  0  0  0  0  0  0  0  0  0  0
    2.5005    1.4438    0.0000 C   0  0  0  0  0  0  0  0  0  0  0  0
    3.2150    1.8563    0.0000 C   0  0  0  0  0  0  0  0  0  0  0  0
    3.9295    1.4438    0.0000 C   0  0  0  0  0  0  0  0  0  0  0  0
    4.6440    1.8563    0.0000 C   0  0  0  0  0  0  0  0  0  0  0  0
   -4.0984   -2.3662    0.0000 H   0  0  0  0  0  0  0  0  0  0  0  0
   -2.3318   -2.3662    0.0000 H   0  0  0  0  0  0  0  0  0  0  0  0
   -2.2885   -1.5662    0.0000 H   0  0  0  0  0  0  0  0  0  0  0  0
   -2.5006    0.4513    0.0000 H   0  0  0  0  0  0  0  0  0  0  0  0
   -1.5740   -0.0837    0.0000 H   0  0  0  0  0  0  0  0  0  0  0  0
   -1.7861   -2.1012    0.0000 H   0  0  0  0  0  0  0  0  0  0  0  0
   -0.8594   -1.5662    0.0000 H   0  0  0  0  0  0  0  0  0  0  0  0
   -0.3572   -2.0157    0.0000 H   0  0  0  0  0  0  0  0  0  0  0  0
   -0.5695   -0.0837    0.0000 H   0  0  0  0  0  0  0  0  0  0  0  0
   -0.5695    0.7412    0.0000 H   0  0  0  0  0  0  0  0  0  0  0  0
    0.3572    1.2762    0.0000 H   0  0  0  0  0  0  0  0  0  0  0  0
    1.7861    0.3657    0.0000 H   0  0  0  0  0  0  0  0  0  0  0  0
    2.5006   -2.1013    0.0000 H   0  0  0  0  0  0  0  0  0  0  0  0
    3.4272   -1.5663    0.0000 H   0  0  0  0  0  0  0  0  0  0  0  0
    3.9295   -1.9683    0.0000 H   0  0  0  0  0  0  0  0  0  0  0  0
   -5.4555   -0.5628    0.0000 H   0  0  0  0  0  0  0  0  0  0  0  0
    0.1450    1.9788    0.0000 H   0  0  0  0  0  0  0  0  0  0  0  0
    1.0716    2.5138    0.0000 H   0  0  0  0  0  0  0  0  0  0  0  0
    1.7861    2.9263    0.0000 H   0  0  0  0  0  0  0  0  0  0  0  0
    2.7128    2.3913    0.0000 H   0  0  0  0  0  0  0  0  0  0  0  0
    2.5005    0.3738    0.0000 H   0  0  0  0  0  0  0  0  0  0  0  0
    3.4271    0.9088    0.0000 H   0  0  0  0  0  0  0  0  0  0  0  0
    3.2150    2.9263    0.0000 H   0  0  0  0  0  0  0  0  0  0  0  0
    4.1416    2.3913    0.0000 H   0  0  0  0  0  0  0  0  0  0  0  0
    3.9295    0.3738    0.0000 H   0  0  0  0  0  0  0  0  0  0  0  0
    4.8561    0.9088    0.0000 H   0  0  0  0  0  0  0  0  0  0  0  0
    5.5706    1.3213    0.0000 H   0  0  0  0  0  0  0  0  0  0  0  0
    4.6440    2.9263    0.0000 H   0  0  0  0  0  0  0  0  0  0  0  0
    5.5707    2.3913    0.0000 H   0  0  0  0  0  0  0  0  0  0  0  0
  1 27  1  0  0  0  0
  1 28  1  0  0  0  0
  2  1  1  0  0  0  0
  2  3  1  0  0  0  0
  2 17  1  0  0  0  0
  2 29  1  1  0  0  0
  3  4  1  0  0  0  0
  3 30  1  0  0  0  0
  3 31  1  0  0  0  0
  4  5  1  0  0  0  0
  4 32  1  0  0  0  0
  4 33  1  0  0  0  0
  5  6  2  0  0  0  0
  5  7  1  0  0  0  0
  7  8  1  0  0  0  0
  7 34  1  0  0  0  0
  8  9  1  0  0  0  0
  8 10  1  0  0  0  0
  8 35  1  6  0  0  0
  9 20  1  0  0  0  0
  9 36  1  0  0  0  0
  9 37  1  0  0  0  0
 10 11  2  0  0  0  0
 10 12  1  0  0  0  0
 12 13  1  0  0  0  0
 12 38  1  0  0  0  0
 13 14  1  0  0  0  0
 13 39  1  0  0  0  0
 13 40  1  0  0  0  0
 14 15  2  0  0  0  0
 14 16  1  0  0  0  0
 16 41  1  0  0  0  0
 17 18  2  0  0  0  0
 17 19  1  0  0  0  0
 19 42  1  0  0  0  0
 20 21  1  0  0  0  0
 21 22  1  0  0  0  0
 21 43  1  0  0  0  0
 21 44  1  0  0  0  0
 22 23  1  0  0  0  0
 22 45  1  0  0  0  0
 22 46  1  0  0  0  0
 23 24  1  0  0  0  0
 23 47  1  0  0  0  0
 23 48  1  0  0  0  0
 24 25  1  0  0  0  0
 24 49  1  0  0  0  0
 24 50  1  0  0  0  0
 25 26  1  0  0  0  0
 25 51  1  0  0  0  0
 25 52  1  0  0  0  0
 26 53  1  0  0  0  0
 26 54  1  0  0  0  0
 26 55  1  0  0  0  0
M  END
>  <DRUGBANK_ID>
DB04132

>  <SECONDARY_ACCESSION_NUMBERS>
EXPT01664

>  <COMMON_NAME>
S-Hexylglutathione

>  <CAS_NUMBER>
24425-56-7

>  <UNII>
M73SNN908F

>  <SYNONYMS>
Hexylglutathione; S-Hexyl-glutathione; S-Hexyl-L-glutathione

$$$$
