
 OpenBabel10282417072D

 54 56  0  0  0  0  0  0  0  0999 V2000
   -4.8280    1.3976    0.0000 C   0  0  0  0  0  0  0  0  0  0  0  0
    1.3385    2.4181    0.0000 C   0  0  0  0  0  0  0  0  0  0  0  0
    0.6240    2.0056    0.0000 C   0  0  0  0  0  0  0  0  0  0  0  0
    2.0529    2.0056    0.0000 C   0  0  0  0  0  0  0  0  0  0  0  0
   -3.3367    3.8358    0.0000 C   0  0  0  0  0  0  0  0  0  0  0  0
   -4.1251    3.5927    0.0000 C   0  0  0  0  0  0  0  0  0  0  0  0
   -0.0905    2.4181    0.0000 C   0  0  0  0  0  0  0  0  0  0  0  0
   -2.7320    3.2747    0.0000 C   0  0  0  0  0  0  0  0  0  0  0  0
   -4.3087    2.7884    0.0000 C   0  0  0  0  0  0  0  0  0  0  0  0
    2.7674    2.4181    0.0000 C   0  0  0  0  0  0  0  0  0  0  0  0
   -1.2003    0.1355    0.0000 C   0  0  0  0  0  0  0  0  0  0  0  0
   -1.3839    0.9398    0.0000 C   0  0  0  0  0  0  0  0  0  0  0  0
   -0.8050    2.0056    0.0000 C   0  0  0  0  0  0  0  0  0  0  0  0
   -2.5934   -0.1825    0.0000 C   0  0  0  0  0  0  0  0  0  0  0  0
   -1.8051   -0.4257    0.0000 C   0  0  0  0  0  0  0  0  0  0  0  0
   -2.9155    2.4704    0.0000 C   0  0  0  0  0  0  0  0  0  0  0  0
   -2.1722    1.1830    0.0000 C   0  0  0  0  0  0  0  0  0  0  0  0
   -3.7039    2.2272    0.0000 C   0  0  0  0  0  0  0  0  0  0  0  0
   -2.7770    0.6218    0.0000 C   0  0  0  0  0  0  0  0  0  0  0  0
    3.4819    2.0056    0.0000 C   0  0  0  0  0  0  0  0  0  0  0  0
   -2.2339    2.0056    0.0000 C   0  0  3  0  0  0  0  0  0  0  0  0
   -1.6215   -1.2300    0.0000 Cl  0  0  0  0  0  0  0  0  0  0  0  0
   -1.5194    2.4181    0.0000 N   0  0  0  0  0  0  0  0  0  0  0  0
   -4.0053    1.4592    0.0000 N   0  0  0  0  0  0  0  0  0  0  0  0
    4.1963    2.4181    0.0000 O   0  0  0  0  0  0  0  0  0  0  0  0
    3.4819    1.1806    0.0000 O   0  0  0  0  0  0  0  0  0  0  0  0
   -3.6974   -0.0736    0.0000 O   0  0  0  0  0  0  0  0  0  0  0  0
   -4.3163    0.3484    0.0000 O   0  0  0  0  0  0  0  0  0  0  0  0
   -3.5928    0.7448    0.0000 S   0  0  0  0  0  0  0  0  0  0  0  0
   -5.4307    2.2817    0.0000 H   0  0  0  0  0  0  0  0  0  0  0  0
   -5.2923    0.4336    0.0000 H   0  0  0  0  0  0  0  0  0  0  0  0
   -5.8950    1.3177    0.0000 H   0  0  0  0  0  0  0  0  0  0  0  0
    1.3385    3.4881    0.0000 H   0  0  0  0  0  0  0  0  0  0  0  0
    2.2652    2.9531    0.0000 H   0  0  0  0  0  0  0  0  0  0  0  0
    0.6240    0.9356    0.0000 H   0  0  0  0  0  0  0  0  0  0  0  0
   -0.3026    1.4706    0.0000 H   0  0  0  0  0  0  0  0  0  0  0  0
    2.0529    0.9356    0.0000 H   0  0  0  0  0  0  0  0  0  0  0  0
    2.9795    1.4706    0.0000 H   0  0  0  0  0  0  0  0  0  0  0  0
   -3.1070    4.8419    0.0000 H   0  0  0  0  0  0  0  0  0  0  0  0
   -4.8816    4.2947    0.0000 H   0  0  0  0  0  0  0  0  0  0  0  0
   -0.0905    3.4881    0.0000 H   0  0  0  0  0  0  0  0  0  0  0  0
   -1.0171    2.9531    0.0000 H   0  0  0  0  0  0  0  0  0  0  0  0
   -1.7459    3.5789    0.0000 H   0  0  0  0  0  0  0  0  0  0  0  0
   -5.2949    2.4842    0.0000 H   0  0  0  0  0  0  0  0  0  0  0  0
    2.7674    3.4881    0.0000 H   0  0  0  0  0  0  0  0  0  0  0  0
    3.6940    2.9531    0.0000 H   0  0  0  0  0  0  0  0  0  0  0  0
   -0.2141   -0.1687    0.0000 H   0  0  0  0  0  0  0  0  0  0  0  0
   -0.6274    1.6417    0.0000 H   0  0  0  0  0  0  0  0  0  0  0  0
   -0.8050    0.9356    0.0000 H   0  0  0  0  0  0  0  0  0  0  0  0
   -1.7317    1.4706    0.0000 H   0  0  0  0  0  0  0  0  0  0  0  0
   -3.3499   -0.8844    0.0000 H   0  0  0  0  0  0  0  0  0  0  0  0
   -3.1606    1.4706    0.0000 H   0  0  0  0  0  0  0  0  0  0  0  0
   -1.5194    3.4381    0.0000 H   0  0  0  0  0  0  0  0  0  0  0  0
    2.6704    0.7121    0.0000 H   0  0  0  0  0  0  0  0  0  0  0  0
  1 30  1  0  0  0  0
  1 31  1  0  0  0  0
  1 32  1  0  0  0  0
  2 33  1  0  0  0  0
  2 34  1  0  0  0  0
  3  2  1  0  0  0  0
  3 35  1  0  0  0  0
  3 36  1  0  0  0  0
  4  2  1  0  0  0  0
  4 37  1  0  0  0  0
  4 38  1  0  0  0  0
  5 39  1  0  0  0  0
  6  5  2  0  0  0  0
  6 40  1  0  0  0  0
  7  3  1  0  0  0  0
  7 41  1  0  0  0  0
  7 42  1  0  0  0  0
  8  5  1  0  0  0  0
  8 43  1  0  0  0  0
  9  6  1  0  0  0  0
  9 44  1  0  0  0  0
 10  4  1  0  0  0  0
 10 45  1  0  0  0  0
 10 46  1  0  0  0  0
 11 47  1  0  0  0  0
 12 11  2  0  0  0  0
 12 48  1  0  0  0  0
 13  7  1  0  0  0  0
 13 49  1  0  0  0  0
 13 50  1  0  0  0  0
 14 51  1  0  0  0  0
 15 11  1  0  0  0  0
 15 14  2  0  0  0  0
 16  8  2  0  0  0  0
 17 12  1  0  0  0  0
 18  9  2  0  0  0  0
 18 16  1  0  0  0  0
 19 14  1  0  0  0  0
 19 17  2  0  0  0  0
 20 10  1  0  0  0  0
 21 16  1  0  0  0  0
 21 17  1  0  0  0  0
 21 52  1  0  0  0  0
 22 15  1  0  0  0  0
 23 13  1  0  0  0  0
 23 21  1  0  0  0  0
 23 53  1  0  0  0  0
 24  1  1  0  0  0  0
 24 18  1  0  0  0  0
 25 20  2  0  0  0  0
 26 20  1  0  0  0  0
 26 54  1  0  0  0  0
 29 19  1  0  0  0  0
 29 24  1  0  0  0  0
 29 27  2  0  0  0  0
 29 28  2  0  0  0  0
M  END
>  <DRUGBANK_ID>
DB09289

>  <COMMON_NAME>
Tianeptine

>  <CAS_NUMBER>
72797-41-2

>  <UNII>
0T493YFU8O

>  <SYNONYMS>
Tianeptina; Tianeptine

$$$$
