
 OpenBabel10282417072D

 62 67  0  0  1  0  0  0  0  0999 V2000
    2.2416    5.4715    0.0000 C   0  0  0  0  0  0  0  0  0  0  0  0
    1.5271    5.8840    0.0000 C   0  0  0  0  0  0  0  0  0  0  0  0
    2.2416    4.6465    0.0000 C   0  0  0  0  0  0  0  0  0  0  0  0
   -5.8090    1.3093    0.0000 C   0  0  0  0  0  0  0  0  0  0  0  0
   -5.1959    0.7573    0.0000 C   0  0  0  0  0  0  0  0  0  0  0  0
    0.8126    5.4715    0.0000 C   0  0  0  0  0  0  0  0  0  0  0  0
    1.5271    4.2340    0.0000 C   0  0  0  0  0  0  0  0  0  0  0  0
   -5.6374    2.1163    0.0000 C   0  0  0  0  0  0  0  0  0  0  0  0
   -4.4112    1.0122    0.0000 C   0  0  0  0  0  0  0  0  0  0  0  0
   -3.8967    3.4332    0.0000 C   0  0  0  0  0  0  0  0  0  0  0  0
   -4.6813    3.1782    0.0000 C   0  0  0  0  0  0  0  0  0  0  0  0
    1.5271    0.9340    0.0000 C   0  0  0  0  0  0  0  0  0  0  0  0
    2.2416    2.1715    0.0000 C   0  0  0  0  0  0  0  0  0  0  0  0
    2.2416    0.5215    0.0000 C   0  0  0  0  0  0  0  0  0  0  0  0
    2.9561    1.7590    0.0000 C   0  0  0  0  0  0  0  0  0  0  0  0
   -3.4551    2.0742    0.0000 C   0  0  0  0  0  0  0  0  0  0  0  0
    0.0982    4.2340    0.0000 C   0  0  0  0  0  0  0  0  0  0  0  0
   -2.4989    3.1361    0.0000 C   0  0  0  0  0  0  0  0  0  0  0  0
    0.0982    1.7590    0.0000 C   0  0  0  0  0  0  0  0  0  0  0  0
    0.8126    4.6465    0.0000 C   0  0  0  0  0  0  0  0  0  0  0  0
   -3.2836    2.8811    0.0000 C   0  0  0  0  0  0  0  0  0  0  0  0
   -4.8528    2.3712    0.0000 C   0  0  0  0  0  0  0  0  0  0  0  0
    1.5271    1.7590    0.0000 C   0  0  0  0  0  0  0  0  0  0  0  0
   -4.2397    1.8192    0.0000 C   0  0  0  0  0  0  0  0  0  0  0  0
    2.9561    0.9340    0.0000 C   0  0  0  0  0  0  0  0  0  0  0  0
    0.0982    3.4090    0.0000 C   0  0  1  0  0  0  0  0  0  0  0  0
    0.8126    2.1715    0.0000 C   0  0  0  0  0  0  0  0  0  0  0  0
   -0.6163    2.9965    0.0000 C   0  0  0  0  0  0  0  0  0  0  0  0
   -1.4009    1.9166    0.0000 C   0  0  0  0  0  0  0  0  0  0  0  0
   -1.8858    2.5840    0.0000 C   0  0  2  0  0  0  0  0  0  0  0  0
    0.8126    2.9965    0.0000 N   0  0  0  0  0  0  0  0  0  0  0  0
   -1.4009    3.2515    0.0000 N   0  0  0  0  0  0  0  0  0  0  0  0
   -0.6163    2.1715    0.0000 N   0  0  0  0  0  0  0  0  0  0  0  0
    3.6705    0.5215    0.0000 O   0  0  0  0  0  0  0  0  0  0  0  0
   -1.6559    1.1320    0.0000 O   0  0  0  0  0  0  0  0  0  0  0  0
   -2.3274    1.2250    0.0000 O   0  0  0  0  0  0  0  0  0  0  0  0
   -2.4989    2.0320    0.0000 O   0  0  0  0  0  0  0  0  0  0  0  0
   -0.6163    3.8215    0.0000 H   0  0  0  0  0  0  0  0  0  0  0  0
    3.1353    5.9875    0.0000 H   0  0  0  0  0  0  0  0  0  0  0  0
    1.5271    6.9160    0.0000 H   0  0  0  0  0  0  0  0  0  0  0  0
    3.1353    4.1305    0.0000 H   0  0  0  0  0  0  0  0  0  0  0  0
   -6.7905    0.9904    0.0000 H   0  0  0  0  0  0  0  0  0  0  0  0
   -5.4105   -0.2521    0.0000 H   0  0  0  0  0  0  0  0  0  0  0  0
   -0.0811    5.9875    0.0000 H   0  0  0  0  0  0  0  0  0  0  0  0
    1.5271    3.2020    0.0000 H   0  0  0  0  0  0  0  0  0  0  0  0
   -6.4043    2.8069    0.0000 H   0  0  0  0  0  0  0  0  0  0  0  0
   -3.6443    0.3216    0.0000 H   0  0  0  0  0  0  0  0  0  0  0  0
   -3.6821    4.4427    0.0000 H   0  0  0  0  0  0  0  0  0  0  0  0
   -5.4483    3.8687    0.0000 H   0  0  0  0  0  0  0  0  0  0  0  0
    0.6334    0.4180    0.0000 H   0  0  0  0  0  0  0  0  0  0  0  0
    2.2416    3.2035    0.0000 H   0  0  0  0  0  0  0  0  0  0  0  0
    2.2416   -0.5105    0.0000 H   0  0  0  0  0  0  0  0  0  0  0  0
    3.8498    2.2750    0.0000 H   0  0  0  0  0  0  0  0  0  0  0  0
   -2.6881    1.3837    0.0000 H   0  0  0  0  0  0  0  0  0  0  0  0
   -0.8285    4.7690    0.0000 H   0  0  0  0  0  0  0  0  0  0  0  0
   -0.8284    3.6990    0.0000 H   0  0  0  0  0  0  0  0  0  0  0  0
   -2.2764    4.1827    0.0000 H   0  0  0  0  0  0  0  0  0  0  0  0
   -1.4813    3.4667    0.0000 H   0  0  0  0  0  0  0  0  0  0  0  0
    0.0982    0.7270    0.0000 H   0  0  0  0  0  0  0  0  0  0  0  0
    1.6652    3.4887    0.0000 H   0  0  0  0  0  0  0  0  0  0  0  0
    3.6705   -0.4155    0.0000 H   0  0  0  0  0  0  0  0  0  0  0  0
   -3.0483    0.5760    0.0000 H   0  0  0  0  0  0  0  0  0  0  0  0
  1 39  1  0  0  0  0
  2  1  2  0  0  0  0
  2 40  1  0  0  0  0
  3  1  1  0  0  0  0
  3 41  1  0  0  0  0
  4 42  1  0  0  0  0
  5  4  2  0  0  0  0
  5 43  1  0  0  0  0
  6  2  1  0  0  0  0
  6 44  1  0  0  0  0
  7  3  2  0  0  0  0
  7 45  1  0  0  0  0
  8  4  1  0  0  0  0
  8 46  1  0  0  0  0
  9  5  1  0  0  0  0
  9 47  1  0  0  0  0
 10 48  1  0  0  0  0
 11 10  2  0  0  0  0
 11 49  1  0  0  0  0
 12 50  1  0  0  0  0
 13 51  1  0  0  0  0
 14 12  1  0  0  0  0
 14 52  1  0  0  0  0
 15 13  2  0  0  0  0
 15 53  1  0  0  0  0
 16 54  1  0  0  0  0
 17 55  1  0  0  0  0
 17 56  1  0  0  0  0
 18 57  1  0  0  0  0
 18 58  1  0  0  0  0
 19 59  1  0  0  0  0
 20  6  2  0  0  0  0
 20  7  1  0  0  0  0
 20 17  1  0  0  0  0
 21 10  1  0  0  0  0
 21 16  2  0  0  0  0
 21 18  1  0  0  0  0
 22  8  2  0  0  0  0
 22 11  1  0  0  0  0
 23 12  2  0  0  0  0
 23 13  1  0  0  0  0
 24  9  2  0  0  0  0
 24 16  1  0  0  0  0
 24 22  1  0  0  0  0
 25 14  2  0  0  0  0
 25 15  1  0  0  0  0
 26 17  1  0  0  0  0
 26 38  1  1  0  0  0
 27 19  2  0  0  0  0
 27 23  1  0  0  0  0
 28 26  1  0  0  0  0
 30 18  1  0  0  0  0
 30 29  1  0  0  0  0
 30 37  1  6  0  0  0
 31 26  1  0  0  0  0
 31 27  1  0  0  0  0
 31 60  1  0  0  0  0
 32 28  2  0  0  0  0
 32 30  1  0  0  0  0
 33 19  1  0  0  0  0
 33 28  1  0  0  0  0
 33 29  1  0  0  0  0
 34 25  1  0  0  0  0
 34 61  1  0  0  0  0
 35 29  2  0  0  0  0
 36 62  1  0  0  0  0
 37 36  1  0  0  0  0
M  END
>  <DRUGBANK_ID>
DB04118

>  <SECONDARY_ACCESSION_NUMBERS>
EXPT01087

>  <COMMON_NAME>
N-Coeleneterazine

$$$$
