
 OpenBabel10282417072D

 49 49  0  0  1  0  0  0  0  0999 V2000
    1.4289    0.8250    0.0000 C   0  0  1  0  0  0  0  0  0  0  0  0
    0.7145    1.2375    0.0000 C   0  0  1  0  0  0  0  0  0  0  0  0
    1.4289   -0.0000    0.0000 C   0  0  1  0  0  0  0  0  0  0  0  0
    0.0000    0.8250    0.0000 C   0  0  2  0  0  0  0  0  0  0  0  0
    0.7145   -0.4125    0.0000 C   0  0  2  0  0  0  0  0  0  0  0  0
    0.0000    0.0000    0.0000 C   0  0  2  0  0  0  0  0  0  0  0  0
    2.1434    1.2375    0.0000 O   0  0  0  0  0  0  0  0  0  0  0  0
    2.1434    2.8875    0.0000 O   0  0  0  0  0  0  0  0  0  0  0  0
    1.0164    3.1895    0.0000 O   0  0  0  0  0  0  0  0  0  0  0  0
    1.8414    1.7605    0.0000 O   0  0  0  0  0  0  0  0  0  0  0  0
    3.2704   -0.7145    0.0000 O   0  0  0  0  0  0  0  0  0  0  0  0
    2.4454    0.7145    0.0000 O   0  0  0  0  0  0  0  0  0  0  0  0
    3.5724    0.4125    0.0000 O   0  0  0  0  0  0  0  0  0  0  0  0
    0.1105    2.0625    0.0000 O   0  0  0  0  0  0  0  0  0  0  0  0
   -1.5395    2.0625    0.0000 O   0  0  0  0  0  0  0  0  0  0  0  0
   -0.7145    2.8875    0.0000 O   0  0  0  0  0  0  0  0  0  0  0  0
    2.1434   -2.0625    0.0000 O   0  0  0  0  0  0  0  0  0  0  0  0
    1.0164   -2.3645    0.0000 O   0  0  0  0  0  0  0  0  0  0  0  0
    1.8414   -0.9355    0.0000 O   0  0  0  0  0  0  0  0  0  0  0  0
   -2.1434    0.4125    0.0000 O   0  0  0  0  0  0  0  0  0  0  0  0
   -1.0164    0.7145    0.0000 O   0  0  0  0  0  0  0  0  0  0  0  0
   -1.8414   -0.7145    0.0000 O   0  0  0  0  0  0  0  0  0  0  0  0
    0.7145    2.0625    0.0000 O   0  0  0  0  0  0  0  0  0  0  0  0
    2.1434   -0.4125    0.0000 O   0  0  0  0  0  0  0  0  0  0  0  0
   -0.7145    1.2375    0.0000 O   0  0  0  0  0  0  0  0  0  0  0  0
    0.7145   -1.2375    0.0000 O   0  0  0  0  0  0  0  0  0  0  0  0
   -0.7145   -0.4125    0.0000 O   0  0  0  0  0  0  0  0  0  0  0  0
    1.4289    2.4750    0.0000 P   0  0  0  0  0  0  0  0  0  0  0  0
    2.8579   -0.0000    0.0000 P   0  0  0  0  0  0  0  0  0  0  0  0
   -0.7145    2.0625    0.0000 P   0  0  0  0  0  0  0  0  0  0  0  0
    1.4289   -1.6500    0.0000 P   0  0  0  0  0  0  0  0  0  0  0  0
   -1.4289    0.0000    0.0000 P   0  0  0  0  0  0  0  0  0  0  0  0
    1.1468    1.6002    0.0000 H   0  0  0  0  0  0  0  0  0  0  0  0
    1.2448    1.8695    0.0000 H   0  0  0  0  0  0  0  0  0  0  0  0
    2.1434    0.4125    0.0000 H   0  0  0  0  0  0  0  0  0  0  0  0
    0.0000    1.6500    0.0000 H   0  0  0  0  0  0  0  0  0  0  0  0
    1.4289   -0.8250    0.0000 H   0  0  0  0  0  0  0  0  0  0  0  0
   -0.7145    0.4125    0.0000 H   0  0  0  0  0  0  0  0  0  0  0  0
    2.9834    0.7525    0.0000 H   0  0  0  0  0  0  0  0  0  0  0  0
    2.9834    2.4025    0.0000 H   0  0  0  0  0  0  0  0  0  0  0  0
    1.5014    4.0295    0.0000 H   0  0  0  0  0  0  0  0  0  0  0  0
    2.7854   -1.5545    0.0000 H   0  0  0  0  0  0  0  0  0  0  0  0
    2.9304    1.5545    0.0000 H   0  0  0  0  0  0  0  0  0  0  0  0
    0.5955    1.2225    0.0000 H   0  0  0  0  0  0  0  0  0  0  0  0
   -2.0245    2.9025    0.0000 H   0  0  0  0  0  0  0  0  0  0  0  0
    2.1434   -3.0325    0.0000 H   0  0  0  0  0  0  0  0  0  0  0  0
    0.0464   -2.3645    0.0000 H   0  0  0  0  0  0  0  0  0  0  0  0
   -2.1434    1.3825    0.0000 H   0  0  0  0  0  0  0  0  0  0  0  0
   -0.0464    0.7145    0.0000 H   0  0  0  0  0  0  0  0  0  0  0  0
  1  7  1  0  0  0  0
  1 33  1  1  0  0  0
  2  1  1  0  0  0  0
  2 23  1  0  0  0  0
  2 34  1  6  0  0  0
  3  1  1  0  0  0  0
  3 24  1  0  0  0  0
  3 35  1  1  0  0  0
  4  2  1  0  0  0  0
  4 25  1  0  0  0  0
  4 36  1  1  0  0  0
  5  3  1  0  0  0  0
  5 26  1  0  0  0  0
  5 37  1  6  0  0  0
  6  4  1  0  0  0  0
  6  5  1  0  0  0  0
  6 27  1  0  0  0  0
  6 38  1  1  0  0  0
  7 39  1  0  0  0  0
  8 40  1  0  0  0  0
  9 41  1  0  0  0  0
 11 42  1  0  0  0  0
 12 43  1  0  0  0  0
 14 44  1  0  0  0  0
 15 45  1  0  0  0  0
 17 46  1  0  0  0  0
 18 47  1  0  0  0  0
 20 48  1  0  0  0  0
 21 49  1  0  0  0  0
 28  8  1  0  0  0  0
 28  9  1  0  0  0  0
 28 10  2  0  0  0  0
 28 23  1  0  0  0  0
 29 11  1  0  0  0  0
 29 12  1  0  0  0  0
 29 13  2  0  0  0  0
 29 24  1  0  0  0  0
 30 14  1  0  0  0  0
 30 15  1  0  0  0  0
 30 16  2  0  0  0  0
 30 25  1  0  0  0  0
 31 17  1  0  0  0  0
 31 18  1  0  0  0  0
 31 19  2  0  0  0  0
 31 26  1  0  0  0  0
 32 20  1  0  0  0  0
 32 21  1  0  0  0  0
 32 22  2  0  0  0  0
 32 27  1  0  0  0  0
M  END
>  <DRUGBANK_ID>
DB03344

>  <SECONDARY_ACCESSION_NUMBERS>
EXPT01818

>  <COMMON_NAME>
Inositol-(1,3,4,5,6)-Pentakisphosphate

$$$$
