
 OpenBabel10282417072D

 28 29  0  0  0  0  0  0  0  0999 V2000
    2.0367    2.0009    0.0000 O   0  0  0  0  0  0  0  0  0  0  0  0
    2.7512    2.4134    0.0000 C   0  0  0  0  0  0  0  0  0  0  0  0
    2.7512    3.2384    0.0000 C   0  0  0  0  0  0  0  0  0  0  0  0
    3.4656    3.6509    0.0000 C   0  0  0  0  0  0  0  0  0  0  0  0
    4.1801    3.2384    0.0000 C   0  0  0  0  0  0  0  0  0  0  0  0
    4.1801    2.4134    0.0000 C   0  0  0  0  0  0  0  0  0  0  0  0
    4.8946    2.0009    0.0000 O   0  0  0  0  0  0  0  0  0  0  0  0
    3.4656    2.0009    0.0000 N   0  0  0  0  0  0  0  0  0  0  0  0
    3.4656    1.1759    0.0000 C   0  0  0  0  0  0  0  0  0  0  0  0
    4.1801    0.7634    0.0000 C   0  0  0  0  0  0  0  0  0  0  0  0
    4.1801   -0.0616    0.0000 C   0  0  0  0  0  0  0  0  0  0  0  0
    4.8476   -0.5465    0.0000 C   0  0  0  0  0  0  0  0  0  0  0  0
    4.5926   -1.3312    0.0000 N   0  0  0  0  0  0  0  0  0  0  0  0
    3.7676   -1.3312    0.0000 C   0  0  0  0  0  0  0  0  0  0  0  0
    3.5127   -0.5465    0.0000 N   0  0  0  0  0  0  0  0  0  0  0  0
    1.8245    3.7734    0.0000 H   0  0  0  0  0  0  0  0  0  0  0  0
    2.7512    4.3084    0.0000 H   0  0  0  0  0  0  0  0  0  0  0  0
    3.4656    4.7209    0.0000 H   0  0  0  0  0  0  0  0  0  0  0  0
    4.3922    4.1859    0.0000 H   0  0  0  0  0  0  0  0  0  0  0  0
    5.1067    3.7734    0.0000 H   0  0  0  0  0  0  0  0  0  0  0  0
    5.1067    2.7034    0.0000 H   0  0  0  0  0  0  0  0  0  0  0  0
    2.5390    0.6409    0.0000 H   0  0  0  0  0  0  0  0  0  0  0  0
    3.4656    0.1059    0.0000 H   0  0  0  0  0  0  0  0  0  0  0  0
    5.1067    1.2984    0.0000 H   0  0  0  0  0  0  0  0  0  0  0  0
    5.1067    0.2284    0.0000 H   0  0  0  0  0  0  0  0  0  0  0  0
    5.8291   -0.2276    0.0000 H   0  0  0  0  0  0  0  0  0  0  0  0
    3.1610   -2.1661    0.0000 H   0  0  0  0  0  0  0  0  0  0  0  0
    2.5764   -0.2422    0.0000 H   0  0  0  0  0  0  0  0  0  0  0  0
  1  2  2  0  0  0  0
  2  3  1  0  0  0  0
  2  8  1  0  0  0  0
  3  4  1  0  0  0  0
  3 16  1  0  0  0  0
  3 17  1  0  0  0  0
  4  5  1  0  0  0  0
  4 18  1  0  0  0  0
  4 19  1  0  0  0  0
  5  6  1  0  0  0  0
  5 20  1  0  0  0  0
  5 21  1  0  0  0  0
  6  7  2  0  0  0  0
  6  8  1  0  0  0  0
  8  9  1  0  0  0  0
  9 10  1  0  0  0  0
  9 22  1  0  0  0  0
  9 23  1  0  0  0  0
 10 11  1  0  0  0  0
 10 24  1  0  0  0  0
 10 25  1  0  0  0  0
 11 12  2  0  0  0  0
 11 15  1  0  0  0  0
 12 13  1  0  0  0  0
 12 26  1  0  0  0  0
 13 14  2  0  0  0  0
 14 15  1  0  0  0  0
 14 27  1  0  0  0  0
 15 28  1  0  0  0  0
M  END
>  <DRUGBANK_ID>
DB16016

>  <COMMON_NAME>
Histamine glutarimide

>  <CAS_NUMBER>
1464897-15-1

>  <UNII>
VOM9DP10M3

$$$$
