GS7
 OpenBabel10282417072D

 55 58  0  0  0  0  0  0  0  0999 V2000
   -0.8528    1.4669    0.0000 C   0  0  0  0  0  0  0  0  0  0  0  0
   -0.1383    1.0544    0.0000 N   0  0  0  0  0  0  0  0  0  0  0  0
   -1.5673    1.0544    0.0000 C   0  0  0  0  0  0  0  0  0  0  0  0
   -1.5673    0.2294    0.0000 C   0  0  0  0  0  0  0  0  0  0  0  0
   -2.3519   -0.0256    0.0000 N   0  0  0  0  0  0  0  0  0  0  0  0
   -2.8368    0.6419    0.0000 C   0  0  0  0  0  0  0  0  0  0  0  0
   -2.3519    1.3093    0.0000 C   0  0  0  0  0  0  0  0  0  0  0  0
   -0.8528   -0.1831    0.0000 N   0  0  0  0  0  0  0  0  0  0  0  0
   -0.1383    0.2294    0.0000 C   0  0  0  0  0  0  0  0  0  0  0  0
    0.5761   -0.1831    0.0000 N   0  0  0  0  0  0  0  0  0  0  0  0
    0.5761   -1.0081    0.0000 C   0  0  0  0  0  0  0  0  0  0  0  0
    1.2906   -1.4206    0.0000 C   0  0  0  0  0  0  0  0  0  0  0  0
    2.0051   -1.0081    0.0000 O   0  0  0  0  0  0  0  0  0  0  0  0
    2.7195   -1.4206    0.0000 C   0  0  0  0  0  0  0  0  0  0  0  0
   -0.1383   -1.4206    0.0000 C   0  0  0  0  0  0  0  0  0  0  0  0
   -0.1383   -2.2456    0.0000 C   0  0  0  0  0  0  0  0  0  0  0  0
    0.5761   -2.6581    0.0000 C   0  0  0  0  0  0  0  0  0  0  0  0
    1.2906   -2.2456    0.0000 C   0  0  0  0  0  0  0  0  0  0  0  0
    0.5761   -3.4831    0.0000 C   0  0  0  0  0  0  0  0  0  0  0  0
    1.2906   -3.8956    0.0000 S   0  0  0  0  0  0  0  0  0  0  0  0
    2.0051   -4.3081    0.0000 O   0  0  0  0  0  0  0  0  0  0  0  0
    1.7031   -3.1812    0.0000 O   0  0  0  0  0  0  0  0  0  0  0  0
    0.8781   -4.6101    0.0000 C   0  0  0  0  0  0  0  0  0  0  0  0
   -1.5673    3.5294    0.0000 O   0  0  0  0  0  0  0  0  0  0  0  0
   -0.8528    3.9419    0.0000 C   0  0  0  0  0  0  0  0  0  0  0  0
   -0.8528    4.7669    0.0000 N   0  0  0  0  0  0  0  0  0  0  0  0
   -0.1383    3.5294    0.0000 C   0  0  0  0  0  0  0  0  0  0  0  0
    0.5761    3.9419    0.0000 C   0  0  0  0  0  0  0  0  0  0  0  0
    0.5761    4.7669    0.0000 F   0  0  0  0  0  0  0  0  0  0  0  0
    1.2906    3.5294    0.0000 C   0  0  0  0  0  0  0  0  0  0  0  0
    1.2906    2.7044    0.0000 C   0  0  0  0  0  0  0  0  0  0  0  0
    0.5761    2.2919    0.0000 C   0  0  0  0  0  0  0  0  0  0  0  0
   -0.1383    2.7044    0.0000 C   0  0  0  0  0  0  0  0  0  0  0  0
   -0.8528    2.2919    0.0000 N   0  0  0  0  0  0  0  0  0  0  0  0
   -2.6561   -0.9619    0.0000 H   0  0  0  0  0  0  0  0  0  0  0  0
   -3.8688    0.6419    0.0000 H   0  0  0  0  0  0  0  0  0  0  0  0
   -2.6708    2.2908    0.0000 H   0  0  0  0  0  0  0  0  0  0  0  0
    1.4287    0.3091    0.0000 H   0  0  0  0  0  0  0  0  0  0  0  0
    2.7195   -2.4906    0.0000 H   0  0  0  0  0  0  0  0  0  0  0  0
    3.6462   -0.8856    0.0000 H   0  0  0  0  0  0  0  0  0  0  0  0
    3.6461   -1.9556    0.0000 H   0  0  0  0  0  0  0  0  0  0  0  0
   -1.0320   -0.9046    0.0000 H   0  0  0  0  0  0  0  0  0  0  0  0
   -1.0320   -2.7616    0.0000 H   0  0  0  0  0  0  0  0  0  0  0  0
    2.1843   -2.7616    0.0000 H   0  0  0  0  0  0  0  0  0  0  0  0
   -0.3505   -4.0181    0.0000 H   0  0  0  0  0  0  0  0  0  0  0  0
    0.5761   -4.5531    0.0000 H   0  0  0  0  0  0  0  0  0  0  0  0
   -0.1919   -4.6101    0.0000 H   0  0  0  0  0  0  0  0  0  0  0  0
    1.4131   -5.5367    0.0000 H   0  0  0  0  0  0  0  0  0  0  0  0
    0.3431   -5.5368    0.0000 H   0  0  0  0  0  0  0  0  0  0  0  0
   -0.0002    5.2591    0.0000 H   0  0  0  0  0  0  0  0  0  0  0  0
   -1.7054    5.2591    0.0000 H   0  0  0  0  0  0  0  0  0  0  0  0
    2.1843    4.0454    0.0000 H   0  0  0  0  0  0  0  0  0  0  0  0
    2.1843    2.1884    0.0000 H   0  0  0  0  0  0  0  0  0  0  0  0
    0.5761    1.2599    0.0000 H   0  0  0  0  0  0  0  0  0  0  0  0
   -1.7054    2.7842    0.0000 H   0  0  0  0  0  0  0  0  0  0  0  0
  1  2  2  0  0  0  0
  1  3  1  0  0  0  0
  1 34  1  0  0  0  0
  2  9  1  0  0  0  0
  3  4  2  0  0  0  0
  3  7  1  0  0  0  0
  4  5  1  0  0  0  0
  4  8  1  0  0  0  0
  5  6  1  0  0  0  0
  5 35  1  0  0  0  0
  6  7  2  0  0  0  0
  6 36  1  0  0  0  0
  7 37  1  0  0  0  0
  8  9  2  0  0  0  0
  9 10  1  0  0  0  0
 10 11  1  0  0  0  0
 10 38  1  0  0  0  0
 11 12  2  0  0  0  0
 11 15  1  0  0  0  0
 12 13  1  0  0  0  0
 12 18  1  0  0  0  0
 13 14  1  0  0  0  0
 14 39  1  0  0  0  0
 14 40  1  0  0  0  0
 14 41  1  0  0  0  0
 15 16  2  0  0  0  0
 15 42  1  0  0  0  0
 16 17  1  0  0  0  0
 16 43  1  0  0  0  0
 17 18  2  0  0  0  0
 17 19  1  0  0  0  0
 18 44  1  0  0  0  0
 19 20  1  0  0  0  0
 19 45  1  0  0  0  0
 19 46  1  0  0  0  0
 20 21  2  0  0  0  0
 20 22  2  0  0  0  0
 20 23  1  0  0  0  0
 23 47  1  0  0  0  0
 23 48  1  0  0  0  0
 23 49  1  0  0  0  0
 24 25  2  0  0  0  0
 25 26  1  0  0  0  0
 25 27  1  0  0  0  0
 26 50  1  0  0  0  0
 26 51  1  0  0  0  0
 27 28  2  0  0  0  0
 27 33  1  0  0  0  0
 28 29  1  0  0  0  0
 28 30  1  0  0  0  0
 30 31  2  0  0  0  0
 30 52  1  0  0  0  0
 31 32  1  0  0  0  0
 31 53  1  0  0  0  0
 32 33  2  0  0  0  0
 32 54  1  0  0  0  0
 33 34  1  0  0  0  0
 34 55  1  0  0  0  0
M  END
>  <DRUGBANK_ID>
DB07845

>  <COMMON_NAME>
2-fluoro-6-{[2-({2-methoxy-4-[(methylsulfonyl)methyl]phenyl}amino)-7H-pyrrolo[2,3-d]pyrimidin-4-yl]amino}benzamide

$$$$
