
 OpenBabel10282417072D

 77 80  0  0  0  0  0  0  0  0999 V2000
   -3.5973   -2.4842    0.0000 C   0  0  0  0  0  0  0  0  0  0  0  0
   -1.4294    3.2918    0.0000 C   0  0  0  0  0  0  0  0  0  0  0  0
   -2.0497   -2.9398    0.0000 C   0  0  0  0  0  0  0  0  0  0  0  0
   -3.3099    1.4818    0.0000 C   0  0  0  0  0  0  0  0  0  0  0  0
    1.1946   -2.9086    0.0000 C   0  0  0  0  0  0  0  0  0  0  0  0
    1.1385    2.8178    0.0000 C   0  0  0  0  0  0  0  0  0  0  0  0
   -3.3113   -1.7103    0.0000 C   0  0  0  0  0  0  0  0  0  0  0  0
   -2.0597    2.7595    0.0000 C   0  0  0  0  0  0  0  0  0  0  0  0
    2.4152   -1.6664    0.0000 C   0  0  0  0  0  0  0  0  0  0  0  0
    2.3897    1.5778    0.0000 C   0  0  0  0  0  0  0  0  0  0  0  0
    2.7089   -2.4373    0.0000 C   0  0  0  0  0  0  0  0  0  0  0  0
    2.6874    2.3473    0.0000 C   0  0  0  0  0  0  0  0  0  0  0  0
   -0.4439   -2.1095    0.0000 C   0  0  0  0  0  0  0  0  0  0  0  0
   -2.5109   -0.1073    0.0000 C   0  0  0  0  0  0  0  0  0  0  0  0
   -0.4504    1.9895    0.0000 C   0  0  0  0  0  0  0  0  0  0  0  0
    1.5876   -0.0422    0.0000 C   0  0  0  0  0  0  0  0  0  0  0  0
   -1.9370   -2.1225    0.0000 C   0  0  0  0  0  0  0  0  0  0  0  0
   -2.4944    1.3568    0.0000 C   0  0  0  0  0  0  0  0  0  0  0  0
    1.0493   -2.0965    0.0000 C   0  0  0  0  0  0  0  0  0  0  0  0
    1.0135    2.0023    0.0000 C   0  0  0  0  0  0  0  0  0  0  0  0
   -2.4981   -1.5711    0.0000 C   0  0  0  0  0  0  0  0  0  0  0  0
   -1.9139    1.9475    0.0000 C   0  0  0  0  0  0  0  0  0  0  0  0
    1.6007   -1.5353    0.0000 C   0  0  0  0  0  0  0  0  0  0  0  0
    1.5746    1.4509    0.0000 C   0  0  0  0  0  0  0  0  0  0  0  0
   -1.1794   -1.7060    0.0000 C   0  0  0  0  0  0  0  0  0  0  0  0
    0.2555   -1.7228    0.0000 C   0  0  0  0  0  0  0  0  0  0  0  0
   -2.1369    0.6573    0.0000 C   0  0  0  0  0  0  0  0  0  0  0  0
    0.2556    1.6151    0.0000 C   0  0  0  0  0  0  0  0  0  0  0  0
   -2.1241   -0.8066    0.0000 C   0  0  0  0  0  0  0  0  0  0  0  0
   -1.1790    1.6026    0.0000 C   0  0  0  0  0  0  0  0  0  0  0  0
    1.2132   -0.7482    0.0000 C   0  0  0  0  0  0  0  0  0  0  0  0
    1.1714    0.6861    0.0000 C   0  0  0  0  0  0  0  0  0  0  0  0
    3.5235   -2.5684    0.0000 C   0  0  0  0  0  0  0  0  0  0  0  0
    3.5026    2.4742    0.0000 C   0  0  0  0  0  0  0  0  0  0  0  0
   -1.3031   -0.9458    0.0000 N   0  5  0  0  0  0  0  0  0  0  0  0
   -1.3477    0.8105    0.0000 N   0  5  0  0  0  0  0  0  0  0  0  0
    0.3950   -0.9310    0.0000 N   0  5  0  0  0  0  0  0  0  0  0  0
    0.4092    0.7966    0.0000 N   0  5  0  0  0  0  0  0  0  0  0  0
    4.0442   -1.9285    0.0000 O   0  0  0  0  0  0  0  0  0  0  0  0
    3.8172   -3.3393    0.0000 O   0  0  0  0  0  0  0  0  0  0  0  0
    3.8002    3.2436    0.0000 O   0  0  0  0  0  0  0  0  0  0  0  0
    4.0201    1.8317    0.0000 O   0  0  0  0  0  0  0  0  0  0  0  0
    6.4014    0.0000    0.0000 Zn  0  0  0  0  0  0  0  0  0  0  0  0
   -3.8385   -1.0757    0.0000 H   0  0  0  0  0  0  0  0  0  0  0  0
   -2.8359    3.0393    0.0000 H   0  0  0  0  0  0  0  0  0  0  0  0
   -0.4426   -2.9345    0.0000 H   0  0  0  0  0  0  0  0  0  0  0  0
   -3.3357   -0.1280    0.0000 H   0  0  0  0  0  0  0  0  0  0  0  0
   -0.4507    2.8145    0.0000 H   0  0  0  0  0  0  0  0  0  0  0  0
    2.4125   -0.0292    0.0000 H   0  0  0  0  0  0  0  0  0  0  0  0
   -4.6519   -2.6648    0.0000 H   0  0  0  0  0  0  0  0  0  0  0  0
   -2.9136   -3.3072    0.0000 H   0  0  0  0  0  0  0  0  0  0  0  0
   -3.9682   -3.4879    0.0000 H   0  0  0  0  0  0  0  0  0  0  0  0
   -0.4228    2.9290    0.0000 H   0  0  0  0  0  0  0  0  0  0  0  0
   -1.6185    4.3449    0.0000 H   0  0  0  0  0  0  0  0  0  0  0  0
   -0.6119    3.9822    0.0000 H   0  0  0  0  0  0  0  0  0  0  0  0
   -3.0407   -3.3432    0.0000 H   0  0  0  0  0  0  0  0  0  0  0  0
   -1.2048   -3.5964    0.0000 H   0  0  0  0  0  0  0  0  0  0  0  0
   -2.1959   -3.9998    0.0000 H   0  0  0  0  0  0  0  0  0  0  0  0
   -3.6983    2.4788    0.0000 H   0  0  0  0  0  0  0  0  0  0  0  0
   -3.9791    0.6469    0.0000 H   0  0  0  0  0  0  0  0  0  0  0  0
   -4.3675    1.6439    0.0000 H   0  0  0  0  0  0  0  0  0  0  0  0
    0.3767   -3.5984    0.0000 H   0  0  0  0  0  0  0  0  0  0  0  0
    2.2010   -3.2720    0.0000 H   0  0  0  0  0  0  0  0  0  0  0  0
    1.3831   -3.9619    0.0000 H   0  0  0  0  0  0  0  0  0  0  0  0
    2.1355    3.2062    0.0000 H   0  0  0  0  0  0  0  0  0  0  0  0
    0.3036    3.4870    0.0000 H   0  0  0  0  0  0  0  0  0  0  0  0
    1.3006    3.8754    0.0000 H   0  0  0  0  0  0  0  0  0  0  0  0
    3.0907   -0.8365    0.0000 H   0  0  0  0  0  0  0  0  0  0  0  0
    2.0343   -0.6665    0.0000 H   0  0  0  0  0  0  0  0  0  0  0  0
    3.0609    0.7445    0.0000 H   0  0  0  0  0  0  0  0  0  0  0  0
    2.0036    0.5799    0.0000 H   0  0  0  0  0  0  0  0  0  0  0  0
    2.0334   -3.2672    0.0000 H   0  0  0  0  0  0  0  0  0  0  0  0
    3.0899   -3.4372    0.0000 H   0  0  0  0  0  0  0  0  0  0  0  0
    2.0162    3.1806    0.0000 H   0  0  0  0  0  0  0  0  0  0  0  0
    3.0735    3.3452    0.0000 H   0  0  0  0  0  0  0  0  0  0  0  0
    3.2257   -4.0660    0.0000 H   0  0  0  0  0  0  0  0  0  0  0  0
    3.6820    0.9578    0.0000 H   0  0  0  0  0  0  0  0  0  0  0  0
  1 50  1  0  0  0  0
  1 51  1  0  0  0  0
  1 52  1  0  0  0  0
  2 53  1  0  0  0  0
  2 54  1  0  0  0  0
  2 55  1  0  0  0  0
  3 56  1  0  0  0  0
  3 57  1  0  0  0  0
  3 58  1  0  0  0  0
  4 59  1  0  0  0  0
  4 60  1  0  0  0  0
  4 61  1  0  0  0  0
  5 62  1  0  0  0  0
  5 63  1  0  0  0  0
  5 64  1  0  0  0  0
  6 65  1  0  0  0  0
  6 66  1  0  0  0  0
  6 67  1  0  0  0  0
  7  1  1  0  0  0  0
  8  2  1  0  0  0  0
  9 68  1  0  0  0  0
  9 69  1  0  0  0  0
 10 70  1  0  0  0  0
 10 71  1  0  0  0  0
 11  9  1  0  0  0  0
 11 72  1  0  0  0  0
 11 73  1  0  0  0  0
 12 10  1  0  0  0  0
 12 74  1  0  0  0  0
 12 75  1  0  0  0  0
 17  3  1  0  0  0  0
 18  4  1  0  0  0  0
 19  5  1  0  0  0  0
 20  6  1  0  0  0  0
 21  7  2  0  0  0  0
 21 17  1  0  0  0  0
 22  8  2  3  0  0  0
 22 18  1  0  0  0  0
 23  9  1  0  0  0  0
 23 19  2  0  0  0  0
 24 10  1  0  0  0  0
 24 20  1  0  0  0  0
 25 13  1  0  0  0  0
 25 17  2  0  0  0  0
 26 13  2  0  0  0  0
 26 19  1  0  0  0  0
 27 14  1  0  0  0  0
 27 18  2  0  0  0  0
 28 15  1  0  0  0  0
 28 20  2  0  0  0  0
 29 14  2  0  0  0  0
 29 21  1  0  0  0  0
 30 15  2  0  0  0  0
 30 22  1  0  0  0  0
 31 16  2  0  0  0  0
 31 23  1  0  0  0  0
 32 16  1  0  0  0  0
 32 24  2  0  0  0  0
 33 11  1  0  0  0  0
 34 12  1  0  0  0  0
 35 25  1  0  0  0  0
 35 29  1  0  0  0  0
 36 27  1  0  0  0  0
 36 30  1  0  0  0  0
 37 26  1  0  0  0  0
 37 31  1  0  0  0  0
 38 28  1  0  0  0  0
 38 32  1  0  0  0  0
 39 33  2  0  0  0  0
 40 33  1  0  0  0  0
 40 76  1  0  0  0  0
 41 34  2  0  0  0  0
 42 34  1  0  0  0  0
 42 77  1  0  0  0  0
 44  7  1  0  0  0  0
 45  8  1  0  0  0  0
 46 13  1  0  0  0  0
 47 14  1  0  0  0  0
 48 15  1  0  0  0  0
 49 16  1  0  0  0  0
M  CHG  5  35  -1  36  -1  37  -1  38  -1  43   4
M  END
>  <DRUGBANK_ID>
DB04249

>  <SECONDARY_ACCESSION_NUMBERS>
EXPT01728

>  <COMMON_NAME>
Zinc Substituted Heme C

$$$$
