219090
 OpenBabel10282417072D

 63 66  0  0  1  0  0  0  0  0999 V2000
    8.5947   -3.9756    0.0000 P   0  0  0  0  0  0  0  0  0  0  0  0
    3.0790   -2.2299    0.0000 F   0  0  0  0  0  0  0  0  0  0  0  0
    1.6500    1.0702    0.0000 F   0  0  0  0  0  0  0  0  0  0  0  0
    2.7770    0.7682    0.0000 F   0  0  0  0  0  0  0  0  0  0  0  0
    1.9520    2.1972    0.0000 F   0  0  0  0  0  0  0  0  0  0  0  0
    3.7935    4.7828    0.0000 F   0  0  0  0  0  0  0  0  0  0  0  0
    4.6185    3.9578    0.0000 F   0  0  0  0  0  0  0  0  0  0  0  0
    2.9685    3.9578    0.0000 F   0  0  0  0  0  0  0  0  0  0  0  0
    6.6515    0.6577    0.0000 O   0  0  0  0  0  0  0  0  0  0  0  0
    5.2224    0.6577    0.0000 O   0  0  0  0  0  0  0  0  0  0  0  0
    9.4922   -2.4212    0.0000 O   0  0  0  0  0  0  0  0  0  0  0  0
    8.9303   -4.7293    0.0000 O   0  0  0  0  0  0  0  0  0  0  0  0
    9.3484   -3.6401    0.0000 O   0  0  0  0  0  0  0  0  0  0  0  0
    7.8411   -4.3112    0.0000 O   0  0  0  0  0  0  0  0  0  0  0  0
    6.6515   -0.9923    0.0000 N   0  0  0  0  0  0  0  0  0  0  0  0
    7.4521   -3.0504    0.0000 N   0  0  0  0  0  0  0  0  0  0  0  0
    8.1197   -1.8943    0.0000 N   0  0  0  0  0  0  0  0  0  0  0  0
    8.2592   -3.2219    0.0000 N   0  0  0  0  0  0  0  0  0  0  0  0
    5.9370   -0.5798    0.0000 C   0  0  2  0  0  0  0  0  0  0  0  0
    5.9370    0.2452    0.0000 C   0  0  2  0  0  0  0  0  0  0  0  0
    7.3659   -0.5798    0.0000 C   0  0  0  0  0  0  0  0  0  0  0  0
    7.3659    0.2452    0.0000 C   0  0  0  0  0  0  0  0  0  0  0  0
    6.6515   -1.8173    0.0000 C   0  0  0  0  0  0  0  0  0  0  0  0
    5.2224   -0.9923    0.0000 C   0  0  0  0  0  0  0  0  0  0  0  0
    5.2224    1.4827    0.0000 C   0  0  1  0  0  0  0  0  0  0  0  0
    7.3659   -2.2299    0.0000 C   0  0  0  0  0  0  0  0  0  0  0  0
    4.5080   -0.5798    0.0000 C   0  0  0  0  0  0  0  0  0  0  0  0
    5.2224   -1.8173    0.0000 C   0  0  0  0  0  0  0  0  0  0  0  0
    4.5080    1.8952    0.0000 C   0  0  0  0  0  0  0  0  0  0  0  0
    5.9370    1.8952    0.0000 C   0  0  0  0  0  0  0  0  0  0  0  0
    3.7935   -0.9923    0.0000 C   0  0  0  0  0  0  0  0  0  0  0  0
    4.5080   -2.2299    0.0000 C   0  0  0  0  0  0  0  0  0  0  0  0
    4.5080    2.7202    0.0000 C   0  0  0  0  0  0  0  0  0  0  0  0
    3.7935    1.4827    0.0000 C   0  0  0  0  0  0  0  0  0  0  0  0
    3.7935   -1.8173    0.0000 C   0  0  0  0  0  0  0  0  0  0  0  0
    8.6717   -2.5074    0.0000 C   0  0  0  0  0  0  0  0  0  0  0  0
    3.7935    3.1328    0.0000 C   0  0  0  0  0  0  0  0  0  0  0  0
    3.0790    1.8952    0.0000 C   0  0  0  0  0  0  0  0  0  0  0  0
    3.0790    2.7202    0.0000 C   0  0  0  0  0  0  0  0  0  0  0  0
    2.3645    1.4827    0.0000 C   0  0  0  0  0  0  0  0  0  0  0  0
    3.7935    3.9578    0.0000 C   0  0  0  0  0  0  0  0  0  0  0  0
    8.3602   -5.5141    0.0000 H   0  0  0  0  0  0  0  0  0  0  0  0
   10.1331   -4.2103    0.0000 H   0  0  0  0  0  0  0  0  0  0  0  0
    6.7205   -3.7092    0.0000 H   0  0  0  0  0  0  0  0  0  0  0  0
    5.9370   -1.6498    0.0000 H   0  0  0  0  0  0  0  0  0  0  0  0
    5.9370    1.3152    0.0000 H   0  0  0  0  0  0  0  0  0  0  0  0
    8.2926   -1.1148    0.0000 H   0  0  0  0  0  0  0  0  0  0  0  0
    8.2925   -0.0448    0.0000 H   0  0  0  0  0  0  0  0  0  0  0  0
    8.2926    0.7802    0.0000 H   0  0  0  0  0  0  0  0  0  0  0  0
    8.2925   -0.2898    0.0000 H   0  0  0  0  0  0  0  0  0  0  0  0
    5.7248   -2.3522    0.0000 H   0  0  0  0  0  0  0  0  0  0  0  0
    6.6514   -2.8873    0.0000 H   0  0  0  0  0  0  0  0  0  0  0  0
    4.2957    0.9477    0.0000 H   0  0  0  0  0  0  0  0  0  0  0  0
    4.5080    0.4522    0.0000 H   0  0  0  0  0  0  0  0  0  0  0  0
    6.1162   -2.3332    0.0000 H   0  0  0  0  0  0  0  0  0  0  0  0
    6.8636    1.3601    0.0000 H   0  0  0  0  0  0  0  0  0  0  0  0
    5.9371    2.9652    0.0000 H   0  0  0  0  0  0  0  0  0  0  0  0
    6.8637    2.4301    0.0000 H   0  0  0  0  0  0  0  0  0  0  0  0
    2.8998   -0.4763    0.0000 H   0  0  0  0  0  0  0  0  0  0  0  0
    4.5080   -3.2619    0.0000 H   0  0  0  0  0  0  0  0  0  0  0  0
    5.4018    3.2362    0.0000 H   0  0  0  0  0  0  0  0  0  0  0  0
    3.7935    0.4507    0.0000 H   0  0  0  0  0  0  0  0  0  0  0  0
    2.1852    3.2362    0.0000 H   0  0  0  0  0  0  0  0  0  0  0  0
  1 12  1  0  0  0  0
  1 13  1  0  0  0  0
  1 14  2  0  0  0  0
  1 18  1  0  0  0  0
  2 35  1  0  0  0  0
  3 40  1  0  0  0  0
  4 40  1  0  0  0  0
  5 40  1  0  0  0  0
  6 41  1  0  0  0  0
  7 41  1  0  0  0  0
  8 41  1  0  0  0  0
  9 20  1  0  0  0  0
  9 22  1  0  0  0  0
 11 36  2  0  0  0  0
 12 42  1  0  0  0  0
 13 43  1  0  0  0  0
 15 19  1  0  0  0  0
 15 21  1  0  0  0  0
 15 23  1  0  0  0  0
 16 18  1  0  0  0  0
 16 26  1  0  0  0  0
 16 44  1  0  0  0  0
 17 26  2  0  0  0  0
 17 36  1  0  0  0  0
 18 36  1  0  0  0  0
 19 20  1  0  0  0  0
 19 24  1  0  0  0  0
 19 45  1  6  0  0  0
 20 10  1  0  0  0  0
 20 46  1  6  0  0  0
 21 22  1  0  0  0  0
 21 47  1  0  0  0  0
 21 48  1  0  0  0  0
 22 49  1  0  0  0  0
 22 50  1  0  0  0  0
 23 26  1  0  0  0  0
 23 51  1  0  0  0  0
 23 52  1  0  0  0  0
 24 27  2  0  0  0  0
 24 28  1  0  0  0  0
 25 10  1  0  0  0  0
 25 29  1  0  0  0  0
 25 30  1  0  0  0  0
 25 53  1  6  0  0  0
 27 31  1  0  0  0  0
 27 54  1  0  0  0  0
 28 32  2  0  0  0  0
 28 55  1  0  0  0  0
 29 33  2  0  0  0  0
 29 34  1  0  0  0  0
 30 56  1  0  0  0  0
 30 57  1  0  0  0  0
 30 58  1  0  0  0  0
 31 35  2  0  0  0  0
 31 59  1  0  0  0  0
 32 35  1  0  0  0  0
 32 60  1  0  0  0  0
 33 37  1  0  0  0  0
 33 61  1  0  0  0  0
 34 38  2  0  0  0  0
 34 62  1  0  0  0  0
 37 39  2  0  0  0  0
 37 41  1  0  0  0  0
 38 39  1  0  0  0  0
 38 40  1  0  0  0  0
 39 63  1  0  0  0  0
M  END
>  <DRUGBANK_ID>
DB06717

>  <COMMON_NAME>
Fosaprepitant

>  <CAS_NUMBER>
172673-20-0

>  <UNII>
6L8OF9XRDC

>  <SYNONYMS>
FosaprÃ©pitant; Fosaprepitant; Fosaprepitantum

$$$$
