1242
 OpenBabel10282417072D

 45 47  0  0  0  0  0  0  0  0999 V2000
    1.5842    0.1860    0.0000 Cl  0  0  0  0  0  0  0  0  0  0  0  0
    4.2627    0.7166    0.0000 N   0  0  0  0  0  0  0  0  0  0  0  0
    5.6347   -1.6596    0.0000 N   0  0  0  0  0  0  0  0  0  0  0  0
    4.2627   -0.0755    0.0000 C   0  0  0  0  0  0  0  0  0  0  0  0
    3.5491    1.0603    0.0000 C   0  0  0  0  0  0  0  0  0  0  0  0
    4.9763    1.0603    0.0000 C   0  0  0  0  0  0  0  0  0  0  0  0
    3.8667    2.4517    0.0000 C   0  0  0  0  0  0  0  0  0  0  0  0
    4.6588    2.4517    0.0000 C   0  0  0  0  0  0  0  0  0  0  0  0
    3.3729    1.8325    0.0000 C   0  0  0  0  0  0  0  0  0  0  0  0
    5.1526    1.8325    0.0000 C   0  0  0  0  0  0  0  0  0  0  0  0
    4.9488   -0.4715    0.0000 C   0  0  0  0  0  0  0  0  0  0  0  0
    4.9488   -1.2636    0.0000 C   0  0  0  0  0  0  0  0  0  0  0  0
    2.9530    0.4898    0.0000 C   0  0  0  0  0  0  0  0  0  0  0  0
    5.5725    0.4898    0.0000 C   0  0  0  0  0  0  0  0  0  0  0  0
    2.5884    2.0878    0.0000 C   0  0  0  0  0  0  0  0  0  0  0  0
    5.9373    2.0878    0.0000 C   0  0  0  0  0  0  0  0  0  0  0  0
    2.1627    0.7270    0.0000 C   0  0  0  0  0  0  0  0  0  0  0  0
    6.3627    0.7269    0.0000 C   0  0  0  0  0  0  0  0  0  0  0  0
    1.9792    1.5314    0.0000 C   0  0  0  0  0  0  0  0  0  0  0  0
    6.5464    1.5313    0.0000 C   0  0  0  0  0  0  0  0  0  0  0  0
    5.6347   -2.4517    0.0000 C   0  0  0  0  0  0  0  0  0  0  0  0
    6.3207   -1.2636    0.0000 C   0  0  0  0  0  0  0  0  0  0  0  0
    3.3361   -0.6106    0.0000 H   0  0  0  0  0  0  0  0  0  0  0  0
    4.2628   -1.1455    0.0000 H   0  0  0  0  0  0  0  0  0  0  0  0
    3.4024    3.4157    0.0000 H   0  0  0  0  0  0  0  0  0  0  0  0
    2.8034    2.5715    0.0000 H   0  0  0  0  0  0  0  0  0  0  0  0
    5.1231    3.4157    0.0000 H   0  0  0  0  0  0  0  0  0  0  0  0
    5.7221    2.5715    0.0000 H   0  0  0  0  0  0  0  0  0  0  0  0
    5.8754    0.0636    0.0000 H   0  0  0  0  0  0  0  0  0  0  0  0
    5.8755   -1.0065    0.0000 H   0  0  0  0  0  0  0  0  0  0  0  0
    4.0222   -1.7986    0.0000 H   0  0  0  0  0  0  0  0  0  0  0  0
    4.0222   -0.7286    0.0000 H   0  0  0  0  0  0  0  0  0  0  0  0
    3.1942   -0.5136    0.0000 H   0  0  0  0  0  0  0  0  0  0  0  0
    5.3313   -0.5136    0.0000 H   0  0  0  0  0  0  0  0  0  0  0  0
    2.3705    3.0965    0.0000 H   0  0  0  0  0  0  0  0  0  0  0  0
    6.1553    3.0965    0.0000 H   0  0  0  0  0  0  0  0  0  0  0  0
    7.1165    0.0220    0.0000 H   0  0  0  0  0  0  0  0  0  0  0  0
    0.9943    1.8395    0.0000 H   0  0  0  0  0  0  0  0  0  0  0  0
    7.5314    1.8392    0.0000 H   0  0  0  0  0  0  0  0  0  0  0  0
    4.7081   -2.9867    0.0000 H   0  0  0  0  0  0  0  0  0  0  0  0
    6.5613   -2.9867    0.0000 H   0  0  0  0  0  0  0  0  0  0  0  0
    5.6347   -3.5217    0.0000 H   0  0  0  0  0  0  0  0  0  0  0  0
    7.2473   -1.7987    0.0000 H   0  0  0  0  0  0  0  0  0  0  0  0
    6.3208   -0.1936    0.0000 H   0  0  0  0  0  0  0  0  0  0  0  0
    7.2474   -0.7287    0.0000 H   0  0  0  0  0  0  0  0  0  0  0  0
  1 17  1  0  0  0  0
  2  4  1  0  0  0  0
  2  5  1  0  0  0  0
  2  6  1  0  0  0  0
  3 12  1  0  0  0  0
  3 21  1  0  0  0  0
  3 22  1  0  0  0  0
  4 11  1  0  0  0  0
  4 23  1  0  0  0  0
  4 24  1  0  0  0  0
  5  9  2  0  0  0  0
  5 13  1  0  0  0  0
  6 10  1  0  0  0  0
  6 14  2  0  0  0  0
  7  8  1  0  0  0  0
  7  9  1  0  0  0  0
  7 25  1  0  0  0  0
  7 26  1  0  0  0  0
  8 10  1  0  0  0  0
  8 27  1  0  0  0  0
  8 28  1  0  0  0  0
  9 15  1  0  0  0  0
 10 16  2  0  0  0  0
 11 12  1  0  0  0  0
 11 29  1  0  0  0  0
 11 30  1  0  0  0  0
 12 31  1  0  0  0  0
 12 32  1  0  0  0  0
 13 17  2  0  0  0  0
 13 33  1  0  0  0  0
 14 18  1  0  0  0  0
 14 34  1  0  0  0  0
 15 19  2  0  0  0  0
 15 35  1  0  0  0  0
 16 20  1  0  0  0  0
 16 36  1  0  0  0  0
 17 19  1  0  0  0  0
 18 20  2  0  0  0  0
 18 37  1  0  0  0  0
 19 38  1  0  0  0  0
 20 39  1  0  0  0  0
 21 40  1  0  0  0  0
 21 41  1  0  0  0  0
 21 42  1  0  0  0  0
 22 43  1  0  0  0  0
 22 44  1  0  0  0  0
 22 45  1  0  0  0  0
M  END
>  <DRUGBANK_ID>
DB01242

>  <SECONDARY_ACCESSION_NUMBERS>
APRD00253; DB07600

>  <COMMON_NAME>
Clomipramine

>  <CAS_NUMBER>
303-49-1

>  <UNII>
NUV44L116D

>  <SYNONYMS>
3-(3-chloro-10,11-dihydro-5H-dibenzo[b,f]azepin-5-yl)-N,N-dimethyl-1-propanamine; 3-(3-chloro-5H-dibenzo[b,F]azepin-5-yl)-N,N-dimethylpropan-1-amine; 3-Chloroimipramine; Chlorimipramine; Clomipramina; Clomipramine; Clomipraminum; Monochlorimipramine

$$$$
