1573
 OpenBabel10282417072D

 53 58  0  0  1  0  0  0  0  0999 V2000
    4.1891   -0.9864    0.0000 O   0  0  0  0  0  0  0  0  0  0  0  0
    3.9885   -3.1159    0.0000 O   0  0  0  0  0  0  0  0  0  0  0  0
    3.9885    1.0514    0.0000 O   0  0  0  0  0  0  0  0  0  0  0  0
    7.5974   -1.8572    0.0000 N   0  0  0  0  0  0  0  0  0  0  0  0
    5.4541   -1.4447    0.0000 C   0  0  1  0  0  0  0  0  0  0  0  0
    6.1685   -1.8572    0.0000 C   0  0  2  0  0  0  0  0  0  0  0  0
    6.8830   -1.4447    0.0000 C   0  0  1  0  0  0  0  0  0  0  0  0
    4.7397   -1.8572    0.0000 C   0  0  2  0  0  0  0  0  0  0  0  0
    5.9308   -0.8397    0.0000 C   0  0  0  0  0  0  0  0  0  0  0  0
    5.4541   -0.6198    0.0000 C   0  0  0  0  0  0  0  0  0  0  0  0
    6.8830   -0.6198    0.0000 C   0  0  0  0  0  0  0  0  0  0  0  0
    7.1041   -0.8397    0.0000 C   0  0  0  0  0  0  0  0  0  0  0  0
    6.1685   -0.2072    0.0000 C   0  0  0  0  0  0  0  0  0  0  0  0
    4.7397   -2.6822    0.0000 C   0  0  2  0  0  0  0  0  0  0  0  0
    6.1685   -2.6822    0.0000 C   0  0  0  0  0  0  0  0  0  0  0  0
    4.7397   -0.2072    0.0000 C   0  0  0  0  0  0  0  0  0  0  0  0
    5.4541   -3.0947    0.0000 C   0  0  0  0  0  0  0  0  0  0  0  0
    6.1685    0.6177    0.0000 C   0  0  0  0  0  0  0  0  0  0  0  0
    8.1883   -2.4923    0.0000 C   0  0  0  0  0  0  0  0  0  0  0  0
    4.7397    0.6177    0.0000 C   0  0  0  0  0  0  0  0  0  0  0  0
    5.4541    1.0302    0.0000 C   0  0  0  0  0  0  0  0  0  0  0  0
    3.9885    1.9188    0.0000 C   0  0  0  0  0  0  0  0  0  0  0  0
    3.2373    2.3526    0.0000 C   0  0  0  0  0  0  0  0  0  0  0  0
    2.4860    1.9189    0.0000 C   0  0  0  0  0  0  0  0  0  0  0  0
    3.2373    3.2200    0.0000 C   0  0  0  0  0  0  0  0  0  0  0  0
    1.7348    2.3526    0.0000 C   0  0  0  0  0  0  0  0  0  0  0  0
    2.4860    3.6537    0.0000 C   0  0  0  0  0  0  0  0  0  0  0  0
    1.7348    3.2200    0.0000 C   0  0  0  0  0  0  0  0  0  0  0  0
    6.6146   -2.3888    0.0000 H   0  0  0  0  0  0  0  0  0  0  0  0
    7.1209   -2.0966    0.0000 H   0  0  0  0  0  0  0  0  0  0  0  0
    4.0731   -2.0502    0.0000 H   0  0  0  0  0  0  0  0  0  0  0  0
    3.1485   -2.6309    0.0000 H   0  0  0  0  0  0  0  0  0  0  0  0
    5.4637    0.1230    0.0000 H   0  0  0  0  0  0  0  0  0  0  0  0
    6.4987    0.0671    0.0000 H   0  0  0  0  0  0  0  0  0  0  0  0
    7.8097   -0.0848    0.0000 H   0  0  0  0  0  0  0  0  0  0  0  0
    6.8831    0.4502    0.0000 H   0  0  0  0  0  0  0  0  0  0  0  0
    7.6722    0.0670    0.0000 H   0  0  0  0  0  0  0  0  0  0  0  0
    6.5859    0.0964    0.0000 H   0  0  0  0  0  0  0  0  0  0  0  0
    3.8131   -2.1472    0.0000 H   0  0  0  0  0  0  0  0  0  0  0  0
    7.0622   -3.1982    0.0000 H   0  0  0  0  0  0  0  0  0  0  0  0
    5.4541   -4.1267    0.0000 H   0  0  0  0  0  0  0  0  0  0  0  0
    7.0622    1.1337    0.0000 H   0  0  0  0  0  0  0  0  0  0  0  0
    7.8743   -3.5152    0.0000 H   0  0  0  0  0  0  0  0  0  0  0  0
    9.2311   -2.2528    0.0000 H   0  0  0  0  0  0  0  0  0  0  0  0
    8.9172   -3.2757    0.0000 H   0  0  0  0  0  0  0  0  0  0  0  0
    5.4541    2.0622    0.0000 H   0  0  0  0  0  0  0  0  0  0  0  0
    4.9152    2.4538    0.0000 H   0  0  0  0  0  0  0  0  0  0  0  0
    3.9886    2.9888    0.0000 H   0  0  0  0  0  0  0  0  0  0  0  0
    2.4860    0.8869    0.0000 H   0  0  0  0  0  0  0  0  0  0  0  0
    4.1310    3.7360    0.0000 H   0  0  0  0  0  0  0  0  0  0  0  0
    0.8411    1.8366    0.0000 H   0  0  0  0  0  0  0  0  0  0  0  0
    2.4860    4.6857    0.0000 H   0  0  0  0  0  0  0  0  0  0  0  0
    0.8411    3.7360    0.0000 H   0  0  0  0  0  0  0  0  0  0  0  0
  1  8  1  0  0  0  0
  1 16  1  0  0  0  0
  2 32  1  0  0  0  0
  3 20  1  0  0  0  0
  3 22  1  0  0  0  0
  4  7  1  0  0  0  0
  4 12  1  0  0  0  0
  4 19  1  0  0  0  0
  5  6  1  0  0  0  0
  5  8  1  0  0  0  0
  5  9  1  0  0  0  0
  5 10  1  6  0  0  0
  6  7  1  0  0  0  0
  6 15  1  0  0  0  0
  6 29  1  1  0  0  0
  7 11  1  0  0  0  0
  7 30  1  6  0  0  0
  8 14  1  0  0  0  0
  8 31  1  1  0  0  0
  9 12  1  0  0  0  0
  9 33  1  0  0  0  0
  9 34  1  0  0  0  0
 10 13  2  0  0  0  0
 10 16  1  0  0  0  0
 11 13  1  0  0  0  0
 11 35  1  0  0  0  0
 11 36  1  0  0  0  0
 12 37  1  0  0  0  0
 12 38  1  0  0  0  0
 13 18  1  0  0  0  0
 14  2  1  0  0  0  0
 14 17  1  0  0  0  0
 14 39  1  1  0  0  0
 15 17  2  0  0  0  0
 15 40  1  0  0  0  0
 16 20  2  0  0  0  0
 17 41  1  0  0  0  0
 18 21  2  0  0  0  0
 18 42  1  0  0  0  0
 19 43  1  0  0  0  0
 19 44  1  0  0  0  0
 19 45  1  0  0  0  0
 20 21  1  0  0  0  0
 21 46  1  0  0  0  0
 22 23  1  0  0  0  0
 22 47  1  0  0  0  0
 22 48  1  0  0  0  0
 23 24  2  0  0  0  0
 23 25  1  0  0  0  0
 24 26  1  0  0  0  0
 24 49  1  0  0  0  0
 25 27  2  0  0  0  0
 25 50  1  0  0  0  0
 26 28  2  0  0  0  0
 26 51  1  0  0  0  0
 27 28  1  0  0  0  0
 27 52  1  0  0  0  0
 28 53  1  0  0  0  0
M  END
>  <DRUGBANK_ID>
DB01573

>  <COMMON_NAME>
Benzylmorphine

>  <CAS_NUMBER>
14297-87-1

>  <UNII>
83C78V3OL9

$$$$
