
 OpenBabel10282417072D

 21 20  0  0  1  0  0  0  0  0999 V2000
   -1.6671    0.2292    0.0000 C   0  0  0  0  0  0  0  0  0  0  0  0
   -0.9526   -0.1833    0.0000 C   0  0  0  0  0  0  0  0  0  0  0  0
   -0.2382    0.2292    0.0000 C   0  0  0  0  0  0  0  0  0  0  0  0
    0.4763   -0.1833    0.0000 C   0  0  1  0  0  0  0  0  0  0  0  0
    1.1908    0.2292    0.0000 C   0  0  0  0  0  0  0  0  0  0  0  0
    1.1908    1.0542    0.0000 O   0  0  0  0  0  0  0  0  0  0  0  0
   -2.3816   -0.1833    0.0000 N   0  0  0  0  0  0  0  0  0  0  0  0
    0.4763   -1.0083    0.0000 N   0  0  0  0  0  0  0  0  0  0  0  0
    1.9053   -0.1833    0.0000 O   0  0  0  0  0  0  0  0  0  0  0  0
   -1.6671    1.2992    0.0000 H   0  0  0  0  0  0  0  0  0  0  0  0
   -2.5937    0.7642    0.0000 H   0  0  0  0  0  0  0  0  0  0  0  0
   -0.9526   -1.2533    0.0000 H   0  0  0  0  0  0  0  0  0  0  0  0
   -0.0259   -0.7183    0.0000 H   0  0  0  0  0  0  0  0  0  0  0  0
   -0.2382    1.2992    0.0000 H   0  0  0  0  0  0  0  0  0  0  0  0
    0.6884    0.7642    0.0000 H   0  0  0  0  0  0  0  0  0  0  0  0
   -0.4503   -0.7183    0.0000 H   0  0  0  0  0  0  0  0  0  0  0  0
   -3.2649    0.3267    0.0000 H   0  0  0  0  0  0  0  0  0  0  0  0
   -2.3816   -1.2033    0.0000 H   0  0  0  0  0  0  0  0  0  0  0  0
   -0.4070   -1.5183    0.0000 H   0  0  0  0  0  0  0  0  0  0  0  0
    1.3596   -1.5183    0.0000 H   0  0  0  0  0  0  0  0  0  0  0  0
    1.9053   -1.1203    0.0000 H   0  0  0  0  0  0  0  0  0  0  0  0
  1 10  1  0  0  0  0
  1 11  1  0  0  0  0
  2  1  1  0  0  0  0
  2 12  1  0  0  0  0
  2 13  1  0  0  0  0
  3  2  1  0  0  0  0
  3 14  1  0  0  0  0
  3 15  1  0  0  0  0
  4  3  1  0  0  0  0
  4  8  1  0  0  0  0
  4 16  1  6  0  0  0
  5  4  1  0  0  0  0
  6  5  2  0  0  0  0
  7  1  1  0  0  0  0
  7 17  1  0  0  0  0
  7 18  1  0  0  0  0
  8 19  1  0  0  0  0
  8 20  1  0  0  0  0
  9  5  1  0  0  0  0
  9 21  1  0  0  0  0
M  END
>  <DRUGBANK_ID>
DB00129

>  <SECONDARY_ACCESSION_NUMBERS>
NUTR00043

>  <COMMON_NAME>
Ornithine

>  <CAS_NUMBER>
70-26-8

>  <UNII>
E524N2IXA3

>  <SYNONYMS>
(S)-2,5-Diaminopentanoate; (S)-2,5-Diaminopentanoic acid; (S)-2,5-diaminovaleric acid; (S)-ornithine; (S)-α,δ-diaminovaleric acid; L-Ornithine; levo-ornithine; Ornithine; Ornithinum; Ornitina

$$$$
