
 OpenBabel10282417072D

 56 56  0  0  1  0  0  0  0  0999 V2000
    0.7145   -0.4125    0.0000 C   0  0  0  0  0  0  0  0  0  0  0  0
   -0.0000    0.0000    0.0000 C   0  0  0  0  0  0  0  0  0  0  0  0
    0.0000    0.8250    0.0000 C   0  0  0  0  0  0  0  0  0  0  0  0
    0.7145    1.2375    0.0000 C   0  0  0  0  0  0  0  0  0  0  0  0
    1.4289    0.8250    0.0000 C   0  0  0  0  0  0  0  0  0  0  0  0
    1.4289    0.0000    0.0000 C   0  0  0  0  0  0  0  0  0  0  0  0
    2.1434   -0.4125    0.0000 C   0  0  0  0  0  0  0  0  0  0  0  0
    2.8579    0.0000    0.0000 N   0  0  0  0  0  0  0  0  0  0  0  0
    3.5724   -0.4125    0.0000 C   0  0  0  0  0  0  0  0  0  0  0  0
    4.2868    0.0000    0.0000 C   0  0  0  0  0  0  0  0  0  0  0  0
    5.0013   -0.4125    0.0000 C   0  0  0  0  0  0  0  0  0  0  0  0
    5.7158    0.0000    0.0000 C   0  0  0  0  0  0  0  0  0  0  0  0
    6.4302   -0.4125    0.0000 C   0  0  1  0  0  0  0  0  0  0  0  0
    6.4302   -1.2375    0.0000 C   0  0  0  0  0  0  0  0  0  0  0  0
    7.1447   -1.6500    0.0000 O   0  0  0  0  0  0  0  0  0  0  0  0
    5.7158   -1.6500    0.0000 O   0  0  0  0  0  0  0  0  0  0  0  0
    7.1447    0.0000    0.0000 N   0  0  0  0  0  0  0  0  0  0  0  0
    7.8592   -0.4125    0.0000 C   0  0  0  0  0  0  0  0  0  0  0  0
    7.8592   -1.2375    0.0000 O   0  0  0  0  0  0  0  0  0  0  0  0
    8.5737    0.0000    0.0000 N   0  0  0  0  0  0  0  0  0  0  0  0
    9.2881   -0.4125    0.0000 C   0  0  1  0  0  0  0  0  0  0  0  0
   10.0026    0.0000    0.0000 C   0  0  0  0  0  0  0  0  0  0  0  0
   10.7171   -0.4125    0.0000 C   0  0  0  0  0  0  0  0  0  0  0  0
   11.4315    0.0000    0.0000 C   0  0  0  0  0  0  0  0  0  0  0  0
   12.1460   -0.4125    0.0000 O   0  0  0  0  0  0  0  0  0  0  0  0
   11.4315    0.8250    0.0000 O   0  0  0  0  0  0  0  0  0  0  0  0
    9.2881   -1.2375    0.0000 C   0  0  0  0  0  0  0  0  0  0  0  0
   10.0026   -1.6500    0.0000 O   0  0  0  0  0  0  0  0  0  0  0  0
    8.5737   -1.6500    0.0000 O   0  0  0  0  0  0  0  0  0  0  0  0
   -0.7145    1.2375    0.0000 I   0  0  0  0  0  0  0  0  0  0  0  0
    0.7145   -1.4445    0.0000 H   0  0  0  0  0  0  0  0  0  0  0  0
   -0.8937   -0.5160    0.0000 H   0  0  0  0  0  0  0  0  0  0  0  0
    0.7145    2.2695    0.0000 H   0  0  0  0  0  0  0  0  0  0  0  0
    2.3226    1.3410    0.0000 H   0  0  0  0  0  0  0  0  0  0  0  0
    2.1434   -1.4825    0.0000 H   0  0  0  0  0  0  0  0  0  0  0  0
    3.0700   -0.9475    0.0000 H   0  0  0  0  0  0  0  0  0  0  0  0
    2.8579    1.0200    0.0000 H   0  0  0  0  0  0  0  0  0  0  0  0
    3.5724   -1.4825    0.0000 H   0  0  0  0  0  0  0  0  0  0  0  0
    4.4991   -0.9475    0.0000 H   0  0  0  0  0  0  0  0  0  0  0  0
    4.2868    1.0700    0.0000 H   0  0  0  0  0  0  0  0  0  0  0  0
    5.2134    0.5350    0.0000 H   0  0  0  0  0  0  0  0  0  0  0  0
    5.0013   -1.4825    0.0000 H   0  0  0  0  0  0  0  0  0  0  0  0
    5.9279   -0.9475    0.0000 H   0  0  0  0  0  0  0  0  0  0  0  0
    5.7158    1.0700    0.0000 H   0  0  0  0  0  0  0  0  0  0  0  0
    6.6425    0.5350    0.0000 H   0  0  0  0  0  0  0  0  0  0  0  0
    6.4302    0.6575    0.0000 H   0  0  0  0  0  0  0  0  0  0  0  0
    4.9043   -1.1815    0.0000 H   0  0  0  0  0  0  0  0  0  0  0  0
    7.1447    0.9845    0.0000 H   0  0  0  0  0  0  0  0  0  0  0  0
    8.5737    0.9845    0.0000 H   0  0  0  0  0  0  0  0  0  0  0  0
    9.2881    0.6575    0.0000 H   0  0  0  0  0  0  0  0  0  0  0  0
   10.0026    1.0700    0.0000 H   0  0  0  0  0  0  0  0  0  0  0  0
   10.9292    0.5350    0.0000 H   0  0  0  0  0  0  0  0  0  0  0  0
   10.7171   -1.4825    0.0000 H   0  0  0  0  0  0  0  0  0  0  0  0
   11.6438   -0.9475    0.0000 H   0  0  0  0  0  0  0  0  0  0  0  0
   12.2430    1.2935    0.0000 H   0  0  0  0  0  0  0  0  0  0  0  0
    7.7622   -1.1815    0.0000 H   0  0  0  0  0  0  0  0  0  0  0  0
  1  2  2  0  0  0  0
  1  6  1  0  0  0  0
  1 31  1  0  0  0  0
  2  3  1  0  0  0  0
  2 32  1  0  0  0  0
  3  4  2  0  0  0  0
  3 30  1  0  0  0  0
  4  5  1  0  0  0  0
  4 33  1  0  0  0  0
  5  6  2  0  0  0  0
  5 34  1  0  0  0  0
  6  7  1  0  0  0  0
  7  8  1  0  0  0  0
  7 35  1  0  0  0  0
  7 36  1  0  0  0  0
  8  9  1  0  0  0  0
  8 37  1  0  0  0  0
  9 10  1  0  0  0  0
  9 38  1  0  0  0  0
  9 39  1  0  0  0  0
 10 11  1  0  0  0  0
 10 40  1  0  0  0  0
 10 41  1  0  0  0  0
 11 12  1  0  0  0  0
 11 42  1  0  0  0  0
 11 43  1  0  0  0  0
 12 13  1  0  0  0  0
 12 44  1  0  0  0  0
 12 45  1  0  0  0  0
 13 14  1  0  0  0  0
 13 17  1  0  0  0  0
 13 46  1  1  0  0  0
 14 15  2  0  0  0  0
 14 16  1  0  0  0  0
 16 47  1  0  0  0  0
 17 18  1  0  0  0  0
 17 48  1  0  0  0  0
 18 19  2  0  0  0  0
 18 20  1  0  0  0  0
 20 49  1  0  0  0  0
 21 20  1  0  0  0  0
 21 22  1  0  0  0  0
 21 27  1  0  0  0  0
 21 50  1  6  0  0  0
 22 23  1  0  0  0  0
 22 51  1  0  0  0  0
 22 52  1  0  0  0  0
 23 24  1  0  0  0  0
 23 53  1  0  0  0  0
 23 54  1  0  0  0  0
 24 25  2  0  0  0  0
 24 26  1  0  0  0  0
 26 55  1  0  0  0  0
 27 28  2  0  0  0  0
 27 29  1  0  0  0  0
 29 56  1  0  0  0  0
M  ISO  1  30 123
M  END
>  <DRUGBANK_ID>
DB12514

>  <COMMON_NAME>
Iofolastat I-123

>  <CAS_NUMBER>
949575-24-0

>  <UNII>
AQF0A29T2V

>  <SYNONYMS>
Iofolastat (123 I)

$$$$
