
 OpenBabel10282417072D

 53 56  0  0  0  0  0  0  0  0999 V2000
   -3.6241    0.0884    0.0000 C   0  0  0  0  0  0  0  0  0  0  0  0
   -4.3386   -0.3241    0.0000 C   0  0  0  0  0  0  0  0  0  0  0  0
   -4.3386   -1.1491    0.0000 C   0  0  0  0  0  0  0  0  0  0  0  0
   -3.6241   -1.5616    0.0000 C   0  0  0  0  0  0  0  0  0  0  0  0
   -2.9096   -1.1491    0.0000 C   0  0  0  0  0  0  0  0  0  0  0  0
   -2.9096   -0.3241    0.0000 C   0  0  0  0  0  0  0  0  0  0  0  0
   -2.1952    0.0884    0.0000 C   0  0  0  0  0  0  0  0  0  0  0  0
   -2.1952   -1.5616    0.0000 C   0  0  0  0  0  0  0  0  0  0  0  0
   -1.4807   -1.1491    0.0000 C   0  0  0  0  0  0  0  0  0  0  0  0
   -1.4807   -0.3241    0.0000 C   0  0  1  0  0  0  0  0  0  0  0  0
   -1.4807    1.3259    0.0000 C   0  0  2  0  0  0  0  0  0  0  0  0
   -2.1952    0.9134    0.0000 C   0  0  0  0  0  0  0  0  0  0  0  0
   -0.7662    0.0884    0.0000 N   0  0  0  0  0  0  0  0  0  0  0  0
   -0.7662    0.9134    0.0000 C   0  0  0  0  0  0  0  0  0  0  0  0
   -2.4087   -2.3585    0.0000 C   0  0  0  0  0  0  0  0  0  0  0  0
   -3.4106   -2.3585    0.0000 N   0  0  0  0  0  0  0  0  0  0  0  0
   -0.7662   -0.7366    0.0000 H   0  0  0  0  0  0  0  0  0  0  0  0
   -1.4807    2.1509    0.0000 C   0  0  0  0  0  0  0  0  0  0  0  0
   -0.0518   -0.3241    0.0000 C   0  0  0  0  0  0  0  0  0  0  0  0
   -0.7662    2.5634    0.0000 N   0  0  0  0  0  0  0  0  0  0  0  0
   -0.0518    2.1509    0.0000 C   0  0  3  0  0  0  0  0  0  0  0  0
    0.6627    2.5634    0.0000 C   0  0  0  0  0  0  0  0  0  0  0  0
    1.3772    2.1509    0.0000 C   0  0  0  0  0  0  0  0  0  0  0  0
   -2.1952    2.5634    0.0000 O   0  0  0  0  0  0  0  0  0  0  0  0
   -0.0518    1.3259    0.0000 C   0  0  0  0  0  0  0  0  0  0  0  0
    0.6627    0.9134    0.0000 O   0  0  0  0  0  0  0  0  0  0  0  0
   -3.8231   -3.0730    0.0000 C   0  0  0  0  0  0  0  0  0  0  0  0
   -3.6241    1.1204    0.0000 H   0  0  0  0  0  0  0  0  0  0  0  0
   -5.2323    0.1919    0.0000 H   0  0  0  0  0  0  0  0  0  0  0  0
   -5.2323   -1.6651    0.0000 H   0  0  0  0  0  0  0  0  0  0  0  0
   -0.5541   -1.6841    0.0000 H   0  0  0  0  0  0  0  0  0  0  0  0
   -0.5541   -0.6141    0.0000 H   0  0  0  0  0  0  0  0  0  0  0  0
   -2.4073    1.8609    0.0000 H   0  0  0  0  0  0  0  0  0  0  0  0
   -3.0889    1.4294    0.0000 H   0  0  0  0  0  0  0  0  0  0  0  0
    0.1604    1.4484    0.0000 H   0  0  0  0  0  0  0  0  0  0  0  0
    0.1604    0.3784    0.0000 H   0  0  0  0  0  0  0  0  0  0  0  0
   -1.7804   -3.1772    0.0000 H   0  0  0  0  0  0  0  0  0  0  0  0
   -0.0518   -1.3941    0.0000 H   0  0  0  0  0  0  0  0  0  0  0  0
    0.8749    0.2109    0.0000 H   0  0  0  0  0  0  0  0  0  0  0  0
    0.8748   -0.8591    0.0000 H   0  0  0  0  0  0  0  0  0  0  0  0
   -0.7662    3.5479    0.0000 H   0  0  0  0  0  0  0  0  0  0  0  0
   -0.0518    3.2209    0.0000 H   0  0  0  0  0  0  0  0  0  0  0  0
    0.6627    3.6334    0.0000 H   0  0  0  0  0  0  0  0  0  0  0  0
    1.5893    3.0984    0.0000 H   0  0  0  0  0  0  0  0  0  0  0  0
    1.3772    1.0809    0.0000 H   0  0  0  0  0  0  0  0  0  0  0  0
    2.3038    2.6859    0.0000 H   0  0  0  0  0  0  0  0  0  0  0  0
    2.3039    1.6159    0.0000 H   0  0  0  0  0  0  0  0  0  0  0  0
   -0.9784    0.7909    0.0000 H   0  0  0  0  0  0  0  0  0  0  0  0
   -0.0518    0.2559    0.0000 H   0  0  0  0  0  0  0  0  0  0  0  0
    0.6627   -0.0566    0.0000 H   0  0  0  0  0  0  0  0  0  0  0  0
   -4.8931   -3.0730    0.0000 H   0  0  0  0  0  0  0  0  0  0  0  0
   -3.2881   -3.9996    0.0000 H   0  0  0  0  0  0  0  0  0  0  0  0
   -4.3581   -3.9997    0.0000 H   0  0  0  0  0  0  0  0  0  0  0  0
  1  2  1  0  0  0  0
  1  6  2  0  0  0  0
  1 28  1  0  0  0  0
  2  3  2  0  0  0  0
  2 29  1  0  0  0  0
  3  4  1  0  0  0  0
  3 30  1  0  0  0  0
  4  5  2  0  0  0  0
  4 16  1  0  0  0  0
  5  8  1  0  0  0  0
  6  5  1  0  0  0  0
  7  6  1  0  0  0  0
  7 10  1  0  0  0  0
  8  9  1  0  0  0  0
  8 15  2  0  0  0  0
  9 10  1  0  0  0  0
  9 31  1  0  0  0  0
  9 32  1  0  0  0  0
 10 13  1  0  0  0  0
 10 17  1  1  0  0  0
 11 12  1  0  0  0  0
 11 14  1  0  0  0  0
 11 18  1  0  0  0  0
 11 33  1  6  0  0  0
 12  7  2  0  0  0  0
 12 34  1  0  0  0  0
 13 14  1  0  0  0  0
 13 19  1  0  0  0  0
 14 35  1  0  0  0  0
 14 36  1  0  0  0  0
 15 37  1  0  0  0  0
 16 15  1  0  0  0  0
 16 27  1  0  0  0  0
 18 20  1  0  0  0  0
 18 24  2  0  0  0  0
 19 38  1  0  0  0  0
 19 39  1  0  0  0  0
 19 40  1  0  0  0  0
 20 21  1  0  0  0  0
 20 41  1  0  0  0  0
 21 22  1  0  0  0  0
 21 25  1  0  0  0  0
 21 42  1  0  0  0  0
 22 23  1  0  0  0  0
 22 43  1  0  0  0  0
 22 44  1  0  0  0  0
 23 45  1  0  0  0  0
 23 46  1  0  0  0  0
 23 47  1  0  0  0  0
 25 26  1  0  0  0  0
 25 48  1  0  0  0  0
 25 49  1  0  0  0  0
 26 50  1  0  0  0  0
 27 51  1  0  0  0  0
 27 52  1  0  0  0  0
 27 53  1  0  0  0  0
M  END
>  <DRUGBANK_ID>
DB00247

>  <SECONDARY_ACCESSION_NUMBERS>
APRD00463

>  <COMMON_NAME>
Methysergide

>  <CAS_NUMBER>
361-37-5

>  <UNII>
XZA9HY6Z98

>  <SYNONYMS>
(+)-9,10-Didehydro-N-(1-(hydroxymethyl)propyl)-1,6-dimethylergoline-8β-carboxamide; (+)-N-(1-(Hydroxymethyl)propyl)-1-methyl-D-lysergamide; 1-Methyl-D-lysergic acid butanolamide; 1-Methyl-dextro-lysergic acid (+)-1-hydroxy-2-butylamide; 1-Methyllysergic acid butanolamide; 1-Methylmethylergonovine; 9,10-Didehydro-N-(1-(hydroxymethyl)propyl)-1,6-dimethylergoline-8-carboxamide; Méthysergide; Methysergide; Methysergidum; Metisergida; Metisergido; N-(1-(Hydroxymethyl)propyl)-1-methyl-dextro-(+)-lysergamide

$$$$
