
 OpenBabel10282417072D

100106  0  0  1  0  0  0  0  0999 V2000
   17.9785   -1.0879    0.0000 C   0  0  0  0  0  0  0  0  0  0  0  0
   14.7123   -2.7474    0.0000 C   0  0  0  0  0  0  0  0  0  0  0  0
   13.9978   -3.1599    0.0000 C   0  0  0  0  0  0  0  0  0  0  0  0
   15.4268   -3.1599    0.0000 C   0  0  0  0  0  0  0  0  0  0  0  0
   13.2833   -2.7474    0.0000 C   0  0  0  0  0  0  0  0  0  0  0  0
   16.1412   -2.7474    0.0000 C   0  0  0  0  0  0  0  0  0  0  0  0
   12.5689   -3.1599    0.0000 C   0  0  0  0  0  0  0  0  0  0  0  0
   16.8557   -3.1599    0.0000 C   0  0  0  0  0  0  0  0  0  0  0  0
   11.8544   -2.7474    0.0000 C   0  0  0  0  0  0  0  0  0  0  0  0
   20.9384   -3.1843    0.0000 C   0  0  0  0  0  0  0  0  0  0  0  0
   22.1759   -1.0409    0.0000 C   0  0  0  0  0  0  0  0  0  0  0  0
   20.1134   -3.1843    0.0000 C   0  0  0  0  0  0  0  0  0  0  0  0
   21.3509   -1.0409    0.0000 C   0  0  0  0  0  0  0  0  0  0  0  0
   19.7009   -1.0409    0.0000 C   0  0  0  0  0  0  0  0  0  0  0  0
   18.8759   -1.0409    0.0000 C   0  0  0  0  0  0  0  0  0  0  0  0
   22.1759   -2.4698    0.0000 C   0  0  0  0  0  0  0  0  0  0  0  0
   18.3238   -3.0829    0.0000 C   0  0  0  0  0  0  0  0  0  0  0  0
    9.7110   -3.1599    0.0000 C   0  0  0  0  0  0  0  0  0  0  0  0
    5.7371   -0.6376    0.0000 C   0  0  0  0  0  0  0  0  0  0  0  0
    6.4578   -3.2705    0.0000 C   0  0  0  0  0  0  0  0  0  0  0  0
   21.3509   -2.4698    0.0000 C   0  0  0  0  0  0  0  0  0  0  0  0
   17.5702   -2.7474    0.0000 C   0  0  1  0  0  0  0  0  0  0  0  0
   22.5884   -1.7553    0.0000 C   0  0  0  0  0  0  0  0  0  0  0  0
   20.9384   -1.7553    0.0000 C   0  0  0  0  0  0  0  0  0  0  0  0
   20.1134   -1.7553    0.0000 C   0  0  2  0  0  0  0  0  0  0  0  0
   19.7009   -2.4698    0.0000 C   0  0  2  0  0  0  0  0  0  0  0  0
   18.8759   -2.4698    0.0000 C   0  0  1  0  0  0  0  0  0  0  0  0
    8.9965   -2.7474    0.0000 C   0  0  2  0  0  0  0  0  0  0  0  0
   11.1399   -3.1599    0.0000 C   0  0  0  0  0  0  0  0  0  0  0  0
    5.5646   -2.2785    0.0000 C   0  0  0  0  0  0  0  0  0  0  0  0
    8.9103   -1.9269    0.0000 C   0  0  2  0  0  0  0  0  0  0  0  0
    8.1033   -1.7553    0.0000 C   0  0  2  0  0  0  0  0  0  0  0  0
   17.6564   -1.9269    0.0000 C   0  0  1  0  0  0  0  0  0  0  0  0
    4.8972   -1.7936    0.0000 C   0  0  0  0  0  0  0  0  0  0  0  0
    6.3183   -1.9430    0.0000 C   0  0  0  0  0  0  0  0  0  0  0  0
    7.6908   -2.4698    0.0000 C   0  0  2  0  0  0  0  0  0  0  0  0
   18.4634   -1.7553    0.0000 C   0  0  2  0  0  0  0  0  0  0  0  0
    4.1435   -2.1292    0.0000 N   0  0  0  0  0  0  0  0  0  0  0  0
    4.9834   -0.9731    0.0000 N   0  0  0  0  0  0  0  0  0  0  0  0
    6.4045   -1.1225    0.0000 N   0  0  0  0  0  0  0  0  0  0  0  0
    5.6509   -3.0990    0.0000 N   0  0  0  0  0  0  0  0  0  0  0  0
    6.8703   -2.5561    0.0000 N   0  0  0  0  0  0  0  0  0  0  0  0
   23.4134   -1.7553    0.0000 O   0  0  0  0  0  0  0  0  0  0  0  0
   11.1399   -3.9849    0.0000 O   0  0  0  0  0  0  0  0  0  0  0  0
    9.5234   -1.3748    0.0000 O   0  0  0  0  0  0  0  0  0  0  0  0
    7.7677   -1.0017    0.0000 O   0  0  0  0  0  0  0  0  0  0  0  0
   17.0433   -1.3748    0.0000 O   0  0  0  0  0  0  0  0  0  0  0  0
   10.4255   -2.7474    0.0000 O   0  0  0  0  0  0  0  0  0  0  0  0
    8.2428   -3.0829    0.0000 O   0  0  0  0  0  0  0  0  0  0  0  0
   17.6133   -3.5712    0.0000 H   0  0  0  0  0  0  0  0  0  0  0  0
   20.5259   -1.0409    0.0000 H   0  0  0  0  0  0  0  0  0  0  0  0
   19.5576   -3.2823    0.0000 H   0  0  0  0  0  0  0  0  0  0  0  0
   18.9334   -3.2928    0.0000 H   0  0  0  0  0  0  0  0  0  0  0  0
    9.4930   -2.0885    0.0000 H   0  0  0  0  0  0  0  0  0  0  0  0
    9.7352   -1.9413    0.0000 H   0  0  0  0  0  0  0  0  0  0  0  0
    8.6225   -1.1142    0.0000 H   0  0  0  0  0  0  0  0  0  0  0  0
   16.8862   -2.2225    0.0000 H   0  0  0  0  0  0  0  0  0  0  0  0
    7.2415   -1.7779    0.0000 H   0  0  0  0  0  0  0  0  0  0  0  0
   18.4137   -0.1104    0.0000 H   0  0  0  0  0  0  0  0  0  0  0  0
   16.9144   -1.1998    0.0000 H   0  0  0  0  0  0  0  0  0  0  0  0
   17.3496   -0.2223    0.0000 H   0  0  0  0  0  0  0  0  0  0  0  0
   14.7123   -1.6774    0.0000 H   0  0  0  0  0  0  0  0  0  0  0  0
   15.6389   -2.2124    0.0000 H   0  0  0  0  0  0  0  0  0  0  0  0
   13.9978   -4.2299    0.0000 H   0  0  0  0  0  0  0  0  0  0  0  0
   13.0712   -3.6949    0.0000 H   0  0  0  0  0  0  0  0  0  0  0  0
   15.4268   -4.2299    0.0000 H   0  0  0  0  0  0  0  0  0  0  0  0
   16.3535   -3.6949    0.0000 H   0  0  0  0  0  0  0  0  0  0  0  0
   13.2833   -1.6774    0.0000 H   0  0  0  0  0  0  0  0  0  0  0  0
   12.3566   -2.2124    0.0000 H   0  0  0  0  0  0  0  0  0  0  0  0
   16.1412   -1.6774    0.0000 H   0  0  0  0  0  0  0  0  0  0  0  0
   17.0678   -2.2124    0.0000 H   0  0  0  0  0  0  0  0  0  0  0  0
   12.5689   -4.2299    0.0000 H   0  0  0  0  0  0  0  0  0  0  0  0
   11.6423   -3.6949    0.0000 H   0  0  0  0  0  0  0  0  0  0  0  0
   16.8557   -4.2299    0.0000 H   0  0  0  0  0  0  0  0  0  0  0  0
   17.7823   -3.6949    0.0000 H   0  0  0  0  0  0  0  0  0  0  0  0
   11.8544   -1.6774    0.0000 H   0  0  0  0  0  0  0  0  0  0  0  0
   10.9278   -2.2124    0.0000 H   0  0  0  0  0  0  0  0  0  0  0  0
   21.4734   -4.1109    0.0000 H   0  0  0  0  0  0  0  0  0  0  0  0
   22.0084   -3.1843    0.0000 H   0  0  0  0  0  0  0  0  0  0  0  0
   22.6919   -0.1472    0.0000 H   0  0  0  0  0  0  0  0  0  0  0  0
   19.5784   -4.1109    0.0000 H   0  0  0  0  0  0  0  0  0  0  0  0
   19.0434   -3.1843    0.0000 H   0  0  0  0  0  0  0  0  0  0  0  0
   20.8349   -0.1472    0.0000 H   0  0  0  0  0  0  0  0  0  0  0  0
   20.2359   -0.1142    0.0000 H   0  0  0  0  0  0  0  0  0  0  0  0
   20.7709   -1.0409    0.0000 H   0  0  0  0  0  0  0  0  0  0  0  0
   18.3409   -0.1142    0.0000 H   0  0  0  0  0  0  0  0  0  0  0  0
   17.8059   -1.0409    0.0000 H   0  0  0  0  0  0  0  0  0  0  0  0
   22.6919   -3.3635    0.0000 H   0  0  0  0  0  0  0  0  0  0  0  0
   18.5463   -4.1295    0.0000 H   0  0  0  0  0  0  0  0  0  0  0  0
   19.3573   -3.3599    0.0000 H   0  0  0  0  0  0  0  0  0  0  0  0
    9.7110   -4.2299    0.0000 H   0  0  0  0  0  0  0  0  0  0  0  0
   10.6376   -3.6949    0.0000 H   0  0  0  0  0  0  0  0  0  0  0  0
    5.8450    0.3887    0.0000 H   0  0  0  0  0  0  0  0  0  0  0  0
    6.8775   -4.2133    0.0000 H   0  0  0  0  0  0  0  0  0  0  0  0
    3.3470   -1.5506    0.0000 H   0  0  0  0  0  0  0  0  0  0  0  0
    4.0406   -3.1083    0.0000 H   0  0  0  0  0  0  0  0  0  0  0  0
   23.8819   -2.5668    0.0000 H   0  0  0  0  0  0  0  0  0  0  0  0
   10.4459   -1.6745    0.0000 H   0  0  0  0  0  0  0  0  0  0  0  0
    8.3378   -0.2169    0.0000 H   0  0  0  0  0  0  0  0  0  0  0  0
   17.2450   -0.4260    0.0000 H   0  0  0  0  0  0  0  0  0  0  0  0
  1 59  1  0  0  0  0
  1 60  1  0  0  0  0
  1 61  1  0  0  0  0
  2 62  1  0  0  0  0
  2 63  1  0  0  0  0
  3  2  1  0  0  0  0
  3 64  1  0  0  0  0
  3 65  1  0  0  0  0
  4  2  1  0  0  0  0
  4 66  1  0  0  0  0
  4 67  1  0  0  0  0
  5  3  1  0  0  0  0
  5 68  1  0  0  0  0
  5 69  1  0  0  0  0
  6  4  1  0  0  0  0
  6 70  1  0  0  0  0
  6 71  1  0  0  0  0
  7  5  1  0  0  0  0
  7 72  1  0  0  0  0
  7 73  1  0  0  0  0
  8  6  1  0  0  0  0
  8 74  1  0  0  0  0
  8 75  1  0  0  0  0
  9  7  1  0  0  0  0
  9 76  1  0  0  0  0
  9 77  1  0  0  0  0
 10 78  1  0  0  0  0
 10 79  1  0  0  0  0
 11 80  1  0  0  0  0
 12 10  1  0  0  0  0
 12 81  1  0  0  0  0
 12 82  1  0  0  0  0
 13 11  1  0  0  0  0
 13 83  1  0  0  0  0
 14 84  1  0  0  0  0
 14 85  1  0  0  0  0
 15 14  1  0  0  0  0
 15 86  1  0  0  0  0
 15 87  1  0  0  0  0
 16 88  1  0  0  0  0
 17 89  1  0  0  0  0
 17 90  1  0  0  0  0
 18 91  1  0  0  0  0
 18 92  1  0  0  0  0
 19 93  1  0  0  0  0
 20 94  1  0  0  0  0
 21 10  1  0  0  0  0
 21 16  2  0  0  0  0
 22  8  1  0  0  0  0
 22 17  1  0  0  0  0
 22 50  1  1  0  0  0
 23 11  2  0  0  0  0
 23 16  1  0  0  0  0
 24 13  2  0  0  0  0
 24 21  1  0  0  0  0
 25 14  1  0  0  0  0
 25 24  1  0  0  0  0
 25 51  1  1  0  0  0
 26 12  1  0  0  0  0
 26 25  1  0  0  0  0
 26 52  1  6  0  0  0
 27 17  1  0  0  0  0
 27 26  1  0  0  0  0
 27 53  1  1  0  0  0
 28 18  1  0  0  0  0
 28 54  1  6  0  0  0
 29  9  1  0  0  0  0
 31 28  1  0  0  0  0
 31 45  1  0  0  0  0
 31 55  1  1  0  0  0
 32 31  1  0  0  0  0
 32 46  1  0  0  0  0
 32 56  1  1  0  0  0
 33 22  1  0  0  0  0
 33 47  1  0  0  0  0
 33 57  1  1  0  0  0
 34 30  2  0  0  0  0
 35 30  1  0  0  0  0
 36 32  1  0  0  0  0
 36 42  1  0  0  0  0
 36 58  1  6  0  0  0
 37  1  1  6  0  0  0
 37 15  1  0  0  0  0
 37 27  1  0  0  0  0
 37 33  1  0  0  0  0
 38 34  1  0  0  0  0
 38 95  1  0  0  0  0
 38 96  1  0  0  0  0
 39 19  2  0  0  0  0
 39 34  1  0  0  0  0
 40 19  1  0  0  0  0
 40 35  2  0  0  0  0
 41 20  2  0  0  0  0
 41 30  1  0  0  0  0
 42 20  1  0  0  0  0
 42 35  1  0  0  0  0
 43 23  1  0  0  0  0
 43 97  1  0  0  0  0
 44 29  2  0  0  0  0
 45 98  1  0  0  0  0
 46 99  1  0  0  0  0
 47100  1  0  0  0  0
 48 18  1  0  0  0  0
 48 29  1  0  0  0  0
 49 28  1  0  0  0  0
 49 36  1  0  0  0  0
M  END
>  <DRUGBANK_ID>
DB02323

>  <SECONDARY_ACCESSION_NUMBERS>
EXPT01802

>  <COMMON_NAME>
EM-1745

$$$$
