
 OpenBabel10282417072D

 38 39  0  0  0  0  0  0  0  0999 V2000
    2.5006    1.0312    0.0000 C   0  0  0  0  0  0  0  0  0  0  0  0
    2.5006    0.2062    0.0000 C   0  0  0  0  0  0  0  0  0  0  0  0
    3.2151   -0.2062    0.0000 C   0  0  0  0  0  0  0  0  0  0  0  0
    3.2151   -1.0312    0.0000 C   0  0  0  0  0  0  0  0  0  0  0  0
    2.5006   -1.4437    0.0000 C   0  0  0  0  0  0  0  0  0  0  0  0
    1.7861   -1.0312    0.0000 C   0  0  0  0  0  0  0  0  0  0  0  0
    1.0717   -1.4437    0.0000 C   0  0  0  0  0  0  0  0  0  0  0  0
    1.7861   -0.2062    0.0000 C   0  0  0  0  0  0  0  0  0  0  0  0
    1.0717    0.2062    0.0000 N   0  0  0  0  0  0  0  0  0  0  0  0
    0.3572   -0.2062    0.0000 C   0  0  0  0  0  0  0  0  0  0  0  0
    0.3572   -1.0312    0.0000 O   0  0  0  0  0  0  0  0  0  0  0  0
   -0.3572    0.2062    0.0000 C   0  0  0  0  0  0  0  0  0  0  0  0
   -1.0717   -0.2062    0.0000 C   0  0  0  0  0  0  0  0  0  0  0  0
   -1.7861    0.2062    0.0000 C   0  0  0  0  0  0  0  0  0  0  0  0
   -1.7861    1.0312    0.0000 C   0  0  0  0  0  0  0  0  0  0  0  0
   -2.5006    1.4437    0.0000 Cl  0  0  0  0  0  0  0  0  0  0  0  0
   -1.0717    1.4437    0.0000 C   0  0  0  0  0  0  0  0  0  0  0  0
   -0.3572    1.0312    0.0000 C   0  0  0  0  0  0  0  0  0  0  0  0
    0.3572    1.4437    0.0000 O   0  0  0  0  0  0  0  0  0  0  0  0
   -2.5006   -0.2062    0.0000 S   0  0  0  0  0  0  0  0  0  0  0  0
   -3.2151   -0.6187    0.0000 O   0  0  0  0  0  0  0  0  0  0  0  0
   -2.9131    0.5082    0.0000 O   0  0  0  0  0  0  0  0  0  0  0  0
   -2.0881   -0.9207    0.0000 N   0  0  0  0  0  0  0  0  0  0  0  0
    3.4272    1.5662    0.0000 H   0  0  0  0  0  0  0  0  0  0  0  0
    1.5740    1.5662    0.0000 H   0  0  0  0  0  0  0  0  0  0  0  0
    2.5006    2.1012    0.0000 H   0  0  0  0  0  0  0  0  0  0  0  0
    4.1088    0.3099    0.0000 H   0  0  0  0  0  0  0  0  0  0  0  0
    4.1088   -1.5472    0.0000 H   0  0  0  0  0  0  0  0  0  0  0  0
    2.5006   -2.4757    0.0000 H   0  0  0  0  0  0  0  0  0  0  0  0
    0.1450   -0.9087    0.0000 H   0  0  0  0  0  0  0  0  0  0  0  0
    1.0717   -2.5137    0.0000 H   0  0  0  0  0  0  0  0  0  0  0  0
    0.1451   -1.9787    0.0000 H   0  0  0  0  0  0  0  0  0  0  0  0
    1.0717    1.1907    0.0000 H   0  0  0  0  0  0  0  0  0  0  0  0
   -1.0717   -1.2382    0.0000 H   0  0  0  0  0  0  0  0  0  0  0  0
   -1.0717    2.4757    0.0000 H   0  0  0  0  0  0  0  0  0  0  0  0
    1.1687    0.9752    0.0000 H   0  0  0  0  0  0  0  0  0  0  0  0
   -2.5981   -1.8040    0.0000 H   0  0  0  0  0  0  0  0  0  0  0  0
   -1.0681   -0.9207    0.0000 H   0  0  0  0  0  0  0  0  0  0  0  0
  1  2  1  0  0  0  0
  1 24  1  0  0  0  0
  1 25  1  0  0  0  0
  1 26  1  0  0  0  0
  2  3  2  0  0  0  0
  2  8  1  0  0  0  0
  3  4  1  0  0  0  0
  3 27  1  0  0  0  0
  4  5  2  0  0  0  0
  4 28  1  0  0  0  0
  5  6  1  0  0  0  0
  5 29  1  0  0  0  0
  6  7  1  0  0  0  0
  6  8  2  0  0  0  0
  7 30  1  0  0  0  0
  7 31  1  0  0  0  0
  7 32  1  0  0  0  0
  8  9  1  0  0  0  0
  9 10  1  0  0  0  0
  9 33  1  0  0  0  0
 10 11  2  0  0  0  0
 10 12  1  0  0  0  0
 12 13  2  0  0  0  0
 12 18  1  0  0  0  0
 13 14  1  0  0  0  0
 13 34  1  0  0  0  0
 14 15  2  0  0  0  0
 14 20  1  0  0  0  0
 15 16  1  0  0  0  0
 15 17  1  0  0  0  0
 17 18  2  0  0  0  0
 17 35  1  0  0  0  0
 18 19  1  0  0  0  0
 19 36  1  0  0  0  0
 20 21  2  0  0  0  0
 20 22  2  0  0  0  0
 20 23  1  0  0  0  0
 23 37  1  0  0  0  0
 23 38  1  0  0  0  0
M  END
>  <DRUGBANK_ID>
DB13803

>  <COMMON_NAME>
Xipamide

>  <CAS_NUMBER>
14293-44-8

>  <UNII>
4S9EY0NUEC

>  <SYNONYMS>
Xipamida; Xipamide; Xipamidum

$$$$
