
 OpenBabel10282417072D

 18 18  0  0  0  0  0  0  0  0999 V2000
    1.4822    0.0000    0.0000 C   0  0  0  0  0  0  0  0  0  0  0  0
    2.1030   -0.3577    0.0000 N   0  0  0  0  0  0  0  0  0  0  0  0
    0.7652    0.4079    0.0000 C   0  0  1  0  0  0  0  0  0  0  0  0
    0.7652    1.2363    0.0000 O   0  0  0  0  0  0  0  0  0  0  0  0
    0.0481    0.0000    0.0000 C   0  0  0  0  0  0  0  0  0  0  0  0
   -0.6689    0.4079    0.0000 C   0  0  0  0  0  0  0  0  0  0  0  0
    0.0481   -0.8283    0.0000 C   0  0  0  0  0  0  0  0  0  0  0  0
   -1.3859    0.0000    0.0000 C   0  0  0  0  0  0  0  0  0  0  0  0
   -0.6689   -1.2363    0.0000 C   0  0  0  0  0  0  0  0  0  0  0  0
   -1.3859   -0.8283    0.0000 C   0  0  0  0  0  0  0  0  0  0  0  0
   -2.1030   -1.2363    0.0000 O   0  0  0  0  0  0  0  0  0  0  0  0
    1.6901    0.9458    0.0000 H   0  0  0  0  0  0  0  0  0  0  0  0
    1.6052    1.7213    0.0000 H   0  0  0  0  0  0  0  0  0  0  0  0
   -0.6689    1.4399    0.0000 H   0  0  0  0  0  0  0  0  0  0  0  0
    0.9402   -1.3471    0.0000 H   0  0  0  0  0  0  0  0  0  0  0  0
   -2.2780    0.5188    0.0000 H   0  0  0  0  0  0  0  0  0  0  0  0
   -0.6689   -2.2683    0.0000 H   0  0  0  0  0  0  0  0  0  0  0  0
   -2.9115   -0.7627    0.0000 H   0  0  0  0  0  0  0  0  0  0  0  0
  2  1  3  0  0  0  0
  3  1  1  0  0  0  0
  3  4  1  0  0  0  0
  3 12  1  1  0  0  0
  4 13  1  0  0  0  0
  5  3  1  0  0  0  0
  6  5  2  0  0  0  0
  6 14  1  0  0  0  0
  7  5  1  0  0  0  0
  7 15  1  0  0  0  0
  8  6  1  0  0  0  0
  8 16  1  0  0  0  0
  9  7  2  0  0  0  0
  9 17  1  0  0  0  0
 10  8  2  0  0  0  0
 10  9  1  0  0  0  0
 11 10  1  0  0  0  0
 11 18  1  0  0  0  0
M  END
>  <DRUGBANK_ID>
DB03430

>  <SECONDARY_ACCESSION_NUMBERS>
EXPT01197

>  <COMMON_NAME>
(S)-4-hydroxymandelonitrile

>  <CAS_NUMBER>
71807-09-5

>  <UNII>
9BAR4IH1OD

>  <SYNONYMS>
(2S)-Hydroxy(4-hydroxyphenyl)ethanenitrile; 4-Hydroxy-L-mandelonitrile

$$$$
