SD2
 OpenBabel10282417072D

 62 63  0  0  0  0  0  0  0  0999 V2000
   -5.2422    0.6839    0.0000 C   0  0  0  0  0  0  0  0  0  0  0  0
   -4.5277    1.0964    0.0000 S   0  0  0  0  0  0  0  0  0  0  0  0
   -3.8132    0.6839    0.0000 C   0  0  0  0  0  0  0  0  0  0  0  0
   -3.0988    1.0964    0.0000 C   0  0  0  0  0  0  0  0  0  0  0  0
   -2.3843    0.6839    0.0000 C   0  0  1  0  0  0  0  0  0  0  0  0
   -2.3843   -0.1411    0.0000 C   0  0  0  0  0  0  0  0  0  0  0  0
   -1.6698   -0.5536    0.0000 O   0  0  0  0  0  0  0  0  0  0  0  0
   -3.0988   -0.5536    0.0000 N   0  0  0  0  0  0  0  0  0  0  0  0
   -1.6698    1.0964    0.0000 N   0  0  0  0  0  0  0  0  0  0  0  0
   -0.9554    0.6839    0.0000 C   0  0  0  0  0  0  0  0  0  0  0  0
   -0.9554   -0.1411    0.0000 O   0  0  0  0  0  0  0  0  0  0  0  0
   -0.2409    1.0964    0.0000 C   0  0  2  0  0  0  0  0  0  0  0  0
   -0.1547    1.9169    0.0000 C   0  0  0  0  0  0  0  0  0  0  0  0
    0.6523    2.0884    0.0000 C   0  0  0  0  0  0  0  0  0  0  0  0
    1.0648    1.3740    0.0000 C   0  0  0  0  0  0  0  0  0  0  0  0
    0.5128    0.7609    0.0000 N   0  0  0  0  0  0  0  0  0  0  0  0
    0.6843   -0.0461    0.0000 C   0  0  0  0  0  0  0  0  0  0  0  0
    0.0712   -0.5981    0.0000 O   0  0  0  0  0  0  0  0  0  0  0  0
    1.4689   -0.3011    0.0000 C   0  0  1  0  0  0  0  0  0  0  0  0
    1.6405   -1.1080    0.0000 N   0  0  0  0  0  0  0  0  0  0  0  0
    1.0274   -1.6601    0.0000 C   0  0  0  0  0  0  0  0  0  0  0  0
    0.2427   -1.4051    0.0000 O   0  0  0  0  0  0  0  0  0  0  0  0
    1.1989   -2.4670    0.0000 C   0  0  0  0  0  0  0  0  0  0  0  0
    0.5858   -3.0191    0.0000 S   0  0  0  0  0  0  0  0  0  0  0  0
    2.0820    0.2510    0.0000 C   0  0  0  0  0  0  0  0  0  0  0  0
    2.8666   -0.0040    0.0000 C   0  0  0  0  0  0  0  0  0  0  0  0
    3.4797    0.5481    0.0000 C   0  0  0  0  0  0  0  0  0  0  0  0
    4.2644    0.2931    0.0000 C   0  0  0  0  0  0  0  0  0  0  0  0
    4.4359   -0.5138    0.0000 C   0  0  0  0  0  0  0  0  0  0  0  0
    5.2205   -0.7688    0.0000 O   0  0  0  0  0  0  0  0  0  0  0  0
    3.8228   -1.0659    0.0000 C   0  0  0  0  0  0  0  0  0  0  0  0
    3.0382   -0.8109    0.0000 C   0  0  0  0  0  0  0  0  0  0  0  0
   -2.8900    0.3919    0.0000 H   0  0  0  0  0  0  0  0  0  0  0  0
   -0.7306    1.4144    0.0000 H   0  0  0  0  0  0  0  0  0  0  0  0
    1.0350   -0.6918    0.0000 H   0  0  0  0  0  0  0  0  0  0  0  0
   -6.1688    1.2189    0.0000 H   0  0  0  0  0  0  0  0  0  0  0  0
   -5.2422   -0.3861    0.0000 H   0  0  0  0  0  0  0  0  0  0  0  0
   -6.1689    0.1489    0.0000 H   0  0  0  0  0  0  0  0  0  0  0  0
   -3.8132   -0.3861    0.0000 H   0  0  0  0  0  0  0  0  0  0  0  0
   -2.8865    0.1489    0.0000 H   0  0  0  0  0  0  0  0  0  0  0  0
   -3.0988    2.1664    0.0000 H   0  0  0  0  0  0  0  0  0  0  0  0
   -2.1722    1.6314    0.0000 H   0  0  0  0  0  0  0  0  0  0  0  0
   -3.9514   -0.0613    0.0000 H   0  0  0  0  0  0  0  0  0  0  0  0
   -3.0988   -1.5381    0.0000 H   0  0  0  0  0  0  0  0  0  0  0  0
   -1.6698    2.0809    0.0000 H   0  0  0  0  0  0  0  0  0  0  0  0
   -0.9499    2.6329    0.0000 H   0  0  0  0  0  0  0  0  0  0  0  0
    0.1223    2.9504    0.0000 H   0  0  0  0  0  0  0  0  0  0  0  0
    1.0875    3.0659    0.0000 H   0  0  0  0  0  0  0  0  0  0  0  0
    1.7208    2.1444    0.0000 H   0  0  0  0  0  0  0  0  0  0  0  0
    2.1289    1.2622    0.0000 H   0  0  0  0  0  0  0  0  0  0  0  0
    1.4483    0.3751    0.0000 H   0  0  0  0  0  0  0  0  0  0  0  0
    2.5768   -1.4122    0.0000 H   0  0  0  0  0  0  0  0  0  0  0  0
    2.2165   -2.7976    0.0000 H   0  0  0  0  0  0  0  0  0  0  0  0
    1.4214   -3.5136    0.0000 H   0  0  0  0  0  0  0  0  0  0  0  0
   -0.7077   -2.5989    0.0000 H   0  0  0  0  0  0  0  0  0  0  0  0
    1.8595    1.2976    0.0000 H   0  0  0  0  0  0  0  0  0  0  0  0
    2.8772    0.9669    0.0000 H   0  0  0  0  0  0  0  0  0  0  0  0
    3.2651    1.5575    0.0000 H   0  0  0  0  0  0  0  0  0  0  0  0
    5.0313    0.9836    0.0000 H   0  0  0  0  0  0  0  0  0  0  0  0
    5.4152   -1.6853    0.0000 H   0  0  0  0  0  0  0  0  0  0  0  0
    4.0374   -2.0754    0.0000 H   0  0  0  0  0  0  0  0  0  0  0  0
    2.2713   -1.5015    0.0000 H   0  0  0  0  0  0  0  0  0  0  0  0
  1  2  1  0  0  0  0
  1 36  1  0  0  0  0
  1 37  1  0  0  0  0
  1 38  1  0  0  0  0
  2  3  1  0  0  0  0
  3  4  1  0  0  0  0
  3 39  1  0  0  0  0
  3 40  1  0  0  0  0
  4  5  1  0  0  0  0
  4 41  1  0  0  0  0
  4 42  1  0  0  0  0
  5  6  1  0  0  0  0
  5  9  1  0  0  0  0
  5 33  1  1  0  0  0
  6  7  2  0  0  0  0
  6  8  1  0  0  0  0
  8 43  1  0  0  0  0
  8 44  1  0  0  0  0
  9 10  1  0  0  0  0
  9 45  1  0  0  0  0
 10 11  2  0  0  0  0
 12 10  1  0  0  0  0
 12 13  1  0  0  0  0
 12 16  1  0  0  0  0
 12 34  1  1  0  0  0
 13 14  1  0  0  0  0
 13 46  1  0  0  0  0
 13 47  1  0  0  0  0
 14 15  1  0  0  0  0
 14 48  1  0  0  0  0
 14 49  1  0  0  0  0
 15 16  1  0  0  0  0
 15 50  1  0  0  0  0
 15 51  1  0  0  0  0
 16 17  1  0  0  0  0
 17 18  2  0  0  0  0
 17 19  1  0  0  0  0
 19 20  1  0  0  0  0
 19 25  1  0  0  0  0
 19 35  1  1  0  0  0
 20 21  1  0  0  0  0
 20 52  1  0  0  0  0
 21 22  2  0  0  0  0
 21 23  1  0  0  0  0
 23 24  1  0  0  0  0
 23 53  1  0  0  0  0
 23 54  1  0  0  0  0
 24 55  1  0  0  0  0
 25 26  1  0  0  0  0
 25 56  1  0  0  0  0
 25 57  1  0  0  0  0
 26 27  2  0  0  0  0
 26 32  1  0  0  0  0
 27 28  1  0  0  0  0
 27 58  1  0  0  0  0
 28 29  2  0  0  0  0
 28 59  1  0  0  0  0
 29 30  1  0  0  0  0
 29 31  1  0  0  0  0
 30 60  1  0  0  0  0
 31 32  2  0  0  0  0
 31 61  1  0  0  0  0
 32 62  1  0  0  0  0
M  END
>  <DRUGBANK_ID>
DB01883

>  <SECONDARY_ACCESSION_NUMBERS>
EXPT02874

>  <COMMON_NAME>
N-(Sulfanylacetyl)Tyrosylprolylmethioninamide

$$$$
