
 OpenBabel10282417072D

 81 83  0  0  1  0  0  0  0  0999 V2000
    2.4084    3.7860    0.0000 C   0  0  0  0  0  0  0  0  0  0  0  0
    1.5440    2.6481    0.0000 C   0  0  0  0  0  0  0  0  0  0  0  0
    4.9324    0.9713    0.0000 C   0  0  0  0  0  0  0  0  0  0  0  0
    6.7649    4.0654    0.0000 C   0  0  0  0  0  0  0  0  0  0  0  0
    6.1080    4.5645    0.0000 C   0  0  0  0  0  0  0  0  0  0  0  0
    1.8898   -0.3063    0.0000 C   0  0  0  0  0  0  0  0  0  0  0  0
    7.4564   -1.8434    0.0000 C   0  0  0  0  0  0  0  0  0  0  0  0
    7.5602   -1.0249    0.0000 C   0  0  0  0  0  0  0  0  0  0  0  0
    6.6958   -2.1628    0.0000 C   0  0  0  0  0  0  0  0  0  0  0  0
    6.3500    0.7916    0.0000 C   0  0  0  0  0  0  0  0  0  0  0  0
    6.4538    1.6101    0.0000 C   0  0  0  0  0  0  0  0  0  0  0  0
    6.9032   -0.5259    0.0000 C   0  0  0  0  0  0  0  0  0  0  0  0
    6.0388   -1.6637    0.0000 C   0  0  0  0  0  0  0  0  0  0  0  0
    5.5894    0.4722    0.0000 C   0  0  0  0  0  0  0  0  0  0  0  0
    5.7968    2.1091    0.0000 C   0  0  0  0  0  0  0  0  0  0  0  0
    3.8260    3.6063    0.0000 C   0  0  0  0  0  0  0  0  0  0  0  0
    4.4829    3.1072    0.0000 C   0  0  0  0  0  0  0  0  0  0  0  0
    3.0653    3.2869    0.0000 C   0  0  1  0  0  0  0  0  0  0  0  0
    2.2009    2.1491    0.0000 C   0  0  1  0  0  0  0  0  0  0  0  0
    4.1718    0.6519    0.0000 C   0  0  2  0  0  0  0  0  0  0  0  0
    6.1426   -0.8453    0.0000 C   0  0  0  0  0  0  0  0  0  0  0  0
    5.4856   -0.3462    0.0000 C   0  0  1  0  0  0  0  0  0  0  0  0
    5.9005    2.9276    0.0000 C   0  0  1  0  0  0  0  0  0  0  0  0
    5.2436    3.4266    0.0000 C   0  0  2  0  0  0  0  0  0  0  0  0
    2.0972    1.3306    0.0000 C   0  0  1  0  0  0  0  0  0  0  0  0
    2.9616    2.4685    0.0000 C   0  0  1  0  0  0  0  0  0  0  0  0
    2.7542    0.8315    0.0000 C   0  0  2  0  0  0  0  0  0  0  0  0
    4.0680   -0.1666    0.0000 C   0  0  0  0  0  0  0  0  0  0  0  0
    3.5148    1.1509    0.0000 C   0  0  1  0  0  0  0  0  0  0  0  0
    1.3366    1.0112    0.0000 O   0  0  0  0  0  0  0  0  0  0  0  0
    3.3074   -0.4860    0.0000 O   0  0  0  0  0  0  0  0  0  0  0  0
    3.4111    0.3325    0.0000 O   0  0  0  0  0  0  0  0  0  0  0  0
    6.6612    3.2470    0.0000 O   0  0  0  0  0  0  0  0  0  0  0  0
    5.3473    4.2451    0.0000 O   0  0  0  0  0  0  0  0  0  0  0  0
    2.6504    0.0131    0.0000 O   0  0  0  0  0  0  0  0  0  0  0  0
    4.7250   -0.6656    0.0000 O   0  0  0  0  0  0  0  0  0  0  0  0
    3.6185    1.9694    0.0000 O   0  0  0  0  0  0  0  0  0  0  0  0
    3.9297    4.4248    0.0000 H   0  0  0  0  0  0  0  0  0  0  0  0
    4.3792    2.2888    0.0000 H   0  0  0  0  0  0  0  0  0  0  0  0
    3.1691    4.1054    0.0000 H   0  0  0  0  0  0  0  0  0  0  0  0
    1.5954    1.5888    0.0000 H   0  0  0  0  0  0  0  0  0  0  0  0
    4.8287    0.1528    0.0000 H   0  0  0  0  0  0  0  0  0  0  0  0
    6.2463   -0.0268    0.0000 H   0  0  0  0  0  0  0  0  0  0  0  0
    6.5575    2.4285    0.0000 H   0  0  0  0  0  0  0  0  0  0  0  0
    4.5867    3.9257    0.0000 H   0  0  0  0  0  0  0  0  0  0  0  0
    1.3092    1.5749    0.0000 H   0  0  0  0  0  0  0  0  0  0  0  0
    2.3047    2.9675    0.0000 H   0  0  0  0  0  0  0  0  0  0  0  0
    1.9935    0.5122    0.0000 H   0  0  0  0  0  0  0  0  0  0  0  0
    2.5430    4.8475    0.0000 H   0  0  0  0  0  0  0  0  0  0  0  0
    1.4218    3.3718    0.0000 H   0  0  0  0  0  0  0  0  0  0  0  0
    1.5564    4.4333    0.0000 H   0  0  0  0  0  0  0  0  0  0  0  0
    1.6785    3.7096    0.0000 H   0  0  0  0  0  0  0  0  0  0  0  0
    0.5575    2.2338    0.0000 H   0  0  0  0  0  0  0  0  0  0  0  0
    0.6920    3.2953    0.0000 H   0  0  0  0  0  0  0  0  0  0  0  0
    5.7845    0.3241    0.0000 H   0  0  0  0  0  0  0  0  0  0  0  0
    5.0669    2.0328    0.0000 H   0  0  0  0  0  0  0  0  0  0  0  0
    5.9189    1.3856    0.0000 H   0  0  0  0  0  0  0  0  0  0  0  0
    7.7514    4.4797    0.0000 H   0  0  0  0  0  0  0  0  0  0  0  0
    5.9129    4.7126    0.0000 H   0  0  0  0  0  0  0  0  0  0  0  0
    6.8994    5.1269    0.0000 H   0  0  0  0  0  0  0  0  0  0  0  0
    6.9600    3.9172    0.0000 H   0  0  0  0  0  0  0  0  0  0  0  0
    6.2425    5.6260    0.0000 H   0  0  0  0  0  0  0  0  0  0  0  0
    7.0946    4.9787    0.0000 H   0  0  0  0  0  0  0  0  0  0  0  0
    1.0377    0.3409    0.0000 H   0  0  0  0  0  0  0  0  0  0  0  0
    1.7553   -1.3678    0.0000 H   0  0  0  0  0  0  0  0  0  0  0  0
    0.9033   -0.7206    0.0000 H   0  0  0  0  0  0  0  0  0  0  0  0
    8.2782   -2.4677    0.0000 H   0  0  0  0  0  0  0  0  0  0  0  0
    8.5117   -0.6254    0.0000 H   0  0  0  0  0  0  0  0  0  0  0  0
    6.5661   -3.1866    0.0000 H   0  0  0  0  0  0  0  0  0  0  0  0
    7.2020    0.1443    0.0000 H   0  0  0  0  0  0  0  0  0  0  0  0
    6.2155   -0.2699    0.0000 H   0  0  0  0  0  0  0  0  0  0  0  0
    7.4404    2.0244    0.0000 H   0  0  0  0  0  0  0  0  0  0  0  0
    6.5883    2.6716    0.0000 H   0  0  0  0  0  0  0  0  0  0  0  0
    7.0329    0.4979    0.0000 H   0  0  0  0  0  0  0  0  0  0  0  0
    5.0873   -2.0632    0.0000 H   0  0  0  0  0  0  0  0  0  0  0  0
    4.7374    1.1195    0.0000 H   0  0  0  0  0  0  0  0  0  0  0  0
    4.6028    0.0580    0.0000 H   0  0  0  0  0  0  0  0  0  0  0  0
    4.8103    1.6948    0.0000 H   0  0  0  0  0  0  0  0  0  0  0  0
    4.9447    2.7563    0.0000 H   0  0  0  0  0  0  0  0  0  0  0  0
    0.5642    1.5979    0.0000 H   0  0  0  0  0  0  0  0  0  0  0  0
    2.5168   -0.0431    0.0000 H   0  0  0  0  0  0  0  0  0  0  0  0
  1 49  1  0  0  0  0
  1 50  1  0  0  0  0
  1 51  1  0  0  0  0
  2 52  1  0  0  0  0
  2 53  1  0  0  0  0
  2 54  1  0  0  0  0
  3 55  1  0  0  0  0
  3 56  1  0  0  0  0
  3 57  1  0  0  0  0
  4 58  1  0  0  0  0
  4 59  1  0  0  0  0
  4 60  1  0  0  0  0
  5 61  1  0  0  0  0
  5 62  1  0  0  0  0
  5 63  1  0  0  0  0
  6 64  1  0  0  0  0
  6 65  1  0  0  0  0
  6 66  1  0  0  0  0
  7 67  1  0  0  0  0
  8  7  2  0  0  0  0
  8 68  1  0  0  0  0
  9  7  1  0  0  0  0
  9 69  1  0  0  0  0
 10 70  1  0  0  0  0
 10 71  1  0  0  0  0
 11 10  1  0  0  0  0
 11 72  1  0  0  0  0
 11 73  1  0  0  0  0
 12  8  1  0  0  0  0
 12 74  1  0  0  0  0
 13  9  2  0  0  0  0
 13 75  1  0  0  0  0
 14 10  1  0  0  0  0
 14 76  1  0  0  0  0
 14 77  1  0  0  0  0
 15 11  1  0  0  0  0
 15 78  1  0  0  0  0
 15 79  1  0  0  0  0
 17 16  2  0  0  0  0
 18  1  1  0  0  0  0
 18 16  1  0  0  0  0
 18 40  1  6  0  0  0
 19  2  1  0  0  0  0
 19 41  1  1  0  0  0
 20  3  1  0  0  0  0
 20 42  1  1  0  0  0
 21 12  2  0  0  0  0
 21 13  1  0  0  0  0
 22 14  1  0  0  0  0
 22 21  1  0  0  0  0
 22 43  1  6  0  0  0
 23 15  1  0  0  0  0
 23 33  1  0  0  0  0
 23 44  1  6  0  0  0
 24 17  1  0  0  0  0
 24 23  1  0  0  0  0
 24 34  1  0  0  0  0
 24 45  1  6  0  0  0
 25 19  1  0  0  0  0
 25 30  1  0  0  0  0
 25 46  1  6  0  0  0
 26 18  1  0  0  0  0
 26 19  1  0  0  0  0
 26 47  1  1  0  0  0
 27 25  1  0  0  0  0
 27 35  1  0  0  0  0
 27 48  1  1  0  0  0
 28 20  1  0  0  0  0
 29 20  1  0  0  0  0
 29 27  1  0  0  0  0
 29 32  1  1  0  0  0
 30 80  1  0  0  0  0
 31 28  2  0  0  0  0
 32 81  1  0  0  0  0
 33  4  1  0  0  0  0
 34  5  1  0  0  0  0
 35  6  1  0  0  0  0
 36 22  1  0  0  0  0
 36 28  1  0  0  0  0
 37 26  1  0  0  0  0
 37 29  1  0  0  0  0
 38 16  1  0  0  0  0
 39 17  1  0  0  0  0
M  END
>  <DRUGBANK_ID>
DB02859

>  <SECONDARY_ACCESSION_NUMBERS>
EXPT02829

>  <COMMON_NAME>
Soraphen A

>  <CAS_NUMBER>
122547-72-2

$$$$
