
 OpenBabel10282417072D

 74 76  0  0  0  0  0  0  0  0999 V2000
   -1.4641    1.7288    0.0000 C   0  0  0  0  0  0  0  0  0  0  0  0
   -1.4641    0.0787    0.0000 C   0  0  0  0  0  0  0  0  0  0  0  0
    0.0350    0.2363    0.0000 C   0  0  0  0  0  0  0  0  0  0  0  0
    0.5199    0.9038    0.0000 C   0  0  0  0  0  0  0  0  0  0  0  0
   -2.1786    1.3163    0.0000 C   0  0  0  0  0  0  0  0  0  0  0  0
   -1.4641   -0.7462    0.0000 C   0  0  0  0  0  0  0  0  0  0  0  0
   -2.1786    0.4912    0.0000 C   0  0  0  0  0  0  0  0  0  0  0  0
   -2.1786   -1.1588    0.0000 C   0  0  0  0  0  0  0  0  0  0  0  0
   -2.1786   -1.9838    0.0000 C   0  0  0  0  0  0  0  0  0  0  0  0
   -1.4641   -2.3964    0.0000 C   0  0  0  0  0  0  0  0  0  0  0  0
   -2.8930   -2.3964    0.0000 C   0  0  0  0  0  0  0  0  0  0  0  0
   -1.4641   -3.2213    0.0000 C   0  0  2  0  0  0  0  0  0  0  0  0
   -2.8930   -3.2213    0.0000 C   0  0  2  0  0  0  0  0  0  0  0  0
   -2.1786   -3.6339    0.0000 C   0  0  0  0  0  0  0  0  0  0  0  0
   -3.6076   -3.6339    0.0000 O   0  0  0  0  0  0  0  0  0  0  0  0
   -0.6794    2.8089    0.0000 C   0  0  0  0  0  0  0  0  0  0  0  0
    0.0350    2.3964    0.0000 C   0  0  2  0  0  0  0  0  0  0  0  0
    0.7496    2.8089    0.0000 C   0  0  0  0  0  0  0  0  0  0  0  0
    1.4640    2.3964    0.0000 C   0  0  0  0  0  0  0  0  0  0  0  0
    3.6076    2.8089    0.0000 C   0  0  0  0  0  0  0  0  0  0  0  0
    2.8931    2.3964    0.0000 C   0  0  0  0  0  0  0  0  0  0  0  0
    2.8931    1.5713    0.0000 C   0  0  0  0  0  0  0  0  0  0  0  0
    2.1786    2.8089    0.0000 C   0  0  1  0  0  0  0  0  0  0  0  0
    2.1786    3.6339    0.0000 C   0  0  0  0  0  0  0  0  0  0  0  0
    0.0350    1.5713    0.0000 C   0  0  2  0  0  0  0  0  0  0  0  0
    0.7496    1.9838    0.0000 H   0  0  0  0  0  0  0  0  0  0  0  0
   -0.7496    0.4912    0.0000 C   0  0  2  0  0  0  0  0  0  0  0  0
   -0.7496   -0.3337    0.0000 H   0  0  0  0  0  0  0  0  0  0  0  0
   -0.7496    1.3163    0.0000 C   0  0  2  0  0  0  0  0  0  0  0  0
   -0.7496    2.1414    0.0000 C   0  0  0  0  0  0  0  0  0  0  0  0
    3.6076    1.9838    0.0000 O   0  0  0  0  0  0  0  0  0  0  0  0
   -0.7496   -3.6339    0.0000 O   0  0  0  0  0  0  0  0  0  0  0  0
   -1.4641    2.7988    0.0000 H   0  0  0  0  0  0  0  0  0  0  0  0
   -2.3907    2.2638    0.0000 H   0  0  0  0  0  0  0  0  0  0  0  0
    0.3657   -0.7813    0.0000 H   0  0  0  0  0  0  0  0  0  0  0  0
    1.0918    0.0690    0.0000 H   0  0  0  0  0  0  0  0  0  0  0  0
    1.5899    0.9038    0.0000 H   0  0  0  0  0  0  0  0  0  0  0  0
    1.0057   -0.0496    0.0000 H   0  0  0  0  0  0  0  0  0  0  0  0
   -3.1052    1.8513    0.0000 H   0  0  0  0  0  0  0  0  0  0  0  0
   -3.1052    0.7813    0.0000 H   0  0  0  0  0  0  0  0  0  0  0  0
   -0.5703   -1.2622    0.0000 H   0  0  0  0  0  0  0  0  0  0  0  0
   -3.1052   -0.0438    0.0000 H   0  0  0  0  0  0  0  0  0  0  0  0
   -3.1052    1.0262    0.0000 H   0  0  0  0  0  0  0  0  0  0  0  0
   -3.0724   -0.6428    0.0000 H   0  0  0  0  0  0  0  0  0  0  0  0
   -0.5374   -1.8614    0.0000 H   0  0  0  0  0  0  0  0  0  0  0  0
   -0.5375   -2.9314    0.0000 H   0  0  0  0  0  0  0  0  0  0  0  0
   -3.8197   -1.8615    0.0000 H   0  0  0  0  0  0  0  0  0  0  0  0
   -3.8196   -2.9314    0.0000 H   0  0  0  0  0  0  0  0  0  0  0  0
   -0.5374   -2.6863    0.0000 H   0  0  0  0  0  0  0  0  0  0  0  0
   -3.8197   -2.6863    0.0000 H   0  0  0  0  0  0  0  0  0  0  0  0
   -2.1786   -4.7039    0.0000 H   0  0  0  0  0  0  0  0  0  0  0  0
   -3.1053   -4.1688    0.0000 H   0  0  0  0  0  0  0  0  0  0  0  0
   -4.4477   -3.1489    0.0000 H   0  0  0  0  0  0  0  0  0  0  0  0
   -0.6794    3.8789    0.0000 H   0  0  0  0  0  0  0  0  0  0  0  0
   -1.6061    2.2739    0.0000 H   0  0  0  0  0  0  0  0  0  0  0  0
   -1.6060    3.3439    0.0000 H   0  0  0  0  0  0  0  0  0  0  0  0
   -0.8917    1.8614    0.0000 H   0  0  0  0  0  0  0  0  0  0  0  0
    0.7497    3.8409    0.0000 H   0  0  0  0  0  0  0  0  0  0  0  0
    1.4639    1.3644    0.0000 H   0  0  0  0  0  0  0  0  0  0  0  0
    4.5342    2.2739    0.0000 H   0  0  0  0  0  0  0  0  0  0  0  0
    3.6076    3.8789    0.0000 H   0  0  0  0  0  0  0  0  0  0  0  0
    4.5343    3.3439    0.0000 H   0  0  0  0  0  0  0  0  0  0  0  0
    1.9665    1.0363    0.0000 H   0  0  0  0  0  0  0  0  0  0  0  0
    3.8197    1.0363    0.0000 H   0  0  0  0  0  0  0  0  0  0  0  0
    2.8931    0.5013    0.0000 H   0  0  0  0  0  0  0  0  0  0  0  0
    1.2520    3.3439    0.0000 H   0  0  0  0  0  0  0  0  0  0  0  0
    3.1052    4.1689    0.0000 H   0  0  0  0  0  0  0  0  0  0  0  0
    1.2520    4.1689    0.0000 H   0  0  0  0  0  0  0  0  0  0  0  0
    2.1786    4.7039    0.0000 H   0  0  0  0  0  0  0  0  0  0  0  0
    0.1770    2.6764    0.0000 H   0  0  0  0  0  0  0  0  0  0  0  0
   -1.6762    2.6764    0.0000 H   0  0  0  0  0  0  0  0  0  0  0  0
   -0.7496    3.2114    0.0000 H   0  0  0  0  0  0  0  0  0  0  0  0
    3.6075    1.0138    0.0000 H   0  0  0  0  0  0  0  0  0  0  0  0
   -0.7497   -4.6039    0.0000 H   0  0  0  0  0  0  0  0  0  0  0  0
  1  5  1  0  0  0  0
  1 33  1  0  0  0  0
  1 34  1  0  0  0  0
  2  6  2  0  0  0  0
  2  7  1  0  0  0  0
  3  4  1  0  0  0  0
  3 35  1  0  0  0  0
  3 36  1  0  0  0  0
  4 37  1  0  0  0  0
  4 38  1  0  0  0  0
  5  7  1  0  0  0  0
  5 39  1  0  0  0  0
  5 40  1  0  0  0  0
  6  8  1  0  0  0  0
  6 41  1  0  0  0  0
  7 42  1  0  0  0  0
  7 43  1  0  0  0  0
  8  9  2  0  0  0  0
  8 44  1  0  0  0  0
  9 10  1  0  0  0  0
  9 11  1  0  0  0  0
 10 12  1  0  0  0  0
 10 45  1  0  0  0  0
 10 46  1  0  0  0  0
 11 13  1  0  0  0  0
 11 47  1  0  0  0  0
 11 48  1  0  0  0  0
 12 14  1  0  0  0  0
 12 32  1  0  0  0  0
 12 49  1  6  0  0  0
 13 15  1  0  0  0  0
 13 14  1  0  0  0  0
 13 50  1  1  0  0  0
 14 51  1  0  0  0  0
 14 52  1  0  0  0  0
 15 53  1  0  0  0  0
 16 54  1  0  0  0  0
 16 55  1  0  0  0  0
 16 56  1  0  0  0  0
 17 16  1  0  0  0  0
 17 18  1  0  0  0  0
 17 57  1  1  0  0  0
 18 19  2  0  0  0  0
 18 58  1  0  0  0  0
 19 23  1  0  0  0  0
 19 59  1  0  0  0  0
 20 60  1  0  0  0  0
 20 61  1  0  0  0  0
 20 62  1  0  0  0  0
 21 20  1  0  0  0  0
 21 22  1  0  0  0  0
 21 31  1  0  0  0  0
 22 63  1  0  0  0  0
 22 64  1  0  0  0  0
 22 65  1  0  0  0  0
 23 21  1  0  0  0  0
 23 24  1  0  0  0  0
 23 66  1  1  0  0  0
 24 67  1  0  0  0  0
 24 68  1  0  0  0  0
 24 69  1  0  0  0  0
 25  4  1  0  0  0  0
 25 17  1  0  0  0  0
 25 26  1  6  0  0  0
 27 29  1  0  0  0  0
 27  2  1  0  0  0  0
 27  3  1  0  0  0  0
 27 28  1  6  0  0  0
 29 25  1  0  0  0  0
 29  1  1  0  0  0  0
 29 30  1  1  0  0  0
 30 70  1  0  0  0  0
 30 71  1  0  0  0  0
 30 72  1  0  0  0  0
 31 73  1  0  0  0  0
 32 74  1  0  0  0  0
M  END
>  <DRUGBANK_ID>
DB00910

>  <SECONDARY_ACCESSION_NUMBERS>
APRD01165

>  <COMMON_NAME>
Paricalcitol

>  <CAS_NUMBER>
131918-61-1

>  <UNII>
6702D36OG5

>  <SYNONYMS>
19-Nor-1alpha,25-dihydroxyvitamin D2; Paricalcitol

$$$$
