
 OpenBabel10282417072D

115118  0  0  0  0  0  0  0  0999 V2000
    7.8582    3.7125    0.0000 C   0  0  0  0  0  0  0  0  0  0  0  0
   -7.8582   -1.2375    0.0000 C   0  0  0  0  0  0  0  0  0  0  0  0
    5.7166    4.9499    0.0000 C   0  0  0  0  0  0  0  0  0  0  0  0
   -4.2874    0.0000    0.0000 C   0  0  0  0  0  0  0  0  0  0  0  0
   -2.9708   -2.8875    0.0000 C   0  0  0  0  0  0  0  0  0  0  0  0
   -1.3208   -2.8875    0.0000 C   0  0  0  0  0  0  0  0  0  0  0  0
   -2.1458   -2.0625    0.0000 C   0  0  0  0  0  0  0  0  0  0  0  0
   -1.4292   -4.9499    0.0000 O   0  0  0  0  0  0  0  0  0  0  0  0
    2.1416    3.7125    0.0000 O   0  0  0  0  0  0  0  0  0  0  0  0
   -2.8582   -2.4749    0.0000 O   0  0  0  0  0  0  0  0  0  0  0  0
    0.7124   -3.7125    0.0000 C   0  0  0  0  0  0  0  0  0  0  0  0
    0.0000   -2.4749    0.0000 C   0  0  0  0  0  0  0  0  0  0  0  0
    2.1416    1.2375    0.0000 C   0  0  0  0  0  0  0  0  0  0  0  0
    3.5707    1.2375    0.0000 C   0  0  0  0  0  0  0  0  0  0  0  0
   -0.7166   -1.2375    0.0000 C   0  0  0  0  0  0  0  0  0  0  0  0
   -1.4292    0.0000    0.0000 C   0  0  0  0  0  0  0  0  0  0  0  0
    0.0000   -4.1249    0.0000 C   0  0  0  0  0  0  0  0  0  0  0  0
   -0.7166   -2.8875    0.0000 C   0  0  0  0  0  0  0  0  0  0  0  0
    2.1416    2.0625    0.0000 C   0  0  0  0  0  0  0  0  0  0  0  0
    3.5707    2.0625    0.0000 C   0  0  0  0  0  0  0  0  0  0  0  0
   -1.4292   -1.6499    0.0000 C   0  0  0  0  0  0  0  0  0  0  0  0
   -2.1458   -0.4125    0.0000 C   0  0  0  0  0  0  0  0  0  0  0  0
    7.1457    3.2999    0.0000 C   0  0  0  0  0  0  0  0  0  0  0  0
   -7.1457   -1.6499    0.0000 C   0  0  0  0  0  0  0  0  0  0  0  0
    6.4291    3.7125    0.0000 C   0  0  0  0  0  0  0  0  0  0  0  0
   -6.4291   -1.2375    0.0000 C   0  0  0  0  0  0  0  0  0  0  0  0
    4.9999    4.5375    0.0000 C   0  0  0  0  0  0  0  0  0  0  0  0
   -4.9999   -0.4125    0.0000 C   0  0  0  0  0  0  0  0  0  0  0  0
    5.7166    3.2999    0.0000 C   0  0  0  0  0  0  0  0  0  0  0  0
   -5.7166   -1.6499    0.0000 C   0  0  0  0  0  0  0  0  0  0  0  0
    4.2874    3.2999    0.0000 C   0  0  0  0  0  0  0  0  0  0  0  0
   -4.2874   -1.6499    0.0000 C   0  0  0  0  0  0  0  0  0  0  0  0
    2.1416   -1.2375    0.0000 N   0  0  0  0  0  0  0  0  0  0  0  0
    0.7124   -1.2375    0.0000 N   0  0  0  0  0  0  0  0  0  0  0  0
    1.4292    0.0000    0.0000 N   0  0  0  0  0  0  0  0  0  0  0  0
    1.4292   -2.4749    0.0000 N   0  0  0  0  0  0  0  0  0  0  0  0
    2.8582    0.0000    0.0000 N   0  0  0  0  0  0  0  0  0  0  0  0
    0.0000    0.0000    0.0000 N   0  0  0  0  0  0  0  0  0  0  0  0
   -2.1458   -3.7125    0.0000 N   0  0  0  0  0  0  0  0  0  0  0  0
    3.5707    3.7125    0.0000 O   0  0  0  0  0  0  0  0  0  0  0  0
   -3.5707   -1.2375    0.0000 O   0  0  0  0  0  0  0  0  0  0  0  0
   -1.4292   -4.1249    0.0000 C   0  0  0  0  0  0  0  0  0  0  0  0
    2.8582    3.2999    0.0000 C   0  0  0  0  0  0  0  0  0  0  0  0
   -2.8582   -1.6499    0.0000 C   0  0  0  0  0  0  0  0  0  0  0  0
    0.7124   -2.8875    0.0000 C   0  0  0  0  0  0  0  0  0  0  0  0
    2.8582    0.8250    0.0000 C   0  0  0  0  0  0  0  0  0  0  0  0
   -0.7166   -0.4125    0.0000 C   0  0  0  0  0  0  0  0  0  0  0  0
   -0.7166   -3.7125    0.0000 C   0  0  0  0  0  0  0  0  0  0  0  0
    2.8582    2.4749    0.0000 C   0  0  0  0  0  0  0  0  0  0  0  0
   -2.1458   -1.2375    0.0000 C   0  0  0  0  0  0  0  0  0  0  0  0
    1.4292   -1.6499    0.0000 C   0  0  0  0  0  0  0  0  0  0  0  0
    2.1416   -0.4125    0.0000 C   0  0  0  0  0  0  0  0  0  0  0  0
    0.7124   -0.4125    0.0000 C   0  0  0  0  0  0  0  0  0  0  0  0
    4.9999    3.7125    0.0000 C   0  0  3  0  0  0  0  0  0  0  0  0
   -4.9999   -1.2375    0.0000 C   0  0  3  0  0  0  0  0  0  0  0  0
   -2.1458   -2.8875    0.0000 C   0  0  0  0  0  0  0  0  0  0  0  0
    8.7855    3.1787    0.0000 H   0  0  0  0  0  0  0  0  0  0  0  0
    7.8568    4.7825    0.0000 H   0  0  0  0  0  0  0  0  0  0  0  0
    8.7841    4.2487    0.0000 H   0  0  0  0  0  0  0  0  0  0  0  0
   -7.8570   -0.1675    0.0000 H   0  0  0  0  0  0  0  0  0  0  0  0
   -8.7854   -1.7715    0.0000 H   0  0  0  0  0  0  0  0  0  0  0  0
   -8.7843   -0.7015    0.0000 H   0  0  0  0  0  0  0  0  0  0  0  0
    6.6425    4.4136    0.0000 H   0  0  0  0  0  0  0  0  0  0  0  0
    5.7182    6.0199    0.0000 H   0  0  0  0  0  0  0  0  0  0  0  0
    6.6440    5.4836    0.0000 H   0  0  0  0  0  0  0  0  0  0  0  0
   -3.3601   -0.5339    0.0000 H   0  0  0  0  0  0  0  0  0  0  0  0
   -4.2887    1.0700    0.0000 H   0  0  0  0  0  0  0  0  0  0  0  0
   -3.3614    0.5361    0.0000 H   0  0  0  0  0  0  0  0  0  0  0  0
   -3.5058   -1.9609    0.0000 H   0  0  0  0  0  0  0  0  0  0  0  0
   -3.5058   -3.8141    0.0000 H   0  0  0  0  0  0  0  0  0  0  0  0
   -4.0408   -2.8875    0.0000 H   0  0  0  0  0  0  0  0  0  0  0  0
   -0.7858   -3.8141    0.0000 H   0  0  0  0  0  0  0  0  0  0  0  0
   -0.7858   -1.9609    0.0000 H   0  0  0  0  0  0  0  0  0  0  0  0
   -0.2508   -2.8875    0.0000 H   0  0  0  0  0  0  0  0  0  0  0  0
   -1.2192   -1.5275    0.0000 H   0  0  0  0  0  0  0  0  0  0  0  0
   -3.0724   -1.5275    0.0000 H   0  0  0  0  0  0  0  0  0  0  0  0
   -2.1458   -0.9925    0.0000 H   0  0  0  0  0  0  0  0  0  0  0  0
    1.6064   -4.2280    0.0000 H   0  0  0  0  0  0  0  0  0  0  0  0
    0.0013   -1.4429    0.0000 H   0  0  0  0  0  0  0  0  0  0  0  0
    1.2482    0.7209    0.0000 H   0  0  0  0  0  0  0  0  0  0  0  0
    4.4647    0.7220    0.0000 H   0  0  0  0  0  0  0  0  0  0  0  0
    0.1774   -1.7530    0.0000 H   0  0  0  0  0  0  0  0  0  0  0  0
   -1.4279    1.0320    0.0000 H   0  0  0  0  0  0  0  0  0  0  0  0
    0.0013   -5.1569    0.0000 H   0  0  0  0  0  0  0  0  0  0  0  0
   -1.6100   -2.3710    0.0000 H   0  0  0  0  0  0  0  0  0  0  0  0
    1.2482    2.5791    0.0000 H   0  0  0  0  0  0  0  0  0  0  0  0
    4.4647    2.5780    0.0000 H   0  0  0  0  0  0  0  0  0  0  0  0
   -1.4279   -2.6819    0.0000 H   0  0  0  0  0  0  0  0  0  0  0  0
   -3.0392    0.1041    0.0000 H   0  0  0  0  0  0  0  0  0  0  0  0
    7.1470    2.2299    0.0000 H   0  0  0  0  0  0  0  0  0  0  0  0
    6.2197    2.7638    0.0000 H   0  0  0  0  0  0  0  0  0  0  0  0
   -7.1470   -2.7199    0.0000 H   0  0  0  0  0  0  0  0  0  0  0  0
   -6.2198   -2.1861    0.0000 H   0  0  0  0  0  0  0  0  0  0  0  0
    6.4278    4.7825    0.0000 H   0  0  0  0  0  0  0  0  0  0  0  0
    5.5018    4.2463    0.0000 H   0  0  0  0  0  0  0  0  0  0  0  0
   -6.4278   -0.1675    0.0000 H   0  0  0  0  0  0  0  0  0  0  0  0
   -5.5018   -0.7036    0.0000 H   0  0  0  0  0  0  0  0  0  0  0  0
    4.0736    5.0732    0.0000 H   0  0  0  0  0  0  0  0  0  0  0  0
    4.0731    4.0028    0.0000 H   0  0  0  0  0  0  0  0  0  0  0  0
   -5.9269    0.1219    0.0000 H   0  0  0  0  0  0  0  0  0  0  0  0
   -5.9264   -0.9478    0.0000 H   0  0  0  0  0  0  0  0  0  0  0  0
    5.7180    2.2299    0.0000 H   0  0  0  0  0  0  0  0  0  0  0  0
    4.7906    2.7637    0.0000 H   0  0  0  0  0  0  0  0  0  0  0  0
   -5.7180   -2.7199    0.0000 H   0  0  0  0  0  0  0  0  0  0  0  0
   -4.7907   -2.1862    0.0000 H   0  0  0  0  0  0  0  0  0  0  0  0
    4.2888    2.2299    0.0000 H   0  0  0  0  0  0  0  0  0  0  0  0
    5.2147    2.7661    0.0000 H   0  0  0  0  0  0  0  0  0  0  0  0
   -4.2888   -2.7199    0.0000 H   0  0  0  0  0  0  0  0  0  0  0  0
   -5.2147   -2.1838    0.0000 H   0  0  0  0  0  0  0  0  0  0  0  0
    2.2815   -2.9677    0.0000 H   0  0  0  0  0  0  0  0  0  0  0  0
    3.7105   -0.4928    0.0000 H   0  0  0  0  0  0  0  0  0  0  0  0
    0.0013    0.9845    0.0000 H   0  0  0  0  0  0  0  0  0  0  0  0
   -2.9981   -4.2053    0.0000 H   0  0  0  0  0  0  0  0  0  0  0  0
    5.9262    4.2481    0.0000 H   0  0  0  0  0  0  0  0  0  0  0  0
   -5.9262   -0.7018    0.0000 H   0  0  0  0  0  0  0  0  0  0  0  0
  1 23  1  0  0  0  0
  1 57  1  0  0  0  0
  1 58  1  0  0  0  0
  1 59  1  0  0  0  0
  2 24  1  0  0  0  0
  2 60  1  0  0  0  0
  2 61  1  0  0  0  0
  2 62  1  0  0  0  0
  3 27  1  0  0  0  0
  3 63  1  0  0  0  0
  3 64  1  0  0  0  0
  3 65  1  0  0  0  0
  4 28  1  0  0  0  0
  4 66  1  0  0  0  0
  4 67  1  0  0  0  0
  4 68  1  0  0  0  0
  5 56  1  0  0  0  0
  5 69  1  0  0  0  0
  5 70  1  0  0  0  0
  5 71  1  0  0  0  0
  6 56  1  0  0  0  0
  6 72  1  0  0  0  0
  6 73  1  0  0  0  0
  6 74  1  0  0  0  0
  7 56  1  0  0  0  0
  7 75  1  0  0  0  0
  7 76  1  0  0  0  0
  7 77  1  0  0  0  0
  8 42  2  0  0  0  0
  9 43  2  0  0  0  0
 10 44  2  0  0  0  0
 11 17  2  0  0  0  0
 11 45  1  0  0  0  0
 11 78  1  0  0  0  0
 12 18  1  0  0  0  0
 12 45  2  0  0  0  0
 12 79  1  0  0  0  0
 13 19  2  0  0  0  0
 13 46  1  0  0  0  0
 13 80  1  0  0  0  0
 14 20  1  0  0  0  0
 14 46  2  0  0  0  0
 14 81  1  0  0  0  0
 15 21  1  0  0  0  0
 15 47  2  0  0  0  0
 15 82  1  0  0  0  0
 16 22  2  0  0  0  0
 16 47  1  0  0  0  0
 16 83  1  0  0  0  0
 17 48  1  0  0  0  0
 17 84  1  0  0  0  0
 18 48  2  0  0  0  0
 18 85  1  0  0  0  0
 19 49  1  0  0  0  0
 19 86  1  0  0  0  0
 20 49  2  0  0  0  0
 20 87  1  0  0  0  0
 21 50  2  0  0  0  0
 21 88  1  0  0  0  0
 22 50  1  0  0  0  0
 22 89  1  0  0  0  0
 23 25  1  0  0  0  0
 23 90  1  0  0  0  0
 23 91  1  0  0  0  0
 24 26  1  0  0  0  0
 24 92  1  0  0  0  0
 24 93  1  0  0  0  0
 25 29  1  0  0  0  0
 25 94  1  0  0  0  0
 25 95  1  0  0  0  0
 26 30  1  0  0  0  0
 26 96  1  0  0  0  0
 26 97  1  0  0  0  0
 27 54  1  0  0  0  0
 27 98  1  0  0  0  0
 27 99  1  0  0  0  0
 28 55  1  0  0  0  0
 28100  1  0  0  0  0
 28101  1  0  0  0  0
 29 54  1  0  0  0  0
 29102  1  0  0  0  0
 29103  1  0  0  0  0
 30 55  1  0  0  0  0
 30104  1  0  0  0  0
 30105  1  0  0  0  0
 31 40  1  0  0  0  0
 31 54  1  0  0  0  0
 31106  1  0  0  0  0
 31107  1  0  0  0  0
 32 41  1  0  0  0  0
 32 55  1  0  0  0  0
 32108  1  0  0  0  0
 32109  1  0  0  0  0
 33 51  1  0  0  0  0
 33 52  2  0  0  0  0
 34 51  2  0  0  0  0
 34 53  1  0  0  0  0
 35 52  1  0  0  0  0
 35 53  2  0  0  0  0
 36 45  1  0  0  0  0
 36 51  1  0  0  0  0
 36110  1  0  0  0  0
 37 46  1  0  0  0  0
 37 52  1  0  0  0  0
 37111  1  0  0  0  0
 38 47  1  0  0  0  0
 38 53  1  0  0  0  0
 38112  1  0  0  0  0
 39 42  1  0  0  0  0
 39 56  1  0  0  0  0
 39113  1  0  0  0  0
 40 43  1  0  0  0  0
 41 44  1  0  0  0  0
 42 48  1  0  0  0  0
 43 49  1  0  0  0  0
 44 50  1  0  0  0  0
 54114  1  0  0  0  0
 55115  1  0  0  0  0
M  END
>  <DRUGBANK_ID>
DB15468

>  <COMMON_NAME>
Iscotrizinol

>  <CAS_NUMBER>
154702-15-5

>  <UNII>
2UTZ0QC864

>  <SYNONYMS>
Iscotrizinol

$$$$
