
 OpenBabel10282417072D

 66 68  0  0  1  0  0  0  0  0999 V2000
   -2.1434   -2.8875    0.0000 C   0  0  0  0  0  0  0  0  0  0  0  0
   -2.8579   -2.4750    0.0000 C   0  0  0  0  0  0  0  0  0  0  0  0
   -2.1434   -1.2375    0.0000 C   0  0  0  0  0  0  0  0  0  0  0  0
   -0.7145   -3.7125    0.0000 C   0  0  0  0  0  0  0  0  0  0  0  0
   -2.1434   -3.7125    0.0000 C   0  0  2  0  0  0  0  0  0  0  0  0
   -2.8579   -1.6500    0.0000 C   0  0  0  0  0  0  0  0  0  0  0  0
   -3.5724   -2.8875    0.0000 C   0  0  1  0  0  0  0  0  0  0  0  0
    0.0000   -4.1250    0.0000 C   0  0  2  0  0  0  0  0  0  0  0  0
   -2.8579   -4.1250    0.0000 C   0  0  2  0  0  0  0  0  0  0  0  0
   -3.5724   -1.2375    0.0000 C   0  0  2  0  0  0  0  0  0  0  0  0
   -4.2868   -2.4750    0.0000 C   0  0  1  0  0  0  0  0  0  0  0  0
   -2.8579   -4.9500    0.0000 C   0  0  1  0  0  0  0  0  0  0  0  0
   -4.2868   -1.6500    0.0000 C   0  0  1  0  0  0  0  0  0  0  0  0
    0.7145   -5.3625    0.0000 C   0  0  2  0  0  0  0  0  0  0  0  0
    1.4289   -4.9500    0.0000 C   0  0  2  0  0  0  0  0  0  0  0  0
   -2.1434   -5.3625    0.0000 C   0  0  2  0  0  0  0  0  0  0  0  0
    0.0000   -4.9500    0.0000 C   0  0  2  0  0  0  0  0  0  0  0  0
    1.4289   -4.1250    0.0000 C   0  0  1  0  0  0  0  0  0  0  0  0
   -1.4289   -4.9500    0.0000 C   0  0  2  0  0  0  0  0  0  0  0  0
   -3.5724   -3.7125    0.0000 N   0  0  0  0  0  0  0  0  0  0  0  0
   -2.1434   -0.4125    0.0000 O   0  0  0  0  0  0  0  0  0  0  0  0
   -0.7145   -2.8875    0.0000 O   0  0  0  0  0  0  0  0  0  0  0  0
   -3.5724   -0.4125    0.0000 O   0  0  0  0  0  0  0  0  0  0  0  0
   -5.0013   -2.8875    0.0000 O   0  0  0  0  0  0  0  0  0  0  0  0
   -3.5724   -5.3625    0.0000 O   0  0  0  0  0  0  0  0  0  0  0  0
   -5.0013   -1.2375    0.0000 O   0  0  0  0  0  0  0  0  0  0  0  0
    0.7145   -6.1875    0.0000 O   0  0  0  0  0  0  0  0  0  0  0  0
    2.1434   -5.3625    0.0000 O   0  0  0  0  0  0  0  0  0  0  0  0
   -2.1434   -6.1875    0.0000 O   0  0  0  0  0  0  0  0  0  0  0  0
    2.1434   -3.7125    0.0000 O   0  0  0  0  0  0  0  0  0  0  0  0
   -1.4289   -4.1250    0.0000 O   0  0  0  0  0  0  0  0  0  0  0  0
    0.7145   -3.7125    0.0000 O   0  0  0  0  0  0  0  0  0  0  0  0
   -0.7145   -5.3625    0.0000 O   0  0  0  0  0  0  0  0  0  0  0  0
   -2.8579   -3.3000    0.0000 H   0  0  0  0  0  0  0  0  0  0  0  0
   -2.7599   -3.0308    0.0000 H   0  0  0  0  0  0  0  0  0  0  0  0
   -0.5303   -4.7570    0.0000 H   0  0  0  0  0  0  0  0  0  0  0  0
   -2.5757   -3.3498    0.0000 H   0  0  0  0  0  0  0  0  0  0  0  0
   -2.8579   -0.8250    0.0000 H   0  0  0  0  0  0  0  0  0  0  0  0
   -4.2868   -3.3000    0.0000 H   0  0  0  0  0  0  0  0  0  0  0  0
   -3.5724   -4.5375    0.0000 H   0  0  0  0  0  0  0  0  0  0  0  0
   -4.2868   -0.8250    0.0000 H   0  0  0  0  0  0  0  0  0  0  0  0
    1.5269   -5.5058    0.0000 H   0  0  0  0  0  0  0  0  0  0  0  0
    1.7111   -5.7252    0.0000 H   0  0  0  0  0  0  0  0  0  0  0  0
   -2.8579   -5.7750    0.0000 H   0  0  0  0  0  0  0  0  0  0  0  0
   -0.8125   -4.8067    0.0000 H   0  0  0  0  0  0  0  0  0  0  0  0
    2.1434   -4.5375    0.0000 H   0  0  0  0  0  0  0  0  0  0  0  0
   -1.4289   -5.7750    0.0000 H   0  0  0  0  0  0  0  0  0  0  0  0
   -1.2168   -2.3525    0.0000 H   0  0  0  0  0  0  0  0  0  0  0  0
   -3.0700   -2.3525    0.0000 H   0  0  0  0  0  0  0  0  0  0  0  0
   -2.1434   -1.8175    0.0000 H   0  0  0  0  0  0  0  0  0  0  0  0
   -1.9642   -2.9910    0.0000 H   0  0  0  0  0  0  0  0  0  0  0  0
   -1.2168   -1.7725    0.0000 H   0  0  0  0  0  0  0  0  0  0  0  0
   -1.2168   -0.7025    0.0000 H   0  0  0  0  0  0  0  0  0  0  0  0
   -1.6411   -4.2475    0.0000 H   0  0  0  0  0  0  0  0  0  0  0  0
   -1.6411   -3.1775    0.0000 H   0  0  0  0  0  0  0  0  0  0  0  0
   -4.4557   -4.2225    0.0000 H   0  0  0  0  0  0  0  0  0  0  0  0
   -1.3034    0.0725    0.0000 H   0  0  0  0  0  0  0  0  0  0  0  0
    0.1255   -2.4025    0.0000 H   0  0  0  0  0  0  0  0  0  0  0  0
   -2.7324    0.0725    0.0000 H   0  0  0  0  0  0  0  0  0  0  0  0
   -5.8413   -2.4025    0.0000 H   0  0  0  0  0  0  0  0  0  0  0  0
   -4.4124   -4.8775    0.0000 H   0  0  0  0  0  0  0  0  0  0  0  0
   -5.0013   -0.2675    0.0000 H   0  0  0  0  0  0  0  0  0  0  0  0
   -0.1255   -6.6725    0.0000 H   0  0  0  0  0  0  0  0  0  0  0  0
    2.1434   -6.3325    0.0000 H   0  0  0  0  0  0  0  0  0  0  0  0
   -2.9834   -6.6725    0.0000 H   0  0  0  0  0  0  0  0  0  0  0  0
    2.9834   -4.1975    0.0000 H   0  0  0  0  0  0  0  0  0  0  0  0
  1 48  1  0  0  0  0
  1 49  1  0  0  0  0
  1 50  1  0  0  0  0
  2 51  1  0  0  0  0
  3 52  1  0  0  0  0
  3 53  1  0  0  0  0
  4 54  1  0  0  0  0
  4 55  1  0  0  0  0
  5  1  1  0  0  0  0
  5 34  1  6  0  0  0
  6  2  2  0  0  0  0
  6  3  1  0  0  0  0
  7  2  1  0  0  0  0
  7 20  1  0  0  0  0
  7 35  1  1  0  0  0
  8  4  1  0  0  0  0
  8 36  1  6  0  0  0
  9  5  1  0  0  0  0
  9 20  1  0  0  0  0
  9 37  1  1  0  0  0
 10  6  1  0  0  0  0
 10 23  1  0  0  0  0
 10 38  1  1  0  0  0
 11  7  1  0  0  0  0
 11 24  1  0  0  0  0
 11 39  1  1  0  0  0
 12  9  1  0  0  0  0
 12 25  1  0  0  0  0
 12 40  1  6  0  0  0
 13 10  1  0  0  0  0
 13 11  1  0  0  0  0
 13 26  1  0  0  0  0
 13 41  1  6  0  0  0
 14 27  1  0  0  0  0
 14 42  1  6  0  0  0
 15 14  1  0  0  0  0
 15 28  1  0  0  0  0
 15 43  1  1  0  0  0
 16 12  1  0  0  0  0
 16 29  1  0  0  0  0
 16 44  1  1  0  0  0
 17  8  1  0  0  0  0
 17 14  1  0  0  0  0
 17 33  1  0  0  0  0
 17 45  1  1  0  0  0
 18 15  1  0  0  0  0
 18 30  1  0  0  0  0
 18 46  1  1  0  0  0
 19 16  1  0  0  0  0
 19 33  1  0  0  0  0
 19 47  1  1  0  0  0
 20 56  1  0  0  0  0
 21  3  1  0  0  0  0
 21 57  1  0  0  0  0
 22  4  1  0  0  0  0
 22 58  1  0  0  0  0
 23 59  1  0  0  0  0
 24 60  1  0  0  0  0
 25 61  1  0  0  0  0
 26 62  1  0  0  0  0
 27 63  1  0  0  0  0
 28 64  1  0  0  0  0
 29 65  1  0  0  0  0
 30 66  1  0  0  0  0
 31  5  1  0  0  0  0
 31 19  1  0  0  0  0
 32  8  1  0  0  0  0
 32 18  1  0  0  0  0
M  END
>  <DRUGBANK_ID>
DB02889

>  <SECONDARY_ACCESSION_NUMBERS>
EXPT00191

>  <COMMON_NAME>
4-O-(4,6-Dideoxy-4-{[4,5,6-Trihydroxy-3-(Hydroxymethyl)Cyclohex-2-En-1-Yl]Amino}-Beta-D-Lyxo-Hexopyranosyl)-Alpha-D-Erythro-Hexopyranose

$$$$
