
 OpenBabel10282417072D

 42 42  0  0  1  0  0  0  0  0999 V2000
   -0.0787    0.3573    0.0000 C   0  0  0  0  0  0  0  0  0  0  0  0
   -0.8889    0.2014    0.0000 C   0  0  0  0  0  0  0  0  0  0  0  0
   -1.1589   -0.5782    0.0000 O   0  0  0  0  0  0  0  0  0  0  0  0
   -1.4289    0.8250    0.0000 N   0  0  0  0  0  0  0  0  0  0  0  0
   -1.1589    1.6046    0.0000 C   0  0  2  0  0  0  0  0  0  0  0  0
   -1.6990    2.2282    0.0000 C   0  0  0  0  0  0  0  0  0  0  0  0
   -2.5091    2.0723    0.0000 C   0  0  0  0  0  0  0  0  0  0  0  0
   -2.7792    1.2927    0.0000 C   0  0  0  0  0  0  0  0  0  0  0  0
   -3.5893    1.1368    0.0000 C   0  0  0  0  0  0  0  0  0  0  0  0
   -4.1294    1.7605    0.0000 C   0  0  0  0  0  0  0  0  0  0  0  0
   -4.9395    1.6046    0.0000 Cl  0  0  0  0  0  0  0  0  0  0  0  0
   -3.8593    2.5400    0.0000 C   0  0  0  0  0  0  0  0  0  0  0  0
   -3.0492    2.6959    0.0000 C   0  0  0  0  0  0  0  0  0  0  0  0
   -0.3488    1.7605    0.0000 B   0  5  0  0  0  0  0  0  0  0  0  0
   -0.1929    0.9503    0.0000 O   0  0  0  0  0  0  0  0  0  0  0  0
   -0.5047    2.5706    0.0000 O   0  0  0  0  0  0  0  0  0  0  0  0
    0.4614    1.9164    0.0000 O   0  0  0  0  0  0  0  0  0  0  0  0
    1.0015    1.2927    0.0000 C   0  0  0  0  0  0  0  0  0  0  0  0
    1.8116    1.4486    0.0000 C   0  0  2  0  0  0  0  0  0  0  0  0
    2.0816    2.2282    0.0000 N   0  0  0  0  0  0  0  0  0  0  0  0
    2.3517    0.8250    0.0000 C   0  0  0  0  0  0  0  0  0  0  0  0
    3.1618    0.9809    0.0000 O   0  0  0  0  0  0  0  0  0  0  0  0
    2.0816    0.0454    0.0000 O   0  0  0  0  0  0  0  0  0  0  0  0
    0.6218   -0.4516    0.0000 H   0  0  0  0  0  0  0  0  0  0  0  0
    0.2716    1.3683    0.0000 H   0  0  0  0  0  0  0  0  0  0  0  0
    0.9720    0.5595    0.0000 H   0  0  0  0  0  0  0  0  0  0  0  0
   -2.3957    0.6389    0.0000 H   0  0  0  0  0  0  0  0  0  0  0  0
   -0.4584    0.7958    0.0000 H   0  0  0  0  0  0  0  0  0  0  0  0
   -1.3488    3.2393    0.0000 H   0  0  0  0  0  0  0  0  0  0  0  0
   -2.3995    3.0370    0.0000 H   0  0  0  0  0  0  0  0  0  0  0  0
   -2.1036    0.5126    0.0000 H   0  0  0  0  0  0  0  0  0  0  0  0
   -3.9271    0.1617    0.0000 H   0  0  0  0  0  0  0  0  0  0  0  0
   -4.5349    3.3201    0.0000 H   0  0  0  0  0  0  0  0  0  0  0  0
   -2.7114    3.6711    0.0000 H   0  0  0  0  0  0  0  0  0  0  0  0
   -0.9262    0.3153    0.0000 H   0  0  0  0  0  0  0  0  0  0  0  0
    0.2286    3.2056    0.0000 H   0  0  0  0  0  0  0  0  0  0  0  0
    0.6512    0.2817    0.0000 H   0  0  0  0  0  0  0  0  0  0  0  0
    1.7020    0.4838    0.0000 H   0  0  0  0  0  0  0  0  0  0  0  0
    1.1111    2.2574    0.0000 H   0  0  0  0  0  0  0  0  0  0  0  0
    3.0832    2.4210    0.0000 H   0  0  0  0  0  0  0  0  0  0  0  0
    1.4138    2.9992    0.0000 H   0  0  0  0  0  0  0  0  0  0  0  0
    3.7752    0.2726    0.0000 H   0  0  0  0  0  0  0  0  0  0  0  0
  1  2  1  0  0  0  0
  1 24  1  0  0  0  0
  1 25  1  0  0  0  0
  1 26  1  0  0  0  0
  2  3  2  0  0  0  0
  2  4  1  0  0  0  0
  4  5  1  0  0  0  0
  4 27  1  0  0  0  0
  5  6  1  0  0  0  0
  5 14  1  0  0  0  0
  5 28  1  1  0  0  0
  6  7  1  0  0  0  0
  6 29  1  0  0  0  0
  6 30  1  0  0  0  0
  7  8  2  0  0  0  0
  7 13  1  0  0  0  0
  8  9  1  0  0  0  0
  8 31  1  0  0  0  0
  9 10  2  0  0  0  0
  9 32  1  0  0  0  0
 10 11  1  0  0  0  0
 10 12  1  0  0  0  0
 12 13  2  0  0  0  0
 12 33  1  0  0  0  0
 13 34  1  0  0  0  0
 14 15  1  0  0  0  0
 14 16  1  0  0  0  0
 14 17  1  0  0  0  0
 15 35  1  0  0  0  0
 16 36  1  0  0  0  0
 17 18  1  0  0  0  0
 18 19  1  0  0  0  0
 18 37  1  0  0  0  0
 18 38  1  0  0  0  0
 19 20  1  0  0  0  0
 19 21  1  0  0  0  0
 19 39  1  1  0  0  0
 20 40  1  0  0  0  0
 20 41  1  0  0  0  0
 21 22  1  0  0  0  0
 21 23  2  0  0  0  0
 22 42  1  0  0  0  0
M  CHG  1  14  -1
M  END
>  <DRUGBANK_ID>
DB02560

>  <SECONDARY_ACCESSION_NUMBERS>
EXPT00938

>  <COMMON_NAME>
[(1S)-1-acetamido-2-(4-chlorophenyl)ethyl]-[(2S)-2-amino-3-hydroxy-3-oxo-propoxy]-dihydroxy-boron

$$$$
