
 OpenBabel10282417072D

120126  0  0  1  0  0  0  0  0999 V2000
   -2.1432   -0.1647    0.0000 C   0  0  2  0  0  0  0  0  0  0  0  0
   -1.4272    0.2523    0.0000 C   0  0  0  0  0  0  0  0  0  0  0  0
   -0.7114   -0.1647    0.0000 C   0  0  2  0  0  0  0  0  0  0  0  0
   -0.7114   -0.9851    0.0000 C   0  0  2  0  0  0  0  0  0  0  0  0
   -1.4272   -1.4022    0.0000 C   0  0  2  0  0  0  0  0  0  0  0  0
   -2.1432   -0.9851    0.0000 C   0  0  1  0  0  0  0  0  0  0  0  0
   -2.8546   -1.4022    0.0000 O   0  0  0  0  0  0  0  0  0  0  0  0
   -3.5706   -0.9851    0.0000 C   0  0  0  0  0  0  0  0  0  0  0  0
   -4.2865   -1.4022    0.0000 C   0  0  2  0  0  0  0  0  0  0  0  0
   -5.0025   -0.9851    0.0000 N   0  0  0  0  0  0  0  0  0  0  0  0
   -4.2865   -2.2226    0.0000 C   0  0  0  0  0  0  0  0  0  0  0  0
   -3.5706   -2.6350    0.0000 C   0  0  0  0  0  0  0  0  0  0  0  0
   -5.0025   -2.6350    0.0000 C   0  0  0  0  0  0  0  0  0  0  0  0
   -4.3570   -3.0329    0.0000 C   0  0  0  0  0  0  0  0  0  0  0  0
   -3.4872   -1.6127    0.0000 C   0  0  0  0  0  0  0  0  0  0  0  0
   -1.8194   -0.8180    0.0000 C   0  0  0  0  0  0  0  0  0  0  0  0
   -1.8194   -0.3362    0.0000 O   0  0  0  0  0  0  0  0  0  0  0  0
   -1.4055   -0.0554    0.0000 C   0  0  0  0  0  0  0  0  0  0  0  0
   -1.4272   -2.2304    0.0000 C   0  0  0  0  0  0  0  0  0  0  0  0
    0.0000   -1.4022    0.0000 C   0  0  0  0  0  0  0  0  0  0  0  0
    0.7157   -0.9852    0.0000 C   0  0  0  0  0  0  0  0  0  0  0  0
    0.7157   -0.1648    0.0000 C   0  0  1  0  0  0  0  0  0  0  0  0
    0.0000    0.2522    0.0000 C   0  0  0  0  0  0  0  0  0  0  0  0
    0.0000    1.0727    0.0000 C   0  0  0  0  0  0  0  0  0  0  0  0
    0.7159    1.4851    0.0000 C   0  0  0  0  0  0  0  0  0  0  0  0
    1.4272    1.0726    0.0000 C   0  0  2  0  0  0  0  0  0  0  0  0
    1.4272    0.2522    0.0000 C   0  0  2  0  0  0  0  0  0  0  0  0
    2.1431   -0.1648    0.0000 C   0  0  0  0  0  0  0  0  0  0  0  0
    2.8547    0.2521    0.0000 C   0  0  0  0  0  0  0  0  0  0  0  0
    2.8547    1.0725    0.0000 C   0  0  1  0  0  0  0  0  0  0  0  0
    2.1432    1.4850    0.0000 C   0  0  1  0  0  0  0  0  0  0  0  0
    2.1432    2.3100    0.0000 C   0  0  0  0  0  0  0  0  0  0  0  0
    1.4273    2.7225    0.0000 O   0  0  0  0  0  0  0  0  0  0  0  0
    2.8547    2.7225    0.0000 O   0  0  0  0  0  0  0  0  0  0  0  0
    3.5707    1.4849    0.0000 C   0  0  1  0  0  0  0  0  0  0  0  0
    4.2865    1.0725    0.0000 C   0  0  0  0  0  0  0  0  0  0  0  0
    5.0025    1.4849    0.0000 C   0  0  0  0  0  0  0  0  0  0  0  0
    4.2865    0.2521    0.0000 C   0  0  0  0  0  0  0  0  0  0  0  0
    3.5707    2.3100    0.0000 C   0  0  0  0  0  0  0  0  0  0  0  0
    2.8547    1.9020    0.0000 C   0  0  0  0  0  0  0  0  0  0  0  0
    1.4272   -0.5726    0.0000 C   0  0  0  0  0  0  0  0  0  0  0  0
    1.4272    1.9021    0.0000 C   0  0  0  0  0  0  0  0  0  0  0  0
    0.7157    0.6647    0.0000 H   0  0  0  0  0  0  0  0  0  0  0  0
   -0.7114   -1.7091    0.0000 H   0  0  0  0  0  0  0  0  0  0  0  0
   -2.8546    0.2523    0.0000 N   0  0  0  0  0  0  0  0  0  0  0  0
   -2.9437    1.0695    0.0000 C   0  0  0  0  0  0  0  0  0  0  0  0
   -3.7362    1.2842    0.0000 N   0  0  0  0  0  0  0  0  0  0  0  0
   -4.1613    0.5264    0.0000 C   0  0  0  0  0  0  0  0  0  0  0  0
   -3.5790   -0.0558    0.0000 N   0  0  0  0  0  0  0  0  0  0  0  0
   -2.3600    1.6533    0.0000 C   0  0  0  0  0  0  0  0  0  0  0  0
   -2.5748    2.4483    0.0000 C   0  0  0  0  0  0  0  0  0  0  0  0
   -1.9930    3.0329    0.0000 C   0  0  0  0  0  0  0  0  0  0  0  0
   -1.1934    2.8177    0.0000 N   0  0  0  0  0  0  0  0  0  0  0  0
   -0.9819    2.0251    0.0000 C   0  0  0  0  0  0  0  0  0  0  0  0
   -1.5600    1.4366    0.0000 C   0  0  0  0  0  0  0  0  0  0  0  0
   -2.1417    0.9053    0.0000 H   0  0  0  0  0  0  0  0  0  0  0  0
   -1.4271    1.3223    0.0000 H   0  0  0  0  0  0  0  0  0  0  0  0
   -0.4995    0.7855    0.0000 H   0  0  0  0  0  0  0  0  0  0  0  0
   -2.1417   -2.0551    0.0000 H   0  0  0  0  0  0  0  0  0  0  0  0
   -3.5706    0.0849    0.0000 H   0  0  0  0  0  0  0  0  0  0  0  0
   -4.4983   -0.4519    0.0000 H   0  0  0  0  0  0  0  0  0  0  0  0
   -4.9985    0.0349    0.0000 H   0  0  0  0  0  0  0  0  0  0  0  0
   -5.8878   -1.4917    0.0000 H   0  0  0  0  0  0  0  0  0  0  0  0
   -3.5696   -3.7050    0.0000 H   0  0  0  0  0  0  0  0  0  0  0  0
   -2.6445   -2.0991    0.0000 H   0  0  0  0  0  0  0  0  0  0  0  0
   -2.6434   -3.1691    0.0000 H   0  0  0  0  0  0  0  0  0  0  0  0
   -5.9286   -2.0990    0.0000 H   0  0  0  0  0  0  0  0  0  0  0  0
   -5.0036   -3.7050    0.0000 H   0  0  0  0  0  0  0  0  0  0  0  0
   -5.9297   -3.1690    0.0000 H   0  0  0  0  0  0  0  0  0  0  0  0
   -5.3265   -3.4856    0.0000 H   0  0  0  0  0  0  0  0  0  0  0  0
   -3.4802   -3.6462    0.0000 H   0  0  0  0  0  0  0  0  0  0  0  0
   -4.4497   -4.0989    0.0000 H   0  0  0  0  0  0  0  0  0  0  0  0
   -3.2058   -2.6450    0.0000 H   0  0  0  0  0  0  0  0  0  0  0  0
   -2.7338   -0.8529    0.0000 H   0  0  0  0  0  0  0  0  0  0  0  0
   -2.4525   -1.8852    0.0000 H   0  0  0  0  0  0  0  0  0  0  0  0
   -2.8430   -1.1297    0.0000 H   0  0  0  0  0  0  0  0  0  0  0  0
   -2.6792   -0.1811    0.0000 H   0  0  0  0  0  0  0  0  0  0  0  0
   -1.6390    0.9888    0.0000 H   0  0  0  0  0  0  0  0  0  0  0  0
   -0.6734    0.7249    0.0000 H   0  0  0  0  0  0  0  0  0  0  0  0
   -2.3538   -2.7654    0.0000 H   0  0  0  0  0  0  0  0  0  0  0  0
   -0.5006   -2.7654    0.0000 H   0  0  0  0  0  0  0  0  0  0  0  0
   -1.4272   -3.3004    0.0000 H   0  0  0  0  0  0  0  0  0  0  0  0
   -0.0015   -2.4722    0.0000 H   0  0  0  0  0  0  0  0  0  0  0  0
    0.9273   -1.9360    0.0000 H   0  0  0  0  0  0  0  0  0  0  0  0
    1.6434   -1.5184    0.0000 H   0  0  0  0  0  0  0  0  0  0  0  0
    1.6418   -0.4493    0.0000 H   0  0  0  0  0  0  0  0  0  0  0  0
   -0.8935    1.5891    0.0000 H   0  0  0  0  0  0  0  0  0  0  0  0
    0.7175    2.5551    0.0000 H   0  0  0  0  0  0  0  0  0  0  0  0
    1.6434    2.0185    0.0000 H   0  0  0  0  0  0  0  0  0  0  0  0
    2.1444   -1.2348    0.0000 H   0  0  0  0  0  0  0  0  0  0  0  0
    3.0718   -0.6963    0.0000 H   0  0  0  0  0  0  0  0  0  0  0  0
    3.7830   -0.2800    0.0000 H   0  0  0  0  0  0  0  0  0  0  0  0
    3.7805    0.7886    0.0000 H   0  0  0  0  0  0  0  0  0  0  0  0
    3.0703    2.0192    0.0000 H   0  0  0  0  0  0  0  0  0  0  0  0
    3.6670    2.2555    0.0000 H   0  0  0  0  0  0  0  0  0  0  0  0
    2.6443    2.0204    0.0000 H   0  0  0  0  0  0  0  0  0  0  0  0
    5.2129    0.5370    0.0000 H   0  0  0  0  0  0  0  0  0  0  0  0
    5.9286    0.9489    0.0000 H   0  0  0  0  0  0  0  0  0  0  0  0
    5.0036    2.5549    0.0000 H   0  0  0  0  0  0  0  0  0  0  0  0
    5.9297    2.0189    0.0000 H   0  0  0  0  0  0  0  0  0  0  0  0
    3.3599   -0.2829    0.0000 H   0  0  0  0  0  0  0  0  0  0  0  0
    5.2131   -0.2829    0.0000 H   0  0  0  0  0  0  0  0  0  0  0  0
    4.2865   -0.8179    0.0000 H   0  0  0  0  0  0  0  0  0  0  0  0
    4.4973    2.8450    0.0000 H   0  0  0  0  0  0  0  0  0  0  0  0
    2.6441    2.8450    0.0000 H   0  0  0  0  0  0  0  0  0  0  0  0
    3.5707    3.3800    0.0000 H   0  0  0  0  0  0  0  0  0  0  0  0
    3.7813    2.4370    0.0000 H   0  0  0  0  0  0  0  0  0  0  0  0
    1.9281    2.4370    0.0000 H   0  0  0  0  0  0  0  0  0  0  0  0
    2.8547    2.9720    0.0000 H   0  0  0  0  0  0  0  0  0  0  0  0
    0.5006   -1.1076    0.0000 H   0  0  0  0  0  0  0  0  0  0  0  0
    2.3538   -1.1076    0.0000 H   0  0  0  0  0  0  0  0  0  0  0  0
    1.4272   -1.6426    0.0000 H   0  0  0  0  0  0  0  0  0  0  0  0
    2.3538    2.4371    0.0000 H   0  0  0  0  0  0  0  0  0  0  0  0
    0.5006    2.4371    0.0000 H   0  0  0  0  0  0  0  0  0  0  0  0
    1.4272    2.9721    0.0000 H   0  0  0  0  0  0  0  0  0  0  0  0
   -5.1836    0.3853    0.0000 H   0  0  0  0  0  0  0  0  0  0  0  0
   -3.5722    2.7132    0.0000 H   0  0  0  0  0  0  0  0  0  0  0  0
   -2.2607    4.0296    0.0000 H   0  0  0  0  0  0  0  0  0  0  0  0
    0.0160    1.7619    0.0000 H   0  0  0  0  0  0  0  0  0  0  0  0
   -1.2898    0.4406    0.0000 H   0  0  0  0  0  0  0  0  0  0  0  0
  1  2  1  0  0  0  0
  1  6  1  0  0  0  0
  1 45  1  0  0  0  0
  1 56  1  1  0  0  0
  2 57  1  0  0  0  0
  2 58  1  0  0  0  0
  3  2  1  0  0  0  0
  3 18  1  0  0  0  0
  3 23  1  1  0  0  0
  4  3  1  0  0  0  0
  4 20  1  0  0  0  0
  4 44  1  6  0  0  0
  5  4  1  0  0  0  0
  5 16  1  0  0  0  0
  5 19  1  1  0  0  0
  6  5  1  0  0  0  0
  6  7  1  0  0  0  0
  6 59  1  6  0  0  0
  7  8  1  0  0  0  0
  8 60  1  0  0  0  0
  8 61  1  0  0  0  0
  9  8  1  1  0  0  0
  9 10  1  0  0  0  0
  9 11  1  0  0  0  0
  9 15  1  0  0  0  0
 10 62  1  0  0  0  0
 10 63  1  0  0  0  0
 11 12  1  0  0  0  0
 11 13  1  0  0  0  0
 11 14  1  0  0  0  0
 12 64  1  0  0  0  0
 12 65  1  0  0  0  0
 12 66  1  0  0  0  0
 13 67  1  0  0  0  0
 13 68  1  0  0  0  0
 13 69  1  0  0  0  0
 14 70  1  0  0  0  0
 14 71  1  0  0  0  0
 14 72  1  0  0  0  0
 15 73  1  0  0  0  0
 15 74  1  0  0  0  0
 15 75  1  0  0  0  0
 16 17  1  0  0  0  0
 16 76  1  0  0  0  0
 16 77  1  0  0  0  0
 17 18  1  0  0  0  0
 18 78  1  0  0  0  0
 18 79  1  0  0  0  0
 19 80  1  0  0  0  0
 19 81  1  0  0  0  0
 19 82  1  0  0  0  0
 20 21  1  0  0  0  0
 20 83  1  0  0  0  0
 20 84  1  0  0  0  0
 21 22  1  0  0  0  0
 21 85  1  0  0  0  0
 21 86  1  0  0  0  0
 22 23  1  0  0  0  0
 22 27  1  0  0  0  0
 22 43  1  6  0  0  0
 23 24  2  0  0  0  0
 24 87  1  0  0  0  0
 25 24  1  0  0  0  0
 25 88  1  0  0  0  0
 25 89  1  0  0  0  0
 26 25  1  0  0  0  0
 26 31  1  0  0  0  0
 26 42  1  6  0  0  0
 27 26  1  0  0  0  0
 27 28  1  0  0  0  0
 27 41  1  1  0  0  0
 28 29  1  0  0  0  0
 28 90  1  0  0  0  0
 28 91  1  0  0  0  0
 29 30  1  0  0  0  0
 29 92  1  0  0  0  0
 29 93  1  0  0  0  0
 30 31  1  0  0  0  0
 30 35  1  0  0  0  0
 30 40  1  6  0  0  0
 31 32  1  0  0  0  0
 31 94  1  1  0  0  0
 32 33  2  0  0  0  0
 32 34  1  0  0  0  0
 34 95  1  0  0  0  0
 35 36  1  0  0  0  0
 35 39  1  0  0  0  0
 35 96  1  1  0  0  0
 36 37  1  0  0  0  0
 36 38  1  0  0  0  0
 36 97  1  0  0  0  0
 37 98  1  0  0  0  0
 37 99  1  0  0  0  0
 37100  1  0  0  0  0
 38101  1  0  0  0  0
 38102  1  0  0  0  0
 38103  1  0  0  0  0
 39104  1  0  0  0  0
 39105  1  0  0  0  0
 39106  1  0  0  0  0
 40107  1  0  0  0  0
 40108  1  0  0  0  0
 40109  1  0  0  0  0
 41110  1  0  0  0  0
 41111  1  0  0  0  0
 41112  1  0  0  0  0
 42113  1  0  0  0  0
 42114  1  0  0  0  0
 42115  1  0  0  0  0
 46 45  1  0  0  0  0
 46 47  2  0  0  0  0
 46 50  1  0  0  0  0
 47 48  1  0  0  0  0
 48 49  2  0  0  0  0
 48116  1  0  0  0  0
 49 45  1  0  0  0  0
 50 55  1  0  0  0  0
 51 50  2  0  0  0  0
 51117  1  0  0  0  0
 52 51  1  0  0  0  0
 52118  1  0  0  0  0
 53 52  2  0  0  0  0
 54 53  1  0  0  0  0
 54119  1  0  0  0  0
 55 54  2  0  0  0  0
 55120  1  0  0  0  0
M  END
>  <DRUGBANK_ID>
DB12471

>  <COMMON_NAME>
Ibrexafungerp

>  <CAS_NUMBER>
1207753-03-4

>  <UNII>
A92JFM5XNU

>  <SYNONYMS>
(1S,4AR,6AS,7R,8R,10AR,10BR,12AR,14R,15R)-15-((2R)- 2-AMINO-2,3,3-TRIMETHYLBUTOXY)-1,6A,8,10A-TETRAMETHYL-8- ((2R)-3-METHYLBUTAN-2-YL)-14-(5-(PYRIDIN-4-YL)-1H-1,2,4- TRIAZOL-1-YL)-1,6,6A,7,8,9,10,10A,10B,11,12,12A-DODECAHYDRO-2H,4H-1,4A-PROPANOPHENANTHRO; enfumafungin derivative B-(1,3)-D-glucan synthestis inhibitor; Ibrexafungerp

$$$$
