
 OpenBabel10282417072D

 20 19  0  0  0  0  0  0  0  0999 V2000
    0.4125    2.1434    0.0000 C   0  0  0  0  0  0  0  0  0  0  0  0
    0.8250    1.4289    0.0000 N   0  3  0  0  0  0  0  0  0  0  0  0
    0.1105    1.0164    0.0000 C   0  0  0  0  0  0  0  0  0  0  0  0
    1.5395    1.8414    0.0000 C   0  0  0  0  0  0  0  0  0  0  0  0
    1.2375    0.7145    0.0000 C   0  0  0  0  0  0  0  0  0  0  0  0
    0.8250    0.0000    0.0000 C   0  0  0  0  0  0  0  0  0  0  0  0
    1.2375   -0.7145    0.0000 O   0  0  0  0  0  0  0  0  0  0  0  0
    0.0000    0.0000    0.0000 O   0  0  0  0  0  0  0  0  0  0  0  0
    0.9475    3.0700    0.0000 H   0  0  0  0  0  0  0  0  0  0  0  0
   -0.6575    2.1434    0.0000 H   0  0  0  0  0  0  0  0  0  0  0  0
   -0.1225    3.0701    0.0000 H   0  0  0  0  0  0  0  0  0  0  0  0
   -0.8161    1.5514    0.0000 H   0  0  0  0  0  0  0  0  0  0  0  0
    0.1105   -0.0536    0.0000 H   0  0  0  0  0  0  0  0  0  0  0  0
   -0.8162    0.4814    0.0000 H   0  0  0  0  0  0  0  0  0  0  0  0
    2.4661    1.3064    0.0000 H   0  0  0  0  0  0  0  0  0  0  0  0
    1.5395    2.9114    0.0000 H   0  0  0  0  0  0  0  0  0  0  0  0
    2.4662    2.3764    0.0000 H   0  0  0  0  0  0  0  0  0  0  0  0
    2.3075    0.7145    0.0000 H   0  0  0  0  0  0  0  0  0  0  0  0
    1.7725   -0.2121    0.0000 H   0  0  0  0  0  0  0  0  0  0  0  0
    0.7690   -1.5260    0.0000 H   0  0  0  0  0  0  0  0  0  0  0  0
  1  2  1  0  0  0  0
  1  9  1  0  0  0  0
  1 10  1  0  0  0  0
  1 11  1  0  0  0  0
  2  3  1  0  0  0  0
  2  4  1  0  0  0  0
  2  5  1  0  0  0  0
  3 12  1  0  0  0  0
  3 13  1  0  0  0  0
  3 14  1  0  0  0  0
  4 15  1  0  0  0  0
  4 16  1  0  0  0  0
  4 17  1  0  0  0  0
  5  6  1  0  0  0  0
  5 18  1  0  0  0  0
  5 19  1  0  0  0  0
  6  7  1  0  0  0  0
  6  8  2  0  0  0  0
  7 20  1  0  0  0  0
M  CHG  1   2   1
M  END
>  <DRUGBANK_ID>
DB04455

>  <SECONDARY_ACCESSION_NUMBERS>
EXPT00674

>  <COMMON_NAME>
N,N,N-trimethylglycinium

$$$$
