558
 OpenBabel10282417072D

 43 43  0  0  1  0  0  0  0  0999 V2000
    4.9509   -0.5693    0.0000 O   0  0  0  0  0  0  0  0  0  0  0  0
    4.2365    1.4933    0.0000 O   0  0  0  0  0  0  0  0  0  0  0  0
    3.5220   -0.5693    0.0000 O   0  0  0  0  0  0  0  0  0  0  0  0
    2.0930    0.2558    0.0000 O   0  0  0  0  0  0  0  0  0  0  0  0
    7.0944    1.4933    0.0000 O   0  0  0  0  0  0  0  0  0  0  0  0
    6.3799   -2.2193    0.0000 O   0  0  0  0  0  0  0  0  0  0  0  0
    4.9509   -2.2193    0.0000 O   0  0  0  0  0  0  0  0  0  0  0  0
    5.6655    1.4933    0.0000 N   0  0  0  0  0  0  0  0  0  0  0  0
    7.0944    0.6683    0.0000 N   0  0  0  0  0  0  0  0  0  0  0  0
    8.5234    0.6683    0.0000 N   0  0  0  0  0  0  0  0  0  0  0  0
    7.8089   -0.5693    0.0000 N   0  0  0  0  0  0  0  0  0  0  0  0
    4.9509    0.2558    0.0000 C   0  0  2  0  0  0  0  0  0  0  0  0
    5.6655    0.6683    0.0000 C   0  0  1  0  0  0  0  0  0  0  0  0
    4.2365    0.6683    0.0000 C   0  0  1  0  0  0  0  0  0  0  0  0
    6.3799    0.2558    0.0000 C   0  0  2  0  0  0  0  0  0  0  0  0
    3.5220    0.2558    0.0000 C   0  0  1  0  0  0  0  0  0  0  0  0
    6.3799   -0.5693    0.0000 C   0  0  0  0  0  0  0  0  0  0  0  0
    5.6655   -0.9818    0.0000 C   0  0  0  0  0  0  0  0  0  0  0  0
    2.8075    0.6683    0.0000 C   0  0  0  0  0  0  0  0  0  0  0  0
    6.3799    1.9058    0.0000 C   0  0  0  0  0  0  0  0  0  0  0  0
    5.6655   -1.8068    0.0000 C   0  0  0  0  0  0  0  0  0  0  0  0
    7.8089    0.2558    0.0000 C   0  0  0  0  0  0  0  0  0  0  0  0
    6.3799    2.7308    0.0000 C   0  0  0  0  0  0  0  0  0  0  0  0
    4.3794   -0.0743    0.0000 H   0  0  0  0  0  0  0  0  0  0  0  0
    5.0765    1.9783    0.0000 H   0  0  0  0  0  0  0  0  0  0  0  0
    2.6820   -1.0543    0.0000 H   0  0  0  0  0  0  0  0  0  0  0  0
    1.2530    0.7408    0.0000 H   0  0  0  0  0  0  0  0  0  0  0  0
    6.3799   -3.1563    0.0000 H   0  0  0  0  0  0  0  0  0  0  0  0
    4.8129    1.9855    0.0000 H   0  0  0  0  0  0  0  0  0  0  0  0
    9.3760    0.1760    0.0000 H   0  0  0  0  0  0  0  0  0  0  0  0
    8.5234    1.6528    0.0000 H   0  0  0  0  0  0  0  0  0  0  0  0
    6.9563   -1.0615    0.0000 H   0  0  0  0  0  0  0  0  0  0  0  0
    8.6615   -1.0615    0.0000 H   0  0  0  0  0  0  0  0  0  0  0  0
    4.7389    1.2033    0.0000 H   0  0  0  0  0  0  0  0  0  0  0  0
    5.1632    1.2033    0.0000 H   0  0  0  0  0  0  0  0  0  0  0  0
    6.3799    1.3258    0.0000 H   0  0  0  0  0  0  0  0  0  0  0  0
    4.4486   -0.2792    0.0000 H   0  0  0  0  0  0  0  0  0  0  0  0
    7.2736   -1.0853    0.0000 H   0  0  0  0  0  0  0  0  0  0  0  0
    2.8075    1.7383    0.0000 H   0  0  0  0  0  0  0  0  0  0  0  0
    3.7341    1.2033    0.0000 H   0  0  0  0  0  0  0  0  0  0  0  0
    7.3065    3.2658    0.0000 H   0  0  0  0  0  0  0  0  0  0  0  0
    5.4533    3.2658    0.0000 H   0  0  0  0  0  0  0  0  0  0  0  0
    6.3799    3.8008    0.0000 H   0  0  0  0  0  0  0  0  0  0  0  0
  1 12  1  0  0  0  0
  1 18  1  0  0  0  0
  2 25  1  0  0  0  0
  3 26  1  0  0  0  0
  4 19  1  0  0  0  0
  4 27  1  0  0  0  0
  5 20  2  0  0  0  0
  6 21  1  0  0  0  0
  6 28  1  0  0  0  0
  7 21  2  0  0  0  0
  8 20  1  0  0  0  0
  8 29  1  0  0  0  0
  9 22  2  0  0  0  0
 10 22  1  0  0  0  0
 10 30  1  0  0  0  0
 10 31  1  0  0  0  0
 11 22  1  0  0  0  0
 11 32  1  0  0  0  0
 11 33  1  0  0  0  0
 12 13  1  0  0  0  0
 12 14  1  0  0  0  0
 12 24  1  6  0  0  0
 13  8  1  0  0  0  0
 13 15  1  0  0  0  0
 13 34  1  1  0  0  0
 14  2  1  0  0  0  0
 14 16  1  0  0  0  0
 14 35  1  6  0  0  0
 15  9  1  0  0  0  0
 15 17  1  0  0  0  0
 15 36  1  6  0  0  0
 16  3  1  0  0  0  0
 16 19  1  0  0  0  0
 16 37  1  1  0  0  0
 17 18  2  0  0  0  0
 17 38  1  0  0  0  0
 18 21  1  0  0  0  0
 19 39  1  0  0  0  0
 19 40  1  0  0  0  0
 20 23  1  0  0  0  0
 23 41  1  0  0  0  0
 23 42  1  0  0  0  0
 23 43  1  0  0  0  0
M  END
>  <DRUGBANK_ID>
DB00558

>  <SECONDARY_ACCESSION_NUMBERS>
APRD00378

>  <COMMON_NAME>
Zanamivir

>  <CAS_NUMBER>
139110-80-8

>  <UNII>
L6O3XI777I

>  <SYNONYMS>
(2R,3R,4S)-3-(acetylamino)-4-carbamimidamido-2-[(1R,2R)-1,2,3-trihydroxypropyl]-3,4-dihydro-2H-pyran-6-carboxylic acid; 4-guanidino-2,4-dideoxy-2,3-dehydro-N-acetylneuraminic acid; 4-guanidino-Neu5Ac2en; 5-(acetylamino)-2,6-anhydro-4-carbamimidamido-3,4,5-trideoxy-D-glycero-D-galacto-non-2-enonic acid; 5-acetamido-2,6-anhydro-3,4,5-trideoxy-4-guanidino-D-glycero-D-galacto-non-2-enonic acid; GANA; Zanamivir

$$$$
