
 OpenBabel10282417072D

152159  0  0  1  0  0  0  0  0999 V2000
   21.9292  -17.6589    0.0000 C   0  0  2  0  0  0  0  0  0  0  0  0
   21.2033  -17.2711    0.0000 O   0  0  0  0  0  0  0  0  0  0  0  0
   20.5028  -17.7070    0.0000 C   0  0  1  0  0  0  0  0  0  0  0  0
   20.4880  -18.5316    0.0000 C   0  0  2  0  0  0  0  0  0  0  0  0
   21.2560  -18.9193    0.0000 C   0  0  1  0  0  0  0  0  0  0  0  0
   21.9151  -18.4834    0.0000 C   0  0  0  0  0  0  0  0  0  0  0  0
   23.2854  -15.1345    0.0000 C   0  0  2  0  0  0  0  0  0  0  0  0
   22.5669  -14.7506    0.0000 O   0  0  0  0  0  0  0  0  0  0  0  0
   21.8664  -15.1864    0.0000 C   0  0  1  0  0  0  0  0  0  0  0  0
   21.8515  -16.0109    0.0000 C   0  0  1  0  0  0  0  0  0  0  0  0
   22.6119  -16.3948    0.0000 C   0  0  1  0  0  0  0  0  0  0  0  0
   23.2712  -15.9591    0.0000 C   0  0  0  0  0  0  0  0  0  0  0  0
   22.6391  -17.2172    0.0000 O   0  0  0  0  0  0  0  0  0  0  0  0
   24.6451  -12.6159    0.0000 C   0  0  2  0  0  0  0  0  0  0  0  0
   23.9162  -12.2152    0.0000 O   0  0  0  0  0  0  0  0  0  0  0  0
   23.2106  -12.6426    0.0000 C   0  0  1  0  0  0  0  0  0  0  0  0
   23.1867  -13.4674    0.0000 C   0  0  2  0  0  0  0  0  0  0  0  0
   23.9569  -13.8681    0.0000 C   0  0  1  0  0  0  0  0  0  0  0  0
   24.6625  -13.4407    0.0000 C   0  0  0  0  0  0  0  0  0  0  0  0
   18.1612  -11.8605    0.0000 C   0  0  2  0  0  0  0  0  0  0  0  0
   17.4517  -11.4509    0.0000 O   0  0  0  0  0  0  0  0  0  0  0  0
   16.7372  -11.8634    0.0000 C   0  0  1  0  0  0  0  0  0  0  0  0
   16.7372  -12.6884    0.0000 C   0  0  2  0  0  0  0  0  0  0  0  0
   17.4467  -13.0980    0.0000 C   0  0  1  0  0  0  0  0  0  0  0  0
   18.1612  -12.6855    0.0000 C   0  0  0  0  0  0  0  0  0  0  0  0
   18.1711   -9.3798    0.0000 C   0  0  2  0  0  0  0  0  0  0  0  0
   18.1711  -10.2048    0.0000 C   0  0  2  0  0  0  0  0  0  0  0  0
   18.8855  -10.6173    0.0000 C   0  0  1  0  0  0  0  0  0  0  0  0
   19.6000  -10.2048    0.0000 C   0  0  0  0  0  0  0  0  0  0  0  0
   19.6000   -9.3798    0.0000 C   0  0  1  0  0  0  0  0  0  0  0  0
   18.8855   -8.9673    0.0000 O   0  0  0  0  0  0  0  0  0  0  0  0
   21.0289  -10.2048    0.0000 C   0  0  0  0  0  0  0  0  0  0  0  0
   21.0289   -9.3798    0.0000 C   0  0  0  0  0  0  0  0  0  0  0  0
   20.3145   -8.9673    0.0000 O   0  0  0  0  0  0  0  0  0  0  0  0
   21.7435  -10.6173    0.0000 C   0  0  0  0  0  0  0  0  0  0  0  0
   22.4579  -10.2048    0.0000 C   0  0  0  0  0  0  0  0  0  0  0  0
   22.4579   -9.3798    0.0000 C   0  0  0  0  0  0  0  0  0  0  0  0
   21.7435   -8.9673    0.0000 C   0  0  0  0  0  0  0  0  0  0  0  0
   23.1724  -10.6173    0.0000 C   0  0  0  0  0  0  0  0  0  0  0  0
   23.8869  -10.2048    0.0000 C   0  0  0  0  0  0  0  0  0  0  0  0
   23.8869   -9.3798    0.0000 C   0  0  0  0  0  0  0  0  0  0  0  0
   23.1724   -8.9673    0.0000 C   0  0  0  0  0  0  0  0  0  0  0  0
   24.6013  -10.6173    0.0000 C   0  0  0  0  0  0  0  0  0  0  0  0
   25.3158  -10.2048    0.0000 C   0  0  2  0  0  0  0  0  0  0  0  0
   25.3158   -9.3798    0.0000 C   0  0  1  0  0  0  0  0  0  0  0  0
   24.6013   -8.9673    0.0000 C   0  0  0  0  0  0  0  0  0  0  0  0
   17.4566   -8.9673    0.0000 C   0  0  0  0  0  0  0  0  0  0  0  0
   18.8855  -11.4422    0.0000 O   0  0  0  0  0  0  0  0  0  0  0  0
   17.4566  -10.6173    0.0000 O   0  0  0  0  0  0  0  0  0  0  0  0
   26.7447  -10.2048    0.0000 O   0  0  0  0  0  0  0  0  0  0  0  0
   26.7447   -9.3798    0.0000 C   0  0  0  0  0  0  0  0  0  0  0  0
   26.0303   -8.9673    0.0000 C   0  0  1  0  0  0  0  0  0  0  0  0
   28.1738  -10.2048    0.0000 O   0  0  0  0  0  0  0  0  0  0  0  0
   28.1738   -9.3798    0.0000 C   0  0  1  0  0  0  0  0  0  0  0  0
   27.4592   -8.9673    0.0000 C   0  0  2  0  0  0  0  0  0  0  0  0
   25.3571  -12.1848    0.0000 O   0  0  0  0  0  0  0  0  0  0  0  0
   26.0303   -8.1425    0.0000 O   0  0  0  0  0  0  0  0  0  0  0  0
   24.6013  -11.4423    0.0000 O   0  0  0  0  0  0  0  0  0  0  0  0
   23.1724  -11.4423    0.0000 O   0  0  0  0  0  0  0  0  0  0  0  0
   21.7435  -11.4421    0.0000 O   0  0  0  0  0  0  0  0  0  0  0  0
   27.4592   -8.1423    0.0000 O   0  0  0  0  0  0  0  0  0  0  0  0
   28.8730   -8.9759    0.0000 C   0  0  0  0  0  0  0  0  0  0  0  0
   25.3305   -7.7384    0.0000 C   0  0  0  0  0  0  0  0  0  0  0  0
   22.4908  -12.2232    0.0000 C   0  0  0  0  0  0  0  0  0  0  0  0
   23.9840  -14.7002    0.0000 O   0  0  0  0  0  0  0  0  0  0  0  0
   17.4466  -13.9171    0.0000 O   0  0  0  0  0  0  0  0  0  0  0  0
   16.0116  -11.4445    0.0000 C   0  0  0  0  0  0  0  0  0  0  0  0
   16.0191  -13.1031    0.0000 O   0  0  0  0  0  0  0  0  0  0  0  0
   22.4896  -13.8770    0.0000 O   0  0  0  0  0  0  0  0  0  0  0  0
   21.1562  -14.8069    0.0000 C   0  0  0  0  0  0  0  0  0  0  0  0
   19.7926  -17.3275    0.0000 C   0  0  0  0  0  0  0  0  0  0  0  0
   20.6726  -19.6264    0.0000 C   0  0  0  0  0  0  0  0  0  0  0  0
   21.8394  -19.6264    0.0000 O   0  0  0  0  0  0  0  0  0  0  0  0
   19.8214  -18.9725    0.0000 O   0  0  0  0  0  0  0  0  0  0  0  0
   21.1812  -16.4539    0.0000 O   0  0  0  0  0  0  0  0  0  0  0  0
   20.3058  -10.6224    0.0000 C   0  0  0  0  0  0  0  0  0  0  0  0
   21.8939  -16.5895    0.0000 H   0  0  0  0  0  0  0  0  0  0  0  0
   20.4676  -16.6376    0.0000 H   0  0  0  0  0  0  0  0  0  0  0  0
   19.5501  -18.0166    0.0000 H   0  0  0  0  0  0  0  0  0  0  0  0
   22.8532  -18.9981    0.0000 H   0  0  0  0  0  0  0  0  0  0  0  0
   22.8405  -17.9462    0.0000 H   0  0  0  0  0  0  0  0  0  0  0  0
   23.2504  -14.0651    0.0000 H   0  0  0  0  0  0  0  0  0  0  0  0
   21.8312  -14.1170    0.0000 H   0  0  0  0  0  0  0  0  0  0  0  0
   20.9137  -15.4956    0.0000 H   0  0  0  0  0  0  0  0  0  0  0  0
   21.7100  -16.9706    0.0000 H   0  0  0  0  0  0  0  0  0  0  0  0
   24.2092  -16.4740    0.0000 H   0  0  0  0  0  0  0  0  0  0  0  0
   24.1967  -15.4221    0.0000 H   0  0  0  0  0  0  0  0  0  0  0  0
   24.6227  -11.5461    0.0000 H   0  0  0  0  0  0  0  0  0  0  0  0
   23.2015  -11.5726    0.0000 H   0  0  0  0  0  0  0  0  0  0  0  0
   22.2658  -12.9225    0.0000 H   0  0  0  0  0  0  0  0  0  0  0  0
   23.0514  -14.4381    0.0000 H   0  0  0  0  0  0  0  0  0  0  0  0
   25.6002  -13.9561    0.0000 H   0  0  0  0  0  0  0  0  0  0  0  0
   25.5777  -12.8863    0.0000 H   0  0  0  0  0  0  0  0  0  0  0  0
   18.1611  -10.7905    0.0000 H   0  0  0  0  0  0  0  0  0  0  0  0
   16.7372  -10.7934    0.0000 H   0  0  0  0  0  0  0  0  0  0  0  0
   15.8105  -12.1535    0.0000 H   0  0  0  0  0  0  0  0  0  0  0  0
   16.5200  -13.6330    0.0000 H   0  0  0  0  0  0  0  0  0  0  0  0
   19.0878  -13.2205    0.0000 H   0  0  0  0  0  0  0  0  0  0  0  0
   19.0878  -12.1505    0.0000 H   0  0  0  0  0  0  0  0  0  0  0  0
   17.2445   -9.9148    0.0000 H   0  0  0  0  0  0  0  0  0  0  0  0
   17.2445   -9.6698    0.0000 H   0  0  0  0  0  0  0  0  0  0  0  0
   17.9588  -11.1523    0.0000 H   0  0  0  0  0  0  0  0  0  0  0  0
   20.5266  -10.7398    0.0000 H   0  0  0  0  0  0  0  0  0  0  0  0
   20.5266   -9.6698    0.0000 H   0  0  0  0  0  0  0  0  0  0  0  0
   20.5266   -9.9148    0.0000 H   0  0  0  0  0  0  0  0  0  0  0  0
   21.7436   -7.9353    0.0000 H   0  0  0  0  0  0  0  0  0  0  0  0
   23.1724   -7.9353    0.0000 H   0  0  0  0  0  0  0  0  0  0  0  0
   24.7905  -11.1370    0.0000 H   0  0  0  0  0  0  0  0  0  0  0  0
   26.2424   -9.9148    0.0000 H   0  0  0  0  0  0  0  0  0  0  0  0
   24.6013   -7.8973    0.0000 H   0  0  0  0  0  0  0  0  0  0  0  0
   23.6746   -8.4323    0.0000 H   0  0  0  0  0  0  0  0  0  0  0  0
   17.4566   -7.8973    0.0000 H   0  0  0  0  0  0  0  0  0  0  0  0
   16.5300   -9.5023    0.0000 H   0  0  0  0  0  0  0  0  0  0  0  0
   16.5299   -8.4323    0.0000 H   0  0  0  0  0  0  0  0  0  0  0  0
   16.6166  -10.1323    0.0000 H   0  0  0  0  0  0  0  0  0  0  0  0
   26.9570   -8.4323    0.0000 H   0  0  0  0  0  0  0  0  0  0  0  0
   27.3338  -10.6898    0.0000 H   0  0  0  0  0  0  0  0  0  0  0  0
   27.2472   -9.9148    0.0000 H   0  0  0  0  0  0  0  0  0  0  0  0
   28.3858   -8.4323    0.0000 H   0  0  0  0  0  0  0  0  0  0  0  0
   22.3609  -11.9108    0.0000 H   0  0  0  0  0  0  0  0  0  0  0  0
   20.9320  -11.9106    0.0000 H   0  0  0  0  0  0  0  0  0  0  0  0
   28.2992   -7.6573    0.0000 H   0  0  0  0  0  0  0  0  0  0  0  0
   29.7998   -9.5107    0.0000 H   0  0  0  0  0  0  0  0  0  0  0  0
   28.8728   -7.9059    0.0000 H   0  0  0  0  0  0  0  0  0  0  0  0
   29.7995   -8.4407    0.0000 H   0  0  0  0  0  0  0  0  0  0  0  0
   25.3306   -6.6684    0.0000 H   0  0  0  0  0  0  0  0  0  0  0  0
   24.4038   -8.2733    0.0000 H   0  0  0  0  0  0  0  0  0  0  0  0
   24.4039   -7.2033    0.0000 H   0  0  0  0  0  0  0  0  0  0  0  0
   22.4951  -11.1532    0.0000 H   0  0  0  0  0  0  0  0  0  0  0  0
   21.5620  -12.7545    0.0000 H   0  0  0  0  0  0  0  0  0  0  0  0
   21.5663  -11.6845    0.0000 H   0  0  0  0  0  0  0  0  0  0  0  0
   16.6065  -14.4020    0.0000 H   0  0  0  0  0  0  0  0  0  0  0  0
   16.0116  -10.3745    0.0000 H   0  0  0  0  0  0  0  0  0  0  0  0
   15.0850  -11.9795    0.0000 H   0  0  0  0  0  0  0  0  0  0  0  0
   15.0849  -10.9095    0.0000 H   0  0  0  0  0  0  0  0  0  0  0  0
   15.1790  -12.6182    0.0000 H   0  0  0  0  0  0  0  0  0  0  0  0
   21.6459  -13.3984    0.0000 H   0  0  0  0  0  0  0  0  0  0  0  0
   21.1211  -13.7375    0.0000 H   0  0  0  0  0  0  0  0  0  0  0  0
   20.2476  -15.3720    0.0000 H   0  0  0  0  0  0  0  0  0  0  0  0
   20.2125  -14.3026    0.0000 H   0  0  0  0  0  0  0  0  0  0  0  0
   19.7575  -16.2581    0.0000 H   0  0  0  0  0  0  0  0  0  0  0  0
   18.8840  -17.8926    0.0000 H   0  0  0  0  0  0  0  0  0  0  0  0
   18.8489  -16.8232    0.0000 H   0  0  0  0  0  0  0  0  0  0  0  0
   19.6174  -19.4493    0.0000 H   0  0  0  0  0  0  0  0  0  0  0  0
   21.0469  -20.6288    0.0000 H   0  0  0  0  0  0  0  0  0  0  0  0
   19.9916  -20.4517    0.0000 H   0  0  0  0  0  0  0  0  0  0  0  0
   21.5001  -20.5351    0.0000 H   0  0  0  0  0  0  0  0  0  0  0  0
   18.9535  -18.5394    0.0000 H   0  0  0  0  0  0  0  0  0  0  0  0
   20.3134  -16.0205    0.0000 H   0  0  0  0  0  0  0  0  0  0  0  0
   19.3791  -10.0875    0.0000 H   0  0  0  0  0  0  0  0  0  0  0  0
   20.3059  -11.6924    0.0000 H   0  0  0  0  0  0  0  0  0  0  0  0
   19.3792  -11.1575    0.0000 H   0  0  0  0  0  0  0  0  0  0  0  0
  1  2  1  0  0  0  0
  1  6  1  0  0  0  0
  1 13  1  0  0  0  0
  1 77  1  6  0  0  0
  2  3  1  0  0  0  0
  3  4  1  0  0  0  0
  3 71  1  0  0  0  0
  3 78  1  6  0  0  0
  4  5  1  0  0  0  0
  4 74  1  0  0  0  0
  4 79  1  1  0  0  0
  5  6  1  0  0  0  0
  5 72  1  0  0  0  0
  5 73  1  6  0  0  0
  6 80  1  0  0  0  0
  6 81  1  0  0  0  0
  7  8  1  0  0  0  0
  7 12  1  0  0  0  0
  7 65  1  0  0  0  0
  7 82  1  6  0  0  0
  8  9  1  0  0  0  0
  9 10  1  0  0  0  0
  9 70  1  0  0  0  0
  9 83  1  6  0  0  0
 10 11  1  0  0  0  0
 10 75  1  0  0  0  0
 10 84  1  6  0  0  0
 11 12  1  0  0  0  0
 11 13  1  0  0  0  0
 11 85  1  6  0  0  0
 12 86  1  0  0  0  0
 12 87  1  0  0  0  0
 14 15  1  0  0  0  0
 14 19  1  0  0  0  0
 14 56  1  0  0  0  0
 14 88  1  6  0  0  0
 15 16  1  0  0  0  0
 16 17  1  0  0  0  0
 16 64  1  0  0  0  0
 16 89  1  6  0  0  0
 17 18  1  0  0  0  0
 17 69  1  0  0  0  0
 17 90  1  1  0  0  0
 18 19  1  0  0  0  0
 18 65  1  0  0  0  0
 18 91  1  6  0  0  0
 19 92  1  0  0  0  0
 19 93  1  0  0  0  0
 20 21  1  0  0  0  0
 20 25  1  0  0  0  0
 20 48  1  0  0  0  0
 20 94  1  6  0  0  0
 21 22  1  0  0  0  0
 22 23  1  0  0  0  0
 22 67  1  0  0  0  0
 22 95  1  6  0  0  0
 23 24  1  0  0  0  0
 23 68  1  0  0  0  0
 23 96  1  1  0  0  0
 24 25  1  0  0  0  0
 24 66  1  0  0  0  0
 24 97  1  6  0  0  0
 25 98  1  0  0  0  0
 25 99  1  0  0  0  0
 26 27  1  0  0  0  0
 26 31  1  0  0  0  0
 26 47  1  0  0  0  0
 26100  1  6  0  0  0
 27 28  1  0  0  0  0
 27 49  1  0  0  0  0
 27101  1  1  0  0  0
 28 29  1  0  0  0  0
 28 48  1  0  0  0  0
 28102  1  6  0  0  0
 29 30  1  0  0  0  0
 29103  1  0  0  0  0
 29104  1  0  0  0  0
 30 31  1  0  0  0  0
 30 34  1  0  0  0  0
 30105  1  6  0  0  0
 32 33  2  0  0  0  0
 32 35  1  0  0  0  0
 32 76  1  0  0  0  0
 33 34  1  0  0  0  0
 33 38  1  0  0  0  0
 35 36  2  0  0  0  0
 35 60  1  0  0  0  0
 36 37  1  0  0  0  0
 36 39  1  0  0  0  0
 37 38  2  0  0  0  0
 37 42  1  0  0  0  0
 38106  1  0  0  0  0
 39 40  2  0  0  0  0
 39 59  1  0  0  0  0
 40 41  1  0  0  0  0
 40 43  1  0  0  0  0
 41 42  2  0  0  0  0
 41 46  1  0  0  0  0
 42107  1  0  0  0  0
 43 44  1  0  0  0  0
 43 58  2  0  0  0  0
 44 45  1  0  0  0  0
 44 56  1  0  0  0  0
 44108  1  1  0  0  0
 45 46  1  0  0  0  0
 45 52  1  0  0  0  0
 45109  1  6  0  0  0
 46110  1  0  0  0  0
 46111  1  0  0  0  0
 47112  1  0  0  0  0
 47113  1  0  0  0  0
 47114  1  0  0  0  0
 49115  1  0  0  0  0
 50 51  2  0  0  0  0
 51 52  1  0  0  0  0
 51 55  1  0  0  0  0
 52 57  1  0  0  0  0
 52116  1  1  0  0  0
 53117  1  0  0  0  0
 54 55  1  0  0  0  0
 54 53  1  0  0  0  0
 54 62  1  0  0  0  0
 54118  1  6  0  0  0
 55 61  1  0  0  0  0
 55119  1  6  0  0  0
 57 63  1  0  0  0  0
 59120  1  0  0  0  0
 60121  1  0  0  0  0
 61122  1  0  0  0  0
 62123  1  0  0  0  0
 62124  1  0  0  0  0
 62125  1  0  0  0  0
 63126  1  0  0  0  0
 63127  1  0  0  0  0
 63128  1  0  0  0  0
 64129  1  0  0  0  0
 64130  1  0  0  0  0
 64131  1  0  0  0  0
 66132  1  0  0  0  0
 67133  1  0  0  0  0
 67134  1  0  0  0  0
 67135  1  0  0  0  0
 68136  1  0  0  0  0
 69137  1  0  0  0  0
 70138  1  0  0  0  0
 70139  1  0  0  0  0
 70140  1  0  0  0  0
 71141  1  0  0  0  0
 71142  1  0  0  0  0
 71143  1  0  0  0  0
 72144  1  0  0  0  0
 72145  1  0  0  0  0
 72146  1  0  0  0  0
 73147  1  0  0  0  0
 74148  1  0  0  0  0
 75149  1  0  0  0  0
 76150  1  0  0  0  0
 76151  1  0  0  0  0
 76152  1  0  0  0  0
M  END
>  <DRUGBANK_ID>
DB06810

>  <COMMON_NAME>
Plicamycin

>  <CAS_NUMBER>
18378-89-7

>  <UNII>
NIJ123W41V

>  <SYNONYMS>
Aureolic acid; Mithramycin; Mithramycine; Mithramycinum; Plicamicina; Plicamycin; Plicamycine; Plicamycinum

$$$$
