
 OpenBabel10282417072D

 51 54  0  0  1  0  0  0  0  0999 V2000
    3.4051   -3.0417    0.0000 O   0  0  0  0  0  0  0  0  0  0  0  0
    2.9679   -3.7413    0.0000 C   0  0  2  0  0  0  0  0  0  0  0  0
    3.3552   -4.4697    0.0000 C   0  0  0  0  0  0  0  0  0  0  0  0
    2.9180   -5.1694    0.0000 N   0  0  0  0  0  0  0  0  0  0  0  0
    2.0935   -5.1406    0.0000 C   0  0  0  0  0  0  0  0  0  0  0  0
    1.7062   -4.4121    0.0000 C   0  0  0  0  0  0  0  0  0  0  0  0
    2.1434   -3.7125    0.0000 C   0  0  2  0  0  0  0  0  0  0  0  0
    1.4595   -3.2512    0.0000 O   0  0  0  0  0  0  0  0  0  0  0  0
    2.1434   -2.8875    0.0000 C   0  0  0  0  0  0  0  0  0  0  0  0
    1.4289   -2.4750    0.0000 O   0  0  0  0  0  0  0  0  0  0  0  0
    1.4289   -1.6500    0.0000 C   0  0  0  0  0  0  0  0  0  0  0  0
    0.7145   -1.2375    0.0000 C   0  0  0  0  0  0  0  0  0  0  0  0
    0.7145   -0.4125    0.0000 C   0  0  0  0  0  0  0  0  0  0  0  0
    1.4289    0.0000    0.0000 C   0  0  0  0  0  0  0  0  0  0  0  0
    1.4289    0.8250    0.0000 F   0  0  0  0  0  0  0  0  0  0  0  0
    2.1434   -0.4125    0.0000 C   0  0  0  0  0  0  0  0  0  0  0  0
    2.8579    0.0000    0.0000 N   0  0  0  0  0  0  0  0  0  0  0  0
    3.5724   -0.4125    0.0000 C   0  0  0  0  0  0  0  0  0  0  0  0
    4.2868   -0.0000    0.0000 O   0  0  0  0  0  0  0  0  0  0  0  0
    3.5724   -1.2375    0.0000 C   0  0  0  0  0  0  0  0  0  0  0  0
    2.8579   -1.6500    0.0000 C   0  0  0  0  0  0  0  0  0  0  0  0
    2.1434   -1.2375    0.0000 C   0  0  0  0  0  0  0  0  0  0  0  0
    3.3054   -5.8978    0.0000 C   0  0  0  0  0  0  0  0  0  0  0  0
    4.1299   -5.9266    0.0000 C   0  0  0  0  0  0  0  0  0  0  0  0
    4.5670   -5.2269    0.0000 F   0  0  0  0  0  0  0  0  0  0  0  0
    4.5172   -6.6550    0.0000 C   0  0  0  0  0  0  0  0  0  0  0  0
    4.0800   -7.3547    0.0000 C   0  0  0  0  0  0  0  0  0  0  0  0
    4.4673   -8.0831    0.0000 Cl  0  0  0  0  0  0  0  0  0  0  0  0
    3.2555   -7.3259    0.0000 C   0  0  0  0  0  0  0  0  0  0  0  0
    2.8682   -6.5974    0.0000 C   0  0  0  0  0  0  0  0  0  0  0  0
    2.0437   -6.5686    0.0000 F   0  0  0  0  0  0  0  0  0  0  0  0
    4.3745   -3.0756    0.0000 H   0  0  0  0  0  0  0  0  0  0  0  0
    4.0372   -3.7787    0.0000 H   0  0  0  0  0  0  0  0  0  0  0  0
    4.4245   -4.5070    0.0000 H   0  0  0  0  0  0  0  0  0  0  0  0
    3.8576   -5.4144    0.0000 H   0  0  0  0  0  0  0  0  0  0  0  0
    1.5265   -6.0480    0.0000 H   0  0  0  0  0  0  0  0  0  0  0  0
    1.0242   -5.1032    0.0000 H   0  0  0  0  0  0  0  0  0  0  0  0
    0.6369   -4.3747    0.0000 H   0  0  0  0  0  0  0  0  0  0  0  0
    1.2039   -3.4673    0.0000 H   0  0  0  0  0  0  0  0  0  0  0  0
    1.5272   -2.2836    0.0000 H   0  0  0  0  0  0  0  0  0  0  0  0
    3.0700   -2.3525    0.0000 H   0  0  0  0  0  0  0  0  0  0  0  0
    2.1434   -1.8175    0.0000 H   0  0  0  0  0  0  0  0  0  0  0  0
   -0.1792   -1.7535    0.0000 H   0  0  0  0  0  0  0  0  0  0  0  0
   -0.1792    0.1035    0.0000 H   0  0  0  0  0  0  0  0  0  0  0  0
    2.8579    0.9845    0.0000 H   0  0  0  0  0  0  0  0  0  0  0  0
    4.4990   -1.7725    0.0000 H   0  0  0  0  0  0  0  0  0  0  0  0
    3.5724   -2.3075    0.0000 H   0  0  0  0  0  0  0  0  0  0  0  0
    2.8579   -2.7200    0.0000 H   0  0  0  0  0  0  0  0  0  0  0  0
    1.9313   -2.1850    0.0000 H   0  0  0  0  0  0  0  0  0  0  0  0
    5.5486   -6.6910    0.0000 H   0  0  0  0  0  0  0  0  0  0  0  0
    2.7086   -8.2011    0.0000 H   0  0  0  0  0  0  0  0  0  0  0  0
  1 32  1  0  0  0  0
  2  1  1  0  0  0  0
  2  3  1  0  0  0  0
  2  7  1  0  0  0  0
  2 33  1  1  0  0  0
  3  4  1  0  0  0  0
  3 34  1  0  0  0  0
  3 35  1  0  0  0  0
  4  5  1  0  0  0  0
  4 23  1  0  0  0  0
  5  6  1  0  0  0  0
  5 36  1  0  0  0  0
  5 37  1  0  0  0  0
  6 38  1  0  0  0  0
  6 39  1  0  0  0  0
  7  6  1  0  0  0  0
  7  8  1  6  0  0  0
  7  9  1  0  0  0  0
  8 40  1  0  0  0  0
  9 10  1  0  0  0  0
  9 41  1  0  0  0  0
  9 42  1  0  0  0  0
 10 11  1  0  0  0  0
 11 12  2  0  0  0  0
 11 22  1  0  0  0  0
 12 13  1  0  0  0  0
 12 43  1  0  0  0  0
 13 14  2  0  0  0  0
 13 44  1  0  0  0  0
 14 15  1  0  0  0  0
 14 16  1  0  0  0  0
 16 17  1  0  0  0  0
 16 22  2  0  0  0  0
 17 18  1  0  0  0  0
 17 45  1  0  0  0  0
 18 19  2  0  0  0  0
 18 20  1  0  0  0  0
 20 21  1  0  0  0  0
 20 46  1  0  0  0  0
 20 47  1  0  0  0  0
 21 22  1  0  0  0  0
 21 48  1  0  0  0  0
 21 49  1  0  0  0  0
 23 24  2  0  0  0  0
 23 30  1  0  0  0  0
 24 25  1  0  0  0  0
 24 26  1  0  0  0  0
 26 27  2  0  0  0  0
 26 50  1  0  0  0  0
 27 28  1  0  0  0  0
 27 29  1  0  0  0  0
 29 30  2  0  0  0  0
 29 51  1  0  0  0  0
 30 31  1  0  0  0  0
M  END
>  <DRUGBANK_ID>
DB17770

>  <COMMON_NAME>
Quabodepistat

>  <CAS_NUMBER>
1883747-71-4

>  <UNII>
1PQN78P4S3

>  <SYNONYMS>
2(1H)-QUINOLINONE, 5-(((3R,4R)-1-(4-CHLORO-2,6-DIFLUOROPHENYL)-3,4-DIHYDROXY-4-PIPERIDINYL)METHOXY)-8-FLUORO-3,4-DIHYDRO-; 5-(((3r,4r)-1-(4-chloro-2,6-difluorophenyl)-3,4-dihydroxypiperidin-4-yl)methoxy)-8-fluoro-3,4-dihydroquinolin-2(1h)-one; 5-{[(3R,4R)-1-(4-chloro-2,6-difluorophenyl)-3,4-dihydroxypiperidin-4-yl]methoxy}-8-fluoro-3,4-dihydroquinolin-2(1H)-one

$$$$
