
 OpenBabel10282417072D

124131  0  0  1  0  0  0  0  0999 V2000
   11.1299    7.2007    0.0000 C   0  0  0  0  0  0  0  0  0  0  0  0
   11.6617    6.5700    0.0000 C   0  0  2  0  0  0  0  0  0  0  0  0
   12.4738    6.7153    0.0000 C   0  0  2  0  0  0  0  0  0  0  0  0
   13.0056    6.0845    0.0000 C   0  0  2  0  0  0  0  0  0  0  0  0
   12.7253    5.3086    0.0000 C   0  0  0  0  0  0  0  0  0  0  0  0
   11.9132    5.1634    0.0000 C   0  0  1  0  0  0  0  0  0  0  0  0
   11.3814    5.7941    0.0000 O   0  0  0  0  0  0  0  0  0  0  0  0
   11.6329    4.3875    0.0000 O   0  0  0  0  0  0  0  0  0  0  0  0
   10.8208    4.2423    0.0000 C   0  0  2  0  0  0  0  0  0  0  0  0
   10.5405    3.4663    0.0000 C   0  0  2  0  0  0  0  0  0  0  0  0
    9.7284    3.3211    0.0000 O   0  0  0  0  0  0  0  0  0  0  0  0
    9.1966    3.9518    0.0000 C   0  0  2  0  0  0  0  0  0  0  0  0
    9.4769    4.7278    0.0000 C   0  0  0  0  0  0  0  0  0  0  0  0
   10.2890    4.8730    0.0000 C   0  0  2  0  0  0  0  0  0  0  0  0
   10.5693    5.6489    0.0000 O   0  0  0  0  0  0  0  0  0  0  0  0
    8.3844    3.8066    0.0000 O   0  0  0  0  0  0  0  0  0  0  0  0
    8.1041    3.0307    0.0000 C   0  0  2  0  0  0  0  0  0  0  0  0
    8.6360    2.4000    0.0000 C   0  0  2  0  0  0  0  0  0  0  0  0
    8.3557    1.6241    0.0000 O   0  0  0  0  0  0  0  0  0  0  0  0
    7.5435    1.4789    0.0000 C   0  0  2  0  0  0  0  0  0  0  0  0
    7.0117    2.1096    0.0000 C   0  0  0  0  0  0  0  0  0  0  0  0
    7.2920    2.8855    0.0000 C   0  0  2  0  0  0  0  0  0  0  0  0
    6.7602    3.5162    0.0000 O   0  0  0  0  0  0  0  0  0  0  0  0
    7.2632    0.7029    0.0000 O   0  0  0  0  0  0  0  0  0  0  0  0
    6.4511    0.5577    0.0000 C   0  0  1  0  0  0  0  0  0  0  0  0
    6.1708   -0.2182    0.0000 C   0  0  0  0  0  0  0  0  0  0  0  0
    5.3587   -0.3634    0.0000 C   0  0  0  0  0  0  0  0  0  0  0  0
    4.8269    0.2673    0.0000 C   0  0  1  0  0  0  0  0  0  0  0  0
    5.1072    1.0432    0.0000 C   0  0  1  0  0  0  0  0  0  0  0  0
    5.9193    1.1884    0.0000 C   0  0  0  0  0  0  0  0  0  0  0  0
    4.5754    1.6739    0.0000 C   0  0  0  0  0  0  0  0  0  0  0  0
    3.7633    1.5287    0.0000 C   0  0  0  0  0  0  0  0  0  0  0  0
    3.4830    0.7528    0.0000 C   0  0  2  0  0  0  0  0  0  0  0  0
    4.0148    0.1221    0.0000 C   0  0  2  0  0  0  0  0  0  0  0  0
    3.7345   -0.6539    0.0000 C   0  0  0  0  0  0  0  0  0  0  0  0
    2.9224   -0.7991    0.0000 C   0  0  2  0  0  0  0  0  0  0  0  0
    2.3905   -0.1684    0.0000 C   0  0  1  0  0  0  0  0  0  0  0  0
    2.6708    0.6076    0.0000 C   0  0  2  0  0  0  0  0  0  0  0  0
    2.0195    1.1139    0.0000 C   0  0  0  0  0  0  0  0  0  0  0  0
    1.3367    0.6509    0.0000 C   0  0  0  0  0  0  0  0  0  0  0  0
    1.5660   -0.1416    0.0000 C   0  0  2  0  0  0  0  0  0  0  0  0
    1.0596   -0.7929    0.0000 C   0  0  0  0  0  0  0  0  0  0  0  0
    1.2889   -1.5854    0.0000 C   0  0  0  0  0  0  0  0  0  0  0  0
    0.6061   -2.0484    0.0000 C   0  0  0  0  0  0  0  0  0  0  0  0
    0.5793   -2.8729    0.0000 O   0  0  0  0  0  0  0  0  0  0  0  0
   -0.0452   -1.5420    0.0000 O   0  0  0  0  0  0  0  0  0  0  0  0
    0.2351   -0.7661    0.0000 C   0  0  0  0  0  0  0  0  0  0  0  0
    2.8685    1.4085    0.0000 O   0  0  0  0  0  0  0  0  0  0  0  0
    2.0307   -0.9107    0.0000 C   0  0  0  0  0  0  0  0  0  0  0  0
    2.6421   -1.5750    0.0000 O   0  0  0  0  0  0  0  0  0  0  0  0
    4.5466   -0.5086    0.0000 C   0  0  0  0  0  0  0  0  0  0  0  0
    9.4481    2.5452    0.0000 C   0  0  0  0  0  0  0  0  0  0  0  0
   11.0723    2.8356    0.0000 C   0  0  0  0  0  0  0  0  0  0  0  0
   13.8178    6.2298    0.0000 O   0  0  0  0  0  0  0  0  0  0  0  0
   14.3496    5.5991    0.0000 C   0  0  0  0  0  0  0  0  0  0  0  0
   15.1617    5.7443    0.0000 O   0  0  0  0  0  0  0  0  0  0  0  0
   14.0693    4.8231    0.0000 C   0  0  0  0  0  0  0  0  0  0  0  0
   12.7541    7.4912    0.0000 O   0  0  0  0  0  0  0  0  0  0  0  0
   11.4935    8.2070    0.0000 H   0  0  0  0  0  0  0  0  0  0  0  0
   10.0766    7.0124    0.0000 H   0  0  0  0  0  0  0  0  0  0  0  0
   10.4402    8.0187    0.0000 H   0  0  0  0  0  0  0  0  0  0  0  0
   12.0252    7.5764    0.0000 H   0  0  0  0  0  0  0  0  0  0  0  0
   11.7840    7.5333    0.0000 H   0  0  0  0  0  0  0  0  0  0  0  0
   13.3691    7.0908    0.0000 H   0  0  0  0  0  0  0  0  0  0  0  0
   13.4150    4.4906    0.0000 H   0  0  0  0  0  0  0  0  0  0  0  0
   12.3617    4.3023    0.0000 H   0  0  0  0  0  0  0  0  0  0  0  0
   12.6029    4.3454    0.0000 H   0  0  0  0  0  0  0  0  0  0  0  0
   11.5106    3.4243    0.0000 H   0  0  0  0  0  0  0  0  0  0  0  0
   11.5938    3.6546    0.0000 H   0  0  0  0  0  0  0  0  0  0  0  0
    8.8330    2.9455    0.0000 H   0  0  0  0  0  0  0  0  0  0  0  0
    8.7871    5.5458    0.0000 H   0  0  0  0  0  0  0  0  0  0  0  0
    9.8404    5.7341    0.0000 H   0  0  0  0  0  0  0  0  0  0  0  0
    9.5993    5.6910    0.0000 H   0  0  0  0  0  0  0  0  0  0  0  0
   11.5242    5.8196    0.0000 H   0  0  0  0  0  0  0  0  0  0  0  0
    9.1574    3.2191    0.0000 H   0  0  0  0  0  0  0  0  0  0  0  0
    8.9995    3.4064    0.0000 H   0  0  0  0  0  0  0  0  0  0  0  0
    8.2333    0.6609    0.0000 H   0  0  0  0  0  0  0  0  0  0  0  0
    5.9584    1.9213    0.0000 H   0  0  0  0  0  0  0  0  0  0  0  0
    6.3220    2.9276    0.0000 H   0  0  0  0  0  0  0  0  0  0  0  0
    6.2387    2.6972    0.0000 H   0  0  0  0  0  0  0  0  0  0  0  0
    7.0898    4.4285    0.0000 H   0  0  0  0  0  0  0  0  0  0  0  0
    7.1408   -0.2603    0.0000 H   0  0  0  0  0  0  0  0  0  0  0  0
    6.8605   -1.0362    0.0000 H   0  0  0  0  0  0  0  0  0  0  0  0
    5.8072   -1.2245    0.0000 H   0  0  0  0  0  0  0  0  0  0  0  0
    4.9951   -1.3697    0.0000 H   0  0  0  0  0  0  0  0  0  0  0  0
    4.3054   -0.5517    0.0000 H   0  0  0  0  0  0  0  0  0  0  0  0
    5.7969    0.2252    0.0000 H   0  0  0  0  0  0  0  0  0  0  0  0
    6.2829    2.1947    0.0000 H   0  0  0  0  0  0  0  0  0  0  0  0
    6.9726    1.3767    0.0000 H   0  0  0  0  0  0  0  0  0  0  0  0
    4.9390    2.6802    0.0000 H   0  0  0  0  0  0  0  0  0  0  0  0
    3.8857    2.4919    0.0000 H   0  0  0  0  0  0  0  0  0  0  0  0
    3.0736    2.3467    0.0000 H   0  0  0  0  0  0  0  0  0  0  0  0
    2.7100    1.3404    0.0000 H   0  0  0  0  0  0  0  0  0  0  0  0
    4.5363    0.9411    0.0000 H   0  0  0  0  0  0  0  0  0  0  0  0
    2.9615   -0.0662    0.0000 H   0  0  0  0  0  0  0  0  0  0  0  0
    4.4243   -1.4719    0.0000 H   0  0  0  0  0  0  0  0  0  0  0  0
    3.3710   -1.6602    0.0000 H   0  0  0  0  0  0  0  0  0  0  0  0
    3.6121   -1.6171    0.0000 H   0  0  0  0  0  0  0  0  0  0  0  0
    2.0542    2.1833    0.0000 H   0  0  0  0  0  0  0  0  0  0  0  0
    1.0824    1.6303    0.0000 H   0  0  0  0  0  0  0  0  0  0  0  0
    0.3303    1.0144    0.0000 H   0  0  0  0  0  0  0  0  0  0  0  0
    0.5559   -0.0807    0.0000 H   0  0  0  0  0  0  0  0  0  0  0  0
    0.5152    0.0601    0.0000 H   0  0  0  0  0  0  0  0  0  0  0  0
    2.2595   -1.9360    0.0000 H   0  0  0  0  0  0  0  0  0  0  0  0
   -0.3654    0.1195    0.0000 H   0  0  0  0  0  0  0  0  0  0  0  0
    0.7516    0.1710    0.0000 H   0  0  0  0  0  0  0  0  0  0  0  0
    3.8003    1.6780    0.0000 H   0  0  0  0  0  0  0  0  0  0  0  0
    0.9635   -0.9879    0.0000 H   0  0  0  0  0  0  0  0  0  0  0  0
    2.6312   -1.7963    0.0000 H   0  0  0  0  0  0  0  0  0  0  0  0
    1.5640   -1.8736    0.0000 H   0  0  0  0  0  0  0  0  0  0  0  0
    1.6872   -1.7457    0.0000 H   0  0  0  0  0  0  0  0  0  0  0  0
    3.4933   -0.6969    0.0000 H   0  0  0  0  0  0  0  0  0  0  0  0
    5.2363   -1.3266    0.0000 H   0  0  0  0  0  0  0  0  0  0  0  0
    4.1830   -1.5149    0.0000 H   0  0  0  0  0  0  0  0  0  0  0  0
   10.1378    1.7272    0.0000 H   0  0  0  0  0  0  0  0  0  0  0  0
    9.8117    3.5515    0.0000 H   0  0  0  0  0  0  0  0  0  0  0  0
   10.5014    2.7335    0.0000 H   0  0  0  0  0  0  0  0  0  0  0  0
   10.7087    1.8293    0.0000 H   0  0  0  0  0  0  0  0  0  0  0  0
   12.1256    3.0239    0.0000 H   0  0  0  0  0  0  0  0  0  0  0  0
   11.7620    2.0176    0.0000 H   0  0  0  0  0  0  0  0  0  0  0  0
   13.0160    4.6347    0.0000 H   0  0  0  0  0  0  0  0  0  0  0  0
   14.7591    4.0051    0.0000 H   0  0  0  0  0  0  0  0  0  0  0  0
   13.7058    3.8167    0.0000 H   0  0  0  0  0  0  0  0  0  0  0  0
   13.7090    7.6619    0.0000 H   0  0  0  0  0  0  0  0  0  0  0  0
  1 59  1  0  0  0  0
  1 60  1  0  0  0  0
  1 61  1  0  0  0  0
  2  1  1  0  0  0  0
  2  3  1  0  0  0  0
  2  7  1  0  0  0  0
  2 62  1  1  0  0  0
  3  4  1  0  0  0  0
  3 58  1  0  0  0  0
  3 63  1  6  0  0  0
  4  5  1  0  0  0  0
  4 54  1  0  0  0  0
  4 64  1  6  0  0  0
  5  6  1  0  0  0  0
  5 65  1  0  0  0  0
  5 66  1  0  0  0  0
  6  7  1  0  0  0  0
  6  8  1  0  0  0  0
  6 67  1  1  0  0  0
  9  8  1  0  0  0  0
  9 10  1  0  0  0  0
  9 14  1  0  0  0  0
  9 68  1  1  0  0  0
 10 11  1  0  0  0  0
 10 53  1  0  0  0  0
 10 69  1  6  0  0  0
 11 12  1  0  0  0  0
 12 13  1  0  0  0  0
 12 16  1  0  0  0  0
 12 70  1  6  0  0  0
 13 14  1  0  0  0  0
 13 71  1  0  0  0  0
 13 72  1  0  0  0  0
 14 15  1  0  0  0  0
 14 73  1  1  0  0  0
 15 74  1  0  0  0  0
 17 16  1  0  0  0  0
 17 18  1  0  0  0  0
 17 22  1  0  0  0  0
 17 75  1  1  0  0  0
 18 19  1  0  0  0  0
 18 52  1  0  0  0  0
 18 76  1  6  0  0  0
 19 20  1  0  0  0  0
 20 21  1  0  0  0  0
 20 24  1  0  0  0  0
 20 77  1  6  0  0  0
 21 22  1  0  0  0  0
 21 78  1  0  0  0  0
 21 79  1  0  0  0  0
 22 23  1  0  0  0  0
 22 80  1  1  0  0  0
 23 81  1  0  0  0  0
 25 24  1  0  0  0  0
 25 26  1  0  0  0  0
 25 30  1  0  0  0  0
 25 82  1  6  0  0  0
 26 27  1  0  0  0  0
 26 83  1  0  0  0  0
 26 84  1  0  0  0  0
 27 28  1  0  0  0  0
 27 85  1  0  0  0  0
 27 86  1  0  0  0  0
 28 29  1  0  0  0  0
 28 34  1  0  0  0  0
 28 51  1  1  0  0  0
 29 30  1  0  0  0  0
 29 31  1  0  0  0  0
 29 87  1  1  0  0  0
 30 88  1  0  0  0  0
 30 89  1  0  0  0  0
 31 32  1  0  0  0  0
 31 90  1  0  0  0  0
 31 91  1  0  0  0  0
 32 92  1  0  0  0  0
 32 93  1  0  0  0  0
 33 32  1  0  0  0  0
 33 34  1  0  0  0  0
 33 38  1  0  0  0  0
 33 94  1  1  0  0  0
 34 35  1  0  0  0  0
 34 95  1  6  0  0  0
 35 36  1  0  0  0  0
 35 96  1  0  0  0  0
 35 97  1  0  0  0  0
 36 37  1  0  0  0  0
 36 50  1  0  0  0  0
 36 98  1  6  0  0  0
 37 38  1  0  0  0  0
 37 41  1  0  0  0  0
 37 49  1  1  0  0  0
 38 39  1  0  0  0  0
 38 48  1  1  0  0  0
 39 40  1  0  0  0  0
 39 99  1  0  0  0  0
 39100  1  0  0  0  0
 40 41  1  0  0  0  0
 40101  1  0  0  0  0
 40102  1  0  0  0  0
 41 42  1  0  0  0  0
 41103  1  6  0  0  0
 42 43  2  0  0  0  0
 42 47  1  0  0  0  0
 43 44  1  0  0  0  0
 43104  1  0  0  0  0
 44 45  2  0  0  0  0
 44 46  1  0  0  0  0
 46 47  1  0  0  0  0
 47105  1  0  0  0  0
 47106  1  0  0  0  0
 48107  1  0  0  0  0
 49108  1  0  0  0  0
 49109  1  0  0  0  0
 49110  1  0  0  0  0
 50111  1  0  0  0  0
 51112  1  0  0  0  0
 51113  1  0  0  0  0
 51114  1  0  0  0  0
 52115  1  0  0  0  0
 52116  1  0  0  0  0
 52117  1  0  0  0  0
 53118  1  0  0  0  0
 53119  1  0  0  0  0
 53120  1  0  0  0  0
 54 55  1  0  0  0  0
 55 56  2  0  0  0  0
 55 57  1  0  0  0  0
 57121  1  0  0  0  0
 57122  1  0  0  0  0
 57123  1  0  0  0  0
 58124  1  0  0  0  0
M  END
>  <DRUGBANK_ID>
DB13691

>  <COMMON_NAME>
Acetyldigoxin

>  <CAS_NUMBER>
5511-98-8

>  <UNII>
Q28IFH7A50

>  <SYNONYMS>
alpha-acetyldigoxin

$$$$
