
 OpenBabel10282417072D

 49 52  0  0  0  0  0  0  0  0999 V2000
    2.1319    1.8554    0.0000 O   0  0  0  0  0  0  0  0  0  0  0  0
   -2.8500   -1.8554    0.0000 O   0  0  0  0  0  0  0  0  0  0  0  0
    1.4193   -0.2079    0.0000 C   0  0  2  0  0  0  0  0  0  0  0  0
    1.4193    0.6184    0.0000 C   0  0  2  0  0  0  0  0  0  0  0  0
    0.7068   -0.6183    0.0000 C   0  0  1  0  0  0  0  0  0  0  0  0
   -0.0113   -0.2024    0.0000 C   0  0  2  0  0  0  0  0  0  0  0  0
    0.7068    1.0346    0.0000 C   0  0  0  0  0  0  0  0  0  0  0  0
   -0.0113    0.6184    0.0000 C   0  0  0  0  0  0  0  0  0  0  0  0
    2.1319    1.0346    0.0000 C   0  0  2  0  0  0  0  0  0  0  0  0
    0.7068   -1.4392    0.0000 C   0  0  1  0  0  0  0  0  0  0  0  0
    2.8500   -0.2079    0.0000 C   0  0  0  0  0  0  0  0  0  0  0  0
   -0.7182   -0.6183    0.0000 C   0  0  2  0  0  0  0  0  0  0  0  0
    2.8500    0.6184    0.0000 C   0  0  0  0  0  0  0  0  0  0  0  0
   -0.0057   -1.8496    0.0000 C   0  0  0  0  0  0  0  0  0  0  0  0
    1.4193    1.4392    0.0000 C   0  0  0  0  0  0  0  0  0  0  0  0
   -0.7182   -1.4450    0.0000 C   0  0  0  0  0  0  0  0  0  0  0  0
   -1.4307   -0.2024    0.0000 C   0  0  0  0  0  0  0  0  0  0  0  0
    1.4136   -1.8496    0.0000 C   0  0  0  0  0  0  0  0  0  0  0  0
   -2.1432   -0.6183    0.0000 C   0  0  0  0  0  0  0  0  0  0  0  0
   -1.4307   -1.8496    0.0000 C   0  0  0  0  0  0  0  0  0  0  0  0
   -2.1432   -1.4450    0.0000 C   0  0  0  0  0  0  0  0  0  0  0  0
    1.6303   -1.0004    0.0000 H   0  0  0  0  0  0  0  0  0  0  0  0
    0.7068    0.2024    0.0000 H   0  0  0  0  0  0  0  0  0  0  0  0
   -0.0057   -1.0232    0.0000 H   0  0  0  0  0  0  0  0  0  0  0  0
   -0.7182    0.2024    0.0000 H   0  0  0  0  0  0  0  0  0  0  0  0
    2.9719    2.3404    0.0000 H   0  0  0  0  0  0  0  0  0  0  0  0
    0.7086    2.1046    0.0000 H   0  0  0  0  0  0  0  0  0  0  0  0
   -0.2198    1.5696    0.0000 H   0  0  0  0  0  0  0  0  0  0  0  0
   -0.9384    1.1526    0.0000 H   0  0  0  0  0  0  0  0  0  0  0  0
   -0.0126    1.6884    0.0000 H   0  0  0  0  0  0  0  0  0  0  0  0
    1.2039    1.5673    0.0000 H   0  0  0  0  0  0  0  0  0  0  0  0
    1.6341   -0.9053    0.0000 H   0  0  0  0  0  0  0  0  0  0  0  0
    3.6066   -0.9645    0.0000 H   0  0  0  0  0  0  0  0  0  0  0  0
    3.8386    0.2016    0.0000 H   0  0  0  0  0  0  0  0  0  0  0  0
    3.7771    1.1526    0.0000 H   0  0  0  0  0  0  0  0  0  0  0  0
    3.7764    0.0830    0.0000 H   0  0  0  0  0  0  0  0  0  0  0  0
   -0.0024   -2.9196    0.0000 H   0  0  0  0  0  0  0  0  0  0  0  0
   -0.9296   -2.3893    0.0000 H   0  0  0  0  0  0  0  0  0  0  0  0
    2.3459    1.9742    0.0000 H   0  0  0  0  0  0  0  0  0  0  0  0
    0.4927    1.9742    0.0000 H   0  0  0  0  0  0  0  0  0  0  0  0
    1.4193    2.5092    0.0000 H   0  0  0  0  0  0  0  0  0  0  0  0
   -1.4307    0.8676    0.0000 H   0  0  0  0  0  0  0  0  0  0  0  0
   -2.3586    0.3304    0.0000 H   0  0  0  0  0  0  0  0  0  0  0  0
    1.4110   -2.9196    0.0000 H   0  0  0  0  0  0  0  0  0  0  0  0
    2.3416   -1.3169    0.0000 H   0  0  0  0  0  0  0  0  0  0  0  0
    2.3389   -2.3869    0.0000 H   0  0  0  0  0  0  0  0  0  0  0  0
   -3.0711   -0.0855    0.0000 H   0  0  0  0  0  0  0  0  0  0  0  0
   -3.0692   -1.1544    0.0000 H   0  0  0  0  0  0  0  0  0  0  0  0
   -1.4307   -2.8816    0.0000 H   0  0  0  0  0  0  0  0  0  0  0  0
  1 26  1  0  0  0  0
  2 21  2  0  0  0  0
  3  4  1  0  0  0  0
  3  5  1  0  0  0  0
  3 11  1  0  0  0  0
  3 22  1  6  0  0  0
  4  7  1  0  0  0  0
  4  9  1  0  0  0  0
  4 15  1  1  0  0  0
  5  6  1  0  0  0  0
  5 10  1  0  0  0  0
  5 23  1  1  0  0  0
  6  8  1  0  0  0  0
  6 12  1  0  0  0  0
  6 24  1  6  0  0  0
  7  8  1  0  0  0  0
  7 27  1  0  0  0  0
  7 28  1  0  0  0  0
  8 29  1  0  0  0  0
  8 30  1  0  0  0  0
  9  1  1  0  0  0  0
  9 13  1  0  0  0  0
  9 31  1  6  0  0  0
 10 14  1  0  0  0  0
 10 18  1  0  0  0  0
 10 32  1  1  0  0  0
 11 13  1  0  0  0  0
 11 33  1  0  0  0  0
 11 34  1  0  0  0  0
 12 16  1  0  0  0  0
 12 17  1  0  0  0  0
 12 25  1  1  0  0  0
 13 35  1  0  0  0  0
 13 36  1  0  0  0  0
 14 16  1  0  0  0  0
 14 37  1  0  0  0  0
 14 38  1  0  0  0  0
 15 39  1  0  0  0  0
 15 40  1  0  0  0  0
 15 41  1  0  0  0  0
 16 20  2  0  0  0  0
 17 19  1  0  0  0  0
 17 42  1  0  0  0  0
 17 43  1  0  0  0  0
 18 44  1  0  0  0  0
 18 45  1  0  0  0  0
 18 46  1  0  0  0  0
 19 21  1  0  0  0  0
 19 47  1  0  0  0  0
 19 48  1  0  0  0  0
 20 21  1  0  0  0  0
 20 49  1  0  0  0  0
M  END
>  <DRUGBANK_ID>
DB05830

>  <COMMON_NAME>
Trestolone

>  <CAS_NUMBER>
3764-87-2

>  <UNII>
40P3287I94

>  <SYNONYMS>
17beta-Hydroxy-7alpha-methylestr-4-en-3-one; 17beta-Hydroxy-7alpha-methylestr-4-enone; 19-Nor-7alpha-methyltestosterone; 19-Nor-methyltestosterone; 7alpha-Methyl-17beta-hydroxy-4-estren-3-one; 7alpha-Methyl-19-nortestosterone; 7alpha-Methyl-3-oxo-4-estren-17beta-ol; 7alpha-Methylnandrolone; 7Î±-methyl-19-nortestosterone; MENT; Trestolona; Trestolone; Trestolonum

$$$$
