
 OpenBabel10282417072D

 54 57  0  0  1  0  0  0  0  0999 V2000
    4.5404    2.5654    0.0000 C   0  0  0  0  0  0  0  0  0  0  0  0
   -2.0361    1.4372    0.0000 C   0  0  0  0  0  0  0  0  0  0  0  0
    3.7283    2.4202    0.0000 C   0  0  0  0  0  0  0  0  0  0  0  0
    3.4480    1.6442    0.0000 C   0  0  0  0  0  0  0  0  0  0  0  0
    2.6359    1.4990    0.0000 C   0  0  0  0  0  0  0  0  0  0  0  0
    0.5086    4.0219    0.0000 C   0  0  0  0  0  0  0  0  0  0  0  0
   -0.3035    3.8766    0.0000 C   0  0  0  0  0  0  0  0  0  0  0  0
   -2.0473    3.4619    0.0000 C   0  0  0  0  0  0  0  0  0  0  0  0
   -2.7301    2.9989    0.0000 C   0  0  0  0  0  0  0  0  0  0  0  0
   -0.3323    1.6941    0.0000 C   0  0  0  0  0  0  0  0  0  0  0  0
   -1.1444    1.5489    0.0000 C   0  0  0  0  0  0  0  0  0  0  0  0
    1.2920    1.9845    0.0000 C   0  0  0  0  0  0  0  0  0  0  0  0
    1.8526    3.5364    0.0000 C   0  0  0  0  0  0  0  0  0  0  0  0
    1.0404    3.3912    0.0000 C   0  0  0  0  0  0  0  0  0  0  0  0
    2.1041    2.1297    0.0000 C   0  0  0  0  0  0  0  0  0  0  0  0
   -0.0520    2.4700    0.0000 C   0  0  1  0  0  0  0  0  0  0  0  0
   -0.5838    3.1007    0.0000 C   0  0  2  0  0  0  0  0  0  0  0  0
    0.7601    2.6152    0.0000 C   0  0  0  0  0  0  0  0  0  0  0  0
   -1.3959    2.9555    0.0000 C   0  0  1  0  0  0  0  0  0  0  0  0
    2.3844    2.9057    0.0000 C   0  0  0  0  0  0  0  0  0  0  0  0
   -2.5008    2.2064    0.0000 C   0  0  1  0  0  0  0  0  0  0  0  0
   -1.6762    2.1796    0.0000 C   0  0  2  0  0  0  0  0  0  0  0  0
    3.1965    3.0509    0.0000 O   0  0  0  0  0  0  0  0  0  0  0  0
   -3.0071    1.5551    0.0000 O   0  0  0  0  0  0  0  0  0  0  0  0
    3.9798    1.0135    0.0000 H   0  0  0  0  0  0  0  0  0  0  0  0
    2.3556    0.7231    0.0000 H   0  0  0  0  0  0  0  0  0  0  0  0
    0.4798    1.8393    0.0000 H   0  0  0  0  0  0  0  0  0  0  0  0
   -1.2993    3.5115    0.0000 H   0  0  0  0  0  0  0  0  0  0  0  0
   -1.4841    3.7758    0.0000 H   0  0  0  0  0  0  0  0  0  0  0  0
   -3.3110    2.3619    0.0000 H   0  0  0  0  0  0  0  0  0  0  0  0
    5.2301    1.7474    0.0000 H   0  0  0  0  0  0  0  0  0  0  0  0
    4.9040    3.5717    0.0000 H   0  0  0  0  0  0  0  0  0  0  0  0
    5.5937    2.7537    0.0000 H   0  0  0  0  0  0  0  0  0  0  0  0
   -3.1033    1.3600    0.0000 H   0  0  0  0  0  0  0  0  0  0  0  0
   -1.4356    0.5516    0.0000 H   0  0  0  0  0  0  0  0  0  0  0  0
   -2.5029    0.4744    0.0000 H   0  0  0  0  0  0  0  0  0  0  0  0
    3.0385    3.2382    0.0000 H   0  0  0  0  0  0  0  0  0  0  0  0
    2.6750    2.2318    0.0000 H   0  0  0  0  0  0  0  0  0  0  0  0
    0.8721    5.0283    0.0000 H   0  0  0  0  0  0  0  0  0  0  0  0
    1.5619    4.2103    0.0000 H   0  0  0  0  0  0  0  0  0  0  0  0
   -0.9933    4.6946    0.0000 H   0  0  0  0  0  0  0  0  0  0  0  0
   -1.3568    3.6882    0.0000 H   0  0  0  0  0  0  0  0  0  0  0  0
   -2.0126    4.5313    0.0000 H   0  0  0  0  0  0  0  0  0  0  0  0
   -1.0787    3.9165    0.0000 H   0  0  0  0  0  0  0  0  0  0  0  0
   -3.7365    3.3624    0.0000 H   0  0  0  0  0  0  0  0  0  0  0  0
   -3.5109    2.2673    0.0000 H   0  0  0  0  0  0  0  0  0  0  0  0
    0.3574    0.8761    0.0000 H   0  0  0  0  0  0  0  0  0  0  0  0
    0.7210    1.8824    0.0000 H   0  0  0  0  0  0  0  0  0  0  0  0
   -1.5080    0.5426    0.0000 H   0  0  0  0  0  0  0  0  0  0  0  0
   -2.1977    1.3606    0.0000 H   0  0  0  0  0  0  0  0  0  0  0  0
    0.9414    1.0139    0.0000 H   0  0  0  0  0  0  0  0  0  0  0  0
    2.2033    4.5070    0.0000 H   0  0  0  0  0  0  0  0  0  0  0  0
    3.8005    2.3346    0.0000 H   0  0  0  0  0  0  0  0  0  0  0  0
   -3.9680    1.6878    0.0000 H   0  0  0  0  0  0  0  0  0  0  0  0
  1 31  1  0  0  0  0
  1 32  1  0  0  0  0
  1 33  1  0  0  0  0
  2 34  1  0  0  0  0
  2 35  1  0  0  0  0
  2 36  1  0  0  0  0
  3  1  1  0  0  0  0
  3 37  1  0  0  0  0
  3 38  1  0  0  0  0
  4  3  1  0  0  0  0
  5  4  2  0  0  0  0
  6 39  1  0  0  0  0
  6 40  1  0  0  0  0
  7  6  1  0  0  0  0
  7 41  1  0  0  0  0
  7 42  1  0  0  0  0
  8 43  1  0  0  0  0
  8 44  1  0  0  0  0
  9  8  1  0  0  0  0
  9 45  1  0  0  0  0
  9 46  1  0  0  0  0
 10 47  1  0  0  0  0
 10 48  1  0  0  0  0
 11 10  1  0  0  0  0
 11 49  1  0  0  0  0
 11 50  1  0  0  0  0
 12 51  1  0  0  0  0
 13 52  1  0  0  0  0
 14  6  1  0  0  0  0
 14 13  2  0  0  0  0
 15  5  1  0  0  0  0
 15 12  1  0  0  0  0
 16 10  1  0  0  0  0
 16 27  1  6  0  0  0
 17  7  1  0  0  0  0
 17 16  1  0  0  0  0
 17 28  1  1  0  0  0
 18 12  2  0  0  0  0
 18 14  1  0  0  0  0
 18 16  1  0  0  0  0
 19  8  1  0  0  0  0
 19 17  1  0  0  0  0
 19 29  1  6  0  0  0
 20 13  1  0  0  0  0
 20 15  2  0  0  0  0
 21  9  1  0  0  0  0
 21 24  1  0  0  0  0
 21 30  1  6  0  0  0
 22  2  1  1  0  0  0
 22 11  1  0  0  0  0
 22 19  1  0  0  0  0
 22 21  1  0  0  0  0
 23 20  1  0  0  0  0
 23 53  1  0  0  0  0
 24 54  1  0  0  0  0
 25  4  1  0  0  0  0
 26  5  1  0  0  0  0
M  END
>  <DRUGBANK_ID>
DB07678

>  <COMMON_NAME>
(9ALPHA,13BETA,17BETA)-2-[(1Z)-BUT-1-EN-1-YL]ESTRA-1,3,5(10)-TRIENE-3,17-DIOL

$$$$
