
 OpenBabel10282417072D

 56 58  0  0  0  0  0  0  0  0999 V2000
    1.0827   -1.8075    0.0000 N   0  0  0  0  0  0  0  0  0  0  0  0
    0.4109   -1.3125    0.0000 C   0  0  0  0  0  0  0  0  0  0  0  0
    1.7545   -1.3125    0.0000 C   0  0  0  0  0  0  0  0  0  0  0  0
    0.6585   -0.5347    0.0000 C   0  0  0  0  0  0  0  0  0  0  0  0
    1.5069   -0.5347    0.0000 C   0  0  0  0  0  0  0  0  0  0  0  0
    1.9666    0.1369    0.0000 C   0  0  0  0  0  0  0  0  0  0  0  0
    2.8152    0.0662    0.0000 O   0  0  0  0  0  0  0  0  0  0  0  0
    1.6484    0.8794    0.0000 N   0  0  0  0  0  0  0  0  0  0  0  0
    2.1434    1.5511    0.0000 C   0  0  0  0  0  0  0  0  0  0  0  0
    1.7898    2.3290    0.0000 C   0  0  0  0  0  0  0  0  0  0  0  0
    2.2848    3.0008    0.0000 N   0  0  0  0  0  0  0  0  0  0  0  0
    3.0980    2.9301    0.0000 C   0  0  0  0  0  0  0  0  0  0  0  0
    3.5929    3.6017    0.0000 C   0  0  0  0  0  0  0  0  0  0  0  0
    1.9312    3.7432    0.0000 C   0  0  0  0  0  0  0  0  0  0  0  0
    1.1181    3.8493    0.0000 C   0  0  0  0  0  0  0  0  0  0  0  0
    2.5677   -1.5953    0.0000 C   0  0  0  0  0  0  0  0  0  0  0  0
    0.1988    0.1369    0.0000 C   0  0  0  0  0  0  0  0  0  0  0  0
   -0.3653   -1.5646    0.0000 C   0  0  0  0  0  0  0  0  0  0  0  0
   -0.6415   -3.7176    0.0000 N   0  0  0  0  0  0  0  0  0  0  0  0
   -0.1241   -3.0555    0.0000 C   0  0  0  0  0  0  0  0  0  0  0  0
   -1.4308   -3.4765    0.0000 C   0  0  0  0  0  0  0  0  0  0  0  0
   -1.4308   -2.6214    0.0000 C   0  0  0  0  0  0  0  0  0  0  0  0
   -0.6372   -2.3714    0.0000 C   0  0  0  0  0  0  0  0  0  0  0  0
   -2.1544   -3.8493    0.0000 C   0  0  0  0  0  0  0  0  0  0  0  0
   -2.1502   -2.2180    0.0000 C   0  0  0  0  0  0  0  0  0  0  0  0
   -2.8561   -2.6214    0.0000 C   0  0  0  0  0  0  0  0  0  0  0  0
   -2.8561   -3.4765    0.0000 C   0  0  0  0  0  0  0  0  0  0  0  0
   -3.5929   -2.1872    0.0000 Cl  0  0  0  0  0  0  0  0  0  0  0  0
    0.6827   -3.0423    0.0000 O   0  0  0  0  0  0  0  0  0  0  0  0
    1.0827   -2.7920    0.0000 H   0  0  0  0  0  0  0  0  0  0  0  0
    0.6704    0.9925    0.0000 H   0  0  0  0  0  0  0  0  0  0  0  0
    3.2076    1.4398    0.0000 H   0  0  0  0  0  0  0  0  0  0  0  0
    2.7688    2.4193    0.0000 H   0  0  0  0  0  0  0  0  0  0  0  0
    0.7256    2.4403    0.0000 H   0  0  0  0  0  0  0  0  0  0  0  0
    1.3576    3.3078    0.0000 H   0  0  0  0  0  0  0  0  0  0  0  0
    3.5387    1.9551    0.0000 H   0  0  0  0  0  0  0  0  0  0  0  0
    4.1621    2.8177    0.0000 H   0  0  0  0  0  0  0  0  0  0  0  0
    4.6563    3.4827    0.0000 H   0  0  0  0  0  0  0  0  0  0  0  0
    3.1643    4.5821    0.0000 H   0  0  0  0  0  0  0  0  0  0  0  0
    4.2277    4.4631    0.0000 H   0  0  0  0  0  0  0  0  0  0  0  0
    2.5599    4.6090    0.0000 H   0  0  0  0  0  0  0  0  0  0  0  0
    1.5081    4.7260    0.0000 H   0  0  0  0  0  0  0  0  0  0  0  0
    0.7075    4.8374    0.0000 H   0  0  0  0  0  0  0  0  0  0  0  0
    0.4677    2.9997    0.0000 H   0  0  0  0  0  0  0  0  0  0  0  0
    0.0571    3.9877    0.0000 H   0  0  0  0  0  0  0  0  0  0  0  0
    2.7686   -2.6463    0.0000 H   0  0  0  0  0  0  0  0  0  0  0  0
    3.3774   -0.8958    0.0000 H   0  0  0  0  0  0  0  0  0  0  0  0
    3.5783   -1.9468    0.0000 H   0  0  0  0  0  0  0  0  0  0  0  0
    0.6613    1.1018    0.0000 H   0  0  0  0  0  0  0  0  0  0  0  0
   -0.8681    0.0550    0.0000 H   0  0  0  0  0  0  0  0  0  0  0  0
   -0.4056    1.0199    0.0000 H   0  0  0  0  0  0  0  0  0  0  0  0
   -1.0910   -0.8309    0.0000 H   0  0  0  0  0  0  0  0  0  0  0  0
   -0.3454   -4.6565    0.0000 H   0  0  0  0  0  0  0  0  0  0  0  0
   -2.1609   -4.8813    0.0000 H   0  0  0  0  0  0  0  0  0  0  0  0
   -2.1544   -1.1860    0.0000 H   0  0  0  0  0  0  0  0  0  0  0  0
   -3.7406   -4.0082    0.0000 H   0  0  0  0  0  0  0  0  0  0  0  0
  1 30  1  0  0  0  0
  2  1  1  0  0  0  0
  2 18  1  0  0  0  0
  3  1  1  0  0  0  0
  4  2  2  0  0  0  0
  5  3  2  0  0  0  0
  5  4  1  0  0  0  0
  6  5  1  0  0  0  0
  7  6  2  0  0  0  0
  8  6  1  0  0  0  0
  8 31  1  0  0  0  0
  9  8  1  0  0  0  0
  9 32  1  0  0  0  0
  9 33  1  0  0  0  0
 10  9  1  0  0  0  0
 10 34  1  0  0  0  0
 10 35  1  0  0  0  0
 11 10  1  0  0  0  0
 12 11  1  0  0  0  0
 12 36  1  0  0  0  0
 12 37  1  0  0  0  0
 13 12  1  0  0  0  0
 13 38  1  0  0  0  0
 13 39  1  0  0  0  0
 13 40  1  0  0  0  0
 14 11  1  0  0  0  0
 14 41  1  0  0  0  0
 14 42  1  0  0  0  0
 15 14  1  0  0  0  0
 15 43  1  0  0  0  0
 15 44  1  0  0  0  0
 15 45  1  0  0  0  0
 16  3  1  0  0  0  0
 16 46  1  0  0  0  0
 16 47  1  0  0  0  0
 16 48  1  0  0  0  0
 17  4  1  0  0  0  0
 17 49  1  0  0  0  0
 17 50  1  0  0  0  0
 17 51  1  0  0  0  0
 18 52  1  0  0  0  0
 19 53  1  0  0  0  0
 20 19  1  0  0  0  0
 21 19  1  0  0  0  0
 22 21  2  0  0  0  0
 23 18  2  0  0  0  0
 23 20  1  0  0  0  0
 23 22  1  0  0  0  0
 24 21  1  0  0  0  0
 24 54  1  0  0  0  0
 25 22  1  0  0  0  0
 25 55  1  0  0  0  0
 26 25  2  0  0  0  0
 27 24  2  0  0  0  0
 27 26  1  0  0  0  0
 27 56  1  0  0  0  0
 28 26  1  0  0  0  0
 29 20  2  0  0  0  0
M  END
>  <DRUGBANK_ID>
DB08009

>  <COMMON_NAME>
SU-11652

>  <CAS_NUMBER>
326914-10-7

>  <UNII>
1C7AZL970U

$$$$
