
 OpenBabel10282417072D

 58 61  0  0  1  0  0  0  0  0999 V2000
    4.1570   -0.3020    0.0000 C   0  0  0  0  0  0  0  0  0  0  0  0
    3.1971   -2.3221    0.0000 C   0  0  0  0  0  0  0  0  0  0  0  0
    3.9116   -1.9096    0.0000 C   0  0  0  0  0  0  0  0  0  0  0  0
    0.0000   -0.0000    0.0000 C   0  0  0  0  0  0  0  0  0  0  0  0
    6.2195    1.8414    0.0000 C   0  0  0  0  0  0  0  0  0  0  0  0
    6.6320    2.5559    0.0000 C   0  0  0  0  0  0  0  0  0  0  0  0
    2.5070    1.1270    0.0000 C   0  0  0  0  0  0  0  0  0  0  0  0
    0.7846   -0.2549    0.0000 C   0  0  0  0  0  0  0  0  0  0  0  0
    1.6820    1.1270    0.0000 C   0  0  0  0  0  0  0  0  0  0  0  0
    2.5840   -1.7701    0.0000 C   0  0  0  0  0  0  0  0  0  0  0  0
    3.7400   -1.1027    0.0000 C   0  0  0  0  0  0  0  0  0  0  0  0
   -0.0000    0.8250    0.0000 C   0  0  0  0  0  0  0  0  0  0  0  0
    4.9820    2.5559    0.0000 C   0  0  0  0  0  0  0  0  0  0  0  0
    4.9820    1.1270    0.0000 C   0  0  0  0  0  0  0  0  0  0  0  0
    1.6820   -0.3020    0.0000 C   0  0  0  0  0  0  0  0  0  0  0  0
    5.3945    1.8414    0.0000 C   0  0  0  0  0  0  0  0  0  0  0  0
    6.2195    3.2704    0.0000 C   0  0  0  0  0  0  0  0  0  0  0  0
    5.3945    3.2704    0.0000 C   0  0  0  0  0  0  0  0  0  0  0  0
    2.9195    0.4125    0.0000 C   0  0  1  0  0  0  0  0  0  0  0  0
    2.5070   -0.3020    0.0000 C   0  0  1  0  0  0  0  0  0  0  0  0
    4.1570    1.1270    0.0000 C   0  0  0  0  0  0  0  0  0  0  0  0
    1.2695    0.4125    0.0000 C   0  0  2  0  0  0  0  0  0  0  0  0
    6.6320    3.9849    0.0000 Cl  0  0  0  0  0  0  0  0  0  0  0  0
    4.9820    3.9849    0.0000 Cl  0  0  0  0  0  0  0  0  0  0  0  0
    3.7445    0.4125    0.0000 N   0  0  0  0  0  0  0  0  0  0  0  0
    2.9195   -1.0164    0.0000 N   0  0  0  0  0  0  0  0  0  0  0  0
    3.7445    1.8414    0.0000 O   0  0  0  0  0  0  0  0  0  0  0  0
    0.7846    1.0799    0.0000 O   0  0  0  0  0  0  0  0  0  0  0  0
    3.3320   -0.3020    0.0000 H   0  0  0  0  0  0  0  0  0  0  0  0
    2.0945   -1.0164    0.0000 H   0  0  0  0  0  0  0  0  0  0  0  0
    3.6220   -1.2286    0.0000 H   0  0  0  0  0  0  0  0  0  0  0  0
    5.2270   -0.3020    0.0000 H   0  0  0  0  0  0  0  0  0  0  0  0
    4.6920   -1.2287    0.0000 H   0  0  0  0  0  0  0  0  0  0  0  0
    3.0853   -3.3862    0.0000 H   0  0  0  0  0  0  0  0  0  0  0  0
    2.1982   -2.7056    0.0000 H   0  0  0  0  0  0  0  0  0  0  0  0
    4.8891   -2.3448    0.0000 H   0  0  0  0  0  0  0  0  0  0  0  0
    4.7431   -1.2362    0.0000 H   0  0  0  0  0  0  0  0  0  0  0  0
   -0.8656   -0.6289    0.0000 H   0  0  0  0  0  0  0  0  0  0  0  0
   -0.9534    0.4858    0.0000 H   0  0  0  0  0  0  0  0  0  0  0  0
    6.7355    0.9477    0.0000 H   0  0  0  0  0  0  0  0  0  0  0  0
    7.6640    2.5559    0.0000 H   0  0  0  0  0  0  0  0  0  0  0  0
    3.0420    2.0536    0.0000 H   0  0  0  0  0  0  0  0  0  0  0  0
    3.5770    1.1270    0.0000 H   0  0  0  0  0  0  0  0  0  0  0  0
    1.1153   -1.2725    0.0000 H   0  0  0  0  0  0  0  0  0  0  0  0
    1.8414   -0.4223    0.0000 H   0  0  0  0  0  0  0  0  0  0  0  0
    1.1470    2.0536    0.0000 H   0  0  0  0  0  0  0  0  0  0  0  0
    0.6120    1.1270    0.0000 H   0  0  0  0  0  0  0  0  0  0  0  0
    1.5374   -1.9926    0.0000 H   0  0  0  0  0  0  0  0  0  0  0  0
    1.9106   -0.9386    0.0000 H   0  0  0  0  0  0  0  0  0  0  0  0
    4.4560   -0.3075    0.0000 H   0  0  0  0  0  0  0  0  0  0  0  0
    3.3566   -0.1038    0.0000 H   0  0  0  0  0  0  0  0  0  0  0  0
   -0.8656    1.4539    0.0000 H   0  0  0  0  0  0  0  0  0  0  0  0
    0.1674    1.8818    0.0000 H   0  0  0  0  0  0  0  0  0  0  0  0
    3.9500    2.5559    0.0000 H   0  0  0  0  0  0  0  0  0  0  0  0
    5.5170    0.2003    0.0000 H   0  0  0  0  0  0  0  0  0  0  0  0
    4.4470    0.2004    0.0000 H   0  0  0  0  0  0  0  0  0  0  0  0
    1.1470   -1.2286    0.0000 H   0  0  0  0  0  0  0  0  0  0  0  0
    0.6120   -0.3020    0.0000 H   0  0  0  0  0  0  0  0  0  0  0  0
  1 31  1  0  0  0  0
  1 32  1  0  0  0  0
  1 33  1  0  0  0  0
  2 34  1  0  0  0  0
  2 35  1  0  0  0  0
  3  2  1  0  0  0  0
  3 36  1  0  0  0  0
  3 37  1  0  0  0  0
  4 38  1  0  0  0  0
  4 39  1  0  0  0  0
  5 40  1  0  0  0  0
  6  5  2  0  0  0  0
  6 41  1  0  0  0  0
  7 42  1  0  0  0  0
  7 43  1  0  0  0  0
  8  4  1  0  0  0  0
  8 44  1  0  0  0  0
  8 45  1  0  0  0  0
  9  7  1  0  0  0  0
  9 46  1  0  0  0  0
  9 47  1  0  0  0  0
 10  2  1  0  0  0  0
 10 48  1  0  0  0  0
 10 49  1  0  0  0  0
 11  3  1  0  0  0  0
 11 50  1  0  0  0  0
 11 51  1  0  0  0  0
 12  4  1  0  0  0  0
 12 52  1  0  0  0  0
 12 53  1  0  0  0  0
 13 54  1  0  0  0  0
 14 55  1  0  0  0  0
 14 56  1  0  0  0  0
 15 57  1  0  0  0  0
 15 58  1  0  0  0  0
 16  5  1  0  0  0  0
 16 13  2  0  0  0  0
 16 14  1  0  0  0  0
 17  6  1  0  0  0  0
 18 13  1  0  0  0  0
 18 17  2  0  0  0  0
 19  7  1  0  0  0  0
 19 25  1  0  0  0  0
 19 29  1  1  0  0  0
 20 15  1  0  0  0  0
 20 19  1  0  0  0  0
 20 26  1  0  0  0  0
 20 30  1  6  0  0  0
 21 14  1  0  0  0  0
 22  8  1  0  0  0  0
 22  9  1  0  0  0  0
 22 15  1  0  0  0  0
 22 28  1  1  0  0  0
 23 17  1  0  0  0  0
 24 18  1  0  0  0  0
 25  1  1  0  0  0  0
 25 21  1  0  0  0  0
 26 10  1  0  0  0  0
 26 11  1  0  0  0  0
 27 21  2  0  0  0  0
 28 12  1  0  0  0  0
M  END
>  <DRUGBANK_ID>
DB12704

>  <COMMON_NAME>
Spiradoline

>  <CAS_NUMBER>
87151-85-7

>  <UNII>
N18ZH0M4NP

>  <SYNONYMS>
Spiradoline

$$$$
