Terpinen-4-ol
 OpenBabel10282417072D
Mrv0541 01161316072D
 29 29  0  0  0  0  0  0  0  0999 V2000
    0.7145   -0.4125    0.0000 C   0  0  0  0  0  0  0  0  0  0  0  0
    0.0000    0.0000    0.0000 C   0  0  0  0  0  0  0  0  0  0  0  0
    0.0000    0.8250    0.0000 C   0  0  0  0  0  0  0  0  0  0  0  0
    0.7145    1.2375    0.0000 C   0  0  3  0  0  0  0  0  0  0  0  0
    1.4289    0.8250    0.0000 C   0  0  0  0  0  0  0  0  0  0  0  0
    1.4289    0.0000    0.0000 C   0  0  0  0  0  0  0  0  0  0  0  0
    0.3272    1.9659    0.0000 C   0  0  0  0  0  0  0  0  0  0  0  0
   -0.4973    1.9947    0.0000 C   0  0  0  0  0  0  0  0  0  0  0  0
    0.7643    2.6656    0.0000 C   0  0  0  0  0  0  0  0  0  0  0  0
    1.1018    1.9659    0.0000 O   0  0  0  0  0  0  0  0  0  0  0  0
    0.7145   -1.2375    0.0000 C   0  0  0  0  0  0  0  0  0  0  0  0
   -0.8937   -0.5160    0.0000 H   0  0  0  0  0  0  0  0  0  0  0  0
   -0.9266    1.3600    0.0000 H   0  0  0  0  0  0  0  0  0  0  0  0
    0.0000    1.8950    0.0000 H   0  0  0  0  0  0  0  0  0  0  0  0
    2.3556    1.3600    0.0000 H   0  0  0  0  0  0  0  0  0  0  0  0
    2.3555    0.2900    0.0000 H   0  0  0  0  0  0  0  0  0  0  0  0
    2.3556   -0.5350    0.0000 H   0  0  0  0  0  0  0  0  0  0  0  0
    1.4289   -1.0700    0.0000 H   0  0  0  0  0  0  0  0  0  0  0  0
   -0.1752    2.9106    0.0000 H   0  0  0  0  0  0  0  0  0  0  0  0
   -0.9996    2.9395    0.0000 H   0  0  0  0  0  0  0  0  0  0  0  0
   -1.0643    1.0873    0.0000 H   0  0  0  0  0  0  0  0  0  0  0  0
   -1.5666    2.0321    0.0000 H   0  0  0  0  0  0  0  0  0  0  0  0
    1.8337    2.6284    0.0000 H   0  0  0  0  0  0  0  0  0  0  0  0
    0.2618    3.6103    0.0000 H   0  0  0  0  0  0  0  0  0  0  0  0
    1.3312    3.5731    0.0000 H   0  0  0  0  0  0  0  0  0  0  0  0
    2.0712    1.9997    0.0000 H   0  0  0  0  0  0  0  0  0  0  0  0
   -0.2121   -1.7725    0.0000 H   0  0  0  0  0  0  0  0  0  0  0  0
    1.6411   -1.7725    0.0000 H   0  0  0  0  0  0  0  0  0  0  0  0
    0.7145   -2.3075    0.0000 H   0  0  0  0  0  0  0  0  0  0  0  0
  1  2  2  0  0  0  0
  1  6  1  0  0  0  0
  1 11  1  0  0  0  0
  2  3  1  0  0  0  0
  2 12  1  0  0  0  0
  3  4  1  0  0  0  0
  3 13  1  0  0  0  0
  3 14  1  0  0  0  0
  4  5  1  0  0  0  0
  4  7  1  0  0  0  0
  4 10  1  0  0  0  0
  5  6  1  0  0  0  0
  5 15  1  0  0  0  0
  5 16  1  0  0  0  0
  6 17  1  0  0  0  0
  6 18  1  0  0  0  0
  7  8  1  0  0  0  0
  7  9  1  0  0  0  0
  7 19  1  0  0  0  0
  8 20  1  0  0  0  0
  8 21  1  0  0  0  0
  8 22  1  0  0  0  0
  9 23  1  0  0  0  0
  9 24  1  0  0  0  0
  9 25  1  0  0  0  0
 10 26  1  0  0  0  0
 11 27  1  0  0  0  0
 11 28  1  0  0  0  0
 11 29  1  0  0  0  0
M  END
>  <DRUGBANK_ID>
DB12816

>  <COMMON_NAME>
Terpinen-4-ol

>  <CAS_NUMBER>
562-74-3

>  <UNII>
L65MV77ZG6

$$$$
