
 OpenBabel10282417072D

 83 89  0  0  0  0  0  0  0  0999 V2000
    0.3586   -2.3936    0.0000 C   0  0  1  0  0  0  0  0  0  0  0  0
    1.0731   -1.9812    0.0000 N   0  0  0  0  0  0  0  0  0  0  0  0
    0.3586   -0.7437    0.0000 C   0  0  2  0  0  0  0  0  0  0  0  0
   -0.3558   -1.1562    0.0000 C   0  0  0  0  0  0  0  0  0  0  0  0
    1.0731   -1.1562    0.0000 C   0  0  0  0  0  0  0  0  0  0  0  0
   -0.3558   -1.9812    0.0000 C   0  0  0  0  0  0  0  0  0  0  0  0
    0.0816    3.8620    0.0000 C   0  0  0  0  0  0  0  0  0  0  0  0
    0.7960    3.4493    0.0000 C   0  0  1  0  0  0  0  0  0  0  0  0
    0.7959    2.6244    0.0000 N   0  0  0  0  0  0  0  0  0  0  0  0
   -0.6329    3.4496    0.0000 N   0  0  0  0  0  0  0  0  0  0  0  0
    1.7875    0.0811    0.0000 C   0  0  0  0  0  0  0  0  0  0  0  0
   -1.4175    2.3698    0.0000 C   0  0  0  0  0  0  0  0  0  0  0  0
   -1.9024    3.0373    0.0000 C   0  0  0  0  0  0  0  0  0  0  0  0
   -1.4174    3.7046    0.0000 C   0  0  0  0  0  0  0  0  0  0  0  0
    0.2528    1.4051    0.0000 O   0  0  0  0  0  0  0  0  0  0  0  0
    0.0817    4.6869    0.0000 O   0  0  0  0  0  0  0  0  0  0  0  0
    1.4088    2.0721    0.0000 C   0  0  0  0  0  0  0  0  0  0  0  0
    2.2158    2.2437    0.0000 O   0  0  0  0  0  0  0  0  0  0  0  0
    1.0732    1.3187    0.0000 C   0  0  1  0  0  0  0  0  0  0  0  0
    1.5104    3.8617    0.0000 C   0  0  0  0  0  0  0  0  0  0  0  0
    2.2252    5.0991    0.0000 C   0  0  0  0  0  0  0  0  0  0  0  0
    1.5106    4.6867    0.0000 C   0  0  0  0  0  0  0  0  0  0  0  0
    0.7963    5.0993    0.0000 C   0  0  0  0  0  0  0  0  0  0  0  0
    2.5020    1.3185    0.0000 C   0  0  0  0  0  0  0  0  0  0  0  0
    1.7875    0.9061    0.0000 C   0  0  0  0  0  0  0  0  0  0  0  0
    1.7875   -2.3936    0.0000 C   0  0  0  0  0  0  0  0  0  0  0  0
   -1.0406   -3.2042    0.0000 C   0  0  0  0  0  0  0  0  0  0  0  0
   -1.0702   -2.3935    0.0000 C   0  0  0  0  0  0  0  0  0  0  0  0
   -1.6932   -3.6804    0.0000 C   0  0  0  0  0  0  0  0  0  0  0  0
   -1.8163   -2.0299    0.0000 C   0  0  0  0  0  0  0  0  0  0  0  0
    0.3642   -3.2196    0.0000 C   0  0  0  0  0  0  0  0  0  0  0  0
   -2.4396   -3.3172    0.0000 C   0  0  0  0  0  0  0  0  0  0  0  0
   -2.5020   -2.4915    0.0000 C   0  0  0  0  0  0  0  0  0  0  0  0
   -0.3528   -3.6348    0.0000 C   0  0  0  0  0  0  0  0  0  0  0  0
   -0.5837   -4.4328    0.0000 C   0  0  0  0  0  0  0  0  0  0  0  0
   -0.0975   -5.0993    0.0000 Br  0  0  0  0  0  0  0  0  0  0  0  0
   -1.4110   -4.4604    0.0000 N   0  0  0  0  0  0  0  0  0  0  0  0
    1.0730   -2.8060    0.0000 H   0  0  0  0  0  0  0  0  0  0  0  0
    0.3586    0.0812    0.0000 C   0  0  0  0  0  0  0  0  0  0  0  0
    1.0731    0.4937    0.0000 N   0  0  0  0  0  0  0  0  0  0  0  0
   -0.3557    0.4937    0.0000 O   0  0  0  0  0  0  0  0  0  0  0  0
   -0.6330    2.6246    0.0000 C   0  0  1  0  0  0  0  0  0  0  0  0
   -0.6330    1.7996    0.0000 H   0  0  0  0  0  0  0  0  0  0  0  0
    0.0813    2.2120    0.0000 C   0  0  1  0  0  0  0  0  0  0  0  0
    0.0814    3.0370    0.0000 O   0  0  0  0  0  0  0  0  0  0  0  0
   -0.5681   -0.2087    0.0000 H   0  0  0  0  0  0  0  0  0  0  0  0
   -1.2495   -0.6402    0.0000 H   0  0  0  0  0  0  0  0  0  0  0  0
    1.9997   -0.6212    0.0000 H   0  0  0  0  0  0  0  0  0  0  0  0
    1.9997   -1.6912    0.0000 H   0  0  0  0  0  0  0  0  0  0  0  0
    0.7962    4.5193    0.0000 H   0  0  0  0  0  0  0  0  0  0  0  0
    0.8609   -0.4539    0.0000 H   0  0  0  0  0  0  0  0  0  0  0  0
    2.7141   -0.4539    0.0000 H   0  0  0  0  0  0  0  0  0  0  0  0
    1.7875   -0.9889    0.0000 H   0  0  0  0  0  0  0  0  0  0  0  0
   -1.7482    1.3522    0.0000 H   0  0  0  0  0  0  0  0  0  0  0  0
   -2.4743    2.2025    0.0000 H   0  0  0  0  0  0  0  0  0  0  0  0
   -2.9724    3.0374    0.0000 H   0  0  0  0  0  0  0  0  0  0  0  0
   -2.3880    3.9907    0.0000 H   0  0  0  0  0  0  0  0  0  0  0  0
   -1.7479    4.7223    0.0000 H   0  0  0  0  0  0  0  0  0  0  0  0
   -2.4742    3.8722    0.0000 H   0  0  0  0  0  0  0  0  0  0  0  0
    2.4370    3.3266    0.0000 H   0  0  0  0  0  0  0  0  0  0  0  0
    2.4372    4.3965    0.0000 H   0  0  0  0  0  0  0  0  0  0  0  0
    3.1517    4.5639    0.0000 H   0  0  0  0  0  0  0  0  0  0  0  0
    2.2254    6.1691    0.0000 H   0  0  0  0  0  0  0  0  0  0  0  0
    3.1519    5.6339    0.0000 H   0  0  0  0  0  0  0  0  0  0  0  0
    1.5108    5.7567    0.0000 H   0  0  0  0  0  0  0  0  0  0  0  0
    0.7965    6.1693    0.0000 H   0  0  0  0  0  0  0  0  0  0  0  0
   -0.1305    4.5645    0.0000 H   0  0  0  0  0  0  0  0  0  0  0  0
   -0.1302    5.6345    0.0000 H   0  0  0  0  0  0  0  0  0  0  0  0
    3.4286    0.7834    0.0000 H   0  0  0  0  0  0  0  0  0  0  0  0
    2.5021    2.3885    0.0000 H   0  0  0  0  0  0  0  0  0  0  0  0
    3.4287    1.8534    0.0000 H   0  0  0  0  0  0  0  0  0  0  0  0
    1.7877    1.9761    0.0000 H   0  0  0  0  0  0  0  0  0  0  0  0
    1.7876   -3.4636    0.0000 H   0  0  0  0  0  0  0  0  0  0  0  0
    2.7141   -1.8585    0.0000 H   0  0  0  0  0  0  0  0  0  0  0  0
    2.7142   -2.9285    0.0000 H   0  0  0  0  0  0  0  0  0  0  0  0
   -1.8880   -1.0004    0.0000 H   0  0  0  0  0  0  0  0  0  0  0  0
    1.2930   -3.7509    0.0000 H   0  0  0  0  0  0  0  0  0  0  0  0
    0.3671   -4.2896    0.0000 H   0  0  0  0  0  0  0  0  0  0  0  0
   -3.2933   -3.8971    0.0000 H   0  0  0  0  0  0  0  0  0  0  0  0
   -3.4306   -2.0413    0.0000 H   0  0  0  0  0  0  0  0  0  0  0  0
   -1.9629   -5.2756    0.0000 H   0  0  0  0  0  0  0  0  0  0  0  0
    1.9257    0.0014    0.0000 H   0  0  0  0  0  0  0  0  0  0  0  0
    0.9215    3.5219    0.0000 H   0  0  0  0  0  0  0  0  0  0  0  0
  1 31  1  0  0  0  0
  1 38  1  1  0  0  0
  1  2  1  0  0  0  0
  2 26  1  0  0  0  0
  2  5  1  0  0  0  0
  3 39  1  0  0  0  0
  3  4  1  0  0  0  0
  3  5  1  0  0  0  0
  3 46  1  6  0  0  0
  4 47  1  0  0  0  0
  5 48  1  0  0  0  0
  5 49  1  0  0  0  0
  6  1  1  0  0  0  0
  6  4  2  0  0  0  0
  6 28  1  0  0  0  0
  7 16  2  0  0  0  0
  7 10  1  0  0  0  0
  8  7  1  0  0  0  0
  8 20  1  0  0  0  0
  8 50  1  1  0  0  0
  9  8  1  0  0  0  0
  9 17  1  0  0  0  0
 10 14  1  0  0  0  0
 10 42  1  0  0  0  0
 11 25  1  0  0  0  0
 11 51  1  0  0  0  0
 11 52  1  0  0  0  0
 11 53  1  0  0  0  0
 12 13  1  0  0  0  0
 12 54  1  0  0  0  0
 12 55  1  0  0  0  0
 13 14  1  0  0  0  0
 13 56  1  0  0  0  0
 13 57  1  0  0  0  0
 14 58  1  0  0  0  0
 14 59  1  0  0  0  0
 17 18  2  0  0  0  0
 19 15  1  0  0  0  0
 19 17  1  0  0  0  0
 19 25  1  1  0  0  0
 19 40  1  0  0  0  0
 20 22  1  0  0  0  0
 20 60  1  0  0  0  0
 20 61  1  0  0  0  0
 21 62  1  0  0  0  0
 21 63  1  0  0  0  0
 21 64  1  0  0  0  0
 22 21  1  0  0  0  0
 22 23  1  0  0  0  0
 22 65  1  0  0  0  0
 23 66  1  0  0  0  0
 23 67  1  0  0  0  0
 23 68  1  0  0  0  0
 24 69  1  0  0  0  0
 24 70  1  0  0  0  0
 24 71  1  0  0  0  0
 25 24  1  0  0  0  0
 25 72  1  0  0  0  0
 26 73  1  0  0  0  0
 26 74  1  0  0  0  0
 26 75  1  0  0  0  0
 27 28  2  0  0  0  0
 27 34  1  0  0  0  0
 27 29  1  0  0  0  0
 28 30  1  0  0  0  0
 29 37  1  0  0  0  0
 29 32  2  0  0  0  0
 30 33  2  0  0  0  0
 30 76  1  0  0  0  0
 31 77  1  0  0  0  0
 31 78  1  0  0  0  0
 32 33  1  0  0  0  0
 32 79  1  0  0  0  0
 33 80  1  0  0  0  0
 34 31  1  0  0  0  0
 34 35  2  0  0  0  0
 35 37  1  0  0  0  0
 35 36  1  0  0  0  0
 37 81  1  0  0  0  0
 39 41  2  0  0  0  0
 39 40  1  0  0  0  0
 40 82  1  0  0  0  0
 42 12  1  0  0  0  0
 42 44  1  0  0  0  0
 42 43  1  1  0  0  0
 44  9  1  0  0  0  0
 44 15  1  0  0  0  0
 44 45  1  6  0  0  0
 45 83  1  0  0  0  0
M  END
>  <DRUGBANK_ID>
DB01200

>  <SECONDARY_ACCESSION_NUMBERS>
APRD00622

>  <COMMON_NAME>
Bromocriptine

>  <CAS_NUMBER>
25614-03-3

>  <UNII>
3A64E3G5ZO

>  <SYNONYMS>
2-Bromo-alpha-ergocryptine; 2-Bromo-alpha-ergokryptin; 2-Bromo-alpha-ergokryptine; 2-bromo-α-ergocryptine; 2-bromo-α-ergokryptin; 2-bromo-α-ergokryptine; Bromocriptina; Bromocriptine; Bromocriptinum; Bromocryptine; Bromoergocriptine; Bromoergocryptine

$$$$
