
 OpenBabel10282417072D

 37 38  0  0  0  0  0  0  0  0999 V2000
    0.7528   -2.2082    0.0000 P   0  0  1  0  0  0  0  0  0  0  0  0
    2.0583   -2.7893    0.0000 P   0  0  0  0  0  0  0  0  0  0  0  0
   -2.3472   -1.6270    0.0000 F   0  0  0  0  0  0  0  0  0  0  0  0
   -0.7824   -0.1749    0.0000 O   0  0  0  0  0  0  0  0  0  0  0  0
    0.2680   -1.5407    0.0000 O   0  0  0  0  0  0  0  0  0  0  0  0
   -2.8787    1.1349    0.0000 O   0  0  0  0  0  0  0  0  0  0  0  0
    1.2378   -2.8756    0.0000 O   0  0  0  0  0  0  0  0  0  0  0  0
    1.4203   -1.7233    0.0000 O   0  0  0  0  0  0  0  0  0  0  0  0
    0.0854   -2.6930    0.0000 O   0  0  0  0  0  0  0  0  0  0  0  0
   -1.4498    3.6098    0.0000 O   0  0  0  0  0  0  0  0  0  0  0  0
    2.1445   -3.6098    0.0000 O   0  0  0  0  0  0  0  0  0  0  0  0
    2.8787   -2.7031    0.0000 O   0  0  0  0  0  0  0  0  0  0  0  0
    1.9720   -1.9689    0.0000 O   0  0  0  0  0  0  0  0  0  0  0  0
   -1.4498    1.1349    0.0000 N   0  0  0  0  0  0  0  0  0  0  0  0
   -2.1643    2.3724    0.0000 N   0  0  0  0  0  0  0  0  0  0  0  0
   -1.0373   -0.9595    0.0000 C   0  0  1  0  0  0  0  0  0  0  0  0
   -1.8623   -0.9595    0.0000 C   0  0  2  0  0  0  0  0  0  0  0  0
   -1.4498    0.3099    0.0000 C   0  0  1  0  0  0  0  0  0  0  0  0
   -2.1173   -0.1749    0.0000 C   0  0  0  0  0  0  0  0  0  0  0  0
   -0.5524   -1.6270    0.0000 C   0  0  0  0  0  0  0  0  0  0  0  0
   -2.1643    1.5474    0.0000 C   0  0  0  0  0  0  0  0  0  0  0  0
   -0.7353    1.5474    0.0000 C   0  0  0  0  0  0  0  0  0  0  0  0
   -0.7353    2.3724    0.0000 C   0  0  0  0  0  0  0  0  0  0  0  0
   -1.4498    2.7849    0.0000 C   0  0  0  0  0  0  0  0  0  0  0  0
   -1.5627   -1.5476    0.0000 H   0  0  0  0  0  0  0  0  0  0  0  0
   -2.6072    2.6281    0.0000 H   0  0  0  0  0  0  0  0  0  0  0  0
    2.3064   -2.1179    0.0000 H   0  0  0  0  0  0  0  0  0  0  0  0
    1.3597   -4.1799    0.0000 H   0  0  0  0  0  0  0  0  0  0  0  0
    3.4488   -3.4879    0.0000 H   0  0  0  0  0  0  0  0  0  0  0  0
    0.0195   -0.7921    0.0000 H   0  0  0  0  0  0  0  0  0  0  0  0
   -0.4964    0.7957    0.0000 H   0  0  0  0  0  0  0  0  0  0  0  0
   -3.1349    0.1558    0.0000 H   0  0  0  0  0  0  0  0  0  0  0  0
   -2.2846    0.8819    0.0000 H   0  0  0  0  0  0  0  0  0  0  0  0
   -0.9876   -2.6045    0.0000 H   0  0  0  0  0  0  0  0  0  0  0  0
   -1.6165   -1.7388    0.0000 H   0  0  0  0  0  0  0  0  0  0  0  0
    0.1584    1.0314    0.0000 H   0  0  0  0  0  0  0  0  0  0  0  0
    0.1584    2.8884    0.0000 H   0  0  0  0  0  0  0  0  0  0  0  0
  1  5  1  0  0  0  0
  1  7  1  0  0  0  0
  1  8  1  0  0  0  0
  1  9  2  1  0  0  0
  2  7  1  0  0  0  0
  2 11  1  0  0  0  0
  2 12  1  0  0  0  0
  2 13  2  0  0  0  0
  3 17  1  0  0  0  0
  4 16  1  0  0  0  0
  4 18  1  0  0  0  0
  5 20  1  0  0  0  0
  6 21  2  0  0  0  0
  8 27  1  0  0  0  0
 10 24  2  0  0  0  0
 11 28  1  0  0  0  0
 12 29  1  0  0  0  0
 14 21  1  0  0  0  0
 14 22  1  0  0  0  0
 15 21  1  0  0  0  0
 15 24  1  0  0  0  0
 15 26  1  0  0  0  0
 16 17  1  0  0  0  0
 16 20  1  0  0  0  0
 16 30  1  1  0  0  0
 17 19  1  0  0  0  0
 17 25  1  6  0  0  0
 18 14  1  0  0  0  0
 18 19  1  0  0  0  0
 18 31  1  1  0  0  0
 19 32  1  0  0  0  0
 19 33  1  0  0  0  0
 20 34  1  0  0  0  0
 20 35  1  0  0  0  0
 22 23  2  0  0  0  0
 22 36  1  0  0  0  0
 23 24  1  0  0  0  0
 23 37  1  0  0  0  0
M  END
>  <DRUGBANK_ID>
DB04068

>  <SECONDARY_ACCESSION_NUMBERS>
EXPT01512

>  <COMMON_NAME>
2',3'-dideoxy-3'-fluoro-urididine-5'-diphosphate

>  <SYNONYMS>
FUDP

$$$$
