VX3
 OpenBabel10282417072D

 39 42  0  0  0  0  0  0  0  0999 V2000
    2.6872    2.4682    0.0000 O   0  0  0  0  0  0  0  0  0  0  0  0
    0.4736   -0.2617    0.0000 C   0  0  0  0  0  0  0  0  0  0  0  0
   -0.8432   -2.0025    0.0000 C   0  0  0  0  0  0  0  0  0  0  0  0
    1.9727    2.0557    0.0000 C   0  0  0  0  0  0  0  0  0  0  0  0
    1.2583    2.4682    0.0000 O   0  0  0  0  0  0  0  0  0  0  0  0
    1.9727    1.2307    0.0000 C   0  0  0  0  0  0  0  0  0  0  0  0
    1.2583    0.8182    0.0000 C   0  0  0  0  0  0  0  0  0  0  0  0
    0.4736    1.0731    0.0000 N   0  0  0  0  0  0  0  0  0  0  0  0
   -0.0113    0.4057    0.0000 C   0  0  0  0  0  0  0  0  0  0  0  0
   -0.8363    0.4057    0.0000 C   0  0  0  0  0  0  0  0  0  0  0  0
   -1.2488    1.1202    0.0000 C   0  0  0  0  0  0  0  0  0  0  0  0
   -2.0738    1.1202    0.0000 C   0  0  0  0  0  0  0  0  0  0  0  0
   -2.4863    0.4057    0.0000 C   0  0  0  0  0  0  0  0  0  0  0  0
   -2.0738   -0.3088    0.0000 C   0  0  0  0  0  0  0  0  0  0  0  0
   -1.2488   -0.3088    0.0000 C   0  0  0  0  0  0  0  0  0  0  0  0
    0.2187   -1.0464    0.0000 C   0  0  0  0  0  0  0  0  0  0  0  0
   -0.5883   -1.2179    0.0000 C   0  0  0  0  0  0  0  0  0  0  0  0
   -0.2912   -2.6156    0.0000 C   0  0  0  0  0  0  0  0  0  0  0  0
    0.5158   -2.4441    0.0000 C   0  0  0  0  0  0  0  0  0  0  0  0
    0.7707   -1.6595    0.0000 C   0  0  0  0  0  0  0  0  0  0  0  0
    1.2583   -0.0068    0.0000 C   0  0  0  0  0  0  0  0  0  0  0  0
    1.9727   -0.4193    0.0000 C   0  0  0  0  0  0  0  0  0  0  0  0
    2.6872   -0.0068    0.0000 C   0  0  0  0  0  0  0  0  0  0  0  0
    2.6872    0.8182    0.0000 C   0  0  0  0  0  0  0  0  0  0  0  0
   -1.8526   -2.2171    0.0000 H   0  0  0  0  0  0  0  0  0  0  0  0
    1.2583    3.4052    0.0000 H   0  0  0  0  0  0  0  0  0  0  0  0
    0.1693    2.0094    0.0000 H   0  0  0  0  0  0  0  0  0  0  0  0
   -0.7328    2.0139    0.0000 H   0  0  0  0  0  0  0  0  0  0  0  0
   -2.5898    2.0139    0.0000 H   0  0  0  0  0  0  0  0  0  0  0  0
   -3.5183    0.4057    0.0000 H   0  0  0  0  0  0  0  0  0  0  0  0
   -2.5898   -1.2025    0.0000 H   0  0  0  0  0  0  0  0  0  0  0  0
   -0.7328   -1.2025    0.0000 H   0  0  0  0  0  0  0  0  0  0  0  0
   -1.2788   -0.4510    0.0000 H   0  0  0  0  0  0  0  0  0  0  0  0
   -0.6101   -3.5971    0.0000 H   0  0  0  0  0  0  0  0  0  0  0  0
    1.2063   -3.2110    0.0000 H   0  0  0  0  0  0  0  0  0  0  0  0
    1.7801   -1.4449    0.0000 H   0  0  0  0  0  0  0  0  0  0  0  0
    1.9727   -1.4513    0.0000 H   0  0  0  0  0  0  0  0  0  0  0  0
    3.5809   -0.5228    0.0000 H   0  0  0  0  0  0  0  0  0  0  0  0
    3.5809    1.3342    0.0000 H   0  0  0  0  0  0  0  0  0  0  0  0
  1  4  2  0  0  0  0
  2 21  1  0  0  0  0
  3 17  1  0  0  0  0
  3 25  1  0  0  0  0
  4  5  1  0  0  0  0
  5 26  1  0  0  0  0
  6  4  1  0  0  0  0
  6 24  2  0  0  0  0
  7  6  1  0  0  0  0
  8  7  1  0  0  0  0
  8 27  1  0  0  0  0
  9  2  2  0  0  0  0
  9  8  1  0  0  0  0
 10  9  1  0  0  0  0
 11 10  2  0  0  0  0
 11 28  1  0  0  0  0
 12 11  1  0  0  0  0
 12 29  1  0  0  0  0
 13 12  2  0  0  0  0
 13 14  1  0  0  0  0
 13 30  1  0  0  0  0
 14 15  2  0  0  0  0
 14 31  1  0  0  0  0
 15 10  1  0  0  0  0
 15 32  1  0  0  0  0
 16  2  1  0  0  0  0
 16 17  2  0  0  0  0
 17 33  1  0  0  0  0
 18  3  2  0  0  0  0
 18 34  1  0  0  0  0
 19 18  1  0  0  0  0
 19 20  2  0  0  0  0
 19 35  1  0  0  0  0
 20 16  1  0  0  0  0
 20 36  1  0  0  0  0
 21  7  2  0  0  0  0
 21 22  1  0  0  0  0
 22 23  2  0  0  0  0
 22 37  1  0  0  0  0
 23 24  1  0  0  0  0
 23 38  1  0  0  0  0
 24 39  1  0  0  0  0
M  END
>  <DRUGBANK_ID>
DB08709

>  <COMMON_NAME>
2,3-diphenyl-1H-indole-7-carboxylic acid

>  <UNII>
5BFF2LV9EF

$$$$
