
 OpenBabel10282417072D

 12 11  0  0  0  0  0  0  0  0999 V2000
   -1.0716   -0.1509    0.0000 C   0  0  0  0  0  0  0  0  0  0  0  0
   -0.3571   -0.5634    0.0000 C   0  0  0  0  0  0  0  0  0  0  0  0
    0.3572   -0.1509    0.0000 S   0  0  0  0  0  0  0  0  0  0  0  0
    1.0716   -0.5634    0.0000 O   0  0  0  0  0  0  0  0  0  0  0  0
    0.7697    0.5634    0.0000 O   0  0  0  0  0  0  0  0  0  0  0  0
   -0.0552    0.5634    0.0000 O   0  0  0  0  0  0  0  0  0  0  0  0
   -1.0716    0.9191    0.0000 H   0  0  0  0  0  0  0  0  0  0  0  0
   -1.9982   -0.6859    0.0000 H   0  0  0  0  0  0  0  0  0  0  0  0
   -1.9983    0.3841    0.0000 H   0  0  0  0  0  0  0  0  0  0  0  0
   -0.3570   -1.6334    0.0000 H   0  0  0  0  0  0  0  0  0  0  0  0
    0.5696   -1.0983    0.0000 H   0  0  0  0  0  0  0  0  0  0  0  0
    1.0716   -1.5334    0.0000 H   0  0  0  0  0  0  0  0  0  0  0  0
  1  2  1  0  0  0  0
  1  7  1  0  0  0  0
  1  8  1  0  0  0  0
  1  9  1  0  0  0  0
  2  3  1  0  0  0  0
  2 10  1  0  0  0  0
  2 11  1  0  0  0  0
  3  4  1  0  0  0  0
  4 12  1  0  0  0  0
  5  3  2  0  0  0  0
  6  3  2  0  0  0  0
M  END
>  <DRUGBANK_ID>
DB03635

>  <SECONDARY_ACCESSION_NUMBERS>
EXPT01359

>  <COMMON_NAME>
Ethanesulfonic acid

>  <CAS_NUMBER>
594-45-6

>  <UNII>
599310E3U2

>  <SYNONYMS>
1-ethanesulfonic acid; 2-ethanesulfonic acid; Ethane sulphonic acid; Ethanesulphonic acid; Ethylsulfonic acid; Ethylsulphonic acid

$$$$
