
 OpenBabel10282417072D

 26 27  0  0  0  0  0  0  0  0999 V2000
   -2.2557   -1.2646    0.0000 O   0  0  0  0  0  0  0  0  0  0  0  0
   -1.5411   -0.8522    0.0000 C   0  0  0  0  0  0  0  0  0  0  0  0
   -0.8266   -1.2646    0.0000 O   0  0  0  0  0  0  0  0  0  0  0  0
   -1.5411   -0.0271    0.0000 C   0  0  1  0  0  0  0  0  0  0  0  0
   -2.2557    0.3853    0.0000 N   0  0  0  0  0  0  0  0  0  0  0  0
   -0.8266    0.3853    0.0000 C   0  0  0  0  0  0  0  0  0  0  0  0
   -0.1121   -0.0271    0.0000 C   0  0  0  0  0  0  0  0  0  0  0  0
   -0.0258   -0.8476    0.0000 C   0  0  0  0  0  0  0  0  0  0  0  0
    0.7811   -1.0192    0.0000 N   0  0  0  0  0  0  0  0  0  0  0  0
    1.1936   -0.3046    0.0000 C   0  0  0  0  0  0  0  0  0  0  0  0
    0.6416    0.3084    0.0000 C   0  0  0  0  0  0  0  0  0  0  0  0
    0.8965    1.0930    0.0000 C   0  0  0  0  0  0  0  0  0  0  0  0
    1.7036    1.2646    0.0000 C   0  0  0  0  0  0  0  0  0  0  0  0
    2.2557    0.6516    0.0000 C   0  0  0  0  0  0  0  0  0  0  0  0
    2.0007   -0.1331    0.0000 N   0  0  0  0  0  0  0  0  0  0  0  0
   -3.0671   -0.7960    0.0000 H   0  0  0  0  0  0  0  0  0  0  0  0
   -0.6145   -0.5622    0.0000 H   0  0  0  0  0  0  0  0  0  0  0  0
   -2.2559    1.4053    0.0000 H   0  0  0  0  0  0  0  0  0  0  0  0
   -3.1390   -0.1249    0.0000 H   0  0  0  0  0  0  0  0  0  0  0  0
   -0.8266    1.4553    0.0000 H   0  0  0  0  0  0  0  0  0  0  0  0
    0.1000    0.9204    0.0000 H   0  0  0  0  0  0  0  0  0  0  0  0
   -0.7927   -1.5381    0.0000 H   0  0  0  0  0  0  0  0  0  0  0  0
    1.1815   -1.9186    0.0000 H   0  0  0  0  0  0  0  0  0  0  0  0
    0.2059    1.8599    0.0000 H   0  0  0  0  0  0  0  0  0  0  0  0
    2.0224    2.2461    0.0000 H   0  0  0  0  0  0  0  0  0  0  0  0
    3.2651    0.8662    0.0000 H   0  0  0  0  0  0  0  0  0  0  0  0
  1 16  1  0  0  0  0
  2  1  1  0  0  0  0
  2  3  2  0  0  0  0
  4  2  1  0  0  0  0
  4  5  1  0  0  0  0
  4  6  1  0  0  0  0
  4 17  1  6  0  0  0
  5 18  1  0  0  0  0
  5 19  1  0  0  0  0
  6  7  1  0  0  0  0
  6 20  1  0  0  0  0
  6 21  1  0  0  0  0
  7  8  2  0  0  0  0
  7 11  1  0  0  0  0
  8  9  1  0  0  0  0
  8 22  1  0  0  0  0
  9 23  1  0  0  0  0
 10  9  1  0  0  0  0
 10 15  2  0  0  0  0
 11 10  1  0  0  0  0
 11 12  2  0  0  0  0
 12 13  1  0  0  0  0
 12 24  1  0  0  0  0
 13 14  2  0  0  0  0
 13 25  1  0  0  0  0
 14 26  1  0  0  0  0
 15 14  1  0  0  0  0
M  END
>  <DRUGBANK_ID>
DB04206

>  <SECONDARY_ACCESSION_NUMBERS>
EXPT03111

>  <COMMON_NAME>
7-Aza-L-tryptophan

>  <CAS_NUMBER>
49758-35-2

>  <UNII>
72B59WRT3H

>  <SYNONYMS>
L-7-azatryptophan

$$$$
