
 OpenBabel10282417072D

 33 33  0  0  0  0  0  0  0  0999 V2000
   -1.7861   -2.2687    0.0000 C   0  0  0  0  0  0  0  0  0  0  0  0
   -1.7861   -1.4437    0.0000 C   0  0  0  0  0  0  0  0  0  0  0  0
   -2.5006   -1.0312    0.0000 O   0  0  0  0  0  0  0  0  0  0  0  0
   -1.0716   -1.0312    0.0000 N   0  0  0  0  0  0  0  0  0  0  0  0
   -1.0716   -0.2062    0.0000 C   0  0  0  0  0  0  0  0  0  0  0  0
   -1.7861    0.2062    0.0000 C   0  0  0  0  0  0  0  0  0  0  0  0
   -2.5006   -0.2062    0.0000 I   0  0  0  0  0  0  0  0  0  0  0  0
   -1.7861    1.0312    0.0000 C   0  0  0  0  0  0  0  0  0  0  0  0
   -2.5006    1.4437    0.0000 C   0  0  0  0  0  0  0  0  0  0  0  0
   -2.5006    2.2687    0.0000 O   0  0  0  0  0  0  0  0  0  0  0  0
   -3.2151    1.0312    0.0000 O   0  0  0  0  0  0  0  0  0  0  0  0
   -1.0716    1.4437    0.0000 C   0  0  0  0  0  0  0  0  0  0  0  0
   -1.0716    2.2687    0.0000 I   0  0  0  0  0  0  0  0  0  0  0  0
   -0.3572    1.0312    0.0000 C   0  0  0  0  0  0  0  0  0  0  0  0
    0.3572    1.4437    0.0000 C   0  0  0  0  0  0  0  0  0  0  0  0
    0.3572    2.2687    0.0000 O   0  0  0  0  0  0  0  0  0  0  0  0
    1.0716    1.0312    0.0000 N   0  0  0  0  0  0  0  0  0  0  0  0
    1.7862    1.4437    0.0000 C   0  0  0  0  0  0  0  0  0  0  0  0
    2.5006    1.0312    0.0000 C   0  0  0  0  0  0  0  0  0  0  0  0
    3.2151    1.4437    0.0000 O   0  0  0  0  0  0  0  0  0  0  0  0
   -0.3572    0.2062    0.0000 C   0  0  0  0  0  0  0  0  0  0  0  0
    0.3572   -0.2062    0.0000 I   0  0  0  0  0  0  0  0  0  0  0  0
   -2.7127   -2.8037    0.0000 H   0  0  0  0  0  0  0  0  0  0  0  0
   -0.8595   -2.8037    0.0000 H   0  0  0  0  0  0  0  0  0  0  0  0
   -1.7861   -3.3387    0.0000 H   0  0  0  0  0  0  0  0  0  0  0  0
   -0.2190   -1.5235    0.0000 H   0  0  0  0  0  0  0  0  0  0  0  0
   -1.6891    2.7372    0.0000 H   0  0  0  0  0  0  0  0  0  0  0  0
    1.0715    0.0467    0.0000 H   0  0  0  0  0  0  0  0  0  0  0  0
    1.7863    2.5137    0.0000 H   0  0  0  0  0  0  0  0  0  0  0  0
    2.7129    1.9787    0.0000 H   0  0  0  0  0  0  0  0  0  0  0  0
    2.5006   -0.0388    0.0000 H   0  0  0  0  0  0  0  0  0  0  0  0
    3.4272    0.4962    0.0000 H   0  0  0  0  0  0  0  0  0  0  0  0
    4.0551    0.9587    0.0000 H   0  0  0  0  0  0  0  0  0  0  0  0
  1  2  1  0  0  0  0
  1 23  1  0  0  0  0
  1 24  1  0  0  0  0
  1 25  1  0  0  0  0
  2  3  2  0  0  0  0
  2  4  1  0  0  0  0
  4  5  1  0  0  0  0
  4 26  1  0  0  0  0
  5  6  2  0  0  0  0
  5 21  1  0  0  0  0
  6  7  1  0  0  0  0
  6  8  1  0  0  0  0
  8  9  1  0  0  0  0
  8 12  2  0  0  0  0
  9 10  1  0  0  0  0
  9 11  2  0  0  0  0
 10 27  1  0  0  0  0
 12 13  1  0  0  0  0
 12 14  1  0  0  0  0
 14 15  1  0  0  0  0
 14 21  2  0  0  0  0
 15 16  2  0  0  0  0
 15 17  1  0  0  0  0
 17 18  1  0  0  0  0
 17 28  1  0  0  0  0
 18 19  1  0  0  0  0
 18 29  1  0  0  0  0
 18 30  1  0  0  0  0
 19 20  1  0  0  0  0
 19 31  1  0  0  0  0
 19 32  1  0  0  0  0
 20 33  1  0  0  0  0
 21 22  1  0  0  0  0
M  END
>  <DRUGBANK_ID>
DB13444

>  <COMMON_NAME>
Ioxitalamic acid

>  <CAS_NUMBER>
28179-44-4

>  <UNII>
967RDI7Z6K

>  <SYNONYMS>
Acide ioxitalamique; Acido ioxitalamico; Acidum ioxitalamicum; Ioxitalamic acid

$$$$
