
 OpenBabel10282417072D

 48 50  0  0  1  0  0  0  0  0999 V2000
    1.4289    9.6536    0.0000 C   0  0  0  0  0  0  0  0  0  0  0  0
    1.4289   10.4786    0.0000 C   0  0  0  0  0  0  0  0  0  0  0  0
    2.1434   10.8911    0.0000 C   0  0  0  0  0  0  0  0  0  0  0  0
    2.8579   10.4786    0.0000 C   0  0  0  0  0  0  0  0  0  0  0  0
    2.8579    9.6536    0.0000 C   0  0  0  0  0  0  0  0  0  0  0  0
    2.1434    9.2411    0.0000 C   0  0  0  0  0  0  0  0  0  0  0  0
    2.1434    8.4161    0.0000 C   0  0  0  0  0  0  0  0  0  0  0  0
    2.8579    8.0036    0.0000 C   0  0  0  0  0  0  0  0  0  0  0  0
    2.8579    7.1786    0.0000 C   0  0  0  0  0  0  0  0  0  0  0  0
    2.1434    6.7661    0.0000 C   0  0  0  0  0  0  0  0  0  0  0  0
    1.4289    7.1786    0.0000 C   0  0  0  0  0  0  0  0  0  0  0  0
    1.4289    8.0036    0.0000 C   0  0  0  0  0  0  0  0  0  0  0  0
    2.1434    5.9411    0.0000 O   0  0  0  0  0  0  0  0  0  0  0  0
    1.4289    5.5286    0.0000 C   0  0  0  0  0  0  0  0  0  0  0  0
    1.4289    4.7036    0.0000 C   0  0  2  0  0  0  0  0  0  0  0  0
    2.0964    4.2187    0.0000 C   0  0  0  0  0  0  0  0  0  0  0  0
    1.8414    3.4340    0.0000 C   0  0  2  0  0  0  0  0  0  0  0  0
    1.0164    3.4340    0.0000 C   0  0  0  0  0  0  0  0  0  0  0  0
    0.5315    2.7666    0.0000 O   0  0  0  0  0  0  0  0  0  0  0  0
    0.7615    4.2187    0.0000 N   0  0  0  0  0  0  0  0  0  0  0  0
    2.3264    2.7666    0.0000 C   0  0  0  0  0  0  0  0  0  0  0  0
    1.9908    2.0129    0.0000 C   0  0  0  0  0  0  0  0  0  0  0  0
    2.4757    1.3455    0.0000 O   0  0  0  0  0  0  0  0  0  0  0  0
    1.1703    1.9267    0.0000 O   0  0  0  0  0  0  0  0  0  0  0  0
    2.1434   11.7161    0.0000 C   0  0  0  0  0  0  0  0  0  0  0  0
    1.4289   12.1286    0.0000 N   0  0  0  0  0  0  0  0  0  0  0  0
    2.8579   12.1286    0.0000 N   0  0  0  0  0  0  0  0  0  0  0  0
    0.5352    9.1376    0.0000 H   0  0  0  0  0  0  0  0  0  0  0  0
    0.5352   10.9946    0.0000 H   0  0  0  0  0  0  0  0  0  0  0  0
    3.7516   10.9946    0.0000 H   0  0  0  0  0  0  0  0  0  0  0  0
    3.7516    9.1376    0.0000 H   0  0  0  0  0  0  0  0  0  0  0  0
    3.7516    8.5196    0.0000 H   0  0  0  0  0  0  0  0  0  0  0  0
    3.7516    6.6626    0.0000 H   0  0  0  0  0  0  0  0  0  0  0  0
    0.5352    6.6626    0.0000 H   0  0  0  0  0  0  0  0  0  0  0  0
    0.5352    8.5196    0.0000 H   0  0  0  0  0  0  0  0  0  0  0  0
    0.5023    6.0636    0.0000 H   0  0  0  0  0  0  0  0  0  0  0  0
    0.5023    4.9936    0.0000 H   0  0  0  0  0  0  0  0  0  0  0  0
    2.3823    5.1894    0.0000 H   0  0  0  0  0  0  0  0  0  0  0  0
    3.1140    4.5494    0.0000 H   0  0  0  0  0  0  0  0  0  0  0  0
    2.8530    3.4621    0.0000 H   0  0  0  0  0  0  0  0  0  0  0  0
    2.8982    3.6014    0.0000 H   0  0  0  0  0  0  0  0  0  0  0  0
   -0.1748    4.5230    0.0000 H   0  0  0  0  0  0  0  0  0  0  0  0
    3.3905    2.8785    0.0000 H   0  0  0  0  0  0  0  0  0  0  0  0
    2.9553    1.9010    0.0000 H   0  0  0  0  0  0  0  0  0  0  0  0
    0.6196    2.6848    0.0000 H   0  0  0  0  0  0  0  0  0  0  0  0
    1.4289   13.1131    0.0000 H   0  0  0  0  0  0  0  0  0  0  0  0
    3.7105   11.6363    0.0000 H   0  0  0  0  0  0  0  0  0  0  0  0
    2.8579   13.1131    0.0000 H   0  0  0  0  0  0  0  0  0  0  0  0
  1  2  2  0  0  0  0
  1  6  1  0  0  0  0
  1 28  1  0  0  0  0
  2  3  1  0  0  0  0
  2 29  1  0  0  0  0
  3  4  2  0  0  0  0
  3 25  1  0  0  0  0
  4  5  1  0  0  0  0
  4 30  1  0  0  0  0
  5  6  2  0  0  0  0
  5 31  1  0  0  0  0
  6  7  1  0  0  0  0
  7  8  2  0  0  0  0
  7 12  1  0  0  0  0
  8  9  1  0  0  0  0
  8 32  1  0  0  0  0
  9 10  2  0  0  0  0
  9 33  1  0  0  0  0
 10 11  1  0  0  0  0
 10 13  1  0  0  0  0
 11 12  2  0  0  0  0
 11 34  1  0  0  0  0
 12 35  1  0  0  0  0
 13 14  1  0  0  0  0
 14 36  1  0  0  0  0
 14 37  1  0  0  0  0
 15 14  1  0  0  0  0
 15 16  1  0  0  0  0
 15 20  1  0  0  0  0
 15 38  1  1  0  0  0
 16 17  1  0  0  0  0
 16 39  1  0  0  0  0
 16 40  1  0  0  0  0
 17 18  1  0  0  0  0
 17 21  1  0  0  0  0
 17 41  1  6  0  0  0
 18 19  2  0  0  0  0
 18 20  1  0  0  0  0
 20 42  1  0  0  0  0
 21 22  1  0  0  0  0
 21 43  1  0  0  0  0
 21 44  1  0  0  0  0
 22 23  2  0  0  0  0
 22 24  1  0  0  0  0
 24 45  1  0  0  0  0
 25 26  2  0  0  0  0
 25 27  1  0  0  0  0
 26 46  1  0  0  0  0
 27 47  1  0  0  0  0
 27 48  1  0  0  0  0
M  END
>  <DRUGBANK_ID>
DB06472

>  <COMMON_NAME>
Fradafiban

>  <CAS_NUMBER>
148396-36-5

>  <UNII>
DQ0H2B8YKN

>  <SYNONYMS>
Fradafiban

$$$$
