
 OpenBabel10282417072D

 22 18  0  0  0  0  0  0  0  0999 V2000
    1.1007    0.1503    0.0000 C   0  0  0  0  0  0  0  0  0  0  0  0
   -1.0668    1.4645    0.0000 C   0  0  0  0  0  0  0  0  0  0  0  0
   -1.1250   -1.0668    0.0000 C   0  0  0  0  0  0  0  0  0  0  0  0
    0.3879    0.5771    0.0000 O   0  5  0  0  0  0  0  0  0  0  0  0
   -0.3976   -0.6644    0.0000 O   0  5  0  0  0  0  0  0  0  0  0  0
   -1.0862    0.6449    0.0000 O   0  5  0  0  0  0  0  0  0  0  0  0
    1.0813   -0.6789    0.0000 O   0  0  0  0  0  0  0  0  0  0  0  0
   -0.3394    1.8669    0.0000 O   0  0  0  0  0  0  0  0  0  0  0  0
   -1.8233   -0.6449    0.0000 O   0  0  0  0  0  0  0  0  0  0  0  0
   -0.5430    0.1261    0.0000 Al  0  1  0  0  0  0  0  0  0  0  0  0
    1.8233    0.5479    0.0000 C   0  0  0  0  0  0  0  0  0  0  0  0
   -1.1444   -1.8960    0.0000 C   0  0  0  0  0  0  0  0  0  0  0  0
   -1.7699    1.8960    0.0000 C   0  0  0  0  0  0  0  0  0  0  0  0
    2.7387   -0.0061    0.0000 H   0  0  0  0  0  0  0  0  0  0  0  0
    1.8453    1.6177    0.0000 H   0  0  0  0  0  0  0  0  0  0  0  0
    2.7608    1.0637    0.0000 H   0  0  0  0  0  0  0  0  0  0  0  0
   -2.0833   -2.4092    0.0000 H   0  0  0  0  0  0  0  0  0  0  0  0
   -0.2305   -2.4525    0.0000 H   0  0  0  0  0  0  0  0  0  0  0  0
   -1.1694   -2.9657    0.0000 H   0  0  0  0  0  0  0  0  0  0  0  0
   -1.7412    2.9656    0.0000 H   0  0  0  0  0  0  0  0  0  0  0  0
   -2.7106    1.3861    0.0000 H   0  0  0  0  0  0  0  0  0  0  0  0
   -2.6819    2.4557    0.0000 H   0  0  0  0  0  0  0  0  0  0  0  0
  4  1  1  0  0  0  0
  5  3  1  0  0  0  0
  6  2  1  0  0  0  0
  7  1  2  0  0  0  0
  8  2  2  0  0  0  0
  9  3  2  0  0  0  0
 11  1  1  0  0  0  0
 11 14  1  0  0  0  0
 11 15  1  0  0  0  0
 11 16  1  0  0  0  0
 12  3  1  0  0  0  0
 12 17  1  0  0  0  0
 12 18  1  0  0  0  0
 12 19  1  0  0  0  0
 13  2  1  0  0  0  0
 13 20  1  0  0  0  0
 13 21  1  0  0  0  0
 13 22  1  0  0  0  0
M  CHG  4   4  -1   5  -1   6  -1  10   3
M  END
>  <DRUGBANK_ID>
DB14518

>  <SECONDARY_ACCESSION_NUMBERS>
DBSALT001466

>  <COMMON_NAME>
Aluminum acetate

>  <CAS_NUMBER>
139-12-8

>  <UNII>
80EHD8I43D

>  <SYNONYMS>
Aluminum acetate

$$$$
