
 OpenBabel10282417072D

 82 86  0  0  0  0  0  0  0  0999 V2000
   -1.1624    3.4358    0.0000 C   0  0  0  0  0  0  0  0  0  0  0  0
   -1.2486    2.6153    0.0000 C   0  0  0  0  0  0  0  0  0  0  0  0
   -0.5812    2.1304    0.0000 C   0  0  0  0  0  0  0  0  0  0  0  0
   -0.6674    1.3099    0.0000 C   0  0  0  0  0  0  0  0  0  0  0  0
    0.0000    0.8250    0.0000 C   0  0  0  0  0  0  0  0  0  0  0  0
    0.7846    1.0799    0.0000 N   0  0  0  0  0  0  0  0  0  0  0  0
    1.2695    0.4125    0.0000 C   0  0  0  0  0  0  0  0  0  0  0  0
    1.7545    1.0799    0.0000 C   0  0  0  0  0  0  0  0  0  0  0  0
    2.5391    0.8250    0.0000 C   0  0  0  0  0  0  0  0  0  0  0  0
    2.5391    0.0000    0.0000 C   0  0  0  0  0  0  0  0  0  0  0  0
    1.7545   -0.2549    0.0000 C   0  0  0  0  0  0  0  0  0  0  0  0
    0.7846   -0.2549    0.0000 C   0  0  0  0  0  0  0  0  0  0  0  0
    1.0396   -1.0396    0.0000 O   0  0  0  0  0  0  0  0  0  0  0  0
   -0.0000    0.0000    0.0000 N   0  0  0  0  0  0  0  0  0  0  0  0
   -0.6674   -0.4849    0.0000 C   0  0  0  0  0  0  0  0  0  0  0  0
   -0.5812   -1.3054    0.0000 C   0  0  0  0  0  0  0  0  0  0  0  0
    0.1725   -1.6410    0.0000 C   0  0  0  0  0  0  0  0  0  0  0  0
    0.2587   -2.4614    0.0000 C   0  0  0  0  0  0  0  0  0  0  0  0
   -0.4087   -2.9464    0.0000 C   0  0  0  0  0  0  0  0  0  0  0  0
   -1.1624   -2.6108    0.0000 C   0  0  0  0  0  0  0  0  0  0  0  0
   -1.2486   -1.7903    0.0000 C   0  0  0  0  0  0  0  0  0  0  0  0
   -1.8298   -3.0957    0.0000 C   0  0  0  0  0  0  0  0  0  0  0  0
   -2.5835   -2.7602    0.0000 O   0  0  0  0  0  0  0  0  0  0  0  0
   -3.2510   -3.2451    0.0000 C   0  0  0  0  0  0  0  0  0  0  0  0
   -4.0046   -2.9095    0.0000 C   0  0  0  0  0  0  0  0  0  0  0  0
   -0.3225   -3.7668    0.0000 C   0  0  0  0  0  0  0  0  0  0  0  0
   -0.9899   -4.2518    0.0000 C   0  0  0  0  0  0  0  0  0  0  0  0
   -0.9037   -5.0722    0.0000 C   0  0  0  0  0  0  0  0  0  0  0  0
   -0.1500   -5.4078    0.0000 C   0  0  0  0  0  0  0  0  0  0  0  0
    0.5174   -4.9229    0.0000 C   0  0  0  0  0  0  0  0  0  0  0  0
    0.4312   -4.1024    0.0000 C   0  0  0  0  0  0  0  0  0  0  0  0
    1.0986   -3.6175    0.0000 S   0  0  0  0  0  0  0  0  0  0  0  0
    1.7661   -3.1326    0.0000 O   0  0  0  0  0  0  0  0  0  0  0  0
    0.6137   -2.9500    0.0000 O   0  0  0  0  0  0  0  0  0  0  0  0
    1.5835   -4.2849    0.0000 N   0  0  0  0  0  0  0  0  0  0  0  0
    2.4040   -4.1987    0.0000 C   0  0  0  0  0  0  0  0  0  0  0  0
    2.9561   -4.8118    0.0000 C   0  0  0  0  0  0  0  0  0  0  0  0
    3.7097   -4.4762    0.0000 C   0  0  0  0  0  0  0  0  0  0  0  0
    3.6235   -3.6557    0.0000 O   0  0  0  0  0  0  0  0  0  0  0  0
    2.8165   -3.4842    0.0000 N   0  0  0  0  0  0  0  0  0  0  0  0
    4.4242   -4.8887    0.0000 C   0  0  0  0  0  0  0  0  0  0  0  0
    2.7845   -5.6187    0.0000 C   0  0  0  0  0  0  0  0  0  0  0  0
   -0.1849    3.8711    0.0000 H   0  0  0  0  0  0  0  0  0  0  0  0
   -2.0281    4.0647    0.0000 H   0  0  0  0  0  0  0  0  0  0  0  0
   -1.0506    4.4999    0.0000 H   0  0  0  0  0  0  0  0  0  0  0  0
   -2.2261    2.1801    0.0000 H   0  0  0  0  0  0  0  0  0  0  0  0
   -1.3604    1.5512    0.0000 H   0  0  0  0  0  0  0  0  0  0  0  0
    0.3963    2.5656    0.0000 H   0  0  0  0  0  0  0  0  0  0  0  0
    0.2845    1.5015    0.0000 H   0  0  0  0  0  0  0  0  0  0  0  0
   -1.6449    0.8747    0.0000 H   0  0  0  0  0  0  0  0  0  0  0  0
   -0.7792    0.2458    0.0000 H   0  0  0  0  0  0  0  0  0  0  0  0
    1.4239    2.0975    0.0000 H   0  0  0  0  0  0  0  0  0  0  0  0
    2.5111    1.8365    0.0000 H   0  0  0  0  0  0  0  0  0  0  0  0
    3.4047    1.4539    0.0000 H   0  0  0  0  0  0  0  0  0  0  0  0
    3.4925    0.3392    0.0000 H   0  0  0  0  0  0  0  0  0  0  0  0
    3.4047   -0.6289    0.0000 H   0  0  0  0  0  0  0  0  0  0  0  0
    2.3717   -1.0568    0.0000 H   0  0  0  0  0  0  0  0  0  0  0  0
    1.4239   -1.2725    0.0000 H   0  0  0  0  0  0  0  0  0  0  0  0
    0.6977   -0.4224    0.0000 H   0  0  0  0  0  0  0  0  0  0  0  0
   -1.6449   -0.0497    0.0000 H   0  0  0  0  0  0  0  0  0  0  0  0
   -1.5331   -1.1138    0.0000 H   0  0  0  0  0  0  0  0  0  0  0  0
    1.0074   -1.0344    0.0000 H   0  0  0  0  0  0  0  0  0  0  0  0
    1.2015   -2.8811    0.0000 H   0  0  0  0  0  0  0  0  0  0  0  0
   -2.1914   -1.3705    0.0000 H   0  0  0  0  0  0  0  0  0  0  0  0
   -1.7179   -4.1598    0.0000 H   0  0  0  0  0  0  0  0  0  0  0  0
   -2.6954   -3.7247    0.0000 H   0  0  0  0  0  0  0  0  0  0  0  0
   -3.1392   -4.3092    0.0000 H   0  0  0  0  0  0  0  0  0  0  0  0
   -4.1167   -3.8740    0.0000 H   0  0  0  0  0  0  0  0  0  0  0  0
   -4.1164   -1.8454    0.0000 H   0  0  0  0  0  0  0  0  0  0  0  0
   -4.8703   -3.5384    0.0000 H   0  0  0  0  0  0  0  0  0  0  0  0
   -4.9821   -2.4742    0.0000 H   0  0  0  0  0  0  0  0  0  0  0  0
   -1.9327   -3.8321    0.0000 H   0  0  0  0  0  0  0  0  0  0  0  0
   -1.7386   -5.6788    0.0000 H   0  0  0  0  0  0  0  0  0  0  0  0
   -0.0421   -6.4341    0.0000 H   0  0  0  0  0  0  0  0  0  0  0  0
    1.4602   -5.3427    0.0000 H   0  0  0  0  0  0  0  0  0  0  0  0
    1.1830   -5.1843    0.0000 H   0  0  0  0  0  0  0  0  0  0  0  0
    4.4242   -5.9587    0.0000 H   0  0  0  0  0  0  0  0  0  0  0  0
    5.3508   -4.3537    0.0000 H   0  0  0  0  0  0  0  0  0  0  0  0
    5.3509   -5.4237    0.0000 H   0  0  0  0  0  0  0  0  0  0  0  0
    1.7668   -5.9492    0.0000 H   0  0  0  0  0  0  0  0  0  0  0  0
    3.5796   -6.3348    0.0000 H   0  0  0  0  0  0  0  0  0  0  0  0
    2.5619   -6.6653    0.0000 H   0  0  0  0  0  0  0  0  0  0  0  0
  1  2  1  0  0  0  0
  1 43  1  0  0  0  0
  1 44  1  0  0  0  0
  1 45  1  0  0  0  0
  2  3  1  0  0  0  0
  2 46  1  0  0  0  0
  2 47  1  0  0  0  0
  3  4  1  0  0  0  0
  3 48  1  0  0  0  0
  3 49  1  0  0  0  0
  4  5  1  0  0  0  0
  4 50  1  0  0  0  0
  4 51  1  0  0  0  0
  5  6  2  0  0  0  0
  5 14  1  0  0  0  0
  6  7  1  0  0  0  0
  7  8  1  0  0  0  0
  7 11  1  0  0  0  0
  7 12  1  0  0  0  0
  8  9  1  0  0  0  0
  8 52  1  0  0  0  0
  8 53  1  0  0  0  0
  9 10  1  0  0  0  0
  9 54  1  0  0  0  0
  9 55  1  0  0  0  0
 10 11  1  0  0  0  0
 10 56  1  0  0  0  0
 10 57  1  0  0  0  0
 11 58  1  0  0  0  0
 11 59  1  0  0  0  0
 12 13  2  0  0  0  0
 12 14  1  0  0  0  0
 14 15  1  0  0  0  0
 15 16  1  0  0  0  0
 15 60  1  0  0  0  0
 15 61  1  0  0  0  0
 16 17  2  0  0  0  0
 16 21  1  0  0  0  0
 17 18  1  0  0  0  0
 17 62  1  0  0  0  0
 18 19  2  0  0  0  0
 18 63  1  0  0  0  0
 19 20  1  0  0  0  0
 19 26  1  0  0  0  0
 20 21  2  0  0  0  0
 20 22  1  0  0  0  0
 21 64  1  0  0  0  0
 22 23  1  0  0  0  0
 22 65  1  0  0  0  0
 22 66  1  0  0  0  0
 23 24  1  0  0  0  0
 24 25  1  0  0  0  0
 24 67  1  0  0  0  0
 24 68  1  0  0  0  0
 25 69  1  0  0  0  0
 25 70  1  0  0  0  0
 25 71  1  0  0  0  0
 26 27  2  0  0  0  0
 26 31  1  0  0  0  0
 27 28  1  0  0  0  0
 27 72  1  0  0  0  0
 28 29  2  0  0  0  0
 28 73  1  0  0  0  0
 29 30  1  0  0  0  0
 29 74  1  0  0  0  0
 30 31  2  0  0  0  0
 30 75  1  0  0  0  0
 31 32  1  0  0  0  0
 32 33  2  0  0  0  0
 32 34  2  0  0  0  0
 32 35  1  0  0  0  0
 35 36  1  0  0  0  0
 35 76  1  0  0  0  0
 36 37  1  0  0  0  0
 36 40  2  0  0  0  0
 37 38  2  0  0  0  0
 37 42  1  0  0  0  0
 38 39  1  0  0  0  0
 38 41  1  0  0  0  0
 39 40  1  0  0  0  0
 41 77  1  0  0  0  0
 41 78  1  0  0  0  0
 41 79  1  0  0  0  0
 42 80  1  0  0  0  0
 42 81  1  0  0  0  0
 42 82  1  0  0  0  0
M  END
>  <DRUGBANK_ID>
DB12548

>  <SECONDARY_ACCESSION_NUMBERS>
DB05206

>  <COMMON_NAME>
Sparsentan

>  <CAS_NUMBER>
254740-64-2

>  <UNII>
9242RO5URM

>  <SYNONYMS>
Sparsentan

$$$$
