NTH
 OpenBabel10282417072D

 57 60  0  0  0  0  0  0  0  0999 V2000
   -0.2020    2.1906    0.0000 C   0  0  0  0  0  0  0  0  0  0  0  0
   -0.4569    2.9752    0.0000 C   0  0  0  0  0  0  0  0  0  0  0  0
   -1.2639    3.1467    0.0000 C   0  0  0  0  0  0  0  0  0  0  0  0
   -1.5188    3.9313    0.0000 O   0  0  0  0  0  0  0  0  0  0  0  0
   -1.8159    2.5336    0.0000 C   0  0  0  0  0  0  0  0  0  0  0  0
   -1.5610    1.7490    0.0000 C   0  0  0  0  0  0  0  0  0  0  0  0
   -2.1130    1.1359    0.0000 C   0  0  0  0  0  0  0  0  0  0  0  0
   -1.8581    0.3513    0.0000 C   0  0  0  0  0  0  0  0  0  0  0  0
   -1.0511    0.1798    0.0000 C   0  0  2  0  0  0  0  0  0  0  0  0
   -0.4991    0.7929    0.0000 C   0  0  1  0  0  0  0  0  0  0  0  0
   -0.7540    1.5775    0.0000 C   0  0  1  0  0  0  0  0  0  0  0  0
    0.3079    0.6213    0.0000 C   0  0  0  0  0  0  0  0  0  0  0  0
    0.5628   -0.1633    0.0000 C   0  0  0  0  0  0  0  0  0  0  0  0
    0.0108   -0.7764    0.0000 C   0  0  1  0  0  0  0  0  0  0  0  0
   -0.7962   -0.6049    0.0000 C   0  0  1  0  0  0  0  0  0  0  0  0
   -1.2087   -1.3193    0.0000 C   0  0  0  0  0  0  0  0  0  0  0  0
   -0.6566   -1.9324    0.0000 C   0  0  0  0  0  0  0  0  0  0  0  0
    0.0970   -1.5969    0.0000 C   0  0  1  0  0  0  0  0  0  0  0  0
    0.8115   -2.0094    0.0000 O   0  0  0  0  0  0  0  0  0  0  0  0
    0.7954   -1.0313    0.0000 C   0  0  0  0  0  0  0  0  0  0  0  0
    1.5260   -1.5969    0.0000 C   0  0  0  0  0  0  0  0  0  0  0  0
    1.5260   -0.7719    0.0000 O   0  0  0  0  0  0  0  0  0  0  0  0
    2.9549   -1.5969    0.0000 C   0  0  0  0  0  0  0  0  0  0  0  0
    2.2404   -2.0094    0.0000 C   0  0  0  0  0  0  0  0  0  0  0  0
    3.6694   -2.0094    0.0000 C   0  0  0  0  0  0  0  0  0  0  0  0
    4.3839   -1.5969    0.0000 O   0  0  0  0  0  0  0  0  0  0  0  0
    3.6694   -2.8344    0.0000 O   0  0  0  0  0  0  0  0  0  0  0  0
   -1.4418   -0.2542    0.0000 H   0  0  0  0  0  0  0  0  0  0  0  0
   -0.2803    1.3343    0.0000 H   0  0  0  0  0  0  0  0  0  0  0  0
   -0.1758    1.6587    0.0000 H   0  0  0  0  0  0  0  0  0  0  0  0
   -1.3769   -0.5438    0.0000 H   0  0  0  0  0  0  0  0  0  0  0  0
    0.5868   -1.2788    0.0000 H   0  0  0  0  0  0  0  0  0  0  0  0
    0.8446    1.9681    0.0000 H   0  0  0  0  0  0  0  0  0  0  0  0
    0.1287    1.1730    0.0000 H   0  0  0  0  0  0  0  0  0  0  0  0
    0.2591    3.7704    0.0000 H   0  0  0  0  0  0  0  0  0  0  0  0
   -0.7876    3.9928    0.0000 H   0  0  0  0  0  0  0  0  0  0  0  0
   -2.8253    2.7482    0.0000 H   0  0  0  0  0  0  0  0  0  0  0  0
   -3.1596    1.3584    0.0000 H   0  0  0  0  0  0  0  0  0  0  0  0
   -2.8290    0.3407    0.0000 H   0  0  0  0  0  0  0  0  0  0  0  0
   -2.5741   -0.4439    0.0000 H   0  0  0  0  0  0  0  0  0  0  0  0
   -1.5274   -0.6663    0.0000 H   0  0  0  0  0  0  0  0  0  0  0  0
    1.0239    1.4164    0.0000 H   0  0  0  0  0  0  0  0  0  0  0  0
    1.3545    0.3988    0.0000 H   0  0  0  0  0  0  0  0  0  0  0  0
    1.6094   -0.3858    0.0000 H   0  0  0  0  0  0  0  0  0  0  0  0
    0.8935   -1.1809    0.0000 H   0  0  0  0  0  0  0  0  0  0  0  0
   -2.2728   -1.4312    0.0000 H   0  0  0  0  0  0  0  0  0  0  0  0
   -1.5921   -2.3182    0.0000 H   0  0  0  0  0  0  0  0  0  0  0  0
   -0.8791   -2.9790    0.0000 H   0  0  0  0  0  0  0  0  0  0  0  0
    0.1749   -2.6058    0.0000 H   0  0  0  0  0  0  0  0  0  0  0  0
    1.0179   -2.0779    0.0000 H   0  0  0  0  0  0  0  0  0  0  0  0
    1.5905   -0.3153    0.0000 H   0  0  0  0  0  0  0  0  0  0  0  0
    1.8130   -1.3619    0.0000 H   0  0  0  0  0  0  0  0  0  0  0  0
    2.9549   -0.5269    0.0000 H   0  0  0  0  0  0  0  0  0  0  0  0
    3.8815   -1.0619    0.0000 H   0  0  0  0  0  0  0  0  0  0  0  0
    2.2404   -3.0794    0.0000 H   0  0  0  0  0  0  0  0  0  0  0  0
    3.1670   -2.5444    0.0000 H   0  0  0  0  0  0  0  0  0  0  0  0
    2.8579   -3.3029    0.0000 H   0  0  0  0  0  0  0  0  0  0  0  0
  1  2  1  0  0  0  0
  1 11  1  0  0  0  0
  1 33  1  0  0  0  0
  1 34  1  0  0  0  0
  2  3  1  0  0  0  0
  2 35  1  0  0  0  0
  2 36  1  0  0  0  0
  3  4  2  0  0  0  0
  3  5  1  0  0  0  0
  5  6  2  0  0  0  0
  5 37  1  0  0  0  0
  6  7  1  0  0  0  0
  6 11  1  0  0  0  0
  7  8  1  0  0  0  0
  7 38  1  0  0  0  0
  7 39  1  0  0  0  0
  8  9  1  0  0  0  0
  8 40  1  0  0  0  0
  8 41  1  0  0  0  0
  9 10  1  0  0  0  0
  9 15  1  0  0  0  0
  9 28  1  1  0  0  0
 10 11  1  0  0  0  0
 10 12  1  0  0  0  0
 10 29  1  6  0  0  0
 11 30  1  1  0  0  0
 12 13  1  0  0  0  0
 12 42  1  0  0  0  0
 12 43  1  0  0  0  0
 13 14  1  0  0  0  0
 13 44  1  0  0  0  0
 13 45  1  0  0  0  0
 14 15  1  0  0  0  0
 14 18  1  0  0  0  0
 14 20  1  1  0  0  0
 15 16  1  0  0  0  0
 15 31  1  6  0  0  0
 16 17  1  0  0  0  0
 16 46  1  0  0  0  0
 16 47  1  0  0  0  0
 17 18  1  0  0  0  0
 17 48  1  0  0  0  0
 17 49  1  0  0  0  0
 18 19  1  0  0  0  0
 18 32  1  1  0  0  0
 19 21  1  0  0  0  0
 20 50  1  0  0  0  0
 20 51  1  0  0  0  0
 20 52  1  0  0  0  0
 21 22  2  0  0  0  0
 21 24  1  0  0  0  0
 23 24  1  0  0  0  0
 23 25  1  0  0  0  0
 23 53  1  0  0  0  0
 23 54  1  0  0  0  0
 24 55  1  0  0  0  0
 24 56  1  0  0  0  0
 25 26  2  0  0  0  0
 25 27  1  0  0  0  0
 27 57  1  0  0  0  0
M  END
>  <DRUGBANK_ID>
DB08308

>  <COMMON_NAME>
SUCCINIC ACID MONO-(13-METHYL-3-OXO-2,3,6,7,8,9,10,11,12,13,14,15,16,17-TETRADECAHYDRO-1H-CYCLOPENTA[A]PHENANTHREN-17-YL) ESTER

$$$$
