
 OpenBabel10282417072D

 41 44  0  0  1  0  0  0  0  0999 V2000
    1.1387   -4.2695    0.0000 O   0  0  0  0  0  0  0  0  0  0  0  0
    0.8838   -3.4849    0.0000 C   0  0  2  0  0  0  0  0  0  0  0  0
    0.0992   -3.2299    0.0000 C   0  0  0  0  0  0  0  0  0  0  0  0
    0.0992   -2.4049    0.0000 S   0  0  0  0  0  0  0  0  0  0  0  0
    0.8838   -2.1500    0.0000 C   0  0  2  0  0  0  0  0  0  0  0  0
    1.3687   -2.8174    0.0000 C   0  0  2  0  0  0  0  0  0  0  0  0
    2.1937   -2.8174    0.0000 O   0  0  0  0  0  0  0  0  0  0  0  0
    1.1387   -1.3654    0.0000 N   0  0  0  0  0  0  0  0  0  0  0  0
    0.6538   -0.6979    0.0000 C   0  0  0  0  0  0  0  0  0  0  0  0
    1.1387   -0.0305    0.0000 N   0  0  0  0  0  0  0  0  0  0  0  0
    1.9233   -0.2854    0.0000 C   0  0  0  0  0  0  0  0  0  0  0  0
    2.6378    0.1271    0.0000 C   0  0  0  0  0  0  0  0  0  0  0  0
    2.6378    0.9521    0.0000 N   0  0  0  0  0  0  0  0  0  0  0  0
    1.9233    1.3646    0.0000 C   0  0  0  0  0  0  0  0  0  0  0  0
    1.9233    2.1896    0.0000 C   0  0  0  0  0  0  0  0  0  0  0  0
    1.2089    2.6021    0.0000 C   0  0  0  0  0  0  0  0  0  0  0  0
    1.2089    3.4271    0.0000 C   0  0  0  0  0  0  0  0  0  0  0  0
    1.9233    3.8396    0.0000 C   0  0  0  0  0  0  0  0  0  0  0  0
    2.6378    3.4271    0.0000 C   0  0  0  0  0  0  0  0  0  0  0  0
    3.3523    3.8396    0.0000 Cl  0  0  0  0  0  0  0  0  0  0  0  0
    2.6378    2.6021    0.0000 C   0  0  0  0  0  0  0  0  0  0  0  0
    3.3523   -0.2854    0.0000 N   0  0  0  0  0  0  0  0  0  0  0  0
    3.3523   -1.1104    0.0000 C   0  0  0  0  0  0  0  0  0  0  0  0
    4.0668   -1.5229    0.0000 Cl  0  0  0  0  0  0  0  0  0  0  0  0
    2.6378   -1.5229    0.0000 N   0  0  0  0  0  0  0  0  0  0  0  0
    1.9233   -1.1104    0.0000 C   0  0  0  0  0  0  0  0  0  0  0  0
    0.4896   -4.9903    0.0000 H   0  0  0  0  0  0  0  0  0  0  0  0
    0.1272   -4.2415    0.0000 H   0  0  0  0  0  0  0  0  0  0  0  0
   -0.7665   -3.8588    0.0000 H   0  0  0  0  0  0  0  0  0  0  0  0
   -0.8542   -2.7441    0.0000 H   0  0  0  0  0  0  0  0  0  0  0  0
    0.1272   -1.3934    0.0000 H   0  0  0  0  0  0  0  0  0  0  0  0
    1.8545   -1.8640    0.0000 H   0  0  0  0  0  0  0  0  0  0  0  0
    2.6787   -3.6574    0.0000 H   0  0  0  0  0  0  0  0  0  0  0  0
   -0.3782   -0.6979    0.0000 H   0  0  0  0  0  0  0  0  0  0  0  0
    3.4904    1.4444    0.0000 H   0  0  0  0  0  0  0  0  0  0  0  0
    0.9967    0.8296    0.0000 H   0  0  0  0  0  0  0  0  0  0  0  0
    0.9967    1.8996    0.0000 H   0  0  0  0  0  0  0  0  0  0  0  0
    0.3152    2.0861    0.0000 H   0  0  0  0  0  0  0  0  0  0  0  0
    0.3152    3.9431    0.0000 H   0  0  0  0  0  0  0  0  0  0  0  0
    1.9233    4.8716    0.0000 H   0  0  0  0  0  0  0  0  0  0  0  0
    3.5315    2.0861    0.0000 H   0  0  0  0  0  0  0  0  0  0  0  0
  1 27  1  0  0  0  0
  2  1  1  0  0  0  0
  2  3  1  0  0  0  0
  2 28  1  1  0  0  0
  3  4  1  0  0  0  0
  3 29  1  0  0  0  0
  3 30  1  0  0  0  0
  5  4  1  0  0  0  0
  5  8  1  0  0  0  0
  5 31  1  6  0  0  0
  6  5  1  0  0  0  0
  6  2  1  0  0  0  0
  6  7  1  0  0  0  0
  6 32  1  1  0  0  0
  7 33  1  0  0  0  0
  8  9  1  0  0  0  0
  8 26  1  0  0  0  0
  9 10  2  0  0  0  0
  9 34  1  0  0  0  0
 10 11  1  0  0  0  0
 11 12  2  0  0  0  0
 11 26  1  0  0  0  0
 12 13  1  0  0  0  0
 12 22  1  0  0  0  0
 13 14  1  0  0  0  0
 13 35  1  0  0  0  0
 14 15  1  0  0  0  0
 14 36  1  0  0  0  0
 14 37  1  0  0  0  0
 15 16  2  0  0  0  0
 15 21  1  0  0  0  0
 16 17  1  0  0  0  0
 16 38  1  0  0  0  0
 17 18  2  0  0  0  0
 17 39  1  0  0  0  0
 18 19  1  0  0  0  0
 18 40  1  0  0  0  0
 19 20  1  0  0  0  0
 19 21  2  0  0  0  0
 21 41  1  0  0  0  0
 22 23  2  0  0  0  0
 23 24  1  0  0  0  0
 23 25  1  0  0  0  0
 25 26  2  0  0  0  0
M  END
>  <DRUGBANK_ID>
DB18018

>  <COMMON_NAME>
LJ-2698

>  <CAS_NUMBER>
945457-84-1

>  <UNII>
L4A6E7Q76T

>  <SYNONYMS>
(2r,3r,4s)-2-(2-chloro-6-(3-chlorobenzylamino)-9h-purin-9-yl)tetrahydrothiophene-3,4-diol; 3,4-thiophenediol, 2-(2-chloro-6-(((3-chlorophenyl)methyl)amino)-9h-purin-9-yl)tetrahydro-, (2r,3r,4s)-

$$$$
