VGI
 OpenBabel10282417072D

 41 44  0  0  0  0  0  0  0  0999 V2000
   -0.9145   -2.2804    0.0000 C   0  0  0  0  0  0  0  0  0  0  0  0
   -1.6290   -2.6929    0.0000 C   0  0  0  0  0  0  0  0  0  0  0  0
   -1.6290   -3.5179    0.0000 Br  0  0  0  0  0  0  0  0  0  0  0  0
   -2.3434   -2.2804    0.0000 C   0  0  0  0  0  0  0  0  0  0  0  0
   -2.3434   -1.4554    0.0000 C   0  0  0  0  0  0  0  0  0  0  0  0
   -1.6290   -1.0429    0.0000 C   0  0  0  0  0  0  0  0  0  0  0  0
   -0.9145   -1.4554    0.0000 C   0  0  0  0  0  0  0  0  0  0  0  0
   -0.2000   -1.0429    0.0000 N   0  0  0  0  0  0  0  0  0  0  0  0
   -0.2000   -0.2179    0.0000 C   0  0  0  0  0  0  0  0  0  0  0  0
   -0.9145    0.1946    0.0000 O   0  0  0  0  0  0  0  0  0  0  0  0
    0.5145   -1.4554    0.0000 C   0  0  0  0  0  0  0  0  0  0  0  0
    0.5145   -2.2804    0.0000 O   0  0  0  0  0  0  0  0  0  0  0  0
    1.2289   -1.0429    0.0000 C   0  0  0  0  0  0  0  0  0  0  0  0
    1.9434   -1.4554    0.0000 C   0  0  0  0  0  0  0  0  0  0  0  0
    2.6579   -1.0429    0.0000 C   0  0  0  0  0  0  0  0  0  0  0  0
    2.6579   -0.2179    0.0000 C   0  0  0  0  0  0  0  0  0  0  0  0
    1.9434    0.1946    0.0000 C   0  0  0  0  0  0  0  0  0  0  0  0
    1.2289   -0.2179    0.0000 C   0  0  0  0  0  0  0  0  0  0  0  0
    0.5145    0.1946    0.0000 C   0  0  0  0  0  0  0  0  0  0  0  0
    0.5145    1.0196    0.0000 C   0  0  0  0  0  0  0  0  0  0  0  0
    1.2289    1.4321    0.0000 C   0  0  0  0  0  0  0  0  0  0  0  0
    1.9434    1.0196    0.0000 C   0  0  0  0  0  0  0  0  0  0  0  0
    2.6579    1.4321    0.0000 N   0  0  0  0  0  0  0  0  0  0  0  0
    2.6579    2.2571    0.0000 C   0  0  0  0  0  0  0  0  0  0  0  0
    3.3723    2.6696    0.0000 C   0  0  0  0  0  0  0  0  0  0  0  0
    3.3723    3.4946    0.0000 O   0  0  0  0  0  0  0  0  0  0  0  0
   -0.0208   -2.7964    0.0000 H   0  0  0  0  0  0  0  0  0  0  0  0
   -3.2371   -2.7964    0.0000 H   0  0  0  0  0  0  0  0  0  0  0  0
   -3.2371   -0.9394    0.0000 H   0  0  0  0  0  0  0  0  0  0  0  0
   -1.6290   -0.0109    0.0000 H   0  0  0  0  0  0  0  0  0  0  0  0
    1.9434   -2.4874    0.0000 H   0  0  0  0  0  0  0  0  0  0  0  0
    3.5516   -1.5589    0.0000 H   0  0  0  0  0  0  0  0  0  0  0  0
    3.5516    0.2981    0.0000 H   0  0  0  0  0  0  0  0  0  0  0  0
   -0.3792    1.5356    0.0000 H   0  0  0  0  0  0  0  0  0  0  0  0
    1.2289    2.4641    0.0000 H   0  0  0  0  0  0  0  0  0  0  0  0
    3.5105    0.9398    0.0000 H   0  0  0  0  0  0  0  0  0  0  0  0
    1.7312    2.7921    0.0000 H   0  0  0  0  0  0  0  0  0  0  0  0
    2.6579    3.3271    0.0000 H   0  0  0  0  0  0  0  0  0  0  0  0
    4.2990    2.1346    0.0000 H   0  0  0  0  0  0  0  0  0  0  0  0
    4.2989    3.2046    0.0000 H   0  0  0  0  0  0  0  0  0  0  0  0
    4.2123    3.9796    0.0000 H   0  0  0  0  0  0  0  0  0  0  0  0
  1  2  1  0  0  0  0
  1  7  2  0  0  0  0
  1 27  1  0  0  0  0
  2  3  1  0  0  0  0
  2  4  2  0  0  0  0
  4  5  1  0  0  0  0
  4 28  1  0  0  0  0
  5  6  2  0  0  0  0
  5 29  1  0  0  0  0
  6  7  1  0  0  0  0
  6 30  1  0  0  0  0
  7  8  1  0  0  0  0
  8  9  1  0  0  0  0
  8 11  1  0  0  0  0
  9 10  2  0  0  0  0
  9 19  1  0  0  0  0
 11 12  2  0  0  0  0
 11 13  1  0  0  0  0
 13 14  2  0  0  0  0
 13 18  1  0  0  0  0
 14 15  1  0  0  0  0
 14 31  1  0  0  0  0
 15 16  2  0  0  0  0
 15 32  1  0  0  0  0
 16 17  1  0  0  0  0
 16 33  1  0  0  0  0
 17 18  2  0  0  0  0
 17 22  1  0  0  0  0
 18 19  1  0  0  0  0
 19 20  2  0  0  0  0
 20 21  1  0  0  0  0
 20 34  1  0  0  0  0
 21 22  2  0  0  0  0
 21 35  1  0  0  0  0
 22 23  1  0  0  0  0
 23 24  1  0  0  0  0
 23 36  1  0  0  0  0
 24 25  1  0  0  0  0
 24 37  1  0  0  0  0
 24 38  1  0  0  0  0
 25 26  1  0  0  0  0
 25 39  1  0  0  0  0
 25 40  1  0  0  0  0
 26 41  1  0  0  0  0
M  END
>  <DRUGBANK_ID>
DB08701

>  <COMMON_NAME>
2-(3-BROMOPHENYL)-6-[(2-HYDROXYETHYL)AMINO]-1H-BENZO[DE]ISOQUINOLINE-1,3(2H)-DIONE

$$$$
