
 OpenBabel10282417072D

 13 13  0  0  0  0  0  0  0  0999 V2000
   35.3109  -24.7215    0.0000 O   0  0  0  0  0  0  0  0  0  0  0  0
   34.8694  -26.0806    0.0000 O   0  0  0  0  0  0  0  0  0  0  0  0
   33.2457  -25.5036    0.0000 N   0  0  0  0  0  0  0  0  0  0  0  0
   33.9131  -25.0186    0.0000 C   0  0  0  0  0  0  0  0  0  0  0  0
   33.6582  -24.2340    0.0000 C   0  0  0  0  0  0  0  0  0  0  0  0
   32.5782  -25.0186    0.0000 C   0  0  0  0  0  0  0  0  0  0  0  0
   32.8331  -24.2340    0.0000 C   0  0  0  0  0  0  0  0  0  0  0  0
   34.6978  -25.2736    0.0000 C   0  0  0  0  0  0  0  0  0  0  0  0
   36.2021  -25.0110    0.0000 H   0  0  0  0  0  0  0  0  0  0  0  0
   33.2457  -26.4881    0.0000 H   0  0  0  0  0  0  0  0  0  0  0  0
   34.2648  -23.3991    0.0000 H   0  0  0  0  0  0  0  0  0  0  0  0
   31.5967  -25.3375    0.0000 H   0  0  0  0  0  0  0  0  0  0  0  0
   32.2265  -23.3991    0.0000 H   0  0  0  0  0  0  0  0  0  0  0  0
  1  8  1  0  0  0  0
  1  9  1  0  0  0  0
  2  8  2  0  0  0  0
  3  4  1  0  0  0  0
  3  6  1  0  0  0  0
  3 10  1  0  0  0  0
  4  5  2  0  0  0  0
  4  8  1  0  0  0  0
  5  7  1  0  0  0  0
  5 11  1  0  0  0  0
  6  7  2  0  0  0  0
  6 12  1  0  0  0  0
  7 13  1  0  0  0  0
M  END
>  <DRUGBANK_ID>
DB02543

>  <SECONDARY_ACCESSION_NUMBERS>
EXPT02717

>  <COMMON_NAME>
Pyrrole-2-Carboxylate

>  <UNII>
2NNB85QQT9

$$$$
