
 OpenBabel10282417072D

 43 44  0  0  0  0  0  0  0  0999 V2000
   -0.3572   -0.8249    0.0000 C   0  0  0  0  0  0  0  0  0  0  0  0
    0.3572   -1.2374    0.0000 C   0  0  0  0  0  0  0  0  0  0  0  0
    0.3572   -2.0624    0.0000 C   0  0  0  0  0  0  0  0  0  0  0  0
   -0.3572   -2.4749    0.0000 C   0  0  0  0  0  0  0  0  0  0  0  0
   -1.0716   -2.0624    0.0000 C   0  0  0  0  0  0  0  0  0  0  0  0
   -1.0716   -1.2374    0.0000 C   0  0  0  0  0  0  0  0  0  0  0  0
   -1.7861   -0.8249    0.0000 O   0  0  0  0  0  0  0  0  0  0  0  0
   -1.7861    0.0000    0.0000 C   0  0  0  0  0  0  0  0  0  0  0  0
   -1.0716    1.2375    0.0000 C   0  0  0  0  0  0  0  0  0  0  0  0
   -1.7861    1.6500    0.0000 C   0  0  0  0  0  0  0  0  0  0  0  0
   -2.5006    1.2375    0.0000 C   0  0  0  0  0  0  0  0  0  0  0  0
   -2.5006    0.4125    0.0000 C   0  0  0  0  0  0  0  0  0  0  0  0
   -1.0716    0.4125    0.0000 C   0  0  0  0  0  0  0  0  0  0  0  0
   -0.3572    0.0000    0.0000 Br  0  0  0  0  0  0  0  0  0  0  0  0
   -1.7861   -2.4749    0.0000 Br  0  0  0  0  0  0  0  0  0  0  0  0
    1.7861   -2.0624    0.0000 C   0  0  0  0  0  0  0  0  0  0  0  0
    2.5006   -2.4749    0.0000 C   0  0  0  0  0  0  0  0  0  0  0  0
    1.7861   -1.2374    0.0000 O   0  0  0  0  0  0  0  0  0  0  0  0
    3.2151   -2.0624    0.0000 C   0  0  0  0  0  0  0  0  0  0  0  0
    3.9296   -2.4749    0.0000 O   0  0  0  0  0  0  0  0  0  0  0  0
    3.2151   -1.2374    0.0000 O   0  0  0  0  0  0  0  0  0  0  0  0
   -1.7861    2.4750    0.0000 O   0  0  0  0  0  0  0  0  0  0  0  0
    1.0717   -2.4749    0.0000 N   0  0  0  0  0  0  0  0  0  0  0  0
   -3.2152    1.6500    0.0000 C   0  0  0  0  0  0  0  0  0  0  0  0
   -3.9296    1.2375    0.0000 C   0  0  0  0  0  0  0  0  0  0  0  0
   -3.2152    2.4750    0.0000 C   0  0  0  0  0  0  0  0  0  0  0  0
    1.2509   -0.7214    0.0000 H   0  0  0  0  0  0  0  0  0  0  0  0
   -0.3572   -3.5069    0.0000 H   0  0  0  0  0  0  0  0  0  0  0  0
   -0.1779    1.7535    0.0000 H   0  0  0  0  0  0  0  0  0  0  0  0
   -3.3943   -0.1035    0.0000 H   0  0  0  0  0  0  0  0  0  0  0  0
   -0.1779   -0.1035    0.0000 H   0  0  0  0  0  0  0  0  0  0  0  0
    2.5006   -3.5449    0.0000 H   0  0  0  0  0  0  0  0  0  0  0  0
    3.4272   -3.0099    0.0000 H   0  0  0  0  0  0  0  0  0  0  0  0
    3.9296   -3.4119    0.0000 H   0  0  0  0  0  0  0  0  0  0  0  0
   -0.9746    2.9435    0.0000 H   0  0  0  0  0  0  0  0  0  0  0  0
    1.0717   -3.4594    0.0000 H   0  0  0  0  0  0  0  0  0  0  0  0
   -4.1419    2.1850    0.0000 H   0  0  0  0  0  0  0  0  0  0  0  0
   -4.8563    1.7725    0.0000 H   0  0  0  0  0  0  0  0  0  0  0  0
   -3.9296    0.1675    0.0000 H   0  0  0  0  0  0  0  0  0  0  0  0
   -4.8562    0.7025    0.0000 H   0  0  0  0  0  0  0  0  0  0  0  0
   -2.2886    3.0100    0.0000 H   0  0  0  0  0  0  0  0  0  0  0  0
   -4.1418    3.0100    0.0000 H   0  0  0  0  0  0  0  0  0  0  0  0
   -3.2152    3.5450    0.0000 H   0  0  0  0  0  0  0  0  0  0  0  0
  1  2  2  0  0  0  0
  1  6  1  0  0  0  0
  1 14  1  0  0  0  0
  2  3  1  0  0  0  0
  2 27  1  0  0  0  0
  3  4  2  0  0  0  0
  3 23  1  0  0  0  0
  4  5  1  0  0  0  0
  4 28  1  0  0  0  0
  5  6  2  0  0  0  0
  5 15  1  0  0  0  0
  6  7  1  0  0  0  0
  7  8  1  0  0  0  0
  8 13  1  0  0  0  0
  9 10  1  0  0  0  0
  9 13  2  0  0  0  0
  9 29  1  0  0  0  0
 10 11  2  0  0  0  0
 10 22  1  0  0  0  0
 11 12  1  0  0  0  0
 11 24  1  0  0  0  0
 12  8  2  0  0  0  0
 12 30  1  0  0  0  0
 13 31  1  0  0  0  0
 16 17  1  0  0  0  0
 16 18  2  0  0  0  0
 16 23  1  0  0  0  0
 17 19  1  0  0  0  0
 17 32  1  0  0  0  0
 17 33  1  0  0  0  0
 19 20  1  0  0  0  0
 19 21  2  0  0  0  0
 20 34  1  0  0  0  0
 22 35  1  0  0  0  0
 23 36  1  0  0  0  0
 24 25  1  0  0  0  0
 24 26  1  0  0  0  0
 24 37  1  0  0  0  0
 25 38  1  0  0  0  0
 25 39  1  0  0  0  0
 25 40  1  0  0  0  0
 26 41  1  0  0  0  0
 26 42  1  0  0  0  0
 26 43  1  0  0  0  0
M  END
>  <DRUGBANK_ID>
DB05035

>  <COMMON_NAME>
Eprotirome

>  <CAS_NUMBER>
355129-15-6

>  <UNII>
958AQ7B6R1

>  <SYNONYMS>
Eprotirome

$$$$
