
 OpenBabel10282417072D

 60 65  0  0  0  0  0  0  0  0999 V2000
   -2.6731   -1.2451    0.0000 C   0  0  1  0  0  0  0  0  0  0  0  0
   -1.9274   -0.8128    0.0000 O   0  0  0  0  0  0  0  0  0  0  0  0
   -2.6731   -2.1015    0.0000 C   0  0  2  0  0  0  0  0  0  0  0  0
   -3.3233   -0.6780    0.0000 C   0  0  0  0  0  0  0  0  0  0  0  0
   -1.1740   -1.2410    0.0000 C   0  0  2  0  0  0  0  0  0  0  0  0
   -1.9274   -2.5377    0.0000 C   0  0  1  0  0  0  0  0  0  0  0  0
   -3.4145   -2.5377    0.0000 O   0  0  0  0  0  0  0  0  0  0  0  0
   -3.1568    0.1705    0.0000 O   0  0  0  0  0  0  0  0  0  0  0  0
   -4.1401   -0.9595    0.0000 O   0  0  0  0  0  0  0  0  0  0  0  0
   -1.1740   -2.1015    0.0000 C   0  0  1  0  0  0  0  0  0  0  0  0
   -1.9274   -3.3983    0.0000 O   0  0  0  0  0  0  0  0  0  0  0  0
   -0.4246   -2.5377    0.0000 O   0  0  0  0  0  0  0  0  0  0  0  0
    1.1774    0.9963    0.0000 C   0  0  2  0  0  0  0  0  0  0  0  0
    1.1774    1.8114    0.0000 C   0  0  0  0  0  0  0  0  0  0  0  0
    1.9065    0.5675    0.0000 C   0  0  2  0  0  0  0  0  0  0  0  0
    0.4912    0.6104    0.0000 C   0  0  1  0  0  0  0  0  0  0  0  0
    1.9065    1.3824    0.0000 C   0  0  0  0  0  0  0  0  0  0  0  0
    0.4912    2.1974    0.0000 C   0  0  0  0  0  0  0  0  0  0  0  0
    1.9065    2.1974    0.0000 C   0  0  0  0  0  0  0  0  0  0  0  0
    2.5928    0.9963    0.0000 C   0  0  1  0  0  0  0  0  0  0  0  0
    1.9065   -0.2044    0.0000 C   0  0  0  0  0  0  0  0  0  0  0  0
   -0.3236    1.4255    0.0000 O   0  0  0  0  0  0  0  0  0  0  0  0
    0.4912   -0.2044    0.0000 C   0  0  2  0  0  0  0  0  0  0  0  0
    3.2790    1.3824    0.0000 C   0  0  0  0  0  0  0  0  0  0  0  0
    0.4912    3.0123    0.0000 C   0  0  0  0  0  0  0  0  0  0  0  0
    2.5928    1.7685    0.0000 C   0  0  0  0  0  0  0  0  0  0  0  0
    1.9065    3.0123    0.0000 C   0  0  0  0  0  0  0  0  0  0  0  0
    3.2790    0.5675    0.0000 N   0  0  0  0  0  0  0  0  0  0  0  0
    1.1774   -0.6333    0.0000 C   0  0  0  0  0  0  0  0  0  0  0  0
   -0.1950   -0.6333    0.0000 O   0  0  0  0  0  0  0  0  0  0  0  0
    1.2203    3.3983    0.0000 C   0  0  0  0  0  0  0  0  0  0  0  0
   -0.1950    3.3983    0.0000 O   0  0  0  0  0  0  0  0  0  0  0  0
    2.6786    0.0099    0.0000 H   0  0  0  0  0  0  0  0  0  0  0  0
    4.1401    0.5675    0.0000 C   0  0  0  0  0  0  0  0  0  0  0  0
   -2.5706   -0.1800    0.0000 H   0  0  0  0  0  0  0  0  0  0  0  0
   -3.6019   -1.5703    0.0000 H   0  0  0  0  0  0  0  0  0  0  0  0
   -1.1947   -0.1712    0.0000 H   0  0  0  0  0  0  0  0  0  0  0  0
   -2.8556   -3.0701    0.0000 H   0  0  0  0  0  0  0  0  0  0  0  0
   -4.2585   -2.0596    0.0000 H   0  0  0  0  0  0  0  0  0  0  0  0
   -2.2703    0.4740    0.0000 H   0  0  0  0  0  0  0  0  0  0  0  0
   -0.2464   -1.5681    0.0000 H   0  0  0  0  0  0  0  0  0  0  0  0
   -2.7674   -3.8833    0.0000 H   0  0  0  0  0  0  0  0  0  0  0  0
   -0.4280   -3.5077    0.0000 H   0  0  0  0  0  0  0  0  0  0  0  0
    0.6370    1.6704    0.0000 H   0  0  0  0  0  0  0  0  0  0  0  0
    1.6485    2.4208    0.0000 H   0  0  0  0  0  0  0  0  0  0  0  0
    2.5656    2.2253    0.0000 H   0  0  0  0  0  0  0  0  0  0  0  0
    2.5928   -0.0737    0.0000 H   0  0  0  0  0  0  0  0  0  0  0  0
    2.8023   -0.7168    0.0000 H   0  0  0  0  0  0  0  0  0  0  0  0
   -0.4447    0.3143    0.0000 H   0  0  0  0  0  0  0  0  0  0  0  0
    4.0356    2.1390    0.0000 H   0  0  0  0  0  0  0  0  0  0  0  0
    4.2676    0.9729    0.0000 H   0  0  0  0  0  0  0  0  0  0  0  0
    3.5287    2.2872    0.0000 H   0  0  0  0  0  0  0  0  0  0  0  0
    3.5147    1.2254    0.0000 H   0  0  0  0  0  0  0  0  0  0  0  0
    2.7973    3.5333    0.0000 H   0  0  0  0  0  0  0  0  0  0  0  0
    1.1635   -1.6652    0.0000 H   0  0  0  0  0  0  0  0  0  0  0  0
    1.2335    4.4302    0.0000 H   0  0  0  0  0  0  0  0  0  0  0  0
   -0.2055    4.3352    0.0000 H   0  0  0  0  0  0  0  0  0  0  0  0
    4.6751   -0.3591    0.0000 H   0  0  0  0  0  0  0  0  0  0  0  0
    4.6751    1.4941    0.0000 H   0  0  0  0  0  0  0  0  0  0  0  0
    5.2101    0.5675    0.0000 H   0  0  0  0  0  0  0  0  0  0  0  0
  1  2  1  0  0  0  0
  1  3  1  0  0  0  0
  1  4  1  0  0  0  0
  1 35  1  6  0  0  0
  2  5  1  0  0  0  0
  3  6  1  0  0  0  0
  3  7  1  0  0  0  0
  3 36  1  1  0  0  0
  4  8  1  0  0  0  0
  4  9  2  0  0  0  0
  5 10  1  0  0  0  0
  5 30  1  0  0  0  0
  5 37  1  6  0  0  0
  6 11  1  0  0  0  0
  6 10  1  0  0  0  0
  6 38  1  6  0  0  0
  7 39  1  0  0  0  0
  8 40  1  0  0  0  0
 10 12  1  0  0  0  0
 10 41  1  1  0  0  0
 11 42  1  0  0  0  0
 12 43  1  0  0  0  0
 13 14  1  6  0  0  0
 13 15  1  0  0  0  0
 13 16  1  0  0  0  0
 13 17  1  0  0  0  0
 14 18  2  0  0  0  0
 14 19  1  0  0  0  0
 15 20  1  0  0  0  0
 15 21  1  0  0  0  0
 15 33  1  1  0  0  0
 16 22  1  0  0  0  0
 16 23  1  0  0  0  0
 16 44  1  1  0  0  0
 17 24  1  0  0  0  0
 17 45  1  0  0  0  0
 17 46  1  0  0  0  0
 18 25  1  0  0  0  0
 18 22  1  0  0  0  0
 19 26  1  0  0  0  0
 19 27  2  0  0  0  0
 20 28  1  0  0  0  0
 20 26  1  0  0  0  0
 20 47  1  6  0  0  0
 21 29  2  0  0  0  0
 21 48  1  0  0  0  0
 23 30  1  0  0  0  0
 23 29  1  0  0  0  0
 23 49  1  1  0  0  0
 24 28  1  0  0  0  0
 24 50  1  0  0  0  0
 24 51  1  0  0  0  0
 25 31  2  0  0  0  0
 25 32  1  0  0  0  0
 26 52  1  0  0  0  0
 26 53  1  0  0  0  0
 27 31  1  0  0  0  0
 27 54  1  0  0  0  0
 28 34  1  0  0  0  0
 29 55  1  0  0  0  0
 31 56  1  0  0  0  0
 32 57  1  0  0  0  0
 34 58  1  0  0  0  0
 34 59  1  0  0  0  0
 34 60  1  0  0  0  0
M  END
>  <DRUGBANK_ID>
DB06409

>  <COMMON_NAME>
Morphine glucuronide

>  <CAS_NUMBER>
20290-10-2

>  <UNII>
64Y9KYM60R

>  <SYNONYMS>
M6G; Morphine 6-beta-D-glucopyranosiduronide; Morphine 6-glucuronide; Morphine glucuronide; Morphine-6-glucuronide

$$$$
