
 OpenBabel10282417072D

 54 54  0  0  0  0  0  0  0  0999 V2000
   -3.9206    0.3972    0.0000 C   0  0  0  0  0  0  0  0  0  0  0  0
   -3.9125   -0.4131    0.0000 C   0  0  0  0  0  0  0  0  0  0  0  0
   -3.2179    0.8165    0.0000 C   0  0  0  0  0  0  0  0  0  0  0  0
   -4.6512    0.8165    0.0000 O   0  0  0  0  0  0  0  0  0  0  0  0
   -3.2258   -0.8244    0.0000 C   0  0  0  0  0  0  0  0  0  0  0  0
   -4.6512   -0.8204    0.0000 O   0  0  0  0  0  0  0  0  0  0  0  0
   -2.5032    0.3972    0.0000 C   0  0  0  0  0  0  0  0  0  0  0  0
   -3.2179    1.6389    0.0000 O   0  0  0  0  0  0  0  0  0  0  0  0
   -4.6512    1.6509    0.0000 C   0  0  0  0  0  0  0  0  0  0  0  0
   -2.5032   -0.4131    0.0000 C   0  0  0  0  0  0  0  0  0  0  0  0
   -3.2258   -1.6509    0.0000 O   0  0  0  0  0  0  0  0  0  0  0  0
   -5.3698   -0.4012    0.0000 C   0  0  0  0  0  0  0  0  0  0  0  0
   -1.7806    0.8165    0.0000 C   0  0  0  0  0  0  0  0  0  0  0  0
   -1.7806   -0.8244    0.0000 C   0  0  0  0  0  0  0  0  0  0  0  0
   -1.0739    0.3972    0.0000 C   0  0  0  0  0  0  0  0  0  0  0  0
   -0.3472    0.7965    0.0000 C   0  0  0  0  0  0  0  0  0  0  0  0
    0.3633    0.3773    0.0000 C   0  0  0  0  0  0  0  0  0  0  0  0
    1.0660    0.7965    0.0000 C   0  0  0  0  0  0  0  0  0  0  0  0
    1.7806    0.3773    0.0000 C   0  0  0  0  0  0  0  0  0  0  0  0
    2.5152    0.8004    0.0000 C   0  0  0  0  0  0  0  0  0  0  0  0
    3.2219    0.3773    0.0000 C   0  0  0  0  0  0  0  0  0  0  0  0
    3.9527    0.7805    0.0000 C   0  0  0  0  0  0  0  0  0  0  0  0
    4.6553    0.3773    0.0000 C   0  0  0  0  0  0  0  0  0  0  0  0
    5.3698    0.7805    0.0000 O   0  0  0  0  0  0  0  0  0  0  0  0
   -3.7246    2.1859    0.0000 H   0  0  0  0  0  0  0  0  0  0  0  0
   -5.5778    2.1859    0.0000 H   0  0  0  0  0  0  0  0  0  0  0  0
   -4.6512    2.7209    0.0000 H   0  0  0  0  0  0  0  0  0  0  0  0
   -5.3650    0.6688    0.0000 H   0  0  0  0  0  0  0  0  0  0  0  0
   -6.2988   -0.9320    0.0000 H   0  0  0  0  0  0  0  0  0  0  0  0
   -6.2940    0.1380    0.0000 H   0  0  0  0  0  0  0  0  0  0  0  0
   -1.7754    1.8865    0.0000 H   0  0  0  0  0  0  0  0  0  0  0  0
   -0.8495    1.3437    0.0000 H   0  0  0  0  0  0  0  0  0  0  0  0
   -1.7740   -1.8944    0.0000 H   0  0  0  0  0  0  0  0  0  0  0  0
   -0.8573   -0.2837    0.0000 H   0  0  0  0  0  0  0  0  0  0  0  0
   -0.8507   -1.3537    0.0000 H   0  0  0  0  0  0  0  0  0  0  0  0
   -1.0916   -0.6727    0.0000 H   0  0  0  0  0  0  0  0  0  0  0  0
   -0.1575   -0.1552    0.0000 H   0  0  0  0  0  0  0  0  0  0  0  0
   -0.3308    1.8664    0.0000 H   0  0  0  0  0  0  0  0  0  0  0  0
    0.5860    1.3200    0.0000 H   0  0  0  0  0  0  0  0  0  0  0  0
    0.3659   -0.6927    0.0000 H   0  0  0  0  0  0  0  0  0  0  0  0
    1.2944   -0.1499    0.0000 H   0  0  0  0  0  0  0  0  0  0  0  0
    1.0621    1.8665    0.0000 H   0  0  0  0  0  0  0  0  0  0  0  0
    1.9935    1.3300    0.0000 H   0  0  0  0  0  0  0  0  0  0  0  0
    1.7763   -0.6927    0.0000 H   0  0  0  0  0  0  0  0  0  0  0  0
    2.7059   -0.1600    0.0000 H   0  0  0  0  0  0  0  0  0  0  0  0
    2.5242    1.8704    0.0000 H   0  0  0  0  0  0  0  0  0  0  0  0
    3.4483    1.3241    0.0000 H   0  0  0  0  0  0  0  0  0  0  0  0
    3.2030   -0.6925    0.0000 H   0  0  0  0  0  0  0  0  0  0  0  0
    4.1385   -0.1748    0.0000 H   0  0  0  0  0  0  0  0  0  0  0  0
    3.9617    1.8505    0.0000 H   0  0  0  0  0  0  0  0  0  0  0  0
    4.8809    1.3128    0.0000 H   0  0  0  0  0  0  0  0  0  0  0  0
    4.6514   -0.6927    0.0000 H   0  0  0  0  0  0  0  0  0  0  0  0
    5.5783   -0.1639    0.0000 H   0  0  0  0  0  0  0  0  0  0  0  0
    6.2050    0.2873    0.0000 H   0  0  0  0  0  0  0  0  0  0  0  0
  1  2  2  0  0  0  0
  1  3  1  0  0  0  0
  1  4  1  0  0  0  0
  2  5  1  0  0  0  0
  2  6  1  0  0  0  0
  3  7  1  0  0  0  0
  3  8  2  0  0  0  0
  4  9  1  0  0  0  0
  5 10  1  0  0  0  0
  5 11  2  0  0  0  0
  6 12  1  0  0  0  0
  7 13  1  0  0  0  0
  7 10  2  0  0  0  0
  9 25  1  0  0  0  0
  9 26  1  0  0  0  0
  9 27  1  0  0  0  0
 10 14  1  0  0  0  0
 12 28  1  0  0  0  0
 12 29  1  0  0  0  0
 12 30  1  0  0  0  0
 13 15  1  0  0  0  0
 13 31  1  0  0  0  0
 13 32  1  0  0  0  0
 14 33  1  0  0  0  0
 14 34  1  0  0  0  0
 14 35  1  0  0  0  0
 15 16  1  0  0  0  0
 15 36  1  0  0  0  0
 15 37  1  0  0  0  0
 16 17  1  0  0  0  0
 16 38  1  0  0  0  0
 16 39  1  0  0  0  0
 17 18  1  0  0  0  0
 17 40  1  0  0  0  0
 17 41  1  0  0  0  0
 18 19  1  0  0  0  0
 18 42  1  0  0  0  0
 18 43  1  0  0  0  0
 19 20  1  0  0  0  0
 19 44  1  0  0  0  0
 19 45  1  0  0  0  0
 20 21  1  0  0  0  0
 20 46  1  0  0  0  0
 20 47  1  0  0  0  0
 21 22  1  0  0  0  0
 21 48  1  0  0  0  0
 21 49  1  0  0  0  0
 22 23  1  0  0  0  0
 22 50  1  0  0  0  0
 22 51  1  0  0  0  0
 23 24  1  0  0  0  0
 23 52  1  0  0  0  0
 23 53  1  0  0  0  0
 24 54  1  0  0  0  0
M  END
>  <DRUGBANK_ID>
DB09081

>  <COMMON_NAME>
Idebenone

>  <CAS_NUMBER>
58186-27-9

>  <UNII>
HB6PN45W4J

>  <SYNONYMS>
2-(10-hydroxydecyl)-5,6-dimethoxy-3-methyl-1,4-benzoquinone; 2-(10-hydroxydecyl)-5,6-dimethoxy-3-methyl-p-benzoquinone; 2-(10-hydroxydecyl)-5,6-dimethoxy-3-methylcyclohexa-2,5-diene-1,4-dione; 2,3-dimethoxy-5-methyl-6-(10'-hydroxydecyl)-1,4-benzoquinone; 6-(10-hydroxydecyl)-2,3-dimethoxy-5-methyl-1,4-benzoquinone; 6-(10-hydroxydecyl)-2,3-dimethoxy-5-methyl-p-benzoquinone; idebenona; Idebenone; idébénone

$$$$
