
 OpenBabel10282417072D

177181  0  0  1  0  0  0  0  0999 V2000
   10.0845  -16.5126    0.0000 C   0  0  0  0  0  0  0  0  0  0  0  0
   10.7990  -16.1001    0.0000 C   0  0  0  0  0  0  0  0  0  0  0  0
   11.5134  -16.5126    0.0000 C   0  0  0  0  0  0  0  0  0  0  0  0
   12.2279  -16.1001    0.0000 C   0  0  0  0  0  0  0  0  0  0  0  0
   12.9424  -16.5126    0.0000 C   0  0  0  0  0  0  0  0  0  0  0  0
   13.6568  -16.1001    0.0000 C   0  0  0  0  0  0  0  0  0  0  0  0
   14.3713  -16.5126    0.0000 C   0  0  0  0  0  0  0  0  0  0  0  0
   15.0858  -16.1001    0.0000 C   0  0  0  0  0  0  0  0  0  0  0  0
   15.8003  -16.5126    0.0000 C   0  0  0  0  0  0  0  0  0  0  0  0
   16.5147  -16.1001    0.0000 C   0  0  0  0  0  0  0  0  0  0  0  0
   17.2292  -16.5126    0.0000 C   0  0  0  0  0  0  0  0  0  0  0  0
   17.9437  -16.1001    0.0000 C   0  0  0  0  0  0  0  0  0  0  0  0
   18.6581  -16.5126    0.0000 C   0  0  0  0  0  0  0  0  0  0  0  0
   19.3726  -16.1001    0.0000 C   0  0  0  0  0  0  0  0  0  0  0  0
   20.0871  -16.5126    0.0000 C   0  0  0  0  0  0  0  0  0  0  0  0
   20.8016  -16.1001    0.0000 C   0  0  0  0  0  0  0  0  0  0  0  0
   21.5160  -16.5126    0.0000 C   0  0  0  0  0  0  0  0  0  0  0  0
   22.2305  -16.1001    0.0000 C   0  0  0  0  0  0  0  0  0  0  0  0
   22.2305  -15.2751    0.0000 O   0  0  0  0  0  0  0  0  0  0  0  0
   22.9450  -16.5126    0.0000 O   0  0  0  0  0  0  0  0  0  0  0  0
   23.6594  -16.1001    0.0000 C   0  0  0  0  0  0  0  0  0  0  0  0
   24.3739  -16.5126    0.0000 C   0  0  3  0  0  0  0  0  0  0  0  0
   24.3739  -17.3376    0.0000 C   0  0  0  0  0  0  0  0  0  0  0  0
   25.0884  -17.7501    0.0000 S   0  0  0  0  0  0  0  0  0  0  0  0
   25.0884  -18.5751    0.0000 S   0  0  0  0  0  0  0  0  0  0  0  0
   25.8029  -18.9876    0.0000 C   0  0  0  0  0  0  0  0  0  0  0  0
   26.5173  -18.5751    0.0000 C   0  0  0  0  0  0  0  0  0  0  0  0
   27.2318  -18.9876    0.0000 C   0  0  0  0  0  0  0  0  0  0  0  0
   27.2318  -19.8126    0.0000 C   0  0  0  0  0  0  0  0  0  0  0  0
   27.9463  -20.2251    0.0000 C   0  0  0  0  0  0  0  0  0  0  0  0
   27.9463  -21.0501    0.0000 O   0  0  0  0  0  0  0  0  0  0  0  0
   28.6607  -21.4626    0.0000 C   0  0  0  0  0  0  0  0  0  0  0  0
   29.3752  -21.0501    0.0000 O   0  0  0  0  0  0  0  0  0  0  0  0
   28.6607  -22.2876    0.0000 N   0  0  0  0  0  0  0  0  0  0  0  0
   28.2482  -23.0021    0.0000 C   0  0  1  0  0  0  0  0  0  0  0  0
   27.9933  -23.7867    0.0000 C   0  0  0  0  0  0  0  0  0  0  0  0
   28.6607  -24.2716    0.0000 N   0  0  0  0  0  0  0  0  0  0  0  0
   28.9157  -25.0563    0.0000 C   0  0  0  0  0  0  0  0  0  0  0  0
   29.7407  -25.0563    0.0000 C   0  0  0  0  0  0  0  0  0  0  0  0
   29.9956  -24.2716    0.0000 C   0  0  1  0  0  0  0  0  0  0  0  0
   30.7802  -24.0167    0.0000 C   0  0  0  0  0  0  0  0  0  0  0  0
   31.3933  -24.5687    0.0000 O   0  0  0  0  0  0  0  0  0  0  0  0
   32.1780  -24.3138    0.0000 C   0  0  0  0  0  0  0  0  0  0  0  0
   32.7910  -24.8658    0.0000 N   0  0  0  0  0  0  0  0  0  0  0  0
   32.3495  -23.5068    0.0000 O   0  0  0  0  0  0  0  0  0  0  0  0
   29.3282  -23.7867    0.0000 C   0  0  2  0  0  0  0  0  0  0  0  0
   29.9956  -23.3018    0.0000 O   0  0  0  0  0  0  0  0  0  0  0  0
   29.9094  -22.4813    0.0000 C   0  0  0  0  0  0  0  0  0  0  0  0
   29.0732  -23.0021    0.0000 C   0  0  1  0  0  0  0  0  0  0  0  0
   30.1532  -25.7707    0.0000 C   0  0  0  0  0  0  0  0  0  0  0  0
   30.9782  -25.7707    0.0000 O   0  0  0  0  0  0  0  0  0  0  0  0
   29.7407  -26.4852    0.0000 C   0  0  0  0  0  0  0  0  0  0  0  0
   30.1532  -27.1997    0.0000 N   0  0  0  0  0  0  0  0  0  0  0  0
   28.9157  -26.4852    0.0000 C   0  0  0  0  0  0  0  0  0  0  0  0
   28.5032  -27.1997    0.0000 C   0  0  0  0  0  0  0  0  0  0  0  0
   28.5032  -25.7707    0.0000 C   0  0  0  0  0  0  0  0  0  0  0  0
   27.6782  -25.7707    0.0000 O   0  0  0  0  0  0  0  0  0  0  0  0
   26.5173  -20.2251    0.0000 C   0  0  0  0  0  0  0  0  0  0  0  0
   25.8029  -19.8126    0.0000 C   0  0  0  0  0  0  0  0  0  0  0  0
   25.0884  -16.1001    0.0000 O   0  0  0  0  0  0  0  0  0  0  0  0
   25.8029  -16.5126    0.0000 C   0  0  0  0  0  0  0  0  0  0  0  0
   25.8029  -17.3376    0.0000 O   0  0  0  0  0  0  0  0  0  0  0  0
   26.5173  -16.1001    0.0000 C   0  0  0  0  0  0  0  0  0  0  0  0
   27.2318  -16.5126    0.0000 C   0  0  0  0  0  0  0  0  0  0  0  0
   27.9463  -16.1001    0.0000 C   0  0  0  0  0  0  0  0  0  0  0  0
   28.6607  -16.5126    0.0000 C   0  0  0  0  0  0  0  0  0  0  0  0
   29.3752  -16.1001    0.0000 C   0  0  0  0  0  0  0  0  0  0  0  0
   30.0897  -16.5126    0.0000 C   0  0  0  0  0  0  0  0  0  0  0  0
   30.8042  -16.1001    0.0000 C   0  0  0  0  0  0  0  0  0  0  0  0
   31.5186  -16.5126    0.0000 C   0  0  0  0  0  0  0  0  0  0  0  0
   32.2331  -16.1001    0.0000 C   0  0  0  0  0  0  0  0  0  0  0  0
   32.9476  -16.5126    0.0000 C   0  0  0  0  0  0  0  0  0  0  0  0
   33.6620  -16.1001    0.0000 C   0  0  0  0  0  0  0  0  0  0  0  0
   34.3765  -16.5126    0.0000 C   0  0  0  0  0  0  0  0  0  0  0  0
   35.0910  -16.1001    0.0000 C   0  0  0  0  0  0  0  0  0  0  0  0
   35.8054  -16.5126    0.0000 C   0  0  0  0  0  0  0  0  0  0  0  0
   36.5199  -16.1001    0.0000 C   0  0  0  0  0  0  0  0  0  0  0  0
   37.2344  -16.5126    0.0000 C   0  0  0  0  0  0  0  0  0  0  0  0
   37.9489  -16.1001    0.0000 C   0  0  0  0  0  0  0  0  0  0  0  0
    9.1579  -15.9776    0.0000 H   0  0  0  0  0  0  0  0  0  0  0  0
   10.0845  -17.5826    0.0000 H   0  0  0  0  0  0  0  0  0  0  0  0
    9.1578  -17.0476    0.0000 H   0  0  0  0  0  0  0  0  0  0  0  0
   10.7990  -15.0301    0.0000 H   0  0  0  0  0  0  0  0  0  0  0  0
   11.7257  -15.5651    0.0000 H   0  0  0  0  0  0  0  0  0  0  0  0
   11.5134  -17.5826    0.0000 H   0  0  0  0  0  0  0  0  0  0  0  0
   12.4400  -17.0476    0.0000 H   0  0  0  0  0  0  0  0  0  0  0  0
   12.2279  -15.0301    0.0000 H   0  0  0  0  0  0  0  0  0  0  0  0
   13.1545  -15.5651    0.0000 H   0  0  0  0  0  0  0  0  0  0  0  0
   12.9424  -17.5826    0.0000 H   0  0  0  0  0  0  0  0  0  0  0  0
   13.8691  -17.0476    0.0000 H   0  0  0  0  0  0  0  0  0  0  0  0
   13.6568  -15.0301    0.0000 H   0  0  0  0  0  0  0  0  0  0  0  0
   14.5834  -15.5651    0.0000 H   0  0  0  0  0  0  0  0  0  0  0  0
   14.3713  -17.5826    0.0000 H   0  0  0  0  0  0  0  0  0  0  0  0
   15.2979  -17.0476    0.0000 H   0  0  0  0  0  0  0  0  0  0  0  0
   15.0858  -15.0301    0.0000 H   0  0  0  0  0  0  0  0  0  0  0  0
   16.0124  -15.5651    0.0000 H   0  0  0  0  0  0  0  0  0  0  0  0
   15.8003  -17.5826    0.0000 H   0  0  0  0  0  0  0  0  0  0  0  0
   16.7270  -17.0476    0.0000 H   0  0  0  0  0  0  0  0  0  0  0  0
   16.5147  -15.0301    0.0000 H   0  0  0  0  0  0  0  0  0  0  0  0
   17.4413  -15.5651    0.0000 H   0  0  0  0  0  0  0  0  0  0  0  0
   17.2292  -17.5826    0.0000 H   0  0  0  0  0  0  0  0  0  0  0  0
   18.1558  -17.0476    0.0000 H   0  0  0  0  0  0  0  0  0  0  0  0
   17.9437  -15.0301    0.0000 H   0  0  0  0  0  0  0  0  0  0  0  0
   18.8704  -15.5651    0.0000 H   0  0  0  0  0  0  0  0  0  0  0  0
   18.6581  -17.5826    0.0000 H   0  0  0  0  0  0  0  0  0  0  0  0
   19.5847  -17.0476    0.0000 H   0  0  0  0  0  0  0  0  0  0  0  0
   19.3726  -15.0301    0.0000 H   0  0  0  0  0  0  0  0  0  0  0  0
   20.2992  -15.5651    0.0000 H   0  0  0  0  0  0  0  0  0  0  0  0
   20.0871  -17.5826    0.0000 H   0  0  0  0  0  0  0  0  0  0  0  0
   21.0137  -17.0476    0.0000 H   0  0  0  0  0  0  0  0  0  0  0  0
   20.8016  -15.0301    0.0000 H   0  0  0  0  0  0  0  0  0  0  0  0
   21.7283  -15.5651    0.0000 H   0  0  0  0  0  0  0  0  0  0  0  0
   21.5160  -17.5826    0.0000 H   0  0  0  0  0  0  0  0  0  0  0  0
   22.4426  -17.0476    0.0000 H   0  0  0  0  0  0  0  0  0  0  0  0
   23.6594  -15.0301    0.0000 H   0  0  0  0  0  0  0  0  0  0  0  0
   24.5860  -15.5651    0.0000 H   0  0  0  0  0  0  0  0  0  0  0  0
   23.4473  -17.0476    0.0000 H   0  0  0  0  0  0  0  0  0  0  0  0
   23.4473  -17.8726    0.0000 H   0  0  0  0  0  0  0  0  0  0  0  0
   24.3739  -18.4076    0.0000 H   0  0  0  0  0  0  0  0  0  0  0  0
   26.5173  -17.5431    0.0000 H   0  0  0  0  0  0  0  0  0  0  0  0
   28.1255  -18.4716    0.0000 H   0  0  0  0  0  0  0  0  0  0  0  0
   28.8729  -19.6901    0.0000 H   0  0  0  0  0  0  0  0  0  0  0  0
   28.8729  -20.7601    0.0000 H   0  0  0  0  0  0  0  0  0  0  0  0
   29.2257  -23.4373    0.0000 H   0  0  0  0  0  0  0  0  0  0  0  0
   26.9757  -24.1174    0.0000 H   0  0  0  0  0  0  0  0  0  0  0  0
   27.8259  -24.8435    0.0000 H   0  0  0  0  0  0  0  0  0  0  0  0
   30.7522  -25.0282    0.0000 H   0  0  0  0  0  0  0  0  0  0  0  0
   31.0027  -22.9701    0.0000 H   0  0  0  0  0  0  0  0  0  0  0  0
   31.7978  -23.6860    0.0000 H   0  0  0  0  0  0  0  0  0  0  0  0
   32.5863  -25.8288    0.0000 H   0  0  0  0  0  0  0  0  0  0  0  0
   33.7273  -24.5616    0.0000 H   0  0  0  0  0  0  0  0  0  0  0  0
   30.7751  -21.8524    0.0000 H   0  0  0  0  0  0  0  0  0  0  0  0
   28.9319  -22.0460    0.0000 H   0  0  0  0  0  0  0  0  0  0  0  0
   29.7976  -21.4172    0.0000 H   0  0  0  0  0  0  0  0  0  0  0  0
   28.0957  -23.4373    0.0000 H   0  0  0  0  0  0  0  0  0  0  0  0
   29.6609  -28.0523    0.0000 H   0  0  0  0  0  0  0  0  0  0  0  0
   31.1377  -27.1997    0.0000 H   0  0  0  0  0  0  0  0  0  0  0  0
   27.4332  -27.1997    0.0000 H   0  0  0  0  0  0  0  0  0  0  0  0
   29.0382  -28.1263    0.0000 H   0  0  0  0  0  0  0  0  0  0  0  0
   27.9682  -28.1264    0.0000 H   0  0  0  0  0  0  0  0  0  0  0  0
   26.5173  -21.2571    0.0000 H   0  0  0  0  0  0  0  0  0  0  0  0
   24.9092  -20.3286    0.0000 H   0  0  0  0  0  0  0  0  0  0  0  0
   26.5173  -15.0301    0.0000 H   0  0  0  0  0  0  0  0  0  0  0  0
   27.4439  -15.5651    0.0000 H   0  0  0  0  0  0  0  0  0  0  0  0
   27.2318  -17.5826    0.0000 H   0  0  0  0  0  0  0  0  0  0  0  0
   28.1584  -17.0476    0.0000 H   0  0  0  0  0  0  0  0  0  0  0  0
   27.9463  -15.0301    0.0000 H   0  0  0  0  0  0  0  0  0  0  0  0
   28.8730  -15.5651    0.0000 H   0  0  0  0  0  0  0  0  0  0  0  0
   28.6607  -17.5826    0.0000 H   0  0  0  0  0  0  0  0  0  0  0  0
   29.5873  -17.0476    0.0000 H   0  0  0  0  0  0  0  0  0  0  0  0
   29.3752  -15.0301    0.0000 H   0  0  0  0  0  0  0  0  0  0  0  0
   30.3018  -15.5651    0.0000 H   0  0  0  0  0  0  0  0  0  0  0  0
   30.0897  -17.5826    0.0000 H   0  0  0  0  0  0  0  0  0  0  0  0
   31.0163  -17.0476    0.0000 H   0  0  0  0  0  0  0  0  0  0  0  0
   30.8042  -15.0301    0.0000 H   0  0  0  0  0  0  0  0  0  0  0  0
   31.7309  -15.5651    0.0000 H   0  0  0  0  0  0  0  0  0  0  0  0
   31.5186  -17.5826    0.0000 H   0  0  0  0  0  0  0  0  0  0  0  0
   32.4452  -17.0476    0.0000 H   0  0  0  0  0  0  0  0  0  0  0  0
   32.2331  -15.0301    0.0000 H   0  0  0  0  0  0  0  0  0  0  0  0
   33.1597  -15.5651    0.0000 H   0  0  0  0  0  0  0  0  0  0  0  0
   32.9476  -17.5826    0.0000 H   0  0  0  0  0  0  0  0  0  0  0  0
   33.8743  -17.0476    0.0000 H   0  0  0  0  0  0  0  0  0  0  0  0
   33.6620  -15.0301    0.0000 H   0  0  0  0  0  0  0  0  0  0  0  0
   34.5886  -15.5651    0.0000 H   0  0  0  0  0  0  0  0  0  0  0  0
   34.3765  -17.5826    0.0000 H   0  0  0  0  0  0  0  0  0  0  0  0
   35.3031  -17.0476    0.0000 H   0  0  0  0  0  0  0  0  0  0  0  0
   35.0910  -15.0301    0.0000 H   0  0  0  0  0  0  0  0  0  0  0  0
   36.0177  -15.5651    0.0000 H   0  0  0  0  0  0  0  0  0  0  0  0
   35.8054  -17.5826    0.0000 H   0  0  0  0  0  0  0  0  0  0  0  0
   36.7320  -17.0476    0.0000 H   0  0  0  0  0  0  0  0  0  0  0  0
   36.5199  -15.0301    0.0000 H   0  0  0  0  0  0  0  0  0  0  0  0
   37.4465  -15.5651    0.0000 H   0  0  0  0  0  0  0  0  0  0  0  0
   37.2344  -17.5826    0.0000 H   0  0  0  0  0  0  0  0  0  0  0  0
   38.1610  -17.0476    0.0000 H   0  0  0  0  0  0  0  0  0  0  0  0
   38.8755  -16.6351    0.0000 H   0  0  0  0  0  0  0  0  0  0  0  0
   37.9489  -15.0301    0.0000 H   0  0  0  0  0  0  0  0  0  0  0  0
   38.8756  -15.5651    0.0000 H   0  0  0  0  0  0  0  0  0  0  0  0
  1  2  1  0  0  0  0
  1 80  1  0  0  0  0
  1 81  1  0  0  0  0
  1 82  1  0  0  0  0
  2  3  1  0  0  0  0
  2 83  1  0  0  0  0
  2 84  1  0  0  0  0
  3  4  1  0  0  0  0
  3 85  1  0  0  0  0
  3 86  1  0  0  0  0
  4  5  1  0  0  0  0
  4 87  1  0  0  0  0
  4 88  1  0  0  0  0
  5  6  1  0  0  0  0
  5 89  1  0  0  0  0
  5 90  1  0  0  0  0
  6  7  1  0  0  0  0
  6 91  1  0  0  0  0
  6 92  1  0  0  0  0
  7  8  1  0  0  0  0
  7 93  1  0  0  0  0
  7 94  1  0  0  0  0
  8  9  1  0  0  0  0
  8 95  1  0  0  0  0
  8 96  1  0  0  0  0
  9 10  1  0  0  0  0
  9 97  1  0  0  0  0
  9 98  1  0  0  0  0
 10 11  1  0  0  0  0
 10 99  1  0  0  0  0
 10100  1  0  0  0  0
 11 12  1  0  0  0  0
 11101  1  0  0  0  0
 11102  1  0  0  0  0
 12 13  1  0  0  0  0
 12103  1  0  0  0  0
 12104  1  0  0  0  0
 13 14  1  0  0  0  0
 13105  1  0  0  0  0
 13106  1  0  0  0  0
 14 15  1  0  0  0  0
 14107  1  0  0  0  0
 14108  1  0  0  0  0
 15 16  1  0  0  0  0
 15109  1  0  0  0  0
 15110  1  0  0  0  0
 16 17  1  0  0  0  0
 16111  1  0  0  0  0
 16112  1  0  0  0  0
 17 18  1  0  0  0  0
 17113  1  0  0  0  0
 17114  1  0  0  0  0
 18 19  2  0  0  0  0
 18 20  1  0  0  0  0
 20 21  1  0  0  0  0
 21 22  1  0  0  0  0
 21115  1  0  0  0  0
 21116  1  0  0  0  0
 22 23  1  0  0  0  0
 22 60  1  0  0  0  0
 22117  1  0  0  0  0
 23 24  1  0  0  0  0
 23118  1  0  0  0  0
 23119  1  0  0  0  0
 24 25  1  0  0  0  0
 25 26  1  0  0  0  0
 26 27  2  0  0  0  0
 26 59  1  0  0  0  0
 27 28  1  0  0  0  0
 27120  1  0  0  0  0
 28 29  2  0  0  0  0
 28121  1  0  0  0  0
 29 30  1  0  0  0  0
 29 58  1  0  0  0  0
 30 31  1  0  0  0  0
 30122  1  0  0  0  0
 30123  1  0  0  0  0
 31 32  1  0  0  0  0
 32 33  2  0  0  0  0
 32 34  1  0  0  0  0
 35 34  1  0  0  0  0
 35 36  1  0  0  0  0
 35124  1  1  0  0  0
 36 37  1  0  0  0  0
 36125  1  0  0  0  0
 36126  1  0  0  0  0
 37 38  1  0  0  0  0
 38 39  2  0  0  0  0
 38 56  1  0  0  0  0
 39 50  1  0  0  0  0
 40 39  1  0  0  0  0
 40 41  1  0  0  0  0
 40127  1  1  0  0  0
 41 42  1  0  0  0  0
 41128  1  0  0  0  0
 41129  1  0  0  0  0
 42 43  1  0  0  0  0
 43 44  1  0  0  0  0
 43 45  2  0  0  0  0
 44130  1  0  0  0  0
 44131  1  0  0  0  0
 46 40  1  0  0  0  0
 46 37  1  0  0  0  0
 46 47  1  1  0  0  0
 46 49  1  0  0  0  0
 47 48  1  0  0  0  0
 48132  1  0  0  0  0
 48133  1  0  0  0  0
 48134  1  0  0  0  0
 49 34  1  0  0  0  0
 49 35  1  0  0  0  0
 49135  1  1  0  0  0
 50 51  2  0  0  0  0
 50 52  1  0  0  0  0
 52 53  1  0  0  0  0
 52 54  2  0  0  0  0
 53136  1  0  0  0  0
 53137  1  0  0  0  0
 54 55  1  0  0  0  0
 54 56  1  0  0  0  0
 55138  1  0  0  0  0
 55139  1  0  0  0  0
 55140  1  0  0  0  0
 56 57  2  0  0  0  0
 58 59  2  0  0  0  0
 58141  1  0  0  0  0
 59142  1  0  0  0  0
 60 61  1  0  0  0  0
 61 62  2  0  0  0  0
 61 63  1  0  0  0  0
 63 64  1  0  0  0  0
 63143  1  0  0  0  0
 63144  1  0  0  0  0
 64 65  1  0  0  0  0
 64145  1  0  0  0  0
 64146  1  0  0  0  0
 65 66  1  0  0  0  0
 65147  1  0  0  0  0
 65148  1  0  0  0  0
 66 67  1  0  0  0  0
 66149  1  0  0  0  0
 66150  1  0  0  0  0
 67 68  1  0  0  0  0
 67151  1  0  0  0  0
 67152  1  0  0  0  0
 68 69  1  0  0  0  0
 68153  1  0  0  0  0
 68154  1  0  0  0  0
 69 70  1  0  0  0  0
 69155  1  0  0  0  0
 69156  1  0  0  0  0
 70 71  1  0  0  0  0
 70157  1  0  0  0  0
 70158  1  0  0  0  0
 71 72  1  0  0  0  0
 71159  1  0  0  0  0
 71160  1  0  0  0  0
 72 73  1  0  0  0  0
 72161  1  0  0  0  0
 72162  1  0  0  0  0
 73 74  1  0  0  0  0
 73163  1  0  0  0  0
 73164  1  0  0  0  0
 74 75  1  0  0  0  0
 74165  1  0  0  0  0
 74166  1  0  0  0  0
 75 76  1  0  0  0  0
 75167  1  0  0  0  0
 75168  1  0  0  0  0
 76 77  1  0  0  0  0
 76169  1  0  0  0  0
 76170  1  0  0  0  0
 77 78  1  0  0  0  0
 77171  1  0  0  0  0
 77172  1  0  0  0  0
 78 79  1  0  0  0  0
 78173  1  0  0  0  0
 78174  1  0  0  0  0
 79175  1  0  0  0  0
 79176  1  0  0  0  0
 79177  1  0  0  0  0
M  END
>  <DRUGBANK_ID>
DB15372

>  <COMMON_NAME>
JNJ-27548547

>  <CAS_NUMBER>
303983-00-8

>  <UNII>
3I8JKL1CHB

>  <SYNONYMS>
PROMITIL

$$$$
