
 OpenBabel10282417072D

 79 82  0  0  1  0  0  0  0  0999 V2000
    8.2728   -9.1932    0.0000 C   0  0  0  0  0  0  0  0  0  0  0  0
    8.2728  -10.0182    0.0000 C   0  0  2  0  0  0  0  0  0  0  0  0
    8.9872  -10.4307    0.0000 C   0  0  0  0  0  0  0  0  0  0  0  0
    9.7017  -10.0182    0.0000 C   0  0  2  0  0  0  0  0  0  0  0  0
    9.7017   -9.1932    0.0000 C   0  0  2  0  0  0  0  0  0  0  0  0
    8.9872   -8.7806    0.0000 C   0  0  0  0  0  0  0  0  0  0  0  0
   10.4162  -10.4307    0.0000 C   0  0  0  0  0  0  0  0  0  0  0  0
   11.1306  -10.0182    0.0000 C   0  0  2  0  0  0  0  0  0  0  0  0
   11.1306   -9.1932    0.0000 C   0  0  2  0  0  0  0  0  0  0  0  0
   10.4162   -8.7806    0.0000 C   0  0  2  0  0  0  0  0  0  0  0  0
   11.8451   -8.7806    0.0000 C   0  0  1  0  0  0  0  0  0  0  0  0
   11.8451   -7.9556    0.0000 C   0  0  2  0  0  0  0  0  0  0  0  0
   11.1306   -7.5431    0.0000 C   0  0  0  0  0  0  0  0  0  0  0  0
   10.4162   -7.9556    0.0000 C   0  0  0  0  0  0  0  0  0  0  0  0
   12.6298   -9.0355    0.0000 C   0  0  0  0  0  0  0  0  0  0  0  0
   13.1148   -8.3681    0.0000 C   0  0  0  0  0  0  0  0  0  0  0  0
   12.6298   -7.7007    0.0000 C   0  0  2  0  0  0  0  0  0  0  0  0
    7.5582  -10.4307    0.0000 O   0  0  0  0  0  0  0  0  0  0  0  0
   11.9314   -7.1351    0.0000 C   0  0  0  0  0  0  0  0  0  0  0  0
   12.8848   -6.9160    0.0000 C   0  0  2  0  0  0  0  0  0  0  0  0
   12.3328   -6.3029    0.0000 C   0  0  0  0  0  0  0  0  0  0  0  0
   13.6918   -6.7445    0.0000 C   0  0  0  0  0  0  0  0  0  0  0  0
   13.9467   -5.9599    0.0000 C   0  0  0  0  0  0  0  0  0  0  0  0
   14.7537   -5.7883    0.0000 C   0  0  0  0  0  0  0  0  0  0  0  0
   10.4162   -9.6057    0.0000 H   0  0  0  0  0  0  0  0  0  0  0  0
    9.7017   -8.3681    0.0000 C   0  0  0  0  0  0  0  0  0  0  0  0
   11.1306   -8.3681    0.0000 H   0  0  0  0  0  0  0  0  0  0  0  0
   11.9314   -9.6011    0.0000 H   0  0  0  0  0  0  0  0  0  0  0  0
   13.3515   -7.5489    0.0000 H   0  0  0  0  0  0  0  0  0  0  0  0
    9.7075  -10.7113    0.0000 H   0  0  0  0  0  0  0  0  0  0  0  0
   15.0086   -5.0037    0.0000 N   0  0  0  0  0  0  0  0  0  0  0  0
   15.8156   -4.8321    0.0000 C   0  0  0  0  0  0  0  0  0  0  0  0
   15.3057   -6.4014    0.0000 O   0  0  0  0  0  0  0  0  0  0  0  0
   16.0704   -4.0475    0.0000 C   0  0  0  0  0  0  0  0  0  0  0  0
   16.8775   -3.8759    0.0000 S   0  0  0  0  0  0  0  0  0  0  0  0
   17.1323   -3.0913    0.0000 O   0  0  0  0  0  0  0  0  0  0  0  0
   17.4295   -4.4891    0.0000 O   0  0  0  0  0  0  0  0  0  0  0  0
   16.3254   -3.2629    0.0000 O   0  0  0  0  0  0  0  0  0  0  0  0
   11.8451  -10.4307    0.0000 O   0  0  0  0  0  0  0  0  0  0  0  0
    7.3461   -8.6583    0.0000 H   0  0  0  0  0  0  0  0  0  0  0  0
    8.2727   -8.1232    0.0000 H   0  0  0  0  0  0  0  0  0  0  0  0
    7.3462   -9.4832    0.0000 H   0  0  0  0  0  0  0  0  0  0  0  0
    8.9872  -11.5007    0.0000 H   0  0  0  0  0  0  0  0  0  0  0  0
    9.9138  -10.9657    0.0000 H   0  0  0  0  0  0  0  0  0  0  0  0
    8.9872   -7.7106    0.0000 H   0  0  0  0  0  0  0  0  0  0  0  0
    8.0605   -8.2457    0.0000 H   0  0  0  0  0  0  0  0  0  0  0  0
   10.4162  -11.5007    0.0000 H   0  0  0  0  0  0  0  0  0  0  0  0
   11.3429  -10.9657    0.0000 H   0  0  0  0  0  0  0  0  0  0  0  0
   11.1306  -11.0882    0.0000 H   0  0  0  0  0  0  0  0  0  0  0  0
   11.1306   -6.4731    0.0000 H   0  0  0  0  0  0  0  0  0  0  0  0
   10.2039   -7.0081    0.0000 H   0  0  0  0  0  0  0  0  0  0  0  0
    9.4895   -7.4206    0.0000 H   0  0  0  0  0  0  0  0  0  0  0  0
    9.4896   -8.4906    0.0000 H   0  0  0  0  0  0  0  0  0  0  0  0
   12.9604  -10.0531    0.0000 H   0  0  0  0  0  0  0  0  0  0  0  0
   13.6866   -9.2029    0.0000 H   0  0  0  0  0  0  0  0  0  0  0  0
   14.1848   -8.3681    0.0000 H   0  0  0  0  0  0  0  0  0  0  0  0
   13.6005   -7.4147    0.0000 H   0  0  0  0  0  0  0  0  0  0  0  0
    6.7182   -9.9456    0.0000 H   0  0  0  0  0  0  0  0  0  0  0  0
   12.9089   -6.7000    0.0000 H   0  0  0  0  0  0  0  0  0  0  0  0
   11.0658   -6.5061    0.0000 H   0  0  0  0  0  0  0  0  0  0  0  0
   12.0433   -6.0710    0.0000 H   0  0  0  0  0  0  0  0  0  0  0  0
   11.8382   -7.1384    0.0000 H   0  0  0  0  0  0  0  0  0  0  0  0
   12.6635   -5.2853    0.0000 H   0  0  0  0  0  0  0  0  0  0  0  0
   11.2862   -6.5253    0.0000 H   0  0  0  0  0  0  0  0  0  0  0  0
   11.6169   -5.5077    0.0000 H   0  0  0  0  0  0  0  0  0  0  0  0
   14.4078   -7.5397    0.0000 H   0  0  0  0  0  0  0  0  0  0  0  0
   14.7384   -6.5220    0.0000 H   0  0  0  0  0  0  0  0  0  0  0  0
   13.2307   -5.1648    0.0000 H   0  0  0  0  0  0  0  0  0  0  0  0
   14.2773   -4.9422    0.0000 H   0  0  0  0  0  0  0  0  0  0  0  0
   10.6283   -7.8331    0.0000 H   0  0  0  0  0  0  0  0  0  0  0  0
    8.7751   -7.8331    0.0000 H   0  0  0  0  0  0  0  0  0  0  0  0
    9.7017   -7.2981    0.0000 H   0  0  0  0  0  0  0  0  0  0  0  0
   14.3498   -4.2721    0.0000 H   0  0  0  0  0  0  0  0  0  0  0  0
   16.5317   -5.6272    0.0000 H   0  0  0  0  0  0  0  0  0  0  0  0
   16.8622   -4.6095    0.0000 H   0  0  0  0  0  0  0  0  0  0  0  0
   15.3543   -3.2524    0.0000 H   0  0  0  0  0  0  0  0  0  0  0  0
   16.4010   -3.0298    0.0000 H   0  0  0  0  0  0  0  0  0  0  0  0
   18.0811   -2.8895    0.0000 H   0  0  0  0  0  0  0  0  0  0  0  0
   11.8451  -11.4007    0.0000 H   0  0  0  0  0  0  0  0  0  0  0  0
  1  2  1  0  0  0  0
  1 40  1  0  0  0  0
  1 41  1  0  0  0  0
  2  3  1  0  0  0  0
  2 18  1  0  0  0  0
  2 42  1  1  0  0  0
  3  4  1  0  0  0  0
  3 43  1  0  0  0  0
  3 44  1  0  0  0  0
  4  5  1  0  0  0  0
  4  7  1  0  0  0  0
  4 30  1  1  0  0  0
  5  6  1  0  0  0  0
  5 26  1  1  0  0  0
  6  1  1  0  0  0  0
  6 45  1  0  0  0  0
  6 46  1  0  0  0  0
  7  8  1  0  0  0  0
  7 47  1  0  0  0  0
  7 48  1  0  0  0  0
  8  9  1  0  0  0  0
  8 39  1  0  0  0  0
  8 49  1  1  0  0  0
  9 10  1  0  0  0  0
  9 11  1  0  0  0  0
  9 27  1  1  0  0  0
 10  5  1  0  0  0  0
 10 25  1  6  0  0  0
 11 12  1  0  0  0  0
 11 15  1  0  0  0  0
 11 28  1  6  0  0  0
 12 13  1  0  0  0  0
 12 19  1  1  0  0  0
 13 14  1  0  0  0  0
 13 50  1  0  0  0  0
 13 51  1  0  0  0  0
 14 10  1  0  0  0  0
 14 52  1  0  0  0  0
 14 53  1  0  0  0  0
 15 16  1  0  0  0  0
 15 54  1  0  0  0  0
 15 55  1  0  0  0  0
 16 17  1  0  0  0  0
 16 56  1  0  0  0  0
 16 57  1  0  0  0  0
 17 12  1  0  0  0  0
 17 20  1  0  0  0  0
 17 29  1  6  0  0  0
 18 58  1  0  0  0  0
 19 59  1  0  0  0  0
 19 60  1  0  0  0  0
 19 61  1  0  0  0  0
 20 21  1  0  0  0  0
 20 22  1  0  0  0  0
 20 62  1  1  0  0  0
 21 63  1  0  0  0  0
 21 64  1  0  0  0  0
 21 65  1  0  0  0  0
 22 23  1  0  0  0  0
 22 66  1  0  0  0  0
 22 67  1  0  0  0  0
 23 24  1  0  0  0  0
 23 68  1  0  0  0  0
 23 69  1  0  0  0  0
 26 70  1  0  0  0  0
 26 71  1  0  0  0  0
 26 72  1  0  0  0  0
 31 24  1  0  0  0  0
 31 73  1  0  0  0  0
 32 31  1  0  0  0  0
 32 74  1  0  0  0  0
 32 75  1  0  0  0  0
 33 24  2  0  0  0  0
 34 32  1  0  0  0  0
 34 76  1  0  0  0  0
 34 77  1  0  0  0  0
 35 34  1  0  0  0  0
 36 35  1  0  0  0  0
 36 78  1  0  0  0  0
 37 35  2  0  0  0  0
 38 35  2  0  0  0  0
 39 79  1  0  0  0  0
M  END
>  <DRUGBANK_ID>
DB08833

>  <COMMON_NAME>
Taurochenodeoxycholic acid

>  <CAS_NUMBER>
516-35-8

>  <UNII>
651KU15938

>  <SYNONYMS>
Chenodeoxycholoyltaurine; Taurine chenodeoxycholate; Taurochenodeoxycholate; Taurochenodeoxycholic acid

$$$$
