
 OpenBabel10282417072D

 73 76  0  0  0  0  0  0  0  0999 V2000
   -2.4048    2.5820    0.0000 C   0  0  0  0  0  0  0  0  0  0  0  0
   -1.2767    3.4590    0.0000 C   0  0  0  0  0  0  0  0  0  0  0  0
   -1.3921    1.2793    0.0000 C   0  0  0  0  0  0  0  0  0  0  0  0
    1.3705    2.3821    0.0000 C   0  0  0  0  0  0  0  0  0  0  0  0
    4.5466    1.3336    0.0000 C   0  0  0  0  0  0  0  0  0  0  0  0
    2.0307    1.7357    0.0000 C   0  0  0  0  0  0  0  0  0  0  0  0
   -0.2640    2.1564    0.0000 C   0  0  0  0  0  0  0  0  0  0  0  0
    0.2424    1.5050    0.0000 C   0  0  0  0  0  0  0  0  0  0  0  0
    4.5754   -0.8489    0.0000 C   0  0  0  0  0  0  0  0  0  0  0  0
    3.7633   -0.7037    0.0000 C   0  0  0  0  0  0  0  0  0  0  0  0
    1.3367    0.1741    0.0000 C   0  0  0  0  0  0  0  0  0  0  0  0
    2.0195   -0.2889    0.0000 C   0  0  0  0  0  0  0  0  0  0  0  0
    6.1708    1.0432    0.0000 C   0  0  0  0  0  0  0  0  0  0  0  0
    3.7345    1.4789    0.0000 C   0  0  0  0  0  0  0  0  0  0  0  0
    5.3587    1.1884    0.0000 C   0  0  0  0  0  0  0  0  0  0  0  0
    2.9224    1.6241    0.0000 C   0  0  0  0  0  0  0  0  0  0  0  0
    5.9193   -0.3634    0.0000 C   0  0  0  0  0  0  0  0  0  0  0  0
   -1.5876    2.6948    0.0000 C   0  0  0  0  0  0  0  0  0  0  0  0
   -1.0812    2.0435    0.0000 C   0  0  1  0  0  0  0  0  0  0  0  0
    1.0596    1.6179    0.0000 C   0  0  2  0  0  0  0  0  0  0  0  0
    5.1072   -0.2182    0.0000 C   0  0  0  0  0  0  0  0  0  0  0  0
    6.4511    0.2673    0.0000 C   0  0  1  0  0  0  0  0  0  0  0  0
    3.4830    0.0722    0.0000 C   0  0  0  0  0  0  0  0  0  0  0  0
    1.5660    0.9666    0.0000 C   0  0  2  0  0  0  0  0  0  0  0  0
    2.6708    0.2174    0.0000 C   0  0  1  0  0  0  0  0  0  0  0  0
    4.0148    0.7029    0.0000 C   0  0  1  0  0  0  0  0  0  0  0  0
    4.8269    0.5577    0.0000 C   0  0  2  0  0  0  0  0  0  0  0  0
    2.3905    0.9934    0.0000 C   0  0  1  0  0  0  0  0  0  0  0  0
    7.2632    0.1221    0.0000 O   0  0  0  0  0  0  0  0  0  0  0  0
    0.0469    2.9205    0.0000 H   0  0  0  0  0  0  0  0  0  0  0  0
   -0.0685    0.7409    0.0000 H   0  0  0  0  0  0  0  0  0  0  0  0
   -0.5749    1.3922    0.0000 H   0  0  0  0  0  0  0  0  0  0  0  0
    0.5533    2.2692    0.0000 H   0  0  0  0  0  0  0  0  0  0  0  0
    6.7314   -0.5086    0.0000 H   0  0  0  0  0  0  0  0  0  0  0  0
    0.7557    0.8111    0.0000 H   0  0  0  0  0  0  0  0  0  0  0  0
    2.8685   -0.5835    0.0000 H   0  0  0  0  0  0  0  0  0  0  0  0
    3.2027    0.8481    0.0000 H   0  0  0  0  0  0  0  0  0  0  0  0
   -3.0615    3.4268    0.0000 H   0  0  0  0  0  0  0  0  0  0  0  0
   -2.8081    1.5909    0.0000 H   0  0  0  0  0  0  0  0  0  0  0  0
   -3.4648    2.4357    0.0000 H   0  0  0  0  0  0  0  0  0  0  0  0
   -0.2168    3.6054    0.0000 H   0  0  0  0  0  0  0  0  0  0  0  0
   -1.9334    4.3038    0.0000 H   0  0  0  0  0  0  0  0  0  0  0  0
   -0.8735    4.4501    0.0000 H   0  0  0  0  0  0  0  0  0  0  0  0
   -2.4520    1.1329    0.0000 H   0  0  0  0  0  0  0  0  0  0  0  0
   -0.7354    0.4345    0.0000 H   0  0  0  0  0  0  0  0  0  0  0  0
   -1.7953    0.2882    0.0000 H   0  0  0  0  0  0  0  0  0  0  0  0
    2.4304    2.5285    0.0000 H   0  0  0  0  0  0  0  0  0  0  0  0
    0.7138    3.2269    0.0000 H   0  0  0  0  0  0  0  0  0  0  0  0
    1.7737    3.3732    0.0000 H   0  0  0  0  0  0  0  0  0  0  0  0
    5.2363    2.1516    0.0000 H   0  0  0  0  0  0  0  0  0  0  0  0
    3.4933    1.5219    0.0000 H   0  0  0  0  0  0  0  0  0  0  0  0
    4.1830    2.3399    0.0000 H   0  0  0  0  0  0  0  0  0  0  0  0
    2.6312    2.6213    0.0000 H   0  0  0  0  0  0  0  0  0  0  0  0
    0.9635    1.8129    0.0000 H   0  0  0  0  0  0  0  0  0  0  0  0
    1.5640    2.6986    0.0000 H   0  0  0  0  0  0  0  0  0  0  0  0
    4.9260   -1.8195    0.0000 H   0  0  0  0  0  0  0  0  0  0  0  0
    3.0981   -1.4927    0.0000 H   0  0  0  0  0  0  0  0  0  0  0  0
    0.3303   -0.1894    0.0000 H   0  0  0  0  0  0  0  0  0  0  0  0
    0.5559    0.9057    0.0000 H   0  0  0  0  0  0  0  0  0  0  0  0
    2.0542   -1.3583    0.0000 H   0  0  0  0  0  0  0  0  0  0  0  0
    2.9881   -0.7435    0.0000 H   0  0  0  0  0  0  0  0  0  0  0  0
    6.8605    1.8612    0.0000 H   0  0  0  0  0  0  0  0  0  0  0  0
    7.2241    0.8549    0.0000 H   0  0  0  0  0  0  0  0  0  0  0  0
    4.4243    2.2969    0.0000 H   0  0  0  0  0  0  0  0  0  0  0  0
    4.7878    1.2905    0.0000 H   0  0  0  0  0  0  0  0  0  0  0  0
    4.9951    2.1947    0.0000 H   0  0  0  0  0  0  0  0  0  0  0  0
    4.3054    1.3767    0.0000 H   0  0  0  0  0  0  0  0  0  0  0  0
    2.5589    2.6305    0.0000 H   0  0  0  0  0  0  0  0  0  0  0  0
    1.8691    1.8125    0.0000 H   0  0  0  0  0  0  0  0  0  0  0  0
    6.2829   -1.3697    0.0000 H   0  0  0  0  0  0  0  0  0  0  0  0
    6.9726   -0.5517    0.0000 H   0  0  0  0  0  0  0  0  0  0  0  0
   -0.5277    2.8412    0.0000 H   0  0  0  0  0  0  0  0  0  0  0  0
    7.5928   -0.7902    0.0000 H   0  0  0  0  0  0  0  0  0  0  0  0
  1 38  1  0  0  0  0
  1 39  1  0  0  0  0
  1 40  1  0  0  0  0
  2 41  1  0  0  0  0
  2 42  1  0  0  0  0
  2 43  1  0  0  0  0
  3 44  1  0  0  0  0
  3 45  1  0  0  0  0
  3 46  1  0  0  0  0
  4 47  1  0  0  0  0
  4 48  1  0  0  0  0
  4 49  1  0  0  0  0
  5 50  1  0  0  0  0
  5 51  1  0  0  0  0
  5 52  1  0  0  0  0
  6 53  1  0  0  0  0
  6 54  1  0  0  0  0
  6 55  1  0  0  0  0
  8  7  2  0  0  0  0
  9 56  1  0  0  0  0
 10  9  1  0  0  0  0
 10 57  1  0  0  0  0
 11 58  1  0  0  0  0
 11 59  1  0  0  0  0
 12 11  1  0  0  0  0
 12 60  1  0  0  0  0
 12 61  1  0  0  0  0
 13 62  1  0  0  0  0
 13 63  1  0  0  0  0
 14 64  1  0  0  0  0
 14 65  1  0  0  0  0
 15 13  1  0  0  0  0
 15 66  1  0  0  0  0
 15 67  1  0  0  0  0
 16 14  1  0  0  0  0
 16 68  1  0  0  0  0
 16 69  1  0  0  0  0
 17 70  1  0  0  0  0
 17 71  1  0  0  0  0
 18  1  1  0  0  0  0
 18  2  1  0  0  0  0
 18 72  1  0  0  0  0
 19  3  1  0  0  0  0
 19  7  1  0  0  0  0
 19 18  1  0  0  0  0
 19 32  1  1  0  0  0
 20  4  1  0  0  0  0
 20  8  1  0  0  0  0
 20 33  1  6  0  0  0
 21  9  2  0  0  0  0
 21 17  1  0  0  0  0
 22 13  1  0  0  0  0
 22 17  1  0  0  0  0
 22 29  1  0  0  0  0
 22 34  1  1  0  0  0
 23 10  2  0  0  0  0
 24 11  1  0  0  0  0
 24 20  1  0  0  0  0
 24 28  1  0  0  0  0
 24 35  1  1  0  0  0
 25 12  1  0  0  0  0
 25 23  1  0  0  0  0
 25 36  1  1  0  0  0
 26 14  1  0  0  0  0
 26 23  1  0  0  0  0
 26 27  1  0  0  0  0
 26 37  1  1  0  0  0
 27  5  1  6  0  0  0
 27 15  1  0  0  0  0
 27 21  1  0  0  0  0
 28  6  1  6  0  0  0
 28 16  1  0  0  0  0
 28 25  1  0  0  0  0
 29 73  1  0  0  0  0
 30  7  1  0  0  0  0
 31  8  1  0  0  0  0
M  END
>  <DRUGBANK_ID>
DB04038

>  <SECONDARY_ACCESSION_NUMBERS>
EXPT01357

>  <COMMON_NAME>
Ergosterol

>  <CAS_NUMBER>
57-87-4

>  <UNII>
Z30RAY509F

>  <SYNONYMS>
(22E,24S)-24-methylcholesta-5,7,22-trien-3Î²-ol; Provitamin D2

$$$$
