A41
 OpenBabel10282417072D

 33 34  0  0  0  0  0  0  0  0999 V2000
    1.1023    2.4294    0.0000 C   0  0  0  0  0  0  0  0  0  0  0  0
    1.8168    2.0169    0.0000 C   0  0  0  0  0  0  0  0  0  0  0  0
    1.8168    1.1919    0.0000 C   0  0  0  0  0  0  0  0  0  0  0  0
    1.1023    0.7794    0.0000 C   0  0  0  0  0  0  0  0  0  0  0  0
    0.3878    1.1919    0.0000 C   0  0  0  0  0  0  0  0  0  0  0  0
    0.3878    2.0169    0.0000 C   0  0  0  0  0  0  0  0  0  0  0  0
    1.1023   -0.0456    0.0000 S   0  0  0  0  0  0  0  0  0  0  0  0
    1.1023   -0.8706    0.0000 N   0  0  0  0  0  0  0  0  0  0  0  0
    0.2773   -0.0456    0.0000 O   0  0  0  0  0  0  0  0  0  0  0  0
    1.9273   -0.0456    0.0000 O   0  0  0  0  0  0  0  0  0  0  0  0
    0.3878   -1.2831    0.0000 C   0  0  0  0  0  0  0  0  0  0  0  0
    0.3878   -2.1081    0.0000 C   0  0  0  0  0  0  0  0  0  0  0  0
   -0.3266   -2.5206    0.0000 C   0  0  0  0  0  0  0  0  0  0  0  0
   -1.0411   -2.1081    0.0000 C   0  0  0  0  0  0  0  0  0  0  0  0
   -1.0411   -1.2831    0.0000 C   0  0  0  0  0  0  0  0  0  0  0  0
   -0.3266   -0.8706    0.0000 C   0  0  0  0  0  0  0  0  0  0  0  0
   -0.3266   -0.0456    0.0000 C   0  0  0  0  0  0  0  0  0  0  0  0
   -1.0411    0.3669    0.0000 O   0  0  0  0  0  0  0  0  0  0  0  0
    0.3878    0.3669    0.0000 O   0  0  0  0  0  0  0  0  0  0  0  0
   -1.7556   -2.5206    0.0000 C   0  0  0  0  0  0  0  0  0  0  0  0
    1.1023    3.4614    0.0000 H   0  0  0  0  0  0  0  0  0  0  0  0
    2.7105    2.5329    0.0000 H   0  0  0  0  0  0  0  0  0  0  0  0
    2.7105    0.6759    0.0000 H   0  0  0  0  0  0  0  0  0  0  0  0
   -0.5059    0.6759    0.0000 H   0  0  0  0  0  0  0  0  0  0  0  0
   -0.5059    2.5329    0.0000 H   0  0  0  0  0  0  0  0  0  0  0  0
    1.9549   -1.3629    0.0000 H   0  0  0  0  0  0  0  0  0  0  0  0
    1.2815   -2.6241    0.0000 H   0  0  0  0  0  0  0  0  0  0  0  0
   -0.3266   -3.5526    0.0000 H   0  0  0  0  0  0  0  0  0  0  0  0
   -1.9348   -0.7671    0.0000 H   0  0  0  0  0  0  0  0  0  0  0  0
   -1.0411    1.3039    0.0000 H   0  0  0  0  0  0  0  0  0  0  0  0
   -2.6822   -1.9856    0.0000 H   0  0  0  0  0  0  0  0  0  0  0  0
   -1.7556   -3.5906    0.0000 H   0  0  0  0  0  0  0  0  0  0  0  0
   -2.6823   -3.0556    0.0000 H   0  0  0  0  0  0  0  0  0  0  0  0
  1  2  1  0  0  0  0
  1  6  2  0  0  0  0
  1 21  1  0  0  0  0
  2  3  2  0  0  0  0
  2 22  1  0  0  0  0
  3  4  1  0  0  0  0
  3 23  1  0  0  0  0
  4  5  2  0  0  0  0
  4  7  1  0  0  0  0
  5  6  1  0  0  0  0
  5 24  1  0  0  0  0
  6 25  1  0  0  0  0
  7  8  1  0  0  0  0
  7  9  2  0  0  0  0
  7 10  2  0  0  0  0
  8 11  1  0  0  0  0
  8 26  1  0  0  0  0
 11 12  2  0  0  0  0
 11 16  1  0  0  0  0
 12 13  1  0  0  0  0
 12 27  1  0  0  0  0
 13 14  2  0  0  0  0
 13 28  1  0  0  0  0
 14 15  1  0  0  0  0
 14 20  1  0  0  0  0
 15 16  2  0  0  0  0
 15 29  1  0  0  0  0
 16 17  1  0  0  0  0
 17 18  1  0  0  0  0
 17 19  2  0  0  0  0
 18 30  1  0  0  0  0
 20 31  1  0  0  0  0
 20 32  1  0  0  0  0
 20 33  1  0  0  0  0
M  END
>  <DRUGBANK_ID>
DB07313

>  <COMMON_NAME>
5-METHYL-2-[(PHENYLSULFONYL)AMINO]BENZOIC ACID

>  <UNII>
BQ6W7H7DKV

$$$$
