
 OpenBabel10282417072D

 29 28  0  0  0  0  0  0  0  0999 V2000
    2.2539   -2.4750    0.0000 C   0  0  0  0  0  0  0  0  0  0  0  0
    1.5395   -2.0625    0.0000 C   0  0  0  0  0  0  0  0  0  0  0  0
    1.5395   -1.2375    0.0000 C   0  0  0  0  0  0  0  0  0  0  0  0
    0.8250   -0.8250    0.0000 C   0  0  0  0  0  0  0  0  0  0  0  0
    0.8250    0.0000    0.0000 P   0  0  3  0  0  0  0  0  0  0  0  0
    1.6500   -0.0000    0.0000 O   0  0  0  0  0  0  0  0  0  0  0  0
    0.8250    0.8250    0.0000 C   0  0  0  0  0  0  0  0  0  0  0  0
    0.1105    1.2375    0.0000 C   0  0  0  0  0  0  0  0  0  0  0  0
    0.1105    2.0625    0.0000 C   0  0  0  0  0  0  0  0  0  0  0  0
   -0.6039    2.4750    0.0000 N   0  0  0  0  0  0  0  0  0  0  0  0
    0.0000    0.0000    0.0000 O   0  0  0  0  0  0  0  0  0  0  0  0
    2.2539   -3.5450    0.0000 H   0  0  0  0  0  0  0  0  0  0  0  0
    3.1806   -1.9400    0.0000 H   0  0  0  0  0  0  0  0  0  0  0  0
    3.1805   -3.0100    0.0000 H   0  0  0  0  0  0  0  0  0  0  0  0
    0.6128   -2.5975    0.0000 H   0  0  0  0  0  0  0  0  0  0  0  0
    0.6129   -1.5275    0.0000 H   0  0  0  0  0  0  0  0  0  0  0  0
    2.4661   -0.7025    0.0000 H   0  0  0  0  0  0  0  0  0  0  0  0
    1.5395   -0.1675    0.0000 H   0  0  0  0  0  0  0  0  0  0  0  0
   -0.1016   -1.3600    0.0000 H   0  0  0  0  0  0  0  0  0  0  0  0
   -0.1016   -0.2900    0.0000 H   0  0  0  0  0  0  0  0  0  0  0  0
    1.7516    1.3600    0.0000 H   0  0  0  0  0  0  0  0  0  0  0  0
    0.8250    1.8950    0.0000 H   0  0  0  0  0  0  0  0  0  0  0  0
   -0.8161    0.7025    0.0000 H   0  0  0  0  0  0  0  0  0  0  0  0
   -0.8161    1.7725    0.0000 H   0  0  0  0  0  0  0  0  0  0  0  0
    1.0372    2.5975    0.0000 H   0  0  0  0  0  0  0  0  0  0  0  0
    0.1105    3.1325    0.0000 H   0  0  0  0  0  0  0  0  0  0  0  0
   -0.6039    3.4950    0.0000 H   0  0  0  0  0  0  0  0  0  0  0  0
   -1.4873    1.9650    0.0000 H   0  0  0  0  0  0  0  0  0  0  0  0
   -0.4850    0.8400    0.0000 H   0  0  0  0  0  0  0  0  0  0  0  0
  1  2  1  0  0  0  0
  1 12  1  0  0  0  0
  1 13  1  0  0  0  0
  1 14  1  0  0  0  0
  2  3  1  0  0  0  0
  2 15  1  0  0  0  0
  2 16  1  0  0  0  0
  3  4  1  0  0  0  0
  3 17  1  0  0  0  0
  3 18  1  0  0  0  0
  4  5  1  0  0  0  0
  4 19  1  0  0  0  0
  4 20  1  0  0  0  0
  5  6  2  0  0  0  0
  5  7  1  0  0  0  0
  5 11  1  0  0  0  0
  7  8  1  0  0  0  0
  7 21  1  0  0  0  0
  7 22  1  0  0  0  0
  8  9  1  0  0  0  0
  8 23  1  0  0  0  0
  8 24  1  0  0  0  0
  9 10  1  0  0  0  0
  9 25  1  0  0  0  0
  9 26  1  0  0  0  0
 10 27  1  0  0  0  0
 10 28  1  0  0  0  0
 11 29  1  0  0  0  0
M  END
>  <DRUGBANK_ID>
DB05010

>  <SECONDARY_ACCESSION_NUMBERS>
DB12646

>  <COMMON_NAME>
SGS-742

>  <CAS_NUMBER>
123690-78-8

>  <UNII>
GBZ5UC0RME

>  <SYNONYMS>
(3-Aminopropyl)(n-butyl)phosphinic acid; 3-Aminopropyl-Butyl Phosphinic Acid; SGS 742; SGS-742; SGS742

$$$$
