
 OpenBabel10282417072D

 26 27  0  0  0  0  0  0  0  0999 V2000
    0.3738    2.3801    0.0000 F   0  0  0  0  0  0  0  0  0  0  0  0
    1.1988    3.2051    0.0000 F   0  0  0  0  0  0  0  0  0  0  0  0
    2.0238    2.3801    0.0000 F   0  0  0  0  0  0  0  0  0  0  0  0
   -0.2301   -0.0947    0.0000 N   0  0  0  0  0  0  0  0  0  0  0  0
   -0.2301   -0.9198    0.0000 N   0  0  0  0  0  0  0  0  0  0  0  0
   -2.2503   -1.6099    0.0000 N   0  0  0  0  0  0  0  0  0  0  0  0
   -1.8378   -2.3243    0.0000 N   0  0  0  0  0  0  0  0  0  0  0  0
   -1.8698   -0.1898    0.0000 N   0  0  0  0  0  0  0  0  0  0  0  0
   -0.4177   -2.7048    0.0000 N   0  0  0  0  0  0  0  0  0  0  0  0
    1.1988    1.5551    0.0000 C   0  0  0  0  0  0  0  0  0  0  0  0
    0.4843    0.3177    0.0000 C   0  0  0  0  0  0  0  0  0  0  0  0
    0.4843    1.1426    0.0000 C   0  0  0  0  0  0  0  0  0  0  0  0
    1.9132    1.1426    0.0000 C   0  0  0  0  0  0  0  0  0  0  0  0
    1.1988   -0.0947    0.0000 C   0  0  0  0  0  0  0  0  0  0  0  0
    1.9132    0.3177    0.0000 C   0  0  0  0  0  0  0  0  0  0  0  0
    1.1988    2.3801    0.0000 C   0  0  0  0  0  0  0  0  0  0  0  0
   -0.9446   -1.3323    0.0000 C   0  0  0  0  0  0  0  0  0  0  0  0
   -1.6982   -0.9967    0.0000 C   0  0  0  0  0  0  0  0  0  0  0  0
   -1.0308   -2.1528    0.0000 C   0  0  0  0  0  0  0  0  0  0  0  0
   -1.0827    0.3976    0.0000 H   0  0  0  0  0  0  0  0  0  0  0  0
   -1.1382    0.4690    0.0000 H   0  0  0  0  0  0  0  0  0  0  0  0
   -0.6224   -3.6678    0.0000 H   0  0  0  0  0  0  0  0  0  0  0  0
   -0.4094    1.6586    0.0000 H   0  0  0  0  0  0  0  0  0  0  0  0
    2.8069    1.6586    0.0000 H   0  0  0  0  0  0  0  0  0  0  0  0
    1.1988   -1.1267    0.0000 H   0  0  0  0  0  0  0  0  0  0  0  0
    2.8069   -0.1983    0.0000 H   0  0  0  0  0  0  0  0  0  0  0  0
  1 16  1  0  0  0  0
  2 16  1  0  0  0  0
  3 16  1  0  0  0  0
  4  5  1  0  0  0  0
  4 11  1  0  0  0  0
  4 20  1  0  0  0  0
  5 17  2  0  0  0  0
  6  7  2  0  0  0  0
  6 18  1  0  0  0  0
  7 19  1  0  0  0  0
  8 18  2  0  0  0  0
  8 21  1  0  0  0  0
  9 19  2  0  0  0  0
  9 22  1  0  0  0  0
 10 12  2  0  0  0  0
 10 13  1  0  0  0  0
 10 16  1  0  0  0  0
 11 12  1  0  0  0  0
 11 14  2  0  0  0  0
 12 23  1  0  0  0  0
 13 15  2  0  0  0  0
 13 24  1  0  0  0  0
 14 15  1  0  0  0  0
 14 25  1  0  0  0  0
 15 26  1  0  0  0  0
 17 18  1  0  0  0  0
 17 19  1  0  0  0  0
M  END
>  <DRUGBANK_ID>
DB08666

>  <COMMON_NAME>
5-imino-4-(3-trifluoromethyl-phenylazo)-5H-pyrazol-3-ylamine

$$$$
