
 OpenBabel10282417072D

 80 83  0  0  0  0  0  0  0  0999 V2000
   -2.8732   -0.9476    0.0000 C   0  0  0  0  0  0  0  0  0  0  0  0
   -3.5958   -1.3443    0.0000 C   0  0  0  0  0  0  0  0  0  0  0  0
   -3.5958   -2.1834    0.0000 C   0  0  1  0  0  0  0  0  0  0  0  0
   -2.8732   -2.5956    0.0000 C   0  0  0  0  0  0  0  0  0  0  0  0
   -2.1735   -2.1834    0.0000 C   0  0  0  0  0  0  0  0  0  0  0  0
   -1.4586   -2.5956    0.0000 C   0  0  0  0  0  0  0  0  0  0  0  0
   -2.1735   -1.3443    0.0000 C   0  0  2  0  0  0  0  0  0  0  0  0
   -1.4586   -0.1395    0.0000 C   0  0  0  0  0  0  0  0  0  0  0  0
   -0.7278    0.2804    0.0000 C   0  0  0  0  0  0  0  0  0  0  0  0
   -0.0280   -0.1395    0.0000 C   0  0  1  0  0  0  0  0  0  0  0  0
   -0.0280   -0.9476    0.0000 C   0  0  1  0  0  0  0  0  0  0  0  0
    0.7566   -1.2043    0.0000 C   0  0  0  0  0  0  0  0  0  0  0  0
    1.2229   -0.5513    0.0000 C   0  0  0  0  0  0  0  0  0  0  0  0
    0.7566    0.1169    0.0000 C   0  0  2  0  0  0  0  0  0  0  0  0
   -0.0280    0.7079    0.0000 C   0  0  0  0  0  0  0  0  0  0  0  0
   -2.1735   -0.5358    0.0000 C   0  0  0  0  0  0  0  0  0  0  0  0
   -0.0280   -1.7794    0.0000 H   0  0  0  0  0  0  0  0  0  0  0  0
    1.4797    0.5214    0.0000 H   0  0  0  0  0  0  0  0  0  0  0  0
   -4.3291   -2.6143    0.0000 O   0  0  0  0  0  0  0  0  0  0  0  0
   -1.4586   -0.9476    0.0000 C   0  0  1  0  0  0  0  0  0  0  0  0
   -1.4586   -1.7730    0.0000 H   0  0  0  0  0  0  0  0  0  0  0  0
    0.0421    1.3767    0.0000 C   0  0  0  0  0  0  0  0  0  0  0  0
   -0.7278   -1.3443    0.0000 C   0  0  1  0  0  0  0  0  0  0  0  0
   -0.7278   -0.5191    0.0000 H   0  0  0  0  0  0  0  0  0  0  0  0
   -0.7278   -2.1834    0.0000 C   0  0  0  0  0  0  0  0  0  0  0  0
    2.1857    0.9643    0.0000 C   0  0  0  0  0  0  0  0  0  0  0  0
    2.9000    1.3767    0.0000 C   0  0  2  0  0  0  0  0  0  0  0  0
    3.6145    0.9643    0.0000 C   0  0  0  0  0  0  0  0  0  0  0  0
    3.6145    0.1393    0.0000 C   0  0  0  0  0  0  0  0  0  0  0  0
    1.4711    1.3767    0.0000 C   0  0  0  0  0  0  0  0  0  0  0  0
    0.7566    0.9643    0.0000 C   0  0  2  0  0  0  0  0  0  0  0  0
    4.3291    1.3767    0.0000 C   0  0  0  0  0  0  0  0  0  0  0  0
    2.9000    2.2018    0.0000 C   0  0  0  0  0  0  0  0  0  0  0  0
    3.6145    2.6143    0.0000 C   0  0  0  0  0  0  0  0  0  0  0  0
   -2.8659    0.1224    0.0000 H   0  0  0  0  0  0  0  0  0  0  0  0
   -3.7922   -0.3995    0.0000 H   0  0  0  0  0  0  0  0  0  0  0  0
   -4.5166   -0.7994    0.0000 H   0  0  0  0  0  0  0  0  0  0  0  0
   -4.5253   -1.8743    0.0000 H   0  0  0  0  0  0  0  0  0  0  0  0
   -3.5889   -3.2534    0.0000 H   0  0  0  0  0  0  0  0  0  0  0  0
   -2.8657   -3.6656    0.0000 H   0  0  0  0  0  0  0  0  0  0  0  0
   -3.7966   -3.1362    0.0000 H   0  0  0  0  0  0  0  0  0  0  0  0
   -1.4635   -3.6276    0.0000 H   0  0  0  0  0  0  0  0  0  0  0  0
   -2.3847    0.3965    0.0000 H   0  0  0  0  0  0  0  0  0  0  0  0
   -1.4569    0.9305    0.0000 H   0  0  0  0  0  0  0  0  0  0  0  0
   -0.7177    1.3504    0.0000 H   0  0  0  0  0  0  0  0  0  0  0  0
   -1.6513    0.8207    0.0000 H   0  0  0  0  0  0  0  0  0  0  0  0
    1.0904   -2.2209    0.0000 H   0  0  0  0  0  0  0  0  0  0  0  0
    1.8144   -1.3657    0.0000 H   0  0  0  0  0  0  0  0  0  0  0  0
    2.2929   -0.5571    0.0000 H   0  0  0  0  0  0  0  0  0  0  0  0
    1.7100   -1.5040    0.0000 H   0  0  0  0  0  0  0  0  0  0  0  0
    0.8986    1.2429    0.0000 H   0  0  0  0  0  0  0  0  0  0  0  0
   -0.9546    1.2429    0.0000 H   0  0  0  0  0  0  0  0  0  0  0  0
   -0.0280    1.7779    0.0000 H   0  0  0  0  0  0  0  0  0  0  0  0
   -1.2469   -0.0008    0.0000 H   0  0  0  0  0  0  0  0  0  0  0  0
   -3.1001   -0.0008    0.0000 H   0  0  0  0  0  0  0  0  0  0  0  0
   -2.1735    0.5342    0.0000 H   0  0  0  0  0  0  0  0  0  0  0  0
   -5.1728   -2.1358    0.0000 H   0  0  0  0  0  0  0  0  0  0  0  0
    0.0420    2.4467    0.0000 H   0  0  0  0  0  0  0  0  0  0  0  0
   -0.8845    0.8416    0.0000 H   0  0  0  0  0  0  0  0  0  0  0  0
   -0.8846    1.9116    0.0000 H   0  0  0  0  0  0  0  0  0  0  0  0
    0.1961   -2.7230    0.0000 H   0  0  0  0  0  0  0  0  0  0  0  0
   -0.7359   -3.2534    0.0000 H   0  0  0  0  0  0  0  0  0  0  0  0
    2.1858   -0.1057    0.0000 H   0  0  0  0  0  0  0  0  0  0  0  0
    3.1124    0.4293    0.0000 H   0  0  0  0  0  0  0  0  0  0  0  0
    1.9734    1.9117    0.0000 H   0  0  0  0  0  0  0  0  0  0  0  0
    4.5411    0.4292    0.0000 H   0  0  0  0  0  0  0  0  0  0  0  0
    2.6879   -0.3957    0.0000 H   0  0  0  0  0  0  0  0  0  0  0  0
    4.5411   -0.3957    0.0000 H   0  0  0  0  0  0  0  0  0  0  0  0
    3.6145   -0.9307    0.0000 H   0  0  0  0  0  0  0  0  0  0  0  0
    1.4711    2.4467    0.0000 H   0  0  0  0  0  0  0  0  0  0  0  0
    0.5445    1.9117    0.0000 H   0  0  0  0  0  0  0  0  0  0  0  0
   -0.1700    0.4292    0.0000 H   0  0  0  0  0  0  0  0  0  0  0  0
    5.2556    0.8415    0.0000 H   0  0  0  0  0  0  0  0  0  0  0  0
    4.3293    2.4467    0.0000 H   0  0  0  0  0  0  0  0  0  0  0  0
    5.2558    1.9115    0.0000 H   0  0  0  0  0  0  0  0  0  0  0  0
    1.9734    2.7368    0.0000 H   0  0  0  0  0  0  0  0  0  0  0  0
    2.9000    3.2718    0.0000 H   0  0  0  0  0  0  0  0  0  0  0  0
    4.5411    2.0793    0.0000 H   0  0  0  0  0  0  0  0  0  0  0  0
    3.6145    3.6843    0.0000 H   0  0  0  0  0  0  0  0  0  0  0  0
    4.5412    3.1493    0.0000 H   0  0  0  0  0  0  0  0  0  0  0  0
  1  7  1  0  0  0  0
  1 35  1  0  0  0  0
  1 36  1  0  0  0  0
  2  1  1  0  0  0  0
  2 37  1  0  0  0  0
  2 38  1  0  0  0  0
  3  4  1  0  0  0  0
  3  2  1  0  0  0  0
  3 19  1  0  0  0  0
  3 39  1  6  0  0  0
  4  5  1  0  0  0  0
  4 40  1  0  0  0  0
  4 41  1  0  0  0  0
  5  7  1  0  0  0  0
  6 25  1  0  0  0  0
  6  5  2  0  0  0  0
  6 42  1  0  0  0  0
  7 20  1  0  0  0  0
  7 16  1  1  0  0  0
  8 20  1  0  0  0  0
  8  9  1  0  0  0  0
  8 43  1  0  0  0  0
  8 44  1  0  0  0  0
  9 10  1  0  0  0  0
  9 45  1  0  0  0  0
  9 46  1  0  0  0  0
 10 15  1  1  0  0  0
 11 10  1  0  0  0  0
 11 17  1  6  0  0  0
 12 11  1  0  0  0  0
 12 47  1  0  0  0  0
 12 48  1  0  0  0  0
 13 14  1  0  0  0  0
 13 12  1  0  0  0  0
 13 49  1  0  0  0  0
 13 50  1  0  0  0  0
 14 10  1  0  0  0  0
 14 18  1  6  0  0  0
 15 51  1  0  0  0  0
 15 52  1  0  0  0  0
 15 53  1  0  0  0  0
 16 54  1  0  0  0  0
 16 55  1  0  0  0  0
 16 56  1  0  0  0  0
 19 57  1  0  0  0  0
 20 21  1  6  0  0  0
 22 58  1  0  0  0  0
 22 59  1  0  0  0  0
 22 60  1  0  0  0  0
 23 11  1  0  0  0  0
 23 20  1  0  0  0  0
 23 24  1  1  0  0  0
 25 23  1  0  0  0  0
 25 61  1  0  0  0  0
 25 62  1  0  0  0  0
 26 63  1  0  0  0  0
 26 64  1  0  0  0  0
 27 26  1  0  0  0  0
 27 33  1  0  0  0  0
 27 65  1  6  0  0  0
 28 27  1  0  0  0  0
 28 66  1  0  0  0  0
 29 28  1  0  0  0  0
 29 67  1  0  0  0  0
 29 68  1  0  0  0  0
 29 69  1  0  0  0  0
 30 26  1  0  0  0  0
 30 31  1  0  0  0  0
 30 70  1  0  0  0  0
 30 71  1  0  0  0  0
 31 14  1  0  0  0  0
 31 22  1  0  0  0  0
 31 72  1  1  0  0  0
 32 28  1  0  0  0  0
 32 73  1  0  0  0  0
 32 74  1  0  0  0  0
 32 75  1  0  0  0  0
 33 34  1  0  0  0  0
 33 76  1  0  0  0  0
 33 77  1  0  0  0  0
 34 78  1  0  0  0  0
 34 79  1  0  0  0  0
 34 80  1  0  0  0  0
M  END
>  <DRUGBANK_ID>
DB14038

>  <COMMON_NAME>
beta-Sitosterol

>  <CAS_NUMBER>
83-46-5

>  <UNII>
S347WMO6M4

>  <SYNONYMS>
(-)-β-Sitosterol; (24R)-Ethylcholest-5-en-3beta-ol; (24R)-ethylcholest-5-en-3β-ol; (24R)-Stigmast-5-en-3beta-ol; (3β)-Stigmast-5-en-3-ol; 22,23-Dihydrostigmasterol; 24α-Ethylcholesterol; Azuprostat; Cupreol; Nimbosterol; Sitosterol; Triastonal; α-Dihydrofucosterol; β-Sitosterin

$$$$
