
 OpenBabel10282417072D

 31 28  0  0  0  0  0  0  0  0999 V2000
    2.0640    0.2750    0.0000 C   0  0  0  0  0  0  0  0  0  0  0  0
    0.6350    0.2750    0.0000 C   0  0  0  0  0  0  0  0  0  0  0  0
   -0.0793   -0.1375    0.0000 C   0  0  0  0  0  0  0  0  0  0  0  0
    1.3495   -0.1375    0.0000 C   0  0  0  0  0  0  0  0  0  0  0  0
   -0.7938    0.2750    0.0000 C   0  0  0  0  0  0  0  0  0  0  0  0
    1.3495   -0.9625    0.0000 O   0  0  0  0  0  0  0  0  0  0  0  0
   -0.7938    1.1000    0.0000 O   0  0  0  0  0  0  0  0  0  0  0  0
   -1.5083   -0.1375    0.0000 O   0  5  0  0  0  0  0  0  0  0  0  0
    7.4042    0.2062    0.0000 C   0  0  0  0  0  0  0  0  0  0  0  0
    5.9752    0.2062    0.0000 C   0  0  0  0  0  0  0  0  0  0  0  0
    5.2608   -0.2062    0.0000 C   0  0  0  0  0  0  0  0  0  0  0  0
    6.6897   -0.2062    0.0000 C   0  0  0  0  0  0  0  0  0  0  0  0
    4.5463    0.2062    0.0000 C   0  0  0  0  0  0  0  0  0  0  0  0
    6.6897   -1.0312    0.0000 O   0  0  0  0  0  0  0  0  0  0  0  0
    3.8318   -0.2062    0.0000 O   0  0  0  0  0  0  0  0  0  0  0  0
    4.5463    1.0312    0.0000 O   0  5  0  0  0  0  0  0  0  0  0  0
   -2.2227   -0.5500    0.0000 Mg  0  2  0  0  0  0  0  0  0  0  0  0
    2.9906   -0.2600    0.0000 H   0  0  0  0  0  0  0  0  0  0  0  0
    2.0640    1.3450    0.0000 H   0  0  0  0  0  0  0  0  0  0  0  0
    2.9907    0.8100    0.0000 H   0  0  0  0  0  0  0  0  0  0  0  0
    0.6349    1.3450    0.0000 H   0  0  0  0  0  0  0  0  0  0  0  0
    1.5616    0.8100    0.0000 H   0  0  0  0  0  0  0  0  0  0  0  0
   -0.0792   -1.2075    0.0000 H   0  0  0  0  0  0  0  0  0  0  0  0
   -1.0059   -0.6725    0.0000 H   0  0  0  0  0  0  0  0  0  0  0  0
    8.3308   -0.3289    0.0000 H   0  0  0  0  0  0  0  0  0  0  0  0
    7.4043    1.2762    0.0000 H   0  0  0  0  0  0  0  0  0  0  0  0
    8.3309    0.7411    0.0000 H   0  0  0  0  0  0  0  0  0  0  0  0
    5.9752    1.2762    0.0000 H   0  0  0  0  0  0  0  0  0  0  0  0
    6.9018    0.7413    0.0000 H   0  0  0  0  0  0  0  0  0  0  0  0
    5.2608   -1.2762    0.0000 H   0  0  0  0  0  0  0  0  0  0  0  0
    4.3342   -0.7413    0.0000 H   0  0  0  0  0  0  0  0  0  0  0  0
  1 18  1  0  0  0  0
  1 19  1  0  0  0  0
  1 20  1  0  0  0  0
  2 21  1  0  0  0  0
  2 22  1  0  0  0  0
  3  2  1  0  0  0  0
  3 23  1  0  0  0  0
  3 24  1  0  0  0  0
  4  1  1  0  0  0  0
  4  2  1  0  0  0  0
  5  3  1  0  0  0  0
  6  4  2  0  0  0  0
  7  5  2  0  0  0  0
  8  5  1  0  0  0  0
  9 25  1  0  0  0  0
  9 26  1  0  0  0  0
  9 27  1  0  0  0  0
 10 28  1  0  0  0  0
 10 29  1  0  0  0  0
 11 10  1  0  0  0  0
 11 30  1  0  0  0  0
 11 31  1  0  0  0  0
 12  9  1  0  0  0  0
 12 10  1  0  0  0  0
 13 11  1  0  0  0  0
 14 12  2  0  0  0  0
 15 13  2  0  0  0  0
 16 13  1  0  0  0  0
M  CHG  3   8  -1  16  -1  17   2
M  END
>  <DRUGBANK_ID>
DB14514

>  <SECONDARY_ACCESSION_NUMBERS>
DBSALT002481

>  <COMMON_NAME>
Magnesium levulinate

>  <CAS_NUMBER>
58505-81-0

>  <UNII>
DU3I0H5Z4H

>  <SYNONYMS>
Magnesium diasporal

$$$$
