
 OpenBabel10282417072D

  1  0  0  0  0  0  0  0  0  0999 V2000
    0.0000    0.0000    0.0000 Bi  0  1  0  0  0  0  0  0  0  0  0  0
M  CHG  1   1   3
M  END
>  <DRUGBANK_ID>
DB14572

>  <COMMON_NAME>
Bismuth cation

>  <CAS_NUMBER>
23713-46-4

>  <UNII>
ZS9CD1I8YE

>  <SYNONYMS>
Bismut(III)-ion; bismuth(3+); bismuth(III) cation; bisumth(3+) ion; Wismut(III)-ion

$$$$
