GSK
 OpenBabel10282417072D

 55 58  0  0  0  0  0  0  0  0999 V2000
   -4.9733   -3.3801    0.0000 Cl  0  0  0  0  0  0  0  0  0  0  0  0
   -4.2588   -2.9676    0.0000 C   0  0  0  0  0  0  0  0  0  0  0  0
   -4.2588   -2.1426    0.0000 C   0  0  0  0  0  0  0  0  0  0  0  0
   -3.5444   -1.7301    0.0000 C   0  0  0  0  0  0  0  0  0  0  0  0
   -2.8299   -2.1426    0.0000 C   0  0  0  0  0  0  0  0  0  0  0  0
   -2.1154   -1.7301    0.0000 C   0  0  0  0  0  0  0  0  0  0  0  0
   -2.8299   -2.9676    0.0000 C   0  0  0  0  0  0  0  0  0  0  0  0
   -3.5444   -3.3801    0.0000 C   0  0  0  0  0  0  0  0  0  0  0  0
   -2.1154   -3.3801    0.0000 C   0  0  0  0  0  0  0  0  0  0  0  0
   -1.4010   -2.9676    0.0000 C   0  0  0  0  0  0  0  0  0  0  0  0
   -1.4010   -2.1426    0.0000 C   0  0  0  0  0  0  0  0  0  0  0  0
   -0.6865   -1.7301    0.0000 S   0  0  0  0  0  0  0  0  0  0  0  0
   -0.2740   -2.4446    0.0000 O   0  0  0  0  0  0  0  0  0  0  0  0
   -1.0990   -1.0157    0.0000 O   0  0  0  0  0  0  0  0  0  0  0  0
    0.0280   -1.3176    0.0000 N   0  0  0  0  0  0  0  0  0  0  0  0
    0.0280   -0.4926    0.0000 C   0  0  1  0  0  0  0  0  0  0  0  0
   -0.6395   -0.0077    0.0000 C   0  0  0  0  0  0  0  0  0  0  0  0
   -0.3845    0.7769    0.0000 C   0  0  0  0  0  0  0  0  0  0  0  0
    0.6954   -0.0077    0.0000 C   0  0  0  0  0  0  0  0  0  0  0  0
    1.4800   -0.2627    0.0000 O   0  0  0  0  0  0  0  0  0  0  0  0
    0.4405    0.7769    0.0000 N   0  0  0  0  0  0  0  0  0  0  0  0
    0.9254    1.4443    0.0000 C   0  0  1  0  0  0  0  0  0  0  0  0
    1.7459    1.3581    0.0000 C   0  0  0  0  0  0  0  0  0  0  0  0
    0.5899    2.1980    0.0000 C   0  0  0  0  0  0  0  0  0  0  0  0
   -0.2306    2.2843    0.0000 O   0  0  0  0  0  0  0  0  0  0  0  0
    1.0748    2.8655    0.0000 N   0  0  0  0  0  0  0  0  0  0  0  0
    0.7392    3.6191    0.0000 C   0  0  0  0  0  0  0  0  0  0  0  0
    1.2241    4.2866    0.0000 C   0  0  0  0  0  0  0  0  0  0  0  0
    2.0446    4.2003    0.0000 O   0  0  0  0  0  0  0  0  0  0  0  0
    2.3802    3.4467    0.0000 C   0  0  0  0  0  0  0  0  0  0  0  0
    1.8953    2.7792    0.0000 C   0  0  0  0  0  0  0  0  0  0  0  0
   -0.4923   -0.7577    0.0000 H   0  0  0  0  0  0  0  0  0  0  0  0
    1.1629    0.9109    0.0000 H   0  0  0  0  0  0  0  0  0  0  0  0
   -5.1525   -1.6266    0.0000 H   0  0  0  0  0  0  0  0  0  0  0  0
   -3.5444   -0.6981    0.0000 H   0  0  0  0  0  0  0  0  0  0  0  0
   -2.1154   -0.6981    0.0000 H   0  0  0  0  0  0  0  0  0  0  0  0
   -3.5444   -4.4121    0.0000 H   0  0  0  0  0  0  0  0  0  0  0  0
   -2.1154   -4.4121    0.0000 H   0  0  0  0  0  0  0  0  0  0  0  0
   -0.5073   -3.4836    0.0000 H   0  0  0  0  0  0  0  0  0  0  0  0
    0.9113   -1.8276    0.0000 H   0  0  0  0  0  0  0  0  0  0  0  0
   -1.6571   -0.3383    0.0000 H   0  0  0  0  0  0  0  0  0  0  0  0
   -1.3961    0.7489    0.0000 H   0  0  0  0  0  0  0  0  0  0  0  0
   -1.0134    1.6426    0.0000 H   0  0  0  0  0  0  0  0  0  0  0  0
    0.1013    1.7303    0.0000 H   0  0  0  0  0  0  0  0  0  0  0  0
    2.1812    0.3806    0.0000 H   0  0  0  0  0  0  0  0  0  0  0  0
    2.3748    2.2238    0.0000 H   0  0  0  0  0  0  0  0  0  0  0  0
    2.8100    1.2463    0.0000 H   0  0  0  0  0  0  0  0  0  0  0  0
   -0.3249    3.7309    0.0000 H   0  0  0  0  0  0  0  0  0  0  0  0
    0.3039    4.5966    0.0000 H   0  0  0  0  0  0  0  0  0  0  0  0
    0.7889    5.2641    0.0000 H   0  0  0  0  0  0  0  0  0  0  0  0
    1.8531    5.1522    0.0000 H   0  0  0  0  0  0  0  0  0  0  0  0
    3.4443    3.3349    0.0000 H   0  0  0  0  0  0  0  0  0  0  0  0
    2.8155    2.4692    0.0000 H   0  0  0  0  0  0  0  0  0  0  0  0
    2.3305    1.8017    0.0000 H   0  0  0  0  0  0  0  0  0  0  0  0
    2.9594    2.6674    0.0000 H   0  0  0  0  0  0  0  0  0  0  0  0
  1  2  1  0  0  0  0
  2  3  2  0  0  0  0
  2  8  1  0  0  0  0
  3  4  1  0  0  0  0
  3 34  1  0  0  0  0
  4  5  2  0  0  0  0
  4 35  1  0  0  0  0
  5  6  1  0  0  0  0
  5  7  1  0  0  0  0
  6 11  2  0  0  0  0
  6 36  1  0  0  0  0
  7  8  2  0  0  0  0
  7  9  1  0  0  0  0
  8 37  1  0  0  0  0
  9 10  2  0  0  0  0
  9 38  1  0  0  0  0
 10 11  1  0  0  0  0
 10 39  1  0  0  0  0
 11 12  1  0  0  0  0
 12 13  2  0  0  0  0
 12 14  2  0  0  0  0
 12 15  1  0  0  0  0
 15 40  1  0  0  0  0
 16 15  1  0  0  0  0
 16 17  1  0  0  0  0
 16 19  1  0  0  0  0
 16 32  1  6  0  0  0
 17 18  1  0  0  0  0
 17 41  1  0  0  0  0
 17 42  1  0  0  0  0
 18 21  1  0  0  0  0
 18 43  1  0  0  0  0
 18 44  1  0  0  0  0
 19 20  2  0  0  0  0
 19 21  1  0  0  0  0
 21 22  1  0  0  0  0
 22 23  1  0  0  0  0
 22 24  1  0  0  0  0
 22 33  1  1  0  0  0
 23 45  1  0  0  0  0
 23 46  1  0  0  0  0
 23 47  1  0  0  0  0
 24 25  2  0  0  0  0
 24 26  1  0  0  0  0
 26 27  1  0  0  0  0
 26 31  1  0  0  0  0
 27 28  1  0  0  0  0
 27 48  1  0  0  0  0
 27 49  1  0  0  0  0
 28 29  1  0  0  0  0
 28 50  1  0  0  0  0
 28 51  1  0  0  0  0
 29 30  1  0  0  0  0
 30 31  1  0  0  0  0
 30 52  1  0  0  0  0
 30 53  1  0  0  0  0
 31 54  1  0  0  0  0
 31 55  1  0  0  0  0
M  END
>  <DRUGBANK_ID>
DB07847

>  <COMMON_NAME>
6-CHLORO-N-{(3S)-1-[(1S)-1-METHYL-2-(4-MORPHOLINYL)-2-OXO ETHYL]-2-OXO-3-PYRROLIDINYL}-2-NAPHTHALENESULFONAMIDE

$$$$
