
 OpenBabel10282417072D

 43 45  0  0  1  0  0  0  0  0999 V2000
   -1.7458    1.7380    0.0000 C   0  0  0  0  0  0  0  0  0  0  0  0
   -0.9528    1.5106    0.0000 C   0  0  1  0  0  0  0  0  0  0  0  0
   -0.3593    2.0837    0.0000 C   0  0  0  0  0  0  0  0  0  0  0  0
    0.4337    1.8563    0.0000 C   0  0  0  0  0  0  0  0  0  0  0  0
    0.6333    1.0558    0.0000 C   0  0  0  0  0  0  0  0  0  0  0  0
    0.0399    0.4827    0.0000 C   0  0  0  0  0  0  0  0  0  0  0  0
   -0.7532    0.7101    0.0000 C   0  0  2  0  0  0  0  0  0  0  0  0
   -0.7532   -0.1149    0.0000 C   0  0  0  0  0  0  0  0  0  0  0  0
   -0.0857   -0.5998    0.0000 C   0  0  0  0  0  0  0  0  0  0  0  0
   -0.3407   -1.3844    0.0000 C   0  0  0  0  0  0  0  0  0  0  0  0
   -1.1657   -1.3844    0.0000 C   0  0  0  0  0  0  0  0  0  0  0  0
   -1.4206   -0.5998    0.0000 S   0  0  0  0  0  0  0  0  0  0  0  0
   -1.5462    0.4827    0.0000 N   0  0  0  0  0  0  0  0  0  0  0  0
   -1.7458   -0.3178    0.0000 C   0  0  0  0  0  0  0  0  0  0  0  0
   -2.5388   -0.5452    0.0000 C   0  0  0  0  0  0  0  0  0  0  0  0
   -3.1323    0.0279    0.0000 C   0  0  0  0  0  0  0  0  0  0  0  0
   -2.9327    0.8284    0.0000 C   0  0  0  0  0  0  0  0  0  0  0  0
   -2.1397    1.0558    0.0000 C   0  0  0  0  0  0  0  0  0  0  0  0
   -2.0046    2.7762    0.0000 H   0  0  0  0  0  0  0  0  0  0  0  0
   -2.5155    0.9947    0.0000 H   0  0  0  0  0  0  0  0  0  0  0  0
   -2.7743    2.0329    0.0000 H   0  0  0  0  0  0  0  0  0  0  0  0
   -1.2116    2.5488    0.0000 H   0  0  0  0  0  0  0  0  0  0  0  0
   -0.6181    3.1219    0.0000 H   0  0  0  0  0  0  0  0  0  0  0  0
    0.4104    2.8270    0.0000 H   0  0  0  0  0  0  0  0  0  0  0  0
    1.2034    2.5996    0.0000 H   0  0  0  0  0  0  0  0  0  0  0  0
    1.4623    1.5614    0.0000 H   0  0  0  0  0  0  0  0  0  0  0  0
    1.6619    0.7609    0.0000 H   0  0  0  0  0  0  0  0  0  0  0  0
    0.8922    0.0176    0.0000 H   0  0  0  0  0  0  0  0  0  0  0  0
    0.2988   -0.5555    0.0000 H   0  0  0  0  0  0  0  0  0  0  0  0
   -0.7298   -0.2606    0.0000 H   0  0  0  0  0  0  0  0  0  0  0  0
    0.8958   -0.2809    0.0000 H   0  0  0  0  0  0  0  0  0  0  0  0
    0.2659   -2.2193    0.0000 H   0  0  0  0  0  0  0  0  0  0  0  0
   -1.7723   -2.2193    0.0000 H   0  0  0  0  0  0  0  0  0  0  0  0
   -0.9761   -1.0611    0.0000 H   0  0  0  0  0  0  0  0  0  0  0  0
   -2.0047   -1.3560    0.0000 H   0  0  0  0  0  0  0  0  0  0  0  0
   -2.7976   -1.5834    0.0000 H   0  0  0  0  0  0  0  0  0  0  0  0
   -3.5673   -0.8402    0.0000 H   0  0  0  0  0  0  0  0  0  0  0  0
   -4.1608   -0.2670    0.0000 H   0  0  0  0  0  0  0  0  0  0  0  0
   -3.9020    0.7712    0.0000 H   0  0  0  0  0  0  0  0  0  0  0  0
   -3.7024    1.5717    0.0000 H   0  0  0  0  0  0  0  0  0  0  0  0
   -2.6738    1.8666    0.0000 H   0  0  0  0  0  0  0  0  0  0  0  0
   -1.8809    2.0940    0.0000 H   0  0  0  0  0  0  0  0  0  0  0  0
   -1.1112    1.3508    0.0000 H   0  0  0  0  0  0  0  0  0  0  0  0
  1 19  1  0  0  0  0
  1 20  1  0  0  0  0
  1 21  1  0  0  0  0
  2  1  1  0  0  0  0
  2  3  1  0  0  0  0
  2  7  1  0  0  0  0
  2 22  1  6  0  0  0
  3  4  1  0  0  0  0
  3 23  1  0  0  0  0
  3 24  1  0  0  0  0
  4  5  1  0  0  0  0
  4 25  1  0  0  0  0
  4 26  1  0  0  0  0
  5  6  1  0  0  0  0
  5 27  1  0  0  0  0
  5 28  1  0  0  0  0
  6  7  1  0  0  0  0
  6 29  1  0  0  0  0
  6 30  1  0  0  0  0
  7  8  1  6  0  0  0
  7 13  1  0  0  0  0
  8  9  2  0  0  0  0
  8 12  1  0  0  0  0
  9 10  1  0  0  0  0
  9 31  1  0  0  0  0
 10 11  2  0  0  0  0
 10 32  1  0  0  0  0
 11 12  1  0  0  0  0
 11 33  1  0  0  0  0
 13 14  1  0  0  0  0
 13 18  1  0  0  0  0
 14 15  1  0  0  0  0
 14 34  1  0  0  0  0
 14 35  1  0  0  0  0
 15 16  1  0  0  0  0
 15 36  1  0  0  0  0
 15 37  1  0  0  0  0
 16 17  1  0  0  0  0
 16 38  1  0  0  0  0
 16 39  1  0  0  0  0
 17 18  1  0  0  0  0
 17 40  1  0  0  0  0
 17 41  1  0  0  0  0
 18 42  1  0  0  0  0
 18 43  1  0  0  0  0
M  END
>  <DRUGBANK_ID>
DB13096

>  <COMMON_NAME>
Gacyclidine

>  <CAS_NUMBER>
68134-81-6

>  <UNII>
9290ND070R

>  <SYNONYMS>
Gacyclidine

$$$$
