
 OpenBabel10282417072D

 87 88  0  0  1  0  0  0  0  0999 V2000
    2.4414    0.5448    0.0000 C   0  0  0  0  0  0  0  0  0  0  0  0
    2.0956   -0.2042    0.0000 C   0  0  2  0  0  0  0  0  0  0  0  0
    1.2738   -0.1320    0.0000 C   0  0  0  0  0  0  0  0  0  0  0  0
    1.0885    0.6719    0.0000 C   0  0  0  0  0  0  0  0  0  0  0  0
    0.4414    1.1837    0.0000 C   0  0  0  0  0  0  0  0  0  0  0  0
    0.5611    1.9999    0.0000 C   0  0  0  0  0  0  0  0  0  0  0  0
    1.3278    2.3044    0.0000 C   0  0  0  0  0  0  0  0  0  0  0  0
    2.0973    1.9475    0.0000 C   0  0  0  0  0  0  0  0  0  0  0  0
    1.7958    1.0965    0.0000 C   0  0  0  0  0  0  0  0  0  0  0  0
    2.5647    0.7973    0.0000 O   0  0  0  0  0  0  0  0  0  0  0  0
    2.9013    2.1328    0.0000 N   0  0  0  0  0  0  0  0  0  0  0  0
    3.1428    2.9217    0.0000 C   0  0  0  0  0  0  0  0  0  0  0  0
    2.5803    3.5252    0.0000 O   0  0  0  0  0  0  0  0  0  0  0  0
    3.9467    3.1069    0.0000 C   0  0  0  0  0  0  0  0  0  0  0  0
    4.1882    3.8958    0.0000 C   0  0  0  0  0  0  0  0  0  0  0  0
    4.9921    4.0811    0.0000 C   0  0  0  0  0  0  0  0  0  0  0  0
    5.5545    3.4775    0.0000 C   0  0  0  0  0  0  0  0  0  0  0  0
    5.3130    2.6887    0.0000 C   0  0  1  0  0  0  0  0  0  0  0  0
    5.8755    2.0851    0.0000 C   0  0  2  0  0  0  0  0  0  0  0  0
    5.6340    1.2962    0.0000 C   0  0  0  0  0  0  0  0  0  0  0  0
    4.8300    1.1109    0.0000 C   0  0  0  0  0  0  0  0  0  0  0  0
    4.5886    0.3221    0.0000 C   0  0  1  0  0  0  0  0  0  0  0  0
    3.7846    0.1368    0.0000 C   0  0  2  0  0  0  0  0  0  0  0  0
    3.5431   -0.6521    0.0000 C   0  0  2  0  0  0  0  0  0  0  0  0
    2.7392   -0.8374    0.0000 C   0  0  0  0  0  0  0  0  0  0  0  0
    4.1056   -1.2557    0.0000 O   0  0  0  0  0  0  0  0  0  0  0  0
    3.8641   -2.0445    0.0000 C   0  0  0  0  0  0  0  0  0  0  0  0
    3.2222    0.7404    0.0000 O   0  0  0  0  0  0  0  0  0  0  0  0
    5.1510   -0.2815    0.0000 C   0  0  0  0  0  0  0  0  0  0  0  0
    6.1964    0.6927    0.0000 C   0  0  0  0  0  0  0  0  0  0  0  0
    6.6794    2.2704    0.0000 O   0  0  0  0  0  0  0  0  0  0  0  0
    7.2418    1.6668    0.0000 C   0  0  0  0  0  0  0  0  0  0  0  0
    7.0003    0.8779    0.0000 O   0  0  0  0  0  0  0  0  0  0  0  0
    8.0457    1.8521    0.0000 N   0  0  0  0  0  0  0  0  0  0  0  0
    6.1170    2.8740    0.0000 O   0  0  0  0  0  0  0  0  0  0  0  0
    6.3585    3.6628    0.0000 C   0  0  0  0  0  0  0  0  0  0  0  0
    4.5091    2.5034    0.0000 C   0  0  0  0  0  0  0  0  0  0  0  0
   -0.0860    2.5117    0.0000 O   0  0  0  0  0  0  0  0  0  0  0  0
   -0.3253    0.8791    0.0000 N   0  0  0  0  0  0  0  0  0  0  0  0
   -0.9724    1.3909    0.0000 C   0  0  0  0  0  0  0  0  0  0  0  0
   -0.8528    2.2072    0.0000 C   0  0  0  0  0  0  0  0  0  0  0  0
   -1.4999    2.7189    0.0000 C   0  0  0  0  0  0  0  0  0  0  0  0
    3.5070    0.6421    0.0000 H   0  0  0  0  0  0  0  0  0  0  0  0
    1.8243    1.4190    0.0000 H   0  0  0  0  0  0  0  0  0  0  0  0
    2.8899    1.5163    0.0000 H   0  0  0  0  0  0  0  0  0  0  0  0
    1.5590    0.7215    0.0000 H   0  0  0  0  0  0  0  0  0  0  0  0
    0.5715   -0.9393    0.0000 H   0  0  0  0  0  0  0  0  0  0  0  0
    0.2357    0.1272    0.0000 H   0  0  0  0  0  0  0  0  0  0  0  0
    1.3568    3.3360    0.0000 H   0  0  0  0  0  0  0  0  0  0  0  0
    2.7070   -0.1288    0.0000 H   0  0  0  0  0  0  0  0  0  0  0  0
    3.5725    1.4125    0.0000 H   0  0  0  0  0  0  0  0  0  0  0  0
    3.4846    4.6508    0.0000 H   0  0  0  0  0  0  0  0  0  0  0  0
    5.2942    5.0679    0.0000 H   0  0  0  0  0  0  0  0  0  0  0  0
    6.5601    3.7092    0.0000 H   0  0  0  0  0  0  0  0  0  0  0  0
    6.0958    3.4181    0.0000 H   0  0  0  0  0  0  0  0  0  0  0  0
    6.1887    3.1082    0.0000 H   0  0  0  0  0  0  0  0  0  0  0  0
    4.1264    1.8659    0.0000 H   0  0  0  0  0  0  0  0  0  0  0  0
    5.6313    0.5624    0.0000 H   0  0  0  0  0  0  0  0  0  0  0  0
    4.0978    1.1599    0.0000 H   0  0  0  0  0  0  0  0  0  0  0  0
    4.5858   -0.4118    0.0000 H   0  0  0  0  0  0  0  0  0  0  0  0
    2.4483   -1.8671    0.0000 H   0  0  0  0  0  0  0  0  0  0  0  0
    1.7049   -1.1115    0.0000 H   0  0  0  0  0  0  0  0  0  0  0  0
    2.8214   -2.2848    0.0000 H   0  0  0  0  0  0  0  0  0  0  0  0
    4.5935   -2.8273    0.0000 H   0  0  0  0  0  0  0  0  0  0  0  0
    3.5509   -3.0676    0.0000 H   0  0  0  0  0  0  0  0  0  0  0  0
    3.5062    1.6679    0.0000 H   0  0  0  0  0  0  0  0  0  0  0  0
    4.8377   -1.3046    0.0000 H   0  0  0  0  0  0  0  0  0  0  0  0
    6.1937   -0.0412    0.0000 H   0  0  0  0  0  0  0  0  0  0  0  0
    5.8804   -1.0643    0.0000 H   0  0  0  0  0  0  0  0  0  0  0  0
    5.8832   -0.3304    0.0000 H   0  0  0  0  0  0  0  0  0  0  0  0
    7.2391    0.9331    0.0000 H   0  0  0  0  0  0  0  0  0  0  0  0
    6.9259   -0.0901    0.0000 H   0  0  0  0  0  0  0  0  0  0  0  0
    8.7169    1.1318    0.0000 H   0  0  0  0  0  0  0  0  0  0  0  0
    8.3339    2.7935    0.0000 H   0  0  0  0  0  0  0  0  0  0  0  0
    7.4012    3.9031    0.0000 H   0  0  0  0  0  0  0  0  0  0  0  0
    5.6291    4.4456    0.0000 H   0  0  0  0  0  0  0  0  0  0  0  0
    6.6717    4.6859    0.0000 H   0  0  0  0  0  0  0  0  0  0  0  0
    4.1959    1.4803    0.0000 H   0  0  0  0  0  0  0  0  0  0  0  0
    5.5518    2.7438    0.0000 H   0  0  0  0  0  0  0  0  0  0  0  0
    5.2386    1.7206    0.0000 H   0  0  0  0  0  0  0  0  0  0  0  0
    0.0499    3.4388    0.0000 H   0  0  0  0  0  0  0  0  0  0  0  0
   -0.4680   -0.0950    0.0000 H   0  0  0  0  0  0  0  0  0  0  0  0
   -1.9668    0.9959    0.0000 H   0  0  0  0  0  0  0  0  0  0  0  0
   -1.8117    2.0546    0.0000 H   0  0  0  0  0  0  0  0  0  0  0  0
    0.1063    2.5882    0.0000 H   0  0  0  0  0  0  0  0  0  0  0  0
   -1.3503    3.7400    0.0000 H   0  0  0  0  0  0  0  0  0  0  0  0
   -2.4590    2.3379    0.0000 H   0  0  0  0  0  0  0  0  0  0  0  0
  1 43  1  0  0  0  0
  1 44  1  0  0  0  0
  1 45  1  0  0  0  0
  2  1  1  0  0  0  0
  2  3  1  0  0  0  0
  2 25  1  0  0  0  0
  2 46  1  6  0  0  0
  3  4  1  0  0  0  0
  3 47  1  0  0  0  0
  3 48  1  0  0  0  0
  4  5  2  0  0  0  0
  4  9  1  0  0  0  0
  5  6  1  0  0  0  0
  5 39  1  0  0  0  0
  6  7  2  0  0  0  0
  6 38  1  0  0  0  0
  7  8  1  0  0  0  0
  7 49  1  0  0  0  0
  8  9  2  0  0  0  0
  8 11  1  0  0  0  0
  9 10  1  0  0  0  0
 10 50  1  0  0  0  0
 11 12  1  0  0  0  0
 11 51  1  0  0  0  0
 12 13  2  0  0  0  0
 12 14  1  0  0  0  0
 14 15  2  0  0  0  0
 14 37  1  0  0  0  0
 15 16  1  0  0  0  0
 15 52  1  0  0  0  0
 16 17  2  0  0  0  0
 16 53  1  0  0  0  0
 17 18  1  0  0  0  0
 17 54  1  0  0  0  0
 18 19  1  0  0  0  0
 18 35  1  0  0  0  0
 18 55  1  1  0  0  0
 19 20  1  0  0  0  0
 19 31  1  0  0  0  0
 19 56  1  6  0  0  0
 20 21  2  0  0  0  0
 20 30  1  0  0  0  0
 21 22  1  0  0  0  0
 21 57  1  0  0  0  0
 22 23  1  0  0  0  0
 22 29  1  0  0  0  0
 22 58  1  1  0  0  0
 23 24  1  0  0  0  0
 23 28  1  0  0  0  0
 23 59  1  1  0  0  0
 24 25  1  0  0  0  0
 24 26  1  0  0  0  0
 24 60  1  6  0  0  0
 25 61  1  0  0  0  0
 25 62  1  0  0  0  0
 26 27  1  0  0  0  0
 27 63  1  0  0  0  0
 27 64  1  0  0  0  0
 27 65  1  0  0  0  0
 28 66  1  0  0  0  0
 29 67  1  0  0  0  0
 29 68  1  0  0  0  0
 29 69  1  0  0  0  0
 30 70  1  0  0  0  0
 30 71  1  0  0  0  0
 30 72  1  0  0  0  0
 31 32  1  0  0  0  0
 32 33  2  0  0  0  0
 32 34  1  0  0  0  0
 34 73  1  0  0  0  0
 34 74  1  0  0  0  0
 35 36  1  0  0  0  0
 36 75  1  0  0  0  0
 36 76  1  0  0  0  0
 36 77  1  0  0  0  0
 37 78  1  0  0  0  0
 37 79  1  0  0  0  0
 37 80  1  0  0  0  0
 38 81  1  0  0  0  0
 39 40  1  0  0  0  0
 39 82  1  0  0  0  0
 40 41  1  0  0  0  0
 40 83  1  0  0  0  0
 40 84  1  0  0  0  0
 41 42  2  0  0  0  0
 41 85  1  0  0  0  0
 42 86  1  0  0  0  0
 42 87  1  0  0  0  0
M  END
>  <DRUGBANK_ID>
DB05626

>  <COMMON_NAME>
Retaspimycin

>  <CAS_NUMBER>
857402-23-4

>  <UNII>
BZF2ZM0I5Z

>  <SYNONYMS>
Retaspimycin

$$$$
