
 OpenBabel10282417072D

 25 23  0  0  0  0  0  0  0  0999 V2000
   -1.7862   -0.2062    0.0000 C   0  0  0  0  0  0  0  0  0  0  0  0
   -1.0717    0.2063    0.0000 C   0  0  0  0  0  0  0  0  0  0  0  0
   -1.0717    1.0313    0.0000 O   0  0  0  0  0  0  0  0  0  0  0  0
   -0.3572   -0.2063    0.0000 N   0  0  0  0  0  0  0  0  0  0  0  0
    0.3572    0.2063    0.0000 C   0  0  0  0  0  0  0  0  0  0  0  0
    1.0717   -0.2063    0.0000 C   0  0  0  0  0  0  0  0  0  0  0  0
    1.7862    0.2062    0.0000 O   0  0  0  0  0  0  0  0  0  0  0  0
    1.0717   -1.0313    0.0000 O   0  0  0  0  0  0  0  0  0  0  0  0
    4.4969   -0.4083    0.0000 C   0  0  0  0  0  0  0  0  0  0  0  0
    4.9094    0.3062    0.0000 C   0  0  0  0  0  0  0  0  0  0  0  0
    5.3219    1.0207    0.0000 Cl  0  0  0  0  0  0  0  0  0  0  0  0
    4.1949    0.7187    0.0000 Cl  0  0  0  0  0  0  0  0  0  0  0  0
    5.6239   -0.1063    0.0000 Cl  0  0  0  0  0  0  0  0  0  0  0  0
    4.9094   -1.1227    0.0000 O   0  0  0  0  0  0  0  0  0  0  0  0
    3.6719   -0.4083    0.0000 O   0  0  0  0  0  0  0  0  0  0  0  0
   -2.7128    0.3288    0.0000 H   0  0  0  0  0  0  0  0  0  0  0  0
   -1.7862   -1.2762    0.0000 H   0  0  0  0  0  0  0  0  0  0  0  0
   -2.7129   -0.7412    0.0000 H   0  0  0  0  0  0  0  0  0  0  0  0
   -0.3572   -1.1908    0.0000 H   0  0  0  0  0  0  0  0  0  0  0  0
    0.3572    1.2763    0.0000 H   0  0  0  0  0  0  0  0  0  0  0  0
    1.2839    0.7413    0.0000 H   0  0  0  0  0  0  0  0  0  0  0  0
    0.2602   -1.4998    0.0000 H   0  0  0  0  0  0  0  0  0  0  0  0
    3.9619   -1.3350    0.0000 H   0  0  0  0  0  0  0  0  0  0  0  0
    4.4409   -1.9342    0.0000 H   0  0  0  0  0  0  0  0  0  0  0  0
    3.2034    0.4032    0.0000 H   0  0  0  0  0  0  0  0  0  0  0  0
  1  2  1  0  0  0  0
  1 16  1  0  0  0  0
  1 17  1  0  0  0  0
  1 18  1  0  0  0  0
  2  3  2  0  0  0  0
  2  4  1  0  0  0  0
  4  5  1  0  0  0  0
  4 19  1  0  0  0  0
  5  6  1  0  0  0  0
  5 20  1  0  0  0  0
  5 21  1  0  0  0  0
  6  7  2  0  0  0  0
  6  8  1  0  0  0  0
  8 22  1  0  0  0  0
  9 10  1  0  0  0  0
  9 14  1  0  0  0  0
  9 15  1  0  0  0  0
  9 23  1  0  0  0  0
 10 11  1  0  0  0  0
 10 12  1  0  0  0  0
 10 13  1  0  0  0  0
 14 24  1  0  0  0  0
 15 25  1  0  0  0  0
M  END
>  <DRUGBANK_ID>
DB13402

>  <COMMON_NAME>
Acetylglycinamide chloral hydrate

>  <CAS_NUMBER>
17427-14-4

>  <UNII>
6WZ3595RLZ

$$$$
