
 OpenBabel10282417072D

 45 48  0  0  0  0  0  0  0  0999 V2000
    0.8375   -0.7122    0.0000 C   0  0  2  0  0  0  0  0  0  0  0  0
    0.0215   -0.7194    0.0000 C   0  0  0  0  0  0  0  0  0  0  0  0
    1.1920   -0.0537    0.0000 C   0  0  1  0  0  0  0  0  0  0  0  0
    1.7540   -0.4044    0.0000 C   0  0  0  0  0  0  0  0  0  0  0  0
    1.1740   -1.4747    0.0000 C   0  0  0  0  0  0  0  0  0  0  0  0
   -0.3937   -0.0715    0.0000 C   0  0  0  0  0  0  0  0  0  0  0  0
   -0.3937   -1.4460    0.0000 C   0  0  0  0  0  0  0  0  0  0  0  0
    0.8126    0.6586    0.0000 C   0  0  2  0  0  0  0  0  0  0  0  0
    2.0403   -0.0537    0.0000 C   0  0  0  0  0  0  0  0  0  0  0  0
    1.7540    0.9843    0.0000 C   0  0  0  0  0  0  0  0  0  0  0  0
    2.0546   -1.4747    0.0000 C   0  0  0  0  0  0  0  0  0  0  0  0
    0.0071    0.6442    0.0000 C   0  0  0  0  0  0  0  0  0  0  0  0
   -1.1812   -0.0715    0.0000 C   0  0  0  0  0  0  0  0  0  0  0  0
   -1.2312   -1.4604    0.0000 C   0  0  0  0  0  0  0  0  0  0  0  0
    0.8912    1.3781    0.0000 N   0  0  0  0  0  0  0  0  0  0  0  0
    2.4913   -0.7445    0.0000 C   0  0  0  0  0  0  0  0  0  0  0  0
   -1.6393   -0.7445    0.0000 C   0  0  0  0  0  0  0  0  0  0  0  0
   -1.6572   -2.1834    0.0000 O   0  0  0  0  0  0  0  0  0  0  0  0
    0.6156    2.1834    0.0000 C   0  0  0  0  0  0  0  0  0  0  0  0
   -2.4913   -2.1834    0.0000 C   0  0  0  0  0  0  0  0  0  0  0  0
    0.4009   -0.0501    0.0000 H   0  0  0  0  0  0  0  0  0  0  0  0
    2.6227   -1.0291    0.0000 H   0  0  0  0  0  0  0  0  0  0  0  0
    2.7062    0.0837    0.0000 H   0  0  0  0  0  0  0  0  0  0  0  0
    0.5898   -2.3711    0.0000 H   0  0  0  0  0  0  0  0  0  0  0  0
    1.6838   -2.4155    0.0000 H   0  0  0  0  0  0  0  0  0  0  0  0
    0.1319   -2.3341    0.0000 H   0  0  0  0  0  0  0  0  0  0  0  0
    1.8633    0.8610    0.0000 H   0  0  0  0  0  0  0  0  0  0  0  0
    2.5497    0.8873    0.0000 H   0  0  0  0  0  0  0  0  0  0  0  0
    3.1094   -0.0097    0.0000 H   0  0  0  0  0  0  0  0  0  0  0  0
    2.6541    1.5629    0.0000 H   0  0  0  0  0  0  0  0  0  0  0  0
    1.6775    2.0516    0.0000 H   0  0  0  0  0  0  0  0  0  0  0  0
    2.5825   -2.4054    0.0000 H   0  0  0  0  0  0  0  0  0  0  0  0
    3.1245   -1.4870    0.0000 H   0  0  0  0  0  0  0  0  0  0  0  0
   -0.5422    1.5624    0.0000 H   0  0  0  0  0  0  0  0  0  0  0  0
    0.5266    1.5796    0.0000 H   0  0  0  0  0  0  0  0  0  0  0  0
   -1.6638    0.8407    0.0000 H   0  0  0  0  0  0  0  0  0  0  0  0
    3.5611   -0.7234    0.0000 H   0  0  0  0  0  0  0  0  0  0  0  0
    3.0283   -1.6700    0.0000 H   0  0  0  0  0  0  0  0  0  0  0  0
   -2.6705   -0.7035    0.0000 H   0  0  0  0  0  0  0  0  0  0  0  0
    1.3191    2.9896    0.0000 H   0  0  0  0  0  0  0  0  0  0  0  0
   -0.4344    2.3895    0.0000 H   0  0  0  0  0  0  0  0  0  0  0  0
    0.2691    3.1958    0.0000 H   0  0  0  0  0  0  0  0  0  0  0  0
   -3.0263   -1.2568    0.0000 H   0  0  0  0  0  0  0  0  0  0  0  0
   -3.0263   -3.1100    0.0000 H   0  0  0  0  0  0  0  0  0  0  0  0
   -3.5613   -2.1834    0.0000 H   0  0  0  0  0  0  0  0  0  0  0  0
  1  2  1  6  0  0  0
  1  3  1  0  0  0  0
  1  4  1  0  0  0  0
  1  5  1  0  0  0  0
  2  6  2  0  0  0  0
  2  7  1  0  0  0  0
  3  8  1  0  0  0  0
  3  9  1  0  0  0  0
  3 21  1  6  0  0  0
  4 10  1  0  0  0  0
  4 22  1  0  0  0  0
  4 23  1  0  0  0  0
  5 11  1  0  0  0  0
  5 24  1  0  0  0  0
  5 25  1  0  0  0  0
  6 12  1  0  0  0  0
  6 13  1  0  0  0  0
  7 14  2  0  0  0  0
  7 26  1  0  0  0  0
  8 15  1  0  0  0  0
  8 12  1  0  0  0  0
  8 27  1  1  0  0  0
  9 16  1  0  0  0  0
  9 28  1  0  0  0  0
  9 29  1  0  0  0  0
 10 15  1  0  0  0  0
 10 30  1  0  0  0  0
 10 31  1  0  0  0  0
 11 16  1  0  0  0  0
 11 32  1  0  0  0  0
 11 33  1  0  0  0  0
 12 34  1  0  0  0  0
 12 35  1  0  0  0  0
 13 17  2  0  0  0  0
 13 36  1  0  0  0  0
 14 18  1  0  0  0  0
 14 17  1  0  0  0  0
 15 19  1  0  0  0  0
 16 37  1  0  0  0  0
 16 38  1  0  0  0  0
 17 39  1  0  0  0  0
 18 20  1  0  0  0  0
 19 40  1  0  0  0  0
 19 41  1  0  0  0  0
 19 42  1  0  0  0  0
 20 43  1  0  0  0  0
 20 44  1  0  0  0  0
 20 45  1  0  0  0  0
M  END
>  <DRUGBANK_ID>
DB00514

>  <SECONDARY_ACCESSION_NUMBERS>
APRD00655

>  <COMMON_NAME>
Dextromethorphan

>  <CAS_NUMBER>
125-71-3

>  <UNII>
7355X3ROTS

>  <SYNONYMS>
(+)-dextromethorphan; D-methorphan; delta-Methorphan; Dex; Dextromethorfan; Dextromethorphan; Dextrom√©thorphane; Dextromethorphanum; Dextrometorfano; DM

$$$$
