
 OpenBabel10282417072D

107113  0  0  1  0  0  0  0  0999 V2000
   -2.3597    4.7309    0.0000 C   0  0  0  0  0  0  0  0  0  0  0  0
   -1.5392    4.6446    0.0000 O   0  0  0  0  0  0  0  0  0  0  0  0
   -1.0543    5.3121    0.0000 C   0  0  0  0  0  0  0  0  0  0  0  0
   -1.3899    6.0658    0.0000 O   0  0  0  0  0  0  0  0  0  0  0  0
   -0.2338    5.2258    0.0000 N   0  0  0  0  0  0  0  0  0  0  0  0
    0.2511    5.8933    0.0000 C   0  0  1  0  0  0  0  0  0  0  0  0
   -0.0845    6.6470    0.0000 C   0  0  0  0  0  0  0  0  0  0  0  0
    0.4005    7.3144    0.0000 C   0  0  0  0  0  0  0  0  0  0  0  0
   -0.9049    6.7332    0.0000 C   0  0  0  0  0  0  0  0  0  0  0  0
    1.0716    5.8070    0.0000 C   0  0  0  0  0  0  0  0  0  0  0  0
    1.4071    5.0534    0.0000 O   0  0  0  0  0  0  0  0  0  0  0  0
    1.5565    6.4745    0.0000 N   0  0  0  0  0  0  0  0  0  0  0  0
    1.3016    7.2591    0.0000 C   0  0  0  0  0  0  0  0  0  0  0  0
    1.9690    7.7440    0.0000 C   0  0  0  0  0  0  0  0  0  0  0  0
    2.6364    7.2591    0.0000 C   0  0  0  0  0  0  0  0  0  0  0  0
    2.3815    6.4745    0.0000 C   0  0  1  0  0  0  0  0  0  0  0  0
    2.8664    5.8070    0.0000 C   0  0  0  0  0  0  0  0  0  0  0  0
    3.6914    5.8070    0.0000 N   0  0  0  0  0  0  0  0  0  0  0  0
    3.9464    5.0224    0.0000 C   0  0  0  0  0  0  0  0  0  0  0  0
    3.2789    4.5375    0.0000 C   0  0  0  0  0  0  0  0  0  0  0  0
    2.6115    5.0224    0.0000 N   0  0  0  0  0  0  0  0  0  0  0  0
    3.2789    3.7125    0.0000 C   0  0  0  0  0  0  0  0  0  0  0  0
    3.9934    3.3000    0.0000 C   0  0  0  0  0  0  0  0  0  0  0  0
    3.9934    2.4750    0.0000 C   0  0  0  0  0  0  0  0  0  0  0  0
    3.2789    2.0625    0.0000 C   0  0  0  0  0  0  0  0  0  0  0  0
    2.5645    2.4750    0.0000 C   0  0  0  0  0  0  0  0  0  0  0  0
    2.5645    3.3000    0.0000 C   0  0  0  0  0  0  0  0  0  0  0  0
    3.2789    1.2375    0.0000 C   0  0  0  0  0  0  0  0  0  0  0  0
    3.9934    0.8250    0.0000 C   0  0  0  0  0  0  0  0  0  0  0  0
    3.9934    0.0000    0.0000 C   0  0  0  0  0  0  0  0  0  0  0  0
    3.2789   -0.4125    0.0000 C   0  0  0  0  0  0  0  0  0  0  0  0
    3.2789   -1.2375    0.0000 C   0  0  0  0  0  0  0  0  0  0  0  0
    3.9464   -1.7224    0.0000 C   0  0  0  0  0  0  0  0  0  0  0  0
    3.6914   -2.5070    0.0000 N   0  0  0  0  0  0  0  0  0  0  0  0
    2.8664   -2.5070    0.0000 C   0  0  0  0  0  0  0  0  0  0  0  0
    2.6115   -1.7224    0.0000 N   0  0  0  0  0  0  0  0  0  0  0  0
    2.3815   -3.1745    0.0000 C   0  0  2  0  0  0  0  0  0  0  0  0
    2.6364   -3.9591    0.0000 C   0  0  0  0  0  0  0  0  0  0  0  0
    1.9690   -4.4440    0.0000 C   0  0  0  0  0  0  0  0  0  0  0  0
    1.3016   -3.9591    0.0000 C   0  0  0  0  0  0  0  0  0  0  0  0
    1.5565   -3.1745    0.0000 N   0  0  0  0  0  0  0  0  0  0  0  0
    1.0716   -2.5070    0.0000 C   0  0  0  0  0  0  0  0  0  0  0  0
    1.4071   -1.7534    0.0000 O   0  0  0  0  0  0  0  0  0  0  0  0
    0.2511   -2.5933    0.0000 C   0  0  1  0  0  0  0  0  0  0  0  0
   -0.2338   -1.9258    0.0000 N   0  0  0  0  0  0  0  0  0  0  0  0
   -1.0543   -2.0121    0.0000 C   0  0  0  0  0  0  0  0  0  0  0  0
   -1.3899   -2.7658    0.0000 O   0  0  0  0  0  0  0  0  0  0  0  0
   -1.5392   -1.3446    0.0000 O   0  0  0  0  0  0  0  0  0  0  0  0
   -2.3597   -1.4309    0.0000 C   0  0  0  0  0  0  0  0  0  0  0  0
   -0.0845   -3.3470    0.0000 C   0  0  0  0  0  0  0  0  0  0  0  0
    0.4005   -4.0144    0.0000 C   0  0  0  0  0  0  0  0  0  0  0  0
   -0.9049   -3.4332    0.0000 C   0  0  0  0  0  0  0  0  0  0  0  0
    2.5645    0.0000    0.0000 C   0  0  0  0  0  0  0  0  0  0  0  0
    2.5645    0.8250    0.0000 C   0  0  0  0  0  0  0  0  0  0  0  0
    1.7798    1.0799    0.0000 O   0  0  0  0  0  0  0  0  0  0  0  0
    1.2949    0.4125    0.0000 C   0  0  0  0  0  0  0  0  0  0  0  0
    1.7798   -0.2549    0.0000 O   0  0  0  0  0  0  0  0  0  0  0  0
   -2.7948    5.7084    0.0000 H   0  0  0  0  0  0  0  0  0  0  0  0
   -2.9887    3.8653    0.0000 H   0  0  0  0  0  0  0  0  0  0  0  0
   -3.4238    4.8428    0.0000 H   0  0  0  0  0  0  0  0  0  0  0  0
    0.1666    4.3264    0.0000 H   0  0  0  0  0  0  0  0  0  0  0  0
   -0.8130    6.0051    0.0000 H   0  0  0  0  0  0  0  0  0  0  0  0
   -0.5197    7.6245    0.0000 H   0  0  0  0  0  0  0  0  0  0  0  0
    1.4646    7.2024    0.0000 H   0  0  0  0  0  0  0  0  0  0  0  0
   -0.0346    8.2919    0.0000 H   0  0  0  0  0  0  0  0  0  0  0  0
    1.0295    8.1800    0.0000 H   0  0  0  0  0  0  0  0  0  0  0  0
   -1.3401    7.7107    0.0000 H   0  0  0  0  0  0  0  0  0  0  0  0
   -1.5338    5.8675    0.0000 H   0  0  0  0  0  0  0  0  0  0  0  0
   -1.9690    6.8450    0.0000 H   0  0  0  0  0  0  0  0  0  0  0  0
    0.2840    7.5898    0.0000 H   0  0  0  0  0  0  0  0  0  0  0  0
    1.1342    8.3159    0.0000 H   0  0  0  0  0  0  0  0  0  0  0  0
    1.9690    8.8140    0.0000 H   0  0  0  0  0  0  0  0  0  0  0  0
    2.9224    8.2298    0.0000 H   0  0  0  0  0  0  0  0  0  0  0  0
    3.6540    7.5898    0.0000 H   0  0  0  0  0  0  0  0  0  0  0  0
    3.3930    6.5025    0.0000 H   0  0  0  0  0  0  0  0  0  0  0  0
    3.4383    6.6419    0.0000 H   0  0  0  0  0  0  0  0  0  0  0  0
    4.9279    4.7035    0.0000 H   0  0  0  0  0  0  0  0  0  0  0  0
    1.6752    4.7182    0.0000 H   0  0  0  0  0  0  0  0  0  0  0  0
    4.8871    3.8160    0.0000 H   0  0  0  0  0  0  0  0  0  0  0  0
    4.8871    1.9590    0.0000 H   0  0  0  0  0  0  0  0  0  0  0  0
    1.6708    1.9590    0.0000 H   0  0  0  0  0  0  0  0  0  0  0  0
    1.6708    3.8160    0.0000 H   0  0  0  0  0  0  0  0  0  0  0  0
    4.8871    1.3410    0.0000 H   0  0  0  0  0  0  0  0  0  0  0  0
    4.8871   -0.5160    0.0000 H   0  0  0  0  0  0  0  0  0  0  0  0
    4.9279   -1.4035    0.0000 H   0  0  0  0  0  0  0  0  0  0  0  0
    1.6752   -1.4182    0.0000 H   0  0  0  0  0  0  0  0  0  0  0  0
    3.4383   -3.3419    0.0000 H   0  0  0  0  0  0  0  0  0  0  0  0
    3.6540   -4.2898    0.0000 H   0  0  0  0  0  0  0  0  0  0  0  0
    2.8038   -5.0159    0.0000 H   0  0  0  0  0  0  0  0  0  0  0  0
    1.9690   -5.5140    0.0000 H   0  0  0  0  0  0  0  0  0  0  0  0
    1.0156   -4.9298    0.0000 H   0  0  0  0  0  0  0  0  0  0  0  0
    0.2840   -4.2898    0.0000 H   0  0  0  0  0  0  0  0  0  0  0  0
    0.5450   -3.2025    0.0000 H   0  0  0  0  0  0  0  0  0  0  0  0
    0.6863   -1.6158    0.0000 H   0  0  0  0  0  0  0  0  0  0  0  0
    0.1666   -1.0264    0.0000 H   0  0  0  0  0  0  0  0  0  0  0  0
   -2.9887   -0.5653    0.0000 H   0  0  0  0  0  0  0  0  0  0  0  0
   -2.7948   -2.4084    0.0000 H   0  0  0  0  0  0  0  0  0  0  0  0
   -3.4238   -1.5428    0.0000 H   0  0  0  0  0  0  0  0  0  0  0  0
   -0.5197   -4.3245    0.0000 H   0  0  0  0  0  0  0  0  0  0  0  0
   -0.0346   -4.9919    0.0000 H   0  0  0  0  0  0  0  0  0  0  0  0
    1.4646   -3.9024    0.0000 H   0  0  0  0  0  0  0  0  0  0  0  0
    1.0295   -4.8800    0.0000 H   0  0  0  0  0  0  0  0  0  0  0  0
   -1.5338   -2.5675    0.0000 H   0  0  0  0  0  0  0  0  0  0  0  0
   -1.3401   -4.4107    0.0000 H   0  0  0  0  0  0  0  0  0  0  0  0
   -1.9690   -3.5450    0.0000 H   0  0  0  0  0  0  0  0  0  0  0  0
    0.2249    0.4125    0.0000 H   0  0  0  0  0  0  0  0  0  0  0  0
    0.8091   -0.5409    0.0000 H   0  0  0  0  0  0  0  0  0  0  0  0
  1  2  1  0  0  0  0
  1 58  1  0  0  0  0
  1 59  1  0  0  0  0
  1 60  1  0  0  0  0
  2  3  1  0  0  0  0
  3  4  2  0  0  0  0
  3  5  1  0  0  0  0
  5 61  1  0  0  0  0
  6  5  1  0  0  0  0
  6  7  1  0  0  0  0
  6 10  1  0  0  0  0
  6 62  1  6  0  0  0
  7  8  1  0  0  0  0
  7  9  1  0  0  0  0
  7 63  1  0  0  0  0
  8 64  1  0  0  0  0
  8 65  1  0  0  0  0
  8 66  1  0  0  0  0
  9 67  1  0  0  0  0
  9 68  1  0  0  0  0
  9 69  1  0  0  0  0
 10 11  2  0  0  0  0
 10 12  1  0  0  0  0
 12 13  1  0  0  0  0
 13 14  1  0  0  0  0
 13 70  1  0  0  0  0
 13 71  1  0  0  0  0
 14 15  1  0  0  0  0
 14 72  1  0  0  0  0
 14 73  1  0  0  0  0
 15 74  1  0  0  0  0
 15 75  1  0  0  0  0
 16 15  1  0  0  0  0
 16 12  1  0  0  0  0
 16 17  1  0  0  0  0
 16 76  1  6  0  0  0
 17 18  2  0  0  0  0
 17 21  1  0  0  0  0
 18 19  1  0  0  0  0
 19 20  2  0  0  0  0
 19 77  1  0  0  0  0
 20 21  1  0  0  0  0
 20 22  1  0  0  0  0
 21 78  1  0  0  0  0
 22 23  2  0  0  0  0
 22 27  1  0  0  0  0
 23 24  1  0  0  0  0
 23 79  1  0  0  0  0
 24 25  2  0  0  0  0
 24 80  1  0  0  0  0
 25 26  1  0  0  0  0
 25 28  1  0  0  0  0
 26 27  2  0  0  0  0
 26 81  1  0  0  0  0
 27 82  1  0  0  0  0
 28 29  2  0  0  0  0
 28 54  1  0  0  0  0
 29 30  1  0  0  0  0
 29 83  1  0  0  0  0
 30 31  2  0  0  0  0
 30 84  1  0  0  0  0
 31 32  1  0  0  0  0
 31 53  1  0  0  0  0
 32 33  2  0  0  0  0
 32 36  1  0  0  0  0
 33 34  1  0  0  0  0
 33 85  1  0  0  0  0
 34 35  2  0  0  0  0
 35 36  1  0  0  0  0
 36 86  1  0  0  0  0
 37 35  1  0  0  0  0
 37 38  1  0  0  0  0
 37 41  1  0  0  0  0
 37 87  1  1  0  0  0
 38 39  1  0  0  0  0
 38 88  1  0  0  0  0
 38 89  1  0  0  0  0
 39 40  1  0  0  0  0
 39 90  1  0  0  0  0
 39 91  1  0  0  0  0
 40 41  1  0  0  0  0
 40 92  1  0  0  0  0
 40 93  1  0  0  0  0
 41 42  1  0  0  0  0
 42 43  2  0  0  0  0
 44 42  1  0  0  0  0
 44 45  1  0  0  0  0
 44 50  1  0  0  0  0
 44 94  1  1  0  0  0
 45 46  1  0  0  0  0
 45 95  1  0  0  0  0
 46 47  2  0  0  0  0
 46 48  1  0  0  0  0
 48 49  1  0  0  0  0
 49 96  1  0  0  0  0
 49 97  1  0  0  0  0
 49 98  1  0  0  0  0
 50 51  1  0  0  0  0
 50 52  1  0  0  0  0
 50 99  1  0  0  0  0
 51100  1  0  0  0  0
 51101  1  0  0  0  0
 51102  1  0  0  0  0
 52103  1  0  0  0  0
 52104  1  0  0  0  0
 52105  1  0  0  0  0
 53 54  2  0  0  0  0
 53 57  1  0  0  0  0
 54 55  1  0  0  0  0
 55 56  1  0  0  0  0
 56 57  1  0  0  0  0
 56106  1  0  0  0  0
 56107  1  0  0  0  0
M  END
>  <DRUGBANK_ID>
DB15315

>  <COMMON_NAME>
Coblopasvir

>  <CAS_NUMBER>
1312608-46-0

>  <UNII>
67XWL3R65W

>  <SYNONYMS>
Coblopasvir

$$$$
