BPZ
 OpenBabel10282417072D

 40 42  0  0  0  0  0  0  0  0999 V2000
    0.2357    3.1151    0.0000 O   0  0  0  0  0  0  0  0  0  0  0  0
    0.2357    2.2901    0.0000 C   0  0  0  0  0  0  0  0  0  0  0  0
   -0.4788    1.8776    0.0000 C   0  0  0  0  0  0  0  0  0  0  0  0
   -0.4788    1.0526    0.0000 C   0  0  0  0  0  0  0  0  0  0  0  0
    0.9502    1.8776    0.0000 C   0  0  0  0  0  0  0  0  0  0  0  0
    0.9502    1.0526    0.0000 C   0  0  0  0  0  0  0  0  0  0  0  0
    0.2357    0.6401    0.0000 C   0  0  0  0  0  0  0  0  0  0  0  0
    0.2357   -0.1849    0.0000 C   0  0  0  0  0  0  0  0  0  0  0  0
   -0.0465   -0.9602    0.0000 C   0  0  0  0  0  0  0  0  0  0  0  0
    0.4838   -1.5922    0.0000 C   0  0  0  0  0  0  0  0  0  0  0  0
    1.0482   -0.0417    0.0000 C   0  0  0  0  0  0  0  0  0  0  0  0
    1.5785   -0.6737    0.0000 C   0  0  0  0  0  0  0  0  0  0  0  0
    1.2963   -1.4489    0.0000 C   0  0  0  0  0  0  0  0  0  0  0  0
   -0.5768   -0.0417    0.0000 C   0  0  0  0  0  0  0  0  0  0  0  0
   -0.8589    0.7336    0.0000 C   0  0  0  0  0  0  0  0  0  0  0  0
   -1.6714    0.8768    0.0000 C   0  0  0  0  0  0  0  0  0  0  0  0
   -2.2017    0.2448    0.0000 C   0  0  0  0  0  0  0  0  0  0  0  0
   -3.0142    0.3881    0.0000 O   0  0  0  0  0  0  0  0  0  0  0  0
   -1.9195   -0.5304    0.0000 C   0  0  0  0  0  0  0  0  0  0  0  0
   -1.1071   -0.6737    0.0000 C   0  0  0  0  0  0  0  0  0  0  0  0
    1.0472    3.5836    0.0000 H   0  0  0  0  0  0  0  0  0  0  0  0
   -1.3725    2.3936    0.0000 H   0  0  0  0  0  0  0  0  0  0  0  0
   -1.3725    0.5366    0.0000 H   0  0  0  0  0  0  0  0  0  0  0  0
    1.8439    2.3936    0.0000 H   0  0  0  0  0  0  0  0  0  0  0  0
    1.8439    0.5366    0.0000 H   0  0  0  0  0  0  0  0  0  0  0  0
   -1.1002   -1.1460    0.0000 H   0  0  0  0  0  0  0  0  0  0  0  0
   -0.4125   -1.9657    0.0000 H   0  0  0  0  0  0  0  0  0  0  0  0
    0.1179   -2.5977    0.0000 H   0  0  0  0  0  0  0  0  0  0  0  0
    1.1716   -2.4118    0.0000 H   0  0  0  0  0  0  0  0  0  0  0  0
    1.4142    0.9638    0.0000 H   0  0  0  0  0  0  0  0  0  0  0  0
    2.1019    0.1441    0.0000 H   0  0  0  0  0  0  0  0  0  0  0  0
    2.6323   -0.4879    0.0000 H   0  0  0  0  0  0  0  0  0  0  0  0
    2.2662   -1.4934    0.0000 H   0  0  0  0  0  0  0  0  0  0  0  0
    1.9841   -2.2686    0.0000 H   0  0  0  0  0  0  0  0  0  0  0  0
    2.3501   -1.2631    0.0000 H   0  0  0  0  0  0  0  0  0  0  0  0
   -0.1955    1.5242    0.0000 H   0  0  0  0  0  0  0  0  0  0  0  0
   -2.0244    1.8465    0.0000 H   0  0  0  0  0  0  0  0  0  0  0  0
   -3.3346    1.2686    0.0000 H   0  0  0  0  0  0  0  0  0  0  0  0
   -2.5829   -1.3210    0.0000 H   0  0  0  0  0  0  0  0  0  0  0  0
   -0.7542   -1.6435    0.0000 H   0  0  0  0  0  0  0  0  0  0  0  0
  1  2  1  0  0  0  0
  1 21  1  0  0  0  0
  2  5  2  0  0  0  0
  2  3  1  0  0  0  0
  3  4  2  0  0  0  0
  3 22  1  0  0  0  0
  4  7  1  0  0  0  0
  4 23  1  0  0  0  0
  5  6  1  0  0  0  0
  5 24  1  0  0  0  0
  6  7  2  0  0  0  0
  6 25  1  0  0  0  0
  7  8  1  0  0  0  0
  8 14  1  0  0  0  0
  8 11  1  0  0  0  0
  8  9  1  0  0  0  0
  9 10  1  0  0  0  0
  9 26  1  0  0  0  0
  9 27  1  0  0  0  0
 10 13  1  0  0  0  0
 10 28  1  0  0  0  0
 10 29  1  0  0  0  0
 11 30  1  0  0  0  0
 11 31  1  0  0  0  0
 12 11  1  0  0  0  0
 12 13  1  0  0  0  0
 12 32  1  0  0  0  0
 12 33  1  0  0  0  0
 13 34  1  0  0  0  0
 13 35  1  0  0  0  0
 14 20  1  0  0  0  0
 15 14  2  0  0  0  0
 15 16  1  0  0  0  0
 15 36  1  0  0  0  0
 16 17  2  0  0  0  0
 16 37  1  0  0  0  0
 17 18  1  0  0  0  0
 17 19  1  0  0  0  0
 18 38  1  0  0  0  0
 19 39  1  0  0  0  0
 20 19  2  0  0  0  0
 20 40  1  0  0  0  0
M  END
>  <DRUGBANK_ID>
DB07485

>  <COMMON_NAME>
Bisphenol Z

>  <CAS_NUMBER>
843-55-0

>  <UNII>
64ZF6464QY

>  <SYNONYMS>
4,4'-cyclohexane-1,1-diyldiphenol; 4,4'-cyclohexylidenebisphenol; Antigene W; Bis-Z

$$$$
