
 OpenBabel10282417072D

 49 50  0  0  0  0  0  0  0  0999 V2000
    4.2059    2.1730    0.0000 C   0  0  0  0  0  0  0  0  0  0  0  0
    3.7934    2.8875    0.0000 C   0  0  0  0  0  0  0  0  0  0  0  0
    3.3809    3.6020    0.0000 C   0  0  0  0  0  0  0  0  0  0  0  0
    3.0789    2.4750    0.0000 C   0  0  0  0  0  0  0  0  0  0  0  0
    3.0789    1.6500    0.0000 O   0  0  0  0  0  0  0  0  0  0  0  0
    2.3645    1.2375    0.0000 C   0  0  0  0  0  0  0  0  0  0  0  0
    1.6500    1.6500    0.0000 O   0  0  0  0  0  0  0  0  0  0  0  0
    2.3645    0.4125    0.0000 C   0  0  0  0  0  0  0  0  0  0  0  0
    2.3645   -0.4125    0.0000 C   0  0  0  0  0  0  0  0  0  0  0  0
    3.0789   -0.8250    0.0000 C   0  0  0  0  0  0  0  0  0  0  0  0
    3.0789   -1.6500    0.0000 C   0  0  0  0  0  0  0  0  0  0  0  0
    2.3645   -2.0625    0.0000 C   0  0  0  0  0  0  0  0  0  0  0  0
    1.6500   -1.6500    0.0000 C   0  0  0  0  0  0  0  0  0  0  0  0
    1.6500   -0.8250    0.0000 C   0  0  0  0  0  0  0  0  0  0  0  0
    3.1895    0.4125    0.0000 C   0  0  0  0  0  0  0  0  0  0  0  0
    3.6020    1.1270    0.0000 C   0  0  0  0  0  0  0  0  0  0  0  0
    4.4270    1.1270    0.0000 C   0  0  0  0  0  0  0  0  0  0  0  0
    4.8395    0.4125    0.0000 C   0  0  0  0  0  0  0  0  0  0  0  0
    4.4270   -0.3020    0.0000 C   0  0  0  0  0  0  0  0  0  0  0  0
    3.6020   -0.3020    0.0000 C   0  0  0  0  0  0  0  0  0  0  0  0
    1.5395    0.4125    0.0000 O   0  0  0  0  0  0  0  0  0  0  0  0
    4.5079    3.3000    0.0000 N   0  0  0  0  0  0  0  0  0  0  0  0
    4.5079    4.1250    0.0000 C   0  0  0  0  0  0  0  0  0  0  0  0
    5.2224    2.8875    0.0000 C   0  0  0  0  0  0  0  0  0  0  0  0
    3.6709    1.2464    0.0000 H   0  0  0  0  0  0  0  0  0  0  0  0
    5.2759    2.1730    0.0000 H   0  0  0  0  0  0  0  0  0  0  0  0
    4.7409    1.2463    0.0000 H   0  0  0  0  0  0  0  0  0  0  0  0
    3.9159    4.5286    0.0000 H   0  0  0  0  0  0  0  0  0  0  0  0
    2.3109    3.6020    0.0000 H   0  0  0  0  0  0  0  0  0  0  0  0
    2.8459    4.5287    0.0000 H   0  0  0  0  0  0  0  0  0  0  0  0
    2.1523    3.0100    0.0000 H   0  0  0  0  0  0  0  0  0  0  0  0
    2.1523    1.9400    0.0000 H   0  0  0  0  0  0  0  0  0  0  0  0
    3.9726   -0.3090    0.0000 H   0  0  0  0  0  0  0  0  0  0  0  0
    3.9726   -2.1660    0.0000 H   0  0  0  0  0  0  0  0  0  0  0  0
    2.3645   -3.0945    0.0000 H   0  0  0  0  0  0  0  0  0  0  0  0
    0.7563   -2.1660    0.0000 H   0  0  0  0  0  0  0  0  0  0  0  0
    0.7563   -0.3090    0.0000 H   0  0  0  0  0  0  0  0  0  0  0  0
    3.0860    2.0207    0.0000 H   0  0  0  0  0  0  0  0  0  0  0  0
    4.9430    2.0207    0.0000 H   0  0  0  0  0  0  0  0  0  0  0  0
    5.8715    0.4125    0.0000 H   0  0  0  0  0  0  0  0  0  0  0  0
    4.9430   -1.1957    0.0000 H   0  0  0  0  0  0  0  0  0  0  0  0
    3.0860   -1.1957    0.0000 H   0  0  0  0  0  0  0  0  0  0  0  0
    1.0545    1.2525    0.0000 H   0  0  0  0  0  0  0  0  0  0  0  0
    5.4345    4.6600    0.0000 H   0  0  0  0  0  0  0  0  0  0  0  0
    3.5813    4.6600    0.0000 H   0  0  0  0  0  0  0  0  0  0  0  0
    4.5079    5.1950    0.0000 H   0  0  0  0  0  0  0  0  0  0  0  0
    5.2224    1.8175    0.0000 H   0  0  0  0  0  0  0  0  0  0  0  0
    6.1490    3.4225    0.0000 H   0  0  0  0  0  0  0  0  0  0  0  0
    6.1491    2.3525    0.0000 H   0  0  0  0  0  0  0  0  0  0  0  0
  1  2  1  0  0  0  0
  1 25  1  0  0  0  0
  1 26  1  0  0  0  0
  1 27  1  0  0  0  0
  2  3  1  0  0  0  0
  2  4  1  0  0  0  0
  2 22  1  0  0  0  0
  3 28  1  0  0  0  0
  3 29  1  0  0  0  0
  3 30  1  0  0  0  0
  4  5  1  0  0  0  0
  4 31  1  0  0  0  0
  4 32  1  0  0  0  0
  5  6  1  0  0  0  0
  6  7  2  0  0  0  0
  6  8  1  0  0  0  0
  8  9  1  0  0  0  0
  8 15  1  0  0  0  0
  8 21  1  0  0  0  0
  9 10  2  0  0  0  0
  9 14  1  0  0  0  0
 10 11  1  0  0  0  0
 10 33  1  0  0  0  0
 11 12  2  0  0  0  0
 11 34  1  0  0  0  0
 12 13  1  0  0  0  0
 12 35  1  0  0  0  0
 13 14  2  0  0  0  0
 13 36  1  0  0  0  0
 14 37  1  0  0  0  0
 15 16  2  0  0  0  0
 15 20  1  0  0  0  0
 16 17  1  0  0  0  0
 16 38  1  0  0  0  0
 17 18  2  0  0  0  0
 17 39  1  0  0  0  0
 18 19  1  0  0  0  0
 18 40  1  0  0  0  0
 19 20  2  0  0  0  0
 19 41  1  0  0  0  0
 20 42  1  0  0  0  0
 21 43  1  0  0  0  0
 22 23  1  0  0  0  0
 22 24  1  0  0  0  0
 23 44  1  0  0  0  0
 23 45  1  0  0  0  0
 23 46  1  0  0  0  0
 24 47  1  0  0  0  0
 24 48  1  0  0  0  0
 24 49  1  0  0  0  0
M  END
>  <DRUGBANK_ID>
DB13380

>  <COMMON_NAME>
Difemerine

>  <CAS_NUMBER>
80387-96-8

>  <UNII>
843C4UPZ2F

>  <SYNONYMS>
Difemerine

$$$$
