1100
 OpenBabel10282417072D

 63 67  0  0  0  0  0  0  0  0999 V2000
    7.7808    4.6060    0.0000 F   0  0  0  0  0  0  0  0  0  0  0  0
    8.9596   -0.9870    0.0000 F   0  0  0  0  0  0  0  0  0  0  0  0
    5.1661   -3.4559    0.0000 O   0  0  0  0  0  0  0  0  0  0  0  0
    4.6285   -0.4394    0.0000 N   0  0  0  0  0  0  0  0  0  0  0  0
    3.8596   -2.7920    0.0000 N   0  0  0  0  0  0  0  0  0  0  0  0
    3.8596   -4.1198    0.0000 N   0  0  0  0  0  0  0  0  0  0  0  0
    4.1159   -2.0077    0.0000 C   0  0  0  0  0  0  0  0  0  0  0  0
    4.9232   -1.8376    0.0000 C   0  0  0  0  0  0  0  0  0  0  0  0
    3.5649   -1.3937    0.0000 C   0  0  0  0  0  0  0  0  0  0  0  0
    5.1795   -1.0535    0.0000 C   0  0  0  0  0  0  0  0  0  0  0  0
    3.8213   -0.6095    0.0000 C   0  0  0  0  0  0  0  0  0  0  0  0
    4.8848    0.3448    0.0000 C   0  0  0  0  0  0  0  0  0  0  0  0
    5.6921    0.5149    0.0000 C   0  0  0  0  0  0  0  0  0  0  0  0
    3.0790   -3.0434    0.0000 C   0  0  0  0  0  0  0  0  0  0  0  0
    5.9484    1.2991    0.0000 C   0  0  0  0  0  0  0  0  0  0  0  0
    4.3411   -3.4559    0.0000 C   0  0  0  0  0  0  0  0  0  0  0  0
    6.7557    1.4693    0.0000 C   0  0  0  0  0  0  0  0  0  0  0  0
    3.0790   -3.8684    0.0000 C   0  0  0  0  0  0  0  0  0  0  0  0
    2.3645   -2.6309    0.0000 C   0  0  0  0  0  0  0  0  0  0  0  0
    7.0120    2.2534    0.0000 C   0  0  0  0  0  0  0  0  0  0  0  0
    7.3066    0.8552    0.0000 C   0  0  0  0  0  0  0  0  0  0  0  0
    2.3645   -4.2809    0.0000 C   0  0  0  0  0  0  0  0  0  0  0  0
    1.6500   -3.0434    0.0000 C   0  0  0  0  0  0  0  0  0  0  0  0
    1.6500   -3.8684    0.0000 C   0  0  0  0  0  0  0  0  0  0  0  0
    6.4610    2.8675    0.0000 C   0  0  0  0  0  0  0  0  0  0  0  0
    8.1139    1.0253    0.0000 C   0  0  0  0  0  0  0  0  0  0  0  0
    7.8193    2.4235    0.0000 C   0  0  0  0  0  0  0  0  0  0  0  0
    7.0504    0.0710    0.0000 C   0  0  0  0  0  0  0  0  0  0  0  0
    6.7173    3.6517    0.0000 C   0  0  0  0  0  0  0  0  0  0  0  0
    8.6649    0.4113    0.0000 C   0  0  0  0  0  0  0  0  0  0  0  0
    8.0755    3.2077    0.0000 C   0  0  0  0  0  0  0  0  0  0  0  0
    7.6013   -0.5431    0.0000 C   0  0  0  0  0  0  0  0  0  0  0  0
    7.5246    3.8218    0.0000 C   0  0  0  0  0  0  0  0  0  0  0  0
    8.4086   -0.3729    0.0000 C   0  0  0  0  0  0  0  0  0  0  0  0
    4.1654   -5.0556    0.0000 H   0  0  0  0  0  0  0  0  0  0  0  0
    4.4483   -0.9906    0.0000 H   0  0  0  0  0  0  0  0  0  0  0  0
    5.6378   -2.6340    0.0000 H   0  0  0  0  0  0  0  0  0  0  0  0
    5.9702   -1.6170    0.0000 H   0  0  0  0  0  0  0  0  0  0  0  0
    2.5179   -1.6143    0.0000 H   0  0  0  0  0  0  0  0  0  0  0  0
    2.8504   -0.5972    0.0000 H   0  0  0  0  0  0  0  0  0  0  0  0
    6.2265   -0.8329    0.0000 H   0  0  0  0  0  0  0  0  0  0  0  0
    5.8941   -1.8499    0.0000 H   0  0  0  0  0  0  0  0  0  0  0  0
    3.1068    0.1869    0.0000 H   0  0  0  0  0  0  0  0  0  0  0  0
    2.7743   -0.8301    0.0000 H   0  0  0  0  0  0  0  0  0  0  0  0
    4.1702    1.1412    0.0000 H   0  0  0  0  0  0  0  0  0  0  0  0
    5.2172    1.3618    0.0000 H   0  0  0  0  0  0  0  0  0  0  0  0
    6.4067   -0.2815    0.0000 H   0  0  0  0  0  0  0  0  0  0  0  0
    6.7391    0.7355    0.0000 H   0  0  0  0  0  0  0  0  0  0  0  0
    5.2338    2.0955    0.0000 H   0  0  0  0  0  0  0  0  0  0  0  0
    6.2808    2.3162    0.0000 H   0  0  0  0  0  0  0  0  0  0  0  0
    7.8027    1.6899    0.0000 H   0  0  0  0  0  0  0  0  0  0  0  0
    2.3645   -1.5989    0.0000 H   0  0  0  0  0  0  0  0  0  0  0  0
    2.3645   -5.3129    0.0000 H   0  0  0  0  0  0  0  0  0  0  0  0
    0.7563   -2.5274    0.0000 H   0  0  0  0  0  0  0  0  0  0  0  0
    0.7563   -4.3844    0.0000 H   0  0  0  0  0  0  0  0  0  0  0  0
    5.4512    2.6547    0.0000 H   0  0  0  0  0  0  0  0  0  0  0  0
    8.4345    2.0062    0.0000 H   0  0  0  0  0  0  0  0  0  0  0  0
    8.5085    1.6554    0.0000 H   0  0  0  0  0  0  0  0  0  0  0  0
    6.0406   -0.1418    0.0000 H   0  0  0  0  0  0  0  0  0  0  0  0
    6.0281    4.4198    0.0000 H   0  0  0  0  0  0  0  0  0  0  0  0
    9.6747    0.6242    0.0000 H   0  0  0  0  0  0  0  0  0  0  0  0
    9.0853    3.4205    0.0000 H   0  0  0  0  0  0  0  0  0  0  0  0
    7.2807   -1.5240    0.0000 H   0  0  0  0  0  0  0  0  0  0  0  0
  1 33  1  0  0  0  0
  2 34  1  0  0  0  0
  3 16  2  0  0  0  0
  4 10  1  0  0  0  0
  4 11  1  0  0  0  0
  4 12  1  0  0  0  0
  5  7  1  0  0  0  0
  5 14  1  0  0  0  0
  5 16  1  0  0  0  0
  6 16  1  0  0  0  0
  6 18  1  0  0  0  0
  6 35  1  0  0  0  0
  7  8  1  0  0  0  0
  7  9  1  0  0  0  0
  7 36  1  0  0  0  0
  8 10  1  0  0  0  0
  8 37  1  0  0  0  0
  8 38  1  0  0  0  0
  9 11  1  0  0  0  0
  9 39  1  0  0  0  0
  9 40  1  0  0  0  0
 10 41  1  0  0  0  0
 10 42  1  0  0  0  0
 11 43  1  0  0  0  0
 11 44  1  0  0  0  0
 12 13  1  0  0  0  0
 12 45  1  0  0  0  0
 12 46  1  0  0  0  0
 13 15  1  0  0  0  0
 13 47  1  0  0  0  0
 13 48  1  0  0  0  0
 14 18  1  0  0  0  0
 14 19  2  0  0  0  0
 15 17  1  0  0  0  0
 15 49  1  0  0  0  0
 15 50  1  0  0  0  0
 17 20  1  0  0  0  0
 17 21  1  0  0  0  0
 17 51  1  0  0  0  0
 18 22  2  0  0  0  0
 19 23  1  0  0  0  0
 19 52  1  0  0  0  0
 20 25  2  0  0  0  0
 20 27  1  0  0  0  0
 21 26  2  0  0  0  0
 21 28  1  0  0  0  0
 22 24  1  0  0  0  0
 22 53  1  0  0  0  0
 23 24  2  0  0  0  0
 23 54  1  0  0  0  0
 24 55  1  0  0  0  0
 25 29  1  0  0  0  0
 25 56  1  0  0  0  0
 26 30  1  0  0  0  0
 26 57  1  0  0  0  0
 27 31  2  0  0  0  0
 27 58  1  0  0  0  0
 28 32  2  0  0  0  0
 28 59  1  0  0  0  0
 29 33  2  0  0  0  0
 29 60  1  0  0  0  0
 30 34  2  0  0  0  0
 30 61  1  0  0  0  0
 31 33  1  0  0  0  0
 31 62  1  0  0  0  0
 32 34  1  0  0  0  0
 32 63  1  0  0  0  0
M  END
>  <DRUGBANK_ID>
DB01100

>  <SECONDARY_ACCESSION_NUMBERS>
APRD00218

>  <COMMON_NAME>
Pimozide

>  <CAS_NUMBER>
2062-78-4

>  <UNII>
1HIZ4DL86F

>  <SYNONYMS>
Pimozida; Pimozide; Pimozidum

$$$$
