
 OpenBabel10282417072D

238242  0  0  1  0  0  0  0  0999 V2000
  -12.8195    4.9546    0.0000 H   0  0  0  0  0  0  0  0  0  0  0  0
  -12.0706    5.3006    0.0000 C   0  0  2  0  0  0  0  0  0  0  0  0
  -12.1455    4.4790    0.0000 O   0  0  0  0  0  0  0  0  0  0  0  0
  -11.4714    4.0033    0.0000 C   0  0  1  0  0  0  0  0  0  0  0  0
  -10.7224    4.3492    0.0000 C   0  0  1  0  0  0  0  0  0  0  0  0
  -10.6475    5.1708    0.0000 O   0  0  0  0  0  0  0  0  0  0  0  0
  -10.0484    3.8736    0.0000 C   0  0  1  0  0  0  0  0  0  0  0  0
   -9.2994    4.2195    0.0000 C   0  0  0  0  0  0  0  0  0  0  0  0
   -9.2245    5.0411    0.0000 O   0  0  0  0  0  0  0  0  0  0  0  0
  -10.1233    3.0520    0.0000 O   0  0  0  0  0  0  0  0  0  0  0  0
  -10.8722    2.7061    0.0000 C   0  0  1  0  0  0  0  0  0  0  0  0
  -11.6212    2.3601    0.0000 H   0  0  0  0  0  0  0  0  0  0  0  0
  -10.9471    1.8845    0.0000 O   0  0  0  0  0  0  0  0  0  0  0  0
  -10.2731    1.4088    0.0000 C   0  0  1  0  0  0  0  0  0  0  0  0
   -9.5241    1.7547    0.0000 C   0  0  1  0  0  0  0  0  0  0  0  0
   -9.4492    2.5763    0.0000 C   0  0  0  0  0  0  0  0  0  0  0  0
   -8.7002    2.9223    0.0000 O   0  0  0  0  0  0  0  0  0  0  0  0
   -8.8500    1.2791    0.0000 O   0  0  0  0  0  0  0  0  0  0  0  0
   -8.9249    0.4575    0.0000 C   0  0  1  0  0  0  0  0  0  0  0  0
   -8.9998   -0.3641    0.0000 H   0  0  0  0  0  0  0  0  0  0  0  0
   -8.2508   -0.0182    0.0000 O   0  0  0  0  0  0  0  0  0  0  0  0
   -7.5019    0.3278    0.0000 C   0  0  2  0  0  0  0  0  0  0  0  0
   -6.8278   -0.1479    0.0000 C   0  0  1  0  0  0  0  0  0  0  0  0
   -6.9027   -0.9695    0.0000 C   0  0  0  0  0  0  0  0  0  0  0  0
   -7.6517   -1.3154    0.0000 O   0  0  0  0  0  0  0  0  0  0  0  0
   -6.0788    0.1980    0.0000 O   0  0  0  0  0  0  0  0  0  0  0  0
   -6.0039    1.0196    0.0000 C   0  0  1  0  0  0  0  0  0  0  0  0
   -5.2550    1.3656    0.0000 O   0  0  0  0  0  0  0  0  0  0  0  0
   -4.5809    0.8899    0.0000 C   0  0  0  0  0  0  0  0  0  0  0  0
   -3.8319    1.2358    0.0000 C   0  0  2  0  0  0  0  0  0  0  0  0
   -3.1578    0.7602    0.0000 N   0  0  0  0  0  0  0  0  0  0  0  0
   -2.4089    1.1061    0.0000 C   0  0  0  0  0  0  0  0  0  0  0  0
   -2.3340    1.9277    0.0000 O   0  0  0  0  0  0  0  0  0  0  0  0
   -1.7348    0.6305    0.0000 C   0  0  0  0  0  0  0  0  0  0  0  0
   -0.9858    0.9764    0.0000 C   0  0  0  0  0  0  0  0  0  0  0  0
   -0.3118    0.5007    0.0000 C   0  0  0  0  0  0  0  0  0  0  0  0
    0.4372    0.8467    0.0000 C   0  0  0  0  0  0  0  0  0  0  0  0
    1.1113    0.3710    0.0000 C   0  0  0  0  0  0  0  0  0  0  0  0
    1.8602    0.7169    0.0000 C   0  0  0  0  0  0  0  0  0  0  0  0
    1.9351    1.5385    0.0000 C   0  0  0  0  0  0  0  0  0  0  0  0
    2.6841    1.8845    0.0000 C   0  0  0  0  0  0  0  0  0  0  0  0
    3.3582    1.4088    0.0000 C   0  0  0  0  0  0  0  0  0  0  0  0
    4.1072    1.7547    0.0000 C   0  0  0  0  0  0  0  0  0  0  0  0
    4.7812    1.2791    0.0000 C   0  0  0  0  0  0  0  0  0  0  0  0
    5.5302    1.6250    0.0000 C   0  0  0  0  0  0  0  0  0  0  0  0
    6.2043    1.1494    0.0000 C   0  0  0  0  0  0  0  0  0  0  0  0
    6.9532    1.4953    0.0000 C   0  0  0  0  0  0  0  0  0  0  0  0
    7.6273    1.0196    0.0000 C   0  0  0  0  0  0  0  0  0  0  0  0
    8.3763    1.3656    0.0000 C   0  0  0  0  0  0  0  0  0  0  0  0
    9.0503    0.8899    0.0000 C   0  0  0  0  0  0  0  0  0  0  0  0
   -3.7570    2.0574    0.0000 C   0  0  2  0  0  0  0  0  0  0  0  0
   -3.0081    2.4034    0.0000 O   0  0  0  0  0  0  0  0  0  0  0  0
   -4.4311    2.5331    0.0000 C   0  0  0  0  0  0  0  0  0  0  0  0
   -5.1801    2.1872    0.0000 C   0  0  0  0  0  0  0  0  0  0  0  0
   -5.8541    2.6628    0.0000 C   0  0  0  0  0  0  0  0  0  0  0  0
   -5.7792    3.4844    0.0000 C   0  0  0  0  0  0  0  0  0  0  0  0
   -5.0303    3.8303    0.0000 C   0  0  0  0  0  0  0  0  0  0  0  0
   -4.9554    4.6519    0.0000 C   0  0  0  0  0  0  0  0  0  0  0  0
   -4.2064    4.9979    0.0000 C   0  0  0  0  0  0  0  0  0  0  0  0
   -4.1315    5.8195    0.0000 C   0  0  0  0  0  0  0  0  0  0  0  0
   -3.3825    6.1654    0.0000 C   0  0  0  0  0  0  0  0  0  0  0  0
   -3.3076    6.9870    0.0000 C   0  0  0  0  0  0  0  0  0  0  0  0
   -2.5587    7.3329    0.0000 C   0  0  0  0  0  0  0  0  0  0  0  0
   -2.4838    8.1545    0.0000 C   0  0  0  0  0  0  0  0  0  0  0  0
   -1.7348    8.5005    0.0000 C   0  0  0  0  0  0  0  0  0  0  0  0
   -1.6599    9.3220    0.0000 C   0  0  0  0  0  0  0  0  0  0  0  0
   -0.9109    9.6680    0.0000 C   0  0  0  0  0  0  0  0  0  0  0  0
   -6.6780    1.4953    0.0000 C   0  0  2  0  0  0  0  0  0  0  0  0
   -6.6031    2.3169    0.0000 O   0  0  0  0  0  0  0  0  0  0  0  0
   -7.4270    1.1494    0.0000 C   0  0  1  0  0  0  0  0  0  0  0  0
   -8.1010    1.6250    0.0000 O   0  0  0  0  0  0  0  0  0  0  0  0
   -9.6739    0.1116    0.0000 C   0  0  2  0  0  0  0  0  0  0  0  0
   -9.7488   -0.7100    0.0000 O   0  0  0  0  0  0  0  0  0  0  0  0
  -10.3480    0.5872    0.0000 C   0  0  1  0  0  0  0  0  0  0  0  0
  -11.0969    0.2413    0.0000 O   0  0  0  0  0  0  0  0  0  0  0  0
  -11.1718   -0.5803    0.0000 C   0  0  2  0  0  0  0  0  0  0  0  0
  -10.3497   -0.5114    0.0000 C   0  0  0  0  0  0  0  0  0  0  0  0
   -9.8790   -1.1889    0.0000 C   0  0  2  0  0  0  0  0  0  0  0  0
   -9.0568   -1.1200    0.0000 O   0  0  0  0  0  0  0  0  0  0  0  0
  -10.2303   -1.9354    0.0000 C   0  0  1  0  0  0  0  0  0  0  0  0
   -9.7596   -2.6129    0.0000 N   0  0  0  0  0  0  0  0  0  0  0  0
   -8.9375   -2.5440    0.0000 C   0  0  0  0  0  0  0  0  0  0  0  0
   -8.4668   -3.2215    0.0000 C   0  0  0  0  0  0  0  0  0  0  0  0
   -8.5861   -1.7975    0.0000 O   0  0  0  0  0  0  0  0  0  0  0  0
  -11.0525   -2.0043    0.0000 C   0  0  1  0  0  0  0  0  0  0  0  0
  -11.8746   -2.0732    0.0000 H   0  0  0  0  0  0  0  0  0  0  0  0
  -11.5232   -1.3267    0.0000 O   0  0  0  0  0  0  0  0  0  0  0  0
  -11.4038   -2.7507    0.0000 C   0  0  2  0  0  0  0  0  0  0  0  0
  -10.9331   -3.4282    0.0000 O   0  0  0  0  0  0  0  0  0  0  0  0
  -12.2260   -2.8196    0.0000 C   0  0  2  0  0  0  0  0  0  0  0  0
  -12.6967   -2.1421    0.0000 O   0  0  0  0  0  0  0  0  0  0  0  0
  -12.5773   -3.5660    0.0000 C   0  0  0  0  0  0  0  0  0  0  0  0
  -13.3995   -3.6349    0.0000 O   0  0  0  0  0  0  0  0  0  0  0  0
  -11.9679   -0.3639    0.0000 C   0  0  0  0  0  0  0  0  0  0  0  0
  -12.1785    0.4338    0.0000 O   0  0  0  0  0  0  0  0  0  0  0  0
  -12.5534   -0.9451    0.0000 O   0  0  0  0  0  0  0  0  0  0  0  0
  -11.5463    3.1817    0.0000 C   0  0  2  0  0  0  0  0  0  0  0  0
  -12.2953    2.8358    0.0000 N   0  0  0  0  0  0  0  0  0  0  0  0
  -12.9693    3.3114    0.0000 C   0  0  0  0  0  0  0  0  0  0  0  0
  -13.7183    2.9655    0.0000 C   0  0  0  0  0  0  0  0  0  0  0  0
  -12.8944    4.1330    0.0000 O   0  0  0  0  0  0  0  0  0  0  0  0
  -11.3216    5.6465    0.0000 O   0  0  0  0  0  0  0  0  0  0  0  0
  -11.2467    6.4681    0.0000 C   0  0  2  0  0  0  0  0  0  0  0  0
  -10.4977    6.8140    0.0000 C   0  0  0  0  0  0  0  0  0  0  0  0
   -9.8237    6.3384    0.0000 O   0  0  0  0  0  0  0  0  0  0  0  0
  -11.9208    6.9438    0.0000 C   0  0  2  0  0  0  0  0  0  0  0  0
  -11.8459    7.7653    0.0000 O   0  0  0  0  0  0  0  0  0  0  0  0
  -12.6698    6.5978    0.0000 C   0  0  2  0  0  0  0  0  0  0  0  0
  -13.3438    7.0735    0.0000 O   0  0  0  0  0  0  0  0  0  0  0  0
  -12.7447    5.7762    0.0000 C   0  0  1  0  0  0  0  0  0  0  0  0
  -13.4936    5.4303    0.0000 O   0  0  0  0  0  0  0  0  0  0  0  0
  -11.3742    5.0689    0.0000 H   0  0  0  0  0  0  0  0  0  0  0  0
  -11.5966    4.9661    0.0000 H   0  0  0  0  0  0  0  0  0  0  0  0
   -9.7669    5.5775    0.0000 H   0  0  0  0  0  0  0  0  0  0  0  0
   -9.9512    4.9392    0.0000 H   0  0  0  0  0  0  0  0  0  0  0  0
   -8.4252    3.6026    0.0000 H   0  0  0  0  0  0  0  0  0  0  0  0
   -8.3280    4.6682    0.0000 H   0  0  0  0  0  0  0  0  0  0  0  0
   -8.3439    5.4478    0.0000 H   0  0  0  0  0  0  0  0  0  0  0  0
  -10.1759    2.4744    0.0000 H   0  0  0  0  0  0  0  0  0  0  0  0
  -10.3983    2.3716    0.0000 H   0  0  0  0  0  0  0  0  0  0  0  0
  -10.3235    3.1932    0.0000 H   0  0  0  0  0  0  0  0  0  0  0  0
   -9.3521    3.6419    0.0000 H   0  0  0  0  0  0  0  0  0  0  0  0
   -7.9076    2.3631    0.0000 H   0  0  0  0  0  0  0  0  0  0  0  0
   -7.5990   -0.7378    0.0000 H   0  0  0  0  0  0  0  0  0  0  0  0
   -7.7992   -0.5966    0.0000 H   0  0  0  0  0  0  0  0  0  0  0  0
   -6.0285   -1.5864    0.0000 H   0  0  0  0  0  0  0  0  0  0  0  0
   -6.9999   -2.0351    0.0000 H   0  0  0  0  0  0  0  0  0  0  0  0
   -8.4442   -0.7561    0.0000 H   0  0  0  0  0  0  0  0  0  0  0  0
   -5.1296    0.4027    0.0000 H   0  0  0  0  0  0  0  0  0  0  0  0
   -4.6781   -0.1757    0.0000 H   0  0  0  0  0  0  0  0  0  0  0  0
   -3.7067    0.2729    0.0000 H   0  0  0  0  0  0  0  0  0  0  0  0
   -3.9290    0.1702    0.0000 H   0  0  0  0  0  0  0  0  0  0  0  0
   -3.2471   -0.2202    0.0000 H   0  0  0  0  0  0  0  0  0  0  0  0
   -1.8319   -0.4351    0.0000 H   0  0  0  0  0  0  0  0  0  0  0  0
   -0.8606    0.0136    0.0000 H   0  0  0  0  0  0  0  0  0  0  0  0
   -0.8886    2.0420    0.0000 H   0  0  0  0  0  0  0  0  0  0  0  0
   -0.0144    1.4250    0.0000 H   0  0  0  0  0  0  0  0  0  0  0  0
   -0.4090   -0.5649    0.0000 H   0  0  0  0  0  0  0  0  0  0  0  0
    0.5625   -0.1162    0.0000 H   0  0  0  0  0  0  0  0  0  0  0  0
    0.5343    1.9123    0.0000 H   0  0  0  0  0  0  0  0  0  0  0  0
    1.4086    1.2954    0.0000 H   0  0  0  0  0  0  0  0  0  0  0  0
    1.0141   -0.6946    0.0000 H   0  0  0  0  0  0  0  0  0  0  0  0
    1.9855   -0.2459    0.0000 H   0  0  0  0  0  0  0  0  0  0  0  0
    2.7344    0.1000    0.0000 H   0  0  0  0  0  0  0  0  0  0  0  0
    2.8316    1.1656    0.0000 H   0  0  0  0  0  0  0  0  0  0  0  0
    1.0608    2.1554    0.0000 H   0  0  0  0  0  0  0  0  0  0  0  0
    2.0322    2.6041    0.0000 H   0  0  0  0  0  0  0  0  0  0  0  0
    2.7812    2.9501    0.0000 H   0  0  0  0  0  0  0  0  0  0  0  0
    3.6555    2.3332    0.0000 H   0  0  0  0  0  0  0  0  0  0  0  0
    3.2610    0.3432    0.0000 H   0  0  0  0  0  0  0  0  0  0  0  0
    4.2324    0.7918    0.0000 H   0  0  0  0  0  0  0  0  0  0  0  0
    4.2044    2.8203    0.0000 H   0  0  0  0  0  0  0  0  0  0  0  0
    5.0786    2.2034    0.0000 H   0  0  0  0  0  0  0  0  0  0  0  0
    4.6840    0.2135    0.0000 H   0  0  0  0  0  0  0  0  0  0  0  0
    5.6554    0.6622    0.0000 H   0  0  0  0  0  0  0  0  0  0  0  0
    5.6273    2.6906    0.0000 H   0  0  0  0  0  0  0  0  0  0  0  0
    6.5016    2.0737    0.0000 H   0  0  0  0  0  0  0  0  0  0  0  0
    6.1072    0.0838    0.0000 H   0  0  0  0  0  0  0  0  0  0  0  0
    7.0786    0.5325    0.0000 H   0  0  0  0  0  0  0  0  0  0  0  0
    7.0504    2.5609    0.0000 H   0  0  0  0  0  0  0  0  0  0  0  0
    7.9246    1.9440    0.0000 H   0  0  0  0  0  0  0  0  0  0  0  0
    7.5302   -0.0460    0.0000 H   0  0  0  0  0  0  0  0  0  0  0  0
    8.5016    0.4027    0.0000 H   0  0  0  0  0  0  0  0  0  0  0  0
    8.4735    2.4312    0.0000 H   0  0  0  0  0  0  0  0  0  0  0  0
    9.3477    1.8142    0.0000 H   0  0  0  0  0  0  0  0  0  0  0  0
    8.9531   -0.1757    0.0000 H   0  0  0  0  0  0  0  0  0  0  0  0
   10.0217    1.3385    0.0000 H   0  0  0  0  0  0  0  0  0  0  0  0
    9.9245    0.2729    0.0000 H   0  0  0  0  0  0  0  0  0  0  0  0
   -2.8827    1.4405    0.0000 H   0  0  0  0  0  0  0  0  0  0  0  0
   -2.2155    1.8442    0.0000 H   0  0  0  0  0  0  0  0  0  0  0  0
   -4.3374    3.5608    0.0000 H   0  0  0  0  0  0  0  0  0  0  0  0
   -5.2738    1.1595    0.0000 H   0  0  0  0  0  0  0  0  0  0  0  0
   -6.8255    2.2141    0.0000 H   0  0  0  0  0  0  0  0  0  0  0  0
   -6.7284    3.2797    0.0000 H   0  0  0  0  0  0  0  0  0  0  0  0
   -6.6534    4.1013    0.0000 H   0  0  0  0  0  0  0  0  0  0  0  0
   -5.6821    4.5500    0.0000 H   0  0  0  0  0  0  0  0  0  0  0  0
   -4.1561    3.2134    0.0000 H   0  0  0  0  0  0  0  0  0  0  0  0
   -4.0589    4.2790    0.0000 H   0  0  0  0  0  0  0  0  0  0  0  0
   -5.8297    5.2688    0.0000 H   0  0  0  0  0  0  0  0  0  0  0  0
   -4.8583    5.7175    0.0000 H   0  0  0  0  0  0  0  0  0  0  0  0
   -3.3321    4.3810    0.0000 H   0  0  0  0  0  0  0  0  0  0  0  0
   -3.2350    5.4466    0.0000 H   0  0  0  0  0  0  0  0  0  0  0  0
   -5.0057    6.4364    0.0000 H   0  0  0  0  0  0  0  0  0  0  0  0
   -4.0343    6.8851    0.0000 H   0  0  0  0  0  0  0  0  0  0  0  0
   -2.5083    5.5485    0.0000 H   0  0  0  0  0  0  0  0  0  0  0  0
   -2.4111    6.6141    0.0000 H   0  0  0  0  0  0  0  0  0  0  0  0
   -4.1818    7.6039    0.0000 H   0  0  0  0  0  0  0  0  0  0  0  0
   -3.2105    8.0526    0.0000 H   0  0  0  0  0  0  0  0  0  0  0  0
   -1.6845    6.7160    0.0000 H   0  0  0  0  0  0  0  0  0  0  0  0
   -1.5873    7.7816    0.0000 H   0  0  0  0  0  0  0  0  0  0  0  0
   -3.3581    8.7714    0.0000 H   0  0  0  0  0  0  0  0  0  0  0  0
   -2.3867    9.2201    0.0000 H   0  0  0  0  0  0  0  0  0  0  0  0
   -0.8605    7.8836    0.0000 H   0  0  0  0  0  0  0  0  0  0  0  0
   -0.7634    8.9492    0.0000 H   0  0  0  0  0  0  0  0  0  0  0  0
   -2.5342    9.9389    0.0000 H   0  0  0  0  0  0  0  0  0  0  0  0
   -1.5628   10.3876    0.0000 H   0  0  0  0  0  0  0  0  0  0  0  0
   -0.0366    9.0511    0.0000 H   0  0  0  0  0  0  0  0  0  0  0  0
   -0.8138   10.7336    0.0000 H   0  0  0  0  0  0  0  0  0  0  0  0
    0.0605   10.1167    0.0000 H   0  0  0  0  0  0  0  0  0  0  0  0
   -5.7066    1.9440    0.0000 H   0  0  0  0  0  0  0  0  0  0  0  0
   -5.7225    2.7236    0.0000 H   0  0  0  0  0  0  0  0  0  0  0  0
   -7.3298    2.2150    0.0000 H   0  0  0  0  0  0  0  0  0  0  0  0
   -8.0129    2.5910    0.0000 H   0  0  0  0  0  0  0  0  0  0  0  0
   -8.7997   -0.5053    0.0000 H   0  0  0  0  0  0  0  0  0  0  0  0
  -10.6294   -1.1167    0.0000 H   0  0  0  0  0  0  0  0  0  0  0  0
  -10.4451   -0.4784    0.0000 H   0  0  0  0  0  0  0  0  0  0  0  0
   -9.8940    0.4567    0.0000 H   0  0  0  0  0  0  0  0  0  0  0  0
   -9.2834   -0.4220    0.0000 H   0  0  0  0  0  0  0  0  0  0  0  0
   -9.4232   -0.2208    0.0000 H   0  0  0  0  0  0  0  0  0  0  0  0
   -8.5033   -1.9166    0.0000 H   0  0  0  0  0  0  0  0  0  0  0  0
   -9.1640   -1.8460    0.0000 H   0  0  0  0  0  0  0  0  0  0  0  0
  -10.1789   -3.5036    0.0000 H   0  0  0  0  0  0  0  0  0  0  0  0
   -8.9226   -4.1896    0.0000 H   0  0  0  0  0  0  0  0  0  0  0  0
   -7.4005   -3.1322    0.0000 H   0  0  0  0  0  0  0  0  0  0  0  0
   -7.8563   -4.1002    0.0000 H   0  0  0  0  0  0  0  0  0  0  0  0
  -10.3375   -2.6613    0.0000 H   0  0  0  0  0  0  0  0  0  0  0  0
  -11.3463   -4.3058    0.0000 H   0  0  0  0  0  0  0  0  0  0  0  0
  -11.7702   -1.8515    0.0000 H   0  0  0  0  0  0  0  0  0  0  0  0
  -12.2835   -1.2645    0.0000 H   0  0  0  0  0  0  0  0  0  0  0  0
  -11.9667   -4.4447    0.0000 H   0  0  0  0  0  0  0  0  0  0  0  0
  -13.0330   -4.5341    0.0000 H   0  0  0  0  0  0  0  0  0  0  0  0
  -13.9530   -2.8383    0.0000 H   0  0  0  0  0  0  0  0  0  0  0  0
  -11.5135    1.0939    0.0000 H   0  0  0  0  0  0  0  0  0  0  0  0
  -11.6434    2.1161    0.0000 H   0  0  0  0  0  0  0  0  0  0  0  0
  -12.3847    1.8554    0.0000 H   0  0  0  0  0  0  0  0  0  0  0  0
  -14.5925    3.5825    0.0000 H   0  0  0  0  0  0  0  0  0  0  0  0
  -13.8155    1.8999    0.0000 H   0  0  0  0  0  0  0  0  0  0  0  0
  -14.6897    2.5169    0.0000 H   0  0  0  0  0  0  0  0  0  0  0  0
  -10.3725    5.8512    0.0000 H   0  0  0  0  0  0  0  0  0  0  0  0
  -10.4005    7.8796    0.0000 H   0  0  0  0  0  0  0  0  0  0  0  0
   -9.5263    7.2627    0.0000 H   0  0  0  0  0  0  0  0  0  0  0  0
   -9.9118    5.3724    0.0000 H   0  0  0  0  0  0  0  0  0  0  0  0
  -10.9494    7.3924    0.0000 H   0  0  0  0  0  0  0  0  0  0  0  0
  -10.9653    8.1720    0.0000 H   0  0  0  0  0  0  0  0  0  0  0  0
  -12.5726    7.6634    0.0000 H   0  0  0  0  0  0  0  0  0  0  0  0
  -13.2557    8.0395    0.0000 H   0  0  0  0  0  0  0  0  0  0  0  0
  -13.6189    6.3931    0.0000 H   0  0  0  0  0  0  0  0  0  0  0  0
  -14.2861    5.9896    0.0000 H   0  0  0  0  0  0  0  0  0  0  0  0
  2  1  1  6  0  0  0
  2  3  1  0  0  0  0
  2102  1  0  0  0  0
  4  3  1  0  0  0  0
  4  5  1  0  0  0  0
  4 97  1  0  0  0  0
  4112  1  6  0  0  0
  5  6  1  0  0  0  0
  5  7  1  0  0  0  0
  5113  1  6  0  0  0
  6114  1  0  0  0  0
  7  8  1  0  0  0  0
  7 10  1  0  0  0  0
  7115  1  6  0  0  0
  8  9  1  0  0  0  0
  8116  1  0  0  0  0
  8117  1  0  0  0  0
  9118  1  0  0  0  0
 11 10  1  0  0  0  0
 11 12  1  6  0  0  0
 11 13  1  0  0  0  0
 14 13  1  0  0  0  0
 14 15  1  0  0  0  0
 14 74  1  0  0  0  0
 14119  1  6  0  0  0
 15 16  1  0  0  0  0
 15 18  1  0  0  0  0
 15120  1  6  0  0  0
 16 17  1  0  0  0  0
 16121  1  0  0  0  0
 16122  1  0  0  0  0
 17123  1  0  0  0  0
 19 18  1  0  0  0  0
 19 20  1  6  0  0  0
 19 21  1  0  0  0  0
 22 21  1  0  0  0  0
 22 23  1  0  0  0  0
 22 70  1  0  0  0  0
 22124  1  6  0  0  0
 23 24  1  0  0  0  0
 23 26  1  0  0  0  0
 23125  1  1  0  0  0
 24 25  1  0  0  0  0
 24126  1  0  0  0  0
 24127  1  0  0  0  0
 25128  1  0  0  0  0
 27 26  1  0  0  0  0
 27 28  1  0  0  0  0
 27129  1  1  0  0  0
 28 29  1  0  0  0  0
 29130  1  0  0  0  0
 29131  1  0  0  0  0
 30 29  1  0  0  0  0
 30 31  1  0  0  0  0
 30 51  1  0  0  0  0
 30132  1  6  0  0  0
 31 32  1  0  0  0  0
 31133  1  0  0  0  0
 32 33  2  0  0  0  0
 32 34  1  0  0  0  0
 34 35  1  0  0  0  0
 34134  1  0  0  0  0
 34135  1  0  0  0  0
 35 36  1  0  0  0  0
 35136  1  0  0  0  0
 35137  1  0  0  0  0
 36 37  1  0  0  0  0
 36138  1  0  0  0  0
 36139  1  0  0  0  0
 37 38  1  0  0  0  0
 37140  1  0  0  0  0
 37141  1  0  0  0  0
 38 39  1  0  0  0  0
 38142  1  0  0  0  0
 38143  1  0  0  0  0
 39 40  1  0  0  0  0
 39144  1  0  0  0  0
 39145  1  0  0  0  0
 40 41  1  0  0  0  0
 40146  1  0  0  0  0
 40147  1  0  0  0  0
 41 42  1  0  0  0  0
 41148  1  0  0  0  0
 41149  1  0  0  0  0
 42 43  1  0  0  0  0
 42150  1  0  0  0  0
 42151  1  0  0  0  0
 43 44  1  0  0  0  0
 43152  1  0  0  0  0
 43153  1  0  0  0  0
 44 45  1  0  0  0  0
 44154  1  0  0  0  0
 44155  1  0  0  0  0
 45 46  1  0  0  0  0
 45156  1  0  0  0  0
 45157  1  0  0  0  0
 46 47  1  0  0  0  0
 46158  1  0  0  0  0
 46159  1  0  0  0  0
 47 48  1  0  0  0  0
 47160  1  0  0  0  0
 47161  1  0  0  0  0
 48 49  1  0  0  0  0
 48162  1  0  0  0  0
 48163  1  0  0  0  0
 49 50  1  0  0  0  0
 49164  1  0  0  0  0
 49165  1  0  0  0  0
 50166  1  0  0  0  0
 50167  1  0  0  0  0
 50168  1  0  0  0  0
 51 52  1  0  0  0  0
 51 53  1  0  0  0  0
 51169  1  6  0  0  0
 52170  1  0  0  0  0
 53 54  2  0  0  0  0
 53171  1  0  0  0  0
 54 55  1  0  0  0  0
 54172  1  0  0  0  0
 55 56  1  0  0  0  0
 55173  1  0  0  0  0
 55174  1  0  0  0  0
 56 57  1  0  0  0  0
 56175  1  0  0  0  0
 56176  1  0  0  0  0
 57 58  1  0  0  0  0
 57177  1  0  0  0  0
 57178  1  0  0  0  0
 58 59  1  0  0  0  0
 58179  1  0  0  0  0
 58180  1  0  0  0  0
 59 60  1  0  0  0  0
 59181  1  0  0  0  0
 59182  1  0  0  0  0
 60 61  1  0  0  0  0
 60183  1  0  0  0  0
 60184  1  0  0  0  0
 61 62  1  0  0  0  0
 61185  1  0  0  0  0
 61186  1  0  0  0  0
 62 63  1  0  0  0  0
 62187  1  0  0  0  0
 62188  1  0  0  0  0
 63 64  1  0  0  0  0
 63189  1  0  0  0  0
 63190  1  0  0  0  0
 64 65  1  0  0  0  0
 64191  1  0  0  0  0
 64192  1  0  0  0  0
 65 66  1  0  0  0  0
 65193  1  0  0  0  0
 65194  1  0  0  0  0
 66 67  1  0  0  0  0
 66195  1  0  0  0  0
 66196  1  0  0  0  0
 67197  1  0  0  0  0
 67198  1  0  0  0  0
 67199  1  0  0  0  0
 68 27  1  0  0  0  0
 68 69  1  0  0  0  0
 68200  1  6  0  0  0
 69201  1  0  0  0  0
 70 68  1  0  0  0  0
 70 71  1  0  0  0  0
 70202  1  1  0  0  0
 71203  1  0  0  0  0
 72 19  1  0  0  0  0
 72 73  1  0  0  0  0
 72204  1  1  0  0  0
 73205  1  0  0  0  0
 74 72  1  0  0  0  0
 74 75  1  0  0  0  0
 74206  1  6  0  0  0
 76 75  1  6  0  0  0
 76 77  1  0  0  0  0
 76 87  1  0  0  0  0
 76 94  1  0  0  0  0
 77207  1  0  0  0  0
 77208  1  0  0  0  0
 78 77  1  0  0  0  0
 78 79  1  0  0  0  0
 78209  1  1  0  0  0
 79210  1  0  0  0  0
 80 78  1  0  0  0  0
 80 81  1  0  0  0  0
 80 85  1  0  0  0  0
 80211  1  6  0  0  0
 81 82  1  0  0  0  0
 81212  1  0  0  0  0
 82 83  1  0  0  0  0
 82 84  2  0  0  0  0
 83213  1  0  0  0  0
 83214  1  0  0  0  0
 83215  1  0  0  0  0
 85 86  1  1  0  0  0
 85 87  1  0  0  0  0
 85 88  1  0  0  0  0
 88 89  1  0  0  0  0
 88 90  1  0  0  0  0
 88216  1  1  0  0  0
 89217  1  0  0  0  0
 90 91  1  0  0  0  0
 90 92  1  0  0  0  0
 90218  1  6  0  0  0
 91219  1  0  0  0  0
 92 93  1  0  0  0  0
 92220  1  0  0  0  0
 92221  1  0  0  0  0
 93222  1  0  0  0  0
 94 95  1  0  0  0  0
 94 96  2  0  0  0  0
 95223  1  0  0  0  0
 97 11  1  0  0  0  0
 97 98  1  0  0  0  0
 97224  1  1  0  0  0
 98 99  1  0  0  0  0
 98225  1  0  0  0  0
 99100  1  0  0  0  0
 99101  2  0  0  0  0
100226  1  0  0  0  0
100227  1  0  0  0  0
100228  1  0  0  0  0
103102  1  0  0  0  0
103104  1  0  0  0  0
103229  1  6  0  0  0
104105  1  0  0  0  0
104230  1  0  0  0  0
104231  1  0  0  0  0
105232  1  0  0  0  0
106103  1  0  0  0  0
106107  1  0  0  0  0
106108  1  0  0  0  0
106233  1  6  0  0  0
107234  1  0  0  0  0
108109  1  0  0  0  0
108110  1  0  0  0  0
108235  1  6  0  0  0
109236  1  0  0  0  0
110  2  1  0  0  0  0
110111  1  0  0  0  0
110237  1  1  0  0  0
111238  1  0  0  0  0
M  END
>  <DRUGBANK_ID>
DB16948

>  <COMMON_NAME>
Ganglioside GM1

>  <CAS_NUMBER>
116950-37-9

>  <UNII>
562413257Z

>  <SYNONYMS>
Ganglioside gm1 (d18:1/18:0); Monosialotetrahexosyl ganglioside (GM1); Monosialotetrahexosylganglioside; Monosialotetrahexosylganglioside (d18:1/18:0); Porcine GM1 ganglioside

$$$$
