
 OpenBabel10282417072D

  5  3  0  0  0  0  0  0  0  0999 V2000
    0.0000    0.0000    0.0000 K   0  3  0  0  0  0  0  0  0  0  0  0
    3.2411    0.7145    0.0000 O   0  5  0  0  0  0  0  0  0  0  0  0
    2.8286    0.0000    0.0000 N   0  3  0  0  0  0  0  0  0  0  0  0
    3.2411   -0.7145    0.0000 O   0  5  0  0  0  0  0  0  0  0  0  0
    2.0036    0.0000    0.0000 O   0  0  0  0  0  0  0  0  0  0  0  0
  2  3  1  0  0  0  0
  3  4  1  0  0  0  0
  3  5  2  0  0  0  0
M  CHG  4   1   1   2  -1   3   1   4  -1
M  END
>  <DRUGBANK_ID>
DB11090

>  <COMMON_NAME>
Potassium nitrate

>  <CAS_NUMBER>
7757-79-1

>  <UNII>
RU45X2JN0Z

>  <SYNONYMS>
Potassium nitrate

$$$$
