
 OpenBabel10282417072D

 35 35  0  0  0  0  0  0  0  0999 V2000
   -1.0721    0.0000    0.0000 C   0  0  0  0  0  0  0  0  0  0  0  0
   -1.0721   -0.8250    0.0000 C   0  0  0  0  0  0  0  0  0  0  0  0
   -0.3576   -1.2375    0.0000 C   0  0  0  0  0  0  0  0  0  0  0  0
    0.3566   -0.8250    0.0000 C   0  0  0  0  0  0  0  0  0  0  0  0
    0.3566    0.0000    0.0000 C   0  0  0  0  0  0  0  0  0  0  0  0
   -0.3576    0.4125    0.0000 C   0  0  0  0  0  0  0  0  0  0  0  0
   -1.7866   -1.2375    0.0000 C   0  0  0  0  0  0  0  0  0  0  0  0
   -2.5011   -0.8250    0.0000 C   0  0  0  0  0  0  0  0  0  0  0  0
   -3.2156   -1.2375    0.0000 C   0  0  0  0  0  0  0  0  0  0  0  0
   -2.5011    0.0000    0.0000 C   0  0  0  0  0  0  0  0  0  0  0  0
    1.0722    0.4125    0.0000 C   0  0  3  0  0  0  0  0  0  0  0  0
    1.7866    0.0000    0.0000 C   0  0  0  0  0  0  0  0  0  0  0  0
    2.5011    0.4125    0.0000 N   0  0  0  0  0  0  0  0  0  0  0  0
    1.7866   -0.8250    0.0000 O   0  0  0  0  0  0  0  0  0  0  0  0
    1.0725    1.2375    0.0000 C   0  0  0  0  0  0  0  0  0  0  0  0
    3.2156    0.0000    0.0000 O   0  0  0  0  0  0  0  0  0  0  0  0
   -1.9658    0.5160    0.0000 H   0  0  0  0  0  0  0  0  0  0  0  0
   -0.3575   -2.2695    0.0000 H   0  0  0  0  0  0  0  0  0  0  0  0
    1.2504   -1.3409    0.0000 H   0  0  0  0  0  0  0  0  0  0  0  0
   -0.3575    1.4445    0.0000 H   0  0  0  0  0  0  0  0  0  0  0  0
   -1.7866   -2.3075    0.0000 H   0  0  0  0  0  0  0  0  0  0  0  0
   -2.7132   -1.7725    0.0000 H   0  0  0  0  0  0  0  0  0  0  0  0
   -3.4277   -0.2900    0.0000 H   0  0  0  0  0  0  0  0  0  0  0  0
   -4.1422   -0.7025    0.0000 H   0  0  0  0  0  0  0  0  0  0  0  0
   -3.2156   -2.3075    0.0000 H   0  0  0  0  0  0  0  0  0  0  0  0
   -4.1423   -1.7725    0.0000 H   0  0  0  0  0  0  0  0  0  0  0  0
   -1.5745    0.5350    0.0000 H   0  0  0  0  0  0  0  0  0  0  0  0
   -3.4277    0.5350    0.0000 H   0  0  0  0  0  0  0  0  0  0  0  0
   -2.5011    1.0700    0.0000 H   0  0  0  0  0  0  0  0  0  0  0  0
    1.0718   -0.6575    0.0000 H   0  0  0  0  0  0  0  0  0  0  0  0
    2.5011    1.3970    0.0000 H   0  0  0  0  0  0  0  0  0  0  0  0
    1.9993    1.7722    0.0000 H   0  0  0  0  0  0  0  0  0  0  0  0
    0.1460    1.7728    0.0000 H   0  0  0  0  0  0  0  0  0  0  0  0
    1.0729    2.3075    0.0000 H   0  0  0  0  0  0  0  0  0  0  0  0
    3.2156   -0.9700    0.0000 H   0  0  0  0  0  0  0  0  0  0  0  0
  1  2  2  0  0  0  0
  1  6  1  0  0  0  0
  1 17  1  0  0  0  0
  2  3  1  0  0  0  0
  2  7  1  0  0  0  0
  3  4  2  0  0  0  0
  3 18  1  0  0  0  0
  4  5  1  0  0  0  0
  4 19  1  0  0  0  0
  5  6  2  0  0  0  0
  5 11  1  0  0  0  0
  6 20  1  0  0  0  0
  7  8  1  0  0  0  0
  7 21  1  0  0  0  0
  7 22  1  0  0  0  0
  8  9  1  0  0  0  0
  8 10  1  0  0  0  0
  8 23  1  0  0  0  0
  9 24  1  0  0  0  0
  9 25  1  0  0  0  0
  9 26  1  0  0  0  0
 10 27  1  0  0  0  0
 10 28  1  0  0  0  0
 10 29  1  0  0  0  0
 11 12  1  0  0  0  0
 11 15  1  0  0  0  0
 11 30  1  0  0  0  0
 12 13  1  0  0  0  0
 12 14  2  0  0  0  0
 13 16  1  0  0  0  0
 13 31  1  0  0  0  0
 15 32  1  0  0  0  0
 15 33  1  0  0  0  0
 15 34  1  0  0  0  0
 16 35  1  0  0  0  0
M  END
>  <DRUGBANK_ID>
DB08955

>  <COMMON_NAME>
Ibuproxam

>  <CAS_NUMBER>
53648-05-8

>  <UNII>
O3LD16O96Z

>  <SYNONYMS>
Ibuproxam; Ibuproxamum; p-Isobutylhydratropohydroxamic acid

$$$$
