
 OpenBabel10282417072D

 42 45  0  0  1  0  0  0  0  0999 V2000
    2.8747    6.2597    0.0000 C   0  0  0  0  0  0  0  0  0  0  0  0
   -0.3702    5.5899    0.0000 C   0  0  0  0  0  0  0  0  0  0  0  0
    5.1626    5.6083    0.0000 C   0  0  0  0  0  0  0  0  0  0  0  0
    4.0066    6.2757    0.0000 C   0  0  0  0  0  0  0  0  0  0  0  0
    5.9472    6.9673    0.0000 C   0  0  0  0  0  0  0  0  0  0  0  0
    4.7912    7.6347    0.0000 C   0  0  0  0  0  0  0  0  0  0  0  0
    2.6197    5.4750    0.0000 C   0  0  2  0  0  0  0  0  0  0  0  0
    0.4267    5.8035    0.0000 C   0  0  2  0  0  0  0  0  0  0  0  0
    4.3421    5.5221    0.0000 C   0  0  3  0  0  0  0  0  0  0  0  0
    1.0101    5.2201    0.0000 C   0  0  2  0  0  0  0  0  0  0  0  0
    1.8351    5.2201    0.0000 C   0  0  2  0  0  0  0  0  0  0  0  0
    2.6197    4.1402    0.0000 C   0  0  0  0  0  0  0  0  0  0  0  0
    3.1046    4.8076    0.0000 C   0  0  0  0  0  0  0  0  0  0  0  0
    1.0101    4.3951    0.0000 C   0  0  0  0  0  0  0  0  0  0  0  0
    2.8747    3.3555    0.0000 C   0  0  0  0  0  0  0  0  0  0  0  0
    5.6117    7.7210    0.0000 N   0  0  0  0  0  0  0  0  0  0  0  0
    5.3342    6.4153    0.0000 N   0  0  0  0  0  0  0  0  0  0  0  0
    4.6197    6.8278    0.0000 N   0  3  0  0  0  0  0  0  0  0  0  0
    1.8351    4.3951    0.0000 N   0  0  0  0  0  0  0  0  0  0  0  0
    0.6403    6.6003    0.0000 O   0  0  0  0  0  0  0  0  0  0  0  0
    0.4267    3.8117    0.0000 O   0  0  0  0  0  0  0  0  0  0  0  0
    2.3226    2.7424    0.0000 O   0  0  0  0  0  0  0  0  0  0  0  0
    3.6816    3.1840    0.0000 O   0  5  0  0  0  0  0  0  0  0  0  0
    3.9296    4.8076    0.0000 S   0  0  0  0  0  0  0  0  0  0  0  0
    2.0364    6.0584    0.0000 H   0  0  0  0  0  0  0  0  0  0  0  0
    0.2132    5.0066    0.0000 H   0  0  0  0  0  0  0  0  0  0  0  0
    1.3258    5.9823    0.0000 H   0  0  0  0  0  0  0  0  0  0  0  0
    2.5025    4.7352    0.0000 H   0  0  0  0  0  0  0  0  0  0  0  0
    3.9213    6.4821    0.0000 H   0  0  0  0  0  0  0  0  0  0  0  0
    2.1588    7.0549    0.0000 H   0  0  0  0  0  0  0  0  0  0  0  0
    3.2054    7.2773    0.0000 H   0  0  0  0  0  0  0  0  0  0  0  0
   -1.1269    6.3464    0.0000 H   0  0  0  0  0  0  0  0  0  0  0  0
   -0.6471    4.5563    0.0000 H   0  0  0  0  0  0  0  0  0  0  0  0
   -1.4037    5.3129    0.0000 H   0  0  0  0  0  0  0  0  0  0  0  0
    5.8785    4.8131    0.0000 H   0  0  0  0  0  0  0  0  0  0  0  0
    6.1962    5.8852    0.0000 H   0  0  0  0  0  0  0  0  0  0  0  0
    2.9600    6.4982    0.0000 H   0  0  0  0  0  0  0  0  0  0  0  0
    3.7296    7.3092    0.0000 H   0  0  0  0  0  0  0  0  0  0  0  0
    6.9566    6.7527    0.0000 H   0  0  0  0  0  0  0  0  0  0  0  0
    4.1006    8.4016    0.0000 H   0  0  0  0  0  0  0  0  0  0  0  0
    4.8771    6.4487    0.0000 H   0  0  0  0  0  0  0  0  0  0  0  0
    1.5773    6.8512    0.0000 H   0  0  0  0  0  0  0  0  0  0  0  0
  1 29  1  0  0  0  0
  1 30  1  0  0  0  0
  1 31  1  0  0  0  0
  2 32  1  0  0  0  0
  2 33  1  0  0  0  0
  2 34  1  0  0  0  0
  3 35  1  0  0  0  0
  3 36  1  0  0  0  0
  4 37  1  0  0  0  0
  4 38  1  0  0  0  0
  5 39  1  0  0  0  0
  6 40  1  0  0  0  0
  7  1  1  0  0  0  0
  7 25  1  6  0  0  0
  8  2  1  0  0  0  0
  8 20  1  0  0  0  0
  8 26  1  6  0  0  0
  9  3  1  0  0  0  0
  9  4  1  0  0  0  0
  9 41  1  0  0  0  0
 10  8  1  0  0  0  0
 10 27  1  1  0  0  0
 11  7  1  0  0  0  0
 11 10  1  0  0  0  0
 11 28  1  6  0  0  0
 13  7  1  0  0  0  0
 13 12  2  0  0  0  0
 14 10  1  0  0  0  0
 15 12  1  0  0  0  0
 16  5  2  0  0  0  0
 16  6  1  0  0  0  0
 17  3  1  0  0  0  0
 17  5  1  0  0  0  0
 18  4  1  0  0  0  0
 18  6  2  0  0  0  0
 18 17  1  0  0  0  0
 19 11  1  0  0  0  0
 19 12  1  0  0  0  0
 19 14  1  0  0  0  0
 20 42  1  0  0  0  0
 21 14  2  0  0  0  0
 22 15  2  0  0  0  0
 23 15  1  0  0  0  0
 24  9  1  0  0  0  0
 24 13  1  0  0  0  0
M  CHG  2  18   1  23  -1
M  END
>  <DRUGBANK_ID>
DB13028

>  <COMMON_NAME>
Biapenem

>  <CAS_NUMBER>
120410-24-4

>  <UNII>
YR5U3L9ZH1

>  <SYNONYMS>
Biapenem

$$$$
