
 OpenBabel10282417072D

 84 87  0  0  0  0  0  0  0  0999 V2000
   -5.5865   -0.9045    0.0000 C   0  0  0  0  0  0  0  0  0  0  0  0
   -5.9918   -0.1809    0.0000 C   0  0  0  0  0  0  0  0  0  0  0  0
   -6.8168   -0.1809    0.0000 C   0  0  0  0  0  0  0  0  0  0  0  0
   -7.2364   -0.9045    0.0000 C   0  0  0  0  0  0  0  0  0  0  0  0
   -6.8168   -1.6137    0.0000 C   0  0  0  0  0  0  0  0  0  0  0  0
   -5.9918   -1.6137    0.0000 C   0  0  0  0  0  0  0  0  0  0  0  0
   -4.7471   -0.9045    0.0000 C   0  0  0  0  0  0  0  0  0  0  0  0
   -3.0972   -0.9045    0.0000 C   0  0  0  0  0  0  0  0  0  0  0  0
   -3.5169   -0.1809    0.0000 C   0  0  0  0  0  0  0  0  0  0  0  0
   -4.3419   -0.1809    0.0000 C   0  0  0  0  0  0  0  0  0  0  0  0
   -4.3419   -1.6137    0.0000 C   0  0  0  0  0  0  0  0  0  0  0  0
   -3.5169   -1.6137    0.0000 C   0  0  0  0  0  0  0  0  0  0  0  0
   -2.2722   -0.9045    0.0000 C   0  0  0  0  0  0  0  0  0  0  0  0
   -2.0696    1.2953    0.0000 C   0  0  0  0  0  0  0  0  0  0  0  0
   -2.3157    0.4993    0.0000 C   0  0  0  0  0  0  0  0  0  0  0  0
   -1.0276   -0.2533    0.0000 C   0  0  0  0  0  0  0  0  0  0  0  0
   -0.5789    1.1650    0.0000 C   0  0  0  0  0  0  0  0  0  0  0  0
   -1.2881    1.5848    0.0000 C   0  0  0  0  0  0  0  0  0  0  0  0
   -1.8526   -0.1809    0.0000 N   0  0  0  0  0  0  0  0  0  0  0  0
   -0.7381   -1.0347    0.0000 O   0  0  0  0  0  0  0  0  0  0  0  0
   -0.4631    0.3400    0.0000 C   0  0  2  0  0  0  0  0  0  0  0  0
    0.3618    0.3400    0.0000 N   0  0  0  0  0  0  0  0  0  0  0  0
    1.0854    0.7598    0.0000 C   0  0  0  0  0  0  0  0  0  0  0  0
    1.0854    1.5848    0.0000 O   0  0  0  0  0  0  0  0  0  0  0  0
    1.7946    0.3400    0.0000 C   0  0  1  0  0  0  0  0  0  0  0  0
    1.7946   -0.4848    0.0000 N   0  0  0  0  0  0  0  0  0  0  0  0
    2.5182   -0.9045    0.0000 C   0  0  0  0  0  0  0  0  0  0  0  0
    3.2274   -0.4848    0.0000 C   0  0  0  0  0  0  0  0  0  0  0  0
    2.5182   -1.7294    0.0000 O   0  0  0  0  0  0  0  0  0  0  0  0
    2.5182    0.7598    0.0000 C   0  0  0  0  0  0  0  0  0  0  0  0
    3.3432    0.7598    0.0000 C   0  0  0  0  0  0  0  0  0  0  0  0
    4.5879    1.4689    0.0000 C   0  0  0  0  0  0  0  0  0  0  0  0
    3.7484    1.4689    0.0000 C   0  0  0  0  0  0  0  0  0  0  0  0
    3.7484    0.0362    0.0000 C   0  0  0  0  0  0  0  0  0  0  0  0
    4.5879    0.0362    0.0000 C   0  0  0  0  0  0  0  0  0  0  0  0
    4.7905   -0.7598    0.0000 C   0  0  0  0  0  0  0  0  0  0  0  0
    4.9931    0.7598    0.0000 C   0  0  0  0  0  0  0  0  0  0  0  0
    6.4115    0.1664    0.0000 C   0  0  0  0  0  0  0  0  0  0  0  0
    6.0931   -0.5861    0.0000 O   0  0  0  0  0  0  0  0  0  0  0  0
    6.2378    1.4689    0.0000 C   0  0  0  0  0  0  0  0  0  0  0  0
    5.8180    2.1926    0.0000 O   0  0  0  0  0  0  0  0  0  0  0  0
    7.0628    1.4689    0.0000 O   0  0  0  0  0  0  0  0  0  0  0  0
    7.2364    0.1664    0.0000 O   0  0  0  0  0  0  0  0  0  0  0  0
    5.6154   -0.8611    0.0000 O   0  0  0  0  0  0  0  0  0  0  0  0
    5.8180    0.7598    0.0000 C   0  0  0  0  0  0  0  0  0  0  0  0
    6.6575    0.7598    0.0000 F   0  0  0  0  0  0  0  0  0  0  0  0
    4.3853   -1.4689    0.0000 O   0  0  0  0  0  0  0  0  0  0  0  0
    4.7905   -2.1926    0.0000 C   0  0  0  0  0  0  0  0  0  0  0  0
   -5.4700    0.7095    0.0000 H   0  0  0  0  0  0  0  0  0  0  0  0
   -7.3320    0.7133    0.0000 H   0  0  0  0  0  0  0  0  0  0  0  0
   -8.2684   -0.9090    0.0000 H   0  0  0  0  0  0  0  0  0  0  0  0
   -7.3280   -2.5102    0.0000 H   0  0  0  0  0  0  0  0  0  0  0  0
   -5.4738   -2.5063    0.0000 H   0  0  0  0  0  0  0  0  0  0  0  0
   -3.0018    0.7134    0.0000 H   0  0  0  0  0  0  0  0  0  0  0  0
   -4.8638    0.7094    0.0000 H   0  0  0  0  0  0  0  0  0  0  0  0
   -4.8599   -2.5063    0.0000 H   0  0  0  0  0  0  0  0  0  0  0  0
   -3.0057   -2.5102    0.0000 H   0  0  0  0  0  0  0  0  0  0  0  0
   -1.7381   -1.8317    0.0000 H   0  0  0  0  0  0  0  0  0  0  0  0
   -1.2022   -0.9060    0.0000 H   0  0  0  0  0  0  0  0  0  0  0  0
   -2.8467    2.0308    0.0000 H   0  0  0  0  0  0  0  0  0  0  0  0
   -1.8554    2.3436    0.0000 H   0  0  0  0  0  0  0  0  0  0  0  0
   -3.3739    0.3405    0.0000 H   0  0  0  0  0  0  0  0  0  0  0  0
   -2.7442   -0.4811    0.0000 H   0  0  0  0  0  0  0  0  0  0  0  0
    0.3115    1.7584    0.0000 H   0  0  0  0  0  0  0  0  0  0  0  0
   -0.6075    2.2346    0.0000 H   0  0  0  0  0  0  0  0  0  0  0  0
   -1.1921    2.6505    0.0000 H   0  0  0  0  0  0  0  0  0  0  0  0
   -0.3357    2.0725    0.0000 H   0  0  0  0  0  0  0  0  0  0  0  0
   -0.0414   -0.6434    0.0000 H   0  0  0  0  0  0  0  0  0  0  0  0
    0.6176   -0.6107    0.0000 H   0  0  0  0  0  0  0  0  0  0  0  0
    0.8651   -0.1900    0.0000 H   0  0  0  0  0  0  0  0  0  0  0  0
    0.9415   -0.9762    0.0000 H   0  0  0  0  0  0  0  0  0  0  0  0
    4.1598   -1.0098    0.0000 H   0  0  0  0  0  0  0  0  0  0  0  0
    3.2159    0.5851    0.0000 H   0  0  0  0  0  0  0  0  0  0  0  0
    4.1482    0.0601    0.0000 H   0  0  0  0  0  0  0  0  0  0  0  0
    2.2402    1.7930    0.0000 H   0  0  0  0  0  0  0  0  0  0  0  0
    3.1691    1.6090    0.0000 H   0  0  0  0  0  0  0  0  0  0  0  0
    5.1059    2.3615    0.0000 H   0  0  0  0  0  0  0  0  0  0  0  0
    3.2304    2.3615    0.0000 H   0  0  0  0  0  0  0  0  0  0  0  0
    3.2265   -0.8541    0.0000 H   0  0  0  0  0  0  0  0  0  0  0  0
    7.5313    0.6574    0.0000 H   0  0  0  0  0  0  0  0  0  0  0  0
    7.7049   -0.6451    0.0000 H   0  0  0  0  0  0  0  0  0  0  0  0
    4.2433   -3.1121    0.0000 H   0  0  0  0  0  0  0  0  0  0  0  0
    5.8604   -2.2067    0.0000 H   0  0  0  0  0  0  0  0  0  0  0  0
    5.3132   -3.1262    0.0000 H   0  0  0  0  0  0  0  0  0  0  0  0
  1  2  2  0  0  0  0
  1  6  1  0  0  0  0
  1  7  1  0  0  0  0
  2  3  1  0  0  0  0
  2 49  1  0  0  0  0
  3  4  2  0  0  0  0
  3 50  1  0  0  0  0
  4  5  1  0  0  0  0
  4 51  1  0  0  0  0
  5  6  2  0  0  0  0
  5 52  1  0  0  0  0
  6 53  1  0  0  0  0
  7 10  1  0  0  0  0
  7 11  2  0  0  0  0
  8  9  1  0  0  0  0
  8 12  2  0  0  0  0
  8 13  1  0  0  0  0
  9 10  2  0  0  0  0
  9 54  1  0  0  0  0
 10 55  1  0  0  0  0
 11 12  1  0  0  0  0
 11 56  1  0  0  0  0
 12 57  1  0  0  0  0
 13 19  1  0  0  0  0
 13 58  1  0  0  0  0
 13 59  1  0  0  0  0
 14 15  1  0  0  0  0
 14 18  1  0  0  0  0
 14 60  1  0  0  0  0
 14 61  1  0  0  0  0
 15 19  1  0  0  0  0
 15 62  1  0  0  0  0
 15 63  1  0  0  0  0
 16 19  1  0  0  0  0
 16 21  1  0  0  0  0
 16 20  2  0  0  0  0
 17 21  1  0  0  0  0
 17 18  1  0  0  0  0
 17 64  1  0  0  0  0
 17 65  1  0  0  0  0
 18 66  1  0  0  0  0
 18 67  1  0  0  0  0
 21 22  1  0  0  0  0
 21 68  1  1  0  0  0
 22 23  1  0  0  0  0
 22 69  1  0  0  0  0
 23 25  1  0  0  0  0
 23 24  2  0  0  0  0
 25 30  1  0  0  0  0
 25 26  1  0  0  0  0
 25 70  1  1  0  0  0
 26 27  1  0  0  0  0
 26 71  1  0  0  0  0
 27 28  1  0  0  0  0
 27 29  2  0  0  0  0
 28 72  1  0  0  0  0
 28 73  1  0  0  0  0
 28 74  1  0  0  0  0
 30 31  1  0  0  0  0
 30 75  1  0  0  0  0
 30 76  1  0  0  0  0
 31 33  1  0  0  0  0
 31 34  2  0  0  0  0
 32 37  1  0  0  0  0
 32 33  2  0  0  0  0
 32 77  1  0  0  0  0
 33 78  1  0  0  0  0
 34 35  1  0  0  0  0
 34 79  1  0  0  0  0
 35 37  2  0  0  0  0
 35 36  1  0  0  0  0
 36 47  1  0  0  0  0
 36 44  2  0  0  0  0
 37 45  1  0  0  0  0
 38 45  1  0  0  0  0
 38 43  1  0  0  0  0
 38 39  2  0  0  0  0
 40 45  1  0  0  0  0
 40 41  2  0  0  0  0
 40 42  1  0  0  0  0
 42 80  1  0  0  0  0
 43 81  1  0  0  0  0
 45 46  1  0  0  0  0
 47 48  1  0  0  0  0
 48 82  1  0  0  0  0
 48 83  1  0  0  0  0
 48 84  1  0  0  0  0
M  END
>  <DRUGBANK_ID>
DB02432

>  <SECONDARY_ACCESSION_NUMBERS>
EXPT00339

>  <COMMON_NAME>
RU90395

$$$$
