2EQ
 OpenBabel10282417072D

 56 59  0  0  0  0  0  0  0  0999 V2000
   16.8008    6.0341    0.0000 C   0  0  0  0  0  0  0  0  0  0  0  0
   16.0863    6.4466    0.0000 C   0  0  0  0  0  0  0  0  0  0  0  0
   16.0863    7.2716    0.0000 O   0  0  0  0  0  0  0  0  0  0  0  0
   16.8008    7.6841    0.0000 C   0  0  0  0  0  0  0  0  0  0  0  0
   17.5153    7.2716    0.0000 C   0  0  0  0  0  0  0  0  0  0  0  0
   17.5153    6.4466    0.0000 N   0  0  0  0  0  0  0  0  0  0  0  0
   18.2298    6.0341    0.0000 C   0  0  0  0  0  0  0  0  0  0  0  0
   18.2298    5.2091    0.0000 C   0  0  0  0  0  0  0  0  0  0  0  0
   18.9442    4.7966    0.0000 C   0  0  0  0  0  0  0  0  0  0  0  0
   18.9442    3.9716    0.0000 C   0  0  0  0  0  0  0  0  0  0  0  0
   17.5153    4.7966    0.0000 C   0  0  0  0  0  0  0  0  0  0  0  0
   17.5153    3.9716    0.0000 C   0  0  0  0  0  0  0  0  0  0  0  0
   18.2298    3.5591    0.0000 C   0  0  0  0  0  0  0  0  0  0  0  0
   18.2298    2.7341    0.0000 C   0  0  0  0  0  0  0  0  0  0  0  0
   17.5623    2.2492    0.0000 C   0  0  0  0  0  0  0  0  0  0  0  0
   16.7777    2.5041    0.0000 C   0  0  0  0  0  0  0  0  0  0  0  0
   16.6062    3.3111    0.0000 O   0  0  0  0  0  0  0  0  0  0  0  0
   16.1646    1.9521    0.0000 N   0  0  0  0  0  0  0  0  0  0  0  0
   15.3800    2.2070    0.0000 C   0  0  0  0  0  0  0  0  0  0  0  0
   14.7669    1.6550    0.0000 C   0  0  0  0  0  0  0  0  0  0  0  0
   17.8173    1.4645    0.0000 N   0  0  0  0  0  0  0  0  0  0  0  0
   18.6423    1.4645    0.0000 O   0  0  0  0  0  0  0  0  0  0  0  0
   18.8972    2.2492    0.0000 C   0  0  0  0  0  0  0  0  0  0  0  0
   19.6818    2.5041    0.0000 C   0  0  0  0  0  0  0  0  0  0  0  0
   19.8533    3.3111    0.0000 C   0  0  0  0  0  0  0  0  0  0  0  0
   20.6380    3.5660    0.0000 C   0  0  0  0  0  0  0  0  0  0  0  0
   20.8095    4.3730    0.0000 Cl  0  0  0  0  0  0  0  0  0  0  0  0
   21.2511    3.0140    0.0000 C   0  0  0  0  0  0  0  0  0  0  0  0
   22.0357    3.2689    0.0000 O   0  0  0  0  0  0  0  0  0  0  0  0
   21.0795    2.2070    0.0000 C   0  0  0  0  0  0  0  0  0  0  0  0
   20.2949    1.9521    0.0000 C   0  0  0  0  0  0  0  0  0  0  0  0
   20.1234    1.1451    0.0000 O   0  0  0  0  0  0  0  0  0  0  0  0
   16.8008    4.9641    0.0000 H   0  0  0  0  0  0  0  0  0  0  0  0
   17.7274    5.4991    0.0000 H   0  0  0  0  0  0  0  0  0  0  0  0
   15.1597    5.9116    0.0000 H   0  0  0  0  0  0  0  0  0  0  0  0
   15.1597    6.9816    0.0000 H   0  0  0  0  0  0  0  0  0  0  0  0
   16.8008    8.7541    0.0000 H   0  0  0  0  0  0  0  0  0  0  0  0
   17.7274    8.2191    0.0000 H   0  0  0  0  0  0  0  0  0  0  0  0
   18.4419    7.8066    0.0000 H   0  0  0  0  0  0  0  0  0  0  0  0
   18.4419    6.7366    0.0000 H   0  0  0  0  0  0  0  0  0  0  0  0
   19.1564    6.5691    0.0000 H   0  0  0  0  0  0  0  0  0  0  0  0
   19.1564    5.4991    0.0000 H   0  0  0  0  0  0  0  0  0  0  0  0
   19.8379    5.3126    0.0000 H   0  0  0  0  0  0  0  0  0  0  0  0
   19.8379    3.4556    0.0000 H   0  0  0  0  0  0  0  0  0  0  0  0
   16.6216    5.3126    0.0000 H   0  0  0  0  0  0  0  0  0  0  0  0
   16.6216    3.4556    0.0000 H   0  0  0  0  0  0  0  0  0  0  0  0
   16.3693    0.9891    0.0000 H   0  0  0  0  0  0  0  0  0  0  0  0
   15.1575    3.2536    0.0000 H   0  0  0  0  0  0  0  0  0  0  0  0
   14.3624    2.5377    0.0000 H   0  0  0  0  0  0  0  0  0  0  0  0
   13.7493    1.9857    0.0000 H   0  0  0  0  0  0  0  0  0  0  0  0
   14.9893    0.6084    0.0000 H   0  0  0  0  0  0  0  0  0  0  0  0
   13.9717    0.9391    0.0000 H   0  0  0  0  0  0  0  0  0  0  0  0
   19.0864    4.0017    0.0000 H   0  0  0  0  0  0  0  0  0  0  0  0
   22.7320    2.6419    0.0000 H   0  0  0  0  0  0  0  0  0  0  0  0
   21.8464    1.5164    0.0000 H   0  0  0  0  0  0  0  0  0  0  0  0
   19.2323    0.8555    0.0000 H   0  0  0  0  0  0  0  0  0  0  0  0
  1  2  1  0  0  0  0
  1  6  1  0  0  0  0
  1 33  1  0  0  0  0
  1 34  1  0  0  0  0
  2  3  1  0  0  0  0
  2 35  1  0  0  0  0
  2 36  1  0  0  0  0
  3  4  1  0  0  0  0
  4  5  1  0  0  0  0
  4 37  1  0  0  0  0
  4 38  1  0  0  0  0
  5  6  1  0  0  0  0
  5 39  1  0  0  0  0
  5 40  1  0  0  0  0
  6  7  1  0  0  0  0
  7  8  1  0  0  0  0
  7 41  1  0  0  0  0
  7 42  1  0  0  0  0
  8  9  1  0  0  0  0
  8 11  2  0  0  0  0
  9 10  2  0  0  0  0
  9 43  1  0  0  0  0
 10 13  1  0  0  0  0
 10 44  1  0  0  0  0
 11 12  1  0  0  0  0
 11 45  1  0  0  0  0
 12 13  2  0  0  0  0
 12 46  1  0  0  0  0
 13 14  1  0  0  0  0
 14 15  1  0  0  0  0
 14 23  2  0  0  0  0
 15 16  1  0  0  0  0
 15 21  2  0  0  0  0
 16 17  2  0  0  0  0
 16 18  1  0  0  0  0
 18 19  1  0  0  0  0
 18 47  1  0  0  0  0
 19 20  1  0  0  0  0
 19 48  1  0  0  0  0
 19 49  1  0  0  0  0
 20 50  1  0  0  0  0
 20 51  1  0  0  0  0
 20 52  1  0  0  0  0
 21 22  1  0  0  0  0
 22 23  1  0  0  0  0
 23 24  1  0  0  0  0
 24 25  1  0  0  0  0
 24 31  2  0  0  0  0
 25 26  2  0  0  0  0
 25 53  1  0  0  0  0
 26 27  1  0  0  0  0
 26 28  1  0  0  0  0
 28 29  1  0  0  0  0
 28 30  2  0  0  0  0
 29 54  1  0  0  0  0
 30 31  1  0  0  0  0
 30 55  1  0  0  0  0
 31 32  1  0  0  0  0
 32 56  1  0  0  0  0
M  END
>  <DRUGBANK_ID>
DB06961

>  <COMMON_NAME>
5-(5-chloro-2,4-dihydroxyphenyl)-N-ethyl-4-[4-(morpholin-4-ylmethyl)phenyl]isoxazole-3-carboxamide

$$$$
