
 OpenBabel10282417072D

 44 48  0  0  0  0  0  0  0  0999 V2000
   -6.0335   -0.2663    0.0000 C   0  0  0  0  0  0  0  0  0  0  0  0
   -5.2265   -0.0948    0.0000 C   0  0  0  0  0  0  0  0  0  0  0  0
   -4.6745   -0.7079    0.0000 C   0  0  0  0  0  0  0  0  0  0  0  0
   -3.8675   -0.5364    0.0000 C   0  0  0  0  0  0  0  0  0  0  0  0
   -3.3155   -1.1495    0.0000 C   0  0  0  0  0  0  0  0  0  0  0  0
   -3.5704   -1.9341    0.0000 C   0  0  0  0  0  0  0  0  0  0  0  0
   -4.3774   -2.1056    0.0000 C   0  0  0  0  0  0  0  0  0  0  0  0
   -4.9294   -1.4925    0.0000 C   0  0  0  0  0  0  0  0  0  0  0  0
   -5.7364   -1.6641    0.0000 N   0  0  0  0  0  0  0  0  0  0  0  0
   -6.2884   -1.0510    0.0000 C   0  0  0  0  0  0  0  0  0  0  0  0
   -2.5085   -0.9780    0.0000 C   0  0  0  0  0  0  0  0  0  0  0  0
   -2.2536   -0.1933    0.0000 N   0  0  0  0  0  0  0  0  0  0  0  0
   -1.4689    0.0616    0.0000 C   0  0  0  0  0  0  0  0  0  0  0  0
   -1.4689    0.8866    0.0000 C   0  0  0  0  0  0  0  0  0  0  0  0
   -0.7545    1.2991    0.0000 N   0  0  0  0  0  0  0  0  0  0  0  0
   -0.0400    0.8866    0.0000 C   0  0  0  0  0  0  0  0  0  0  0  0
   -0.0400    0.0616    0.0000 C   0  0  0  0  0  0  0  0  0  0  0  0
   -0.7545   -0.3509    0.0000 N   0  0  0  0  0  0  0  0  0  0  0  0
    0.6745   -0.3509    0.0000 C   0  0  0  0  0  0  0  0  0  0  0  0
    1.4281   -0.0153    0.0000 C   0  0  0  0  0  0  0  0  0  0  0  0
    1.9802   -0.6284    0.0000 N   0  0  0  0  0  0  0  0  0  0  0  0
    1.5677   -1.3429    0.0000 N   0  0  0  0  0  0  0  0  0  0  0  0
    0.7607   -1.1714    0.0000 C   0  0  0  0  0  0  0  0  0  0  0  0
    1.9032   -2.0966    0.0000 C   0  0  0  0  0  0  0  0  0  0  0  0
    1.4183   -2.7640    0.0000 C   0  0  0  0  0  0  0  0  0  0  0  0
    1.7539   -3.5177    0.0000 O   0  0  0  0  0  0  0  0  0  0  0  0
   -2.2536    1.1415    0.0000 N   0  0  0  0  0  0  0  0  0  0  0  0
   -2.7385    0.4741    0.0000 N   0  0  0  0  0  0  0  0  0  0  0  0
   -6.7241    0.5006    0.0000 H   0  0  0  0  0  0  0  0  0  0  0  0
   -4.9076    0.8867    0.0000 H   0  0  0  0  0  0  0  0  0  0  0  0
   -3.5486    0.4451    0.0000 H   0  0  0  0  0  0  0  0  0  0  0  0
   -2.8799   -2.7010    0.0000 H   0  0  0  0  0  0  0  0  0  0  0  0
   -4.6963   -3.0871    0.0000 H   0  0  0  0  0  0  0  0  0  0  0  0
   -7.2978   -1.2656    0.0000 H   0  0  0  0  0  0  0  0  0  0  0  0
   -1.7925   -1.7732    0.0000 H   0  0  0  0  0  0  0  0  0  0  0  0
   -1.4619   -0.7555    0.0000 H   0  0  0  0  0  0  0  0  0  0  0  0
    0.8537    1.4026    0.0000 H   0  0  0  0  0  0  0  0  0  0  0  0
    1.6426    0.9942    0.0000 H   0  0  0  0  0  0  0  0  0  0  0  0
   -0.0062   -1.8619    0.0000 H   0  0  0  0  0  0  0  0  0  0  0  0
    2.9673   -2.2085    0.0000 H   0  0  0  0  0  0  0  0  0  0  0  0
    2.3384   -3.0741    0.0000 H   0  0  0  0  0  0  0  0  0  0  0  0
    0.3542   -2.6522    0.0000 H   0  0  0  0  0  0  0  0  0  0  0  0
    0.7894   -3.6297    0.0000 H   0  0  0  0  0  0  0  0  0  0  0  0
    1.1838   -4.3025    0.0000 H   0  0  0  0  0  0  0  0  0  0  0  0
  1  2  1  0  0  0  0
  1 10  2  0  0  0  0
  1 29  1  0  0  0  0
  2  3  2  0  0  0  0
  2 30  1  0  0  0  0
  3  4  1  0  0  0  0
  3  8  1  0  0  0  0
  4  5  2  0  0  0  0
  4 31  1  0  0  0  0
  5  6  1  0  0  0  0
  5 11  1  0  0  0  0
  6  7  2  0  0  0  0
  6 32  1  0  0  0  0
  7  8  1  0  0  0  0
  7 33  1  0  0  0  0
  8  9  2  0  0  0  0
  9 10  1  0  0  0  0
 10 34  1  0  0  0  0
 11 12  1  0  0  0  0
 11 35  1  0  0  0  0
 11 36  1  0  0  0  0
 12 13  1  0  0  0  0
 12 28  1  0  0  0  0
 13 14  1  0  0  0  0
 13 18  2  0  0  0  0
 14 15  2  0  0  0  0
 14 27  1  0  0  0  0
 15 16  1  0  0  0  0
 16 17  2  0  0  0  0
 16 37  1  0  0  0  0
 17 18  1  0  0  0  0
 17 19  1  0  0  0  0
 19 20  1  0  0  0  0
 19 23  2  0  0  0  0
 20 21  2  0  0  0  0
 20 38  1  0  0  0  0
 21 22  1  0  0  0  0
 22 23  1  0  0  0  0
 22 24  1  0  0  0  0
 23 39  1  0  0  0  0
 24 25  1  0  0  0  0
 24 40  1  0  0  0  0
 24 41  1  0  0  0  0
 25 26  1  0  0  0  0
 25 42  1  0  0  0  0
 25 43  1  0  0  0  0
 26 44  1  0  0  0  0
 27 28  2  0  0  0  0
M  END
>  <DRUGBANK_ID>
DB12848

>  <COMMON_NAME>
PF-04217903

>  <CAS_NUMBER>
956905-27-4

>  <UNII>
CYJ9ATV1IJ

$$$$
