
 OpenBabel10282417072D

 57 60  0  0  1  0  0  0  0  0999 V2000
    3.3542   -1.0239    0.0000 C   0  0  0  0  0  0  0  0  0  0  0  0
    2.5200   -1.0952    0.0000 C   0  0  1  0  0  0  0  0  0  0  0  0
    2.3029   -1.8579    0.0000 C   0  0  0  0  0  0  0  0  0  0  0  0
    1.6354   -2.3429    0.0000 N   0  0  0  0  0  0  0  0  0  0  0  0
    1.8904   -3.1275    0.0000 C   0  0  0  0  0  0  0  0  0  0  0  0
    2.7154   -3.1275    0.0000 C   0  0  0  0  0  0  0  0  0  0  0  0
    2.9703   -2.3429    0.0000 S   0  0  0  0  0  0  0  0  0  0  0  0
    1.4054   -3.7949    0.0000 C   0  0  0  0  0  0  0  0  0  0  0  0
    1.7410   -4.5486    0.0000 C   0  0  0  0  0  0  0  0  0  0  0  0
    1.2561   -5.2160    0.0000 C   0  0  0  0  0  0  0  0  0  0  0  0
    0.4356   -5.1298    0.0000 C   0  0  0  0  0  0  0  0  0  0  0  0
    0.1000   -4.3761    0.0000 C   0  0  0  0  0  0  0  0  0  0  0  0
    0.5850   -3.7087    0.0000 C   0  0  0  0  0  0  0  0  0  0  0  0
   -0.0493   -5.7972    0.0000 C   0  0  0  0  0  0  0  0  0  0  0  0
   -0.5342   -6.4647    0.0000 N   0  0  0  0  0  0  0  0  0  0  0  0
    1.6789   -0.8298    0.0000 C   0  0  1  0  0  0  0  0  0  0  0  0
    0.9121   -0.7389    0.0000 C   0  0  0  0  0  0  0  0  0  0  0  0
    0.1595   -0.6204    0.0000 N   0  0  0  0  0  0  0  0  0  0  0  0
    0.7115   -0.0074    0.0000 C   0  0  0  0  0  0  0  0  0  0  0  0
    0.2990    0.7071    0.0000 N   0  0  0  0  0  0  0  0  0  0  0  0
   -0.5080    0.5356    0.0000 C   0  0  0  0  0  0  0  0  0  0  0  0
   -0.5942   -0.2849    0.0000 N   0  0  0  0  0  0  0  0  0  0  0  0
    0.8318   -1.3925    0.0000 O   0  0  0  0  0  0  0  0  0  0  0  0
    0.0231   -1.8612    0.0000 C   0  0  0  0  0  0  0  0  0  0  0  0
   -0.3309   -2.6337    0.0000 O   0  0  0  0  0  0  0  0  0  0  0  0
   -1.1522   -2.7112    0.0000 P   0  0  0  0  0  0  0  0  0  0  0  0
   -1.2296   -1.8898    0.0000 O   0  0  0  0  0  0  0  0  0  0  0  0
   -1.0748   -3.5325    0.0000 O   0  0  0  0  0  0  0  0  0  0  0  0
   -1.9736   -2.7886    0.0000 O   0  0  0  0  0  0  0  0  0  0  0  0
    2.0009    0.0940    0.0000 C   0  0  0  0  0  0  0  0  0  0  0  0
    1.5884    0.8085    0.0000 C   0  0  0  0  0  0  0  0  0  0  0  0
    2.0009    1.5230    0.0000 C   0  0  0  0  0  0  0  0  0  0  0  0
    2.8259    1.5230    0.0000 C   0  0  0  0  0  0  0  0  0  0  0  0
    3.2679    2.2585    0.0000 F   0  0  0  0  0  0  0  0  0  0  0  0
    3.2384    0.8085    0.0000 C   0  0  0  0  0  0  0  0  0  0  0  0
    2.8259    0.0940    0.0000 C   0  0  0  0  0  0  0  0  0  0  0  0
    3.6702   -0.2317    0.0000 F   0  0  0  0  0  0  0  0  0  0  0  0
    3.9662   -1.9016    0.0000 H   0  0  0  0  0  0  0  0  0  0  0  0
    3.8083   -0.0551    0.0000 H   0  0  0  0  0  0  0  0  0  0  0  0
    4.4203   -0.9328    0.0000 H   0  0  0  0  0  0  0  0  0  0  0  0
    3.2006   -1.9209    0.0000 H   0  0  0  0  0  0  0  0  0  0  0  0
    3.3220   -3.9624    0.0000 H   0  0  0  0  0  0  0  0  0  0  0  0
    2.7673   -4.6565    0.0000 H   0  0  0  0  0  0  0  0  0  0  0  0
    1.6759   -6.1588    0.0000 H   0  0  0  0  0  0  0  0  0  0  0  0
   -0.9263   -4.2682    0.0000 H   0  0  0  0  0  0  0  0  0  0  0  0
    0.1653   -2.7659    0.0000 H   0  0  0  0  0  0  0  0  0  0  0  0
    0.7659   -1.7989    0.0000 H   0  0  0  0  0  0  0  0  0  0  0  0
    0.0531   -1.3768    0.0000 H   0  0  0  0  0  0  0  0  0  0  0  0
    1.7378   -0.1153    0.0000 H   0  0  0  0  0  0  0  0  0  0  0  0
   -1.2749    1.2261    0.0000 H   0  0  0  0  0  0  0  0  0  0  0  0
   -0.7688   -1.1416    0.0000 H   0  0  0  0  0  0  0  0  0  0  0  0
   -1.0252   -2.0756    0.0000 H   0  0  0  0  0  0  0  0  0  0  0  0
   -0.4388   -1.3281    0.0000 H   0  0  0  0  0  0  0  0  0  0  0  0
   -1.8656   -4.0942    0.0000 H   0  0  0  0  0  0  0  0  0  0  0  0
    0.5564    0.8085    0.0000 H   0  0  0  0  0  0  0  0  0  0  0  0
    1.4849    2.4167    0.0000 H   0  0  0  0  0  0  0  0  0  0  0  0
    4.2704    0.8085    0.0000 H   0  0  0  0  0  0  0  0  0  0  0  0
  1 38  1  0  0  0  0
  1 39  1  0  0  0  0
  1 40  1  0  0  0  0
  2  1  1  0  0  0  0
  2  3  1  0  0  0  0
  2 16  1  0  0  0  0
  2 41  1  6  0  0  0
  3  4  2  0  0  0  0
  3  7  1  0  0  0  0
  4  5  1  0  0  0  0
  5  6  2  0  0  0  0
  5  8  1  0  0  0  0
  6  7  1  0  0  0  0
  6 42  1  0  0  0  0
  8  9  2  0  0  0  0
  8 13  1  0  0  0  0
  9 10  1  0  0  0  0
  9 43  1  0  0  0  0
 10 11  2  0  0  0  0
 10 44  1  0  0  0  0
 11 12  1  0  0  0  0
 11 14  1  0  0  0  0
 12 13  2  0  0  0  0
 12 45  1  0  0  0  0
 13 46  1  0  0  0  0
 14 15  3  0  0  0  0
 16 17  1  0  0  0  0
 16 23  1  1  0  0  0
 16 30  1  0  0  0  0
 17 18  1  0  0  0  0
 17 47  1  0  0  0  0
 17 48  1  0  0  0  0
 18 19  1  0  0  0  0
 18 22  1  0  0  0  0
 19 20  2  0  0  0  0
 19 49  1  0  0  0  0
 20 21  1  0  0  0  0
 21 22  2  0  0  0  0
 21 50  1  0  0  0  0
 23 24  1  0  0  0  0
 24 25  1  0  0  0  0
 24 51  1  0  0  0  0
 24 52  1  0  0  0  0
 25 26  1  0  0  0  0
 26 27  1  0  0  0  0
 26 28  1  0  0  0  0
 26 29  2  0  0  0  0
 27 53  1  0  0  0  0
 28 54  1  0  0  0  0
 30 31  2  0  0  0  0
 30 36  1  0  0  0  0
 31 32  1  0  0  0  0
 31 55  1  0  0  0  0
 32 33  2  0  0  0  0
 32 56  1  0  0  0  0
 33 34  1  0  0  0  0
 33 35  1  0  0  0  0
 35 36  2  0  0  0  0
 35 57  1  0  0  0  0
 36 37  1  0  0  0  0
M  END
>  <DRUGBANK_ID>
DB15204

>  <COMMON_NAME>
Fosravuconazole

>  <CAS_NUMBER>
351227-64-0

>  <UNII>
L4Q6O5430L

>  <SYNONYMS>
Fosravuconazole

$$$$
