
 OpenBabel10282417072D

116121  0  0  1  0  0  0  0  0999 V2000
   -0.8546   -7.2552    0.0000 H   0  0  0  0  0  0  0  0  0  0  0  0
   -1.2671   -6.5408    0.0000 C   0  0  2  0  0  0  0  0  0  0  0  0
   -0.4421   -6.5408    0.0000 O   0  0  0  0  0  0  0  0  0  0  0  0
   -0.0296   -5.8263    0.0000 C   0  0  1  0  0  0  0  0  0  0  0  0
   -0.4421   -5.1118    0.0000 C   0  0  2  0  0  0  0  0  0  0  0  0
   -1.2671   -5.1118    0.0000 O   0  0  0  0  0  0  0  0  0  0  0  0
   -0.0296   -4.3974    0.0000 C   0  0  1  0  0  0  0  0  0  0  0  0
   -0.4421   -3.6829    0.0000 C   0  0  0  0  0  0  0  0  0  0  0  0
   -0.0296   -2.9684    0.0000 O   0  0  0  0  0  0  0  0  0  0  0  0
    0.7954   -4.3974    0.0000 O   0  0  0  0  0  0  0  0  0  0  0  0
    1.2079   -5.1118    0.0000 C   0  0  1  0  0  0  0  0  0  0  0  0
    1.6204   -5.8263    0.0000 H   0  0  0  0  0  0  0  0  0  0  0  0
    2.0329   -5.1118    0.0000 O   0  0  0  0  0  0  0  0  0  0  0  0
    2.4454   -4.3974    0.0000 C   0  0  2  0  0  0  0  0  0  0  0  0
    2.0329   -3.6829    0.0000 C   0  0  1  0  0  0  0  0  0  0  0  0
    1.2079   -3.6829    0.0000 C   0  0  0  0  0  0  0  0  0  0  0  0
    0.7954   -2.9684    0.0000 O   0  0  0  0  0  0  0  0  0  0  0  0
    2.4454   -2.9684    0.0000 O   0  0  0  0  0  0  0  0  0  0  0  0
    3.2704   -2.9684    0.0000 C   0  0  1  0  0  0  0  0  0  0  0  0
    3.6829   -2.2539    0.0000 O   0  0  0  0  0  0  0  0  0  0  0  0
    3.2704   -1.5395    0.0000 C   0  0  0  0  0  0  0  0  0  0  0  0
    2.4454   -1.5395    0.0000 C   0  0  0  0  0  0  0  0  0  0  0  0
    2.0329   -0.8250    0.0000 C   0  0  0  0  0  0  0  0  0  0  0  0
    1.2079   -0.8250    0.0000 C   0  0  0  0  0  0  0  0  0  0  0  0
    0.7954   -0.1105    0.0000 C   0  0  0  0  0  0  0  0  0  0  0  0
   -0.0296   -0.1105    0.0000 C   0  0  0  0  0  0  0  0  0  0  0  0
   -0.4421    0.6039    0.0000 C   0  0  0  0  0  0  0  0  0  0  0  0
   -0.0296    1.3184    0.0000 C   0  0  0  0  0  0  0  0  0  0  0  0
    2.4454   -0.1105    0.0000 C   0  0  0  0  0  0  0  0  0  0  0  0
    3.2704   -0.1105    0.0000 C   0  0  0  0  0  0  0  0  0  0  0  0
    3.6829    0.6039    0.0000 O   0  0  0  0  0  0  0  0  0  0  0  0
    4.5079    0.6039    0.0000 C   0  0  0  0  0  0  0  0  0  0  0  0
    4.3646    1.4164    0.0000 C   0  0  0  0  0  0  0  0  0  0  0  0
    5.2831    0.8861    0.0000 C   0  0  0  0  0  0  0  0  0  0  0  0
    4.9204   -0.1105    0.0000 C   0  0  2  0  0  0  0  0  0  0  0  0
    5.3329   -0.8250    0.0000 H   0  0  0  0  0  0  0  0  0  0  0  0
    5.7454   -0.1105    0.0000 C   0  0  0  0  0  0  0  0  0  0  0  0
    6.1579   -0.8250    0.0000 C   0  0  0  0  0  0  0  0  0  0  0  0
    5.7454   -1.5395    0.0000 C   0  0  0  0  0  0  0  0  0  0  0  0
    6.1579   -2.2539    0.0000 C   0  0  0  0  0  0  0  0  0  0  0  0
    4.9204   -1.5395    0.0000 C   0  0  0  0  0  0  0  0  0  0  0  0
    4.5079   -0.8250    0.0000 C   0  0  1  0  0  0  0  0  0  0  0  0
    4.0954   -1.5395    0.0000 H   0  0  0  0  0  0  0  0  0  0  0  0
    3.6829   -0.8250    0.0000 C   0  0  0  0  0  0  0  0  0  0  0  0
    3.6829   -3.6829    0.0000 C   0  0  2  0  0  0  0  0  0  0  0  0
    4.5079   -3.6829    0.0000 O   0  0  0  0  0  0  0  0  0  0  0  0
    3.2704   -4.3974    0.0000 C   0  0  1  0  0  0  0  0  0  0  0  0
    3.6829   -5.1118    0.0000 O   0  0  0  0  0  0  0  0  0  0  0  0
    0.7954   -5.8263    0.0000 C   0  0  2  0  0  0  0  0  0  0  0  0
    1.2079   -6.5408    0.0000 O   0  0  0  0  0  0  0  0  0  0  0  0
   -1.6796   -5.8263    0.0000 O   0  0  0  0  0  0  0  0  0  0  0  0
   -2.5046   -5.8263    0.0000 C   0  0  2  0  0  0  0  0  0  0  0  0
   -2.9171   -5.1118    0.0000 C   0  0  0  0  0  0  0  0  0  0  0  0
   -3.7421   -5.1118    0.0000 O   0  0  0  0  0  0  0  0  0  0  0  0
   -2.9171   -6.5408    0.0000 C   0  0  1  0  0  0  0  0  0  0  0  0
   -3.7421   -6.5408    0.0000 O   0  0  0  0  0  0  0  0  0  0  0  0
   -2.5046   -7.2552    0.0000 C   0  0  2  0  0  0  0  0  0  0  0  0
   -2.9171   -7.9697    0.0000 O   0  0  0  0  0  0  0  0  0  0  0  0
   -1.6796   -7.2552    0.0000 C   0  0  1  0  0  0  0  0  0  0  0  0
   -1.2671   -7.9697    0.0000 O   0  0  0  0  0  0  0  0  0  0  0  0
   -1.0996   -5.8263    0.0000 H   0  0  0  0  0  0  0  0  0  0  0  0
   -0.9771   -6.0384    0.0000 H   0  0  0  0  0  0  0  0  0  0  0  0
   -1.7521   -4.2718    0.0000 H   0  0  0  0  0  0  0  0  0  0  0  0
   -1.0996   -4.3974    0.0000 H   0  0  0  0  0  0  0  0  0  0  0  0
   -1.5121   -3.6829    0.0000 H   0  0  0  0  0  0  0  0  0  0  0  0
   -0.9771   -2.7563    0.0000 H   0  0  0  0  0  0  0  0  0  0  0  0
    0.9404   -2.9684    0.0000 H   0  0  0  0  0  0  0  0  0  0  0  0
    1.3754   -4.3974    0.0000 H   0  0  0  0  0  0  0  0  0  0  0  0
    1.4979   -4.6095    0.0000 H   0  0  0  0  0  0  0  0  0  0  0  0
    0.6729   -4.6095    0.0000 H   0  0  0  0  0  0  0  0  0  0  0  0
    0.1379   -3.6829    0.0000 H   0  0  0  0  0  0  0  0  0  0  0  0
    1.2804   -2.1284    0.0000 H   0  0  0  0  0  0  0  0  0  0  0  0
    2.7354   -2.0418    0.0000 H   0  0  0  0  0  0  0  0  0  0  0  0
    1.9294   -2.4332    0.0000 H   0  0  0  0  0  0  0  0  0  0  0  0
    0.6729   -1.7516    0.0000 H   0  0  0  0  0  0  0  0  0  0  0  0
    0.1379   -0.8250    0.0000 H   0  0  0  0  0  0  0  0  0  0  0  0
    1.3304    0.8161    0.0000 H   0  0  0  0  0  0  0  0  0  0  0  0
    0.2604    0.8161    0.0000 H   0  0  0  0  0  0  0  0  0  0  0  0
   -0.5646   -1.0372    0.0000 H   0  0  0  0  0  0  0  0  0  0  0  0
   -1.0996   -0.1105    0.0000 H   0  0  0  0  0  0  0  0  0  0  0  0
   -1.5121    0.6039    0.0000 H   0  0  0  0  0  0  0  0  0  0  0  0
   -0.9771    1.5305    0.0000 H   0  0  0  0  0  0  0  0  0  0  0  0
    1.0404    1.3184    0.0000 H   0  0  0  0  0  0  0  0  0  0  0  0
   -0.5646    2.2450    0.0000 H   0  0  0  0  0  0  0  0  0  0  0  0
    0.5054    2.2451    0.0000 H   0  0  0  0  0  0  0  0  0  0  0  0
    1.9294    0.7832    0.0000 H   0  0  0  0  0  0  0  0  0  0  0  0
    5.1842    2.1042    0.0000 H   0  0  0  0  0  0  0  0  0  0  0  0
    3.3591    1.7823    0.0000 H   0  0  0  0  0  0  0  0  0  0  0  0
    4.1788    2.4701    0.0000 H   0  0  0  0  0  0  0  0  0  0  0  0
    6.1028    0.1984    0.0000 H   0  0  0  0  0  0  0  0  0  0  0  0
    5.4688    1.9399    0.0000 H   0  0  0  0  0  0  0  0  0  0  0  0
    6.2886    1.2521    0.0000 H   0  0  0  0  0  0  0  0  0  0  0  0
    6.2804    0.8161    0.0000 H   0  0  0  0  0  0  0  0  0  0  0  0
    6.8154   -0.1105    0.0000 H   0  0  0  0  0  0  0  0  0  0  0  0
    7.2279   -0.8250    0.0000 H   0  0  0  0  0  0  0  0  0  0  0  0
    6.6929   -1.7516    0.0000 H   0  0  0  0  0  0  0  0  0  0  0  0
    5.6229   -3.1806    0.0000 H   0  0  0  0  0  0  0  0  0  0  0  0
    7.2279   -2.2539    0.0000 H   0  0  0  0  0  0  0  0  0  0  0  0
    6.6929   -3.1805    0.0000 H   0  0  0  0  0  0  0  0  0  0  0  0
    4.4044   -2.4332    0.0000 H   0  0  0  0  0  0  0  0  0  0  0  0
    4.2179   -2.7563    0.0000 H   0  0  0  0  0  0  0  0  0  0  0  0
    4.9929   -4.5229    0.0000 H   0  0  0  0  0  0  0  0  0  0  0  0
    4.3404   -4.3974    0.0000 H   0  0  0  0  0  0  0  0  0  0  0  0
    3.1979   -5.9519    0.0000 H   0  0  0  0  0  0  0  0  0  0  0  0
    1.8654   -5.8263    0.0000 H   0  0  0  0  0  0  0  0  0  0  0  0
    0.7229   -7.3808    0.0000 H   0  0  0  0  0  0  0  0  0  0  0  0
   -1.9696   -4.8997    0.0000 H   0  0  0  0  0  0  0  0  0  0  0  0
   -2.3821   -4.1852    0.0000 H   0  0  0  0  0  0  0  0  0  0  0  0
   -3.4521   -4.1852    0.0000 H   0  0  0  0  0  0  0  0  0  0  0  0
   -4.2271   -4.2718    0.0000 H   0  0  0  0  0  0  0  0  0  0  0  0
   -3.4521   -5.6142    0.0000 H   0  0  0  0  0  0  0  0  0  0  0  0
   -4.2271   -5.7008    0.0000 H   0  0  0  0  0  0  0  0  0  0  0  0
   -3.5746   -7.2552    0.0000 H   0  0  0  0  0  0  0  0  0  0  0  0
   -3.8871   -7.9697    0.0000 H   0  0  0  0  0  0  0  0  0  0  0  0
   -2.2146   -8.1818    0.0000 H   0  0  0  0  0  0  0  0  0  0  0  0
   -1.7521   -8.8097    0.0000 H   0  0  0  0  0  0  0  0  0  0  0  0
  2  1  1  6  0  0  0
  2  3  1  0  0  0  0
  2 51  1  0  0  0  0
  4  3  1  0  0  0  0
  4  5  1  0  0  0  0
  4 49  1  0  0  0  0
  4 61  1  6  0  0  0
  5  6  1  0  0  0  0
  5  7  1  0  0  0  0
  5 62  1  1  0  0  0
  6 63  1  0  0  0  0
  7  8  1  0  0  0  0
  7 10  1  0  0  0  0
  7 64  1  6  0  0  0
  8  9  1  0  0  0  0
  8 65  1  0  0  0  0
  8 66  1  0  0  0  0
  9 67  1  0  0  0  0
 11 10  1  0  0  0  0
 11 12  1  6  0  0  0
 11 13  1  0  0  0  0
 14 13  1  0  0  0  0
 14 15  1  0  0  0  0
 14 47  1  0  0  0  0
 14 68  1  1  0  0  0
 15 16  1  0  0  0  0
 15 18  1  0  0  0  0
 15 69  1  6  0  0  0
 16 17  1  0  0  0  0
 16 70  1  0  0  0  0
 16 71  1  0  0  0  0
 17 72  1  0  0  0  0
 19 18  1  0  0  0  0
 19 20  1  0  0  0  0
 19 73  1  6  0  0  0
 20 21  1  0  0  0  0
 21 22  2  0  0  0  0
 21 44  1  0  0  0  0
 22 23  1  0  0  0  0
 22 74  1  0  0  0  0
 23 24  1  0  0  0  0
 23 29  2  0  0  0  0
 24 25  1  0  0  0  0
 24 75  1  0  0  0  0
 24 76  1  0  0  0  0
 25 26  1  0  0  0  0
 25 77  1  0  0  0  0
 25 78  1  0  0  0  0
 26 27  1  0  0  0  0
 26 79  1  0  0  0  0
 26 80  1  0  0  0  0
 27 28  1  0  0  0  0
 27 81  1  0  0  0  0
 27 82  1  0  0  0  0
 28 83  1  0  0  0  0
 28 84  1  0  0  0  0
 28 85  1  0  0  0  0
 29 30  1  0  0  0  0
 29 86  1  0  0  0  0
 30 31  1  0  0  0  0
 30 44  2  0  0  0  0
 31 32  1  0  0  0  0
 32 33  1  0  0  0  0
 32 34  1  0  0  0  0
 33 87  1  0  0  0  0
 33 88  1  0  0  0  0
 33 89  1  0  0  0  0
 34 90  1  0  0  0  0
 34 91  1  0  0  0  0
 34 92  1  0  0  0  0
 35 32  1  0  0  0  0
 35 36  1  1  0  0  0
 35 37  1  0  0  0  0
 35 42  1  0  0  0  0
 37 38  1  0  0  0  0
 37 93  1  0  0  0  0
 37 94  1  0  0  0  0
 38 39  1  0  0  0  0
 38 95  1  0  0  0  0
 38 96  1  0  0  0  0
 39 40  1  0  0  0  0
 39 41  2  0  0  0  0
 40 97  1  0  0  0  0
 40 98  1  0  0  0  0
 40 99  1  0  0  0  0
 41100  1  0  0  0  0
 42 41  1  0  0  0  0
 42 43  1  6  0  0  0
 42 44  1  0  0  0  0
 45 19  1  0  0  0  0
 45 46  1  0  0  0  0
 45101  1  1  0  0  0
 46102  1  0  0  0  0
 47 45  1  0  0  0  0
 47 48  1  0  0  0  0
 47103  1  6  0  0  0
 48104  1  0  0  0  0
 49 11  1  0  0  0  0
 49 50  1  0  0  0  0
 49105  1  1  0  0  0
 50106  1  0  0  0  0
 52 51  1  0  0  0  0
 52 53  1  0  0  0  0
 52107  1  6  0  0  0
 53 54  1  0  0  0  0
 53108  1  0  0  0  0
 53109  1  0  0  0  0
 54110  1  0  0  0  0
 55 52  1  0  0  0  0
 55 56  1  0  0  0  0
 55 57  1  0  0  0  0
 55111  1  1  0  0  0
 56112  1  0  0  0  0
 57 58  1  0  0  0  0
 57 59  1  0  0  0  0
 57113  1  6  0  0  0
 58114  1  0  0  0  0
 59  2  1  0  0  0  0
 59 60  1  0  0  0  0
 59115  1  1  0  0  0
 60116  1  0  0  0  0
M  END
>  <DRUGBANK_ID>
DB18542

>  <COMMON_NAME>
VB-312

>  <CAS_NUMBER>
2699021-78-6

>  <UNII>
MHF3368LWJ

>  <SYNONYMS>
(2S,3R,4S,5S,6R)-2-(((2S,3R,4S,5R,6R)-2-(((2R,3S,4R,5R,6S)-4,5-dihydroxy-2-(hydroxymethyl)-6-(((6aR,10aR)-6,6,9-trimethyl-3-pentyl-6a,7,8,10a-tetrahydro-6H-benzo[c]chromen-1-yl)oxy)tetrahydro-2H-pyran-3-yl)oxy)-3,5-dihydroxy-6-(hydroxymethyl)tetrahydro-2

$$$$
