35A
 OpenBabel10282417072D

 65 67  0  0  0  0  0  0  0  0999 V2000
   -0.9931    0.7445    0.0000 C   0  0  0  0  0  0  0  0  0  0  0  0
   -0.6095    0.0141    0.0000 C   0  0  0  0  0  0  0  0  0  0  0  0
    4.1262    0.0141    0.0000 C   0  0  0  0  0  0  0  0  0  0  0  0
    3.7426    0.7445    0.0000 C   0  0  0  0  0  0  0  0  0  0  0  0
    0.2036    2.0313    0.0000 O   0  0  0  0  0  0  0  0  0  0  0  0
   -0.5001    1.6008    0.0000 C   0  0  0  0  0  0  0  0  0  0  0  0
    2.9183    0.7775    0.0000 C   0  0  0  0  0  0  0  0  0  0  0  0
    2.4877    1.4812    0.0000 C   0  0  0  0  0  0  0  0  0  0  0  0
    1.8206    1.9666    0.0000 C   0  0  1  0  0  0  0  0  0  0  0  0
    3.6855   -0.6833    0.0000 C   0  0  0  0  0  0  0  0  0  0  0  0
    2.8611   -0.6503    0.0000 C   0  0  0  0  0  0  0  0  0  0  0  0
    2.4775    0.0800    0.0000 C   0  0  0  0  0  0  0  0  0  0  0  0
    0.0474   -1.8725    0.0000 C   0  0  0  0  0  0  0  0  0  0  0  0
    0.8495   -2.0657    0.0000 C   0  0  1  0  0  0  0  0  0  0  0  0
    1.6644   -1.9372    0.0000 C   0  0  0  0  0  0  0  0  0  0  0  0
    2.3681   -1.5066    0.0000 C   0  0  0  0  0  0  0  0  0  0  0  0
   -1.0502   -0.6833    0.0000 C   0  0  0  0  0  0  0  0  0  0  0  0
   -0.6197   -1.3871    0.0000 C   0  0  0  0  0  0  0  0  0  0  0  0
   -1.8746   -0.6503    0.0000 N   0  0  0  0  0  0  0  0  0  0  0  0
   -1.8174    0.7775    0.0000 C   0  0  0  0  0  0  0  0  0  0  0  0
   -2.2582    0.0800    0.0000 C   0  0  0  0  0  0  0  0  0  0  0  0
   -3.0825    0.1130    0.0000 N   0  0  0  0  0  0  0  0  0  0  0  0
   -3.5233   -0.5844    0.0000 S   0  0  0  0  0  0  0  0  0  0  0  0
   -3.9640   -1.2818    0.0000 C   0  0  0  0  0  0  0  0  0  0  0  0
   -4.2207   -0.1436    0.0000 O   0  0  0  0  0  0  0  0  0  0  0  0
   -2.8258   -1.0251    0.0000 O   0  0  0  0  0  0  0  0  0  0  0  0
   -3.4661    0.8434    0.0000 C   0  0  0  0  0  0  0  0  0  0  0  0
    0.8165   -2.8900    0.0000 C   0  0  0  0  0  0  0  0  0  0  0  0
    1.0186    2.1598    0.0000 C   0  0  0  0  0  0  0  0  0  0  0  0
    1.0515    2.9841    0.0000 O   0  0  0  0  0  0  0  0  0  0  0  0
    2.4377    2.5142    0.0000 C   0  0  0  0  0  0  0  0  0  0  0  0
    1.8374    2.7914    0.0000 N   0  0  0  0  0  0  0  0  0  0  0  0
    0.3836   -2.4177    0.0000 H   0  0  0  0  0  0  0  0  0  0  0  0
    0.4217   -0.0271    0.0000 H   0  0  0  0  0  0  0  0  0  0  0  0
    5.1574   -0.0271    0.0000 H   0  0  0  0  0  0  0  0  0  0  0  0
    4.2939    1.6169    0.0000 H   0  0  0  0  0  0  0  0  0  0  0  0
   -1.2667    2.3473    0.0000 H   0  0  0  0  0  0  0  0  0  0  0  0
   -0.3810    2.6642    0.0000 H   0  0  0  0  0  0  0  0  0  0  0  0
    3.2739    2.2070    0.0000 H   0  0  0  0  0  0  0  0  0  0  0  0
    2.4254    2.5494    0.0000 H   0  0  0  0  0  0  0  0  0  0  0  0
    4.1654   -1.5970    0.0000 H   0  0  0  0  0  0  0  0  0  0  0  0
    1.4463    0.1212    0.0000 H   0  0  0  0  0  0  0  0  0  0  0  0
   -0.4013   -2.8439    0.0000 H   0  0  0  0  0  0  0  0  0  0  0  0
    0.5136   -2.8356    0.0000 H   0  0  0  0  0  0  0  0  0  0  0  0
    2.0341   -2.9413    0.0000 H   0  0  0  0  0  0  0  0  0  0  0  0
    2.6751   -2.2884    0.0000 H   0  0  0  0  0  0  0  0  0  0  0  0
    3.1348   -2.2530    0.0000 H   0  0  0  0  0  0  0  0  0  0  0  0
    2.2491   -2.5700    0.0000 H   0  0  0  0  0  0  0  0  0  0  0  0
   -1.4060   -2.1128    0.0000 H   0  0  0  0  0  0  0  0  0  0  0  0
   -1.6795   -1.2397    0.0000 H   0  0  0  0  0  0  0  0  0  0  0  0
   -2.2972    1.6912    0.0000 H   0  0  0  0  0  0  0  0  0  0  0  0
   -5.0331   -1.2391    0.0000 H   0  0  0  0  0  0  0  0  0  0  0  0
   -3.4664   -2.2291    0.0000 H   0  0  0  0  0  0  0  0  0  0  0  0
   -4.5356   -2.1863    0.0000 H   0  0  0  0  0  0  0  0  0  0  0  0
   -2.8945    1.7479    0.0000 H   0  0  0  0  0  0  0  0  0  0  0  0
   -4.5352    0.8862    0.0000 H   0  0  0  0  0  0  0  0  0  0  0  0
   -3.9636    1.7907    0.0000 H   0  0  0  0  0  0  0  0  0  0  0  0
   -0.1308   -3.3875    0.0000 H   0  0  0  0  0  0  0  0  0  0  0  0
    1.7210   -3.4616    0.0000 H   0  0  0  0  0  0  0  0  0  0  0  0
    0.7737   -3.9591    0.0000 H   0  0  0  0  0  0  0  0  0  0  0  0
    3.4529    2.1762    0.0000 H   0  0  0  0  0  0  0  0  0  0  0  0
    2.2228    3.5624    0.0000 H   0  0  0  0  0  0  0  0  0  0  0  0
    3.2380    3.2244    0.0000 H   0  0  0  0  0  0  0  0  0  0  0  0
    2.7309    3.2833    0.0000 H   0  0  0  0  0  0  0  0  0  0  0  0
    0.9646    3.3193    0.0000 H   0  0  0  0  0  0  0  0  0  0  0  0
  1 20  1  0  0  0  0
  1  6  1  0  0  0  0
  1  2  2  0  0  0  0
  2 17  1  0  0  0  0
  2 34  1  0  0  0  0
  3  4  1  0  0  0  0
  3 10  2  0  0  0  0
  3 35  1  0  0  0  0
  4  7  2  0  0  0  0
  4 36  1  0  0  0  0
  5  6  1  0  0  0  0
  5 29  1  0  0  0  0
  6 37  1  0  0  0  0
  6 38  1  0  0  0  0
  7  8  1  0  0  0  0
  7 12  1  0  0  0  0
  8  9  1  0  0  0  0
  8 39  1  0  0  0  0
  8 40  1  0  0  0  0
  9 29  1  0  0  0  0
  9 31  1  1  0  0  0
  9 32  1  0  0  0  0
 10 11  1  0  0  0  0
 10 41  1  0  0  0  0
 11 12  2  0  0  0  0
 11 16  1  0  0  0  0
 12 42  1  0  0  0  0
 13 18  1  0  0  0  0
 13 14  1  0  0  0  0
 13 43  1  0  0  0  0
 13 44  1  0  0  0  0
 14 15  1  0  0  0  0
 14 28  1  0  0  0  0
 14 33  1  6  0  0  0
 15 16  1  0  0  0  0
 15 45  1  0  0  0  0
 15 46  1  0  0  0  0
 16 47  1  0  0  0  0
 16 48  1  0  0  0  0
 17 19  2  0  0  0  0
 17 18  1  0  0  0  0
 18 49  1  0  0  0  0
 18 50  1  0  0  0  0
 19 21  1  0  0  0  0
 20 21  2  0  0  0  0
 20 51  1  0  0  0  0
 21 22  1  0  0  0  0
 22 27  1  0  0  0  0
 22 23  1  0  0  0  0
 23 24  1  0  0  0  0
 23 25  2  0  0  0  0
 23 26  2  0  0  0  0
 24 52  1  0  0  0  0
 24 53  1  0  0  0  0
 24 54  1  0  0  0  0
 27 55  1  0  0  0  0
 27 56  1  0  0  0  0
 27 57  1  0  0  0  0
 28 58  1  0  0  0  0
 28 59  1  0  0  0  0
 28 60  1  0  0  0  0
 29 30  2  0  0  0  0
 31 61  1  0  0  0  0
 31 62  1  0  0  0  0
 31 63  1  0  0  0  0
 32 64  1  0  0  0  0
 32 65  1  0  0  0  0
M  END
>  <DRUGBANK_ID>
DB07019

>  <COMMON_NAME>
N-[(5R,14R)-5-AMINO-5,14-DIMETHYL-4-OXO-3-OXA-18-AZATRICYCLO[15.3.1.1~7,11~]DOCOSA-1(21),7(22),8,10,17,19-HEXAEN-19-YL]-N-METHYLMETHANESULFONAMIDE

$$$$
