
 OpenBabel10282417072D

 50 51  0  0  0  0  0  0  0  0999 V2000
    2.1434   -1.3884    0.0000 Cl  0  0  0  0  0  0  0  0  0  0  0  0
    0.7144   -3.8634    0.0000 Cl  0  0  0  0  0  0  0  0  0  0  0  0
   -0.7144   -1.3884    0.0000 O   0  0  0  0  0  0  0  0  0  0  0  0
   -0.7144    1.9115    0.0000 C   0  0  0  0  0  0  0  0  0  0  0  0
   -0.7144    1.0865    0.0000 C   0  0  0  0  0  0  0  0  0  0  0  0
    0.0000   -0.1509    0.0000 C   0  0  0  0  0  0  0  0  0  0  0  0
    0.0000    0.6740    0.0000 C   0  0  0  0  0  0  0  0  0  0  0  0
   -0.7144   -0.5634    0.0000 C   0  0  0  0  0  0  0  0  0  0  0  0
    0.7144   -1.3884    0.0000 C   0  0  0  0  0  0  0  0  0  0  0  0
   -0.7144    2.7365    0.0000 C   0  0  0  0  0  0  0  0  0  0  0  0
    0.7144   -0.5634    0.0000 C   0  0  0  0  0  0  0  0  0  0  0  0
   -1.4289    0.6740    0.0000 C   0  0  0  0  0  0  0  0  0  0  0  0
   -1.4289   -0.1509    0.0000 C   0  0  0  0  0  0  0  0  0  0  0  0
   -1.4289    3.1490    0.0000 C   0  0  0  0  0  0  0  0  0  0  0  0
    1.4289   -1.8009    0.0000 C   0  0  0  0  0  0  0  0  0  0  0  0
    0.1105    1.9115    0.0000 C   0  0  0  0  0  0  0  0  0  0  0  0
   -1.5394    1.9115    0.0000 C   0  0  0  0  0  0  0  0  0  0  0  0
    0.0000   -1.8009    0.0000 C   0  0  0  0  0  0  0  0  0  0  0  0
    1.4289   -2.6259    0.0000 C   0  0  0  0  0  0  0  0  0  0  0  0
    0.7144   -3.0384    0.0000 C   0  0  0  0  0  0  0  0  0  0  0  0
    0.0000   -2.6259    0.0000 C   0  0  0  0  0  0  0  0  0  0  0  0
   -2.1433    3.5615    0.0000 C   0  0  0  0  0  0  0  0  0  0  0  0
   -1.0165    3.8634    0.0000 C   0  0  0  0  0  0  0  0  0  0  0  0
   -1.8414    2.4345    0.0000 C   0  0  0  0  0  0  0  0  0  0  0  0
   -1.5259   -1.8569    0.0000 H   0  0  0  0  0  0  0  0  0  0  0  0
    0.8937    1.1900    0.0000 H   0  0  0  0  0  0  0  0  0  0  0  0
    0.2122    3.2715    0.0000 H   0  0  0  0  0  0  0  0  0  0  0  0
   -0.7144    3.8065    0.0000 H   0  0  0  0  0  0  0  0  0  0  0  0
    1.6411   -0.0284    0.0000 H   0  0  0  0  0  0  0  0  0  0  0  0
    1.6410   -1.0984    0.0000 H   0  0  0  0  0  0  0  0  0  0  0  0
   -2.3226    1.1900    0.0000 H   0  0  0  0  0  0  0  0  0  0  0  0
   -2.3226   -0.6669    0.0000 H   0  0  0  0  0  0  0  0  0  0  0  0
    0.6455    0.9849    0.0000 H   0  0  0  0  0  0  0  0  0  0  0  0
    0.6455    2.8381    0.0000 H   0  0  0  0  0  0  0  0  0  0  0  0
    1.1805    1.9115    0.0000 H   0  0  0  0  0  0  0  0  0  0  0  0
   -2.0744    2.8381    0.0000 H   0  0  0  0  0  0  0  0  0  0  0  0
   -2.0744    0.9849    0.0000 H   0  0  0  0  0  0  0  0  0  0  0  0
   -2.6094    1.9115    0.0000 H   0  0  0  0  0  0  0  0  0  0  0  0
   -0.8937   -1.2849    0.0000 H   0  0  0  0  0  0  0  0  0  0  0  0
    2.3226   -3.1419    0.0000 H   0  0  0  0  0  0  0  0  0  0  0  0
   -0.8937   -3.1419    0.0000 H   0  0  0  0  0  0  0  0  0  0  0  0
   -2.1433    4.6315    0.0000 H   0  0  0  0  0  0  0  0  0  0  0  0
   -3.0700    3.0265    0.0000 H   0  0  0  0  0  0  0  0  0  0  0  0
   -3.0699    4.0965    0.0000 H   0  0  0  0  0  0  0  0  0  0  0  0
    0.0535    3.8635    0.0000 H   0  0  0  0  0  0  0  0  0  0  0  0
   -1.5516    4.7900    0.0000 H   0  0  0  0  0  0  0  0  0  0  0  0
   -0.4816    4.7901    0.0000 H   0  0  0  0  0  0  0  0  0  0  0  0
   -2.9114    2.4345    0.0000 H   0  0  0  0  0  0  0  0  0  0  0  0
   -1.3064    1.5079    0.0000 H   0  0  0  0  0  0  0  0  0  0  0  0
   -2.3764    1.5078    0.0000 H   0  0  0  0  0  0  0  0  0  0  0  0
  1 15  1  0  0  0  0
  2 20  1  0  0  0  0
  3  8  1  0  0  0  0
  3 25  1  0  0  0  0
  4  5  1  0  0  0  0
  4 10  1  0  0  0  0
  4 16  1  0  0  0  0
  4 17  1  0  0  0  0
  5  7  1  0  0  0  0
  5 12  2  0  0  0  0
  6  7  2  0  0  0  0
  6  8  1  0  0  0  0
  6 11  1  0  0  0  0
  7 26  1  0  0  0  0
  8 13  2  0  0  0  0
  9 11  1  0  0  0  0
  9 15  2  0  0  0  0
  9 18  1  0  0  0  0
 10 14  1  0  0  0  0
 10 27  1  0  0  0  0
 10 28  1  0  0  0  0
 11 29  1  0  0  0  0
 11 30  1  0  0  0  0
 12 13  1  0  0  0  0
 12 31  1  0  0  0  0
 13 32  1  0  0  0  0
 14 22  1  0  0  0  0
 14 23  1  0  0  0  0
 14 24  1  0  0  0  0
 15 19  1  0  0  0  0
 16 33  1  0  0  0  0
 16 34  1  0  0  0  0
 16 35  1  0  0  0  0
 17 36  1  0  0  0  0
 17 37  1  0  0  0  0
 17 38  1  0  0  0  0
 18 21  2  0  0  0  0
 18 39  1  0  0  0  0
 19 20  2  0  0  0  0
 19 40  1  0  0  0  0
 20 21  1  0  0  0  0
 21 41  1  0  0  0  0
 22 42  1  0  0  0  0
 22 43  1  0  0  0  0
 22 44  1  0  0  0  0
 23 45  1  0  0  0  0
 23 46  1  0  0  0  0
 23 47  1  0  0  0  0
 24 48  1  0  0  0  0
 24 49  1  0  0  0  0
 24 50  1  0  0  0  0
M  END
>  <DRUGBANK_ID>
DB13237

>  <COMMON_NAME>
Clofoctol

>  <CAS_NUMBER>
37693-01-9

>  <UNII>
704083NI0R

>  <SYNONYMS>
Clofoctol; Clofoctolum; Octofene

$$$$
