Untitled Document-7
 OpenBabel10282417072D

 53 56  0  0  0  0  0  0  0  0999 V2000
   -2.0637   -0.3134    0.0000 C   0  0  0  0  0  0  0  0  0  0  0  0
   -2.0637   -1.1385    0.0000 C   0  0  1  0  0  0  0  0  0  0  0  0
   -1.3492   -1.5510    0.0000 C   0  0  0  0  0  0  0  0  0  0  0  0
   -0.6348   -1.1385    0.0000 C   0  0  1  0  0  0  0  0  0  0  0  0
   -0.6348   -0.3134    0.0000 C   0  0  2  0  0  0  0  0  0  0  0  0
   -1.3492    0.0990    0.0000 C   0  0  0  0  0  0  0  0  0  0  0  0
    0.0796   -1.5510    0.0000 C   0  0  0  0  0  0  0  0  0  0  0  0
    0.7942   -1.1385    0.0000 C   0  0  0  0  0  0  0  0  0  0  0  0
    0.7942   -0.3134    0.0000 C   0  0  2  0  0  0  0  0  0  0  0  0
    0.0796    0.0990    0.0000 C   0  0  2  0  0  0  0  0  0  0  0  0
    1.5086    0.0990    0.0000 C   0  0  1  0  0  0  0  0  0  0  0  0
    1.5086    0.9240    0.0000 C   0  0  2  0  0  0  0  0  0  0  0  0
    0.7942    1.3365    0.0000 C   0  0  0  0  0  0  0  0  0  0  0  0
    0.0796    0.9240    0.0000 C   0  0  0  0  0  0  0  0  0  0  0  0
    2.2933   -0.1560    0.0000 C   0  0  0  0  0  0  0  0  0  0  0  0
    2.7782    0.5115    0.0000 C   0  0  0  0  0  0  0  0  0  0  0  0
    2.2933    1.1789    0.0000 C   0  0  2  0  0  0  0  0  0  0  0  0
   -2.7782   -1.5510    0.0000 O   0  0  0  0  0  0  0  0  0  0  0  0
   -0.6348    0.5115    0.0000 C   0  0  0  0  0  0  0  0  0  0  0  0
    0.7942    0.5060    0.0000 H   0  0  0  0  0  0  0  0  0  0  0  0
    1.5949    1.7445    0.0000 C   0  0  0  0  0  0  0  0  0  0  0  0
    2.5482    1.9635    0.0000 O   0  0  0  0  0  0  0  0  0  0  0  0
   -0.6348   -1.9635    0.0000 H   0  0  0  0  0  0  0  0  0  0  0  0
    0.0796   -0.7260    0.0000 H   0  0  0  0  0  0  0  0  0  0  0  0
    1.5086   -0.7260    0.0000 H   0  0  0  0  0  0  0  0  0  0  0  0
   -2.9903    0.2217    0.0000 H   0  0  0  0  0  0  0  0  0  0  0  0
   -2.0636    0.7566    0.0000 H   0  0  0  0  0  0  0  0  0  0  0  0
   -2.9903   -0.6035    0.0000 H   0  0  0  0  0  0  0  0  0  0  0  0
   -1.3492   -2.6210    0.0000 H   0  0  0  0  0  0  0  0  0  0  0  0
   -0.4225   -2.0860    0.0000 H   0  0  0  0  0  0  0  0  0  0  0  0
   -1.3492    1.1690    0.0000 H   0  0  0  0  0  0  0  0  0  0  0  0
   -2.2758    0.6341    0.0000 H   0  0  0  0  0  0  0  0  0  0  0  0
    0.0795   -2.6210    0.0000 H   0  0  0  0  0  0  0  0  0  0  0  0
    1.0062   -2.0861    0.0000 H   0  0  0  0  0  0  0  0  0  0  0  0
    1.7208   -1.6735    0.0000 H   0  0  0  0  0  0  0  0  0  0  0  0
    1.7209   -0.6035    0.0000 H   0  0  0  0  0  0  0  0  0  0  0  0
    0.7943    2.4065    0.0000 H   0  0  0  0  0  0  0  0  0  0  0  0
   -0.1324    1.8716    0.0000 H   0  0  0  0  0  0  0  0  0  0  0  0
   -0.8470    1.4590    0.0000 H   0  0  0  0  0  0  0  0  0  0  0  0
   -0.8471    0.3890    0.0000 H   0  0  0  0  0  0  0  0  0  0  0  0
    2.6240   -1.1736    0.0000 H   0  0  0  0  0  0  0  0  0  0  0  0
    3.3501   -0.3233    0.0000 H   0  0  0  0  0  0  0  0  0  0  0  0
    3.8482    0.5115    0.0000 H   0  0  0  0  0  0  0  0  0  0  0  0
    3.2640    1.4649    0.0000 H   0  0  0  0  0  0  0  0  0  0  0  0
    3.3501    1.3463    0.0000 H   0  0  0  0  0  0  0  0  0  0  0  0
   -3.6182   -1.0660    0.0000 H   0  0  0  0  0  0  0  0  0  0  0  0
    0.2918    1.0465    0.0000 H   0  0  0  0  0  0  0  0  0  0  0  0
   -1.5614    1.0465    0.0000 H   0  0  0  0  0  0  0  0  0  0  0  0
   -0.6348    1.5815    0.0000 H   0  0  0  0  0  0  0  0  0  0  0  0
    2.5724    2.1796    0.0000 H   0  0  0  0  0  0  0  0  0  0  0  0
    0.7293    2.3735    0.0000 H   0  0  0  0  0  0  0  0  0  0  0  0
    1.7068    2.8086    0.0000 H   0  0  0  0  0  0  0  0  0  0  0  0
    3.4970    2.1652    0.0000 H   0  0  0  0  0  0  0  0  0  0  0  0
  1  2  1  0  0  0  0
  1 26  1  0  0  0  0
  1 27  1  0  0  0  0
  2  3  1  0  0  0  0
  2 18  1  0  0  0  0
  2 28  1  6  0  0  0
  3  4  1  0  0  0  0
  3 29  1  0  0  0  0
  3 30  1  0  0  0  0
  4  5  1  0  0  0  0
  4  7  1  0  0  0  0
  4 23  1  6  0  0  0
  5  6  1  0  0  0  0
  5 19  1  1  0  0  0
  6  1  1  0  0  0  0
  6 31  1  0  0  0  0
  6 32  1  0  0  0  0
  7  8  1  0  0  0  0
  7 33  1  0  0  0  0
  7 34  1  0  0  0  0
  8  9  1  0  0  0  0
  8 35  1  0  0  0  0
  8 36  1  0  0  0  0
  9 10  1  0  0  0  0
  9 11  1  0  0  0  0
  9 20  1  1  0  0  0
 10  5  1  0  0  0  0
 10 24  1  6  0  0  0
 11 12  1  0  0  0  0
 11 15  1  0  0  0  0
 11 25  1  6  0  0  0
 12 13  1  0  0  0  0
 12 21  1  1  0  0  0
 13 14  1  0  0  0  0
 13 37  1  0  0  0  0
 13 38  1  0  0  0  0
 14 10  1  0  0  0  0
 14 39  1  0  0  0  0
 14 40  1  0  0  0  0
 15 16  1  0  0  0  0
 15 41  1  0  0  0  0
 15 42  1  0  0  0  0
 16 17  1  0  0  0  0
 16 43  1  0  0  0  0
 16 44  1  0  0  0  0
 17 12  1  0  0  0  0
 17 22  1  0  0  0  0
 17 45  1  6  0  0  0
 18 46  1  0  0  0  0
 19 47  1  0  0  0  0
 19 48  1  0  0  0  0
 19 49  1  0  0  0  0
 21 50  1  0  0  0  0
 21 51  1  0  0  0  0
 21 52  1  0  0  0  0
 22 53  1  0  0  0  0
M  END
>  <DRUGBANK_ID>
DB03882

>  <SECONDARY_ACCESSION_NUMBERS>
EXPT00530; DB01507

>  <COMMON_NAME>
5-Alpha-Androstane-3-Beta,17beta-Diol

>  <CAS_NUMBER>
571-20-0

>  <UNII>
6J0K4253QD

$$$$
