
 OpenBabel10282417072D

 18 19  0  0  1  0  0  0  0  0999 V2000
    0.1351   -2.0602    0.0000 C   0  0  0  0  0  0  0  0  0  0  0  0
    0.5004   -1.3997    0.0000 C   0  0  0  0  0  0  0  0  0  0  0  0
    0.9807   -0.1341    0.0000 C   0  0  0  0  0  0  0  0  0  0  0  0
    1.6411   -2.0402    0.0000 C   0  0  0  0  0  0  0  0  0  0  0  0
    0.9106   -1.6699    0.0000 C   0  0  1  0  0  0  0  0  0  0  0  0
    1.1407   -0.9495    0.0000 C   0  0  2  0  0  0  0  0  0  0  0  0
    1.9362   -1.4148    0.0000 C   0  0  0  0  0  0  0  0  0  0  0  0
    2.7243   -1.1707    0.0000 O   0  0  0  0  0  0  0  0  0  0  0  0
    0.9094   -2.4949    0.0000 H   0  0  0  0  0  0  0  0  0  0  0  0
    1.3902   -0.1631    0.0000 H   0  0  0  0  0  0  0  0  0  0  0  0
   -0.6361   -2.8019    0.0000 H   0  0  0  0  0  0  0  0  0  0  0  0
    0.7534   -2.9335    0.0000 H   0  0  0  0  0  0  0  0  0  0  0  0
   -0.2958   -0.6849    0.0000 H   0  0  0  0  0  0  0  0  0  0  0  0
    0.5639   -0.3316    0.0000 H   0  0  0  0  0  0  0  0  0  0  0  0
    0.9015    0.9330    0.0000 H   0  0  0  0  0  0  0  0  0  0  0  0
    2.0411    0.0088    0.0000 H   0  0  0  0  0  0  0  0  0  0  0  0
    1.9882   -3.0523    0.0000 H   0  0  0  0  0  0  0  0  0  0  0  0
    2.7095   -2.0993    0.0000 H   0  0  0  0  0  0  0  0  0  0  0  0
  1 11  1  0  0  0  0
  1 12  1  0  0  0  0
  2  1  1  0  0  0  0
  2 13  1  0  0  0  0
  2 14  1  0  0  0  0
  3 15  1  0  0  0  0
  3 16  1  0  0  0  0
  4 17  1  0  0  0  0
  4 18  1  0  0  0  0
  5  1  1  0  0  0  0
  5  3  1  0  0  0  0
  5  4  1  0  0  0  0
  5  9  1  6  0  0  0
  6  2  1  0  0  0  0
  6  3  1  0  0  0  0
  6 10  1  1  0  0  0
  7  4  1  0  0  0  0
  7  6  1  0  0  0  0
  8  7  2  0  0  0  0
M  END
>  <DRUGBANK_ID>
DB03540

>  <SECONDARY_ACCESSION_NUMBERS>
EXPT02311

>  <COMMON_NAME>
Norcamphor

$$$$
