
 OpenBabel10282417072D

 44 47  0  0  1  0  0  0  0  0999 V2000
   -0.0774   -7.4215    0.0000 C   0  0  0  0  0  0  0  0  0  0  0  0
   -0.3323   -8.2061    0.0000 C   0  0  0  0  0  0  0  0  0  0  0  0
   -1.1573   -8.2061    0.0000 O   0  0  0  0  0  0  0  0  0  0  0  0
   -1.4123   -7.4215    0.0000 N   0  0  0  0  0  0  0  0  0  0  0  0
   -0.7448   -6.9366    0.0000 C   0  0  0  0  0  0  0  0  0  0  0  0
   -0.7448   -6.1116    0.0000 N   0  0  0  0  0  0  0  0  0  0  0  0
   -1.4593   -5.6991    0.0000 C   0  0  0  0  0  0  0  0  0  0  0  0
   -1.4593   -4.8741    0.0000 C   0  0  1  0  0  0  0  0  0  0  0  0
   -2.1267   -4.3891    0.0000 C   0  0  0  0  0  0  0  0  0  0  0  0
   -1.8718   -3.6045    0.0000 N   0  0  0  0  0  0  0  0  0  0  0  0
   -1.0468   -3.6045    0.0000 C   0  0  0  0  0  0  0  0  0  0  0  0
   -0.5619   -2.9371    0.0000 O   0  0  0  0  0  0  0  0  0  0  0  0
   -0.7918   -4.3891    0.0000 O   0  0  0  0  0  0  0  0  0  0  0  0
   -2.3567   -2.9371    0.0000 C   0  0  0  0  0  0  0  0  0  0  0  0
   -3.1772   -3.0233    0.0000 C   0  0  0  0  0  0  0  0  0  0  0  0
   -3.6621   -2.3559    0.0000 C   0  0  0  0  0  0  0  0  0  0  0  0
   -3.3266   -1.6022    0.0000 C   0  0  0  0  0  0  0  0  0  0  0  0
   -2.5061   -1.5160    0.0000 C   0  0  0  0  0  0  0  0  0  0  0  0
   -2.0212   -2.1834    0.0000 C   0  0  0  0  0  0  0  0  0  0  0  0
   -1.2007   -2.0972    0.0000 F   0  0  0  0  0  0  0  0  0  0  0  0
   -2.1705   -0.7623    0.0000 F   0  0  0  0  0  0  0  0  0  0  0  0
   -3.8115   -0.9348    0.0000 N   0  0  0  0  0  0  0  0  0  0  0  0
   -4.6320   -1.0210    0.0000 C   0  0  0  0  0  0  0  0  0  0  0  0
   -5.1169   -0.3536    0.0000 C   0  0  0  0  0  0  0  0  0  0  0  0
   -4.7813    0.4001    0.0000 C   0  0  0  0  0  0  0  0  0  0  0  0
   -5.2662    1.0675    0.0000 O   0  0  0  0  0  0  0  0  0  0  0  0
   -3.9608    0.4863    0.0000 C   0  0  0  0  0  0  0  0  0  0  0  0
   -3.4759   -0.1811    0.0000 C   0  0  0  0  0  0  0  0  0  0  0  0
   -4.4826   -2.4421    0.0000 F   0  0  0  0  0  0  0  0  0  0  0  0
    0.9041   -7.1026    0.0000 H   0  0  0  0  0  0  0  0  0  0  0  0
    0.2743   -9.0410    0.0000 H   0  0  0  0  0  0  0  0  0  0  0  0
    0.1078   -5.6193    0.0000 H   0  0  0  0  0  0  0  0  0  0  0  0
   -2.3859   -6.2341    0.0000 H   0  0  0  0  0  0  0  0  0  0  0  0
   -2.3859   -5.1641    0.0000 H   0  0  0  0  0  0  0  0  0  0  0  0
   -2.4127   -5.3598    0.0000 H   0  0  0  0  0  0  0  0  0  0  0  0
   -3.1443   -4.7197    0.0000 H   0  0  0  0  0  0  0  0  0  0  0  0
   -2.8833   -3.6325    0.0000 H   0  0  0  0  0  0  0  0  0  0  0  0
   -3.5970   -3.9661    0.0000 H   0  0  0  0  0  0  0  0  0  0  0  0
   -5.0672   -1.9985    0.0000 H   0  0  0  0  0  0  0  0  0  0  0  0
   -5.6961   -1.1328    0.0000 H   0  0  0  0  0  0  0  0  0  0  0  0
   -6.1810   -0.4654    0.0000 H   0  0  0  0  0  0  0  0  0  0  0  0
   -5.7458    0.5121    0.0000 H   0  0  0  0  0  0  0  0  0  0  0  0
   -3.5410    1.4291    0.0000 H   0  0  0  0  0  0  0  0  0  0  0  0
   -2.4496   -0.0732    0.0000 H   0  0  0  0  0  0  0  0  0  0  0  0
  1  2  2  0  0  0  0
  1  5  1  0  0  0  0
  1 30  1  0  0  0  0
  2  3  1  0  0  0  0
  2 31  1  0  0  0  0
  3  4  1  0  0  0  0
  4  5  2  0  0  0  0
  5  6  1  0  0  0  0
  6  7  1  0  0  0  0
  6 32  1  0  0  0  0
  7 33  1  0  0  0  0
  7 34  1  0  0  0  0
  8  7  1  0  0  0  0
  8  9  1  0  0  0  0
  8 13  1  0  0  0  0
  8 35  1  6  0  0  0
  9 10  1  0  0  0  0
  9 36  1  0  0  0  0
  9 37  1  0  0  0  0
 10 11  1  0  0  0  0
 10 14  1  0  0  0  0
 11 12  2  0  0  0  0
 11 13  1  0  0  0  0
 14 15  2  0  0  0  0
 14 19  1  0  0  0  0
 15 16  1  0  0  0  0
 15 38  1  0  0  0  0
 16 17  2  0  0  0  0
 16 29  1  0  0  0  0
 17 18  1  0  0  0  0
 17 22  1  0  0  0  0
 18 19  2  0  0  0  0
 18 21  1  0  0  0  0
 19 20  1  0  0  0  0
 22 23  1  0  0  0  0
 22 28  1  0  0  0  0
 23 24  1  0  0  0  0
 23 39  1  0  0  0  0
 23 40  1  0  0  0  0
 24 25  1  0  0  0  0
 24 41  1  0  0  0  0
 24 42  1  0  0  0  0
 25 26  2  0  0  0  0
 25 27  1  0  0  0  0
 27 28  2  0  0  0  0
 27 43  1  0  0  0  0
 28 44  1  0  0  0  0
M  END
>  <DRUGBANK_ID>
DB12796

>  <COMMON_NAME>
MRX-I

>  <CAS_NUMBER>
1112968-42-9

>  <UNII>
B669M62ELP

$$$$
