
 OpenBabel10282417072D

 63 66  0  0  0  0  0  0  0  0999 V2000
   -3.5724   -4.5375    0.0000 C   0  0  0  0  0  0  0  0  0  0  0  0
   -2.8579   -4.1250    0.0000 C   0  0  0  0  0  0  0  0  0  0  0  0
   -2.8579   -3.3000    0.0000 C   0  0  0  0  0  0  0  0  0  0  0  0
   -2.1434   -4.5375    0.0000 N   0  0  0  0  0  0  0  0  0  0  0  0
   -1.4289   -4.1250    0.0000 C   0  0  0  0  0  0  0  0  0  0  0  0
   -0.7145   -4.5375    0.0000 C   0  0  0  0  0  0  0  0  0  0  0  0
    0.0000   -4.1250    0.0000 N   0  0  0  0  0  0  0  0  0  0  0  0
    0.7145   -4.5375    0.0000 C   0  0  0  0  0  0  0  0  0  0  0  0
    0.7145   -5.3625    0.0000 C   0  0  0  0  0  0  0  0  0  0  0  0
    1.4289   -5.7750    0.0000 C   0  0  0  0  0  0  0  0  0  0  0  0
    2.1434   -5.3625    0.0000 C   0  0  0  0  0  0  0  0  0  0  0  0
    2.1434   -4.5375    0.0000 C   0  0  0  0  0  0  0  0  0  0  0  0
    1.4289   -4.1250    0.0000 C   0  0  0  0  0  0  0  0  0  0  0  0
    2.8579   -4.1250    0.0000 N   0  0  0  0  0  0  0  0  0  0  0  0
    3.5724   -4.5375    0.0000 C   0  0  0  0  0  0  0  0  0  0  0  0
    3.5724   -5.3625    0.0000 C   0  0  0  0  0  0  0  0  0  0  0  0
    2.8579   -5.7750    0.0000 N   0  0  0  0  0  0  0  0  0  0  0  0
    4.2868   -4.1250    0.0000 C   0  0  0  0  0  0  0  0  0  0  0  0
    4.3731   -3.3045    0.0000 C   0  0  0  0  0  0  0  0  0  0  0  0
    5.1800   -3.1330    0.0000 N   0  0  0  0  0  0  0  0  0  0  0  0
    5.5925   -3.8475    0.0000 N   0  0  0  0  0  0  0  0  0  0  0  0
    5.0405   -4.4606    0.0000 C   0  0  0  0  0  0  0  0  0  0  0  0
    6.4130   -3.9337    0.0000 C   0  0  0  0  0  0  0  0  0  0  0  0
    0.0000   -3.3000    0.0000 C   0  0  0  0  0  0  0  0  0  0  0  0
   -0.7145   -2.8875    0.0000 C   0  0  0  0  0  0  0  0  0  0  0  0
   -0.7145   -2.0625    0.0000 C   0  0  0  0  0  0  0  0  0  0  0  0
    0.0000   -1.6500    0.0000 C   0  0  0  0  0  0  0  0  0  0  0  0
    0.7145   -2.0625    0.0000 C   0  0  0  0  0  0  0  0  0  0  0  0
    0.7145   -2.8875    0.0000 C   0  0  0  0  0  0  0  0  0  0  0  0
    1.4289   -1.6500    0.0000 O   0  0  0  0  0  0  0  0  0  0  0  0
    2.1434   -2.0625    0.0000 C   0  0  0  0  0  0  0  0  0  0  0  0
   -1.4289   -1.6500    0.0000 O   0  0  0  0  0  0  0  0  0  0  0  0
   -1.4289   -0.8250    0.0000 C   0  0  0  0  0  0  0  0  0  0  0  0
   -4.4990   -4.0025    0.0000 H   0  0  0  0  0  0  0  0  0  0  0  0
   -3.5724   -5.6075    0.0000 H   0  0  0  0  0  0  0  0  0  0  0  0
   -4.4991   -5.0725    0.0000 H   0  0  0  0  0  0  0  0  0  0  0  0
   -1.9313   -3.5900    0.0000 H   0  0  0  0  0  0  0  0  0  0  0  0
   -1.9313   -2.7650    0.0000 H   0  0  0  0  0  0  0  0  0  0  0  0
   -3.7845   -2.7650    0.0000 H   0  0  0  0  0  0  0  0  0  0  0  0
   -2.8579   -2.2300    0.0000 H   0  0  0  0  0  0  0  0  0  0  0  0
   -2.1434   -5.5575    0.0000 H   0  0  0  0  0  0  0  0  0  0  0  0
   -1.4289   -3.0550    0.0000 H   0  0  0  0  0  0  0  0  0  0  0  0
   -0.5022   -3.5900    0.0000 H   0  0  0  0  0  0  0  0  0  0  0  0
   -0.7145   -5.6075    0.0000 H   0  0  0  0  0  0  0  0  0  0  0  0
    0.2121   -5.0725    0.0000 H   0  0  0  0  0  0  0  0  0  0  0  0
   -0.1792   -5.8785    0.0000 H   0  0  0  0  0  0  0  0  0  0  0  0
    1.4289   -6.8070    0.0000 H   0  0  0  0  0  0  0  0  0  0  0  0
    1.4289   -3.0930    0.0000 H   0  0  0  0  0  0  0  0  0  0  0  0
    4.4661   -5.8785    0.0000 H   0  0  0  0  0  0  0  0  0  0  0  0
    3.6062   -2.6139    0.0000 H   0  0  0  0  0  0  0  0  0  0  0  0
    5.2551   -5.4700    0.0000 H   0  0  0  0  0  0  0  0  0  0  0  0
    6.8483   -4.9112    0.0000 H   0  0  0  0  0  0  0  0  0  0  0  0
    7.0419   -3.0680    0.0000 H   0  0  0  0  0  0  0  0  0  0  0  0
    7.4771   -4.0455    0.0000 H   0  0  0  0  0  0  0  0  0  0  0  0
   -1.6082   -3.4035    0.0000 H   0  0  0  0  0  0  0  0  0  0  0  0
    0.0000   -0.6180    0.0000 H   0  0  0  0  0  0  0  0  0  0  0  0
    1.6082   -3.4035    0.0000 H   0  0  0  0  0  0  0  0  0  0  0  0
    2.1434   -3.1325    0.0000 H   0  0  0  0  0  0  0  0  0  0  0  0
    3.0700   -1.5275    0.0000 H   0  0  0  0  0  0  0  0  0  0  0  0
    3.0701   -2.5975    0.0000 H   0  0  0  0  0  0  0  0  0  0  0  0
   -0.5023   -0.2900    0.0000 H   0  0  0  0  0  0  0  0  0  0  0  0
   -2.3555   -0.2900    0.0000 H   0  0  0  0  0  0  0  0  0  0  0  0
   -1.4289    0.2450    0.0000 H   0  0  0  0  0  0  0  0  0  0  0  0
  1  2  1  0  0  0  0
  1 34  1  0  0  0  0
  1 35  1  0  0  0  0
  1 36  1  0  0  0  0
  2  3  1  0  0  0  0
  2  4  1  0  0  0  0
  2 37  1  0  0  0  0
  3 38  1  0  0  0  0
  3 39  1  0  0  0  0
  3 40  1  0  0  0  0
  4  5  1  0  0  0  0
  4 41  1  0  0  0  0
  5  6  1  0  0  0  0
  5 42  1  0  0  0  0
  5 43  1  0  0  0  0
  6  7  1  0  0  0  0
  6 44  1  0  0  0  0
  6 45  1  0  0  0  0
  7  8  1  0  0  0  0
  7 24  1  0  0  0  0
  8  9  2  0  0  0  0
  8 13  1  0  0  0  0
  9 10  1  0  0  0  0
  9 46  1  0  0  0  0
 10 11  2  0  0  0  0
 10 47  1  0  0  0  0
 11 12  1  0  0  0  0
 11 17  1  0  0  0  0
 12 13  2  0  0  0  0
 12 14  1  0  0  0  0
 13 48  1  0  0  0  0
 14 15  2  0  0  0  0
 15 16  1  0  0  0  0
 15 18  1  0  0  0  0
 16 17  2  0  0  0  0
 16 49  1  0  0  0  0
 18 19  1  0  0  0  0
 18 22  2  0  0  0  0
 19 20  2  0  0  0  0
 19 50  1  0  0  0  0
 20 21  1  0  0  0  0
 21 22  1  0  0  0  0
 21 23  1  0  0  0  0
 22 51  1  0  0  0  0
 23 52  1  0  0  0  0
 23 53  1  0  0  0  0
 23 54  1  0  0  0  0
 24 25  2  0  0  0  0
 24 29  1  0  0  0  0
 25 26  1  0  0  0  0
 25 55  1  0  0  0  0
 26 27  2  0  0  0  0
 26 32  1  0  0  0  0
 27 28  1  0  0  0  0
 27 56  1  0  0  0  0
 28 29  2  0  0  0  0
 28 30  1  0  0  0  0
 29 57  1  0  0  0  0
 30 31  1  0  0  0  0
 31 58  1  0  0  0  0
 31 59  1  0  0  0  0
 31 60  1  0  0  0  0
 32 33  1  0  0  0  0
 33 61  1  0  0  0  0
 33 62  1  0  0  0  0
 33 63  1  0  0  0  0
M  END
>  <DRUGBANK_ID>
DB12147

>  <COMMON_NAME>
Erdafitinib

>  <CAS_NUMBER>
1346242-81-6

>  <UNII>
890E37NHMV

>  <SYNONYMS>
Erdafitinib

$$$$
