5280581
 OpenBabel10282417072D

 56 55  0  0  0  0  0  0  0  0999 V2000
    1.6500    2.6813    0.0000 O   0  0  0  0  0  0  0  0  0  0  0  0
    3.0790    2.6813    0.0000 O   0  0  0  0  0  0  0  0  0  0  0  0
    3.7935   -0.2063    0.0000 C   0  0  0  0  0  0  0  0  0  0  0  0
    3.0790    0.2063    0.0000 C   0  0  0  0  0  0  0  0  0  0  0  0
    3.7935   -1.0313    0.0000 C   0  0  0  0  0  0  0  0  0  0  0  0
    3.0790    1.0313    0.0000 C   0  0  0  0  0  0  0  0  0  0  0  0
    4.5080   -1.4438    0.0000 C   0  0  0  0  0  0  0  0  0  0  0  0
    2.3645    1.4438    0.0000 C   0  0  0  0  0  0  0  0  0  0  0  0
    7.3659    1.0313    0.0000 C   0  0  0  0  0  0  0  0  0  0  0  0
    6.6515    1.4438    0.0000 C   0  0  0  0  0  0  0  0  0  0  0  0
    7.3659    0.2063    0.0000 C   0  0  0  0  0  0  0  0  0  0  0  0
    6.6515    2.2688    0.0000 C   0  0  0  0  0  0  0  0  0  0  0  0
    4.5080   -2.2688    0.0000 C   0  0  0  0  0  0  0  0  0  0  0  0
    5.2224   -2.6813    0.0000 C   0  0  0  0  0  0  0  0  0  0  0  0
    8.0804   -0.2063    0.0000 C   0  0  0  0  0  0  0  0  0  0  0  0
    2.3645    2.2688    0.0000 C   0  0  0  0  0  0  0  0  0  0  0  0
    5.9370    2.6813    0.0000 C   0  0  0  0  0  0  0  0  0  0  0  0
    5.9370   -2.2688    0.0000 C   0  0  0  0  0  0  0  0  0  0  0  0
    8.0804   -1.0313    0.0000 C   0  0  0  0  0  0  0  0  0  0  0  0
    7.3659   -1.4438    0.0000 C   0  0  0  0  0  0  0  0  0  0  0  0
    6.6515   -2.6813    0.0000 C   0  0  0  0  0  0  0  0  0  0  0  0
    7.3659   -2.2688    0.0000 C   0  0  0  0  0  0  0  0  0  0  0  0
    1.6500    3.6183    0.0000 H   0  0  0  0  0  0  0  0  0  0  0  0
    4.7202    0.3287    0.0000 H   0  0  0  0  0  0  0  0  0  0  0  0
    4.7201   -0.7413    0.0000 H   0  0  0  0  0  0  0  0  0  0  0  0
    2.1523   -0.3287    0.0000 H   0  0  0  0  0  0  0  0  0  0  0  0
    2.1524    0.7413    0.0000 H   0  0  0  0  0  0  0  0  0  0  0  0
    2.8669   -1.5663    0.0000 H   0  0  0  0  0  0  0  0  0  0  0  0
    3.7935   -2.1013    0.0000 H   0  0  0  0  0  0  0  0  0  0  0  0
    4.0056    1.5663    0.0000 H   0  0  0  0  0  0  0  0  0  0  0  0
    3.0790    2.1013    0.0000 H   0  0  0  0  0  0  0  0  0  0  0  0
    5.4346   -0.9088    0.0000 H   0  0  0  0  0  0  0  0  0  0  0  0
    5.4346   -1.9788    0.0000 H   0  0  0  0  0  0  0  0  0  0  0  0
    1.4379    0.9088    0.0000 H   0  0  0  0  0  0  0  0  0  0  0  0
    1.4379    1.9788    0.0000 H   0  0  0  0  0  0  0  0  0  0  0  0
    8.2926    1.5663    0.0000 H   0  0  0  0  0  0  0  0  0  0  0  0
    8.2925    0.4963    0.0000 H   0  0  0  0  0  0  0  0  0  0  0  0
    5.7248    0.9088    0.0000 H   0  0  0  0  0  0  0  0  0  0  0  0
    5.7249    1.9788    0.0000 H   0  0  0  0  0  0  0  0  0  0  0  0
    6.4392   -0.3287    0.0000 H   0  0  0  0  0  0  0  0  0  0  0  0
    7.3658   -0.8637    0.0000 H   0  0  0  0  0  0  0  0  0  0  0  0
    7.5781    2.8038    0.0000 H   0  0  0  0  0  0  0  0  0  0  0  0
    6.6515    3.3388    0.0000 H   0  0  0  0  0  0  0  0  0  0  0  0
    3.6143   -2.7848    0.0000 H   0  0  0  0  0  0  0  0  0  0  0  0
    5.2223   -3.7133    0.0000 H   0  0  0  0  0  0  0  0  0  0  0  0
    8.9742    0.3097    0.0000 H   0  0  0  0  0  0  0  0  0  0  0  0
    5.9370    3.7513    0.0000 H   0  0  0  0  0  0  0  0  0  0  0  0
    5.0104    2.1463    0.0000 H   0  0  0  0  0  0  0  0  0  0  0  0
    5.0103    3.2163    0.0000 H   0  0  0  0  0  0  0  0  0  0  0  0
    5.9370   -1.1988    0.0000 H   0  0  0  0  0  0  0  0  0  0  0  0
    6.8637   -1.7338    0.0000 H   0  0  0  0  0  0  0  0  0  0  0  0
    8.9741   -1.5473    0.0000 H   0  0  0  0  0  0  0  0  0  0  0  0
    6.4393   -0.9088    0.0000 H   0  0  0  0  0  0  0  0  0  0  0  0
    6.4393   -1.9788    0.0000 H   0  0  0  0  0  0  0  0  0  0  0  0
    6.6515   -3.7133    0.0000 H   0  0  0  0  0  0  0  0  0  0  0  0
    8.2596   -2.7848    0.0000 H   0  0  0  0  0  0  0  0  0  0  0  0
  1 16  1  0  0  0  0
  1 23  1  0  0  0  0
  2 16  2  0  0  0  0
  3  4  1  0  0  0  0
  3  5  1  0  0  0  0
  3 24  1  0  0  0  0
  3 25  1  0  0  0  0
  4  6  1  0  0  0  0
  4 26  1  0  0  0  0
  4 27  1  0  0  0  0
  5  7  1  0  0  0  0
  5 28  1  0  0  0  0
  5 29  1  0  0  0  0
  6  8  1  0  0  0  0
  6 30  1  0  0  0  0
  6 31  1  0  0  0  0
  7 13  1  0  0  0  0
  7 32  1  0  0  0  0
  7 33  1  0  0  0  0
  8 16  1  0  0  0  0
  8 34  1  0  0  0  0
  8 35  1  0  0  0  0
  9 10  1  0  0  0  0
  9 11  1  0  0  0  0
  9 36  1  0  0  0  0
  9 37  1  0  0  0  0
 10 12  1  0  0  0  0
 10 38  1  0  0  0  0
 10 39  1  0  0  0  0
 11 15  1  0  0  0  0
 11 40  1  0  0  0  0
 11 41  1  0  0  0  0
 12 17  1  0  0  0  0
 12 42  1  0  0  0  0
 12 43  1  0  0  0  0
 13 14  2  0  0  0  0
 13 44  1  0  0  0  0
 14 18  1  0  0  0  0
 14 45  1  0  0  0  0
 15 19  2  0  0  0  0
 15 46  1  0  0  0  0
 17 47  1  0  0  0  0
 17 48  1  0  0  0  0
 17 49  1  0  0  0  0
 18 21  1  0  0  0  0
 18 50  1  0  0  0  0
 18 51  1  0  0  0  0
 19 20  1  0  0  0  0
 19 52  1  0  0  0  0
 20 22  1  0  0  0  0
 20 53  1  0  0  0  0
 20 54  1  0  0  0  0
 21 22  2  0  0  0  0
 21 55  1  0  0  0  0
 22 56  1  0  0  0  0
M  END
>  <DRUGBANK_ID>
DB00154

>  <SECONDARY_ACCESSION_NUMBERS>
NUTR00032

>  <COMMON_NAME>
Dihomo-gamma-linolenic acid

>  <CAS_NUMBER>
1783-84-2

>  <UNII>
FC398RK06S

>  <SYNONYMS>
(8Z,11Z,14Z)-Icosatrienoic acid; (Z,Z,Z)-8,11,14-Eicosatrienoic acid; (Z,Z,Z)-8,11,14-Icosatrienoate; (Z,Z,Z)-8,11,14-Icosatrienoic acid; 20:3, n-6,9,12 all-cis; 8,11,14-Eicosatrienoic Acid; 8c,11c,14c-eicosatrienoic acid; 8c,11c,14c-Eicosatriensäure; all-cis-8,11,14-eicosatrienoic acid; all-cis-8,11,14-icosatrienoic acid; all-cis-eicosa-8,11,14-trienoic acid; all-cis-Eicosa-8,11,14-triensäure; all-cis-icosa-8,11,14-trienoic acid; C20:3, n-6,9,12 all-cis; cis,cis,cis-8,11,14-eicosatrienoic acid; DGLA; dihomo-γ-linolenic acid; eicosa-8Z,11Z,14Z-trienoic acid; gamma-Homolinolenic acid; Homo-gamma-linolenic acid; Homo-gamma-linolensäure; Homo-γ-linolensäure

$$$$
