6BD
 OpenBabel10282417072D

 36 38  0  0  0  0  0  0  0  0999 V2000
   -1.3223   -0.6673    0.0000 C   0  0  0  0  0  0  0  0  0  0  0  0
   -1.5772   -1.4519    0.0000 C   0  0  0  0  0  0  0  0  0  0  0  0
   -2.3842   -1.6234    0.0000 C   0  0  0  0  0  0  0  0  0  0  0  0
   -2.9362   -1.0103    0.0000 C   0  0  0  0  0  0  0  0  0  0  0  0
   -2.6813   -0.2257    0.0000 C   0  0  0  0  0  0  0  0  0  0  0  0
   -1.8743   -0.0542    0.0000 C   0  0  0  0  0  0  0  0  0  0  0  0
   -1.4618    0.6603    0.0000 C   0  0  0  0  0  0  0  0  0  0  0  0
   -1.7168    1.4449    0.0000 C   0  0  0  0  0  0  0  0  0  0  0  0
   -1.1647    2.0580    0.0000 C   0  0  0  0  0  0  0  0  0  0  0  0
   -0.3578    1.8865    0.0000 C   0  0  0  0  0  0  0  0  0  0  0  0
   -0.1028    1.1018    0.0000 C   0  0  0  0  0  0  0  0  0  0  0  0
   -0.6548    0.4888    0.0000 C   0  0  0  0  0  0  0  0  0  0  0  0
   -0.5686   -0.3317    0.0000 C   0  0  0  0  0  0  0  0  0  0  0  0
    0.1459   -0.7442    0.0000 N   0  0  0  0  0  0  0  0  0  0  0  0
    0.8603   -0.3317    0.0000 O   0  0  0  0  0  0  0  0  0  0  0  0
    1.5748   -0.7442    0.0000 C   0  0  0  0  0  0  0  0  0  0  0  0
    2.2893   -0.3317    0.0000 C   0  0  2  0  0  0  0  0  0  0  0  0
    2.2893    0.4933    0.0000 C   0  0  0  0  0  0  0  0  0  0  0  0
    3.0037   -0.7442    0.0000 C   0  0  0  0  0  0  0  0  0  0  0  0
    3.7182   -0.3317    0.0000 O   0  0  0  0  0  0  0  0  0  0  0  0
    3.0037   -1.5692    0.0000 O   0  0  0  0  0  0  0  0  0  0  0  0
    2.2893   -0.9157    0.0000 H   0  0  0  0  0  0  0  0  0  0  0  0
   -0.8867   -2.2188    0.0000 H   0  0  0  0  0  0  0  0  0  0  0  0
   -2.7031   -2.6049    0.0000 H   0  0  0  0  0  0  0  0  0  0  0  0
   -3.9456   -1.2249    0.0000 H   0  0  0  0  0  0  0  0  0  0  0  0
   -3.3718    0.5412    0.0000 H   0  0  0  0  0  0  0  0  0  0  0  0
   -2.7263    1.6595    0.0000 H   0  0  0  0  0  0  0  0  0  0  0  0
   -1.4836    3.0395    0.0000 H   0  0  0  0  0  0  0  0  0  0  0  0
    0.3327    2.6534    0.0000 H   0  0  0  0  0  0  0  0  0  0  0  0
    0.9066    0.8872    0.0000 H   0  0  0  0  0  0  0  0  0  0  0  0
    1.5748   -1.8142    0.0000 H   0  0  0  0  0  0  0  0  0  0  0  0
    2.5014   -1.2792    0.0000 H   0  0  0  0  0  0  0  0  0  0  0  0
    3.2159    1.0283    0.0000 H   0  0  0  0  0  0  0  0  0  0  0  0
    1.3627    1.0283    0.0000 H   0  0  0  0  0  0  0  0  0  0  0  0
    2.2893    1.5633    0.0000 H   0  0  0  0  0  0  0  0  0  0  0  0
    2.1922   -2.0377    0.0000 H   0  0  0  0  0  0  0  0  0  0  0  0
  1  6  2  0  0  0  0
  2  1  1  0  0  0  0
  2  3  2  0  0  0  0
  2 23  1  0  0  0  0
  3  4  1  0  0  0  0
  3 24  1  0  0  0  0
  4  5  2  0  0  0  0
  4 25  1  0  0  0  0
  5 26  1  0  0  0  0
  6  5  1  0  0  0  0
  7  6  1  0  0  0  0
  7  8  1  0  0  0  0
  8 27  1  0  0  0  0
  9  8  2  0  0  0  0
  9 28  1  0  0  0  0
 10  9  1  0  0  0  0
 10 29  1  0  0  0  0
 11 10  2  0  0  0  0
 11 12  1  0  0  0  0
 11 30  1  0  0  0  0
 12  7  2  0  0  0  0
 13  1  1  0  0  0  0
 13 12  1  0  0  0  0
 14 13  2  0  0  0  0
 15 14  1  0  0  0  0
 16 15  1  0  0  0  0
 16 31  1  0  0  0  0
 16 32  1  0  0  0  0
 17 16  1  0  0  0  0
 17 19  1  0  0  0  0
 17 22  1  1  0  0  0
 17 18  1  0  0  0  0
 18 33  1  0  0  0  0
 18 34  1  0  0  0  0
 18 35  1  0  0  0  0
 19 21  1  0  0  0  0
 20 19  2  0  0  0  0
 21 36  1  0  0  0  0
M  END
>  <DRUGBANK_ID>
DB07201

>  <COMMON_NAME>
(2S)-3-[(9H-fluoren-9-ylideneamino)oxy]-2-methylpropanoic acid

$$$$
