BPX
 OpenBabel10282417072D

 34 34  0  0  0  0  0  0  0  0999 V2000
   -2.3003   -0.5957    0.0000 C   0  0  0  0  0  0  0  0  0  0  0  0
   -3.0147   -0.1832    0.0000 C   0  0  0  0  0  0  0  0  0  0  0  0
   -3.0147    0.6418    0.0000 C   0  0  0  0  0  0  0  0  0  0  0  0
   -2.3003    1.0543    0.0000 C   0  0  0  0  0  0  0  0  0  0  0  0
   -1.5858    0.6418    0.0000 C   0  0  0  0  0  0  0  0  0  0  0  0
   -1.5858   -0.1832    0.0000 C   0  0  0  0  0  0  0  0  0  0  0  0
   -0.8713   -0.5957    0.0000 C   0  0  0  0  0  0  0  0  0  0  0  0
   -0.1569   -0.1832    0.0000 C   0  0  1  0  0  0  0  0  0  0  0  0
   -0.1569    0.6418    0.0000 C   0  0  0  0  0  0  0  0  0  0  0  0
   -0.8713    1.0543    0.0000 O   0  0  0  0  0  0  0  0  0  0  0  0
    0.5576    1.0543    0.0000 O   0  0  0  0  0  0  0  0  0  0  0  0
    0.5576   -0.5957    0.0000 C   0  0  0  0  0  0  0  0  0  0  0  0
    1.2721   -0.1832    0.0000 C   0  0  0  0  0  0  0  0  0  0  0  0
    1.6846   -0.8977    0.0000 O   0  0  0  0  0  0  0  0  0  0  0  0
    0.8596    0.5312    0.0000 O   0  0  0  0  0  0  0  0  0  0  0  0
    1.9866    0.2293    0.0000 C   0  0  0  0  0  0  0  0  0  0  0  0
    2.7010   -0.1832    0.0000 N   0  3  0  0  0  0  0  0  0  0  0  0
    3.4155    0.2293    0.0000 O   0  0  0  0  0  0  0  0  0  0  0  0
    2.7010   -1.0082    0.0000 O   0  5  0  0  0  0  0  0  0  0  0  0
   -0.6625    0.1087    0.0000 H   0  0  0  0  0  0  0  0  0  0  0  0
   -2.3003   -1.6277    0.0000 H   0  0  0  0  0  0  0  0  0  0  0  0
   -3.9084   -0.6992    0.0000 H   0  0  0  0  0  0  0  0  0  0  0  0
   -3.9084    1.1578    0.0000 H   0  0  0  0  0  0  0  0  0  0  0  0
   -2.3003    2.0863    0.0000 H   0  0  0  0  0  0  0  0  0  0  0  0
   -0.6921    1.1578    0.0000 H   0  0  0  0  0  0  0  0  0  0  0  0
   -0.8713   -1.6657    0.0000 H   0  0  0  0  0  0  0  0  0  0  0  0
    0.0554   -1.1307    0.0000 H   0  0  0  0  0  0  0  0  0  0  0  0
    1.3691    0.5858    0.0000 H   0  0  0  0  0  0  0  0  0  0  0  0
    0.5576   -1.6657    0.0000 H   0  0  0  0  0  0  0  0  0  0  0  0
    1.4842   -1.1307    0.0000 H   0  0  0  0  0  0  0  0  0  0  0  0
    1.2161   -1.7092    0.0000 H   0  0  0  0  0  0  0  0  0  0  0  0
    1.3281    1.3427    0.0000 H   0  0  0  0  0  0  0  0  0  0  0  0
    1.9866    1.2993    0.0000 H   0  0  0  0  0  0  0  0  0  0  0  0
    2.9133    0.7643    0.0000 H   0  0  0  0  0  0  0  0  0  0  0  0
  1  2  2  0  0  0  0
  1  6  1  0  0  0  0
  1 21  1  0  0  0  0
  2  3  1  0  0  0  0
  2 22  1  0  0  0  0
  3  4  2  0  0  0  0
  3 23  1  0  0  0  0
  4  5  1  0  0  0  0
  4 24  1  0  0  0  0
  5  6  2  0  0  0  0
  5 25  1  0  0  0  0
  6  7  1  0  0  0  0
  7  8  1  0  0  0  0
  7 26  1  0  0  0  0
  7 27  1  0  0  0  0
  8  9  1  0  0  0  0
  8 12  1  0  0  0  0
  8 20  1  6  0  0  0
  9 10  2  0  0  0  0
  9 11  1  0  0  0  0
 11 28  1  0  0  0  0
 12 13  1  0  0  0  0
 12 29  1  0  0  0  0
 12 30  1  0  0  0  0
 13 14  1  0  0  0  0
 13 15  1  0  0  0  0
 13 16  1  0  0  0  0
 14 31  1  0  0  0  0
 15 32  1  0  0  0  0
 16 17  1  0  0  0  0
 16 33  1  0  0  0  0
 16 34  1  0  0  0  0
 17 18  2  0  0  0  0
 17 19  1  0  0  0  0
M  CHG  2  17   1  19  -1
M  END
>  <DRUGBANK_ID>
DB07484

>  <COMMON_NAME>
(2R)-4,4-dihydroxy-5-nitro-2-(phenylmethyl)pentanoic acid

$$$$
