IOA
 OpenBabel10282417072D

 34 35  0  0  0  0  0  0  0  0999 V2000
    0.7207   -0.5897    0.0000 C   0  0  0  0  0  0  0  0  0  0  0  0
    1.4352   -1.0022    0.0000 C   0  0  0  0  0  0  0  0  0  0  0  0
    1.4352   -1.8272    0.0000 C   0  0  0  0  0  0  0  0  0  0  0  0
    0.7207   -2.2397    0.0000 C   0  0  0  0  0  0  0  0  0  0  0  0
    0.0063   -1.8272    0.0000 C   0  0  0  0  0  0  0  0  0  0  0  0
    0.0063   -1.0022    0.0000 C   0  0  0  0  0  0  0  0  0  0  0  0
   -0.7082   -0.5897    0.0000 C   0  0  0  0  0  0  0  0  0  0  0  0
   -1.4227   -1.0022    0.0000 O   0  0  0  0  0  0  0  0  0  0  0  0
   -0.7082    0.2353    0.0000 N   0  0  0  0  0  0  0  0  0  0  0  0
   -1.4227    0.6478    0.0000 C   0  0  0  0  0  0  0  0  0  0  0  0
    2.1497   -2.2397    0.0000 S   0  0  0  0  0  0  0  0  0  0  0  0
    2.8641   -2.6522    0.0000 N   0  0  0  0  0  0  0  0  0  0  0  0
    2.5622   -1.5253    0.0000 O   0  0  0  0  0  0  0  0  0  0  0  0
    1.7372   -2.9542    0.0000 O   0  0  0  0  0  0  0  0  0  0  0  0
   -1.4227    1.4728    0.0000 C   0  0  0  0  0  0  0  0  0  0  0  0
   -2.1372    1.8853    0.0000 C   0  0  0  0  0  0  0  0  0  0  0  0
   -2.1372    2.7103    0.0000 C   0  0  0  0  0  0  0  0  0  0  0  0
   -1.4227    3.1228    0.0000 C   0  0  0  0  0  0  0  0  0  0  0  0
   -0.7082    2.7103    0.0000 C   0  0  0  0  0  0  0  0  0  0  0  0
   -0.7082    1.8853    0.0000 C   0  0  0  0  0  0  0  0  0  0  0  0
    0.0063    1.4728    0.0000 F   0  0  0  0  0  0  0  0  0  0  0  0
   -2.8516    3.1228    0.0000 F   0  0  0  0  0  0  0  0  0  0  0  0
    0.7207    0.4423    0.0000 H   0  0  0  0  0  0  0  0  0  0  0  0
    2.3289   -0.4862    0.0000 H   0  0  0  0  0  0  0  0  0  0  0  0
    0.7207   -3.2717    0.0000 H   0  0  0  0  0  0  0  0  0  0  0  0
   -0.8874   -2.3432    0.0000 H   0  0  0  0  0  0  0  0  0  0  0  0
    0.1444    0.7276    0.0000 H   0  0  0  0  0  0  0  0  0  0  0  0
   -2.3493    0.1128    0.0000 H   0  0  0  0  0  0  0  0  0  0  0  0
   -2.3493    1.1828    0.0000 H   0  0  0  0  0  0  0  0  0  0  0  0
    2.8641   -3.6722    0.0000 H   0  0  0  0  0  0  0  0  0  0  0  0
    3.7475   -2.1422    0.0000 H   0  0  0  0  0  0  0  0  0  0  0  0
   -3.0309    1.3693    0.0000 H   0  0  0  0  0  0  0  0  0  0  0  0
   -1.4227    4.1548    0.0000 H   0  0  0  0  0  0  0  0  0  0  0  0
    0.1855    3.2263    0.0000 H   0  0  0  0  0  0  0  0  0  0  0  0
  1  2  2  0  0  0  0
  1  6  1  0  0  0  0
  1 23  1  0  0  0  0
  2  3  1  0  0  0  0
  2 24  1  0  0  0  0
  3  4  2  0  0  0  0
  3 11  1  0  0  0  0
  4  5  1  0  0  0  0
  4 25  1  0  0  0  0
  5  6  2  0  0  0  0
  5 26  1  0  0  0  0
  6  7  1  0  0  0  0
  7  8  2  0  0  0  0
  7  9  1  0  0  0  0
  9 10  1  0  0  0  0
  9 27  1  0  0  0  0
 10 15  1  0  0  0  0
 10 28  1  0  0  0  0
 10 29  1  0  0  0  0
 11 12  1  0  0  0  0
 11 13  2  0  0  0  0
 11 14  2  0  0  0  0
 12 30  1  0  0  0  0
 12 31  1  0  0  0  0
 15 16  2  0  0  0  0
 15 20  1  0  0  0  0
 16 17  1  0  0  0  0
 16 32  1  0  0  0  0
 17 18  2  0  0  0  0
 17 22  1  0  0  0  0
 18 19  1  0  0  0  0
 18 33  1  0  0  0  0
 19 20  2  0  0  0  0
 19 34  1  0  0  0  0
 20 21  1  0  0  0  0
M  END
>  <DRUGBANK_ID>
DB03039

>  <SECONDARY_ACCESSION_NUMBERS>
EXPT01900

>  <COMMON_NAME>
4-(Aminosulfonyl)-N-[(2,5-Difluorophenyl)Methyl]-Benzamide

$$$$
