268
 OpenBabel10282417072D

 43 44  0  0  0  0  0  0  0  0999 V2000
    6.5951   -1.6938    0.0000 O   0  0  0  0  0  0  0  0  0  0  0  0
    3.0791    1.1938    0.0000 N   0  0  0  0  0  0  0  0  0  0  0  0
    5.2886   -2.3577    0.0000 N   0  0  0  0  0  0  0  0  0  0  0  0
    3.0791    0.3688    0.0000 C   0  0  0  0  0  0  0  0  0  0  0  0
    3.7935   -0.0437    0.0000 C   0  0  0  0  0  0  0  0  0  0  0  0
    3.7935   -0.8687    0.0000 C   0  0  0  0  0  0  0  0  0  0  0  0
    3.7935    1.6063    0.0000 C   0  0  0  0  0  0  0  0  0  0  0  0
    2.3645    1.6063    0.0000 C   0  0  0  0  0  0  0  0  0  0  0  0
    4.5080   -1.2813    0.0000 C   0  0  0  0  0  0  0  0  0  0  0  0
    5.2886   -1.0298    0.0000 C   0  0  0  0  0  0  0  0  0  0  0  0
    4.5080   -2.1063    0.0000 C   0  0  0  0  0  0  0  0  0  0  0  0
    3.7935    2.4313    0.0000 C   0  0  0  0  0  0  0  0  0  0  0  0
    2.3645    2.4313    0.0000 C   0  0  0  0  0  0  0  0  0  0  0  0
    3.0791   -1.2813    0.0000 C   0  0  0  0  0  0  0  0  0  0  0  0
    5.7701   -1.6938    0.0000 C   0  0  0  0  0  0  0  0  0  0  0  0
    3.7935   -2.5188    0.0000 C   0  0  0  0  0  0  0  0  0  0  0  0
    3.0791   -2.1063    0.0000 C   0  0  0  0  0  0  0  0  0  0  0  0
    4.5080    2.8438    0.0000 C   0  0  0  0  0  0  0  0  0  0  0  0
    1.6500    2.8438    0.0000 C   0  0  0  0  0  0  0  0  0  0  0  0
    5.5944   -3.2935    0.0000 H   0  0  0  0  0  0  0  0  0  0  0  0
    2.1524   -0.1662    0.0000 H   0  0  0  0  0  0  0  0  0  0  0  0
    3.0791   -0.7012    0.0000 H   0  0  0  0  0  0  0  0  0  0  0  0
    4.7202    0.4913    0.0000 H   0  0  0  0  0  0  0  0  0  0  0  0
    4.7201   -0.5787    0.0000 H   0  0  0  0  0  0  0  0  0  0  0  0
    4.7202    1.0713    0.0000 H   0  0  0  0  0  0  0  0  0  0  0  0
    4.7201    2.1413    0.0000 H   0  0  0  0  0  0  0  0  0  0  0  0
    1.4379    1.0713    0.0000 H   0  0  0  0  0  0  0  0  0  0  0  0
    1.4378    2.1413    0.0000 H   0  0  0  0  0  0  0  0  0  0  0  0
    5.6210   -0.0127    0.0000 H   0  0  0  0  0  0  0  0  0  0  0  0
    6.3456   -0.8638    0.0000 H   0  0  0  0  0  0  0  0  0  0  0  0
    2.8669    2.9663    0.0000 H   0  0  0  0  0  0  0  0  0  0  0  0
    3.7935    3.5013    0.0000 H   0  0  0  0  0  0  0  0  0  0  0  0
    3.2911    2.9663    0.0000 H   0  0  0  0  0  0  0  0  0  0  0  0
    2.3645    3.5013    0.0000 H   0  0  0  0  0  0  0  0  0  0  0  0
    2.1853   -0.7654    0.0000 H   0  0  0  0  0  0  0  0  0  0  0  0
    3.7935   -3.5508    0.0000 H   0  0  0  0  0  0  0  0  0  0  0  0
    2.1854   -2.6223    0.0000 H   0  0  0  0  0  0  0  0  0  0  0  0
    5.4346    2.3088    0.0000 H   0  0  0  0  0  0  0  0  0  0  0  0
    4.5080    3.9138    0.0000 H   0  0  0  0  0  0  0  0  0  0  0  0
    5.4347    3.3788    0.0000 H   0  0  0  0  0  0  0  0  0  0  0  0
    1.6500    3.9138    0.0000 H   0  0  0  0  0  0  0  0  0  0  0  0
    0.7234    2.3088    0.0000 H   0  0  0  0  0  0  0  0  0  0  0  0
    0.7233    3.3788    0.0000 H   0  0  0  0  0  0  0  0  0  0  0  0
  1 15  2  0  0  0  0
  2  4  1  0  0  0  0
  2  7  1  0  0  0  0
  2  8  1  0  0  0  0
  3 11  1  0  0  0  0
  3 15  1  0  0  0  0
  3 20  1  0  0  0  0
  4  5  1  0  0  0  0
  4 21  1  0  0  0  0
  4 22  1  0  0  0  0
  5  6  1  0  0  0  0
  5 23  1  0  0  0  0
  5 24  1  0  0  0  0
  6  9  2  0  0  0  0
  6 14  1  0  0  0  0
  7 12  1  0  0  0  0
  7 25  1  0  0  0  0
  7 26  1  0  0  0  0
  8 13  1  0  0  0  0
  8 27  1  0  0  0  0
  8 28  1  0  0  0  0
  9 10  1  0  0  0  0
  9 11  1  0  0  0  0
 10 15  1  0  0  0  0
 10 29  1  0  0  0  0
 10 30  1  0  0  0  0
 11 16  2  0  0  0  0
 12 18  1  0  0  0  0
 12 31  1  0  0  0  0
 12 32  1  0  0  0  0
 13 19  1  0  0  0  0
 13 33  1  0  0  0  0
 13 34  1  0  0  0  0
 14 17  2  0  0  0  0
 14 35  1  0  0  0  0
 16 17  1  0  0  0  0
 16 36  1  0  0  0  0
 17 37  1  0  0  0  0
 18 38  1  0  0  0  0
 18 39  1  0  0  0  0
 18 40  1  0  0  0  0
 19 41  1  0  0  0  0
 19 42  1  0  0  0  0
 19 43  1  0  0  0  0
M  END
>  <DRUGBANK_ID>
DB00268

>  <SECONDARY_ACCESSION_NUMBERS>
APRD00302

>  <COMMON_NAME>
Ropinirole

>  <CAS_NUMBER>
91374-21-9

>  <UNII>
030PYR8953

>  <SYNONYMS>
Ropinirol; Ropinirole; Ropinirolum

$$$$
