446202
 OpenBabel10282417072D

 61 65  0  0  1  0  0  0  0  0999 V2000
    6.9923    1.3623    0.0000 P   0  0  3  0  0  0  0  0  0  0  0  0
    4.9011   -0.0934    0.0000 O   0  0  0  0  0  0  0  0  0  0  0  0
    2.8073    0.3228    0.0000 O   0  0  0  0  0  0  0  0  0  0  0  0
    3.8648    1.7730    0.0000 O   0  0  0  0  0  0  0  0  0  0  0  0
    6.3240    0.8786    0.0000 O   0  0  0  0  0  0  0  0  0  0  0  0
    7.6606    1.8461    0.0000 O   0  0  0  0  0  0  0  0  0  0  0  0
    7.4761    0.6940    0.0000 O   0  0  0  0  0  0  0  0  0  0  0  0
    6.5085    2.0307    0.0000 O   0  0  0  0  0  0  0  0  0  0  0  0
    8.4985    0.6886    0.0000 O   0  0  0  0  0  0  0  0  0  0  0  0
    3.8598   -1.1312    0.0000 N   0  0  0  0  0  0  0  0  0  0  0  0
    3.8598   -2.4591    0.0000 N   0  0  0  0  0  0  0  0  0  0  0  0
    2.3646   -0.9701    0.0000 N   0  0  0  0  0  0  0  0  0  0  0  0
    1.6501   -2.2076    0.0000 N   0  0  0  0  0  0  0  0  0  0  0  0
    2.3646   -3.4452    0.0000 N   0  0  0  0  0  0  0  0  0  0  0  0
   11.2840    3.2142    0.0000 N   0  0  0  0  0  0  0  0  0  0  0  0
    8.9973    2.8137    0.0000 N   0  0  0  0  0  0  0  0  0  0  0  0
    3.6323    0.3214    0.0000 C   0  0  2  0  0  0  0  0  0  0  0  0
    4.1183    0.9879    0.0000 C   0  0  1  0  0  0  0  0  0  0  0  0
    4.1160   -0.3470    0.0000 C   0  0  1  0  0  0  0  0  0  0  0  0
    4.9025    0.7316    0.0000 C   0  0  1  0  0  0  0  0  0  0  0  0
    5.5709    1.2154    0.0000 C   0  0  0  0  0  0  0  0  0  0  0  0
    3.0790   -1.3826    0.0000 C   0  0  0  0  0  0  0  0  0  0  0  0
    4.3413   -1.7951    0.0000 C   0  0  0  0  0  0  0  0  0  0  0  0
    3.0790   -2.2076    0.0000 C   0  0  0  0  0  0  0  0  0  0  0  0
    2.3646   -2.6201    0.0000 C   0  0  0  0  0  0  0  0  0  0  0  0
    9.8352    1.6562    0.0000 C   0  0  0  0  0  0  0  0  0  0  0  0
    9.0821    1.9930    0.0000 C   0  0  1  0  0  0  0  0  0  0  0  0
   10.5035    2.1400    0.0000 C   0  0  0  0  0  0  0  0  0  0  0  0
    1.6501   -1.3826    0.0000 C   0  0  0  0  0  0  0  0  0  0  0  0
   11.2829    1.8845    0.0000 C   0  0  0  0  0  0  0  0  0  0  0  0
    8.4137    1.5092    0.0000 C   0  0  0  0  0  0  0  0  0  0  0  0
   11.7677    2.5519    0.0000 C   0  0  0  0  0  0  0  0  0  0  0  0
   10.5042    2.9601    0.0000 C   0  0  0  0  0  0  0  0  0  0  0  0
   11.6184    1.1308    0.0000 C   0  0  0  0  0  0  0  0  0  0  0  0
   12.5883    2.4657    0.0000 C   0  0  0  0  0  0  0  0  0  0  0  0
   12.4389    1.0445    0.0000 C   0  0  0  0  0  0  0  0  0  0  0  0
   12.9239    1.7120    0.0000 C   0  0  0  0  0  0  0  0  0  0  0  0
    2.3237    1.1637    0.0000 H   0  0  0  0  0  0  0  0  0  0  0  0
    4.5152    2.4927    0.0000 H   0  0  0  0  0  0  0  0  0  0  0  0
    7.0800   -0.1915    0.0000 H   0  0  0  0  0  0  0  0  0  0  0  0
    1.5120   -3.9375    0.0000 H   0  0  0  0  0  0  0  0  0  0  0  0
    3.2172   -3.9374    0.0000 H   0  0  0  0  0  0  0  0  0  0  0  0
   11.5867    4.1510    0.0000 H   0  0  0  0  0  0  0  0  0  0  0  0
    9.8236    3.4118    0.0000 H   0  0  0  0  0  0  0  0  0  0  0  0
    8.0662    3.2302    0.0000 H   0  0  0  0  0  0  0  0  0  0  0  0
    3.1482    1.2756    0.0000 H   0  0  0  0  0  0  0  0  0  0  0  0
    3.0618    1.1572    0.0000 H   0  0  0  0  0  0  0  0  0  0  0  0
    4.8713   -1.1049    0.0000 H   0  0  0  0  0  0  0  0  0  0  0  0
    5.8550    0.2442    0.0000 H   0  0  0  0  0  0  0  0  0  0  0  0
    5.4609    2.2797    0.0000 H   0  0  0  0  0  0  0  0  0  0  0  0
    4.5942    1.6523    0.0000 H   0  0  0  0  0  0  0  0  0  0  0  0
    5.3733   -1.7951    0.0000 H   0  0  0  0  0  0  0  0  0  0  0  0
    9.9453    0.5919    0.0000 H   0  0  0  0  0  0  0  0  0  0  0  0
   10.8120    1.2193    0.0000 H   0  0  0  0  0  0  0  0  0  0  0  0
    9.9488    2.6204    0.0000 H   0  0  0  0  0  0  0  0  0  0  0  0
    0.7564   -0.8666    0.0000 H   0  0  0  0  0  0  0  0  0  0  0  0
    9.6693    3.5667    0.0000 H   0  0  0  0  0  0  0  0  0  0  0  0
   11.0117    0.2959    0.0000 H   0  0  0  0  0  0  0  0  0  0  0  0
   13.1949    3.3006    0.0000 H   0  0  0  0  0  0  0  0  0  0  0  0
   12.8586    0.1017    0.0000 H   0  0  0  0  0  0  0  0  0  0  0  0
   13.9502    1.6041    0.0000 H   0  0  0  0  0  0  0  0  0  0  0  0
  1  5  1  0  0  0  0
  1  6  1  0  0  0  0
  1  7  1  0  0  0  0
  1  8  2  0  0  0  0
  2 19  1  0  0  0  0
  2 20  1  0  0  0  0
  3 38  1  0  0  0  0
  4 39  1  0  0  0  0
  5 21  1  0  0  0  0
  6 31  1  0  0  0  0
  7 40  1  0  0  0  0
  9 31  2  0  0  0  0
 10 22  1  0  0  0  0
 10 23  1  0  0  0  0
 11 23  2  0  0  0  0
 11 24  1  0  0  0  0
 12 22  2  0  0  0  0
 12 29  1  0  0  0  0
 13 25  1  0  0  0  0
 13 29  2  0  0  0  0
 14 25  1  0  0  0  0
 14 41  1  0  0  0  0
 14 42  1  0  0  0  0
 15 32  1  0  0  0  0
 15 33  1  0  0  0  0
 15 43  1  0  0  0  0
 16 44  1  0  0  0  0
 16 45  1  0  0  0  0
 17  3  1  0  0  0  0
 17 18  1  0  0  0  0
 17 19  1  0  0  0  0
 17 46  1  1  0  0  0
 18  4  1  0  0  0  0
 18 20  1  0  0  0  0
 18 47  1  1  0  0  0
 19 10  1  0  0  0  0
 19 48  1  6  0  0  0
 20 21  1  0  0  0  0
 20 49  1  6  0  0  0
 21 50  1  0  0  0  0
 21 51  1  0  0  0  0
 22 24  1  0  0  0  0
 23 52  1  0  0  0  0
 24 25  2  0  0  0  0
 26 27  1  0  0  0  0
 26 28  1  0  0  0  0
 26 53  1  0  0  0  0
 26 54  1  0  0  0  0
 27 16  1  0  0  0  0
 27 31  1  0  0  0  0
 27 55  1  6  0  0  0
 28 30  1  0  0  0  0
 28 33  2  0  0  0  0
 29 56  1  0  0  0  0
 30 32  1  0  0  0  0
 30 34  2  0  0  0  0
 32 35  2  0  0  0  0
 33 57  1  0  0  0  0
 34 36  1  0  0  0  0
 34 58  1  0  0  0  0
 35 37  1  0  0  0  0
 35 59  1  0  0  0  0
 36 37  2  0  0  0  0
 36 60  1  0  0  0  0
 37 61  1  0  0  0  0
M  END
>  <DRUGBANK_ID>
DB01831

>  <SECONDARY_ACCESSION_NUMBERS>
EXPT03138

>  <COMMON_NAME>
Tryptophanyl-5'amp

$$$$
