
 OpenBabel10282417072D

 53 56  0  0  1  0  0  0  0  0999 V2000
    2.8068   -1.2128    0.0000 S   0  0  0  0  0  0  0  0  0  0  0  0
    9.0059    1.9257    0.0000 O   0  0  0  0  0  0  0  0  0  0  0  0
    3.5197   -1.6281    0.0000 O   0  0  0  0  0  0  0  0  0  0  0  0
    2.0939   -0.7975    0.0000 O   0  0  0  0  0  0  0  0  0  0  0  0
    2.3916   -1.9257    0.0000 O   0  0  0  0  0  0  0  0  0  0  0  0
    3.2221   -0.4999    0.0000 O   0  0  0  0  0  0  0  0  0  0  0  0
    6.5400    0.0651    0.0000 C   0  0  1  0  0  0  0  0  0  0  0  0
    7.2546   -0.3474    0.0000 C   0  0  2  0  0  0  0  0  0  0  0  0
    7.9690    0.0651    0.0000 C   0  0  1  0  0  0  0  0  0  0  0  0
    7.9690    0.8901    0.0000 C   0  0  2  0  0  0  0  0  0  0  0  0
    5.7893   -0.3530    0.0000 C   0  0  2  0  0  0  0  0  0  0  0  0
    6.5400    0.8901    0.0000 C   0  0  0  0  0  0  0  0  0  0  0  0
    7.2546    1.3026    0.0000 C   0  0  0  0  0  0  0  0  0  0  0  0
    8.7496   -0.1863    0.0000 C   0  0  0  0  0  0  0  0  0  0  0  0
    7.2678   -1.2066    0.0000 C   0  0  0  0  0  0  0  0  0  0  0  0
    5.7827   -1.2123    0.0000 C   0  0  0  0  0  0  0  0  0  0  0  0
    5.0247    0.1124    0.0000 C   0  0  0  0  0  0  0  0  0  0  0  0
    8.7496    1.1416    0.0000 C   0  0  0  0  0  0  0  0  0  0  0  0
    9.2311    0.4776    0.0000 C   0  0  0  0  0  0  0  0  0  0  0  0
    6.5269   -1.6420    0.0000 C   0  0  0  0  0  0  0  0  0  0  0  0
    7.9690    1.7151    0.0000 C   0  0  0  0  0  0  0  0  0  0  0  0
    5.7957    0.4719    0.0000 C   0  0  0  0  0  0  0  0  0  0  0  0
    5.0110   -1.6659    0.0000 C   0  0  0  0  0  0  0  0  0  0  0  0
    4.2426   -0.3232    0.0000 C   0  0  0  0  0  0  0  0  0  0  0  0
    4.2358   -1.2184    0.0000 C   0  0  2  0  0  0  0  0  0  0  0  0
    7.1117    0.3951    0.0000 H   0  0  0  0  0  0  0  0  0  0  0  0
    7.8287   -0.6730    0.0000 H   0  0  0  0  0  0  0  0  0  0  0  0
    8.0389   -0.5912    0.0000 H   0  0  0  0  0  0  0  0  0  0  0  0
    2.0977    0.1725    0.0000 H   0  0  0  0  0  0  0  0  0  0  0  0
    5.6134    1.4251    0.0000 H   0  0  0  0  0  0  0  0  0  0  0  0
    6.5401    1.9601    0.0000 H   0  0  0  0  0  0  0  0  0  0  0  0
    7.2547    2.3726    0.0000 H   0  0  0  0  0  0  0  0  0  0  0  0
    6.3280    1.8377    0.0000 H   0  0  0  0  0  0  0  0  0  0  0  0
    9.0820   -1.2034    0.0000 H   0  0  0  0  0  0  0  0  0  0  0  0
    9.8066   -0.3523    0.0000 H   0  0  0  0  0  0  0  0  0  0  0  0
    8.2006   -1.7309    0.0000 H   0  0  0  0  0  0  0  0  0  0  0  0
    7.2781   -2.2766    0.0000 H   0  0  0  0  0  0  0  0  0  0  0  0
    5.0454    1.1822    0.0000 H   0  0  0  0  0  0  0  0  0  0  0  0
    4.1075    0.6634    0.0000 H   0  0  0  0  0  0  0  0  0  0  0  0
   10.3011    0.4776    0.0000 H   0  0  0  0  0  0  0  0  0  0  0  0
    9.7173    1.4307    0.0000 H   0  0  0  0  0  0  0  0  0  0  0  0
    6.5309   -2.6740    0.0000 H   0  0  0  0  0  0  0  0  0  0  0  0
    8.8956    2.2501    0.0000 H   0  0  0  0  0  0  0  0  0  0  0  0
    7.0424    2.2501    0.0000 H   0  0  0  0  0  0  0  0  0  0  0  0
    7.9690    2.7851    0.0000 H   0  0  0  0  0  0  0  0  0  0  0  0
    6.7265    0.9997    0.0000 H   0  0  0  0  0  0  0  0  0  0  0  0
    4.8732    1.0141    0.0000 H   0  0  0  0  0  0  0  0  0  0  0  0
    5.8040    1.5419    0.0000 H   0  0  0  0  0  0  0  0  0  0  0  0
    5.0152   -2.7359    0.0000 H   0  0  0  0  0  0  0  0  0  0  0  0
    4.0854   -2.2027    0.0000 H   0  0  0  0  0  0  0  0  0  0  0  0
    3.3222    0.2224    0.0000 H   0  0  0  0  0  0  0  0  0  0  0  0
    3.3109   -0.8493    0.0000 H   0  0  0  0  0  0  0  0  0  0  0  0
    4.2337   -2.2884    0.0000 H   0  0  0  0  0  0  0  0  0  0  0  0
  1  3  1  0  0  0  0
  1  4  1  0  0  0  0
  1  5  2  0  0  0  0
  1  6  2  0  0  0  0
  2 18  2  0  0  0  0
  4 29  1  0  0  0  0
  7  8  1  0  0  0  0
  7 11  1  0  0  0  0
  7 12  1  0  0  0  0
  7 26  1  6  0  0  0
  8  9  1  0  0  0  0
  8 15  1  0  0  0  0
  8 27  1  1  0  0  0
  9 10  1  0  0  0  0
  9 14  1  0  0  0  0
  9 28  1  6  0  0  0
 10 13  1  0  0  0  0
 10 18  1  0  0  0  0
 10 21  1  1  0  0  0
 11 16  1  0  0  0  0
 11 17  1  0  0  0  0
 11 22  1  1  0  0  0
 12 13  1  0  0  0  0
 12 30  1  0  0  0  0
 12 31  1  0  0  0  0
 13 32  1  0  0  0  0
 13 33  1  0  0  0  0
 14 19  1  0  0  0  0
 14 34  1  0  0  0  0
 14 35  1  0  0  0  0
 15 20  1  0  0  0  0
 15 36  1  0  0  0  0
 15 37  1  0  0  0  0
 16 20  2  0  0  0  0
 16 23  1  0  0  0  0
 17 24  1  0  0  0  0
 17 38  1  0  0  0  0
 17 39  1  0  0  0  0
 18 19  1  0  0  0  0
 19 40  1  0  0  0  0
 19 41  1  0  0  0  0
 20 42  1  0  0  0  0
 21 43  1  0  0  0  0
 21 44  1  0  0  0  0
 21 45  1  0  0  0  0
 22 46  1  0  0  0  0
 22 47  1  0  0  0  0
 22 48  1  0  0  0  0
 23 25  1  0  0  0  0
 23 49  1  0  0  0  0
 23 50  1  0  0  0  0
 24 25  1  0  0  0  0
 24 51  1  0  0  0  0
 24 52  1  0  0  0  0
 25  3  1  0  0  0  0
 25 53  1  6  0  0  0
M  END
>  <DRUGBANK_ID>
DB05804

>  <COMMON_NAME>
Prasterone sulfate

>  <CAS_NUMBER>
651-48-9

>  <UNII>
57B09Q7FJR

>  <SYNONYMS>
(3-beta)-3-(Sulfooxy)androst-5-en-17-one; 17-Ketoandrost-5-en-3beta-yl sulfate; 17-oxoandrost-5-en-3Î²-yl hydrogen sulphate; 3-O-Sulfodehydroepiandrosterone; 3beta-Hydroxyandrost-5-en-17-one 3-sulfate; Androst-5-en-17-on-3beta-yl sulfuric acid; Dehydroepiandrosterone 3-sulfate; Dehydroepiandrosterone monosulfate; Dehydroepiandrosterone sulfate; Dehydroepiandrosterone sulphate; Dehydroisoandrosterone sulfate; Dehydroisoandrosterone-3-sulfate; DHEA sulfate; DHEA sulphate; DHEA-S; Prasterone sulphate

$$$$
