
 OpenBabel10282417072D

 68 71  0  0  1  0  0  0  0  0999 V2000
    7.0058   -2.0326    0.0000 C   0  0  0  0  0  0  0  0  0  0  0  0
    7.0058   -2.8576    0.0000 C   0  0  1  0  0  0  0  0  0  0  0  0
    6.2913   -3.2701    0.0000 C   0  0  0  0  0  0  0  0  0  0  0  0
    6.2913   -4.0951    0.0000 O   0  0  0  0  0  0  0  0  0  0  0  0
    5.5769   -2.8576    0.0000 N   0  0  0  0  0  0  0  0  0  0  0  0
    4.8624   -3.2701    0.0000 C   0  0  1  0  0  0  0  0  0  0  0  0
    4.8624   -4.0951    0.0000 C   0  0  0  0  0  0  0  0  0  0  0  0
    5.5769   -4.5076    0.0000 C   0  0  0  0  0  0  0  0  0  0  0  0
    5.5769   -5.3326    0.0000 C   0  0  0  0  0  0  0  0  0  0  0  0
    4.8624   -5.7451    0.0000 C   0  0  0  0  0  0  0  0  0  0  0  0
    4.1479   -5.3326    0.0000 C   0  0  0  0  0  0  0  0  0  0  0  0
    4.1479   -4.5076    0.0000 C   0  0  0  0  0  0  0  0  0  0  0  0
    4.1479   -2.8576    0.0000 C   0  0  0  0  0  0  0  0  0  0  0  0
    4.1479   -2.0326    0.0000 O   0  0  0  0  0  0  0  0  0  0  0  0
    3.4335   -3.2701    0.0000 N   0  0  0  0  0  0  0  0  0  0  0  0
    3.3472   -4.0906    0.0000 C   0  0  0  0  0  0  0  0  0  0  0  0
    2.5402   -4.2621    0.0000 C   0  0  0  0  0  0  0  0  0  0  0  0
    2.1277   -3.5477    0.0000 C   0  0  0  0  0  0  0  0  0  0  0  0
    2.6798   -2.9346    0.0000 C   0  0  1  0  0  0  0  0  0  0  0  0
    2.5083   -2.1276    0.0000 C   0  0  0  0  0  0  0  0  0  0  0  0
    1.7546   -1.7920    0.0000 N   0  0  0  0  0  0  0  0  0  0  0  0
    1.8408   -0.9715    0.0000 C   0  0  0  0  0  0  0  0  0  0  0  0
    2.6478   -0.8000    0.0000 C   0  0  0  0  0  0  0  0  0  0  0  0
    3.0603   -1.5145    0.0000 S   0  0  0  0  0  0  0  0  0  0  0  0
    1.2277   -0.4195    0.0000 C   0  0  0  0  0  0  0  0  0  0  0  0
    0.4431   -0.6745    0.0000 O   0  0  0  0  0  0  0  0  0  0  0  0
    1.3992    0.3875    0.0000 C   0  0  0  0  0  0  0  0  0  0  0  0
    0.7862    0.9395    0.0000 C   0  0  0  0  0  0  0  0  0  0  0  0
    0.9577    1.7465    0.0000 C   0  0  0  0  0  0  0  0  0  0  0  0
    1.7423    2.0014    0.0000 C   0  0  0  0  0  0  0  0  0  0  0  0
    2.3554    1.4494    0.0000 C   0  0  0  0  0  0  0  0  0  0  0  0
    2.1839    0.6424    0.0000 C   0  0  0  0  0  0  0  0  0  0  0  0
    1.9138    2.8084    0.0000 F   0  0  0  0  0  0  0  0  0  0  0  0
    7.7203   -3.2701    0.0000 N   0  0  0  0  0  0  0  0  0  0  0  0
    8.4348   -2.8576    0.0000 C   0  0  0  0  0  0  0  0  0  0  0  0
    7.9324   -1.4976    0.0000 H   0  0  0  0  0  0  0  0  0  0  0  0
    6.0792   -1.4976    0.0000 H   0  0  0  0  0  0  0  0  0  0  0  0
    7.0058   -0.9626    0.0000 H   0  0  0  0  0  0  0  0  0  0  0  0
    6.0792   -2.3226    0.0000 H   0  0  0  0  0  0  0  0  0  0  0  0
    5.5769   -1.8731    0.0000 H   0  0  0  0  0  0  0  0  0  0  0  0
    5.7890   -3.8051    0.0000 H   0  0  0  0  0  0  0  0  0  0  0  0
    4.8624   -5.1651    0.0000 H   0  0  0  0  0  0  0  0  0  0  0  0
    6.5035   -3.9726    0.0000 H   0  0  0  0  0  0  0  0  0  0  0  0
    6.5035   -5.0426    0.0000 H   0  0  0  0  0  0  0  0  0  0  0  0
    6.5035   -5.8676    0.0000 H   0  0  0  0  0  0  0  0  0  0  0  0
    5.5769   -6.4026    0.0000 H   0  0  0  0  0  0  0  0  0  0  0  0
    4.8624   -6.8151    0.0000 H   0  0  0  0  0  0  0  0  0  0  0  0
    3.9358   -6.2801    0.0000 H   0  0  0  0  0  0  0  0  0  0  0  0
    3.2213   -5.8676    0.0000 H   0  0  0  0  0  0  0  0  0  0  0  0
    3.2213   -4.7976    0.0000 H   0  0  0  0  0  0  0  0  0  0  0  0
    3.2213   -3.9726    0.0000 H   0  0  0  0  0  0  0  0  0  0  0  0
    4.1479   -3.4376    0.0000 H   0  0  0  0  0  0  0  0  0  0  0  0
    4.1423   -4.8066    0.0000 H   0  0  0  0  0  0  0  0  0  0  0  0
    3.0702   -5.1241    0.0000 H   0  0  0  0  0  0  0  0  0  0  0  0
    2.1050   -5.2396    0.0000 H   0  0  0  0  0  0  0  0  0  0  0  0
    1.4717   -4.3181    0.0000 H   0  0  0  0  0  0  0  0  0  0  0  0
    1.0636   -3.4358    0.0000 H   0  0  0  0  0  0  0  0  0  0  0  0
    1.7443   -2.5488    0.0000 H   0  0  0  0  0  0  0  0  0  0  0  0
    1.6463   -2.6576    0.0000 H   0  0  0  0  0  0  0  0  0  0  0  0
    3.0676    0.1428    0.0000 H   0  0  0  0  0  0  0  0  0  0  0  0
   -0.1953    0.6206    0.0000 H   0  0  0  0  0  0  0  0  0  0  0  0
    0.1908    2.4370    0.0000 H   0  0  0  0  0  0  0  0  0  0  0  0
    3.3369    1.7683    0.0000 H   0  0  0  0  0  0  0  0  0  0  0  0
    2.9508   -0.0482    0.0000 H   0  0  0  0  0  0  0  0  0  0  0  0
    7.7203   -4.2901    0.0000 H   0  0  0  0  0  0  0  0  0  0  0  0
    9.3614   -3.3926    0.0000 H   0  0  0  0  0  0  0  0  0  0  0  0
    8.4348   -1.7876    0.0000 H   0  0  0  0  0  0  0  0  0  0  0  0
    9.3615   -2.3226    0.0000 H   0  0  0  0  0  0  0  0  0  0  0  0
  1 36  1  0  0  0  0
  1 37  1  0  0  0  0
  1 38  1  0  0  0  0
  2  1  1  0  0  0  0
  2  3  1  0  0  0  0
  2 34  1  0  0  0  0
  2 39  1  1  0  0  0
  3  4  2  0  0  0  0
  3  5  1  0  0  0  0
  5 40  1  0  0  0  0
  6  5  1  0  0  0  0
  6  7  1  0  0  0  0
  6 13  1  0  0  0  0
  6 41  1  6  0  0  0
  7  8  1  0  0  0  0
  7 12  1  0  0  0  0
  7 42  1  0  0  0  0
  8  9  1  0  0  0  0
  8 43  1  0  0  0  0
  8 44  1  0  0  0  0
  9 10  1  0  0  0  0
  9 45  1  0  0  0  0
  9 46  1  0  0  0  0
 10 11  1  0  0  0  0
 10 47  1  0  0  0  0
 10 48  1  0  0  0  0
 11 12  1  0  0  0  0
 11 49  1  0  0  0  0
 11 50  1  0  0  0  0
 12 51  1  0  0  0  0
 12 52  1  0  0  0  0
 13 14  2  0  0  0  0
 13 15  1  0  0  0  0
 15 16  1  0  0  0  0
 15 19  1  0  0  0  0
 16 17  1  0  0  0  0
 16 53  1  0  0  0  0
 16 54  1  0  0  0  0
 17 18  1  0  0  0  0
 17 55  1  0  0  0  0
 17 56  1  0  0  0  0
 18 19  1  0  0  0  0
 18 57  1  0  0  0  0
 18 58  1  0  0  0  0
 19 20  1  0  0  0  0
 19 59  1  6  0  0  0
 20 21  2  0  0  0  0
 20 24  1  0  0  0  0
 21 22  1  0  0  0  0
 22 23  2  0  0  0  0
 22 25  1  0  0  0  0
 23 24  1  0  0  0  0
 23 60  1  0  0  0  0
 25 26  2  0  0  0  0
 25 27  1  0  0  0  0
 27 28  2  0  0  0  0
 27 32  1  0  0  0  0
 28 29  1  0  0  0  0
 28 61  1  0  0  0  0
 29 30  2  0  0  0  0
 29 62  1  0  0  0  0
 30 31  1  0  0  0  0
 30 33  1  0  0  0  0
 31 32  2  0  0  0  0
 31 63  1  0  0  0  0
 32 64  1  0  0  0  0
 34 35  1  0  0  0  0
 34 65  1  0  0  0  0
 35 66  1  0  0  0  0
 35 67  1  0  0  0  0
 35 68  1  0  0  0  0
M  END
>  <DRUGBANK_ID>
DB12085

>  <COMMON_NAME>
LCL-161

>  <CAS_NUMBER>
1005342-46-0

>  <UNII>
6TNS415Y3P

>  <SYNONYMS>
(2S)-N-[(1S)-1-cyclohexyl-2-[(2S)-2-[4-(4-fluorobenzoyl)-1,3-thiazol-2-yl]pyrrolidin-1-yl]-2-oxoethyl]-2-(methylamino)propanamide

$$$$
