SC9
 OpenBabel10282417072D

 38 41  0  0  0  0  0  0  0  0999 V2000
   -1.6218    1.4825    0.0000 C   0  0  0  0  0  0  0  0  0  0  0  0
   -0.8372    1.2276    0.0000 N   0  0  0  0  0  0  0  0  0  0  0  0
   -0.8372    0.4026    0.0000 C   0  0  0  0  0  0  0  0  0  0  0  0
   -1.6218    0.1477    0.0000 N   0  0  0  0  0  0  0  0  0  0  0  0
   -2.1067    0.8151    0.0000 C   0  0  0  0  0  0  0  0  0  0  0  0
   -0.1227    1.6401    0.0000 C   0  0  0  0  0  0  0  0  0  0  0  0
    0.5918    1.2276    0.0000 C   0  0  0  0  0  0  0  0  0  0  0  0
    0.5918    0.4026    0.0000 N   0  0  0  0  0  0  0  0  0  0  0  0
   -0.1227   -0.0099    0.0000 C   0  0  0  0  0  0  0  0  0  0  0  0
   -0.1227   -0.8349    0.0000 N   0  0  0  0  0  0  0  0  0  0  0  0
   -0.8372   -1.2474    0.0000 C   0  0  0  0  0  0  0  0  0  0  0  0
   -0.8372   -2.0724    0.0000 C   0  0  0  0  0  0  0  0  0  0  0  0
   -1.5516   -2.4849    0.0000 C   0  0  0  0  0  0  0  0  0  0  0  0
   -1.5516   -3.3099    0.0000 C   0  0  0  0  0  0  0  0  0  0  0  0
   -0.8372   -3.7224    0.0000 C   0  0  0  0  0  0  0  0  0  0  0  0
   -0.1227   -3.3099    0.0000 N   0  0  0  0  0  0  0  0  0  0  0  0
   -0.1227   -2.4849    0.0000 C   0  0  0  0  0  0  0  0  0  0  0  0
    1.3063    1.6401    0.0000 C   0  0  0  0  0  0  0  0  0  0  0  0
    2.0207    1.2276    0.0000 C   0  0  0  0  0  0  0  0  0  0  0  0
    2.7352    1.6401    0.0000 C   0  0  0  0  0  0  0  0  0  0  0  0
    2.7352    2.4651    0.0000 C   0  0  0  0  0  0  0  0  0  0  0  0
    2.0207    2.8776    0.0000 C   0  0  0  0  0  0  0  0  0  0  0  0
    1.3063    2.4651    0.0000 C   0  0  0  0  0  0  0  0  0  0  0  0
    2.0207    0.4026    0.0000 F   0  0  0  0  0  0  0  0  0  0  0  0
   -1.9407    2.4640    0.0000 H   0  0  0  0  0  0  0  0  0  0  0  0
   -3.1387    0.8151    0.0000 H   0  0  0  0  0  0  0  0  0  0  0  0
   -0.1227    2.6721    0.0000 H   0  0  0  0  0  0  0  0  0  0  0  0
    0.7299   -1.3272    0.0000 H   0  0  0  0  0  0  0  0  0  0  0  0
   -1.7638   -0.7124    0.0000 H   0  0  0  0  0  0  0  0  0  0  0  0
   -1.7638   -1.7824    0.0000 H   0  0  0  0  0  0  0  0  0  0  0  0
   -2.4453   -1.9689    0.0000 H   0  0  0  0  0  0  0  0  0  0  0  0
   -2.4453   -3.8259    0.0000 H   0  0  0  0  0  0  0  0  0  0  0  0
   -0.8372   -4.7544    0.0000 H   0  0  0  0  0  0  0  0  0  0  0  0
    0.7710   -1.9689    0.0000 H   0  0  0  0  0  0  0  0  0  0  0  0
    3.6289    1.1241    0.0000 H   0  0  0  0  0  0  0  0  0  0  0  0
    3.6289    2.9811    0.0000 H   0  0  0  0  0  0  0  0  0  0  0  0
    2.0207    3.9096    0.0000 H   0  0  0  0  0  0  0  0  0  0  0  0
    0.4126    2.9811    0.0000 H   0  0  0  0  0  0  0  0  0  0  0  0
  1  5  2  0  0  0  0
  1  2  1  0  0  0  0
  1 25  1  0  0  0  0
  2  6  1  0  0  0  0
  2  3  1  0  0  0  0
  3  9  1  0  0  0  0
  4  3  2  0  0  0  0
  5  4  1  0  0  0  0
  5 26  1  0  0  0  0
  6  7  2  0  0  0  0
  6 27  1  0  0  0  0
  7 18  1  0  0  0  0
  7  8  1  0  0  0  0
  9  8  2  0  0  0  0
  9 10  1  0  0  0  0
 10 11  1  0  0  0  0
 10 28  1  0  0  0  0
 11 29  1  0  0  0  0
 11 30  1  0  0  0  0
 12 11  1  0  0  0  0
 13 12  2  0  0  0  0
 13 31  1  0  0  0  0
 14 13  1  0  0  0  0
 14 32  1  0  0  0  0
 15 14  2  0  0  0  0
 15 16  1  0  0  0  0
 15 33  1  0  0  0  0
 16 17  2  0  0  0  0
 17 12  1  0  0  0  0
 17 34  1  0  0  0  0
 18 23  2  0  0  0  0
 19 20  2  0  0  0  0
 19 18  1  0  0  0  0
 20 21  1  0  0  0  0
 20 35  1  0  0  0  0
 21 22  2  0  0  0  0
 21 36  1  0  0  0  0
 22 37  1  0  0  0  0
 23 22  1  0  0  0  0
 23 38  1  0  0  0  0
 24 19  1  0  0  0  0
M  END
>  <DRUGBANK_ID>
DB08532

>  <COMMON_NAME>
6-(2-fluorophenyl)-N-(pyridin-3-ylmethyl)imidazo[1,2-a]pyrazin-8-amine

$$$$
