19529
 OpenBabel10282417072D

 32 33  0  0  0  0  0  0  0  0999 V2000
    4.5079    3.7285    0.0000 Cl  0  0  0  0  0  0  0  0  0  0  0  0
    3.0789    3.7285    0.0000 Cl  0  0  0  0  0  0  0  0  0  0  0  0
    3.0789   -1.2215    0.0000 O   0  0  0  0  0  0  0  0  0  0  0  0
    1.6970   -2.9439    0.0000 O   0  0  0  0  0  0  0  0  0  0  0  0
    4.5079    2.0785    0.0000 O   0  0  0  0  0  0  0  0  0  0  0  0
    1.6500   -1.2215    0.0000 O   0  0  0  0  0  0  0  0  0  0  0  0
    3.0789    2.0785    0.0000 N   0  0  0  0  0  0  0  0  0  0  0  0
    3.0789    1.2535    0.0000 C   0  0  0  0  0  0  0  0  0  0  0  0
    3.7935    0.8410    0.0000 C   0  0  0  0  0  0  0  0  0  0  0  0
    2.3645    0.8410    0.0000 C   0  0  0  0  0  0  0  0  0  0  0  0
    3.0789   -0.3965    0.0000 C   0  0  0  0  0  0  0  0  0  0  0  0
    3.7935    0.0160    0.0000 C   0  0  0  0  0  0  0  0  0  0  0  0
    2.3645    0.0160    0.0000 C   0  0  0  0  0  0  0  0  0  0  0  0
    2.3645    2.4910    0.0000 C   0  0  0  0  0  0  0  0  0  0  0  0
    3.7935    2.4910    0.0000 C   0  0  0  0  0  0  0  0  0  0  0  0
    3.7935    3.3160    0.0000 C   0  0  0  0  0  0  0  0  0  0  0  0
    2.3645   -2.4590    0.0000 C   0  0  0  0  0  0  0  0  0  0  0  0
    2.3645   -1.6340    0.0000 C   0  0  0  0  0  0  0  0  0  0  0  0
    3.0319   -2.9439    0.0000 C   0  0  0  0  0  0  0  0  0  0  0  0
    2.7770   -3.7285    0.0000 C   0  0  0  0  0  0  0  0  0  0  0  0
    1.9520   -3.7285    0.0000 C   0  0  0  0  0  0  0  0  0  0  0  0
    4.6872    1.3570    0.0000 H   0  0  0  0  0  0  0  0  0  0  0  0
    1.4708    1.3570    0.0000 H   0  0  0  0  0  0  0  0  0  0  0  0
    4.6872   -0.5000    0.0000 H   0  0  0  0  0  0  0  0  0  0  0  0
    1.4708   -0.5000    0.0000 H   0  0  0  0  0  0  0  0  0  0  0  0
    2.3645    3.5610    0.0000 H   0  0  0  0  0  0  0  0  0  0  0  0
    1.4378    1.9560    0.0000 H   0  0  0  0  0  0  0  0  0  0  0  0
    1.4379    3.0260    0.0000 H   0  0  0  0  0  0  0  0  0  0  0  0
    2.8669    2.7810    0.0000 H   0  0  0  0  0  0  0  0  0  0  0  0
    4.0134   -2.6250    0.0000 H   0  0  0  0  0  0  0  0  0  0  0  0
    3.3836   -4.5634    0.0000 H   0  0  0  0  0  0  0  0  0  0  0  0
    1.3454   -4.5634    0.0000 H   0  0  0  0  0  0  0  0  0  0  0  0
  1 16  1  0  0  0  0
  2 16  1  0  0  0  0
  3 11  1  0  0  0  0
  3 18  1  0  0  0  0
  4 17  1  0  0  0  0
  4 21  1  0  0  0  0
  5 15  2  0  0  0  0
  6 18  2  0  0  0  0
  7  8  1  0  0  0  0
  7 14  1  0  0  0  0
  7 15  1  0  0  0  0
  8  9  2  0  0  0  0
  8 10  1  0  0  0  0
  9 12  1  0  0  0  0
  9 22  1  0  0  0  0
 10 13  2  0  0  0  0
 10 23  1  0  0  0  0
 11 12  2  0  0  0  0
 11 13  1  0  0  0  0
 12 24  1  0  0  0  0
 13 25  1  0  0  0  0
 14 26  1  0  0  0  0
 14 27  1  0  0  0  0
 14 28  1  0  0  0  0
 15 16  1  0  0  0  0
 16 29  1  0  0  0  0
 17 18  1  0  0  0  0
 17 19  2  0  0  0  0
 19 20  1  0  0  0  0
 19 30  1  0  0  0  0
 20 21  2  0  0  0  0
 20 31  1  0  0  0  0
 21 32  1  0  0  0  0
M  END
>  <DRUGBANK_ID>
DB14638

>  <SECONDARY_ACCESSION_NUMBERS>
DBSALT001813

>  <COMMON_NAME>
Diloxanide furoate

>  <CAS_NUMBER>
3736-81-0

>  <UNII>
YP4N72IW34

>  <SYNONYMS>
2,2-dichloroacetamido-4-n-methylphenyl 2-furoate; 4-(n-methyl-2,2-dichloroacetamido)phenyl 2-furoate; Dichlofurazol; Diloxanide furoate; Diloxanidi furoas

$$$$
