
 OpenBabel10282417072D

200205  0  0  1  0  0  0  0  0999 V2000
    9.1051   -3.5891    0.0000 C   0  0  0  0  0  0  0  0  0  0  0  0
    9.5176   -4.3035    0.0000 N   0  0  0  0  0  0  0  0  0  0  0  0
    9.5176   -5.1286    0.0000 C   0  0  2  0  0  0  0  0  0  0  0  0
    9.6892   -5.9355    0.0000 C   0  0  0  0  0  0  0  0  0  0  0  0
   10.5096   -6.0218    0.0000 C   0  0  0  0  0  0  0  0  0  0  0  0
   10.9946   -6.6893    0.0000 C   0  0  0  0  0  0  0  0  0  0  0  0
   11.8150   -6.6030    0.0000 C   0  0  1  0  0  0  0  0  0  0  0  0
   12.1506   -5.8493    0.0000 H   0  0  0  0  0  0  0  0  0  0  0  0
   12.3000   -7.2705    0.0000 C   0  0  1  0  0  0  0  0  0  0  0  0
   13.1205   -7.1842    0.0000 C   0  0  2  0  0  0  0  0  0  0  0  0
   13.7335   -7.7364    0.0000 C   0  0  0  0  0  0  0  0  0  0  0  0
   13.6473   -8.5567    0.0000 O   0  0  0  0  0  0  0  0  0  0  0  0
   14.4481   -7.3237    0.0000 C   0  0  0  0  0  0  0  0  0  0  0  0
   15.2327   -7.0689    0.0000 C   0  0  0  0  0  0  0  0  0  0  0  0
   14.7836   -8.0774    0.0000 C   0  0  0  0  0  0  0  0  0  0  0  0
   14.2765   -6.5168    0.0000 C   0  0  1  0  0  0  0  0  0  0  0  0
   14.8285   -5.9037    0.0000 O   0  0  0  0  0  0  0  0  0  0  0  0
   13.4561   -6.4306    0.0000 C   0  0  0  0  0  0  0  0  0  0  0  0
   12.9712   -5.7630    0.0000 C   0  0  0  0  0  0  0  0  0  0  0  0
   13.3067   -5.0094    0.0000 O   0  0  0  0  0  0  0  0  0  0  0  0
   12.1506   -5.8493    0.0000 O   0  0  0  0  0  0  0  0  0  0  0  0
   11.6657   -5.1818    0.0000 C   0  0  2  0  0  0  0  0  0  0  0  0
   12.0013   -4.4282    0.0000 C   0  0  0  0  0  0  0  0  0  0  0  0
   12.8218   -4.3420    0.0000 C   0  0  0  0  0  0  0  0  0  0  0  0
   11.5163   -3.7607    0.0000 C   0  0  0  0  0  0  0  0  0  0  0  0
   11.8519   -3.0070    0.0000 C   0  0  0  0  0  0  0  0  0  0  0  0
   11.4394   -2.2926    0.0000 C   0  0  0  0  0  0  0  0  0  0  0  0
   11.9915   -1.6794    0.0000 S   0  0  0  0  0  0  0  0  0  0  0  0
   12.7451   -2.0150    0.0000 C   0  0  0  0  0  0  0  0  0  0  0  0
   13.4597   -1.6025    0.0000 C   0  0  0  0  0  0  0  0  0  0  0  0
   12.6589   -2.8356    0.0000 N   0  0  0  0  0  0  0  0  0  0  0  0
   10.8452   -5.2681    0.0000 C   0  0  0  0  0  0  0  0  0  0  0  0
   10.2321   -4.7161    0.0000 C   0  0  2  0  0  0  0  0  0  0  0  0
   13.3755   -6.3996    0.0000 C   0  0  0  0  0  0  0  0  0  0  0  0
   11.9644   -8.0241    0.0000 O   0  0  0  0  0  0  0  0  0  0  0  0
   11.4795   -7.3568    0.0000 C   0  0  0  0  0  0  0  0  0  0  0  0
    8.2801   -3.5891    0.0000 C   0  0  0  0  0  0  0  0  0  0  0  0
    7.8676   -2.8747    0.0000 O   0  0  0  0  0  0  0  0  0  0  0  0
    7.0426   -2.8747    0.0000 C   0  0  0  0  0  0  0  0  0  0  0  0
    6.6301   -3.5891    0.0000 O   0  0  0  0  0  0  0  0  0  0  0  0
    6.6301   -2.1601    0.0000 O   0  0  0  0  0  0  0  0  0  0  0  0
    5.8051   -2.1601    0.0000 C   0  0  0  0  0  0  0  0  0  0  0  0
    5.3925   -1.4456    0.0000 C   0  0  0  0  0  0  0  0  0  0  0  0
    4.5676   -1.4456    0.0000 S   0  0  0  0  0  0  0  0  0  0  0  0
    4.1551   -0.7313    0.0000 S   0  0  0  0  0  0  0  0  0  0  0  0
    3.3300   -0.7313    0.0000 C   0  0  0  0  0  0  0  0  0  0  0  0
    2.9175   -0.0167    0.0000 C   0  0  1  0  0  0  0  0  0  0  0  0
    3.3300    0.6977    0.0000 C   0  0  0  0  0  0  0  0  0  0  0  0
    4.1551    0.6977    0.0000 O   0  0  0  0  0  0  0  0  0  0  0  0
    2.9175    1.4122    0.0000 O   0  0  0  0  0  0  0  0  0  0  0  0
    2.0925   -0.0167    0.0000 N   0  0  0  0  0  0  0  0  0  0  0  0
    1.6801    0.6977    0.0000 C   0  0  0  0  0  0  0  0  0  0  0  0
    2.0925    1.4122    0.0000 O   0  0  0  0  0  0  0  0  0  0  0  0
    0.8550    0.6977    0.0000 C   0  0  2  0  0  0  0  0  0  0  0  0
    0.4425   -0.0167    0.0000 C   0  0  0  0  0  0  0  0  0  0  0  0
    0.8550   -0.7313    0.0000 C   0  0  0  0  0  0  0  0  0  0  0  0
    0.4425   -1.4456    0.0000 O   0  0  0  0  0  0  0  0  0  0  0  0
    1.6801   -0.7313    0.0000 O   0  0  0  0  0  0  0  0  0  0  0  0
    0.4425    1.4122    0.0000 N   0  0  0  0  0  0  0  0  0  0  0  0
   -0.3824    1.4122    0.0000 C   0  0  0  0  0  0  0  0  0  0  0  0
   -0.7949    0.6977    0.0000 O   0  0  0  0  0  0  0  0  0  0  0  0
   -0.7949    2.1266    0.0000 C   0  0  2  0  0  0  0  0  0  0  0  0
   -0.3824    2.8411    0.0000 C   0  0  0  0  0  0  0  0  0  0  0  0
   -0.9127    3.4731    0.0000 C   0  0  0  0  0  0  0  0  0  0  0  0
   -0.6305    4.2484    0.0000 C   0  0  0  0  0  0  0  0  0  0  0  0
   -1.2626    4.7786    0.0000 N   0  0  0  0  0  0  0  0  0  0  0  0
   -2.0379    4.4965    0.0000 C   0  0  0  0  0  0  0  0  0  0  0  0
   -2.6698    5.0268    0.0000 N   0  0  0  0  0  0  0  0  0  0  0  0
   -2.1810    3.6840    0.0000 N   0  0  0  0  0  0  0  0  0  0  0  0
   -1.6199    2.1266    0.0000 N   0  0  0  0  0  0  0  0  0  0  0  0
   -2.0324    2.8411    0.0000 C   0  0  0  0  0  0  0  0  0  0  0  0
   -1.6199    3.5556    0.0000 O   0  0  0  0  0  0  0  0  0  0  0  0
   -2.8575    2.8411    0.0000 C   0  0  2  0  0  0  0  0  0  0  0  0
   -3.2700    2.1266    0.0000 C   0  0  0  0  0  0  0  0  0  0  0  0
   -2.8574    1.4121    0.0000 C   0  0  0  0  0  0  0  0  0  0  0  0
   -3.2700    0.6977    0.0000 O   0  0  0  0  0  0  0  0  0  0  0  0
   -2.0324    1.4121    0.0000 O   0  0  0  0  0  0  0  0  0  0  0  0
   -3.2700    3.5556    0.0000 N   0  0  0  0  0  0  0  0  0  0  0  0
   -4.0949    3.5556    0.0000 C   0  0  0  0  0  0  0  0  0  0  0  0
   -4.5075    2.8411    0.0000 O   0  0  0  0  0  0  0  0  0  0  0  0
   -4.5075    4.2700    0.0000 C   0  0  0  0  0  0  0  0  0  0  0  0
   -5.3325    4.2700    0.0000 C   0  0  0  0  0  0  0  0  0  0  0  0
   -5.7450    4.9845    0.0000 C   0  0  1  0  0  0  0  0  0  0  0  0
   -5.3325    5.6990    0.0000 C   0  0  0  0  0  0  0  0  0  0  0  0
   -4.5075    5.6990    0.0000 O   0  0  0  0  0  0  0  0  0  0  0  0
   -5.7450    6.4135    0.0000 O   0  0  0  0  0  0  0  0  0  0  0  0
   -6.5700    4.9845    0.0000 N   0  0  0  0  0  0  0  0  0  0  0  0
   -6.9825    5.6989    0.0000 C   0  0  0  0  0  0  0  0  0  0  0  0
   -7.8075    5.6989    0.0000 C   0  0  0  0  0  0  0  0  0  0  0  0
   -8.2200    6.4134    0.0000 C   0  0  0  0  0  0  0  0  0  0  0  0
   -9.0450    6.4134    0.0000 C   0  0  0  0  0  0  0  0  0  0  0  0
   -9.4576    5.6989    0.0000 C   0  0  0  0  0  0  0  0  0  0  0  0
  -10.2825    5.6989    0.0000 N   0  0  0  0  0  0  0  0  0  0  0  0
  -10.6951    6.4134    0.0000 C   0  0  0  0  0  0  0  0  0  0  0  0
  -11.5201    6.4134    0.0000 C   0  0  0  0  0  0  0  0  0  0  0  0
  -11.9326    5.6989    0.0000 C   0  0  0  0  0  0  0  0  0  0  0  0
  -12.7576    5.6989    0.0000 N   0  0  0  0  0  0  0  0  0  0  0  0
  -13.1701    6.4134    0.0000 C   0  0  0  0  0  0  0  0  0  0  0  0
  -13.9951    6.4134    0.0000 N   0  0  0  0  0  0  0  0  0  0  0  0
  -14.4076    7.1278    0.0000 C   0  0  0  0  0  0  0  0  0  0  0  0
  -15.2327    7.1278    0.0000 N   0  0  0  0  0  0  0  0  0  0  0  0
  -13.9951    7.8424    0.0000 N   0  0  0  0  0  0  0  0  0  0  0  0
  -13.1701    7.8424    0.0000 C   0  0  0  0  0  0  0  0  0  0  0  0
  -12.7576    8.5568    0.0000 O   0  0  0  0  0  0  0  0  0  0  0  0
  -12.7576    7.1278    0.0000 C   0  0  0  0  0  0  0  0  0  0  0  0
  -11.9326    7.1278    0.0000 N   0  0  0  0  0  0  0  0  0  0  0  0
   -9.0450    4.9844    0.0000 C   0  0  0  0  0  0  0  0  0  0  0  0
   -8.2200    4.9845    0.0000 C   0  0  0  0  0  0  0  0  0  0  0  0
   -6.5701    6.4134    0.0000 O   0  0  0  0  0  0  0  0  0  0  0  0
    9.6401   -2.6624    0.0000 H   0  0  0  0  0  0  0  0  0  0  0  0
    8.5701   -2.6625    0.0000 H   0  0  0  0  0  0  0  0  0  0  0  0
   10.5817   -5.0167    0.0000 H   0  0  0  0  0  0  0  0  0  0  0  0
    8.9732   -6.7307    0.0000 H   0  0  0  0  0  0  0  0  0  0  0  0
   10.0726   -6.9344    0.0000 H   0  0  0  0  0  0  0  0  0  0  0  0
   11.0446   -5.0952    0.0000 H   0  0  0  0  0  0  0  0  0  0  0  0
   11.5781   -5.9658    0.0000 H   0  0  0  0  0  0  0  0  0  0  0  0
   10.5595   -7.6668    0.0000 H   0  0  0  0  0  0  0  0  0  0  0  0
   11.6236   -7.5549    0.0000 H   0  0  0  0  0  0  0  0  0  0  0  0
   11.2359   -7.3823    0.0000 H   0  0  0  0  0  0  0  0  0  0  0  0
   12.4471   -6.3527    0.0000 H   0  0  0  0  0  0  0  0  0  0  0  0
   16.0278   -7.7850    0.0000 H   0  0  0  0  0  0  0  0  0  0  0  0
   15.4553   -6.0223    0.0000 H   0  0  0  0  0  0  0  0  0  0  0  0
   16.2504   -6.7384    0.0000 H   0  0  0  0  0  0  0  0  0  0  0  0
   14.1546   -8.9430    0.0000 H   0  0  0  0  0  0  0  0  0  0  0  0
   15.8477   -8.1893    0.0000 H   0  0  0  0  0  0  0  0  0  0  0  0
   15.2187   -9.0549    0.0000 H   0  0  0  0  0  0  0  0  0  0  0  0
   15.3101   -6.7937    0.0000 H   0  0  0  0  0  0  0  0  0  0  0  0
   15.7773   -6.1053    0.0000 H   0  0  0  0  0  0  0  0  0  0  0  0
   12.9211   -7.3572    0.0000 H   0  0  0  0  0  0  0  0  0  0  0  0
   12.3876   -6.4865    0.0000 H   0  0  0  0  0  0  0  0  0  0  0  0
   12.7298   -5.0700    0.0000 H   0  0  0  0  0  0  0  0  0  0  0  0
   13.4507   -5.2077    0.0000 H   0  0  0  0  0  0  0  0  0  0  0  0
   13.2571   -3.3645    0.0000 H   0  0  0  0  0  0  0  0  0  0  0  0
   13.8859   -4.2302    0.0000 H   0  0  0  0  0  0  0  0  0  0  0  0
   10.4900   -3.8686    0.0000 H   0  0  0  0  0  0  0  0  0  0  0  0
   10.4130   -2.1848    0.0000 H   0  0  0  0  0  0  0  0  0  0  0  0
   14.3863   -2.1376    0.0000 H   0  0  0  0  0  0  0  0  0  0  0  0
   13.4598   -0.5325    0.0000 H   0  0  0  0  0  0  0  0  0  0  0  0
   14.3864   -1.0676    0.0000 H   0  0  0  0  0  0  0  0  0  0  0  0
   10.5146   -6.2857    0.0000 H   0  0  0  0  0  0  0  0  0  0  0  0
    9.8117   -5.5451    0.0000 H   0  0  0  0  0  0  0  0  0  0  0  0
    9.6031   -5.5817    0.0000 H   0  0  0  0  0  0  0  0  0  0  0  0
   14.4221   -6.1772    0.0000 H   0  0  0  0  0  0  0  0  0  0  0  0
   12.6596   -5.6044    0.0000 H   0  0  0  0  0  0  0  0  0  0  0  0
   13.7062   -5.3820    0.0000 H   0  0  0  0  0  0  0  0  0  0  0  0
   10.9997   -8.1254    0.0000 H   0  0  0  0  0  0  0  0  0  0  0  0
   10.4154   -7.4688    0.0000 H   0  0  0  0  0  0  0  0  0  0  0  0
   12.1085   -8.2224    0.0000 H   0  0  0  0  0  0  0  0  0  0  0  0
   11.0444   -8.3343    0.0000 H   0  0  0  0  0  0  0  0  0  0  0  0
    7.7451   -4.5158    0.0000 H   0  0  0  0  0  0  0  0  0  0  0  0
    7.2101   -3.5891    0.0000 H   0  0  0  0  0  0  0  0  0  0  0  0
    5.2701   -3.0868    0.0000 H   0  0  0  0  0  0  0  0  0  0  0  0
    4.7351   -2.1602    0.0000 H   0  0  0  0  0  0  0  0  0  0  0  0
    5.9275   -0.5189    0.0000 H   0  0  0  0  0  0  0  0  0  0  0  0
    4.8575   -0.5190    0.0000 H   0  0  0  0  0  0  0  0  0  0  0  0
    2.7950   -1.6579    0.0000 H   0  0  0  0  0  0  0  0  0  0  0  0
    2.2600   -0.7312    0.0000 H   0  0  0  0  0  0  0  0  0  0  0  0
    3.9875   -0.0168    0.0000 H   0  0  0  0  0  0  0  0  0  0  0  0
    3.3860    2.2237    0.0000 H   0  0  0  0  0  0  0  0  0  0  0  0
    1.6002   -0.8693    0.0000 H   0  0  0  0  0  0  0  0  0  0  0  0
    1.3900   -0.2290    0.0000 H   0  0  0  0  0  0  0  0  0  0  0  0
   -0.6275   -0.0166    0.0000 H   0  0  0  0  0  0  0  0  0  0  0  0
   -0.0926   -0.9433    0.0000 H   0  0  0  0  0  0  0  0  0  0  0  0
    2.1486   -1.5428    0.0000 H   0  0  0  0  0  0  0  0  0  0  0  0
    0.9348    2.2648    0.0000 H   0  0  0  0  0  0  0  0  0  0  0  0
    0.2751    2.1266    0.0000 H   0  0  0  0  0  0  0  0  0  0  0  0
    0.6835    2.9344    0.0000 H   0  0  0  0  0  0  0  0  0  0  0  0
    0.0271    3.8296    0.0000 H   0  0  0  0  0  0  0  0  0  0  0  0
   -1.9664    3.2873    0.0000 H   0  0  0  0  0  0  0  0  0  0  0  0
   -1.6005    4.2928    0.0000 H   0  0  0  0  0  0  0  0  0  0  0  0
    0.4030    4.5254    0.0000 H   0  0  0  0  0  0  0  0  0  0  0  0
   -0.3990    5.2931    0.0000 H   0  0  0  0  0  0  0  0  0  0  0  0
   -1.0917    5.7482    0.0000 H   0  0  0  0  0  0  0  0  0  0  0  0
   -2.4988    5.9963    0.0000 H   0  0  0  0  0  0  0  0  0  0  0  0
   -3.5950    4.6901    0.0000 H   0  0  0  0  0  0  0  0  0  0  0  0
   -3.1061    3.3471    0.0000 H   0  0  0  0  0  0  0  0  0  0  0  0
   -2.1122    1.2740    0.0000 H   0  0  0  0  0  0  0  0  0  0  0  0
   -2.3225    1.9145    0.0000 H   0  0  0  0  0  0  0  0  0  0  0  0
   -4.3400    2.1265    0.0000 H   0  0  0  0  0  0  0  0  0  0  0  0
   -3.8049    1.1999    0.0000 H   0  0  0  0  0  0  0  0  0  0  0  0
   -1.5639    0.6006    0.0000 H   0  0  0  0  0  0  0  0  0  0  0  0
   -2.7777    4.4082    0.0000 H   0  0  0  0  0  0  0  0  0  0  0  0
   -3.9726    5.1967    0.0000 H   0  0  0  0  0  0  0  0  0  0  0  0
   -5.0425    5.1966    0.0000 H   0  0  0  0  0  0  0  0  0  0  0  0
   -5.8675    3.3434    0.0000 H   0  0  0  0  0  0  0  0  0  0  0  0
   -6.4025    4.2700    0.0000 H   0  0  0  0  0  0  0  0  0  0  0  0
   -4.6750    4.9845    0.0000 H   0  0  0  0  0  0  0  0  0  0  0  0
   -5.2765    7.2250    0.0000 H   0  0  0  0  0  0  0  0  0  0  0  0
   -7.0622    4.1319    0.0000 H   0  0  0  0  0  0  0  0  0  0  0  0
   -7.7040    7.3071    0.0000 H   0  0  0  0  0  0  0  0  0  0  0  0
   -9.5610    7.3072    0.0000 H   0  0  0  0  0  0  0  0  0  0  0  0
  -10.7747    4.8463    0.0000 H   0  0  0  0  0  0  0  0  0  0  0  0
  -10.1601    7.3401    0.0000 H   0  0  0  0  0  0  0  0  0  0  0  0
  -11.2301    7.3400    0.0000 H   0  0  0  0  0  0  0  0  0  0  0  0
  -11.4166    4.8052    0.0000 H   0  0  0  0  0  0  0  0  0  0  0  0
  -15.7249    7.9804    0.0000 H   0  0  0  0  0  0  0  0  0  0  0  0
  -15.7249    6.2752    0.0000 H   0  0  0  0  0  0  0  0  0  0  0  0
  -14.4874    8.6950    0.0000 H   0  0  0  0  0  0  0  0  0  0  0  0
   -9.5609    4.0906    0.0000 H   0  0  0  0  0  0  0  0  0  0  0  0
   -7.7040    4.0908    0.0000 H   0  0  0  0  0  0  0  0  0  0  0  0
  1  2  1  0  0  0  0
  1 37  1  0  0  0  0
  1110  1  0  0  0  0
  1111  1  0  0  0  0
  3  2  1  0  0  0  0
  3  4  1  0  0  0  0
  3112  1  6  0  0  0
  4  5  1  0  0  0  0
  4113  1  0  0  0  0
  4114  1  0  0  0  0
  5  6  1  0  0  0  0
  5115  1  0  0  0  0
  5116  1  0  0  0  0
  6  7  1  0  0  0  0
  6117  1  0  0  0  0
  6118  1  0  0  0  0
  7  8  1  6  0  0  0
  7  9  1  0  0  0  0
  7 36  1  0  0  0  0
  9 10  1  0  0  0  0
  9 35  1  0  0  0  0
  9119  1  6  0  0  0
 10 11  1  0  0  0  0
 10 34  1  0  0  0  0
 10120  1  6  0  0  0
 11 12  2  0  0  0  0
 13 11  1  0  0  0  0
 13 14  1  0  0  0  0
 13 15  1  0  0  0  0
 14121  1  0  0  0  0
 14122  1  0  0  0  0
 14123  1  0  0  0  0
 15124  1  0  0  0  0
 15125  1  0  0  0  0
 15126  1  0  0  0  0
 16 13  1  0  0  0  0
 16 17  1  0  0  0  0
 16127  1  1  0  0  0
 17128  1  0  0  0  0
 18 16  1  0  0  0  0
 18129  1  0  0  0  0
 18130  1  0  0  0  0
 19 18  1  0  0  0  0
 19 20  2  0  0  0  0
 21 19  1  0  0  0  0
 22 21  1  0  0  0  0
 22 23  1  0  0  0  0
 22131  1  6  0  0  0
 23 24  1  0  0  0  0
 23 25  2  0  0  0  0
 24132  1  0  0  0  0
 24133  1  0  0  0  0
 24134  1  0  0  0  0
 25 26  1  0  0  0  0
 25135  1  0  0  0  0
 26 27  2  0  0  0  0
 26 31  1  0  0  0  0
 27 28  1  0  0  0  0
 27136  1  0  0  0  0
 29 28  1  0  0  0  0
 29 30  1  0  0  0  0
 30137  1  0  0  0  0
 30138  1  0  0  0  0
 30139  1  0  0  0  0
 31 29  2  0  0  0  0
 32 22  1  0  0  0  0
 32140  1  0  0  0  0
 32141  1  0  0  0  0
 33 32  1  0  0  0  0
 33  3  1  0  0  0  0
 33  2  1  0  0  0  0
 33142  1  6  0  0  0
 34143  1  0  0  0  0
 34144  1  0  0  0  0
 34145  1  0  0  0  0
 35146  1  0  0  0  0
 36147  1  0  0  0  0
 36148  1  0  0  0  0
 36149  1  0  0  0  0
 37 38  1  0  0  0  0
 37150  1  0  0  0  0
 37151  1  0  0  0  0
 38 39  1  0  0  0  0
 39 40  2  0  0  0  0
 39 41  1  0  0  0  0
 41 42  1  0  0  0  0
 42 43  1  0  0  0  0
 42152  1  0  0  0  0
 42153  1  0  0  0  0
 43 44  1  0  0  0  0
 43154  1  0  0  0  0
 43155  1  0  0  0  0
 44 45  1  0  0  0  0
 45 46  1  0  0  0  0
 46 47  1  0  0  0  0
 46156  1  0  0  0  0
 46157  1  0  0  0  0
 47 48  1  0  0  0  0
 47 51  1  0  0  0  0
 47158  1  1  0  0  0
 48 49  2  0  0  0  0
 48 50  1  0  0  0  0
 50159  1  0  0  0  0
 51 52  1  0  0  0  0
 51160  1  0  0  0  0
 52 53  2  0  0  0  0
 52 54  1  0  0  0  0
 54 55  1  0  0  0  0
 54 59  1  0  0  0  0
 54161  1  1  0  0  0
 55 56  1  0  0  0  0
 55162  1  0  0  0  0
 55163  1  0  0  0  0
 56 57  2  0  0  0  0
 56 58  1  0  0  0  0
 58164  1  0  0  0  0
 59 60  1  0  0  0  0
 59165  1  0  0  0  0
 60 61  2  0  0  0  0
 60 62  1  0  0  0  0
 62 63  1  0  0  0  0
 62 70  1  0  0  0  0
 62166  1  6  0  0  0
 63 64  1  0  0  0  0
 63167  1  0  0  0  0
 63168  1  0  0  0  0
 64 65  1  0  0  0  0
 64169  1  0  0  0  0
 64170  1  0  0  0  0
 65 66  1  0  0  0  0
 65171  1  0  0  0  0
 65172  1  0  0  0  0
 66 67  1  0  0  0  0
 66173  1  0  0  0  0
 67 68  1  0  0  0  0
 67 69  2  0  0  0  0
 68174  1  0  0  0  0
 68175  1  0  0  0  0
 69176  1  0  0  0  0
 70 71  1  0  0  0  0
 70177  1  0  0  0  0
 71 72  2  0  0  0  0
 71 73  1  0  0  0  0
 73 74  1  0  0  0  0
 73 78  1  0  0  0  0
 73178  1  1  0  0  0
 74 75  1  0  0  0  0
 74179  1  0  0  0  0
 74180  1  0  0  0  0
 75 76  2  0  0  0  0
 75 77  1  0  0  0  0
 77181  1  0  0  0  0
 78 79  1  0  0  0  0
 78182  1  0  0  0  0
 79 80  2  0  0  0  0
 79 81  1  0  0  0  0
 81 82  1  0  0  0  0
 81183  1  0  0  0  0
 81184  1  0  0  0  0
 82 83  1  0  0  0  0
 82185  1  0  0  0  0
 82186  1  0  0  0  0
 83 84  1  0  0  0  0
 83 87  1  0  0  0  0
 83187  1  1  0  0  0
 84 85  2  0  0  0  0
 84 86  1  0  0  0  0
 86188  1  0  0  0  0
 87 88  1  0  0  0  0
 87189  1  0  0  0  0
 88 89  1  0  0  0  0
 88109  2  0  0  0  0
 89 90  1  0  0  0  0
 89108  2  0  0  0  0
 90 91  2  0  0  0  0
 90190  1  0  0  0  0
 91 92  1  0  0  0  0
 91191  1  0  0  0  0
 92 93  1  0  0  0  0
 93 94  1  0  0  0  0
 93192  1  0  0  0  0
 94 95  1  0  0  0  0
 94193  1  0  0  0  0
 94194  1  0  0  0  0
 95 96  2  0  0  0  0
 95106  1  0  0  0  0
 96 97  1  0  0  0  0
 96195  1  0  0  0  0
 97 98  2  0  0  0  0
 98 99  1  0  0  0  0
 99100  2  0  0  0  0
100101  1  0  0  0  0
101196  1  0  0  0  0
101197  1  0  0  0  0
102100  1  0  0  0  0
102198  1  0  0  0  0
103102  1  0  0  0  0
103104  2  0  0  0  0
105103  1  0  0  0  0
105 98  1  0  0  0  0
106105  2  0  0  0  0
107 92  2  0  0  0  0
107199  1  0  0  0  0
108107  1  0  0  0  0
108200  1  0  0  0  0
M  END
>  <DRUGBANK_ID>
DB12266

>  <COMMON_NAME>
Epofolate

>  <CAS_NUMBER>
958646-17-8

>  <UNII>
Q3XAW4B1DP

$$$$
