
 OpenBabel10282417072D

  7  6  0  0  0  0  0  0  0  0999 V2000
    0.8250    0.0000    0.0000 C   0  0  0  0  0  0  0  0  0  0  0  0
    0.0000    0.0000    0.0000 N   0  0  0  0  0  0  0  0  0  0  0  0
    1.3600   -0.9266    0.0000 H   0  0  0  0  0  0  0  0  0  0  0  0
    1.3600    0.9266    0.0000 H   0  0  0  0  0  0  0  0  0  0  0  0
    1.8950    0.0000    0.0000 H   0  0  0  0  0  0  0  0  0  0  0  0
   -0.5100    0.8833    0.0000 H   0  0  0  0  0  0  0  0  0  0  0  0
   -0.5100   -0.8833    0.0000 H   0  0  0  0  0  0  0  0  0  0  0  0
  1  2  1  0  0  0  0
  1  3  1  0  0  0  0
  1  4  1  0  0  0  0
  1  5  1  0  0  0  0
  2  6  1  0  0  0  0
  2  7  1  0  0  0  0
M  END
>  <DRUGBANK_ID>
DB01828

>  <SECONDARY_ACCESSION_NUMBERS>
EXPT02363

>  <COMMON_NAME>
Methylamine

>  <CAS_NUMBER>
74-89-5

>  <UNII>
BSF23SJ79E

$$$$
