
 OpenBabel10282417072D

123130  0  0  0  0  0  0  0  0999 V2000
   -1.5313    0.3875    0.0000 C   0  0  0  0  0  0  0  0  0  0  0  0
   -2.2457   -0.0250    0.0000 C   0  0  0  0  0  0  0  0  0  0  0  0
   -1.5313   -1.2625    0.0000 C   0  0  0  0  0  0  0  0  0  0  0  0
   -0.1023   -1.2625    0.0000 C   0  0  0  0  0  0  0  0  0  0  0  0
    0.6121   -0.8500    0.0000 C   0  0  0  0  0  0  0  0  0  0  0  0
   -0.1023    1.2125    0.0000 C   0  0  0  0  0  0  0  0  0  0  0  0
    2.1112    0.1326    0.0000 C   0  0  0  0  0  0  0  0  0  0  0  0
   -2.2457   -0.8500    0.0000 C   0  0  1  0  0  0  0  0  0  0  0  0
   -0.8168   -0.8500    0.0000 C   0  0  1  0  0  0  0  0  0  0  0  0
   -0.8168   -1.6750    0.0000 H   0  0  0  0  0  0  0  0  0  0  0  0
   -0.8168   -0.0250    0.0000 C   0  0  2  0  0  0  0  0  0  0  0  0
   -0.8168    0.8000    0.0000 C   0  0  0  0  0  0  0  0  0  0  0  0
   -0.1023    0.3875    0.0000 C   0  0  2  0  0  0  0  0  0  0  0  0
   -0.1023   -0.4375    0.0000 H   0  0  0  0  0  0  0  0  0  0  0  0
    1.3266    0.3875    0.0000 C   0  0  1  0  0  0  0  0  0  0  0  0
    1.3266   -0.4375    0.0000 O   0  0  0  0  0  0  0  0  0  0  0  0
    0.6121    1.6250    0.0000 C   0  0  0  0  0  0  0  0  0  0  0  0
    1.3266    1.2125    0.0000 C   0  0  1  0  0  0  0  0  0  0  0  0
    1.3266    2.0375    0.0000 C   0  0  0  0  0  0  0  0  0  0  0  0
    3.1158    2.4986    0.0000 C   0  0  0  0  0  0  0  0  0  0  0  0
    1.8575    2.9443    0.0000 C   0  0  0  0  0  0  0  0  0  0  0  0
    2.3248    2.2644    0.0000 C   0  0  0  0  0  0  0  0  0  0  0  0
    3.1374    3.3233    0.0000 O   0  0  0  0  0  0  0  0  0  0  0  0
    2.3598    3.5988    0.0000 C   0  0  0  0  0  0  0  0  0  0  0  0
    2.0838    4.3644    0.0000 O   0  0  0  0  0  0  0  0  0  0  0  0
    2.1112    1.4675    0.0000 C   0  0  1  0  0  0  0  0  0  0  0  0
    2.9081    1.6810    0.0000 H   0  0  0  0  0  0  0  0  0  0  0  0
    0.6121   -0.0250    0.0000 C   0  0  2  0  0  0  0  0  0  0  0  0
    0.6121    0.8000    0.0000 H   0  0  0  0  0  0  0  0  0  0  0  0
    2.5961    0.8000    0.0000 C   0  0  0  0  0  0  0  0  0  0  0  0
   -2.9602   -1.2625    0.0000 O   0  0  0  0  0  0  0  0  0  0  0  0
   -3.6747   -0.8500    0.0000 C   0  0  2  0  0  0  0  0  0  0  0  0
   -3.6747   -0.0250    0.0000 O   0  0  0  0  0  0  0  0  0  0  0  0
   -4.3891   -1.2625    0.0000 C   0  0  0  0  0  0  0  0  0  0  0  0
   -4.3891    0.3875    0.0000 C   0  0  2  0  0  0  0  0  0  0  0  0
   -4.3891    1.2125    0.0000 C   0  0  0  0  0  0  0  0  0  0  0  0
   -5.1036   -0.8500    0.0000 C   0  0  2  0  0  0  0  0  0  0  0  0
   -5.8181   -1.2625    0.0000 O   0  0  0  0  0  0  0  0  0  0  0  0
   -5.1036   -0.0250    0.0000 C   0  0  2  0  0  0  0  0  0  0  0  0
   -5.8181    0.3875    0.0000 O   0  0  0  0  0  0  0  0  0  0  0  0
   -6.5325   -0.0250    0.0000 C   0  0  1  0  0  0  0  0  0  0  0  0
   -7.2470    0.3875    0.0000 C   0  0  0  0  0  0  0  0  0  0  0  0
   -6.5325   -0.8500    0.0000 O   0  0  0  0  0  0  0  0  0  0  0  0
   -7.2470   -1.2625    0.0000 C   0  0  2  0  0  0  0  0  0  0  0  0
   -7.2470   -2.0875    0.0000 C   0  0  0  0  0  0  0  0  0  0  0  0
   -7.9615   -0.0250    0.0000 C   0  0  2  0  0  0  0  0  0  0  0  0
   -8.6759    0.3875    0.0000 O   0  0  0  0  0  0  0  0  0  0  0  0
   -7.9615   -0.8500    0.0000 C   0  0  2  0  0  0  0  0  0  0  0  0
   -8.6759   -1.2625    0.0000 O   0  0  0  0  0  0  0  0  0  0  0  0
   -9.3904   -0.8500    0.0000 C   0  0  1  0  0  0  0  0  0  0  0  0
  -10.1049   -1.2625    0.0000 C   0  0  0  0  0  0  0  0  0  0  0  0
   -9.3904   -0.0250    0.0000 O   0  0  0  0  0  0  0  0  0  0  0  0
  -10.1049    0.3875    0.0000 C   0  0  2  0  0  0  0  0  0  0  0  0
  -10.1049    1.2125    0.0000 C   0  0  0  0  0  0  0  0  0  0  0  0
  -10.8193   -0.0250    0.0000 C   0  0  1  0  0  0  0  0  0  0  0  0
  -11.5338    0.3875    0.0000 O   0  0  0  0  0  0  0  0  0  0  0  0
  -10.8193   -0.8500    0.0000 C   0  0  1  0  0  0  0  0  0  0  0  0
  -11.5338   -1.2625    0.0000 O   0  0  0  0  0  0  0  0  0  0  0  0
  -12.2483   -0.8500    0.0000 C   0  0  0  0  0  0  0  0  0  0  0  0
  -12.9627   -1.2625    0.0000 C   0  0  0  0  0  0  0  0  0  0  0  0
  -12.2483   -0.0250    0.0000 O   0  0  0  0  0  0  0  0  0  0  0  0
   -1.5313    1.4575    0.0000 H   0  0  0  0  0  0  0  0  0  0  0  0
   -0.6047    0.9225    0.0000 H   0  0  0  0  0  0  0  0  0  0  0  0
   -3.1724    0.5100    0.0000 H   0  0  0  0  0  0  0  0  0  0  0  0
   -3.1723   -0.5600    0.0000 H   0  0  0  0  0  0  0  0  0  0  0  0
   -1.5313   -2.3325    0.0000 H   0  0  0  0  0  0  0  0  0  0  0  0
   -0.6047   -1.7975    0.0000 H   0  0  0  0  0  0  0  0  0  0  0  0
   -0.1023   -2.3325    0.0000 H   0  0  0  0  0  0  0  0  0  0  0  0
    0.8244   -1.7975    0.0000 H   0  0  0  0  0  0  0  0  0  0  0  0
    1.5388   -1.3850    0.0000 H   0  0  0  0  0  0  0  0  0  0  0  0
    1.5387   -0.3150    0.0000 H   0  0  0  0  0  0  0  0  0  0  0  0
   -1.0290    1.7475    0.0000 H   0  0  0  0  0  0  0  0  0  0  0  0
   -0.1023    2.2825    0.0000 H   0  0  0  0  0  0  0  0  0  0  0  0
    2.4419   -0.8850    0.0000 H   0  0  0  0  0  0  0  0  0  0  0  0
    3.1680   -0.0348    0.0000 H   0  0  0  0  0  0  0  0  0  0  0  0
   -3.1723   -0.3150    0.0000 H   0  0  0  0  0  0  0  0  0  0  0  0
    0.1098    1.3350    0.0000 H   0  0  0  0  0  0  0  0  0  0  0  0
   -1.7434    1.3350    0.0000 H   0  0  0  0  0  0  0  0  0  0  0  0
   -0.8168    1.8700    0.0000 H   0  0  0  0  0  0  0  0  0  0  0  0
    0.4866   -0.9225    0.0000 H   0  0  0  0  0  0  0  0  0  0  0  0
    0.6121    2.6950    0.0000 H   0  0  0  0  0  0  0  0  0  0  0  0
    1.5387    2.1600    0.0000 H   0  0  0  0  0  0  0  0  0  0  0  0
    2.2532    2.5725    0.0000 H   0  0  0  0  0  0  0  0  0  0  0  0
    0.4000    2.5725    0.0000 H   0  0  0  0  0  0  0  0  0  0  0  0
    1.3266    3.1075    0.0000 H   0  0  0  0  0  0  0  0  0  0  0  0
    3.9646    1.8472    0.0000 H   0  0  0  0  0  0  0  0  0  0  0  0
    2.9207    1.4465    0.0000 H   0  0  0  0  0  0  0  0  0  0  0  0
    0.8259    2.9713    0.0000 H   0  0  0  0  0  0  0  0  0  0  0  0
    3.6661    0.8000    0.0000 H   0  0  0  0  0  0  0  0  0  0  0  0
    3.0819   -0.1534    0.0000 H   0  0  0  0  0  0  0  0  0  0  0  0
   -3.6747   -1.9200    0.0000 H   0  0  0  0  0  0  0  0  0  0  0  0
   -4.3891   -2.3325    0.0000 H   0  0  0  0  0  0  0  0  0  0  0  0
   -5.3157   -1.7975    0.0000 H   0  0  0  0  0  0  0  0  0  0  0  0
   -5.3157    0.9225    0.0000 H   0  0  0  0  0  0  0  0  0  0  0  0
   -3.4625    1.7475    0.0000 H   0  0  0  0  0  0  0  0  0  0  0  0
   -5.3157    1.7475    0.0000 H   0  0  0  0  0  0  0  0  0  0  0  0
   -4.3891    2.2825    0.0000 H   0  0  0  0  0  0  0  0  0  0  0  0
   -6.0302   -0.3150    0.0000 H   0  0  0  0  0  0  0  0  0  0  0  0
   -6.6581   -0.7775    0.0000 H   0  0  0  0  0  0  0  0  0  0  0  0
   -5.1036    1.0450    0.0000 H   0  0  0  0  0  0  0  0  0  0  0  0
   -5.6058   -0.5600    0.0000 H   0  0  0  0  0  0  0  0  0  0  0  0
   -7.2470    1.4575    0.0000 H   0  0  0  0  0  0  0  0  0  0  0  0
   -8.1736    0.9225    0.0000 H   0  0  0  0  0  0  0  0  0  0  0  0
   -8.1736   -1.7975    0.0000 H   0  0  0  0  0  0  0  0  0  0  0  0
   -8.1736   -2.6225    0.0000 H   0  0  0  0  0  0  0  0  0  0  0  0
   -6.3204   -2.6225    0.0000 H   0  0  0  0  0  0  0  0  0  0  0  0
   -7.2470   -3.1575    0.0000 H   0  0  0  0  0  0  0  0  0  0  0  0
   -7.9615    1.0450    0.0000 H   0  0  0  0  0  0  0  0  0  0  0  0
   -8.6759    1.3575    0.0000 H   0  0  0  0  0  0  0  0  0  0  0  0
   -8.8882   -0.3150    0.0000 H   0  0  0  0  0  0  0  0  0  0  0  0
   -9.3904   -1.9200    0.0000 H   0  0  0  0  0  0  0  0  0  0  0  0
  -10.1049   -2.3325    0.0000 H   0  0  0  0  0  0  0  0  0  0  0  0
  -11.0316   -1.7975    0.0000 H   0  0  0  0  0  0  0  0  0  0  0  0
  -11.0316    0.9225    0.0000 H   0  0  0  0  0  0  0  0  0  0  0  0
   -9.1783    1.7475    0.0000 H   0  0  0  0  0  0  0  0  0  0  0  0
  -11.0315    1.7475    0.0000 H   0  0  0  0  0  0  0  0  0  0  0  0
  -10.1049    2.2825    0.0000 H   0  0  0  0  0  0  0  0  0  0  0  0
  -10.8193    1.0450    0.0000 H   0  0  0  0  0  0  0  0  0  0  0  0
  -11.5338    1.3575    0.0000 H   0  0  0  0  0  0  0  0  0  0  0  0
  -11.7459   -0.3150    0.0000 H   0  0  0  0  0  0  0  0  0  0  0  0
  -13.8894   -0.7275    0.0000 H   0  0  0  0  0  0  0  0  0  0  0  0
  -12.9627   -2.3325    0.0000 H   0  0  0  0  0  0  0  0  0  0  0  0
  -13.8893   -1.7975    0.0000 H   0  0  0  0  0  0  0  0  0  0  0  0
  1  2  1  0  0  0  0
  1 11  1  0  0  0  0
  1 62  1  0  0  0  0
  1 63  1  0  0  0  0
  2  8  1  0  0  0  0
  2 64  1  0  0  0  0
  2 65  1  0  0  0  0
  3  9  1  0  0  0  0
  3 66  1  0  0  0  0
  3 67  1  0  0  0  0
  4  5  1  0  0  0  0
  4 68  1  0  0  0  0
  4 69  1  0  0  0  0
  5 28  1  0  0  0  0
  5 70  1  0  0  0  0
  5 71  1  0  0  0  0
  6 13  1  0  0  0  0
  6 72  1  0  0  0  0
  6 73  1  0  0  0  0
  7 30  1  0  0  0  0
  7 74  1  0  0  0  0
  7 75  1  0  0  0  0
  8  3  1  0  0  0  0
  8 31  1  0  0  0  0
  8 76  1  6  0  0  0
  9  4  1  0  0  0  0
  9 10  1  1  0  0  0
 11  9  1  0  0  0  0
 11 12  1  1  0  0  0
 12 77  1  0  0  0  0
 12 78  1  0  0  0  0
 12 79  1  0  0  0  0
 13 11  1  0  0  0  0
 13 28  1  0  0  0  0
 13 14  1  6  0  0  0
 15  7  1  0  0  0  0
 15 16  1  1  0  0  0
 16 80  1  0  0  0  0
 17  6  1  0  0  0  0
 17 18  1  0  0  0  0
 17 81  1  0  0  0  0
 17 82  1  0  0  0  0
 18 15  1  0  0  0  0
 18 19  1  1  0  0  0
 19 83  1  0  0  0  0
 19 84  1  0  0  0  0
 19 85  1  0  0  0  0
 20 23  1  0  0  0  0
 20 22  1  0  0  0  0
 20 86  1  0  0  0  0
 20 87  1  0  0  0  0
 21 22  2  0  0  0  0
 21 88  1  0  0  0  0
 23 24  1  0  0  0  0
 24 21  1  0  0  0  0
 24 25  2  0  0  0  0
 26 18  1  0  0  0  0
 26 30  1  0  0  0  0
 26 22  1  0  0  0  0
 26 27  1  6  0  0  0
 28 15  1  0  0  0  0
 28 29  1  1  0  0  0
 30 89  1  0  0  0  0
 30 90  1  0  0  0  0
 32 31  1  0  0  0  0
 32 33  1  0  0  0  0
 32 91  1  6  0  0  0
 34 32  1  0  0  0  0
 34 92  1  0  0  0  0
 34 93  1  0  0  0  0
 35 39  1  0  0  0  0
 35 33  1  0  0  0  0
 35 36  1  0  0  0  0
 35 94  1  6  0  0  0
 36 95  1  0  0  0  0
 36 96  1  0  0  0  0
 36 97  1  0  0  0  0
 37 34  1  0  0  0  0
 37 38  1  0  0  0  0
 37 98  1  1  0  0  0
 38 99  1  0  0  0  0
 39 37  1  0  0  0  0
 39 40  1  0  0  0  0
 39100  1  1  0  0  0
 41 40  1  0  0  0  0
 41101  1  1  0  0  0
 42 41  1  0  0  0  0
 42 46  1  0  0  0  0
 42102  1  0  0  0  0
 42103  1  0  0  0  0
 43 41  1  0  0  0  0
 44 43  1  0  0  0  0
 44 45  1  0  0  0  0
 44104  1  1  0  0  0
 45105  1  0  0  0  0
 45106  1  0  0  0  0
 45107  1  0  0  0  0
 46 48  1  0  0  0  0
 46 47  1  0  0  0  0
 46108  1  6  0  0  0
 47109  1  0  0  0  0
 48 44  1  0  0  0  0
 48 49  1  0  0  0  0
 48110  1  6  0  0  0
 50 49  1  0  0  0  0
 50 52  1  0  0  0  0
 50111  1  6  0  0  0
 51 50  1  0  0  0  0
 51112  1  0  0  0  0
 51113  1  0  0  0  0
 53 55  1  0  0  0  0
 53 52  1  0  0  0  0
 53 54  1  0  0  0  0
 53114  1  6  0  0  0
 54115  1  0  0  0  0
 54116  1  0  0  0  0
 54117  1  0  0  0  0
 55 57  1  0  0  0  0
 55 56  1  0  0  0  0
 55118  1  1  0  0  0
 56119  1  0  0  0  0
 57 51  1  0  0  0  0
 57 58  1  0  0  0  0
 57120  1  1  0  0  0
 58 59  1  0  0  0  0
 59 60  1  0  0  0  0
 59 61  2  0  0  0  0
 60121  1  0  0  0  0
 60122  1  0  0  0  0
 60123  1  0  0  0  0
M  END
>  <DRUGBANK_ID>
DB00511

>  <SECONDARY_ACCESSION_NUMBERS>
APRD01334

>  <COMMON_NAME>
Acetyldigitoxin

>  <CAS_NUMBER>
1111-39-3

>  <UNII>
0ZV4Q4L2FU

>  <SYNONYMS>
Acetildigitoxina; Acetyl-digitoxin-alpha; Acetyldiginatin; Acetyldigitoxin; Acetyldigitoxinum; Acetylgitoxin; alpha-Acetyldigitoxin; alpha-Acetylgitaloxin; alpha-Monoacetyldigitoxin; Desglucolanatoside A; Digitoxin 3'''-acetate

$$$$
