
 OpenBabel10282417072D

 58 61  0  0  1  0  0  0  0  0999 V2000
    0.7145    1.2375    0.0000 C   0  0  0  0  0  0  0  0  0  0  0  0
    0.0000    0.8250    0.0000 C   0  0  1  0  0  0  0  0  0  0  0  0
   -0.7145    1.2375    0.0000 N   0  0  0  0  0  0  0  0  0  0  0  0
   -0.7145    2.0625    0.0000 C   0  0  0  0  0  0  0  0  0  0  0  0
   -1.4289    2.4750    0.0000 C   0  0  0  0  0  0  0  0  0  0  0  0
   -1.4289    3.3000    0.0000 C   0  0  0  0  0  0  0  0  0  0  0  0
   -2.1434    3.7125    0.0000 F   0  0  0  0  0  0  0  0  0  0  0  0
   -0.7145    3.7125    0.0000 C   0  0  0  0  0  0  0  0  0  0  0  0
    0.0000    3.3000    0.0000 C   0  0  0  0  0  0  0  0  0  0  0  0
    0.7145    3.7125    0.0000 F   0  0  0  0  0  0  0  0  0  0  0  0
    0.0000    2.4750    0.0000 C   0  0  0  0  0  0  0  0  0  0  0  0
    0.0000   -0.0000    0.0000 C   0  0  0  0  0  0  0  0  0  0  0  0
   -0.7145   -0.4125    0.0000 C   0  0  0  0  0  0  0  0  0  0  0  0
   -0.7145   -1.2375    0.0000 C   0  0  0  0  0  0  0  0  0  0  0  0
    0.0000   -1.6500    0.0000 C   0  0  0  0  0  0  0  0  0  0  0  0
    0.7145   -1.2375    0.0000 C   0  0  0  0  0  0  0  0  0  0  0  0
    0.7145   -0.4125    0.0000 C   0  0  0  0  0  0  0  0  0  0  0  0
    1.4289   -0.0000    0.0000 O   0  0  0  0  0  0  0  0  0  0  0  0
    2.1434   -0.4125    0.0000 C   0  0  0  0  0  0  0  0  0  0  0  0
    2.1434   -1.2375    0.0000 C   0  0  0  0  0  0  0  0  0  0  0  0
    1.4289   -1.6500    0.0000 C   0  0  0  0  0  0  0  0  0  0  0  0
    1.4289   -2.4750    0.0000 O   0  0  0  0  0  0  0  0  0  0  0  0
    2.8579   -0.0000    0.0000 N   0  0  0  0  0  0  0  0  0  0  0  0
    2.8579    0.8250    0.0000 C   0  0  0  0  0  0  0  0  0  0  0  0
    3.5724    1.2375    0.0000 C   0  0  0  0  0  0  0  0  0  0  0  0
    4.2868    0.8250    0.0000 O   0  0  0  0  0  0  0  0  0  0  0  0
    4.2868   -0.0000    0.0000 C   0  0  0  0  0  0  0  0  0  0  0  0
    3.5724   -0.4125    0.0000 C   0  0  0  0  0  0  0  0  0  0  0  0
   -1.4289   -1.6500    0.0000 C   0  0  0  0  0  0  0  0  0  0  0  0
   -2.1434   -1.2375    0.0000 O   0  0  0  0  0  0  0  0  0  0  0  0
   -1.4289   -2.4750    0.0000 N   0  0  0  0  0  0  0  0  0  0  0  0
   -0.7145   -2.8875    0.0000 C   0  0  0  0  0  0  0  0  0  0  0  0
   -2.1434   -2.8875    0.0000 C   0  0  0  0  0  0  0  0  0  0  0  0
    1.6411    0.7025    0.0000 H   0  0  0  0  0  0  0  0  0  0  0  0
    0.7145    2.3075    0.0000 H   0  0  0  0  0  0  0  0  0  0  0  0
    1.6412    1.7725    0.0000 H   0  0  0  0  0  0  0  0  0  0  0  0
    0.0000    1.8950    0.0000 H   0  0  0  0  0  0  0  0  0  0  0  0
   -1.5671    0.7452    0.0000 H   0  0  0  0  0  0  0  0  0  0  0  0
   -2.3226    1.9590    0.0000 H   0  0  0  0  0  0  0  0  0  0  0  0
   -0.7145    4.7445    0.0000 H   0  0  0  0  0  0  0  0  0  0  0  0
    0.8937    1.9590    0.0000 H   0  0  0  0  0  0  0  0  0  0  0  0
   -1.6082    0.1035    0.0000 H   0  0  0  0  0  0  0  0  0  0  0  0
    0.0000   -2.6820    0.0000 H   0  0  0  0  0  0  0  0  0  0  0  0
    3.0371   -1.7535    0.0000 H   0  0  0  0  0  0  0  0  0  0  0  0
    1.9313    1.3600    0.0000 H   0  0  0  0  0  0  0  0  0  0  0  0
    2.8579    1.8950    0.0000 H   0  0  0  0  0  0  0  0  0  0  0  0
    3.5724    2.3075    0.0000 H   0  0  0  0  0  0  0  0  0  0  0  0
    4.4991    1.7725    0.0000 H   0  0  0  0  0  0  0  0  0  0  0  0
    5.2135   -0.5350    0.0000 H   0  0  0  0  0  0  0  0  0  0  0  0
    4.2868   -1.0700    0.0000 H   0  0  0  0  0  0  0  0  0  0  0  0
    3.5724   -1.4825    0.0000 H   0  0  0  0  0  0  0  0  0  0  0  0
    2.6458   -0.9475    0.0000 H   0  0  0  0  0  0  0  0  0  0  0  0
   -0.7145   -3.9575    0.0000 H   0  0  0  0  0  0  0  0  0  0  0  0
    0.2122   -2.3525    0.0000 H   0  0  0  0  0  0  0  0  0  0  0  0
    0.2121   -3.4225    0.0000 H   0  0  0  0  0  0  0  0  0  0  0  0
   -3.0700   -2.3525    0.0000 H   0  0  0  0  0  0  0  0  0  0  0  0
   -2.1434   -3.9575    0.0000 H   0  0  0  0  0  0  0  0  0  0  0  0
   -3.0701   -3.4225    0.0000 H   0  0  0  0  0  0  0  0  0  0  0  0
  1 34  1  0  0  0  0
  1 35  1  0  0  0  0
  1 36  1  0  0  0  0
  2  1  1  0  0  0  0
  2  3  1  0  0  0  0
  2 12  1  0  0  0  0
  2 37  1  1  0  0  0
  3  4  1  0  0  0  0
  3 38  1  0  0  0  0
  4  5  2  0  0  0  0
  4 11  1  0  0  0  0
  5  6  1  0  0  0  0
  5 39  1  0  0  0  0
  6  7  1  0  0  0  0
  6  8  2  0  0  0  0
  8  9  1  0  0  0  0
  8 40  1  0  0  0  0
  9 10  1  0  0  0  0
  9 11  2  0  0  0  0
 11 41  1  0  0  0  0
 12 13  2  0  0  0  0
 12 17  1  0  0  0  0
 13 14  1  0  0  0  0
 13 42  1  0  0  0  0
 14 15  2  0  0  0  0
 14 29  1  0  0  0  0
 15 16  1  0  0  0  0
 15 43  1  0  0  0  0
 16 17  2  0  0  0  0
 16 21  1  0  0  0  0
 17 18  1  0  0  0  0
 18 19  1  0  0  0  0
 19 20  2  0  0  0  0
 19 23  1  0  0  0  0
 20 21  1  0  0  0  0
 20 44  1  0  0  0  0
 21 22  2  0  0  0  0
 23 24  1  0  0  0  0
 23 28  1  0  0  0  0
 24 25  1  0  0  0  0
 24 45  1  0  0  0  0
 24 46  1  0  0  0  0
 25 26  1  0  0  0  0
 25 47  1  0  0  0  0
 25 48  1  0  0  0  0
 26 27  1  0  0  0  0
 27 28  1  0  0  0  0
 27 49  1  0  0  0  0
 27 50  1  0  0  0  0
 28 51  1  0  0  0  0
 28 52  1  0  0  0  0
 29 30  2  0  0  0  0
 29 31  1  0  0  0  0
 31 32  1  0  0  0  0
 31 33  1  0  0  0  0
 32 53  1  0  0  0  0
 32 54  1  0  0  0  0
 32 55  1  0  0  0  0
 33 56  1  0  0  0  0
 33 57  1  0  0  0  0
 33 58  1  0  0  0  0
M  END
>  <DRUGBANK_ID>
DB15029

>  <COMMON_NAME>
AZD-8186

>  <CAS_NUMBER>
1627494-13-6

>  <UNII>
AIQ4OWD0RA

$$$$
