
 OpenBabel10282417072D

 12 11  0  0  0  0  0  0  0  0999 V2000
    0.0000   -0.8250    0.0000 C   0  0  0  0  0  0  0  0  0  0  0  0
   -0.7145   -0.4125    0.0000 C   0  0  0  0  0  0  0  0  0  0  0  0
    0.7145   -0.4125    0.0000 O   0  0  0  0  0  0  0  0  0  0  0  0
    0.0000   -1.6500    0.0000 O   0  0  0  0  0  0  0  0  0  0  0  0
   -0.7145    0.4125    0.0000 C   0  0  0  0  0  0  0  0  0  0  0  0
    0.0000    0.8250    0.0000 C   0  0  0  0  0  0  0  0  0  0  0  0
    0.7145    0.4125    0.0000 O   0  0  0  0  0  0  0  0  0  0  0  0
    0.0000    1.6500    0.0000 O   0  0  0  0  0  0  0  0  0  0  0  0
   -1.6082   -0.9285    0.0000 H   0  0  0  0  0  0  0  0  0  0  0  0
    1.5260   -0.8810    0.0000 H   0  0  0  0  0  0  0  0  0  0  0  0
   -1.6082    0.9285    0.0000 H   0  0  0  0  0  0  0  0  0  0  0  0
    0.7145   -0.5245    0.0000 H   0  0  0  0  0  0  0  0  0  0  0  0
  1  2  1  0  0  0  0
  1  3  1  0  0  0  0
  1  4  2  0  0  0  0
  2  5  2  0  0  0  0
  2  9  1  0  0  0  0
  3 10  1  0  0  0  0
  5  6  1  0  0  0  0
  5 11  1  0  0  0  0
  6  7  1  0  0  0  0
  6  8  2  0  0  0  0
  7 12  1  0  0  0  0
M  END
>  <DRUGBANK_ID>
DB04299

>  <SECONDARY_ACCESSION_NUMBERS>
EXPT02106

>  <COMMON_NAME>
Maleic acid

>  <CAS_NUMBER>
110-16-7

>  <UNII>
91XW058U2C

>  <SYNONYMS>
(Z)-2-butenedioic acid; (Z)-butenedioic acid; cis-1,2-ethylenedicarboxylic acid; cis-but-2-enedioic acid; cis-Butenedioic acid; Maleic acid; Toxilic acid

$$$$
