
 OpenBabel10282417072D

 73 72  0  0  0  0  0  0  0  0999 V2000
   -3.5708    0.0032    0.0000 C   0  0  0  0  0  0  0  0  0  0  0  0
   -2.8567   -0.4102    0.0000 C   0  0  0  0  0  0  0  0  0  0  0  0
   -2.1608    0.0056    0.0000 C   0  0  0  0  0  0  0  0  0  0  0  0
   -1.4468   -0.4077    0.0000 C   0  0  0  0  0  0  0  0  0  0  0  0
   -0.7341    0.0082    0.0000 C   0  0  0  0  0  0  0  0  0  0  0  0
   -0.0202   -0.4051    0.0000 C   0  0  0  0  0  0  0  0  0  0  0  0
   -4.2581   -0.4128    0.0000 C   0  0  0  0  0  0  0  0  0  0  0  0
    0.6922    0.0108    0.0000 O   0  0  0  0  0  0  0  0  0  0  0  0
    2.1213    0.0179    0.0000 O   0  0  0  0  0  0  0  0  0  0  0  0
    2.8358   -0.3946    0.0000 C   0  0  0  0  0  0  0  0  0  0  0  0
    3.5502    0.0179    0.0000 C   0  0  0  0  0  0  0  0  0  0  0  0
    4.2648   -0.3945    0.0000 N   0  3  0  0  0  0  0  0  0  0  0  0
    4.9792    0.0179    0.0000 C   0  0  0  0  0  0  0  0  0  0  0  0
    4.2648   -1.2195    0.0000 C   0  0  0  0  0  0  0  0  0  0  0  0
    4.9810   -0.8128    0.0000 C   0  0  0  0  0  0  0  0  0  0  0  0
    1.4088   -0.3981    0.0000 P   0  0  3  0  0  0  0  0  0  0  0  0
    1.4128   -1.2231    0.0000 O   0  0  0  0  0  0  0  0  0  0  0  0
    1.4088    0.4269    0.0000 O   0  5  0  0  0  0  0  0  0  0  0  0
   -4.9810   -0.0152    0.0000 C   0  0  0  0  0  0  0  0  0  0  0  0
   -1.4305    1.2181    0.0000 C   0  0  0  0  0  0  0  0  0  0  0  0
   -2.1446    0.8047    0.0000 C   0  0  0  0  0  0  0  0  0  0  0  0
   -2.8404    1.2205    0.0000 C   0  0  0  0  0  0  0  0  0  0  0  0
   -3.5544    0.8072    0.0000 C   0  0  0  0  0  0  0  0  0  0  0  0
   -4.2670    1.2231    0.0000 C   0  0  0  0  0  0  0  0  0  0  0  0
   -4.9810    0.8098    0.0000 C   0  0  0  0  0  0  0  0  0  0  0  0
   -0.7431    0.8021    0.0000 C   0  0  0  0  0  0  0  0  0  0  0  0
   -0.0202    1.1995    0.0000 C   0  0  0  0  0  0  0  0  0  0  0  0
   -3.5812    1.0731    0.0000 H   0  0  0  0  0  0  0  0  0  0  0  0
   -4.5055    0.5240    0.0000 H   0  0  0  0  0  0  0  0  0  0  0  0
   -2.8493   -1.4802    0.0000 H   0  0  0  0  0  0  0  0  0  0  0  0
   -1.9243   -0.9350    0.0000 H   0  0  0  0  0  0  0  0  0  0  0  0
   -2.1682    1.0756    0.0000 H   0  0  0  0  0  0  0  0  0  0  0  0
   -1.2357    0.5433    0.0000 H   0  0  0  0  0  0  0  0  0  0  0  0
   -1.4449   -1.4777    0.0000 H   0  0  0  0  0  0  0  0  0  0  0  0
   -0.5184   -0.9397    0.0000 H   0  0  0  0  0  0  0  0  0  0  0  0
   -0.7359    1.0782    0.0000 H   0  0  0  0  0  0  0  0  0  0  0  0
    0.1924    0.5435    0.0000 H   0  0  0  0  0  0  0  0  0  0  0  0
   -0.0183   -1.4751    0.0000 H   0  0  0  0  0  0  0  0  0  0  0  0
    0.9082   -0.9370    0.0000 H   0  0  0  0  0  0  0  0  0  0  0  0
   -4.2359   -1.4826    0.0000 H   0  0  0  0  0  0  0  0  0  0  0  0
   -5.1735   -0.9669    0.0000 H   0  0  0  0  0  0  0  0  0  0  0  0
    2.8358   -1.4646    0.0000 H   0  0  0  0  0  0  0  0  0  0  0  0
    3.7625   -0.9296    0.0000 H   0  0  0  0  0  0  0  0  0  0  0  0
    3.5501    1.0879    0.0000 H   0  0  0  0  0  0  0  0  0  0  0  0
    4.4768    0.5530    0.0000 H   0  0  0  0  0  0  0  0  0  0  0  0
    5.9058   -0.5172    0.0000 H   0  0  0  0  0  0  0  0  0  0  0  0
    4.9793    1.0879    0.0000 H   0  0  0  0  0  0  0  0  0  0  0  0
    5.9059    0.5528    0.0000 H   0  0  0  0  0  0  0  0  0  0  0  0
    3.3382   -1.7545    0.0000 H   0  0  0  0  0  0  0  0  0  0  0  0
    5.1914   -1.7545    0.0000 H   0  0  0  0  0  0  0  0  0  0  0  0
    4.2648   -2.2895    0.0000 H   0  0  0  0  0  0  0  0  0  0  0  0
    4.9756   -1.8828    0.0000 H   0  0  0  0  0  0  0  0  0  0  0  0
    5.9103   -0.2825    0.0000 H   0  0  0  0  0  0  0  0  0  0  0  0
    5.9050   -1.3524    0.0000 H   0  0  0  0  0  0  0  0  0  0  0  0
   -5.9020   -0.5598    0.0000 H   0  0  0  0  0  0  0  0  0  0  0  0
   -5.9104    0.5150    0.0000 H   0  0  0  0  0  0  0  0  0  0  0  0
   -1.4201    2.2880    0.0000 H   0  0  0  0  0  0  0  0  0  0  0  0
   -0.4958    1.7390    0.0000 H   0  0  0  0  0  0  0  0  0  0  0  0
   -2.1520   -0.2653    0.0000 H   0  0  0  0  0  0  0  0  0  0  0  0
   -3.0771    0.2799    0.0000 H   0  0  0  0  0  0  0  0  0  0  0  0
   -2.8330    2.2905    0.0000 H   0  0  0  0  0  0  0  0  0  0  0  0
   -3.7655    1.7582    0.0000 H   0  0  0  0  0  0  0  0  0  0  0  0
   -3.5563   -0.2628    0.0000 H   0  0  0  0  0  0  0  0  0  0  0  0
   -4.4828    0.2752    0.0000 H   0  0  0  0  0  0  0  0  0  0  0  0
   -4.2651    2.2931    0.0000 H   0  0  0  0  0  0  0  0  0  0  0  0
   -5.1935    1.7584    0.0000 H   0  0  0  0  0  0  0  0  0  0  0  0
   -5.9079    1.3443    0.0000 H   0  0  0  0  0  0  0  0  0  0  0  0
   -5.9075    0.2745    0.0000 H   0  0  0  0  0  0  0  0  0  0  0  0
   -0.7653   -0.2677    0.0000 H   0  0  0  0  0  0  0  0  0  0  0  0
    0.1722    0.2479    0.0000 H   0  0  0  0  0  0  0  0  0  0  0  0
    0.8950    0.6452    0.0000 H   0  0  0  0  0  0  0  0  0  0  0  0
    0.0022    2.2693    0.0000 H   0  0  0  0  0  0  0  0  0  0  0  0
    0.9175    1.7150    0.0000 H   0  0  0  0  0  0  0  0  0  0  0  0
  1 28  1  0  0  0  0
  1 29  1  0  0  0  0
  2  1  1  0  0  0  0
  2 30  1  0  0  0  0
  2 31  1  0  0  0  0
  3  2  1  0  0  0  0
  3 32  1  0  0  0  0
  3 33  1  0  0  0  0
  4  3  1  0  0  0  0
  4 34  1  0  0  0  0
  4 35  1  0  0  0  0
  5  4  1  0  0  0  0
  5 36  1  0  0  0  0
  5 37  1  0  0  0  0
  6  5  1  0  0  0  0
  6 38  1  0  0  0  0
  6 39  1  0  0  0  0
  7  1  1  0  0  0  0
  7 19  1  0  0  0  0
  7 40  1  0  0  0  0
  7 41  1  0  0  0  0
  8  6  1  0  0  0  0
  8 16  1  0  0  0  0
 10  9  1  0  0  0  0
 10 42  1  0  0  0  0
 10 43  1  0  0  0  0
 11 10  1  0  0  0  0
 11 44  1  0  0  0  0
 11 45  1  0  0  0  0
 12 11  1  0  0  0  0
 12 13  1  0  0  0  0
 12 14  1  0  0  0  0
 12 15  1  0  0  0  0
 13 46  1  0  0  0  0
 13 47  1  0  0  0  0
 13 48  1  0  0  0  0
 14 49  1  0  0  0  0
 14 50  1  0  0  0  0
 14 51  1  0  0  0  0
 15 52  1  0  0  0  0
 15 53  1  0  0  0  0
 15 54  1  0  0  0  0
 16  9  1  0  0  0  0
 16 17  2  0  0  0  0
 16 18  1  0  0  0  0
 19 25  1  0  0  0  0
 19 55  1  0  0  0  0
 19 56  1  0  0  0  0
 20 57  1  0  0  0  0
 20 58  1  0  0  0  0
 21 20  1  0  0  0  0
 21 59  1  0  0  0  0
 21 60  1  0  0  0  0
 22 21  1  0  0  0  0
 22 61  1  0  0  0  0
 22 62  1  0  0  0  0
 23 22  1  0  0  0  0
 23 63  1  0  0  0  0
 23 64  1  0  0  0  0
 24 23  1  0  0  0  0
 24 65  1  0  0  0  0
 24 66  1  0  0  0  0
 25 24  1  0  0  0  0
 25 67  1  0  0  0  0
 25 68  1  0  0  0  0
 26 20  1  0  0  0  0
 26 27  1  0  0  0  0
 26 69  1  0  0  0  0
 26 70  1  0  0  0  0
 27 71  1  0  0  0  0
 27 72  1  0  0  0  0
 27 73  1  0  0  0  0
M  CHG  2  12   1  18  -1
M  END
>  <DRUGBANK_ID>
DB09031

>  <COMMON_NAME>
Miltefosine

>  <CAS_NUMBER>
58066-85-6

>  <UNII>
53EY29W7EC

>  <SYNONYMS>
HDPC; hexadecyl 2-(trimethylazaniumyl)ethyl phosphate; Hexadecylphosphocholine; Hexadecylphosphorylcholine; Miltefosin; Miltefosina; Milt√©fosine; Miltefosine; Monohexadecylphosphocholine; Monohexadecylphosphorylcholine

$$$$
