AT5
 OpenBabel10282417072D

 44 44  0  0  0  0  0  0  0  0999 V2000
    0.0373   -1.5539    0.0000 O   0  0  0  0  0  0  0  0  0  0  0  0
    0.0373   -0.7289    0.0000 C   0  0  0  0  0  0  0  0  0  0  0  0
    0.7518   -0.3164    0.0000 C   0  0  2  0  0  0  0  0  0  0  0  0
    1.4663   -0.7289    0.0000 C   0  0  0  0  0  0  0  0  0  0  0  0
    2.1808   -0.3164    0.0000 C   0  0  2  0  0  0  0  0  0  0  0  0
    2.1808    0.5086    0.0000 C   0  0  0  0  0  0  0  0  0  0  0  0
    2.8952   -0.7289    0.0000 C   0  0  1  0  0  0  0  0  0  0  0  0
    2.8952   -1.5539    0.0000 Cl  0  0  0  0  0  0  0  0  0  0  0  0
    3.6097   -0.3164    0.0000 C   0  0  0  0  0  0  0  0  0  0  0  0
    4.3242   -0.7289    0.0000 Cl  0  0  0  0  0  0  0  0  0  0  0  0
    0.7518    0.5086    0.0000 C   0  0  0  0  0  0  0  0  0  0  0  0
   -0.6771   -0.3164    0.0000 C   0  0  0  0  0  0  0  0  0  0  0  0
   -1.3916   -0.7289    0.0000 C   0  0  0  0  0  0  0  0  0  0  0  0
   -2.1061   -0.3164    0.0000 N   0  0  0  0  0  0  0  0  0  0  0  0
   -2.1061    0.5086    0.0000 C   0  0  0  0  0  0  0  0  0  0  0  0
   -1.3916    0.9211    0.0000 C   0  0  0  0  0  0  0  0  0  0  0  0
   -0.6771    0.5086    0.0000 C   0  0  0  0  0  0  0  0  0  0  0  0
    0.0373    0.9211    0.0000 O   0  0  0  0  0  0  0  0  0  0  0  0
   -1.3916    1.7461    0.0000 O   0  0  0  0  0  0  0  0  0  0  0  0
   -0.6771    2.1586    0.0000 C   0  0  0  0  0  0  0  0  0  0  0  0
   -2.8205    0.9211    0.0000 O   0  0  0  0  0  0  0  0  0  0  0  0
   -3.5350    0.5086    0.0000 C   0  0  0  0  0  0  0  0  0  0  0  0
   -1.3916   -1.5539    0.0000 O   0  0  0  0  0  0  0  0  0  0  0  0
    0.7518   -0.9003    0.0000 H   0  0  0  0  0  0  0  0  0  0  0  0
    1.6751   -0.0244    0.0000 H   0  0  0  0  0  0  0  0  0  0  0  0
    2.3895   -1.0208    0.0000 H   0  0  0  0  0  0  0  0  0  0  0  0
    1.4663   -1.7989    0.0000 H   0  0  0  0  0  0  0  0  0  0  0  0
    2.3929   -1.2639    0.0000 H   0  0  0  0  0  0  0  0  0  0  0  0
    3.1074    1.0436    0.0000 H   0  0  0  0  0  0  0  0  0  0  0  0
    1.2542    1.0436    0.0000 H   0  0  0  0  0  0  0  0  0  0  0  0
    2.1808    1.5786    0.0000 H   0  0  0  0  0  0  0  0  0  0  0  0
    3.6097    0.7536    0.0000 H   0  0  0  0  0  0  0  0  0  0  0  0
    4.5363    0.2186    0.0000 H   0  0  0  0  0  0  0  0  0  0  0  0
    1.6784    1.0436    0.0000 H   0  0  0  0  0  0  0  0  0  0  0  0
   -0.1748    1.0436    0.0000 H   0  0  0  0  0  0  0  0  0  0  0  0
    0.7518    1.5786    0.0000 H   0  0  0  0  0  0  0  0  0  0  0  0
   -2.9587   -0.8087    0.0000 H   0  0  0  0  0  0  0  0  0  0  0  0
    0.8488    0.4526    0.0000 H   0  0  0  0  0  0  0  0  0  0  0  0
    0.2495    1.6236    0.0000 H   0  0  0  0  0  0  0  0  0  0  0  0
   -0.6771    3.2286    0.0000 H   0  0  0  0  0  0  0  0  0  0  0  0
    0.2496    2.6936    0.0000 H   0  0  0  0  0  0  0  0  0  0  0  0
   -4.4616    1.0436    0.0000 H   0  0  0  0  0  0  0  0  0  0  0  0
   -3.5350   -0.5614    0.0000 H   0  0  0  0  0  0  0  0  0  0  0  0
   -4.4617   -0.0264    0.0000 H   0  0  0  0  0  0  0  0  0  0  0  0
  1  2  2  0  0  0  0
  2  3  1  0  0  0  0
  2 12  1  0  0  0  0
  3  4  1  0  0  0  0
  3 11  1  0  0  0  0
  3 24  1  6  0  0  0
  4  5  1  0  0  0  0
  4 27  1  0  0  0  0
  4 28  1  0  0  0  0
  5  6  1  0  0  0  0
  5  7  1  0  0  0  0
  5 25  1  1  0  0  0
  6 29  1  0  0  0  0
  6 30  1  0  0  0  0
  6 31  1  0  0  0  0
  7  8  1  0  0  0  0
  7  9  1  0  0  0  0
  7 26  1  1  0  0  0
  9 10  1  0  0  0  0
  9 32  1  0  0  0  0
  9 33  1  0  0  0  0
 11 34  1  0  0  0  0
 11 35  1  0  0  0  0
 11 36  1  0  0  0  0
 12 13  1  0  0  0  0
 12 17  2  0  0  0  0
 13 14  1  0  0  0  0
 13 23  2  0  0  0  0
 14 15  1  0  0  0  0
 14 37  1  0  0  0  0
 15 16  2  0  0  0  0
 15 21  1  0  0  0  0
 16 17  1  0  0  0  0
 16 19  1  0  0  0  0
 17 18  1  0  0  0  0
 18 38  1  0  0  0  0
 19 20  1  0  0  0  0
 20 39  1  0  0  0  0
 20 40  1  0  0  0  0
 20 41  1  0  0  0  0
 21 22  1  0  0  0  0
 22 42  1  0  0  0  0
 22 43  1  0  0  0  0
 22 44  1  0  0  0  0
M  END
>  <DRUGBANK_ID>
DB04631

>  <COMMON_NAME>
Atpenin A5

>  <CAS_NUMBER>
119509-24-9

>  <SYNONYMS>
3-[(2S,4S,5R)-5,6-dichloro-2,4-dimethyl-1-oxohexyl]-4-hydroxy-5,6-dimethoxy-2(1H)-pyridinone

$$$$
