
 OpenBabel10282417072D

 42 43  0  0  0  0  0  0  0  0999 V2000
   -0.4908    1.3500    0.0000 C   0  0  3  0  0  0  0  0  0  0  0  0
   -1.2053    0.9375    0.0000 C   0  0  0  0  0  0  0  0  0  0  0  0
   -0.4908    2.1750    0.0000 C   0  0  0  0  0  0  0  0  0  0  0  0
    0.2235    0.9375    0.0000 C   0  0  0  0  0  0  0  0  0  0  0  0
   -1.9197    1.3499    0.0000 C   0  0  0  0  0  0  0  0  0  0  0  0
   -2.6343    0.9374    0.0000 C   0  0  0  0  0  0  0  0  0  0  0  0
   -2.6344    0.1124    0.0000 C   0  0  0  0  0  0  0  0  0  0  0  0
   -1.9199   -0.3000    0.0000 C   0  0  0  0  0  0  0  0  0  0  0  0
   -1.2053    0.1124    0.0000 C   0  0  0  0  0  0  0  0  0  0  0  0
    0.2235    0.1125    0.0000 C   0  0  0  0  0  0  0  0  0  0  0  0
    0.9381   -0.3000    0.0000 C   0  0  0  0  0  0  0  0  0  0  0  0
    1.6525    0.1124    0.0000 C   0  0  0  0  0  0  0  0  0  0  0  0
    1.6526    0.9374    0.0000 C   0  0  0  0  0  0  0  0  0  0  0  0
    0.9380    1.3500    0.0000 C   0  0  0  0  0  0  0  0  0  0  0  0
    0.2235    2.5875    0.0000 C   0  0  0  0  0  0  0  0  0  0  0  0
    0.2235    3.4125    0.0000 N   0  0  0  0  0  0  0  0  0  0  0  0
   -0.4908    3.8250    0.0000 C   0  0  0  0  0  0  0  0  0  0  0  0
    0.9380    3.8250    0.0000 C   0  0  0  0  0  0  0  0  0  0  0  0
    2.3670   -0.3001    0.0000 C   0  0  0  0  0  0  0  0  0  0  0  0
   -1.4174    1.8850    0.0000 H   0  0  0  0  0  0  0  0  0  0  0  0
   -1.4175    2.7100    0.0000 H   0  0  0  0  0  0  0  0  0  0  0  0
   -0.4909    3.2450    0.0000 H   0  0  0  0  0  0  0  0  0  0  0  0
   -1.9197    2.3819    0.0000 H   0  0  0  0  0  0  0  0  0  0  0  0
   -3.5280    1.4535    0.0000 H   0  0  0  0  0  0  0  0  0  0  0  0
   -3.5281   -0.4036    0.0000 H   0  0  0  0  0  0  0  0  0  0  0  0
   -1.9199   -1.3320    0.0000 H   0  0  0  0  0  0  0  0  0  0  0  0
   -0.3116   -0.4037    0.0000 H   0  0  0  0  0  0  0  0  0  0  0  0
   -0.6702   -0.4035    0.0000 H   0  0  0  0  0  0  0  0  0  0  0  0
    0.9381   -1.3320    0.0000 H   0  0  0  0  0  0  0  0  0  0  0  0
    2.5464    1.4533    0.0000 H   0  0  0  0  0  0  0  0  0  0  0  0
    0.9380    2.3820    0.0000 H   0  0  0  0  0  0  0  0  0  0  0  0
    1.1502    2.0525    0.0000 H   0  0  0  0  0  0  0  0  0  0  0  0
    1.1501    3.1225    0.0000 H   0  0  0  0  0  0  0  0  0  0  0  0
   -0.4907    4.8950    0.0000 H   0  0  0  0  0  0  0  0  0  0  0  0
   -1.4175    3.2901    0.0000 H   0  0  0  0  0  0  0  0  0  0  0  0
   -1.4174    4.3601    0.0000 H   0  0  0  0  0  0  0  0  0  0  0  0
    1.8646    3.2900    0.0000 H   0  0  0  0  0  0  0  0  0  0  0  0
    0.9380    4.8950    0.0000 H   0  0  0  0  0  0  0  0  0  0  0  0
    1.8647    4.3600    0.0000 H   0  0  0  0  0  0  0  0  0  0  0  0
    2.3670   -1.3701    0.0000 H   0  0  0  0  0  0  0  0  0  0  0  0
    3.2936    0.2349    0.0000 H   0  0  0  0  0  0  0  0  0  0  0  0
    3.2937   -0.8351    0.0000 H   0  0  0  0  0  0  0  0  0  0  0  0
  1  3  1  0  0  0  0
  1  4  1  0  0  0  0
  1 20  1  0  0  0  0
  2  1  1  0  0  0  0
  2  5  2  0  0  0  0
  3 15  1  0  0  0  0
  3 21  1  0  0  0  0
  3 22  1  0  0  0  0
  4 10  2  0  0  0  0
  5  6  1  0  0  0  0
  5 23  1  0  0  0  0
  6  7  2  0  0  0  0
  6 24  1  0  0  0  0
  7  8  1  0  0  0  0
  7 25  1  0  0  0  0
  8  9  2  0  0  0  0
  8 26  1  0  0  0  0
  9  2  1  0  0  0  0
  9 27  1  0  0  0  0
 10 11  1  0  0  0  0
 10 28  1  0  0  0  0
 11 12  2  0  0  0  0
 11 29  1  0  0  0  0
 12 13  1  0  0  0  0
 12 19  1  0  0  0  0
 13 14  2  0  0  0  0
 13 30  1  0  0  0  0
 14  4  1  0  0  0  0
 14 31  1  0  0  0  0
 15 16  1  0  0  0  0
 15 32  1  0  0  0  0
 15 33  1  0  0  0  0
 16 17  1  0  0  0  0
 16 18  1  0  0  0  0
 17 34  1  0  0  0  0
 17 35  1  0  0  0  0
 17 36  1  0  0  0  0
 18 37  1  0  0  0  0
 18 38  1  0  0  0  0
 18 39  1  0  0  0  0
 19 40  1  0  0  0  0
 19 41  1  0  0  0  0
 19 42  1  0  0  0  0
M  END
>  <DRUGBANK_ID>
DB13305

>  <COMMON_NAME>
Tolpropamine

>  <CAS_NUMBER>
5632-44-0

>  <UNII>
TBZ8909KFS

>  <SYNONYMS>
Tolpropamina; Tolpropamine; Tolpropaminum

$$$$
