1362
 OpenBabel10282417072D

 60 60  0  0  1  0  0  0  0  0999 V2000
    3.5220    0.8250    0.0000 I   0  0  0  0  0  0  0  0  0  0  0  0
    6.3799    0.8250    0.0000 I   0  0  0  0  0  0  0  0  0  0  0  0
    4.9509   -1.6500    0.0000 I   0  0  0  0  0  0  0  0  0  0  0  0
    4.9509    3.3001    0.0000 O   0  0  0  0  0  0  0  0  0  0  0  0
    6.3799    4.1251    0.0000 O   0  0  0  0  0  0  0  0  0  0  0  0
    3.5220    1.6500    0.0000 O   0  0  0  0  0  0  0  0  0  0  0  0
    6.3799   -3.3001    0.0000 O   0  0  0  0  0  0  0  0  0  0  0  0
    3.5220   -3.3001    0.0000 O   0  0  0  0  0  0  0  0  0  0  0  0
    7.0944   -0.4125    0.0000 O   0  0  0  0  0  0  0  0  0  0  0  0
    2.8075   -0.4125    0.0000 O   0  0  0  0  0  0  0  0  0  0  0  0
    7.8089   -4.1251    0.0000 O   0  0  0  0  0  0  0  0  0  0  0  0
    2.0930   -4.1251    0.0000 O   0  0  0  0  0  0  0  0  0  0  0  0
    4.9509    1.6500    0.0000 N   0  0  0  0  0  0  0  0  0  0  0  0
    6.3799   -1.6500    0.0000 N   0  0  0  0  0  0  0  0  0  0  0  0
    3.5220   -1.6500    0.0000 N   0  0  0  0  0  0  0  0  0  0  0  0
    5.6655    2.0625    0.0000 C   0  0  0  0  0  0  0  0  0  0  0  0
    4.9509    0.8250    0.0000 C   0  0  0  0  0  0  0  0  0  0  0  0
    5.6655    2.8876    0.0000 C   0  0  3  0  0  0  0  0  0  0  0  0
    4.2365    0.4125    0.0000 C   0  0  0  0  0  0  0  0  0  0  0  0
    5.6655    0.4125    0.0000 C   0  0  0  0  0  0  0  0  0  0  0  0
    4.2365   -0.4125    0.0000 C   0  0  0  0  0  0  0  0  0  0  0  0
    5.6655   -0.4125    0.0000 C   0  0  0  0  0  0  0  0  0  0  0  0
    4.9509   -0.8250    0.0000 C   0  0  0  0  0  0  0  0  0  0  0  0
    6.3799    3.3001    0.0000 C   0  0  0  0  0  0  0  0  0  0  0  0
    4.2365    2.0625    0.0000 C   0  0  0  0  0  0  0  0  0  0  0  0
    6.3799   -0.8250    0.0000 C   0  0  0  0  0  0  0  0  0  0  0  0
    3.5220   -0.8250    0.0000 C   0  0  0  0  0  0  0  0  0  0  0  0
    7.0944   -2.0625    0.0000 C   0  0  0  0  0  0  0  0  0  0  0  0
    2.8075   -2.0625    0.0000 C   0  0  0  0  0  0  0  0  0  0  0  0
    7.0944   -2.8876    0.0000 C   0  0  3  0  0  0  0  0  0  0  0  0
    2.8075   -2.8876    0.0000 C   0  0  3  0  0  0  0  0  0  0  0  0
    4.2365    2.8876    0.0000 C   0  0  0  0  0  0  0  0  0  0  0  0
    7.8089   -3.3001    0.0000 C   0  0  0  0  0  0  0  0  0  0  0  0
    2.0930   -3.3001    0.0000 C   0  0  0  0  0  0  0  0  0  0  0  0
    4.9508    4.2701    0.0000 H   0  0  0  0  0  0  0  0  0  0  0  0
    7.2199    4.6101    0.0000 H   0  0  0  0  0  0  0  0  0  0  0  0
    5.5399   -2.8151    0.0000 H   0  0  0  0  0  0  0  0  0  0  0  0
    3.5220   -4.2701    0.0000 H   0  0  0  0  0  0  0  0  0  0  0  0
    6.9689   -4.6101    0.0000 H   0  0  0  0  0  0  0  0  0  0  0  0
    1.2530   -4.6101    0.0000 H   0  0  0  0  0  0  0  0  0  0  0  0
    5.5273   -2.1423    0.0000 H   0  0  0  0  0  0  0  0  0  0  0  0
    4.3746   -2.1423    0.0000 H   0  0  0  0  0  0  0  0  0  0  0  0
    6.5921    1.5275    0.0000 H   0  0  0  0  0  0  0  0  0  0  0  0
    6.5922    2.5975    0.0000 H   0  0  0  0  0  0  0  0  0  0  0  0
    4.7389    2.3526    0.0000 H   0  0  0  0  0  0  0  0  0  0  0  0
    7.3066    2.7651    0.0000 H   0  0  0  0  0  0  0  0  0  0  0  0
    6.3799    2.2301    0.0000 H   0  0  0  0  0  0  0  0  0  0  0  0
    8.0210   -1.5275    0.0000 H   0  0  0  0  0  0  0  0  0  0  0  0
    8.0210   -2.5975    0.0000 H   0  0  0  0  0  0  0  0  0  0  0  0
    1.8809   -1.5275    0.0000 H   0  0  0  0  0  0  0  0  0  0  0  0
    1.8809   -2.5975    0.0000 H   0  0  0  0  0  0  0  0  0  0  0  0
    6.1678   -2.3526    0.0000 H   0  0  0  0  0  0  0  0  0  0  0  0
    3.7341   -2.3526    0.0000 H   0  0  0  0  0  0  0  0  0  0  0  0
    5.1631    3.4226    0.0000 H   0  0  0  0  0  0  0  0  0  0  0  0
    3.3099    3.4226    0.0000 H   0  0  0  0  0  0  0  0  0  0  0  0
    4.2365    3.9576    0.0000 H   0  0  0  0  0  0  0  0  0  0  0  0
    8.7355   -2.7651    0.0000 H   0  0  0  0  0  0  0  0  0  0  0  0
    7.8089   -2.2301    0.0000 H   0  0  0  0  0  0  0  0  0  0  0  0
    1.1664   -2.7651    0.0000 H   0  0  0  0  0  0  0  0  0  0  0  0
    2.0930   -2.2301    0.0000 H   0  0  0  0  0  0  0  0  0  0  0  0
  1 19  1  0  0  0  0
  2 20  1  0  0  0  0
  3 23  1  0  0  0  0
  4 18  1  0  0  0  0
  4 35  1  0  0  0  0
  5 24  1  0  0  0  0
  5 36  1  0  0  0  0
  6 25  2  0  0  0  0
  7 30  1  0  0  0  0
  7 37  1  0  0  0  0
  8 31  1  0  0  0  0
  8 38  1  0  0  0  0
  9 26  2  0  0  0  0
 10 27  2  0  0  0  0
 11 33  1  0  0  0  0
 11 39  1  0  0  0  0
 12 34  1  0  0  0  0
 12 40  1  0  0  0  0
 13 16  1  0  0  0  0
 13 17  1  0  0  0  0
 13 25  1  0  0  0  0
 14 26  1  0  0  0  0
 14 28  1  0  0  0  0
 14 41  1  0  0  0  0
 15 27  1  0  0  0  0
 15 29  1  0  0  0  0
 15 42  1  0  0  0  0
 16 18  1  0  0  0  0
 16 43  1  0  0  0  0
 16 44  1  0  0  0  0
 17 19  2  0  0  0  0
 17 20  1  0  0  0  0
 18 24  1  0  0  0  0
 18 45  1  0  0  0  0
 19 21  1  0  0  0  0
 20 22  2  0  0  0  0
 21 23  2  0  0  0  0
 21 27  1  0  0  0  0
 22 23  1  0  0  0  0
 22 26  1  0  0  0  0
 24 46  1  0  0  0  0
 24 47  1  0  0  0  0
 25 32  1  0  0  0  0
 28 30  1  0  0  0  0
 28 48  1  0  0  0  0
 28 49  1  0  0  0  0
 29 31  1  0  0  0  0
 29 50  1  0  0  0  0
 29 51  1  0  0  0  0
 30 33  1  0  0  0  0
 30 52  1  0  0  0  0
 31 34  1  0  0  0  0
 31 53  1  0  0  0  0
 32 54  1  0  0  0  0
 32 55  1  0  0  0  0
 32 56  1  0  0  0  0
 33 57  1  0  0  0  0
 33 58  1  0  0  0  0
 34 59  1  0  0  0  0
 34 60  1  0  0  0  0
M  END
>  <DRUGBANK_ID>
DB01362

>  <COMMON_NAME>
Iohexol

>  <CAS_NUMBER>
66108-95-0

>  <UNII>
4419T9MX03

>  <SYNONYMS>
Iohexol; Iohexolum; N,N'-Bis(2,3-dihydroxypropyl)-5-(N-(2,3-dihydroxypropyl)acetamido)-2,4,6-triiodoisophthalamide

$$$$
