K2C
 OpenBabel10282417072D

 37 42  0  0  0  0  0  0  0  0999 V2000
    0.7194    1.5626    0.0000 C   0  0  0  0  0  0  0  0  0  0  0  0
    0.0519    2.0475    0.0000 N   0  0  0  0  0  0  0  0  0  0  0  0
    0.4644    0.7779    0.0000 C   0  0  0  0  0  0  0  0  0  0  0  0
    0.8769    0.0635    0.0000 C   0  0  0  0  0  0  0  0  0  0  0  0
    0.4644   -0.6510    0.0000 C   0  0  0  0  0  0  0  0  0  0  0  0
    1.0165   -1.2641    0.0000 N   0  0  0  0  0  0  0  0  0  0  0  0
    1.7701   -0.9285    0.0000 C   0  0  0  0  0  0  0  0  0  0  0  0
    1.6839   -0.1081    0.0000 C   0  0  0  0  0  0  0  0  0  0  0  0
    2.3514    0.3769    0.0000 C   0  0  0  0  0  0  0  0  0  0  0  0
    3.1050    0.0413    0.0000 C   0  0  0  0  0  0  0  0  0  0  0  0
    3.1913   -0.7792    0.0000 C   0  0  0  0  0  0  0  0  0  0  0  0
    2.5238   -1.2641    0.0000 C   0  0  0  0  0  0  0  0  0  0  0  0
   -1.4001    1.8175    0.0000 O   0  0  0  0  0  0  0  0  0  0  0  0
   -0.6155    1.5626    0.0000 C   0  0  0  0  0  0  0  0  0  0  0  0
   -0.3606    0.7779    0.0000 C   0  0  0  0  0  0  0  0  0  0  0  0
   -0.7731    0.0635    0.0000 C   0  0  0  0  0  0  0  0  0  0  0  0
   -0.3606   -0.6510    0.0000 C   0  0  0  0  0  0  0  0  0  0  0  0
   -0.9126   -1.2641    0.0000 N   0  0  0  0  0  0  0  0  0  0  0  0
   -1.6663   -0.9285    0.0000 C   0  0  0  0  0  0  0  0  0  0  0  0
   -1.5800   -0.1081    0.0000 C   0  0  0  0  0  0  0  0  0  0  0  0
   -2.2475    0.3769    0.0000 C   0  0  0  0  0  0  0  0  0  0  0  0
   -3.0011    0.0413    0.0000 C   0  0  0  0  0  0  0  0  0  0  0  0
   -3.0874   -0.7792    0.0000 C   0  0  0  0  0  0  0  0  0  0  0  0
   -2.4199   -1.2641    0.0000 C   0  0  0  0  0  0  0  0  0  0  0  0
    1.7370    1.8933    0.0000 H   0  0  0  0  0  0  0  0  0  0  0  0
    0.8867    2.6194    0.0000 H   0  0  0  0  0  0  0  0  0  0  0  0
    0.0519    3.0320    0.0000 H   0  0  0  0  0  0  0  0  0  0  0  0
    0.8119   -2.2271    0.0000 H   0  0  0  0  0  0  0  0  0  0  0  0
    2.2436    1.4032    0.0000 H   0  0  0  0  0  0  0  0  0  0  0  0
    3.9399    0.6479    0.0000 H   0  0  0  0  0  0  0  0  0  0  0  0
    4.1341   -1.1989    0.0000 H   0  0  0  0  0  0  0  0  0  0  0  0
    2.6316   -2.2905    0.0000 H   0  0  0  0  0  0  0  0  0  0  0  0
   -0.7079   -2.2271    0.0000 H   0  0  0  0  0  0  0  0  0  0  0  0
   -2.1397    1.4032    0.0000 H   0  0  0  0  0  0  0  0  0  0  0  0
   -3.8360    0.6479    0.0000 H   0  0  0  0  0  0  0  0  0  0  0  0
   -4.0302   -1.1989    0.0000 H   0  0  0  0  0  0  0  0  0  0  0  0
   -2.5277   -2.2905    0.0000 H   0  0  0  0  0  0  0  0  0  0  0  0
  1  3  1  0  0  0  0
  1 25  1  0  0  0  0
  1 26  1  0  0  0  0
  2  1  1  0  0  0  0
  2 27  1  0  0  0  0
  3  4  2  0  0  0  0
  4  5  1  0  0  0  0
  4  8  1  0  0  0  0
  5  6  1  0  0  0  0
  6  7  1  0  0  0  0
  6 28  1  0  0  0  0
  7 12  2  0  0  0  0
  8  9  2  0  0  0  0
  8  7  1  0  0  0  0
  9 10  1  0  0  0  0
  9 29  1  0  0  0  0
 10 11  2  0  0  0  0
 10 30  1  0  0  0  0
 11 31  1  0  0  0  0
 12 11  1  0  0  0  0
 12 32  1  0  0  0  0
 13 14  2  0  0  0  0
 14  2  1  0  0  0  0
 14 15  1  0  0  0  0
 15 16  2  0  0  0  0
 15  3  1  0  0  0  0
 16 17  1  0  0  0  0
 17  5  2  0  0  0  0
 18 17  1  0  0  0  0
 18 33  1  0  0  0  0
 19 18  1  0  0  0  0
 20 19  2  0  0  0  0
 20 16  1  0  0  0  0
 21 20  1  0  0  0  0
 21 34  1  0  0  0  0
 22 21  2  0  0  0  0
 22 23  1  0  0  0  0
 22 35  1  0  0  0  0
 23 24  2  0  0  0  0
 23 36  1  0  0  0  0
 24 19  1  0  0  0  0
 24 37  1  0  0  0  0
M  END
>  <DRUGBANK_ID>
DB08036

>  <COMMON_NAME>
6,7,12,13-tetrahydro-5H-indolo[2,3-a]pyrrolo[3,4-c]carbazol-5-one

>  <UNII>
HAJ5XS5HPF

$$$$
