
 OpenBabel10282417072D

 71 71  0  0  0  0  0  0  0  0999 V2000
   -1.7862   -5.1563    0.0000 O   0  0  0  0  0  0  0  0  0  0  0  0
   -1.7862   -2.6813    0.0000 O   0  0  0  0  0  0  0  0  0  0  0  0
   -3.2152   -3.5063    0.0000 O   0  0  0  0  0  0  0  0  0  0  0  0
   -3.2152   -5.9813    0.0000 O   0  0  0  0  0  0  0  0  0  0  0  0
    0.3572   -4.7438    0.0000 O   0  0  0  0  0  0  0  0  0  0  0  0
   -0.3572   -2.6813    0.0000 O   0  0  0  0  0  0  0  0  0  0  0  0
    1.7862   -3.9188    0.0000 O   0  0  0  0  0  0  0  0  0  0  0  0
    1.0717   -3.5063    0.0000 N   0  0  0  0  0  0  0  0  0  0  0  0
   -1.0717   -3.9188    0.0000 C   0  0  2  0  0  0  0  0  0  0  0  0
   -1.7862   -3.5063    0.0000 C   0  0  2  0  0  0  0  0  0  0  0  0
   -2.5006   -3.9188    0.0000 C   0  0  1  0  0  0  0  0  0  0  0  0
   -2.5006   -4.7438    0.0000 C   0  0  1  0  0  0  0  0  0  0  0  0
   -1.0717   -4.7438    0.0000 C   0  0  0  0  0  0  0  0  0  0  0  0
   -0.3572   -3.5063    0.0000 C   0  0  0  0  0  0  0  0  0  0  0  0
   -3.2152   -5.1563    0.0000 C   0  0  0  0  0  0  0  0  0  0  0  0
    0.3572   -3.9188    0.0000 C   0  0  0  0  0  0  0  0  0  0  0  0
   -1.0717   -2.2687    0.0000 C   0  0  0  0  0  0  0  0  0  0  0  0
   -1.0717   -1.4437    0.0000 C   0  0  0  0  0  0  0  0  0  0  0  0
   -0.3572   -1.0312    0.0000 C   0  0  0  0  0  0  0  0  0  0  0  0
   -0.3572   -0.2062    0.0000 C   0  0  0  0  0  0  0  0  0  0  0  0
    0.3572    0.2062    0.0000 C   0  0  0  0  0  0  0  0  0  0  0  0
    0.3572    1.0312    0.0000 C   0  0  0  0  0  0  0  0  0  0  0  0
    1.0717    1.4437    0.0000 C   0  0  0  0  0  0  0  0  0  0  0  0
    1.0717    2.2687    0.0000 C   0  0  0  0  0  0  0  0  0  0  0  0
    1.7862    2.6813    0.0000 C   0  0  0  0  0  0  0  0  0  0  0  0
    1.7862    3.5063    0.0000 C   0  0  0  0  0  0  0  0  0  0  0  0
    2.5006    3.9188    0.0000 C   0  0  0  0  0  0  0  0  0  0  0  0
    2.5006    4.7438    0.0000 C   0  0  0  0  0  0  0  0  0  0  0  0
    3.2152    5.1563    0.0000 C   0  0  0  0  0  0  0  0  0  0  0  0
    3.2152    5.9813    0.0000 C   0  0  0  0  0  0  0  0  0  0  0  0
    1.0717   -2.9948    0.0000 H   0  0  0  0  0  0  0  0  0  0  0  0
   -3.2153   -2.5363    0.0000 H   0  0  0  0  0  0  0  0  0  0  0  0
   -4.0552   -6.4663    0.0000 H   0  0  0  0  0  0  0  0  0  0  0  0
    1.7862   -4.8888    0.0000 H   0  0  0  0  0  0  0  0  0  0  0  0
   -1.0717   -2.8488    0.0000 H   0  0  0  0  0  0  0  0  0  0  0  0
   -0.8596   -2.9713    0.0000 H   0  0  0  0  0  0  0  0  0  0  0  0
   -2.5007   -2.8488    0.0000 H   0  0  0  0  0  0  0  0  0  0  0  0
   -2.5007   -5.8138    0.0000 H   0  0  0  0  0  0  0  0  0  0  0  0
   -0.1451   -5.2788    0.0000 H   0  0  0  0  0  0  0  0  0  0  0  0
   -0.1451   -4.2088    0.0000 H   0  0  0  0  0  0  0  0  0  0  0  0
   -0.3572   -2.4363    0.0000 H   0  0  0  0  0  0  0  0  0  0  0  0
    0.5695   -2.9713    0.0000 H   0  0  0  0  0  0  0  0  0  0  0  0
   -4.1418   -4.6213    0.0000 H   0  0  0  0  0  0  0  0  0  0  0  0
   -3.2151   -4.0863    0.0000 H   0  0  0  0  0  0  0  0  0  0  0  0
   -1.9983   -0.9087    0.0000 H   0  0  0  0  0  0  0  0  0  0  0  0
   -1.0717   -0.3737    0.0000 H   0  0  0  0  0  0  0  0  0  0  0  0
    0.5694   -1.5662    0.0000 H   0  0  0  0  0  0  0  0  0  0  0  0
    0.5694   -0.4962    0.0000 H   0  0  0  0  0  0  0  0  0  0  0  0
   -1.2838    0.3288    0.0000 H   0  0  0  0  0  0  0  0  0  0  0  0
   -0.3572    0.8638    0.0000 H   0  0  0  0  0  0  0  0  0  0  0  0
    1.2838   -0.3288    0.0000 H   0  0  0  0  0  0  0  0  0  0  0  0
    1.2839    0.7412    0.0000 H   0  0  0  0  0  0  0  0  0  0  0  0
   -0.5694    1.5662    0.0000 H   0  0  0  0  0  0  0  0  0  0  0  0
    0.3572    2.1012    0.0000 H   0  0  0  0  0  0  0  0  0  0  0  0
    1.9983    0.9087    0.0000 H   0  0  0  0  0  0  0  0  0  0  0  0
    1.9983    1.9787    0.0000 H   0  0  0  0  0  0  0  0  0  0  0  0
    0.1450    2.8037    0.0000 H   0  0  0  0  0  0  0  0  0  0  0  0
    1.0716    3.3387    0.0000 H   0  0  0  0  0  0  0  0  0  0  0  0
    2.7129    2.1463    0.0000 H   0  0  0  0  0  0  0  0  0  0  0  0
    2.7128    3.2163    0.0000 H   0  0  0  0  0  0  0  0  0  0  0  0
    0.8595    4.0413    0.0000 H   0  0  0  0  0  0  0  0  0  0  0  0
    1.7862    4.5763    0.0000 H   0  0  0  0  0  0  0  0  0  0  0  0
    3.4273    3.3838    0.0000 H   0  0  0  0  0  0  0  0  0  0  0  0
    3.4272    4.4538    0.0000 H   0  0  0  0  0  0  0  0  0  0  0  0
    1.5740    5.2788    0.0000 H   0  0  0  0  0  0  0  0  0  0  0  0
    2.5007    5.8138    0.0000 H   0  0  0  0  0  0  0  0  0  0  0  0
    4.1418    4.6213    0.0000 H   0  0  0  0  0  0  0  0  0  0  0  0
    4.1419    5.6913    0.0000 H   0  0  0  0  0  0  0  0  0  0  0  0
    4.1418    6.5163    0.0000 H   0  0  0  0  0  0  0  0  0  0  0  0
    2.2886    6.5163    0.0000 H   0  0  0  0  0  0  0  0  0  0  0  0
    3.2152    7.0513    0.0000 H   0  0  0  0  0  0  0  0  0  0  0  0
  1 12  1  0  0  0  0
  1 13  1  0  0  0  0
  2 17  1  0  0  0  0
  3 32  1  0  0  0  0
  4 15  1  0  0  0  0
  4 33  1  0  0  0  0
  5 16  2  0  0  0  0
  6 17  2  0  0  0  0
  7  8  1  0  0  0  0
  7 34  1  0  0  0  0
  8 16  1  0  0  0  0
  8 31  1  0  0  0  0
  9 10  1  0  0  0  0
  9 13  1  0  0  0  0
  9 14  1  0  0  0  0
  9 35  1  6  0  0  0
 10  2  1  0  0  0  0
 10 11  1  0  0  0  0
 10 36  1  1  0  0  0
 11  3  1  0  0  0  0
 11 12  1  0  0  0  0
 11 37  1  6  0  0  0
 12 15  1  0  0  0  0
 12 38  1  1  0  0  0
 13 39  1  0  0  0  0
 13 40  1  0  0  0  0
 14 16  1  0  0  0  0
 14 41  1  0  0  0  0
 14 42  1  0  0  0  0
 15 43  1  0  0  0  0
 15 44  1  0  0  0  0
 17 18  1  0  0  0  0
 18 19  1  0  0  0  0
 18 45  1  0  0  0  0
 18 46  1  0  0  0  0
 19 20  1  0  0  0  0
 19 47  1  0  0  0  0
 19 48  1  0  0  0  0
 20 21  1  0  0  0  0
 20 49  1  0  0  0  0
 20 50  1  0  0  0  0
 21 22  1  0  0  0  0
 21 51  1  0  0  0  0
 21 52  1  0  0  0  0
 22 23  1  0  0  0  0
 22 53  1  0  0  0  0
 22 54  1  0  0  0  0
 23 24  1  0  0  0  0
 23 55  1  0  0  0  0
 23 56  1  0  0  0  0
 24 25  1  0  0  0  0
 24 57  1  0  0  0  0
 24 58  1  0  0  0  0
 25 26  1  0  0  0  0
 25 59  1  0  0  0  0
 25 60  1  0  0  0  0
 26 27  1  0  0  0  0
 26 61  1  0  0  0  0
 26 62  1  0  0  0  0
 27 28  1  0  0  0  0
 27 63  1  0  0  0  0
 27 64  1  0  0  0  0
 28 29  1  0  0  0  0
 28 65  1  0  0  0  0
 28 66  1  0  0  0  0
 29 30  1  0  0  0  0
 29 67  1  0  0  0  0
 29 68  1  0  0  0  0
 30 69  1  0  0  0  0
 30 70  1  0  0  0  0
 30 71  1  0  0  0  0
M  END
>  <DRUGBANK_ID>
DB01991

>  <SECONDARY_ACCESSION_NUMBERS>
EXPT03132

>  <COMMON_NAME>
TU-514

$$$$
