
 OpenBabel10282417072D

 48 50  0  0  0  0  0  0  0  0999 V2000
   -1.8973   -1.5376    0.0000 O   0  0  0  0  0  0  0  0  0  0  0  0
    2.0807    1.1144    0.0000 O   0  0  0  0  0  0  0  0  0  0  0  0
   -2.1230    1.1144    0.0000 O   0  0  0  0  0  0  0  0  0  0  0  0
    1.4106   -0.1058    0.0000 O   0  0  0  0  0  0  0  0  0  0  0  0
   -1.4107   -0.1058    0.0000 O   0  0  0  0  0  0  0  0  0  0  0  0
   -0.0211    2.3346    0.0000 N   0  0  0  0  0  0  0  0  0  0  0  0
   -1.4530   -0.9240    0.0000 N   0  0  0  0  0  0  0  0  0  0  0  0
   -1.4530   -2.1512    0.0000 N   0  0  0  0  0  0  0  0  0  0  0  0
   -0.0211    0.6912    0.0000 C   0  0  3  0  0  0  0  0  0  0  0  0
   -0.0211   -0.7405    0.0000 C   0  0  0  0  0  0  0  0  0  0  0  0
    0.6912    1.1144    0.0000 C   0  0  0  0  0  0  0  0  0  0  0  0
   -0.7335    1.1144    0.0000 C   0  0  0  0  0  0  0  0  0  0  0  0
   -0.7335   -1.1567    0.0000 C   0  0  0  0  0  0  0  0  0  0  0  0
    0.6912    1.9114    0.0000 C   0  0  0  0  0  0  0  0  0  0  0  0
   -0.7335    1.9114    0.0000 C   0  0  0  0  0  0  0  0  0  0  0  0
   -0.7335   -1.9114    0.0000 C   0  0  0  0  0  0  0  0  0  0  0  0
    1.4106    0.6912    0.0000 C   0  0  0  0  0  0  0  0  0  0  0  0
   -1.4107    0.7335    0.0000 C   0  0  0  0  0  0  0  0  0  0  0  0
    0.6912   -1.1567    0.0000 C   0  0  0  0  0  0  0  0  0  0  0  0
   -0.0211   -2.3346    0.0000 C   0  0  0  0  0  0  0  0  0  0  0  0
    0.6912   -1.9114    0.0000 C   0  0  0  0  0  0  0  0  0  0  0  0
    1.4106    2.3346    0.0000 C   0  0  0  0  0  0  0  0  0  0  0  0
   -1.4107    2.3346    0.0000 C   0  0  0  0  0  0  0  0  0  0  0  0
    2.7930    0.6912    0.0000 C   0  0  0  0  0  0  0  0  0  0  0  0
   -2.8354    0.7335    0.0000 C   0  0  0  0  0  0  0  0  0  0  0  0
    3.5267    1.1073    0.0000 C   0  0  0  0  0  0  0  0  0  0  0  0
   -3.5267    1.1638    0.0000 C   0  0  0  0  0  0  0  0  0  0  0  0
   -0.0211    3.3191    0.0000 H   0  0  0  0  0  0  0  0  0  0  0  0
    0.9089    0.1620    0.0000 H   0  0  0  0  0  0  0  0  0  0  0  0
    1.5863   -0.6430    0.0000 H   0  0  0  0  0  0  0  0  0  0  0  0
   -0.0211   -3.3666    0.0000 H   0  0  0  0  0  0  0  0  0  0  0  0
    1.5881   -2.4218    0.0000 H   0  0  0  0  0  0  0  0  0  0  0  0
    2.3416    1.8072    0.0000 H   0  0  0  0  0  0  0  0  0  0  0  0
    1.4019    3.4046    0.0000 H   0  0  0  0  0  0  0  0  0  0  0  0
    2.3329    2.8771    0.0000 H   0  0  0  0  0  0  0  0  0  0  0  0
   -1.3733    3.4039    0.0000 H   0  0  0  0  0  0  0  0  0  0  0  0
   -2.3555    1.8323    0.0000 H   0  0  0  0  0  0  0  0  0  0  0  0
   -2.3181    2.9017    0.0000 H   0  0  0  0  0  0  0  0  0  0  0  0
    2.7822   -0.3787    0.0000 H   0  0  0  0  0  0  0  0  0  0  0  0
    3.7148    0.1480    0.0000 H   0  0  0  0  0  0  0  0  0  0  0  0
   -2.8706   -0.3359    0.0000 H   0  0  0  0  0  0  0  0  0  0  0  0
   -3.7792    0.2294    0.0000 H   0  0  0  0  0  0  0  0  0  0  0  0
    4.4492    0.5652    0.0000 H   0  0  0  0  0  0  0  0  0  0  0  0
    3.5349    2.1773    0.0000 H   0  0  0  0  0  0  0  0  0  0  0  0
    4.4574    1.6351    0.0000 H   0  0  0  0  0  0  0  0  0  0  0  0
   -3.4912    2.2332    0.0000 H   0  0  0  0  0  0  0  0  0  0  0  0
   -4.4706    0.6598    0.0000 H   0  0  0  0  0  0  0  0  0  0  0  0
   -4.4351    1.7292    0.0000 H   0  0  0  0  0  0  0  0  0  0  0  0
  1  7  1  0  0  0  0
  1  8  1  0  0  0  0
  2 17  1  0  0  0  0
  2 24  1  0  0  0  0
  3 18  1  0  0  0  0
  3 25  1  0  0  0  0
  4 17  2  0  0  0  0
  5 18  2  0  0  0  0
  6 14  1  0  0  0  0
  6 15  1  0  0  0  0
  6 28  1  0  0  0  0
  7 13  2  0  0  0  0
  8 16  2  0  0  0  0
  9 10  1  0  0  0  0
  9 11  1  0  0  0  0
  9 12  1  0  0  0  0
  9 29  1  0  0  0  0
 10 13  1  0  0  0  0
 10 19  2  0  0  0  0
 11 14  2  0  0  0  0
 11 17  1  0  0  0  0
 12 15  2  0  0  0  0
 12 18  1  0  0  0  0
 13 16  1  0  0  0  0
 14 22  1  0  0  0  0
 15 23  1  0  0  0  0
 16 20  1  0  0  0  0
 19 21  1  0  0  0  0
 19 30  1  0  0  0  0
 20 21  2  0  0  0  0
 20 31  1  0  0  0  0
 21 32  1  0  0  0  0
 22 33  1  0  0  0  0
 22 34  1  0  0  0  0
 22 35  1  0  0  0  0
 23 36  1  0  0  0  0
 23 37  1  0  0  0  0
 23 38  1  0  0  0  0
 24 26  1  0  0  0  0
 24 39  1  0  0  0  0
 24 40  1  0  0  0  0
 25 27  1  0  0  0  0
 25 41  1  0  0  0  0
 25 42  1  0  0  0  0
 26 43  1  0  0  0  0
 26 44  1  0  0  0  0
 26 45  1  0  0  0  0
 27 46  1  0  0  0  0
 27 47  1  0  0  0  0
 27 48  1  0  0  0  0
M  END
>  <DRUGBANK_ID>
DB09234

>  <COMMON_NAME>
Darodipine

>  <CAS_NUMBER>
72803-02-2

>  <UNII>
N4AL7X96GL

>  <SYNONYMS>
Darodipine

$$$$
