
 OpenBabel10282417072D

 34 36  0  0  1  0  0  0  0  0999 V2000
    0.0000   -1.6500    0.0000 O   0  0  0  0  0  0  0  0  0  0  0  0
    0.7145   -1.2375    0.0000 C   0  0  2  0  0  0  0  0  0  0  0  0
    0.7145   -0.4125    0.0000 C   0  0  2  0  0  0  0  0  0  0  0  0
    1.4289    0.0000    0.0000 O   0  0  0  0  0  0  0  0  0  0  0  0
    2.1434   -0.4125    0.0000 C   0  0  0  0  0  0  0  0  0  0  0  0
    2.8579    0.0000    0.0000 C   0  0  0  0  0  0  0  0  0  0  0  0
    3.5724   -0.4125    0.0000 C   0  0  0  0  0  0  0  0  0  0  0  0
    4.2868    0.0000    0.0000 O   0  0  0  0  0  0  0  0  0  0  0  0
    3.5724   -1.2375    0.0000 C   0  0  0  0  0  0  0  0  0  0  0  0
    2.8579   -1.6500    0.0000 C   0  0  0  0  0  0  0  0  0  0  0  0
    2.8579   -2.4750    0.0000 O   0  0  0  0  0  0  0  0  0  0  0  0
    2.1434   -1.2375    0.0000 C   0  0  0  0  0  0  0  0  0  0  0  0
    1.4289   -1.6500    0.0000 C   0  0  0  0  0  0  0  0  0  0  0  0
    1.4289   -2.4750    0.0000 O   0  0  0  0  0  0  0  0  0  0  0  0
    0.0000    0.0000    0.0000 C   0  0  0  0  0  0  0  0  0  0  0  0
   -0.7145   -0.4125    0.0000 C   0  0  0  0  0  0  0  0  0  0  0  0
   -1.4289    0.0000    0.0000 C   0  0  0  0  0  0  0  0  0  0  0  0
   -1.4289    0.8250    0.0000 C   0  0  0  0  0  0  0  0  0  0  0  0
   -2.1434    1.2375    0.0000 O   0  0  0  0  0  0  0  0  0  0  0  0
   -0.7145    1.2375    0.0000 C   0  0  0  0  0  0  0  0  0  0  0  0
   -0.7145    2.0625    0.0000 O   0  0  0  0  0  0  0  0  0  0  0  0
    0.0000    0.8250    0.0000 C   0  0  0  0  0  0  0  0  0  0  0  0
   -0.8400   -1.1650    0.0000 H   0  0  0  0  0  0  0  0  0  0  0  0
   -0.2121   -0.7025    0.0000 H   0  0  0  0  0  0  0  0  0  0  0  0
   -0.2121   -0.9475    0.0000 H   0  0  0  0  0  0  0  0  0  0  0  0
    2.8579    1.0320    0.0000 H   0  0  0  0  0  0  0  0  0  0  0  0
    5.0983   -0.4685    0.0000 H   0  0  0  0  0  0  0  0  0  0  0  0
    4.4661   -1.7535    0.0000 H   0  0  0  0  0  0  0  0  0  0  0  0
    2.0464   -2.9435    0.0000 H   0  0  0  0  0  0  0  0  0  0  0  0
   -0.7145   -1.4445    0.0000 H   0  0  0  0  0  0  0  0  0  0  0  0
   -2.3226   -0.5160    0.0000 H   0  0  0  0  0  0  0  0  0  0  0  0
   -2.1434    2.1745    0.0000 H   0  0  0  0  0  0  0  0  0  0  0  0
    0.0970    2.5310    0.0000 H   0  0  0  0  0  0  0  0  0  0  0  0
    0.8937    1.3410    0.0000 H   0  0  0  0  0  0  0  0  0  0  0  0
  1 23  1  0  0  0  0
  2  1  1  0  0  0  0
  2  3  1  0  0  0  0
  2 13  1  0  0  0  0
  2 24  1  1  0  0  0
  3  4  1  0  0  0  0
  3 15  1  0  0  0  0
  3 25  1  6  0  0  0
  4  5  1  0  0  0  0
  5  6  2  0  0  0  0
  5 12  1  0  0  0  0
  6  7  1  0  0  0  0
  6 26  1  0  0  0  0
  7  8  1  0  0  0  0
  7  9  2  0  0  0  0
  8 27  1  0  0  0  0
  9 10  1  0  0  0  0
  9 28  1  0  0  0  0
 10 11  1  0  0  0  0
 10 12  2  0  0  0  0
 11 29  1  0  0  0  0
 12 13  1  0  0  0  0
 13 14  2  0  0  0  0
 15 16  2  0  0  0  0
 15 22  1  0  0  0  0
 16 17  1  0  0  0  0
 16 30  1  0  0  0  0
 17 18  2  0  0  0  0
 17 31  1  0  0  0  0
 18 19  1  0  0  0  0
 18 20  1  0  0  0  0
 19 32  1  0  0  0  0
 20 21  1  0  0  0  0
 20 22  2  0  0  0  0
 21 33  1  0  0  0  0
 22 34  1  0  0  0  0
M  END
>  <DRUGBANK_ID>
DB02224

>  <SECONDARY_ACCESSION_NUMBERS>
EXPT01185

>  <COMMON_NAME>
Taxifolin

>  <CAS_NUMBER>
480-18-2

>  <UNII>
9SOB9E3987

>  <SYNONYMS>
(+)-(2R,3R)-dihydroquercetin; (+)-dihydroquercetin; (+)-taxifolin; (2R,3R)-(+)-taxifolin; (2R,3R)-3,3',4',5,7-pentahydroxyflavanone; (2R,3R)-dihydroquercetin; Dihydroquercetin

$$$$
