460
 OpenBabel10282417072D

 37 40  0  0  0  0  0  0  0  0999 V2000
    1.5148   -1.0243    0.0000 C   0  0  0  0  0  0  0  0  0  0  0  0
    0.7302   -1.2792    0.0000 C   0  0  0  0  0  0  0  0  0  0  0  0
    0.5587   -2.0862    0.0000 C   0  0  0  0  0  0  0  0  0  0  0  0
   -0.2260   -2.3412    0.0000 C   0  0  0  0  0  0  0  0  0  0  0  0
   -0.8390   -1.7891    0.0000 C   0  0  0  0  0  0  0  0  0  0  0  0
   -0.6675   -0.9822    0.0000 C   0  0  0  0  0  0  0  0  0  0  0  0
    0.1171   -0.7272    0.0000 N   0  0  0  0  0  0  0  0  0  0  0  0
   -1.2806   -0.4301    0.0000 C   0  0  0  0  0  0  0  0  0  0  0  0
   -2.0876   -0.6016    0.0000 N   0  0  0  0  0  0  0  0  0  0  0  0
   -2.5001    0.1128    0.0000 N   0  0  0  0  0  0  0  0  0  0  0  0
   -1.9481    0.7259    0.0000 C   0  0  0  0  0  0  0  0  0  0  0  0
   -1.1944    0.3904    0.0000 C   0  0  0  0  0  0  0  0  0  0  0  0
   -0.4799    0.8029    0.0000 C   0  0  0  0  0  0  0  0  0  0  0  0
   -0.4799    1.6279    0.0000 C   0  0  0  0  0  0  0  0  0  0  0  0
    0.2346    2.0404    0.0000 C   0  0  0  0  0  0  0  0  0  0  0  0
    0.9490    1.6279    0.0000 C   0  0  0  0  0  0  0  0  0  0  0  0
    1.6635    2.0404    0.0000 N   0  0  0  0  0  0  0  0  0  0  0  0
    2.3780    1.6279    0.0000 C   0  0  0  0  0  0  0  0  0  0  0  0
    2.3780    0.8029    0.0000 C   0  0  0  0  0  0  0  0  0  0  0  0
    1.6635    0.3904    0.0000 C   0  0  0  0  0  0  0  0  0  0  0  0
    0.9490    0.8029    0.0000 C   0  0  0  0  0  0  0  0  0  0  0  0
    0.2346    0.3904    0.0000 N   0  0  0  0  0  0  0  0  0  0  0  0
    2.3099   -1.7403    0.0000 H   0  0  0  0  0  0  0  0  0  0  0  0
    1.7373    0.0223    0.0000 H   0  0  0  0  0  0  0  0  0  0  0  0
    2.5324   -0.6937    0.0000 H   0  0  0  0  0  0  0  0  0  0  0  0
    1.3257   -2.7767    0.0000 H   0  0  0  0  0  0  0  0  0  0  0  0
   -0.4406   -3.3506    0.0000 H   0  0  0  0  0  0  0  0  0  0  0  0
   -1.8205   -2.1079    0.0000 H   0  0  0  0  0  0  0  0  0  0  0  0
   -2.4880   -1.5010    0.0000 H   0  0  0  0  0  0  0  0  0  0  0  0
   -3.5145    0.2194    0.0000 H   0  0  0  0  0  0  0  0  0  0  0  0
   -2.1706    1.7725    0.0000 H   0  0  0  0  0  0  0  0  0  0  0  0
   -1.1166    1.3993    0.0000 H   0  0  0  0  0  0  0  0  0  0  0  0
   -1.3736    2.1439    0.0000 H   0  0  0  0  0  0  0  0  0  0  0  0
    0.2346    3.0724    0.0000 H   0  0  0  0  0  0  0  0  0  0  0  0
    3.2717    2.1439    0.0000 H   0  0  0  0  0  0  0  0  0  0  0  0
    3.2717    0.2869    0.0000 H   0  0  0  0  0  0  0  0  0  0  0  0
    1.6635   -0.6416    0.0000 H   0  0  0  0  0  0  0  0  0  0  0  0
  1  2  1  0  0  0  0
  1 23  1  0  0  0  0
  1 24  1  0  0  0  0
  1 25  1  0  0  0  0
  2  3  2  0  0  0  0
  2  7  1  0  0  0  0
  3  4  1  0  0  0  0
  3 26  1  0  0  0  0
  4  5  2  0  0  0  0
  4 27  1  0  0  0  0
  5  6  1  0  0  0  0
  5 28  1  0  0  0  0
  6  7  2  0  0  0  0
  6  8  1  0  0  0  0
  8  9  1  0  0  0  0
  8 12  2  0  0  0  0
  9 10  1  0  0  0  0
  9 29  1  0  0  0  0
 10 11  1  0  0  0  0
 10 30  1  0  0  0  0
 11 12  1  0  0  0  0
 11 31  1  0  0  0  0
 11 32  1  0  0  0  0
 12 13  1  0  0  0  0
 13 14  2  0  0  0  0
 13 22  1  0  0  0  0
 14 15  1  0  0  0  0
 14 33  1  0  0  0  0
 15 16  2  0  0  0  0
 15 34  1  0  0  0  0
 16 17  1  0  0  0  0
 16 21  1  0  0  0  0
 17 18  2  0  0  0  0
 18 19  1  0  0  0  0
 18 35  1  0  0  0  0
 19 20  2  0  0  0  0
 19 36  1  0  0  0  0
 20 21  1  0  0  0  0
 20 37  1  0  0  0  0
 21 22  2  0  0  0  0
M  END
>  <DRUGBANK_ID>
DB04434

>  <SECONDARY_ACCESSION_NUMBERS>
EXPT00199

>  <COMMON_NAME>
Naphthyridine Inhibitor

$$$$
