
 OpenBabel10282417072D

 80 85  0  0  0  0  0  0  0  0999 V2000
    2.6483    0.7941    0.0000 C   0  0  0  0  0  0  0  0  0  0  0  0
   -3.0868   -0.0389    0.0000 C   0  0  0  0  0  0  0  0  0  0  0  0
    3.4767    0.8819    0.0000 C   0  0  0  0  0  0  0  0  0  0  0  0
    2.4876   -0.0244    0.0000 C   0  0  0  0  0  0  0  0  0  0  0  0
   -3.7593   -0.5360    0.0000 C   0  0  0  0  0  0  0  0  0  0  0  0
   -2.4242   -0.5311    0.0000 C   0  0  0  0  0  0  0  0  0  0  0  0
   -3.5059   -1.3204    0.0000 C   0  0  0  0  0  0  0  0  0  0  0  0
    3.8129    0.1267    0.0000 C   0  0  0  0  0  0  0  0  0  0  0  0
    3.2038   -0.4337    0.0000 C   0  0  0  0  0  0  0  0  0  0  0  0
   -2.6775   -1.3108    0.0000 C   0  0  0  0  0  0  0  0  0  0  0  0
   -3.0966    0.7845    0.0000 N   0  3  0  0  0  0  0  0  0  0  0  0
    1.9320    1.2035    0.0000 N   0  3  0  0  0  0  0  0  0  0  0  0
   -4.5633   -0.3606    0.0000 C   0  0  0  0  0  0  0  0  0  0  0  0
    3.9494    1.5447    0.0000 C   0  0  0  0  0  0  0  0  0  0  0  0
    1.7712   -0.4433    0.0000 C   0  0  0  0  0  0  0  0  0  0  0  0
   -1.6201   -0.3606    0.0000 C   0  0  0  0  0  0  0  0  0  0  0  0
    4.6315    0.0486    0.0000 C   0  0  0  0  0  0  0  0  0  0  0  0
    3.2135   -1.2523    0.0000 C   0  0  0  0  0  0  0  0  0  0  0  0
   -2.1318   -1.9247    0.0000 C   0  0  0  0  0  0  0  0  0  0  0  0
   -4.0517   -1.9247    0.0000 C   0  0  0  0  0  0  0  0  0  0  0  0
    1.2157    0.7941    0.0000 C   0  0  0  0  0  0  0  0  0  0  0  0
   -2.3706    1.2035    0.0000 C   0  0  0  0  0  0  0  0  0  0  0  0
    2.3413    1.9247    0.0000 C   0  0  0  0  0  0  0  0  0  0  0  0
    1.5081    1.9247    0.0000 C   0  0  0  0  0  0  0  0  0  0  0  0
   -3.5108    1.5105    0.0000 C   0  0  0  0  0  0  0  0  0  0  0  0
   -3.9201    0.7845    0.0000 C   0  0  0  0  0  0  0  0  0  0  0  0
   -1.6543    0.7941    0.0000 C   0  0  0  0  0  0  0  0  0  0  0  0
    0.4946    1.2035    0.0000 C   0  0  0  0  0  0  0  0  0  0  0  0
   -5.1139   -0.9745    0.0000 C   0  0  0  0  0  0  0  0  0  0  0  0
    4.7680    1.4666    0.0000 C   0  0  0  0  0  0  0  0  0  0  0  0
   -1.0646   -0.9745    0.0000 C   0  0  0  0  0  0  0  0  0  0  0  0
    1.7859   -1.2669    0.0000 C   0  0  0  0  0  0  0  0  0  0  0  0
   -0.2217    0.7941    0.0000 C   0  0  0  0  0  0  0  0  0  0  0  0
   -0.9429    1.2035    0.0000 C   0  0  0  0  0  0  0  0  0  0  0  0
    2.5021   -1.6713    0.0000 C   0  0  0  0  0  0  0  0  0  0  0  0
   -4.8557   -1.7639    0.0000 C   0  0  0  0  0  0  0  0  0  0  0  0
    5.1139    0.7114    0.0000 C   0  0  0  0  0  0  0  0  0  0  0  0
   -1.3277   -1.7590    0.0000 C   0  0  0  0  0  0  0  0  0  0  0  0
    1.6752    0.3492    0.0000 H   0  0  0  0  0  0  0  0  0  0  0  0
   -3.0881   -1.1089    0.0000 H   0  0  0  0  0  0  0  0  0  0  0  0
   -4.8805    0.6214    0.0000 H   0  0  0  0  0  0  0  0  0  0  0  0
    3.5210    2.4836    0.0000 H   0  0  0  0  0  0  0  0  0  0  0  0
    0.8715    0.0622    0.0000 H   0  0  0  0  0  0  0  0  0  0  0  0
   -1.3022    0.6212    0.0000 H   0  0  0  0  0  0  0  0  0  0  0  0
    5.0554   -0.8923    0.0000 H   0  0  0  0  0  0  0  0  0  0  0  0
    4.1125   -1.7591    0.0000 H   0  0  0  0  0  0  0  0  0  0  0  0
   -2.4569   -2.9042    0.0000 H   0  0  0  0  0  0  0  0  0  0  0  0
   -3.7276   -2.9045    0.0000 H   0  0  0  0  0  0  0  0  0  0  0  0
    1.2172   -0.2759    0.0000 H   0  0  0  0  0  0  0  0  0  0  0  0
    0.2914    0.2551    0.0000 H   0  0  0  0  0  0  0  0  0  0  0  0
   -2.3728    2.2735    0.0000 H   0  0  0  0  0  0  0  0  0  0  0  0
   -1.4457    1.7415    0.0000 H   0  0  0  0  0  0  0  0  0  0  0  0
    3.4113    1.9326    0.0000 H   0  0  0  0  0  0  0  0  0  0  0  0
    1.7995    2.8474    0.0000 H   0  0  0  0  0  0  0  0  0  0  0  0
    2.8694    2.8553    0.0000 H   0  0  0  0  0  0  0  0  0  0  0  0
    2.0359    2.8555    0.0000 H   0  0  0  0  0  0  0  0  0  0  0  0
    0.4381    1.9164    0.0000 H   0  0  0  0  0  0  0  0  0  0  0  0
    0.9659    2.8472    0.0000 H   0  0  0  0  0  0  0  0  0  0  0  0
   -2.9710    2.4344    0.0000 H   0  0  0  0  0  0  0  0  0  0  0  0
   -4.5808    1.5160    0.0000 H   0  0  0  0  0  0  0  0  0  0  0  0
   -4.0410    2.4399    0.0000 H   0  0  0  0  0  0  0  0  0  0  0  0
   -4.4551    1.7111    0.0000 H   0  0  0  0  0  0  0  0  0  0  0  0
   -4.4551   -0.1421    0.0000 H   0  0  0  0  0  0  0  0  0  0  0  0
   -4.9901    0.7845    0.0000 H   0  0  0  0  0  0  0  0  0  0  0  0
   -1.6527   -0.2759    0.0000 H   0  0  0  0  0  0  0  0  0  0  0  0
   -0.7276    0.2591    0.0000 H   0  0  0  0  0  0  0  0  0  0  0  0
    0.4931    2.2735    0.0000 H   0  0  0  0  0  0  0  0  0  0  0  0
   -0.4313    1.7399    0.0000 H   0  0  0  0  0  0  0  0  0  0  0  0
   -6.1238   -0.7619    0.0000 H   0  0  0  0  0  0  0  0  0  0  0  0
    5.3661    2.3076    0.0000 H   0  0  0  0  0  0  0  0  0  0  0  0
   -0.0544   -0.7635    0.0000 H   0  0  0  0  0  0  0  0  0  0  0  0
    0.8993   -1.7951    0.0000 H   0  0  0  0  0  0  0  0  0  0  0  0
   -0.2201   -0.2759    0.0000 H   0  0  0  0  0  0  0  0  0  0  0  0
   -1.1460    0.2550    0.0000 H   0  0  0  0  0  0  0  0  0  0  0  0
   -0.9461    2.2735    0.0000 H   0  0  0  0  0  0  0  0  0  0  0  0
   -0.0190    1.7432    0.0000 H   0  0  0  0  0  0  0  0  0  0  0  0
    2.5115   -2.7033    0.0000 H   0  0  0  0  0  0  0  0  0  0  0  0
   -5.5409   -2.5356    0.0000 H   0  0  0  0  0  0  0  0  0  0  0  0
    6.1408    0.6086    0.0000 H   0  0  0  0  0  0  0  0  0  0  0  0
   -0.6432   -2.5313    0.0000 H   0  0  0  0  0  0  0  0  0  0  0  0
  1 39  1  0  0  0  0
  2 11  1  0  0  0  0
  2 40  1  0  0  0  0
  3  1  1  0  0  0  0
  4  1  1  0  0  0  0
  5  2  1  0  0  0  0
  6  2  1  0  0  0  0
  7  5  2  0  0  0  0
  8  3  2  0  0  0  0
  8  9  1  0  0  0  0
  9  4  2  0  0  0  0
 10  6  2  0  0  0  0
 10  7  1  0  0  0  0
 11 22  1  0  0  0  0
 12  1  1  0  0  0  0
 13  5  1  0  0  0  0
 13 41  1  0  0  0  0
 14  3  1  0  0  0  0
 14 42  1  0  0  0  0
 15  4  1  0  0  0  0
 15 43  1  0  0  0  0
 16  6  1  0  0  0  0
 16 44  1  0  0  0  0
 17  8  1  0  0  0  0
 17 45  1  0  0  0  0
 18  9  1  0  0  0  0
 18 35  2  0  0  0  0
 18 46  1  0  0  0  0
 19 10  1  0  0  0  0
 19 47  1  0  0  0  0
 20  7  1  0  0  0  0
 20 48  1  0  0  0  0
 21 12  1  0  0  0  0
 21 49  1  0  0  0  0
 21 50  1  0  0  0  0
 22 27  1  0  0  0  0
 22 51  1  0  0  0  0
 22 52  1  0  0  0  0
 23 12  1  0  0  0  0
 23 53  1  0  0  0  0
 23 54  1  0  0  0  0
 23 55  1  0  0  0  0
 24 12  1  0  0  0  0
 24 56  1  0  0  0  0
 24 57  1  0  0  0  0
 24 58  1  0  0  0  0
 25 11  1  0  0  0  0
 25 59  1  0  0  0  0
 25 60  1  0  0  0  0
 25 61  1  0  0  0  0
 26 11  1  0  0  0  0
 26 62  1  0  0  0  0
 26 63  1  0  0  0  0
 26 64  1  0  0  0  0
 27 34  1  0  0  0  0
 27 65  1  0  0  0  0
 27 66  1  0  0  0  0
 28 21  1  0  0  0  0
 28 67  1  0  0  0  0
 28 68  1  0  0  0  0
 29 13  2  0  0  0  0
 29 69  1  0  0  0  0
 30 14  2  0  0  0  0
 30 70  1  0  0  0  0
 31 16  2  0  0  0  0
 31 71  1  0  0  0  0
 32 15  2  0  0  0  0
 32 72  1  0  0  0  0
 33 28  1  0  0  0  0
 33 73  1  0  0  0  0
 33 74  1  0  0  0  0
 34 33  1  0  0  0  0
 34 75  1  0  0  0  0
 34 76  1  0  0  0  0
 35 32  1  0  0  0  0
 35 77  1  0  0  0  0
 36 29  1  0  0  0  0
 36 20  2  0  0  0  0
 36 78  1  0  0  0  0
 37 30  1  0  0  0  0
 37 17  2  0  0  0  0
 37 79  1  0  0  0  0
 38 31  1  0  0  0  0
 38 19  2  0  0  0  0
 38 80  1  0  0  0  0
M  CHG  2  11   1  12   1
M  END
>  <DRUGBANK_ID>
DB00941

>  <SECONDARY_ACCESSION_NUMBERS>
APRD01013

>  <COMMON_NAME>
Hexafluronium

>  <CAS_NUMBER>
4844-10-4

>  <UNII>
55W5L6G81R

>  <SYNONYMS>
Hexafluorenium; Hexafluorenium cation; Hexafluorenium ion; Hexamethylenebis(fluoren-9-yldimethylammonium)

$$$$
