4HD
 OpenBabel10282417072D

 57 56  0  0  0  0  0  0  0  0999 V2000
   -3.9422   -1.6735    0.0000 O   0  0  0  0  0  0  0  0  0  0  0  0
   -3.2277   -2.9110    0.0000 O   0  0  0  0  0  0  0  0  0  0  0  0
   -3.2277   -2.0860    0.0000 C   0  0  0  0  0  0  0  0  0  0  0  0
   -2.5133   -1.6735    0.0000 C   0  0  0  0  0  0  0  0  0  0  0  0
   -1.7988   -2.0860    0.0000 C   0  0  0  0  0  0  0  0  0  0  0  0
   -1.0843   -1.6735    0.0000 C   0  0  1  0  0  0  0  0  0  0  0  0
   -0.3699   -2.0860    0.0000 C   0  0  0  0  0  0  0  0  0  0  0  0
    0.3446   -1.6735    0.0000 C   0  0  0  0  0  0  0  0  0  0  0  0
    1.0591   -2.0860    0.0000 C   0  0  0  0  0  0  0  0  0  0  0  0
    1.7736   -1.6735    0.0000 C   0  0  0  0  0  0  0  0  0  0  0  0
    1.7736   -0.8485    0.0000 C   0  0  0  0  0  0  0  0  0  0  0  0
    2.4880   -0.4360    0.0000 C   0  0  0  0  0  0  0  0  0  0  0  0
    2.4880    0.3890    0.0000 C   0  0  0  0  0  0  0  0  0  0  0  0
    1.7736    0.8015    0.0000 C   0  0  0  0  0  0  0  0  0  0  0  0
    1.7736    1.6265    0.0000 C   0  0  0  0  0  0  0  0  0  0  0  0
    1.0591    2.0390    0.0000 C   0  0  0  0  0  0  0  0  0  0  0  0
    0.3446    1.6265    0.0000 C   0  0  0  0  0  0  0  0  0  0  0  0
   -0.3699    2.0390    0.0000 C   0  0  0  0  0  0  0  0  0  0  0  0
   -1.0843    1.6265    0.0000 C   0  0  0  0  0  0  0  0  0  0  0  0
   -1.0843    0.8015    0.0000 C   0  0  0  0  0  0  0  0  0  0  0  0
   -1.7988    0.3890    0.0000 C   0  0  0  0  0  0  0  0  0  0  0  0
   -2.5133    0.8015    0.0000 C   0  0  0  0  0  0  0  0  0  0  0  0
   -2.5133    1.6265    0.0000 C   0  0  0  0  0  0  0  0  0  0  0  0
   -1.7988    2.0390    0.0000 C   0  0  0  0  0  0  0  0  0  0  0  0
   -1.0843   -0.8485    0.0000 O   0  0  0  0  0  0  0  0  0  0  0  0
   -1.0843   -2.2574    0.0000 H   0  0  0  0  0  0  0  0  0  0  0  0
   -3.9422   -0.7365    0.0000 H   0  0  0  0  0  0  0  0  0  0  0  0
   -2.5133   -0.6035    0.0000 H   0  0  0  0  0  0  0  0  0  0  0  0
   -1.5867   -1.1385    0.0000 H   0  0  0  0  0  0  0  0  0  0  0  0
   -1.7988   -3.1560    0.0000 H   0  0  0  0  0  0  0  0  0  0  0  0
   -0.8722   -2.6210    0.0000 H   0  0  0  0  0  0  0  0  0  0  0  0
   -0.3699   -3.1180    0.0000 H   0  0  0  0  0  0  0  0  0  0  0  0
    0.3446   -0.6415    0.0000 H   0  0  0  0  0  0  0  0  0  0  0  0
    1.0591   -3.1180    0.0000 H   0  0  0  0  0  0  0  0  0  0  0  0
    2.6673   -2.1895    0.0000 H   0  0  0  0  0  0  0  0  0  0  0  0
    0.8469   -0.3135    0.0000 H   0  0  0  0  0  0  0  0  0  0  0  0
    1.7736    0.2215    0.0000 H   0  0  0  0  0  0  0  0  0  0  0  0
    3.3817   -0.9520    0.0000 H   0  0  0  0  0  0  0  0  0  0  0  0
    3.3817    0.9050    0.0000 H   0  0  0  0  0  0  0  0  0  0  0  0
    0.8469    0.2665    0.0000 H   0  0  0  0  0  0  0  0  0  0  0  0
    0.8470    1.3365    0.0000 H   0  0  0  0  0  0  0  0  0  0  0  0
    2.6673    2.1425    0.0000 H   0  0  0  0  0  0  0  0  0  0  0  0
    1.0591    3.0710    0.0000 H   0  0  0  0  0  0  0  0  0  0  0  0
    0.3446    0.5565    0.0000 H   0  0  0  0  0  0  0  0  0  0  0  0
   -0.5820    1.0915    0.0000 H   0  0  0  0  0  0  0  0  0  0  0  0
   -0.3699    3.0710    0.0000 H   0  0  0  0  0  0  0  0  0  0  0  0
   -1.9780    2.1425    0.0000 H   0  0  0  0  0  0  0  0  0  0  0  0
   -0.1577    0.2665    0.0000 H   0  0  0  0  0  0  0  0  0  0  0  0
   -1.0843   -0.2685    0.0000 H   0  0  0  0  0  0  0  0  0  0  0  0
   -1.7988   -0.6430    0.0000 H   0  0  0  0  0  0  0  0  0  0  0  0
   -3.4070    0.2855    0.0000 H   0  0  0  0  0  0  0  0  0  0  0  0
   -3.4399    2.1615    0.0000 H   0  0  0  0  0  0  0  0  0  0  0  0
   -2.5133    2.6965    0.0000 H   0  0  0  0  0  0  0  0  0  0  0  0
   -0.8722    1.5040    0.0000 H   0  0  0  0  0  0  0  0  0  0  0  0
   -1.7988    3.1090    0.0000 H   0  0  0  0  0  0  0  0  0  0  0  0
   -0.8721    2.5740    0.0000 H   0  0  0  0  0  0  0  0  0  0  0  0
   -0.2443   -0.3635    0.0000 H   0  0  0  0  0  0  0  0  0  0  0  0
  1  3  1  0  0  0  0
  1 27  1  0  0  0  0
  2  3  2  0  0  0  0
  3  4  1  0  0  0  0
  4  5  1  0  0  0  0
  4 28  1  0  0  0  0
  4 29  1  0  0  0  0
  5  6  1  0  0  0  0
  5 30  1  0  0  0  0
  5 31  1  0  0  0  0
  6  7  1  0  0  0  0
  6 25  1  0  0  0  0
  6 26  1  1  0  0  0
  7  8  2  0  0  0  0
  7 32  1  0  0  0  0
  8  9  1  0  0  0  0
  8 33  1  0  0  0  0
  9 10  2  0  0  0  0
  9 34  1  0  0  0  0
 10 11  1  0  0  0  0
 10 35  1  0  0  0  0
 11 12  1  0  0  0  0
 11 36  1  0  0  0  0
 11 37  1  0  0  0  0
 12 13  2  0  0  0  0
 12 38  1  0  0  0  0
 13 14  1  0  0  0  0
 13 39  1  0  0  0  0
 14 15  1  0  0  0  0
 14 40  1  0  0  0  0
 14 41  1  0  0  0  0
 15 16  2  0  0  0  0
 15 42  1  0  0  0  0
 16 17  1  0  0  0  0
 16 43  1  0  0  0  0
 17 18  1  0  0  0  0
 17 44  1  0  0  0  0
 17 45  1  0  0  0  0
 18 19  2  0  0  0  0
 18 46  1  0  0  0  0
 19 20  1  0  0  0  0
 19 47  1  0  0  0  0
 20 21  1  0  0  0  0
 20 48  1  0  0  0  0
 20 49  1  0  0  0  0
 21 22  2  0  0  0  0
 21 50  1  0  0  0  0
 22 23  1  0  0  0  0
 22 51  1  0  0  0  0
 23 24  1  0  0  0  0
 23 52  1  0  0  0  0
 23 53  1  0  0  0  0
 24 54  1  0  0  0  0
 24 55  1  0  0  0  0
 24 56  1  0  0  0  0
 25 57  1  0  0  0  0
M  END
>  <DRUGBANK_ID>
DB07111

>  <COMMON_NAME>
(4S,5E,7Z,10Z,13Z,16Z,19Z)-4-hydroxydocosa-5,7,10,13,16,19-hexaenoic acid

$$$$
