
 OpenBabel10282417072D

 92 99  0  0  1  0  0  0  0  0999 V2000
    4.1884   -0.4220    0.0000 C   0  0  0  0  0  0  0  0  0  0  0  0
    4.9168   -0.8093    0.0000 C   0  0  0  0  0  0  0  0  0  0  0  0
    5.6165   -0.3721    0.0000 C   0  0  1  0  0  0  0  0  0  0  0  0
    5.9255   -1.1370    0.0000 O   0  0  0  0  0  0  0  0  0  0  0  0
    5.4176   -1.7872    0.0000 C   0  0  0  0  0  0  0  0  0  0  0  0
    4.6006   -1.6723    0.0000 O   0  0  0  0  0  0  0  0  0  0  0  0
    5.7267   -2.5521    0.0000 C   0  0  3  0  0  0  0  0  0  0  0  0
    5.2187   -3.2022    0.0000 C   0  0  0  0  0  0  0  0  0  0  0  0
    6.5436   -2.6669    0.0000 O   0  0  0  0  0  0  0  0  0  0  0  0
    6.8527   -3.4318    0.0000 N   0  0  0  0  0  0  0  0  0  0  0  0
    7.6697   -3.5466    0.0000 C   0  0  0  0  0  0  0  0  0  0  0  0
    8.0570   -4.2751    0.0000 C   0  0  0  0  0  0  0  0  0  0  0  0
    8.8694   -4.1318    0.0000 C   0  0  0  0  0  0  0  0  0  0  0  0
    8.9843   -3.3148    0.0000 C   0  0  0  0  0  0  0  0  0  0  0  0
    8.2428   -2.9532    0.0000 C   0  0  0  0  0  0  0  0  0  0  0  0
    8.1852   -2.1302    0.0000 C   0  0  0  0  0  0  0  0  0  0  0  0
    8.8692   -1.6689    0.0000 C   0  0  0  0  0  0  0  0  0  0  0  0
    9.6107   -2.0305    0.0000 C   0  0  0  0  0  0  0  0  0  0  0  0
    9.6682   -2.8535    0.0000 C   0  0  0  0  0  0  0  0  0  0  0  0
   10.4097   -3.2152    0.0000 N   0  3  0  0  0  0  0  0  0  0  0  0
   11.0937   -2.7538    0.0000 O   0  5  0  0  0  0  0  0  0  0  0  0
   10.4673   -4.0382    0.0000 O   0  0  0  0  0  0  0  0  0  0  0  0
    8.8116   -0.8459    0.0000 N   0  3  0  0  0  0  0  0  0  0  0  0
    9.4956   -0.3845    0.0000 O   0  5  0  0  0  0  0  0  0  0  0  0
    8.0701   -0.4842    0.0000 O   0  0  0  0  0  0  0  0  0  0  0  0
    9.3997   -4.7638    0.0000 C   0  0  0  0  0  0  0  0  0  0  0  0
    9.1176   -5.5391    0.0000 C   0  0  0  0  0  0  0  0  0  0  0  0
    8.3051   -5.6823    0.0000 C   0  0  0  0  0  0  0  0  0  0  0  0
    7.7748   -5.0503    0.0000 C   0  0  0  0  0  0  0  0  0  0  0  0
    8.0229   -6.4576    0.0000 N   0  3  0  0  0  0  0  0  0  0  0  0
    7.2105   -6.6008    0.0000 O   0  5  0  0  0  0  0  0  0  0  0  0
    8.5532   -7.0895    0.0000 O   0  0  0  0  0  0  0  0  0  0  0  0
   10.2122   -4.6205    0.0000 N   0  3  0  0  0  0  0  0  0  0  0  0
   10.7425   -5.2525    0.0000 O   0  5  0  0  0  0  0  0  0  0  0  0
   10.8962   -4.1592    0.0000 O   0  0  0  0  0  0  0  0  0  0  0  0
    6.4235   -0.2006    0.0000 C   0  0  0  0  0  0  0  0  0  0  0  0
    6.9755   -0.8137    0.0000 O   0  0  0  0  0  0  0  0  0  0  0  0
    6.6784    0.5840    0.0000 O   0  0  0  0  0  0  0  0  0  0  0  0
    6.1264    1.1971    0.0000 C   0  0  0  0  0  0  0  0  0  0  0  0
    5.3194    1.0256    0.0000 C   0  0  0  0  0  0  0  0  0  0  0  0
    5.0645    0.2410    0.0000 C   0  0  0  0  0  0  0  0  0  0  0  0
    4.2575    0.0694    0.0000 C   0  0  0  0  0  0  0  0  0  0  0  0
    3.7054    0.6825    0.0000 C   0  0  0  0  0  0  0  0  0  0  0  0
    3.9604    1.4672    0.0000 N   0  0  0  0  0  0  0  0  0  0  0  0
    3.2929    1.9521    0.0000 C   0  0  0  0  0  0  0  0  0  0  0  0
    2.6255    1.4672    0.0000 C   0  0  0  0  0  0  0  0  0  0  0  0
    2.8804    0.6825    0.0000 C   0  0  0  0  0  0  0  0  0  0  0  0
    2.3284    0.0694    0.0000 N   0  0  0  0  0  0  0  0  0  0  0  0
    1.5214    0.2410    0.0000 C   0  0  0  0  0  0  0  0  0  0  0  0
    0.9694   -0.3721    0.0000 C   0  0  0  0  0  0  0  0  0  0  0  0
    0.1624   -0.2006    0.0000 C   0  0  0  0  0  0  0  0  0  0  0  0
   -0.0925    0.5840    0.0000 C   0  0  0  0  0  0  0  0  0  0  0  0
   -0.8995    0.7556    0.0000 O   0  0  0  0  0  0  0  0  0  0  0  0
    0.4595    1.1971    0.0000 C   0  0  0  0  0  0  0  0  0  0  0  0
    0.2046    1.9817    0.0000 C   0  0  0  0  0  0  0  0  0  0  0  0
   -0.6024    2.1533    0.0000 N   0  0  0  0  0  0  0  0  0  0  0  0
   -1.1544    1.5402    0.0000 C   0  0  0  0  0  0  0  0  0  0  0  0
   -0.8573    2.9379    0.0000 C   0  0  0  0  0  0  0  0  0  0  0  0
    1.2665    1.0256    0.0000 C   0  0  0  0  0  0  0  0  0  0  0  0
    1.8185    1.6387    0.0000 C   0  0  0  0  0  0  0  0  0  0  0  0
    4.7674    1.6387    0.0000 C   0  0  0  0  0  0  0  0  0  0  0  0
    5.0223    2.4233    0.0000 O   0  0  0  0  0  0  0  0  0  0  0  0
    4.1511    0.6473    0.0000 H   0  0  0  0  0  0  0  0  0  0  0  0
    3.2810   -0.9890    0.0000 H   0  0  0  0  0  0  0  0  0  0  0  0
    3.2436    0.0803    0.0000 H   0  0  0  0  0  0  0  0  0  0  0  0
    4.9541   -1.8786    0.0000 H   0  0  0  0  0  0  0  0  0  0  0  0
    5.8615   -1.3117    0.0000 H   0  0  0  0  0  0  0  0  0  0  0  0
    4.6671   -2.4032    0.0000 H   0  0  0  0  0  0  0  0  0  0  0  0
    4.1591   -3.0532    0.0000 H   0  0  0  0  0  0  0  0  0  0  0  0
    5.6194   -4.1943    0.0000 H   0  0  0  0  0  0  0  0  0  0  0  0
    4.5599   -4.0453    0.0000 H   0  0  0  0  0  0  0  0  0  0  0  0
    7.2576   -1.6778    0.0000 H   0  0  0  0  0  0  0  0  0  0  0  0
   10.4663   -1.4534    0.0000 H   0  0  0  0  0  0  0  0  0  0  0  0
    9.7810   -6.3297    0.0000 H   0  0  0  0  0  0  0  0  0  0  0  0
    6.7585   -5.2295    0.0000 H   0  0  0  0  0  0  0  0  0  0  0  0
    6.4571    2.2147    0.0000 H   0  0  0  0  0  0  0  0  0  0  0  0
    5.4105    1.9923    0.0000 H   0  0  0  0  0  0  0  0  0  0  0  0
    3.9387   -0.9121    0.0000 H   0  0  0  0  0  0  0  0  0  0  0  0
    3.2929    3.0221    0.0000 H   0  0  0  0  0  0  0  0  0  0  0  0
    2.3395    2.4379    0.0000 H   0  0  0  0  0  0  0  0  0  0  0  0
    1.2883   -1.3536    0.0000 H   0  0  0  0  0  0  0  0  0  0  0  0
   -0.5281   -0.9675    0.0000 H   0  0  0  0  0  0  0  0  0  0  0  0
   -1.1890    1.6468    0.0000 H   0  0  0  0  0  0  0  0  0  0  0  0
    0.9206    2.7768    0.0000 H   0  0  0  0  0  0  0  0  0  0  0  0
   -0.1260    2.9994    0.0000 H   0  0  0  0  0  0  0  0  0  0  0  0
   -2.2010    1.7626    0.0000 H   0  0  0  0  0  0  0  0  0  0  0  0
   -0.8237    0.5226    0.0000 H   0  0  0  0  0  0  0  0  0  0  0  0
   -1.8703    0.7450    0.0000 H   0  0  0  0  0  0  0  0  0  0  0  0
   -0.1413    3.7330    0.0000 H   0  0  0  0  0  0  0  0  0  0  0  0
   -1.9039    3.1604    0.0000 H   0  0  0  0  0  0  0  0  0  0  0  0
   -1.1879    3.9555    0.0000 H   0  0  0  0  0  0  0  0  0  0  0  0
    1.4996    2.6202    0.0000 H   0  0  0  0  0  0  0  0  0  0  0  0
  1  2  1  0  0  0  0
  1 63  1  0  0  0  0
  1 64  1  0  0  0  0
  1 65  1  0  0  0  0
  2 66  1  0  0  0  0
  2 67  1  0  0  0  0
  3  2  1  0  0  0  0
  3  4  1  1  0  0  0
  3 36  1  0  0  0  0
  3 41  1  0  0  0  0
  4  5  1  0  0  0  0
  5  6  2  0  0  0  0
  5  7  1  0  0  0  0
  7  8  1  0  0  0  0
  7  9  1  0  0  0  0
  7 68  1  0  0  0  0
  8 69  1  0  0  0  0
  8 70  1  0  0  0  0
  8 71  1  0  0  0  0
  9 10  1  0  0  0  0
 10 11  2  0  0  0  0
 11 12  1  0  0  0  0
 11 15  1  0  0  0  0
 12 13  2  0  0  0  0
 12 29  1  0  0  0  0
 13 14  1  0  0  0  0
 13 26  1  0  0  0  0
 14 15  2  0  0  0  0
 14 19  1  0  0  0  0
 15 16  1  0  0  0  0
 16 17  2  0  0  0  0
 16 72  1  0  0  0  0
 17 18  1  0  0  0  0
 17 23  1  0  0  0  0
 18 19  2  0  0  0  0
 18 73  1  0  0  0  0
 19 20  1  0  0  0  0
 20 21  1  0  0  0  0
 20 22  2  0  0  0  0
 23 24  1  0  0  0  0
 23 25  2  0  0  0  0
 26 27  2  0  0  0  0
 26 33  1  0  0  0  0
 27 28  1  0  0  0  0
 27 74  1  0  0  0  0
 28 29  2  0  0  0  0
 28 30  1  0  0  0  0
 29 75  1  0  0  0  0
 30 31  1  0  0  0  0
 30 32  2  0  0  0  0
 33 34  1  0  0  0  0
 33 35  2  0  0  0  0
 36 37  2  0  0  0  0
 36 38  1  0  0  0  0
 38 39  1  0  0  0  0
 39 40  1  0  0  0  0
 39 76  1  0  0  0  0
 39 77  1  0  0  0  0
 40 41  2  0  0  0  0
 40 61  1  0  0  0  0
 41 42  1  0  0  0  0
 42 43  2  0  0  0  0
 42 78  1  0  0  0  0
 43 44  1  0  0  0  0
 43 47  1  0  0  0  0
 44 45  1  0  0  0  0
 44 61  1  0  0  0  0
 45 46  1  0  0  0  0
 45 79  1  0  0  0  0
 45 80  1  0  0  0  0
 46 47  2  0  0  0  0
 46 60  1  0  0  0  0
 47 48  1  0  0  0  0
 48 49  2  0  0  0  0
 49 50  1  0  0  0  0
 49 59  1  0  0  0  0
 50 51  2  0  0  0  0
 50 81  1  0  0  0  0
 51 52  1  0  0  0  0
 51 82  1  0  0  0  0
 52 53  1  0  0  0  0
 52 54  2  0  0  0  0
 53 83  1  0  0  0  0
 54 55  1  0  0  0  0
 54 59  1  0  0  0  0
 55 56  1  0  0  0  0
 55 84  1  0  0  0  0
 55 85  1  0  0  0  0
 56 57  1  0  0  0  0
 56 58  1  0  0  0  0
 57 86  1  0  0  0  0
 57 87  1  0  0  0  0
 57 88  1  0  0  0  0
 58 89  1  0  0  0  0
 58 90  1  0  0  0  0
 58 91  1  0  0  0  0
 59 60  2  0  0  0  0
 60 92  1  0  0  0  0
 61 62  2  0  0  0  0
M  CHG  8  20   1  21  -1  23   1  24  -1  30   1  31  -1  33   1  34  -1
M  END
>  <DRUGBANK_ID>
DB17385

>  <COMMON_NAME>
Lipotecan

>  <CAS_NUMBER>
1432468-79-5

>  <UNII>
D47234N30N

>  <SYNONYMS>
Lipothecan free base; Propanoic acid, 2-(((2,4,5,7-tetranitro-9h-fluoren-9-ylidene)amino)oxy)-, (4s)-10-((dimethylamino)methyl)-4-ethyl-3,4,12,14-tetrahydro-9-hydroxy-3,14-dioxo-1h-pyrano(3',4':6,7)indolizino(1,2-b)quinolin-4-yl ester

$$$$
