
 OpenBabel10282417072D

 70 74  0  0  0  0  0  0  0  0999 V2000
   -0.7145    0.4125    0.0000 C   0  0  0  0  0  0  0  0  0  0  0  0
   -0.7145   -0.4125    0.0000 C   0  0  0  0  0  0  0  0  0  0  0  0
    0.0000    0.8250    0.0000 N   0  0  0  0  0  0  0  0  0  0  0  0
    0.0000   -0.8250    0.0000 N   0  0  0  0  0  0  0  0  0  0  0  0
    0.7145    0.4125    0.0000 C   0  0  2  0  0  0  0  0  0  0  0  0
    0.7145   -0.4125    0.0000 C   0  0  1  0  0  0  0  0  0  0  0  0
    2.8579    0.8250    0.0000 S   0  0  0  0  0  0  0  0  0  0  0  0
    1.4289    1.6500    0.0000 S   0  0  0  0  0  0  0  0  0  0  0  0
   -1.4289    1.6500    0.0000 O   0  0  0  0  0  0  0  0  0  0  0  0
   -2.8579   -0.8250    0.0000 N   0  0  0  0  0  0  0  0  0  0  0  0
    1.4289    0.8250    0.0000 C   0  0  0  0  0  0  0  0  0  0  0  0
    2.1434    0.4125    0.0000 C   0  0  0  0  0  0  0  0  0  0  0  0
    2.1434   -0.4125    0.0000 C   0  0  2  0  0  0  0  0  0  0  0  0
    1.4289   -0.8250    0.0000 O   0  0  0  0  0  0  0  0  0  0  0  0
   -1.4289    0.8250    0.0000 C   0  0  0  0  0  0  0  0  0  0  0  0
   -1.4289   -0.8250    0.0000 N   0  0  0  0  0  0  0  0  0  0  0  0
   -2.1434   -0.4125    0.0000 C   0  0  0  0  0  0  0  0  0  0  0  0
   -2.1434    0.4125    0.0000 N   0  0  0  0  0  0  0  0  0  0  0  0
    0.7145    1.2375    0.0000 H   0  0  0  0  0  0  0  0  0  0  0  0
    0.7145   -1.2375    0.0000 H   0  0  0  0  0  0  0  0  0  0  0  0
    3.5724   -0.4125    0.0000 O   0  0  0  0  0  0  0  0  0  0  0  0
    4.2868   -1.6500    0.0000 O   0  0  0  0  0  0  0  0  0  0  0  0
    4.2868   -0.8250    0.0000 P   0  0  3  0  0  0  0  0  0  0  0  0
    4.2868    0.0000    0.0000 O   0  0  0  0  0  0  0  0  0  0  0  0
    5.0013   -0.4125    0.0000 O   0  0  0  0  0  0  0  0  0  0  0  0
    5.7157   -1.6500    0.0000 O   0  0  0  0  0  0  0  0  0  0  0  0
    5.7157   -0.8250    0.0000 P   0  0  3  0  0  0  0  0  0  0  0  0
    5.7157    0.0000    0.0000 O   0  0  0  0  0  0  0  0  0  0  0  0
    9.0456   -0.4987    0.0000 O   0  0  0  0  0  0  0  0  0  0  0  0
    9.6002    1.2083    0.0000 O   0  0  0  0  0  0  0  0  0  0  0  0
    2.8579   -0.8250    0.0000 C   0  0  0  0  0  0  0  0  0  0  0  0
    7.2507   -0.4987    0.0000 C   0  0  0  0  0  0  0  0  0  0  0  0
    6.4302   -0.4125    0.0000 O   0  0  0  0  0  0  0  0  0  0  0  0
    8.1481    2.2632    0.0000 N   0  0  0  0  0  0  0  0  0  0  0  0
    8.1481    1.4382    0.0000 C   0  0  1  0  0  0  0  0  0  0  0  0
    8.5606    0.1687    0.0000 C   0  0  1  0  0  0  0  0  0  0  0  0
    8.8156    0.9533    0.0000 C   0  0  1  0  0  0  0  0  0  0  0  0
    7.4807    0.9533    0.0000 O   0  0  0  0  0  0  0  0  0  0  0  0
    7.7356    0.1687    0.0000 C   0  0  2  0  0  0  0  0  0  0  0  0
    7.4336    2.6757    0.0000 C   0  0  0  0  0  0  0  0  0  0  0  0
    7.4336    3.5007    0.0000 N   0  0  0  0  0  0  0  0  0  0  0  0
    8.1481    3.9132    0.0000 C   0  0  0  0  0  0  0  0  0  0  0  0
    8.8626    3.5007    0.0000 C   0  0  0  0  0  0  0  0  0  0  0  0
    8.8626    2.6757    0.0000 C   0  0  0  0  0  0  0  0  0  0  0  0
    6.7192    2.2632    0.0000 O   0  0  0  0  0  0  0  0  0  0  0  0
    8.1481    4.7382    0.0000 N   0  0  0  0  0  0  0  0  0  0  0  0
    0.0000    1.8095    0.0000 H   0  0  0  0  0  0  0  0  0  0  0  0
    0.0000   -1.8095    0.0000 H   0  0  0  0  0  0  0  0  0  0  0  0
    4.0357    0.1450    0.0000 H   0  0  0  0  0  0  0  0  0  0  0  0
    2.6067    2.3300    0.0000 H   0  0  0  0  0  0  0  0  0  0  0  0
   -3.7105   -0.3327    0.0000 H   0  0  0  0  0  0  0  0  0  0  0  0
   -2.8579   -1.8095    0.0000 H   0  0  0  0  0  0  0  0  0  0  0  0
    3.0700    0.1225    0.0000 H   0  0  0  0  0  0  0  0  0  0  0  0
   -2.9960    0.9048    0.0000 H   0  0  0  0  0  0  0  0  0  0  0  0
    5.1268    0.4850    0.0000 H   0  0  0  0  0  0  0  0  0  0  0  0
    6.5557    0.4850    0.0000 H   0  0  0  0  0  0  0  0  0  0  0  0
    8.6512   -1.3849    0.0000 H   0  0  0  0  0  0  0  0  0  0  0  0
   10.3211    0.5593    0.0000 H   0  0  0  0  0  0  0  0  0  0  0  0
    2.8579   -1.8950    0.0000 H   0  0  0  0  0  0  0  0  0  0  0  0
    3.7845   -1.3600    0.0000 H   0  0  0  0  0  0  0  0  0  0  0  0
    7.6859   -1.4762    0.0000 H   0  0  0  0  0  0  0  0  0  0  0  0
    6.6218   -1.3644    0.0000 H   0  0  0  0  0  0  0  0  0  0  0  0
    9.1015    1.9240    0.0000 H   0  0  0  0  0  0  0  0  0  0  0  0
    9.6174    0.3361    0.0000 H   0  0  0  0  0  0  0  0  0  0  0  0
    9.5722    0.1967    0.0000 H   0  0  0  0  0  0  0  0  0  0  0  0
    6.6788    0.3361    0.0000 H   0  0  0  0  0  0  0  0  0  0  0  0
    9.7563    4.0167    0.0000 H   0  0  0  0  0  0  0  0  0  0  0  0
    9.7563    2.1597    0.0000 H   0  0  0  0  0  0  0  0  0  0  0  0
    9.0007    5.2305    0.0000 H   0  0  0  0  0  0  0  0  0  0  0  0
    7.2955    5.2305    0.0000 H   0  0  0  0  0  0  0  0  0  0  0  0
  1 15  1  0  0  0  0
  2  1  2  0  0  0  0
  2  4  1  0  0  0  0
  3  1  1  0  0  0  0
  3 47  1  0  0  0  0
  4  6  1  0  0  0  0
  4 48  1  0  0  0  0
  5  3  1  0  0  0  0
  5 19  1  6  0  0  0
  6  5  1  0  0  0  0
  6 14  1  0  0  0  0
  6 20  1  6  0  0  0
  7 49  1  0  0  0  0
  8 50  1  0  0  0  0
 10 51  1  0  0  0  0
 10 52  1  0  0  0  0
 11  5  1  0  0  0  0
 11  8  1  0  0  0  0
 12  7  1  0  0  0  0
 12 11  2  0  0  0  0
 13 12  1  0  0  0  0
 13 31  1  0  0  0  0
 13 53  1  6  0  0  0
 14 13  1  0  0  0  0
 15  9  2  0  0  0  0
 15 18  1  0  0  0  0
 16  2  1  0  0  0  0
 17 10  1  0  0  0  0
 17 16  2  0  0  0  0
 18 17  1  0  0  0  0
 18 54  1  0  0  0  0
 21 23  1  0  0  0  0
 23 22  2  0  0  0  0
 23 25  1  0  0  0  0
 23 24  1  0  0  0  0
 24 55  1  0  0  0  0
 25 27  1  0  0  0  0
 27 26  2  0  0  0  0
 27 33  1  0  0  0  0
 27 28  1  0  0  0  0
 28 56  1  0  0  0  0
 29 57  1  0  0  0  0
 30 58  1  0  0  0  0
 31 21  1  0  0  0  0
 31 59  1  0  0  0  0
 31 60  1  0  0  0  0
 32 33  1  0  0  0  0
 32 61  1  0  0  0  0
 32 62  1  0  0  0  0
 35 34  1  0  0  0  0
 35 37  1  0  0  0  0
 35 63  1  6  0  0  0
 36 29  1  0  0  0  0
 36 64  1  1  0  0  0
 37 30  1  0  0  0  0
 37 36  1  0  0  0  0
 37 65  1  1  0  0  0
 38 35  1  0  0  0  0
 39 32  1  0  0  0  0
 39 38  1  0  0  0  0
 39 36  1  0  0  0  0
 39 66  1  6  0  0  0
 40 34  1  0  0  0  0
 41 40  1  0  0  0  0
 42 41  2  0  0  0  0
 42 43  1  0  0  0  0
 43 44  2  0  0  0  0
 43 67  1  0  0  0  0
 44 34  1  0  0  0  0
 44 68  1  0  0  0  0
 45 40  2  0  0  0  0
 46 42  1  0  0  0  0
 46 69  1  0  0  0  0
 46 70  1  0  0  0  0
M  END
>  <DRUGBANK_ID>
DB03300

>  <SECONDARY_ACCESSION_NUMBERS>
EXPT02136

>  <COMMON_NAME>
Pterin Cytosine Dinucleotide

$$$$
