
 OpenBabel10282417072D

 26 25  0  0  0  0  0  0  0  0999 V2000
    1.7881    0.4161    0.0000 P   0  0  0  0  0  0  0  0  0  0  0  0
    2.5081    0.0029    0.0000 O   0  0  0  0  0  0  0  0  0  0  0  0
    2.2013    1.1302    0.0000 O   0  0  0  0  0  0  0  0  0  0  0  0
    0.3600   -0.4101    0.0000 O   0  0  0  0  0  0  0  0  0  0  0  0
   -2.5081    0.4161    0.0000 O   0  0  0  0  0  0  0  0  0  0  0  0
    1.3751   -0.3039    0.0000 O   0  0  0  0  0  0  0  0  0  0  0  0
   -1.7881    1.6554    0.0000 O   0  0  0  0  0  0  0  0  0  0  0  0
   -1.7881   -1.6554    0.0000 O   0  0  0  0  0  0  0  0  0  0  0  0
   -2.5081   -0.4101    0.0000 O   0  0  0  0  0  0  0  0  0  0  0  0
   -0.3599    0.8291    0.0000 N   0  0  0  0  0  0  0  0  0  0  0  0
   -1.0740    0.4161    0.0000 C   0  0  1  0  0  0  0  0  0  0  0  0
   -1.0740   -0.4101    0.0000 C   0  0  0  0  0  0  0  0  0  0  0  0
    1.0740    0.8291    0.0000 C   0  0  0  0  0  0  0  0  0  0  0  0
    0.3600    0.4161    0.0000 C   0  0  0  0  0  0  0  0  0  0  0  0
   -1.7881    0.8291    0.0000 C   0  0  0  0  0  0  0  0  0  0  0  0
   -1.7881   -0.8233    0.0000 C   0  0  0  0  0  0  0  0  0  0  0  0
   -0.3599    1.3426    0.0000 H   0  0  0  0  0  0  0  0  0  0  0  0
    2.5106   -0.9671    0.0000 H   0  0  0  0  0  0  0  0  0  0  0  0
    3.1713    1.1293    0.0000 H   0  0  0  0  0  0  0  0  0  0  0  0
   -3.3182    0.8869    0.0000 H   0  0  0  0  0  0  0  0  0  0  0  0
   -2.5996   -2.1239    0.0000 H   0  0  0  0  0  0  0  0  0  0  0  0
   -0.1472   -0.1186    0.0000 H   0  0  0  0  0  0  0  0  0  0  0  0
   -0.1471   -0.9447    0.0000 H   0  0  0  0  0  0  0  0  0  0  0  0
   -1.0732   -1.4801    0.0000 H   0  0  0  0  0  0  0  0  0  0  0  0
    1.0740    1.8991    0.0000 H   0  0  0  0  0  0  0  0  0  0  0  0
    0.1471    1.3637    0.0000 H   0  0  0  0  0  0  0  0  0  0  0  0
  1  2  1  0  0  0  0
  1  3  1  0  0  0  0
  1  6  2  0  0  0  0
  1 13  1  0  0  0  0
  2 18  1  0  0  0  0
  3 19  1  0  0  0  0
  4 14  2  0  0  0  0
  5 15  1  0  0  0  0
  5 20  1  0  0  0  0
  7 15  2  0  0  0  0
  8 16  1  0  0  0  0
  8 21  1  0  0  0  0
  9 16  2  0  0  0  0
 10 14  1  0  0  0  0
 10 17  1  0  0  0  0
 11 10  1  0  0  0  0
 11 12  1  0  0  0  0
 11 15  1  0  0  0  0
 11 22  1  6  0  0  0
 12 16  1  0  0  0  0
 12 23  1  0  0  0  0
 12 24  1  0  0  0  0
 13 14  1  0  0  0  0
 13 25  1  0  0  0  0
 13 26  1  0  0  0  0
M  END
>  <DRUGBANK_ID>
DB03459

>  <SECONDARY_ACCESSION_NUMBERS>
EXPT02494

>  <COMMON_NAME>
Sparfosic acid

>  <CAS_NUMBER>
51321-79-0

>  <UNII>
78QVZ7RG8L

>  <SYNONYMS>
ácido esparfósico; Acidum sparfosicum; N-(phosphonacetyl)-L-aspartic acid; N-(phosphonoacetyl)-L-aspartic acid; N-phosphonacetyl-L-aspartic acid; PALA; phosphonoacetyl-L-aspartic acid; Sparfosic acid

$$$$
