227
 OpenBabel10282417072D

 65 67  0  0  1  0  0  0  0  0999 V2000
    3.0790    0.4577    0.0000 O   0  0  0  0  0  0  0  0  0  0  0  0
    5.9312   -1.2373    0.0000 O   0  0  0  0  0  0  0  0  0  0  0  0
    3.7736   -2.4499    0.0000 O   0  0  0  0  0  0  0  0  0  0  0  0
    1.6500    0.4577    0.0000 O   0  0  0  0  0  0  0  0  0  0  0  0
    6.6313   -2.4829    0.0000 O   0  0  0  0  0  0  0  0  0  0  0  0
    3.7935    1.6952    0.0000 C   0  0  1  0  0  0  0  0  0  0  0  0
    4.5309    1.2542    0.0000 C   0  0  2  0  0  0  0  0  0  0  0  0
    3.0790    1.2827    0.0000 C   0  0  2  0  0  0  0  0  0  0  0  0
    5.2785    1.6781    0.0000 C   0  0  2  0  0  0  0  0  0  0  0  0
    3.7935    2.5202    0.0000 C   0  0  0  0  0  0  0  0  0  0  0  0
    4.5215    0.4292    0.0000 C   0  0  0  0  0  0  0  0  0  0  0  0
    2.3645    1.6952    0.0000 C   0  0  0  0  0  0  0  0  0  0  0  0
    2.3645    2.5202    0.0000 C   0  0  2  0  0  0  0  0  0  0  0  0
    3.0790    2.9327    0.0000 C   0  0  0  0  0  0  0  0  0  0  0  0
    5.2310    0.0084    0.0000 C   0  0  0  0  0  0  0  0  0  0  0  0
    5.2785    2.5374    0.0000 C   0  0  0  0  0  0  0  0  0  0  0  0
    4.5309    2.9614    0.0000 C   0  0  0  0  0  0  0  0  0  0  0  0
    5.9914    1.2628    0.0000 C   0  0  0  0  0  0  0  0  0  0  0  0
    5.2216   -0.8165    0.0000 C   0  0  2  0  0  0  0  0  0  0  0  0
    1.6500    2.9327    0.0000 C   0  0  0  0  0  0  0  0  0  0  0  0
    4.5023   -1.2207    0.0000 C   0  0  0  0  0  0  0  0  0  0  0  0
    4.4928   -2.0457    0.0000 C   0  0  2  0  0  0  0  0  0  0  0  0
    2.3645    0.0452    0.0000 C   0  0  0  0  0  0  0  0  0  0  0  0
    5.2025   -2.4664    0.0000 C   0  0  0  0  0  0  0  0  0  0  0  0
    2.3645   -0.7798    0.0000 C   0  0  2  0  0  0  0  0  0  0  0  0
    5.9217   -2.0622    0.0000 C   0  0  0  0  0  0  0  0  0  0  0  0
    1.6500   -1.1923    0.0000 C   0  0  0  0  0  0  0  0  0  0  0  0
    3.0790   -1.1923    0.0000 C   0  0  0  0  0  0  0  0  0  0  0  0
    1.6500   -2.0173    0.0000 C   0  0  0  0  0  0  0  0  0  0  0  0
    3.7884    1.0352    0.0000 H   0  0  0  0  0  0  0  0  0  0  0  0
    2.9392   -1.9552    0.0000 H   0  0  0  0  0  0  0  0  0  0  0  0
    3.5972    0.7317    0.0000 H   0  0  0  0  0  0  0  0  0  0  0  0
    4.0056    0.7477    0.0000 H   0  0  0  0  0  0  0  0  0  0  0  0
    5.2723    0.6081    0.0000 H   0  0  0  0  0  0  0  0  0  0  0  0
    3.5887   -0.0951    0.0000 H   0  0  0  0  0  0  0  0  0  0  0  0
    4.5090   -0.6407    0.0000 H   0  0  0  0  0  0  0  0  0  0  0  0
    1.4379    1.1602    0.0000 H   0  0  0  0  0  0  0  0  0  0  0  0
    1.4379    2.2302    0.0000 H   0  0  0  0  0  0  0  0  0  0  0  0
    1.4379    1.9852    0.0000 H   0  0  0  0  0  0  0  0  0  0  0  0
    3.0790    3.9647    0.0000 H   0  0  0  0  0  0  0  0  0  0  0  0
    6.1638    0.5327    0.0000 H   0  0  0  0  0  0  0  0  0  0  0  0
    6.1514   -0.5372    0.0000 H   0  0  0  0  0  0  0  0  0  0  0  0
    6.1702    3.0568    0.0000 H   0  0  0  0  0  0  0  0  0  0  0  0
    4.5189    3.9933    0.0000 H   0  0  0  0  0  0  0  0  0  0  0  0
    5.9872    0.1928    0.0000 H   0  0  0  0  0  0  0  0  0  0  0  0
    6.9201    1.7942    0.0000 H   0  0  0  0  0  0  0  0  0  0  0  0
    6.9160    0.7242    0.0000 H   0  0  0  0  0  0  0  0  0  0  0  0
    6.1544   -0.2922    0.0000 H   0  0  0  0  0  0  0  0  0  0  0  0
    1.6500    4.0027    0.0000 H   0  0  0  0  0  0  0  0  0  0  0  0
    0.7234    2.3977    0.0000 H   0  0  0  0  0  0  0  0  0  0  0  0
    0.7233    3.4677    0.0000 H   0  0  0  0  0  0  0  0  0  0  0  0
    3.5819   -0.6750    0.0000 H   0  0  0  0  0  0  0  0  0  0  0  0
    3.5695   -1.7450    0.0000 H   0  0  0  0  0  0  0  0  0  0  0  0
    3.5724   -1.5000    0.0000 H   0  0  0  0  0  0  0  0  0  0  0  0
    5.1902   -3.5363    0.0000 H   0  0  0  0  0  0  0  0  0  0  0  0
    6.1229   -3.0121    0.0000 H   0  0  0  0  0  0  0  0  0  0  0  0
    3.2911   -0.2448    0.0000 H   0  0  0  0  0  0  0  0  0  0  0  0
    0.7234   -0.6573    0.0000 H   0  0  0  0  0  0  0  0  0  0  0  0
    0.7234   -1.7273    0.0000 H   0  0  0  0  0  0  0  0  0  0  0  0
    3.0790   -2.2623    0.0000 H   0  0  0  0  0  0  0  0  0  0  0  0
    4.0056   -0.6573    0.0000 H   0  0  0  0  0  0  0  0  0  0  0  0
    4.0057   -1.7273    0.0000 H   0  0  0  0  0  0  0  0  0  0  0  0
    0.7234   -2.5523    0.0000 H   0  0  0  0  0  0  0  0  0  0  0  0
    2.5766   -2.5523    0.0000 H   0  0  0  0  0  0  0  0  0  0  0  0
    1.6500   -3.0873    0.0000 H   0  0  0  0  0  0  0  0  0  0  0  0
  1 23  1  0  0  0  0
  2 19  1  0  0  0  0
  2 26  1  0  0  0  0
  3 31  1  0  0  0  0
  4 23  2  0  0  0  0
  5 26  2  0  0  0  0
  6  7  1  0  0  0  0
  6  8  1  0  0  0  0
  6 10  1  0  0  0  0
  6 30  1  6  0  0  0
  7  9  1  0  0  0  0
  7 11  1  0  0  0  0
  7 32  1  1  0  0  0
  8  1  1  0  0  0  0
  8 12  1  0  0  0  0
  8 33  1  6  0  0  0
  9 16  1  0  0  0  0
  9 18  1  0  0  0  0
  9 34  1  1  0  0  0
 10 14  2  0  0  0  0
 10 17  1  0  0  0  0
 11 15  1  0  0  0  0
 11 35  1  0  0  0  0
 11 36  1  0  0  0  0
 12 13  1  0  0  0  0
 12 37  1  0  0  0  0
 12 38  1  0  0  0  0
 13 14  1  0  0  0  0
 13 20  1  0  0  0  0
 13 39  1  6  0  0  0
 14 40  1  0  0  0  0
 15 41  1  0  0  0  0
 15 42  1  0  0  0  0
 16 17  2  0  0  0  0
 16 43  1  0  0  0  0
 17 44  1  0  0  0  0
 18 45  1  0  0  0  0
 18 46  1  0  0  0  0
 18 47  1  0  0  0  0
 19 15  1  0  0  0  0
 19 21  1  0  0  0  0
 19 48  1  6  0  0  0
 20 49  1  0  0  0  0
 20 50  1  0  0  0  0
 20 51  1  0  0  0  0
 21 22  1  0  0  0  0
 21 52  1  0  0  0  0
 21 53  1  0  0  0  0
 22  3  1  0  0  0  0
 22 24  1  0  0  0  0
 22 54  1  1  0  0  0
 23 25  1  0  0  0  0
 24 26  1  0  0  0  0
 24 55  1  0  0  0  0
 24 56  1  0  0  0  0
 25 27  1  0  0  0  0
 25 28  1  0  0  0  0
 25 57  1  6  0  0  0
 27 29  1  0  0  0  0
 27 58  1  0  0  0  0
 27 59  1  0  0  0  0
 28 60  1  0  0  0  0
 28 61  1  0  0  0  0
 28 62  1  0  0  0  0
 29 63  1  0  0  0  0
 29 64  1  0  0  0  0
 29 65  1  0  0  0  0
M  END
>  <DRUGBANK_ID>
DB00227

>  <SECONDARY_ACCESSION_NUMBERS>
APRD00370

>  <COMMON_NAME>
Lovastatin

>  <CAS_NUMBER>
75330-75-5

>  <UNII>
9LHU78OQFD

>  <SYNONYMS>
(1S,3R,7S,8S,8aR)-1,2,3,7,8,8a-hexahydro-3,7-dimethyl-8-(2-(2R,4R)-(tetrahydro-4-hydroxy-6-oxo-2H-pyran-2-yl)ethyl)-1-naphthalenyl (S)-2-methyl-butyrate; 2β,6α-dimethyl-8alpha-(2-methyl-1-oxobutoxy)-mevinic acid lactone; 6-alpha-methylcompactin; 6alpha-methylcompactin; 6α-methylcompactin; Lovastatin; Lovastatina; Lovastatine; Lovastatinum; Mevinolin

$$$$
