
 OpenBabel10282417072D

 55 50  0  0  1  0  0  0  0  0999 V2000
   -2.1434    0.2357    0.0000 C   0  0  0  0  0  0  0  0  0  0  0  0
   -1.4289   -0.1768    0.0000 C   0  0  2  0  0  0  0  0  0  0  0  0
   -0.7145    0.2357    0.0000 C   0  0  2  0  0  0  0  0  0  0  0  0
    0.0000   -0.1768    0.0000 C   0  0  1  0  0  0  0  0  0  0  0  0
    0.7145    0.2357    0.0000 C   0  0  2  0  0  0  0  0  0  0  0  0
    1.4289   -0.1768    0.0000 C   0  0  0  0  0  0  0  0  0  0  0  0
    1.4289   -1.0018    0.0000 O   0  0  0  0  0  0  0  0  0  0  0  0
    2.1434    0.2357    0.0000 O   0  5  0  0  0  0  0  0  0  0  0  0
    0.7145    1.0607    0.0000 O   0  0  0  0  0  0  0  0  0  0  0  0
    0.0000   -1.0018    0.0000 O   0  0  0  0  0  0  0  0  0  0  0  0
   -0.7145    1.0607    0.0000 O   0  0  0  0  0  0  0  0  0  0  0  0
   -1.4289   -1.0018    0.0000 O   0  0  0  0  0  0  0  0  0  0  0  0
   -2.8579   -0.1768    0.0000 O   0  0  0  0  0  0  0  0  0  0  0  0
    5.4581    0.2856    0.0000 C   0  0  0  0  0  0  0  0  0  0  0  0
    6.1725   -0.1269    0.0000 C   0  0  2  0  0  0  0  0  0  0  0  0
    6.8870    0.2856    0.0000 C   0  0  2  0  0  0  0  0  0  0  0  0
    7.6015   -0.1269    0.0000 C   0  0  1  0  0  0  0  0  0  0  0  0
    8.3160    0.2856    0.0000 C   0  0  2  0  0  0  0  0  0  0  0  0
    9.0304   -0.1269    0.0000 C   0  0  0  0  0  0  0  0  0  0  0  0
    9.7449    0.2856    0.0000 O   0  0  0  0  0  0  0  0  0  0  0  0
    9.0304   -0.9519    0.0000 O   0  5  0  0  0  0  0  0  0  0  0  0
    8.3160    1.1106    0.0000 O   0  0  0  0  0  0  0  0  0  0  0  0
    7.6015   -0.9519    0.0000 O   0  0  0  0  0  0  0  0  0  0  0  0
    6.8870    1.1106    0.0000 O   0  0  0  0  0  0  0  0  0  0  0  0
    6.1725   -0.9519    0.0000 O   0  0  0  0  0  0  0  0  0  0  0  0
    4.7436   -0.1269    0.0000 O   0  0  0  0  0  0  0  0  0  0  0  0
    0.0000   -2.6518    0.0000 O   0  0  0  0  0  0  0  0  0  0  0  0
    2.3571   -2.6518    0.0000 O   0  0  0  0  0  0  0  0  0  0  0  0
    2.8579    0.6482    0.0000 Mg  0  2  0  0  0  0  0  0  0  0  0  0
   -2.1434    1.3057    0.0000 H   0  0  0  0  0  0  0  0  0  0  0  0
   -3.0700    0.7707    0.0000 H   0  0  0  0  0  0  0  0  0  0  0  0
   -2.3555   -0.7118    0.0000 H   0  0  0  0  0  0  0  0  0  0  0  0
   -1.6412    0.7707    0.0000 H   0  0  0  0  0  0  0  0  0  0  0  0
   -0.9266   -0.7118    0.0000 H   0  0  0  0  0  0  0  0  0  0  0  0
   -0.2121    0.7707    0.0000 H   0  0  0  0  0  0  0  0  0  0  0  0
    1.5545    1.5457    0.0000 H   0  0  0  0  0  0  0  0  0  0  0  0
   -0.8400   -1.4868    0.0000 H   0  0  0  0  0  0  0  0  0  0  0  0
    0.1255    1.5457    0.0000 H   0  0  0  0  0  0  0  0  0  0  0  0
   -2.2689   -1.4868    0.0000 H   0  0  0  0  0  0  0  0  0  0  0  0
   -3.6979    0.3082    0.0000 H   0  0  0  0  0  0  0  0  0  0  0  0
    5.4581    1.3556    0.0000 H   0  0  0  0  0  0  0  0  0  0  0  0
    4.5315    0.8206    0.0000 H   0  0  0  0  0  0  0  0  0  0  0  0
    5.2458   -0.6619    0.0000 H   0  0  0  0  0  0  0  0  0  0  0  0
    5.9604    0.8206    0.0000 H   0  0  0  0  0  0  0  0  0  0  0  0
    6.6749   -0.6619    0.0000 H   0  0  0  0  0  0  0  0  0  0  0  0
    7.3894    0.8206    0.0000 H   0  0  0  0  0  0  0  0  0  0  0  0
    9.1560    1.5956    0.0000 H   0  0  0  0  0  0  0  0  0  0  0  0
    6.7615   -1.4369    0.0000 H   0  0  0  0  0  0  0  0  0  0  0  0
    7.7270    1.5956    0.0000 H   0  0  0  0  0  0  0  0  0  0  0  0
    5.3325   -1.4369    0.0000 H   0  0  0  0  0  0  0  0  0  0  0  0
    3.9036    0.3581    0.0000 H   0  0  0  0  0  0  0  0  0  0  0  0
    0.9700   -2.6518    0.0000 H   0  0  0  0  0  0  0  0  0  0  0  0
   -0.4850   -1.8118    0.0000 H   0  0  0  0  0  0  0  0  0  0  0  0
    3.3271   -2.6518    0.0000 H   0  0  0  0  0  0  0  0  0  0  0  0
    1.8721   -1.8118    0.0000 H   0  0  0  0  0  0  0  0  0  0  0  0
  1  2  1  0  0  0  0
  1 13  1  0  0  0  0
  1 30  1  0  0  0  0
  1 31  1  0  0  0  0
  2  3  1  0  0  0  0
  2 12  1  0  0  0  0
  2 32  1  1  0  0  0
  3  4  1  0  0  0  0
  3 11  1  0  0  0  0
  3 33  1  6  0  0  0
  4  5  1  0  0  0  0
  4 10  1  0  0  0  0
  4 34  1  6  0  0  0
  5  6  1  0  0  0  0
  5  9  1  0  0  0  0
  5 35  1  6  0  0  0
  6  7  2  0  0  0  0
  6  8  1  0  0  0  0
  9 36  1  0  0  0  0
 10 37  1  0  0  0  0
 11 38  1  0  0  0  0
 12 39  1  0  0  0  0
 13 40  1  0  0  0  0
 14 15  1  0  0  0  0
 14 26  1  0  0  0  0
 14 41  1  0  0  0  0
 14 42  1  0  0  0  0
 15 16  1  0  0  0  0
 15 25  1  0  0  0  0
 15 43  1  1  0  0  0
 16 17  1  0  0  0  0
 16 24  1  0  0  0  0
 16 44  1  6  0  0  0
 17 18  1  0  0  0  0
 17 23  1  0  0  0  0
 17 45  1  6  0  0  0
 18 19  1  0  0  0  0
 18 22  1  0  0  0  0
 18 46  1  6  0  0  0
 19 20  2  0  0  0  0
 19 21  1  0  0  0  0
 22 47  1  0  0  0  0
 23 48  1  0  0  0  0
 24 49  1  0  0  0  0
 25 50  1  0  0  0  0
 26 51  1  0  0  0  0
 27 52  1  0  0  0  0
 27 53  1  0  0  0  0
 28 54  1  0  0  0  0
 28 55  1  0  0  0  0
M  CHG  3   8  -1  21  -1  29   2
M  END
>  <DRUGBANK_ID>
DB13749

>  <COMMON_NAME>
Magnesium gluconate

>  <CAS_NUMBER>
59625-89-7

>  <UNII>
T42NAD2KHC

>  <SYNONYMS>
Magnesium (as gluconate); Magnesium D-gluconate (1:2) dihydrate; Magnesium D-gluconate (1:2) hydrate; Magnesium gluconate; Magnesium gluconate,dihydrate; Magnesium gluconicum

$$$$
