
 OpenBabel10282417072D

 34 34  0  0  0  0  0  0  0  0999 V2000
    2.0853   -0.5299    0.0000 C   0  0  0  0  0  0  0  0  0  0  0  0
    1.4532    0.0003    0.0000 C   0  0  0  0  0  0  0  0  0  0  0  0
    2.0366    0.5836    0.0000 C   0  0  0  0  0  0  0  0  0  0  0  0
    2.8335    0.3702    0.0000 O   0  0  0  0  0  0  0  0  0  0  0  0
    0.9801   -0.6755    0.0000 C   0  0  0  0  0  0  0  0  0  0  0  0
    0.7387    0.4126    0.0000 N   0  0  0  0  0  0  0  0  0  0  0  0
    0.0243    0.0001    0.0000 C   0  0  0  0  0  0  0  0  0  0  0  0
   -0.6901    0.4125    0.0000 C   0  0  3  0  0  0  0  0  0  0  0  0
   -0.6902    1.2375    0.0000 O   0  0  0  0  0  0  0  0  0  0  0  0
   -1.4045    0.0000    0.0000 C   0  0  0  0  0  0  0  0  0  0  0  0
   -2.1190    0.4124    0.0000 C   0  0  0  0  0  0  0  0  0  0  0  0
   -2.8335   -0.0001    0.0000 C   0  0  0  0  0  0  0  0  0  0  0  0
   -2.8334   -0.8251    0.0000 C   0  0  0  0  0  0  0  0  0  0  0  0
   -2.1188   -1.2375    0.0000 C   0  0  0  0  0  0  0  0  0  0  0  0
   -1.4045   -0.8250    0.0000 C   0  0  0  0  0  0  0  0  0  0  0  0
    1.8997   -1.5837    0.0000 H   0  0  0  0  0  0  0  0  0  0  0  0
    3.0907   -0.1638    0.0000 H   0  0  0  0  0  0  0  0  0  0  0  0
    2.9051   -1.2175    0.0000 H   0  0  0  0  0  0  0  0  0  0  0  0
    1.7596    1.6171    0.0000 H   0  0  0  0  0  0  0  0  0  0  0  0
    2.7931    1.3403    0.0000 H   0  0  0  0  0  0  0  0  0  0  0  0
    3.0847   -0.5667    0.0000 H   0  0  0  0  0  0  0  0  0  0  0  0
   -0.0858   -0.5823    0.0000 H   0  0  0  0  0  0  0  0  0  0  0  0
    1.4324   -1.6452    0.0000 H   0  0  0  0  0  0  0  0  0  0  0  0
    0.3665   -1.5521    0.0000 H   0  0  0  0  0  0  0  0  0  0  0  0
    0.7386    1.4326    0.0000 H   0  0  0  0  0  0  0  0  0  0  0  0
    0.0244   -1.0699    0.0000 H   0  0  0  0  0  0  0  0  0  0  0  0
    0.9510   -0.5349    0.0000 H   0  0  0  0  0  0  0  0  0  0  0  0
    0.2365    0.9476    0.0000 H   0  0  0  0  0  0  0  0  0  0  0  0
    0.1498    1.7226    0.0000 H   0  0  0  0  0  0  0  0  0  0  0  0
   -2.1191    1.4444    0.0000 H   0  0  0  0  0  0  0  0  0  0  0  0
   -3.7273    0.5159    0.0000 H   0  0  0  0  0  0  0  0  0  0  0  0
   -3.7271   -1.3412    0.0000 H   0  0  0  0  0  0  0  0  0  0  0  0
   -2.1187   -2.2695    0.0000 H   0  0  0  0  0  0  0  0  0  0  0  0
   -0.5107   -1.3410    0.0000 H   0  0  0  0  0  0  0  0  0  0  0  0
  1  2  1  0  0  0  0
  1 16  1  0  0  0  0
  1 17  1  0  0  0  0
  1 18  1  0  0  0  0
  2  5  1  0  0  0  0
  2  3  1  0  0  0  0
  2  6  1  0  0  0  0
  3  4  1  0  0  0  0
  3 19  1  0  0  0  0
  3 20  1  0  0  0  0
  4 21  1  0  0  0  0
  5 22  1  0  0  0  0
  5 23  1  0  0  0  0
  5 24  1  0  0  0  0
  6  7  1  0  0  0  0
  6 25  1  0  0  0  0
  7  8  1  0  0  0  0
  7 26  1  0  0  0  0
  7 27  1  0  0  0  0
  8  9  1  0  0  0  0
  8 10  1  0  0  0  0
  8 28  1  0  0  0  0
  9 29  1  0  0  0  0
 10 11  2  0  0  0  0
 11 12  1  0  0  0  0
 11 30  1  0  0  0  0
 12 13  2  0  0  0  0
 12 31  1  0  0  0  0
 13 14  1  0  0  0  0
 13 32  1  0  0  0  0
 14 15  2  0  0  0  0
 14 33  1  0  0  0  0
 15 10  1  0  0  0  0
 15 34  1  0  0  0  0
M  END
>  <DRUGBANK_ID>
DB15902

>  <COMMON_NAME>
Fepradinol

>  <CAS_NUMBER>
36981-91-6

>  <UNII>
860MHI4WBA

>  <SYNONYMS>
Fepradinol; Fepradinolum

$$$$
