
 OpenBabel10282417072D

 42 45  0  0  0  0  0  0  0  0999 V2000
    0.8062   -0.5677    0.0000 N   0  0  0  0  0  0  0  0  0  0  0  0
    1.6313   -0.5677    0.0000 C   0  0  0  0  0  0  0  0  0  0  0  0
    2.0438   -1.2822    0.0000 C   0  0  0  0  0  0  0  0  0  0  0  0
    0.3189   -1.8801    0.0000 C   0  0  0  0  0  0  0  0  0  0  0  0
    0.2229   -1.1511    0.0000 C   0  0  0  0  0  0  0  0  0  0  0  0
   -0.5510   -0.7464    0.0000 C   0  0  0  0  0  0  0  0  0  0  0  0
   -1.2055   -1.2487    0.0000 C   0  0  0  0  0  0  0  0  0  0  0  0
   -0.3356   -2.3824    0.0000 C   0  0  0  0  0  0  0  0  0  0  0  0
   -1.0978   -2.0666    0.0000 C   0  0  0  0  0  0  0  0  0  0  0  0
    1.0333   -2.2926    0.0000 N   0  0  0  0  0  0  0  0  0  0  0  0
    1.8302   -2.0791    0.0000 C   0  0  0  0  0  0  0  0  0  0  0  0
    2.8677   -1.2391    0.0000 C   0  0  0  0  0  0  0  0  0  0  0  0
    2.5221   -2.5285    0.0000 S   0  0  0  0  0  0  0  0  0  0  0  0
    3.1632   -2.0094    0.0000 C   0  0  0  0  0  0  0  0  0  0  0  0
    2.2147    0.0157    0.0000 N   0  0  0  0  0  0  0  0  0  0  0  0
    3.9601   -2.2229    0.0000 C   0  0  0  0  0  0  0  0  0  0  0  0
    2.0011    0.8126    0.0000 C   0  0  0  0  0  0  0  0  0  0  0  0
    3.0116   -0.1979    0.0000 C   0  0  0  0  0  0  0  0  0  0  0  0
    2.5845    1.3959    0.0000 C   0  0  0  0  0  0  0  0  0  0  0  0
    3.5949    0.3855    0.0000 C   0  0  0  0  0  0  0  0  0  0  0  0
    3.3814    1.1824    0.0000 N   0  0  0  0  0  0  0  0  0  0  0  0
    3.9648    1.7658    0.0000 C   0  0  0  0  0  0  0  0  0  0  0  0
   -0.6400    0.2818    0.0000 H   0  0  0  0  0  0  0  0  0  0  0  0
   -2.1590   -0.8538    0.0000 H   0  0  0  0  0  0  0  0  0  0  0  0
   -0.2009   -3.4056    0.0000 H   0  0  0  0  0  0  0  0  0  0  0  0
   -1.9166   -2.6948    0.0000 H   0  0  0  0  0  0  0  0  0  0  0  0
    0.9048   -3.2687    0.0000 H   0  0  0  0  0  0  0  0  0  0  0  0
    3.4299   -0.3737    0.0000 H   0  0  0  0  0  0  0  0  0  0  0  0
    4.2371   -3.2564    0.0000 H   0  0  0  0  0  0  0  0  0  0  0  0
    4.7167   -1.4663    0.0000 H   0  0  0  0  0  0  0  0  0  0  0  0
    4.9936   -2.4998    0.0000 H   0  0  0  0  0  0  0  0  0  0  0  0
    0.9676    1.0895    0.0000 H   0  0  0  0  0  0  0  0  0  0  0  0
    1.7242    1.8462    0.0000 H   0  0  0  0  0  0  0  0  0  0  0  0
    3.2885   -1.2314    0.0000 H   0  0  0  0  0  0  0  0  0  0  0  0
    4.0452   -0.4748    0.0000 H   0  0  0  0  0  0  0  0  0  0  0  0
    2.3076    2.4294    0.0000 H   0  0  0  0  0  0  0  0  0  0  0  0
    3.3411    2.1525    0.0000 H   0  0  0  0  0  0  0  0  0  0  0  0
    4.6284    0.1086    0.0000 H   0  0  0  0  0  0  0  0  0  0  0  0
    4.3515    1.1421    0.0000 H   0  0  0  0  0  0  0  0  0  0  0  0
    4.9983    1.4889    0.0000 H   0  0  0  0  0  0  0  0  0  0  0  0
    3.6879    2.7993    0.0000 H   0  0  0  0  0  0  0  0  0  0  0  0
    4.7214    2.5224    0.0000 H   0  0  0  0  0  0  0  0  0  0  0  0
  1  2  2  0  0  0  0
  1  5  1  0  0  0  0
  2  3  1  0  0  0  0
  2 15  1  0  0  0  0
  3 11  2  0  0  0  0
  4  5  1  0  0  0  0
  6  5  2  0  0  0  0
  6  7  1  0  0  0  0
  6 23  1  0  0  0  0
  7  9  2  0  0  0  0
  7 24  1  0  0  0  0
  8  4  2  0  0  0  0
  8 25  1  0  0  0  0
  9  8  1  0  0  0  0
  9 26  1  0  0  0  0
 10  4  1  0  0  0  0
 10 27  1  0  0  0  0
 11 10  1  0  0  0  0
 11 13  1  0  0  0  0
 12  3  1  0  0  0  0
 12 14  2  0  0  0  0
 12 28  1  0  0  0  0
 13 14  1  0  0  0  0
 14 16  1  0  0  0  0
 15 17  1  0  0  0  0
 15 18  1  0  0  0  0
 16 29  1  0  0  0  0
 16 30  1  0  0  0  0
 16 31  1  0  0  0  0
 17 19  1  0  0  0  0
 17 32  1  0  0  0  0
 17 33  1  0  0  0  0
 18 20  1  0  0  0  0
 18 34  1  0  0  0  0
 18 35  1  0  0  0  0
 19 21  1  0  0  0  0
 19 36  1  0  0  0  0
 19 37  1  0  0  0  0
 20 21  1  0  0  0  0
 20 38  1  0  0  0  0
 20 39  1  0  0  0  0
 21 22  1  0  0  0  0
 22 40  1  0  0  0  0
 22 41  1  0  0  0  0
 22 42  1  0  0  0  0
M  END
>  <DRUGBANK_ID>
DB00334

>  <SECONDARY_ACCESSION_NUMBERS>
APRD00138

>  <COMMON_NAME>
Olanzapine

>  <CAS_NUMBER>
132539-06-1

>  <UNII>
N7U69T4SZR

>  <SYNONYMS>
2-methyl-4-(4-methyl-1-piperazinyl)-10H-thieno[2,3-b][1,5]benzodiazepine; Olanzapin; Olanzapina; Olanzapine; Olanzapinum

$$$$
