37A
 OpenBabel10282417072D

 49 52  0  0  0  0  0  0  0  0999 V2000
    2.4554    1.1939    0.0000 O   0  0  0  0  0  0  0  0  0  0  0  0
    1.6303    1.1870    0.0000 C   0  0  0  0  0  0  0  0  0  0  0  0
    1.0127    1.7340    0.0000 C   0  0  2  0  0  0  0  0  0  0  0  0
    0.3923    1.3571    0.0000 O   0  0  0  0  0  0  0  0  0  0  0  0
    1.3332    2.4427    0.0000 C   0  0  2  0  0  0  0  0  0  0  0  0
    2.2620    2.4582    0.0000 C   0  0  0  0  0  0  0  0  0  0  0  0
    2.4002    1.6407    0.0000 N   0  0  0  0  0  0  0  0  0  0  0  0
    2.8121    0.9258    0.0000 C   0  0  0  0  0  0  0  0  0  0  0  0
    3.6371    0.9250    0.0000 O   0  0  0  0  0  0  0  0  0  0  0  0
    2.3988    0.2117    0.0000 N   0  0  0  0  0  0  0  0  0  0  0  0
    2.8107   -0.5032    0.0000 O   0  0  0  0  0  0  0  0  0  0  0  0
    1.8840    2.0694    0.0000 C   0  0  0  0  0  0  0  0  0  0  0  0
    0.7725    2.8826    0.0000 O   0  0  0  0  0  0  0  0  0  0  0  0
    0.9123    2.0694    0.0000 C   0  0  1  0  0  0  0  0  0  0  0  0
    1.4655    0.3786    0.0000 N   0  0  0  0  0  0  0  0  0  0  0  0
    2.0831   -0.1684    0.0000 C   0  0  0  0  0  0  0  0  0  0  0  0
    1.9182   -0.9768    0.0000 C   0  0  0  0  0  0  0  0  0  0  0  0
    1.1358   -1.2382    0.0000 C   0  0  0  0  0  0  0  0  0  0  0  0
    0.9709   -2.0466    0.0000 C   0  0  0  0  0  0  0  0  0  0  0  0
    1.5885   -2.5936    0.0000 C   0  0  0  0  0  0  0  0  0  0  0  0
    2.3710   -2.3321    0.0000 C   0  0  0  0  0  0  0  0  0  0  0  0
    2.5360   -1.5238    0.0000 C   0  0  0  0  0  0  0  0  0  0  0  0
    1.4237   -3.4020    0.0000 C   0  0  0  0  0  0  0  0  0  0  0  0
    2.0413   -3.9490    0.0000 C   0  0  0  0  0  0  0  0  0  0  0  0
    1.8764   -4.7574    0.0000 C   0  0  0  0  0  0  0  0  0  0  0  0
    0.6411   -3.6634    0.0000 C   0  0  0  0  0  0  0  0  0  0  0  0
    0.4762   -4.4719    0.0000 C   0  0  0  0  0  0  0  0  0  0  0  0
    1.0939   -5.0188    0.0000 C   0  0  0  0  0  0  0  0  0  0  0  0
    1.5837    1.8561    0.0000 H   0  0  0  0  0  0  0  0  0  0  0  0
    1.1988    3.0109    0.0000 H   0  0  0  0  0  0  0  0  0  0  0  0
    0.6477    2.5901    0.0000 H   0  0  0  0  0  0  0  0  0  0  0  0
    2.9458    3.2812    0.0000 H   0  0  0  0  0  0  0  0  0  0  0  0
    3.2952    2.1801    0.0000 H   0  0  0  0  0  0  0  0  0  0  0  0
    1.4143    0.2127    0.0000 H   0  0  0  0  0  0  0  0  0  0  0  0
    2.3250   -1.3428    0.0000 H   0  0  0  0  0  0  0  0  0  0  0  0
    2.2474    3.0758    0.0000 H   0  0  0  0  0  0  0  0  0  0  0  0
    1.2692    2.9451    0.0000 H   0  0  0  0  0  0  0  0  0  0  0  0
    0.5317    0.0666    0.0000 H   0  0  0  0  0  0  0  0  0  0  0  0
    3.0980    0.1706    0.0000 H   0  0  0  0  0  0  0  0  0  0  0  0
    2.8841   -0.8778    0.0000 H   0  0  0  0  0  0  0  0  0  0  0  0
    0.3632   -0.5540    0.0000 H   0  0  0  0  0  0  0  0  0  0  0  0
   -0.0079   -2.3735    0.0000 H   0  0  0  0  0  0  0  0  0  0  0  0
    3.1436   -3.0163    0.0000 H   0  0  0  0  0  0  0  0  0  0  0  0
    3.5148   -1.1968    0.0000 H   0  0  0  0  0  0  0  0  0  0  0  0
    3.0201   -3.6221    0.0000 H   0  0  0  0  0  0  0  0  0  0  0  0
    2.6490   -5.4416    0.0000 H   0  0  0  0  0  0  0  0  0  0  0  0
   -0.1315   -2.9792    0.0000 H   0  0  0  0  0  0  0  0  0  0  0  0
   -0.5026   -4.7989    0.0000 H   0  0  0  0  0  0  0  0  0  0  0  0
    0.8877   -6.0300    0.0000 H   0  0  0  0  0  0  0  0  0  0  0  0
  1  2  2  0  0  0  0
  2 15  1  0  0  0  0
  3  2  1  0  0  0  0
  3  5  1  0  0  0  0
  3  4  1  0  0  0  0
  3 29  1  1  0  0  0
  4 14  1  0  0  0  0
  5  6  1  0  0  0  0
  5 13  1  0  0  0  0
  5 30  1  6  0  0  0
  6  7  1  0  0  0  0
  6 32  1  0  0  0  0
  6 33  1  0  0  0  0
  7 12  1  0  0  0  0
  7  8  1  0  0  0  0
  8  9  2  0  0  0  0
  8 10  1  0  0  0  0
 10 11  1  0  0  0  0
 10 34  1  0  0  0  0
 11 35  1  0  0  0  0
 12 14  1  0  0  0  0
 12 36  1  0  0  0  0
 12 37  1  0  0  0  0
 13 14  1  0  0  0  0
 14 31  1  1  0  0  0
 15 16  1  0  0  0  0
 15 38  1  0  0  0  0
 16 17  1  0  0  0  0
 16 39  1  0  0  0  0
 16 40  1  0  0  0  0
 17 22  1  0  0  0  0
 17 18  2  0  0  0  0
 18 19  1  0  0  0  0
 18 41  1  0  0  0  0
 19 20  2  0  0  0  0
 19 42  1  0  0  0  0
 20 21  1  0  0  0  0
 20 23  1  0  0  0  0
 21 22  2  0  0  0  0
 21 43  1  0  0  0  0
 22 44  1  0  0  0  0
 23 24  2  0  0  0  0
 23 26  1  0  0  0  0
 24 25  1  0  0  0  0
 24 45  1  0  0  0  0
 25 28  2  0  0  0  0
 25 46  1  0  0  0  0
 26 27  2  0  0  0  0
 26 47  1  0  0  0  0
 27 28  1  0  0  0  0
 27 48  1  0  0  0  0
 28 49  1  0  0  0  0
M  END
>  <DRUGBANK_ID>
DB07026

>  <COMMON_NAME>
(1S,5S,7R)-N~7~-(BIPHENYL-4-YLMETHYL)-N~3~-HYDROXY-6,8-DIOXA-3-AZABICYCLO[3.2.1]OCTANE-3,7-DICARBOXAMIDE

$$$$
