I48
 OpenBabel10282417072D

 49 51  0  0  0  0  0  0  0  0999 V2000
   -5.3608    1.5674    0.0000 N   0  3  0  0  0  0  0  0  0  0  0  0
   -4.6463    1.9799    0.0000 C   0  0  0  0  0  0  0  0  0  0  0  0
   -3.9318    1.5674    0.0000 C   0  0  0  0  0  0  0  0  0  0  0  0
   -3.9318    0.7424    0.0000 C   0  0  0  0  0  0  0  0  0  0  0  0
   -4.6463    0.3299    0.0000 C   0  0  0  0  0  0  0  0  0  0  0  0
   -5.3608    0.7424    0.0000 C   0  0  0  0  0  0  0  0  0  0  0  0
   -3.2174    0.3299    0.0000 N   0  0  0  0  0  0  0  0  0  0  0  0
   -2.5029    0.7424    0.0000 C   0  0  0  0  0  0  0  0  0  0  0  0
   -1.7884    0.3299    0.0000 C   0  0  0  0  0  0  0  0  0  0  0  0
   -1.0739    0.7424    0.0000 O   0  0  0  0  0  0  0  0  0  0  0  0
   -0.3595    0.3299    0.0000 C   0  0  0  0  0  0  0  0  0  0  0  0
    0.3550    0.7424    0.0000 C   0  0  0  0  0  0  0  0  0  0  0  0
    1.0695    0.3299    0.0000 C   0  0  0  0  0  0  0  0  0  0  0  0
    1.0695   -0.4951    0.0000 C   0  0  0  0  0  0  0  0  0  0  0  0
    0.3550   -0.9076    0.0000 C   0  0  0  0  0  0  0  0  0  0  0  0
   -0.3595   -0.4951    0.0000 C   0  0  0  0  0  0  0  0  0  0  0  0
    0.3550   -1.7326    0.0000 C   0  0  0  0  0  0  0  0  0  0  0  0
    1.7839    0.7424    0.0000 N   0  0  0  0  0  0  0  0  0  0  0  0
    2.4984    0.3299    0.0000 S   0  0  0  0  0  0  0  0  0  0  0  0
    2.0859   -0.3846    0.0000 O   0  0  0  0  0  0  0  0  0  0  0  0
    2.9109    1.0443    0.0000 O   0  0  0  0  0  0  0  0  0  0  0  0
    3.2129   -0.0826    0.0000 C   0  0  0  0  0  0  0  0  0  0  0  0
    3.9274    0.3299    0.0000 C   0  0  0  0  0  0  0  0  0  0  0  0
    4.6418   -0.0826    0.0000 C   0  0  0  0  0  0  0  0  0  0  0  0
    4.6418   -0.9076    0.0000 C   0  0  0  0  0  0  0  0  0  0  0  0
    3.9274   -1.3201    0.0000 C   0  0  0  0  0  0  0  0  0  0  0  0
    3.2129   -0.9076    0.0000 C   0  0  0  0  0  0  0  0  0  0  0  0
   -6.2134    2.0597    0.0000 H   0  0  0  0  0  0  0  0  0  0  0  0
   -4.6463    3.0119    0.0000 H   0  0  0  0  0  0  0  0  0  0  0  0
   -3.0381    2.0834    0.0000 H   0  0  0  0  0  0  0  0  0  0  0  0
   -4.6463   -0.7021    0.0000 H   0  0  0  0  0  0  0  0  0  0  0  0
   -6.2545    0.2264    0.0000 H   0  0  0  0  0  0  0  0  0  0  0  0
   -3.2174   -0.6546    0.0000 H   0  0  0  0  0  0  0  0  0  0  0  0
   -2.5029    1.8124    0.0000 H   0  0  0  0  0  0  0  0  0  0  0  0
   -1.5763    1.2774    0.0000 H   0  0  0  0  0  0  0  0  0  0  0  0
   -1.7884   -0.7401    0.0000 H   0  0  0  0  0  0  0  0  0  0  0  0
   -0.8618   -0.2051    0.0000 H   0  0  0  0  0  0  0  0  0  0  0  0
    0.3550    1.7744    0.0000 H   0  0  0  0  0  0  0  0  0  0  0  0
    1.9632   -1.0111    0.0000 H   0  0  0  0  0  0  0  0  0  0  0  0
   -1.2532   -1.0111    0.0000 H   0  0  0  0  0  0  0  0  0  0  0  0
   -0.5716   -2.2676    0.0000 H   0  0  0  0  0  0  0  0  0  0  0  0
    1.2816   -2.2676    0.0000 H   0  0  0  0  0  0  0  0  0  0  0  0
    0.3550   -2.8026    0.0000 H   0  0  0  0  0  0  0  0  0  0  0  0
    1.7839    1.7269    0.0000 H   0  0  0  0  0  0  0  0  0  0  0  0
    3.9274    1.3619    0.0000 H   0  0  0  0  0  0  0  0  0  0  0  0
    5.5355    0.4334    0.0000 H   0  0  0  0  0  0  0  0  0  0  0  0
    5.5355   -1.4236    0.0000 H   0  0  0  0  0  0  0  0  0  0  0  0
    3.9274   -2.3521    0.0000 H   0  0  0  0  0  0  0  0  0  0  0  0
    2.3192   -1.4236    0.0000 H   0  0  0  0  0  0  0  0  0  0  0  0
  1  2  1  0  0  0  0
  1  6  2  0  0  0  0
  1 28  1  0  0  0  0
  2  3  2  0  0  0  0
  2 29  1  0  0  0  0
  3  4  1  0  0  0  0
  3 30  1  0  0  0  0
  4  5  2  0  0  0  0
  4  7  1  0  0  0  0
  5  6  1  0  0  0  0
  5 31  1  0  0  0  0
  6 32  1  0  0  0  0
  7  8  1  0  0  0  0
  7 33  1  0  0  0  0
  8  9  1  0  0  0  0
  8 34  1  0  0  0  0
  8 35  1  0  0  0  0
  9 10  1  0  0  0  0
  9 36  1  0  0  0  0
  9 37  1  0  0  0  0
 10 11  1  0  0  0  0
 11 12  2  0  0  0  0
 11 16  1  0  0  0  0
 12 13  1  0  0  0  0
 12 38  1  0  0  0  0
 13 14  2  0  0  0  0
 13 18  1  0  0  0  0
 14 15  1  0  0  0  0
 14 39  1  0  0  0  0
 15 16  2  0  0  0  0
 15 17  1  0  0  0  0
 16 40  1  0  0  0  0
 17 41  1  0  0  0  0
 17 42  1  0  0  0  0
 17 43  1  0  0  0  0
 18 19  1  0  0  0  0
 18 44  1  0  0  0  0
 19 20  2  0  0  0  0
 19 21  2  0  0  0  0
 19 22  1  0  0  0  0
 22 23  2  0  0  0  0
 22 27  1  0  0  0  0
 23 24  1  0  0  0  0
 23 45  1  0  0  0  0
 24 25  2  0  0  0  0
 24 46  1  0  0  0  0
 25 26  1  0  0  0  0
 25 47  1  0  0  0  0
 26 27  2  0  0  0  0
 26 48  1  0  0  0  0
 27 49  1  0  0  0  0
M  CHG  1   1   1
M  END
>  <DRUGBANK_ID>
DB07944

>  <COMMON_NAME>
N-{3-METHYL-5-[2-(PYRIDIN-4-YLAMINO)-ETHOXY]-PHENYL}-BENZENESULFONAMIDE

$$$$
