
 OpenBabel10282417072D

 57 57  0  0  0  0  0  0  0  0999 V2000
   -4.9963    0.1900    0.0000 C   0  0  0  0  0  0  0  0  0  0  0  0
   -4.9963   -0.6367    0.0000 C   0  0  0  0  0  0  0  0  0  0  0  0
   -4.2827   -1.0460    0.0000 C   0  0  0  0  0  0  0  0  0  0  0  0
   -3.5691   -0.6367    0.0000 C   0  0  0  0  0  0  0  0  0  0  0  0
   -3.5691    0.1900    0.0000 C   0  0  0  0  0  0  0  0  0  0  0  0
   -4.2827    0.6076    0.0000 C   0  0  0  0  0  0  0  0  0  0  0  0
   -2.8582    0.5992    0.0000 C   0  0  0  0  0  0  0  0  0  0  0  0
   -2.1441    0.1858    0.0000 C   0  0  0  0  0  0  0  0  0  0  0  0
   -1.4302    0.5950    0.0000 C   0  0  0  0  0  0  0  0  0  0  0  0
   -0.7161    0.1816    0.0000 C   0  0  0  0  0  0  0  0  0  0  0  0
   -0.0020    0.5909    0.0000 C   0  0  0  0  0  0  0  0  0  0  0  0
    0.7120    0.1775    0.0000 C   0  0  0  0  0  0  0  0  0  0  0  0
    1.4260    0.5867    0.0000 C   0  0  0  0  0  0  0  0  0  0  0  0
    2.1400    0.1733    0.0000 C   0  0  0  0  0  0  0  0  0  0  0  0
    2.8541    0.5825    0.0000 C   0  0  0  0  0  0  0  0  0  0  0  0
    3.5682    0.1690    0.0000 N   0  0  0  0  0  0  0  0  0  0  0  0
   -4.2827    1.4344    0.0000 C   0  0  0  0  0  0  0  0  0  0  0  0
   -3.3678   -1.4344    0.0000 C   0  0  0  0  0  0  0  0  0  0  0  0
   -2.7497   -0.6326    0.0000 C   0  0  0  0  0  0  0  0  0  0  0  0
   -1.4284    1.4218    0.0000 C   0  0  0  0  0  0  0  0  0  0  0  0
    1.4218    1.4093    0.0000 C   0  0  0  0  0  0  0  0  0  0  0  0
    2.8559    1.4093    0.0000 O   0  0  0  0  0  0  0  0  0  0  0  0
    4.2823    0.5825    0.0000 C   0  0  0  0  0  0  0  0  0  0  0  0
    4.9963    0.1690    0.0000 C   0  0  0  0  0  0  0  0  0  0  0  0
   -5.9245    0.7223    0.0000 H   0  0  0  0  0  0  0  0  0  0  0  0
   -5.0010    1.2600    0.0000 H   0  0  0  0  0  0  0  0  0  0  0  0
   -5.9222   -1.1730    0.0000 H   0  0  0  0  0  0  0  0  0  0  0  0
   -4.9940   -1.7067    0.0000 H   0  0  0  0  0  0  0  0  0  0  0  0
   -4.2827   -2.1160    0.0000 H   0  0  0  0  0  0  0  0  0  0  0  0
   -3.3568   -1.5823    0.0000 H   0  0  0  0  0  0  0  0  0  0  0  0
   -2.8569    1.6312    0.0000 H   0  0  0  0  0  0  0  0  0  0  0  0
   -2.1463   -0.8462    0.0000 H   0  0  0  0  0  0  0  0  0  0  0  0
   -0.7183   -0.8504    0.0000 H   0  0  0  0  0  0  0  0  0  0  0  0
    0.0003    1.6229    0.0000 H   0  0  0  0  0  0  0  0  0  0  0  0
    0.7097   -0.8545    0.0000 H   0  0  0  0  0  0  0  0  0  0  0  0
    2.1377   -0.8587    0.0000 H   0  0  0  0  0  0  0  0  0  0  0  0
    3.5682   -0.8155    0.0000 H   0  0  0  0  0  0  0  0  0  0  0  0
   -3.3561    1.9694    0.0000 H   0  0  0  0  0  0  0  0  0  0  0  0
   -5.2093    1.9694    0.0000 H   0  0  0  0  0  0  0  0  0  0  0  0
   -4.2827    2.5044    0.0000 H   0  0  0  0  0  0  0  0  0  0  0  0
   -4.1354   -2.1799    0.0000 H   0  0  0  0  0  0  0  0  0  0  0  0
   -2.3384   -1.7264    0.0000 H   0  0  0  0  0  0  0  0  0  0  0  0
   -3.1060   -2.4719    0.0000 H   0  0  0  0  0  0  0  0  0  0  0  0
   -2.2101   -1.5566    0.0000 H   0  0  0  0  0  0  0  0  0  0  0  0
   -2.2193    0.2967    0.0000 H   0  0  0  0  0  0  0  0  0  0  0  0
   -1.6797   -0.6272    0.0000 H   0  0  0  0  0  0  0  0  0  0  0  0
   -0.5006    1.9548    0.0000 H   0  0  0  0  0  0  0  0  0  0  0  0
   -2.3539    1.9588    0.0000 H   0  0  0  0  0  0  0  0  0  0  0  0
   -1.4261    2.4918    0.0000 H   0  0  0  0  0  0  0  0  0  0  0  0
    2.3457    1.9490    0.0000 H   0  0  0  0  0  0  0  0  0  0  0  0
    0.4924    1.9396    0.0000 H   0  0  0  0  0  0  0  0  0  0  0  0
    1.4163    2.4793    0.0000 H   0  0  0  0  0  0  0  0  0  0  0  0
    4.2823    1.6525    0.0000 H   0  0  0  0  0  0  0  0  0  0  0  0
    5.2093    1.1169    0.0000 H   0  0  0  0  0  0  0  0  0  0  0  0
    4.9949   -0.9010    0.0000 H   0  0  0  0  0  0  0  0  0  0  0  0
    5.9237    0.7028    0.0000 H   0  0  0  0  0  0  0  0  0  0  0  0
    5.9222   -0.3672    0.0000 H   0  0  0  0  0  0  0  0  0  0  0  0
  1  2  1  0  0  0  0
  1  6  1  0  0  0  0
  1 25  1  0  0  0  0
  1 26  1  0  0  0  0
  2  3  1  0  0  0  0
  2 27  1  0  0  0  0
  2 28  1  0  0  0  0
  3  4  1  0  0  0  0
  3 29  1  0  0  0  0
  3 30  1  0  0  0  0
  4 18  1  0  0  0  0
  4 19  1  0  0  0  0
  4  5  1  0  0  0  0
  5  6  2  0  0  0  0
  5  7  1  0  0  0  0
  6 17  1  0  0  0  0
  7  8  2  0  0  0  0
  7 31  1  0  0  0  0
  8  9  1  0  0  0  0
  8 32  1  0  0  0  0
  9 20  1  0  0  0  0
  9 10  2  0  0  0  0
 10 11  1  0  0  0  0
 10 33  1  0  0  0  0
 11 12  2  0  0  0  0
 11 34  1  0  0  0  0
 12 13  1  0  0  0  0
 12 35  1  0  0  0  0
 13 14  2  0  0  0  0
 13 21  1  0  0  0  0
 14 15  1  0  0  0  0
 14 36  1  0  0  0  0
 15 16  1  0  0  0  0
 15 22  2  0  0  0  0
 16 23  1  0  0  0  0
 16 37  1  0  0  0  0
 17 38  1  0  0  0  0
 17 39  1  0  0  0  0
 17 40  1  0  0  0  0
 18 41  1  0  0  0  0
 18 42  1  0  0  0  0
 18 43  1  0  0  0  0
 19 44  1  0  0  0  0
 19 45  1  0  0  0  0
 19 46  1  0  0  0  0
 20 47  1  0  0  0  0
 20 48  1  0  0  0  0
 20 49  1  0  0  0  0
 21 50  1  0  0  0  0
 21 51  1  0  0  0  0
 21 52  1  0  0  0  0
 23 24  1  0  0  0  0
 23 53  1  0  0  0  0
 23 54  1  0  0  0  0
 24 55  1  0  0  0  0
 24 56  1  0  0  0  0
 24 57  1  0  0  0  0
M  END
>  <DRUGBANK_ID>
DB03917

>  <SECONDARY_ACCESSION_NUMBERS>
EXPT01372

>  <COMMON_NAME>
N-Ethylretinamide

>  <CAS_NUMBER>
33631-41-3

>  <UNII>
6LM987K76Y

>  <SYNONYMS>
all-trans-N-Ethylretinamide; Ethyl retinamide; Vitamin A acid ethylamide

$$$$
