
 OpenBabel10282417072D

 55 60  0  0  0  0  0  0  0  0999 V2000
   -2.4735    3.1072    0.0000 C   0  0  0  0  0  0  0  0  0  0  0  0
   -1.7033    2.8115    0.0000 C   0  0  1  0  0  0  0  0  0  0  0  0
   -0.9331    2.5159    0.0000 C   0  0  0  0  0  0  0  0  0  0  0  0
   -1.2288    1.7457    0.0000 C   0  0  1  0  0  0  0  0  0  0  0  0
   -1.9990    2.0413    0.0000 C   0  0  0  0  0  0  0  0  0  0  0  0
   -0.8932    0.9920    0.0000 C   0  0  0  0  0  0  0  0  0  0  0  0
   -1.3057    0.2775    0.0000 N   0  0  0  0  0  0  0  0  0  0  0  0
   -0.7537   -0.3356    0.0000 C   0  0  0  0  0  0  0  0  0  0  0  0
   -1.0086   -1.1202    0.0000 C   0  0  0  0  0  0  0  0  0  0  0  0
   -1.8156   -1.2917    0.0000 N   0  0  0  0  0  0  0  0  0  0  0  0
   -2.3676   -0.6786    0.0000 C   0  0  0  0  0  0  0  0  0  0  0  0
   -2.1127    0.1060    0.0000 C   0  0  0  0  0  0  0  0  0  0  0  0
   -0.4566   -1.7333    0.0000 N   0  0  0  0  0  0  0  0  0  0  0  0
    0.0000    0.0000    0.0000 C   0  0  0  0  0  0  0  0  0  0  0  0
   -0.0862    0.8205    0.0000 N   0  0  0  0  0  0  0  0  0  0  0  0
    0.7145   -0.4125    0.0000 C   0  0  0  0  0  0  0  0  0  0  0  0
    1.4289    0.0000    0.0000 C   0  0  0  0  0  0  0  0  0  0  0  0
    2.1434   -0.4125    0.0000 C   0  0  0  0  0  0  0  0  0  0  0  0
    2.8579    0.0000    0.0000 N   0  0  0  0  0  0  0  0  0  0  0  0
    3.5724   -0.4125    0.0000 C   0  0  0  0  0  0  0  0  0  0  0  0
    3.5724   -1.2375    0.0000 C   0  0  0  0  0  0  0  0  0  0  0  0
    2.8579   -1.6500    0.0000 C   0  0  0  0  0  0  0  0  0  0  0  0
    2.1434   -1.2375    0.0000 C   0  0  0  0  0  0  0  0  0  0  0  0
    1.4289   -1.6500    0.0000 C   0  0  0  0  0  0  0  0  0  0  0  0
    0.7145   -1.2375    0.0000 C   0  0  0  0  0  0  0  0  0  0  0  0
    4.2868   -0.0000    0.0000 C   0  0  0  0  0  0  0  0  0  0  0  0
    4.2868    0.8250    0.0000 C   0  0  0  0  0  0  0  0  0  0  0  0
    5.0013    1.2375    0.0000 C   0  0  0  0  0  0  0  0  0  0  0  0
    5.7158    0.8250    0.0000 C   0  0  0  0  0  0  0  0  0  0  0  0
    5.7158   -0.0000    0.0000 C   0  0  0  0  0  0  0  0  0  0  0  0
    5.0013   -0.4125    0.0000 C   0  0  0  0  0  0  0  0  0  0  0  0
   -1.4077    3.5817    0.0000 O   0  0  0  0  0  0  0  0  0  0  0  0
   -2.6408    4.1640    0.0000 H   0  0  0  0  0  0  0  0  0  0  0  0
   -3.3051    2.4339    0.0000 H   0  0  0  0  0  0  0  0  0  0  0  0
   -3.4724    3.4907    0.0000 H   0  0  0  0  0  0  0  0  0  0  0  0
    0.0444    2.9511    0.0000 H   0  0  0  0  0  0  0  0  0  0  0  0
   -0.1570    1.7793    0.0000 H   0  0  0  0  0  0  0  0  0  0  0  0
   -0.1592    1.7737    0.0000 H   0  0  0  0  0  0  0  0  0  0  0  0
   -2.9765    1.6061    0.0000 H   0  0  0  0  0  0  0  0  0  0  0  0
   -2.7751    2.7779    0.0000 H   0  0  0  0  0  0  0  0  0  0  0  0
   -3.3770   -0.8932    0.0000 H   0  0  0  0  0  0  0  0  0  0  0  0
   -2.8032    0.8729    0.0000 H   0  0  0  0  0  0  0  0  0  0  0  0
   -0.7609   -2.6696    0.0000 H   0  0  0  0  0  0  0  0  0  0  0  0
    0.5064   -1.5286    0.0000 H   0  0  0  0  0  0  0  0  0  0  0  0
    1.4289    1.0320    0.0000 H   0  0  0  0  0  0  0  0  0  0  0  0
    4.4661   -1.7535    0.0000 H   0  0  0  0  0  0  0  0  0  0  0  0
    2.8579   -2.6820    0.0000 H   0  0  0  0  0  0  0  0  0  0  0  0
    1.4289   -2.6820    0.0000 H   0  0  0  0  0  0  0  0  0  0  0  0
   -0.1792   -1.7535    0.0000 H   0  0  0  0  0  0  0  0  0  0  0  0
    3.3931    1.3410    0.0000 H   0  0  0  0  0  0  0  0  0  0  0  0
    5.0013    2.2695    0.0000 H   0  0  0  0  0  0  0  0  0  0  0  0
    6.6095    1.3410    0.0000 H   0  0  0  0  0  0  0  0  0  0  0  0
    6.6095   -0.5160    0.0000 H   0  0  0  0  0  0  0  0  0  0  0  0
    5.0013   -1.4445    0.0000 H   0  0  0  0  0  0  0  0  0  0  0  0
   -0.4497    3.7335    0.0000 H   0  0  0  0  0  0  0  0  0  0  0  0
  1 33  1  0  0  0  0
  1 34  1  0  0  0  0
  1 35  1  0  0  0  0
  2  1  1  0  0  0  0
  2  3  1  0  0  0  0
  2  5  1  0  0  0  0
  2 32  1  6  0  0  0
  3 36  1  0  0  0  0
  3 37  1  0  0  0  0
  4  3  1  0  0  0  0
  4  5  1  0  0  0  0
  4  6  1  0  0  0  0
  4 38  1  1  0  0  0
  5 39  1  0  0  0  0
  5 40  1  0  0  0  0
  6  7  1  0  0  0  0
  6 15  2  0  0  0  0
  7  8  1  0  0  0  0
  7 12  1  0  0  0  0
  8  9  1  0  0  0  0
  8 14  2  0  0  0  0
  9 10  2  0  0  0  0
  9 13  1  0  0  0  0
 10 11  1  0  0  0  0
 11 12  2  0  0  0  0
 11 41  1  0  0  0  0
 12 42  1  0  0  0  0
 13 43  1  0  0  0  0
 13 44  1  0  0  0  0
 14 15  1  0  0  0  0
 14 16  1  0  0  0  0
 16 17  1  0  0  0  0
 16 25  2  0  0  0  0
 17 18  2  0  0  0  0
 17 45  1  0  0  0  0
 18 19  1  0  0  0  0
 18 23  1  0  0  0  0
 19 20  2  0  0  0  0
 20 21  1  0  0  0  0
 20 26  1  0  0  0  0
 21 22  2  0  0  0  0
 21 46  1  0  0  0  0
 22 23  1  0  0  0  0
 22 47  1  0  0  0  0
 23 24  2  0  0  0  0
 24 25  1  0  0  0  0
 24 48  1  0  0  0  0
 25 49  1  0  0  0  0
 26 27  2  0  0  0  0
 26 31  1  0  0  0  0
 27 28  1  0  0  0  0
 27 50  1  0  0  0  0
 28 29  2  0  0  0  0
 28 51  1  0  0  0  0
 29 30  1  0  0  0  0
 29 52  1  0  0  0  0
 30 31  2  0  0  0  0
 30 53  1  0  0  0  0
 31 54  1  0  0  0  0
 32 55  1  0  0  0  0
M  END
>  <DRUGBANK_ID>
DB06075

>  <COMMON_NAME>
Linsitinib

>  <CAS_NUMBER>
867160-71-2

>  <UNII>
15A52GPT8T

>  <SYNONYMS>
Linsitinib

$$$$
