1CM
 OpenBabel10282417072D

 34 35  0  0  0  0  0  0  0  0999 V2000
    0.3902   -0.8377    0.0000 O   0  0  0  0  0  0  0  0  0  0  0  0
    0.3902   -0.0127    0.0000 C   0  0  0  0  0  0  0  0  0  0  0  0
   -0.3242    0.3998    0.0000 C   0  0  2  0  0  0  0  0  0  0  0  0
   -0.3242    1.2248    0.0000 C   0  0  0  0  0  0  0  0  0  0  0  0
    0.3902    1.6373    0.0000 C   0  0  0  0  0  0  0  0  0  0  0  0
   -1.7532    0.3998    0.0000 C   0  0  0  0  0  0  0  0  0  0  0  0
   -1.0387   -0.0127    0.0000 C   0  0  0  0  0  0  0  0  0  0  0  0
   -1.7532   -1.2502    0.0000 C   0  0  0  0  0  0  0  0  0  0  0  0
   -2.4676   -0.8377    0.0000 C   0  0  0  0  0  0  0  0  0  0  0  0
    1.1047    0.3998    0.0000 N   0  0  0  0  0  0  0  0  0  0  0  0
    1.8192   -0.0127    0.0000 C   0  0  0  0  0  0  0  0  0  0  0  0
    2.5337    0.3998    0.0000 C   0  0  0  0  0  0  0  0  0  0  0  0
   -2.4676   -0.0127    0.0000 C   0  0  0  0  0  0  0  0  0  0  0  0
    3.2481   -0.0127    0.0000 C   0  0  0  0  0  0  0  0  0  0  0  0
    3.2481   -0.8377    0.0000 N   0  0  0  0  0  0  0  0  0  0  0  0
    2.5337   -1.2502    0.0000 C   0  0  0  0  0  0  0  0  0  0  0  0
   -1.0387   -0.8377    0.0000 C   0  0  0  0  0  0  0  0  0  0  0  0
    1.8192   -0.8377    0.0000 C   0  0  0  0  0  0  0  0  0  0  0  0
    0.1815    0.6918    0.0000 H   0  0  0  0  0  0  0  0  0  0  0  0
   -1.2509    1.7598    0.0000 H   0  0  0  0  0  0  0  0  0  0  0  0
   -0.3242    2.2948    0.0000 H   0  0  0  0  0  0  0  0  0  0  0  0
    1.3169    1.1023    0.0000 H   0  0  0  0  0  0  0  0  0  0  0  0
    0.3902    2.7073    0.0000 H   0  0  0  0  0  0  0  0  0  0  0  0
    1.3168    2.1723    0.0000 H   0  0  0  0  0  0  0  0  0  0  0  0
   -1.7532    1.4318    0.0000 H   0  0  0  0  0  0  0  0  0  0  0  0
   -1.7532   -2.2822    0.0000 H   0  0  0  0  0  0  0  0  0  0  0  0
   -3.3613   -1.3537    0.0000 H   0  0  0  0  0  0  0  0  0  0  0  0
    1.1047    1.3843    0.0000 H   0  0  0  0  0  0  0  0  0  0  0  0
    2.5337    1.4318    0.0000 H   0  0  0  0  0  0  0  0  0  0  0  0
   -3.3613    0.5033    0.0000 H   0  0  0  0  0  0  0  0  0  0  0  0
    4.1418    0.5033    0.0000 H   0  0  0  0  0  0  0  0  0  0  0  0
    2.5337   -2.2822    0.0000 H   0  0  0  0  0  0  0  0  0  0  0  0
   -0.1450   -1.3537    0.0000 H   0  0  0  0  0  0  0  0  0  0  0  0
    0.9255   -1.3537    0.0000 H   0  0  0  0  0  0  0  0  0  0  0  0
  1  2  2  0  0  0  0
  2  3  1  0  0  0  0
  2 10  1  0  0  0  0
  3  4  1  0  0  0  0
  3  7  1  0  0  0  0
  3 19  1  6  0  0  0
  4  5  1  0  0  0  0
  4 20  1  0  0  0  0
  4 21  1  0  0  0  0
  5 22  1  0  0  0  0
  5 23  1  0  0  0  0
  5 24  1  0  0  0  0
  6  7  2  0  0  0  0
  6 13  1  0  0  0  0
  6 25  1  0  0  0  0
  7 17  1  0  0  0  0
  8  9  1  0  0  0  0
  8 17  2  0  0  0  0
  8 26  1  0  0  0  0
  9 13  2  0  0  0  0
  9 27  1  0  0  0  0
 10 11  1  0  0  0  0
 10 28  1  0  0  0  0
 11 12  2  0  0  0  0
 11 18  1  0  0  0  0
 12 14  1  0  0  0  0
 12 29  1  0  0  0  0
 13 30  1  0  0  0  0
 14 15  2  0  0  0  0
 14 31  1  0  0  0  0
 15 16  1  0  0  0  0
 16 18  2  0  0  0  0
 16 32  1  0  0  0  0
 17 33  1  0  0  0  0
 18 34  1  0  0  0  0
M  END
>  <DRUGBANK_ID>
DB06890

>  <COMMON_NAME>
(2R)-2-PHENYL-N-PYRIDIN-4-YLBUTANAMIDE

$$$$
