
 OpenBabel10282417072D

 61 63  0  0  0  0  0  0  0  0999 V2000
   -3.5724   13.3661    0.0000 C   0  0  0  0  0  0  0  0  0  0  0  0
   -2.8579   12.9536    0.0000 O   0  0  0  0  0  0  0  0  0  0  0  0
   -2.8579   12.1286    0.0000 C   0  0  0  0  0  0  0  0  0  0  0  0
   -2.1434   11.7161    0.0000 C   0  0  0  0  0  0  0  0  0  0  0  0
   -2.1434   10.8911    0.0000 C   0  0  0  0  0  0  0  0  0  0  0  0
   -2.8579   10.4786    0.0000 C   0  0  0  0  0  0  0  0  0  0  0  0
   -3.5724   10.8911    0.0000 C   0  0  0  0  0  0  0  0  0  0  0  0
   -3.5724   11.7161    0.0000 C   0  0  0  0  0  0  0  0  0  0  0  0
   -4.2868   12.1286    0.0000 O   0  0  0  0  0  0  0  0  0  0  0  0
   -5.0013   11.7161    0.0000 C   0  0  0  0  0  0  0  0  0  0  0  0
   -4.2868   10.4786    0.0000 O   0  0  0  0  0  0  0  0  0  0  0  0
   -5.0013   10.8911    0.0000 C   0  0  0  0  0  0  0  0  0  0  0  0
   -1.4289   10.4786    0.0000 C   0  0  0  0  0  0  0  0  0  0  0  0
   -1.4289    9.6536    0.0000 C   0  0  0  0  0  0  0  0  0  0  0  0
   -0.7145    9.2411    0.0000 C   0  0  0  0  0  0  0  0  0  0  0  0
   -0.0000    9.6536    0.0000 O   0  0  0  0  0  0  0  0  0  0  0  0
   -0.7145    8.4161    0.0000 N   0  0  0  0  0  0  0  0  0  0  0  0
   -0.0000    8.0036    0.0000 C   0  0  0  0  0  0  0  0  0  0  0  0
   -0.0000    7.1786    0.0000 C   0  0  0  0  0  0  0  0  0  0  0  0
   -0.7145    6.7661    0.0000 N   0  0  0  0  0  0  0  0  0  0  0  0
   -1.4289    7.1786    0.0000 C   0  0  0  0  0  0  0  0  0  0  0  0
   -1.4289    8.0036    0.0000 C   0  0  0  0  0  0  0  0  0  0  0  0
   -0.7145    5.9411    0.0000 C   0  0  0  0  0  0  0  0  0  0  0  0
   -0.0000    5.5286    0.0000 C   0  0  0  0  0  0  0  0  0  0  0  0
    0.7145    5.9411    0.0000 O   0  0  0  0  0  0  0  0  0  0  0  0
   -0.0000    4.7036    0.0000 N   0  0  0  0  0  0  0  0  0  0  0  0
    0.6674    4.2187    0.0000 C   0  0  0  0  0  0  0  0  0  0  0  0
    0.4125    3.4340    0.0000 C   0  0  0  0  0  0  0  0  0  0  0  0
   -0.4125    3.4340    0.0000 C   0  0  0  0  0  0  0  0  0  0  0  0
   -0.6674    4.2187    0.0000 C   0  0  0  0  0  0  0  0  0  0  0  0
   -3.5724   14.4361    0.0000 H   0  0  0  0  0  0  0  0  0  0  0  0
   -4.4990   12.8311    0.0000 H   0  0  0  0  0  0  0  0  0  0  0  0
   -4.4991   13.9011    0.0000 H   0  0  0  0  0  0  0  0  0  0  0  0
   -1.2497   12.2321    0.0000 H   0  0  0  0  0  0  0  0  0  0  0  0
   -2.8579    9.4466    0.0000 H   0  0  0  0  0  0  0  0  0  0  0  0
   -5.9279   12.2511    0.0000 H   0  0  0  0  0  0  0  0  0  0  0  0
   -5.0013   10.6461    0.0000 H   0  0  0  0  0  0  0  0  0  0  0  0
   -5.9280   11.1811    0.0000 H   0  0  0  0  0  0  0  0  0  0  0  0
   -5.0013   11.9611    0.0000 H   0  0  0  0  0  0  0  0  0  0  0  0
   -5.9279   10.3561    0.0000 H   0  0  0  0  0  0  0  0  0  0  0  0
   -5.9280   11.4261    0.0000 H   0  0  0  0  0  0  0  0  0  0  0  0
   -0.5352   10.9946    0.0000 H   0  0  0  0  0  0  0  0  0  0  0  0
   -2.3226    9.1376    0.0000 H   0  0  0  0  0  0  0  0  0  0  0  0
    0.9266    8.5386    0.0000 H   0  0  0  0  0  0  0  0  0  0  0  0
    0.9266    7.4686    0.0000 H   0  0  0  0  0  0  0  0  0  0  0  0
    0.9266    6.6436    0.0000 H   0  0  0  0  0  0  0  0  0  0  0  0
   -0.0000    6.1086    0.0000 H   0  0  0  0  0  0  0  0  0  0  0  0
   -2.3556    6.6436    0.0000 H   0  0  0  0  0  0  0  0  0  0  0  0
   -2.3555    7.7136    0.0000 H   0  0  0  0  0  0  0  0  0  0  0  0
   -2.3556    8.5386    0.0000 H   0  0  0  0  0  0  0  0  0  0  0  0
   -1.4289    9.0736    0.0000 H   0  0  0  0  0  0  0  0  0  0  0  0
   -1.6411    5.4061    0.0000 H   0  0  0  0  0  0  0  0  0  0  0  0
   -0.7145    4.8711    0.0000 H   0  0  0  0  0  0  0  0  0  0  0  0
    1.6850    4.5494    0.0000 H   0  0  0  0  0  0  0  0  0  0  0  0
    1.4240    3.4621    0.0000 H   0  0  0  0  0  0  0  0  0  0  0  0
    1.0415    2.5684    0.0000 H   0  0  0  0  0  0  0  0  0  0  0  0
   -0.0733    2.4806    0.0000 H   0  0  0  0  0  0  0  0  0  0  0  0
   -1.0415    2.5684    0.0000 H   0  0  0  0  0  0  0  0  0  0  0  0
   -1.4693    3.6014    0.0000 H   0  0  0  0  0  0  0  0  0  0  0  0
   -1.6850    4.5494    0.0000 H   0  0  0  0  0  0  0  0  0  0  0  0
   -0.8348    5.2755    0.0000 H   0  0  0  0  0  0  0  0  0  0  0  0
  1  2  1  0  0  0  0
  1 31  1  0  0  0  0
  1 32  1  0  0  0  0
  1 33  1  0  0  0  0
  2  3  1  0  0  0  0
  3  4  2  0  0  0  0
  3  8  1  0  0  0  0
  4  5  1  0  0  0  0
  4 34  1  0  0  0  0
  5  6  2  0  0  0  0
  5 13  1  0  0  0  0
  6  7  1  0  0  0  0
  6 35  1  0  0  0  0
  7  8  2  0  0  0  0
  7 11  1  0  0  0  0
  8  9  1  0  0  0  0
  9 10  1  0  0  0  0
 10 36  1  0  0  0  0
 10 37  1  0  0  0  0
 10 38  1  0  0  0  0
 11 12  1  0  0  0  0
 12 39  1  0  0  0  0
 12 40  1  0  0  0  0
 12 41  1  0  0  0  0
 13 14  2  0  0  0  0
 13 42  1  0  0  0  0
 14 15  1  0  0  0  0
 14 43  1  0  0  0  0
 15 16  2  0  0  0  0
 15 17  1  0  0  0  0
 17 18  1  0  0  0  0
 17 22  1  0  0  0  0
 18 19  1  0  0  0  0
 18 44  1  0  0  0  0
 18 45  1  0  0  0  0
 19 20  1  0  0  0  0
 19 46  1  0  0  0  0
 19 47  1  0  0  0  0
 20 21  1  0  0  0  0
 20 23  1  0  0  0  0
 21 22  1  0  0  0  0
 21 48  1  0  0  0  0
 21 49  1  0  0  0  0
 22 50  1  0  0  0  0
 22 51  1  0  0  0  0
 23 24  1  0  0  0  0
 23 52  1  0  0  0  0
 23 53  1  0  0  0  0
 24 25  2  0  0  0  0
 24 26  1  0  0  0  0
 26 27  1  0  0  0  0
 26 30  1  0  0  0  0
 27 28  1  0  0  0  0
 27 54  1  0  0  0  0
 27 55  1  0  0  0  0
 28 29  1  0  0  0  0
 28 56  1  0  0  0  0
 28 57  1  0  0  0  0
 29 30  1  0  0  0  0
 29 58  1  0  0  0  0
 29 59  1  0  0  0  0
 30 60  1  0  0  0  0
 30 61  1  0  0  0  0
M  END
>  <DRUGBANK_ID>
DB12123

>  <COMMON_NAME>
Cinepazide

>  <CAS_NUMBER>
23887-46-9

>  <UNII>
67Y4P5C84X

>  <SYNONYMS>
Cinepazide

$$$$
