
 OpenBabel10282417072D

 35 37  0  0  1  0  0  0  0  0999 V2000
    1.6643    0.6186    0.0000 N   0  0  0  0  0  0  0  0  0  0  0  0
    0.2467    0.6186    0.0000 C   0  0  0  0  0  0  0  0  0  0  0  0
    1.1856   -0.8506    0.0000 C   0  0  2  0  0  0  0  0  0  0  0  0
    1.6643    1.4360    0.0000 C   0  0  0  0  0  0  0  0  0  0  0  0
    0.2467    1.4360    0.0000 C   0  0  0  0  0  0  0  0  0  0  0  0
   -0.4676    0.1952    0.0000 N   0  0  0  0  0  0  0  0  0  0  0  0
    0.5044   -0.3608    0.0000 O   0  0  0  0  0  0  0  0  0  0  0  0
    0.9389   -1.6201    0.0000 C   0  0  1  0  0  0  0  0  0  0  0  0
    0.9536    1.8521    0.0000 N   0  0  0  0  0  0  0  0  0  0  0  0
   -0.4713    1.8521    0.0000 C   0  0  0  0  0  0  0  0  0  0  0  0
   -1.1856    0.6149    0.0000 C   0  0  0  0  0  0  0  0  0  0  0  0
   -0.1620   -0.8321    0.0000 C   0  0  1  0  0  0  0  0  0  0  0  0
    0.1068   -1.6201    0.0000 C   0  0  1  0  0  0  0  0  0  0  0  0
    1.4212   -2.2902    0.0000 O   0  0  0  0  0  0  0  0  0  0  0  0
   -1.1893    1.4360    0.0000 N   0  0  0  0  0  0  0  0  0  0  0  0
   -0.4713    2.6695    0.0000 N   0  0  0  0  0  0  0  0  0  0  0  0
   -0.9426   -0.5891    0.0000 C   0  0  0  0  0  0  0  0  0  0  0  0
   -0.3645   -2.2902    0.0000 O   0  0  0  0  0  0  0  0  0  0  0  0
   -1.4397   -1.2483    0.0000 S   0  0  0  0  0  0  0  0  0  0  0  0
   -2.2350   -1.0310    0.0000 C   0  0  0  0  0  0  0  0  0  0  0  0
    0.8529    0.1663    0.0000 H   0  0  0  0  0  0  0  0  0  0  0  0
    2.5596    1.9493    0.0000 H   0  0  0  0  0  0  0  0  0  0  0  0
    1.9958   -1.4530    0.0000 H   0  0  0  0  0  0  0  0  0  0  0  0
   -2.0796    0.0993    0.0000 H   0  0  0  0  0  0  0  0  0  0  0  0
   -0.3292    0.2248    0.0000 H   0  0  0  0  0  0  0  0  0  0  0  0
    0.5999   -2.5697    0.0000 H   0  0  0  0  0  0  0  0  0  0  0  0
    1.0227   -3.1746    0.0000 H   0  0  0  0  0  0  0  0  0  0  0  0
    0.3813    3.1618    0.0000 H   0  0  0  0  0  0  0  0  0  0  0  0
   -1.3239    3.1618    0.0000 H   0  0  0  0  0  0  0  0  0  0  0  0
   -1.2705    0.4294    0.0000 H   0  0  0  0  0  0  0  0  0  0  0  0
   -1.9977   -0.4109    0.0000 H   0  0  0  0  0  0  0  0  0  0  0  0
   -1.3306   -2.2036    0.0000 H   0  0  0  0  0  0  0  0  0  0  0  0
   -2.5068    0.0039    0.0000 H   0  0  0  0  0  0  0  0  0  0  0  0
   -2.9953   -1.7839    0.0000 H   0  0  0  0  0  0  0  0  0  0  0  0
   -3.2672   -0.7490    0.0000 H   0  0  0  0  0  0  0  0  0  0  0  0
  1  2  1  0  0  0  0
  1  4  1  0  0  0  0
  2  5  2  0  0  0  0
  2  6  1  0  0  0  0
  3  1  1  0  0  0  0
  3  7  1  0  0  0  0
  3  8  1  0  0  0  0
  3 21  1  6  0  0  0
  4  9  2  0  0  0  0
  4 22  1  0  0  0  0
  5 10  1  0  0  0  0
  5  9  1  0  0  0  0
  6 11  2  0  0  0  0
  7 12  1  0  0  0  0
  8 13  1  0  0  0  0
  8 14  1  0  0  0  0
  8 23  1  1  0  0  0
 10 15  2  0  0  0  0
 10 16  1  0  0  0  0
 11 15  1  0  0  0  0
 11 24  1  0  0  0  0
 12 17  1  0  0  0  0
 12 13  1  0  0  0  0
 12 25  1  6  0  0  0
 13 18  1  0  0  0  0
 13 26  1  1  0  0  0
 14 27  1  0  0  0  0
 16 28  1  0  0  0  0
 16 29  1  0  0  0  0
 17 19  1  0  0  0  0
 17 30  1  0  0  0  0
 17 31  1  0  0  0  0
 18 32  1  0  0  0  0
 19 20  1  0  0  0  0
 20 33  1  0  0  0  0
 20 34  1  0  0  0  0
 20 35  1  0  0  0  0
M  END
>  <DRUGBANK_ID>
DB02282

>  <SECONDARY_ACCESSION_NUMBERS>
EXPT02241

>  <COMMON_NAME>
5'-S-methyl-5'-thioadenosine

>  <CAS_NUMBER>
2457-80-9

>  <UNII>
634Z2VK3UQ

>  <SYNONYMS>
5-Methylthioadenosine; 5'-Deoxy-5'-(methylthio)adenosine; 5'-Methylthioadenosine; 9-(5-S-methyl-5-thio-Î²-D-ribofuranosyl)-9H-purin-6-amine; Methylthioadenosine; MTA; S-Methyl-5'-thioadenosine; Thiomethyladenosine; Vitamin L2

$$$$
