
 OpenBabel10282417072D

154162  0  0  1  0  0  0  0  0999 V2000
    6.5063   -3.0600    0.0000 H   0  0  0  0  0  0  0  0  0  0  0  0
    7.1609   -3.5622    0.0000 C   0  0  1  0  0  0  0  0  0  0  0  0
    7.7740   -4.1143    0.0000 C   0  0  0  0  0  0  0  0  0  0  0  0
    7.4384   -4.8679    0.0000 C   0  0  0  0  0  0  0  0  0  0  0  0
    6.6179   -4.7817    0.0000 C   0  0  2  0  0  0  0  0  0  0  0  0
    6.4464   -3.9747    0.0000 N   0  0  0  0  0  0  0  0  0  0  0  0
    5.6495   -3.7612    0.0000 C   0  0  0  0  0  0  0  0  0  0  0  0
    5.1473   -4.4157    0.0000 O   0  0  0  0  0  0  0  0  0  0  0  0
    5.2370   -3.0467    0.0000 C   0  0  2  0  0  0  0  0  0  0  0  0
    5.4505   -2.2498    0.0000 C   0  0  0  0  0  0  0  0  0  0  0  0
    6.1650   -1.8373    0.0000 N   0  0  0  0  0  0  0  0  0  0  0  0
    6.9619   -2.0509    0.0000 C   0  0  0  0  0  0  0  0  0  0  0  0
    7.3744   -2.7653    0.0000 C   0  0  0  0  0  0  0  0  0  0  0  0
    6.0573   -1.0194    0.0000 S   0  0  0  0  0  0  0  0  0  0  0  0
    5.2394   -1.1271    0.0000 O   0  0  0  0  0  0  0  0  0  0  0  0
    6.8753   -0.9117    0.0000 O   0  0  0  0  0  0  0  0  0  0  0  0
    5.9496   -0.2015    0.0000 C   0  0  0  0  0  0  0  0  0  0  0  0
    5.1874    0.1143    0.0000 C   0  0  0  0  0  0  0  0  0  0  0  0
    5.0797    0.9322    0.0000 C   0  0  0  0  0  0  0  0  0  0  0  0
    5.7343    1.4344    0.0000 C   0  0  0  0  0  0  0  0  0  0  0  0
    6.4965    1.1187    0.0000 C   0  0  0  0  0  0  0  0  0  0  0  0
    6.6041    0.3008    0.0000 C   0  0  0  0  0  0  0  0  0  0  0  0
    4.3175    1.2479    0.0000 S   0  0  0  0  0  0  0  0  0  0  0  0
    4.0018    0.4857    0.0000 O   0  0  0  0  0  0  0  0  0  0  0  0
    4.6333    2.0101    0.0000 O   0  0  0  0  0  0  0  0  0  0  0  0
    3.5553    1.5636    0.0000 N   0  0  0  0  0  0  0  0  0  0  0  0
    2.9720    0.9803    0.0000 C   0  0  0  0  0  0  0  0  0  0  0  0
    2.1470    0.9803    0.0000 C   0  0  0  0  0  0  0  0  0  0  0  0
    1.5636    1.5636    0.0000 C   0  0  1  0  0  0  0  0  0  0  0  0
    2.3258    1.8793    0.0000 H   0  0  0  0  0  0  0  0  0  0  0  0
    0.7790    1.3087    0.0000 C   0  0  0  0  0  0  0  0  0  0  0  0
    0.2941    1.9761    0.0000 C   0  0  0  0  0  0  0  0  0  0  0  0
    0.7790    2.6436    0.0000 C   0  0  2  0  0  0  0  0  0  0  0  0
    1.5636    2.3886    0.0000 N   0  0  0  0  0  0  0  0  0  0  0  0
    2.1470    2.9720    0.0000 C   0  0  0  0  0  0  0  0  0  0  0  0
    1.8313    3.7342    0.0000 O   0  0  0  0  0  0  0  0  0  0  0  0
    2.9720    2.9720    0.0000 C   0  0  2  0  0  0  0  0  0  0  0  0
    3.5553    2.3886    0.0000 C   0  0  0  0  0  0  0  0  0  0  0  0
    3.2877    3.7342    0.0000 N   0  0  0  0  0  0  0  0  0  0  0  0
    2.7855    4.3887    0.0000 C   0  0  0  0  0  0  0  0  0  0  0  0
    1.9675    4.2810    0.0000 O   0  0  0  0  0  0  0  0  0  0  0  0
    3.1012    5.1509    0.0000 C   0  0  2  0  0  0  0  0  0  0  0  0
    3.9191    5.2586    0.0000 C   0  0  0  0  0  0  0  0  0  0  0  0
    2.5990    5.8054    0.0000 N   0  0  0  0  0  0  0  0  0  0  0  0
    2.9147    6.5676    0.0000 C   0  0  0  0  0  0  0  0  0  0  0  0
    0.5241    3.4282    0.0000 C   0  0  0  0  0  0  0  0  0  0  0  0
    1.0761    4.0413    0.0000 O   0  0  0  0  0  0  0  0  0  0  0  0
   -0.2829    3.5997    0.0000 N   0  0  0  0  0  0  0  0  0  0  0  0
   -0.5379    4.3843    0.0000 C   0  0  0  0  0  0  0  0  0  0  0  0
   -1.3448    4.5559    0.0000 C   0  0  0  0  0  0  0  0  0  0  0  0
   -1.8969    3.9428    0.0000 C   0  0  0  0  0  0  0  0  0  0  0  0
   -2.7038    4.1143    0.0000 C   0  0  0  0  0  0  0  0  0  0  0  0
   -2.9588    4.8989    0.0000 C   0  0  0  0  0  0  0  0  0  0  0  0
   -2.4067    5.5120    0.0000 C   0  0  0  0  0  0  0  0  0  0  0  0
   -1.5998    5.3405    0.0000 C   0  0  0  0  0  0  0  0  0  0  0  0
    0.0142    4.9974    0.0000 C   0  0  0  0  0  0  0  0  0  0  0  0
   -0.2408    5.7820    0.0000 C   0  0  0  0  0  0  0  0  0  0  0  0
    0.3113    6.3951    0.0000 C   0  0  0  0  0  0  0  0  0  0  0  0
    1.1182    6.2236    0.0000 C   0  0  0  0  0  0  0  0  0  0  0  0
    1.3732    5.4390    0.0000 C   0  0  0  0  0  0  0  0  0  0  0  0
    0.8212    4.8259    0.0000 C   0  0  0  0  0  0  0  0  0  0  0  0
    4.4191   -3.1544    0.0000 N   0  0  0  0  0  0  0  0  0  0  0  0
    4.1033   -3.9166    0.0000 C   0  0  0  0  0  0  0  0  0  0  0  0
    4.6056   -4.5711    0.0000 O   0  0  0  0  0  0  0  0  0  0  0  0
    3.2854   -4.0243    0.0000 C   0  0  2  0  0  0  0  0  0  0  0  0
    2.7832   -3.3698    0.0000 C   0  0  0  0  0  0  0  0  0  0  0  0
    2.9697   -4.7865    0.0000 N   0  0  0  0  0  0  0  0  0  0  0  0
    3.4719   -5.4410    0.0000 C   0  0  0  0  0  0  0  0  0  0  0  0
    6.0659   -5.3948    0.0000 C   0  0  0  0  0  0  0  0  0  0  0  0
    5.2589   -5.2233    0.0000 O   0  0  0  0  0  0  0  0  0  0  0  0
    6.3208   -6.1794    0.0000 N   0  0  0  0  0  0  0  0  0  0  0  0
    5.7688   -6.7925    0.0000 C   0  0  0  0  0  0  0  0  0  0  0  0
    6.0237   -7.5771    0.0000 C   0  0  0  0  0  0  0  0  0  0  0  0
    6.8307   -7.7487    0.0000 C   0  0  0  0  0  0  0  0  0  0  0  0
    7.0856   -8.5333    0.0000 C   0  0  0  0  0  0  0  0  0  0  0  0
    6.5336   -9.1464    0.0000 C   0  0  0  0  0  0  0  0  0  0  0  0
    5.7266   -8.9749    0.0000 C   0  0  0  0  0  0  0  0  0  0  0  0
    5.4717   -8.1902    0.0000 C   0  0  0  0  0  0  0  0  0  0  0  0
    4.9618   -6.6210    0.0000 C   0  0  0  0  0  0  0  0  0  0  0  0
    4.4098   -7.2341    0.0000 C   0  0  0  0  0  0  0  0  0  0  0  0
    3.6028   -7.0626    0.0000 C   0  0  0  0  0  0  0  0  0  0  0  0
    3.3479   -6.2779    0.0000 C   0  0  0  0  0  0  0  0  0  0  0  0
    3.8999   -5.6648    0.0000 C   0  0  0  0  0  0  0  0  0  0  0  0
    4.7069   -5.8364    0.0000 C   0  0  0  0  0  0  0  0  0  0  0  0
    8.8206   -3.8919    0.0000 H   0  0  0  0  0  0  0  0  0  0  0  0
    8.4473   -4.9459    0.0000 H   0  0  0  0  0  0  0  0  0  0  0  0
    7.9734   -5.7946    0.0000 H   0  0  0  0  0  0  0  0  0  0  0  0
    6.8556   -5.7653    0.0000 H   0  0  0  0  0  0  0  0  0  0  0  0
    7.0014   -5.7806    0.0000 H   0  0  0  0  0  0  0  0  0  0  0  0
    4.7638   -4.0064    0.0000 H   0  0  0  0  0  0  0  0  0  0  0  0
    4.6016   -1.5984    0.0000 H   0  0  0  0  0  0  0  0  0  0  0  0
    5.5205   -1.1821    0.0000 H   0  0  0  0  0  0  0  0  0  0  0  0
    7.6133   -1.2020    0.0000 H   0  0  0  0  0  0  0  0  0  0  0  0
    8.0296   -2.1209    0.0000 H   0  0  0  0  0  0  0  0  0  0  0  0
    8.4352   -2.6256    0.0000 H   0  0  0  0  0  0  0  0  0  0  0  0
    8.0799   -3.5697    0.0000 H   0  0  0  0  0  0  0  0  0  0  0  0
    4.3686   -0.5139    0.0000 H   0  0  0  0  0  0  0  0  0  0  0  0
    5.5996    2.4576    0.0000 H   0  0  0  0  0  0  0  0  0  0  0  0
    7.3153    1.7469    0.0000 H   0  0  0  0  0  0  0  0  0  0  0  0
    7.5575   -0.0941    0.0000 H   0  0  0  0  0  0  0  0  0  0  0  0
    3.3815   -0.0083    0.0000 H   0  0  0  0  0  0  0  0  0  0  0  0
    2.3775    0.0906    0.0000 H   0  0  0  0  0  0  0  0  0  0  0  0
    1.7376   -0.0083    0.0000 H   0  0  0  0  0  0  0  0  0  0  0  0
    1.0976    0.7715    0.0000 H   0  0  0  0  0  0  0  0  0  0  0  0
    0.4483    0.2911    0.0000 H   0  0  0  0  0  0  0  0  0  0  0  0
   -0.2778    1.1413    0.0000 H   0  0  0  0  0  0  0  0  0  0  0  0
   -0.7759    1.9761    0.0000 H   0  0  0  0  0  0  0  0  0  0  0  0
   -0.1917    2.9295    0.0000 H   0  0  0  0  0  0  0  0  0  0  0  0
   -0.2778    2.8110    0.0000 H   0  0  0  0  0  0  0  0  0  0  0  0
    2.3775    3.8617    0.0000 H   0  0  0  0  0  0  0  0  0  0  0  0
    4.5439    2.7980    0.0000 H   0  0  0  0  0  0  0  0  0  0  0  0
    4.4450    1.7941    0.0000 H   0  0  0  0  0  0  0  0  0  0  0  0
    4.2638    3.8627    0.0000 H   0  0  0  0  0  0  0  0  0  0  0  0
    3.7526    4.3020    0.0000 H   0  0  0  0  0  0  0  0  0  0  0  0
    4.5705    4.4097    0.0000 H   0  0  0  0  0  0  0  0  0  0  0  0
    4.3285    6.2472    0.0000 H   0  0  0  0  0  0  0  0  0  0  0  0
    4.9799    5.3983    0.0000 H   0  0  0  0  0  0  0  0  0  0  0  0
    1.5877    5.6723    0.0000 H   0  0  0  0  0  0  0  0  0  0  0  0
    3.9755    6.7073    0.0000 H   0  0  0  0  0  0  0  0  0  0  0  0
    2.2633    7.4165    0.0000 H   0  0  0  0  0  0  0  0  0  0  0  0
    3.3242    7.5562    0.0000 H   0  0  0  0  0  0  0  0  0  0  0  0
   -0.9416    2.8680    0.0000 H   0  0  0  0  0  0  0  0  0  0  0  0
   -0.8685    5.4020    0.0000 H   0  0  0  0  0  0  0  0  0  0  0  0
   -1.5780    2.9613    0.0000 H   0  0  0  0  0  0  0  0  0  0  0  0
   -3.3943    3.3473    0.0000 H   0  0  0  0  0  0  0  0  0  0  0  0
   -3.9683    5.1135    0.0000 H   0  0  0  0  0  0  0  0  0  0  0  0
   -2.7256    6.4935    0.0000 H   0  0  0  0  0  0  0  0  0  0  0  0
   -0.9093    6.1075    0.0000 H   0  0  0  0  0  0  0  0  0  0  0  0
   -1.2503    5.9966    0.0000 H   0  0  0  0  0  0  0  0  0  0  0  0
   -0.0076    7.3766    0.0000 H   0  0  0  0  0  0  0  0  0  0  0  0
    1.8087    6.9906    0.0000 H   0  0  0  0  0  0  0  0  0  0  0  0
    2.3827    5.2245    0.0000 H   0  0  0  0  0  0  0  0  0  0  0  0
    1.1401    3.8444    0.0000 H   0  0  0  0  0  0  0  0  0  0  0  0
    3.8198   -2.3733    0.0000 H   0  0  0  0  0  0  0  0  0  0  0  0
    3.6949   -3.0357    0.0000 H   0  0  0  0  0  0  0  0  0  0  0  0
    3.1927   -2.3813    0.0000 H   0  0  0  0  0  0  0  0  0  0  0  0
    1.7224   -3.5094    0.0000 H   0  0  0  0  0  0  0  0  0  0  0  0
    2.1318   -2.5209    0.0000 H   0  0  0  0  0  0  0  0  0  0  0  0
    1.9584   -4.9196    0.0000 H   0  0  0  0  0  0  0  0  0  0  0  0
    3.0624   -6.4295    0.0000 H   0  0  0  0  0  0  0  0  0  0  0  0
    4.5327   -5.3014    0.0000 H   0  0  0  0  0  0  0  0  0  0  0  0
    4.1233   -6.2899    0.0000 H   0  0  0  0  0  0  0  0  0  0  0  0
    7.2838   -6.3841    0.0000 H   0  0  0  0  0  0  0  0  0  0  0  0
    5.0528   -7.5877    0.0000 H   0  0  0  0  0  0  0  0  0  0  0  0
    7.5213   -6.9818    0.0000 H   0  0  0  0  0  0  0  0  0  0  0  0
    8.0950   -8.7479    0.0000 H   0  0  0  0  0  0  0  0  0  0  0  0
    6.8525  -10.1279    0.0000 H   0  0  0  0  0  0  0  0  0  0  0  0
    5.0360   -9.7418    0.0000 H   0  0  0  0  0  0  0  0  0  0  0  0
    4.4623   -7.9756    0.0000 H   0  0  0  0  0  0  0  0  0  0  0  0
    4.7287   -8.2156    0.0000 H   0  0  0  0  0  0  0  0  0  0  0  0
    2.9122   -7.8295    0.0000 H   0  0  0  0  0  0  0  0  0  0  0  0
    2.3385   -6.0633    0.0000 H   0  0  0  0  0  0  0  0  0  0  0  0
    3.5810   -4.6833    0.0000 H   0  0  0  0  0  0  0  0  0  0  0  0
    5.3975   -5.0695    0.0000 H   0  0  0  0  0  0  0  0  0  0  0  0
  2  1  1  6  0  0  0
  2  3  1  0  0  0  0
  2  6  1  0  0  0  0
  2 13  1  0  0  0  0
  3  4  1  0  0  0  0
  3 85  1  0  0  0  0
  3 86  1  0  0  0  0
  4 87  1  0  0  0  0
  4 88  1  0  0  0  0
  5  4  1  0  0  0  0
  5  6  1  0  0  0  0
  5 69  1  0  0  0  0
  5 89  1  6  0  0  0
  6  7  1  0  0  0  0
  7  8  2  0  0  0  0
  9  7  1  0  0  0  0
  9 10  1  0  0  0  0
  9 62  1  0  0  0  0
  9 90  1  6  0  0  0
 10 11  1  0  0  0  0
 10 91  1  0  0  0  0
 10 92  1  0  0  0  0
 11 12  1  0  0  0  0
 11 14  1  0  0  0  0
 12 13  1  0  0  0  0
 12 93  1  0  0  0  0
 12 94  1  0  0  0  0
 13 95  1  0  0  0  0
 13 96  1  0  0  0  0
 14 15  2  0  0  0  0
 14 16  2  0  0  0  0
 14 17  1  0  0  0  0
 17 18  2  0  0  0  0
 17 22  1  0  0  0  0
 18 19  1  0  0  0  0
 18 97  1  0  0  0  0
 19 20  2  0  0  0  0
 19 23  1  0  0  0  0
 20 21  1  0  0  0  0
 20 98  1  0  0  0  0
 21 22  2  0  0  0  0
 21 99  1  0  0  0  0
 22100  1  0  0  0  0
 23 24  2  0  0  0  0
 23 25  2  0  0  0  0
 23 26  1  0  0  0  0
 26 27  1  0  0  0  0
 26 38  1  0  0  0  0
 27 28  1  0  0  0  0
 27101  1  0  0  0  0
 27102  1  0  0  0  0
 28103  1  0  0  0  0
 28104  1  0  0  0  0
 29 28  1  0  0  0  0
 29 30  1  6  0  0  0
 29 31  1  0  0  0  0
 29 34  1  0  0  0  0
 31 32  1  0  0  0  0
 31105  1  0  0  0  0
 31106  1  0  0  0  0
 32107  1  0  0  0  0
 32108  1  0  0  0  0
 33 32  1  0  0  0  0
 33 34  1  0  0  0  0
 33 46  1  0  0  0  0
 33109  1  6  0  0  0
 34 35  1  0  0  0  0
 35 36  2  0  0  0  0
 37 35  1  0  0  0  0
 37 38  1  0  0  0  0
 37 39  1  0  0  0  0
 37110  1  6  0  0  0
 38111  1  0  0  0  0
 38112  1  0  0  0  0
 39 40  1  0  0  0  0
 39113  1  0  0  0  0
 40 41  2  0  0  0  0
 42 40  1  0  0  0  0
 42 43  1  0  0  0  0
 42 44  1  0  0  0  0
 42114  1  6  0  0  0
 43115  1  0  0  0  0
 43116  1  0  0  0  0
 43117  1  0  0  0  0
 44 45  1  0  0  0  0
 44118  1  0  0  0  0
 45119  1  0  0  0  0
 45120  1  0  0  0  0
 45121  1  0  0  0  0
 46 47  2  0  0  0  0
 46 48  1  0  0  0  0
 48 49  1  0  0  0  0
 48122  1  0  0  0  0
 49 50  1  0  0  0  0
 49 56  1  0  0  0  0
 49123  1  0  0  0  0
 50 51  2  0  0  0  0
 50 55  1  0  0  0  0
 51 52  1  0  0  0  0
 51124  1  0  0  0  0
 52 53  2  0  0  0  0
 52125  1  0  0  0  0
 53 54  1  0  0  0  0
 53126  1  0  0  0  0
 54 55  2  0  0  0  0
 54127  1  0  0  0  0
 55128  1  0  0  0  0
 56 57  2  0  0  0  0
 56 61  1  0  0  0  0
 57 58  1  0  0  0  0
 57129  1  0  0  0  0
 58 59  2  0  0  0  0
 58130  1  0  0  0  0
 59 60  1  0  0  0  0
 59131  1  0  0  0  0
 60 61  2  0  0  0  0
 60132  1  0  0  0  0
 61133  1  0  0  0  0
 62 63  1  0  0  0  0
 62134  1  0  0  0  0
 63 64  2  0  0  0  0
 65 63  1  0  0  0  0
 65 66  1  0  0  0  0
 65 67  1  0  0  0  0
 65135  1  6  0  0  0
 66136  1  0  0  0  0
 66137  1  0  0  0  0
 66138  1  0  0  0  0
 67 68  1  0  0  0  0
 67139  1  0  0  0  0
 68140  1  0  0  0  0
 68141  1  0  0  0  0
 68142  1  0  0  0  0
 69 70  2  0  0  0  0
 69 71  1  0  0  0  0
 71 72  1  0  0  0  0
 71143  1  0  0  0  0
 72 73  1  0  0  0  0
 72 79  1  0  0  0  0
 72144  1  0  0  0  0
 73 74  2  0  0  0  0
 73 78  1  0  0  0  0
 74 75  1  0  0  0  0
 74145  1  0  0  0  0
 75 76  2  0  0  0  0
 75146  1  0  0  0  0
 76 77  1  0  0  0  0
 76147  1  0  0  0  0
 77 78  2  0  0  0  0
 77148  1  0  0  0  0
 78149  1  0  0  0  0
 79 80  2  0  0  0  0
 79 84  1  0  0  0  0
 80 81  1  0  0  0  0
 80150  1  0  0  0  0
 81 82  2  0  0  0  0
 81151  1  0  0  0  0
 82 83  1  0  0  0  0
 82152  1  0  0  0  0
 83 84  2  0  0  0  0
 83153  1  0  0  0  0
 84154  1  0  0  0  0
M  END
>  <DRUGBANK_ID>
DB16095

>  <COMMON_NAME>
APG-1387

>  <CAS_NUMBER>
1570231-89-8

>  <UNII>
E53VN70K2X

>  <SYNONYMS>
Apg-1387 (smac mimetic)

$$$$
