PSG
 OpenBabel10282417072D

 36 37  0  0  0  0  0  0  0  0999 V2000
    1.0447   -1.6358    0.0000 C   0  0  0  0  0  0  0  0  0  0  0  0
    1.7592   -2.0483    0.0000 C   0  0  0  0  0  0  0  0  0  0  0  0
    1.7592   -2.8733    0.0000 C   0  0  0  0  0  0  0  0  0  0  0  0
    1.0447   -3.2858    0.0000 C   0  0  0  0  0  0  0  0  0  0  0  0
    0.3302   -2.8733    0.0000 C   0  0  0  0  0  0  0  0  0  0  0  0
    0.3302   -2.0483    0.0000 C   0  0  0  0  0  0  0  0  0  0  0  0
    2.4736   -3.2858    0.0000 N   0  3  0  0  0  0  0  0  0  0  0  0
    2.4736   -4.1108    0.0000 O   0  0  0  0  0  0  0  0  0  0  0  0
    3.1881   -2.8733    0.0000 O   0  5  0  0  0  0  0  0  0  0  0  0
   -0.3842   -1.6358    0.0000 S   0  0  0  0  0  0  0  0  0  0  0  0
   -0.3842   -0.8108    0.0000 C   0  0  1  0  0  0  0  0  0  0  0  0
   -1.0987   -0.3983    0.0000 C   0  0  1  0  0  0  0  0  0  0  0  0
   -1.0987    0.4267    0.0000 C   0  0  2  0  0  0  0  0  0  0  0  0
   -0.3842    0.8392    0.0000 C   0  0  1  0  0  0  0  0  0  0  0  0
    0.3302    0.4267    0.0000 C   0  0  1  0  0  0  0  0  0  0  0  0
    1.0447    0.8392    0.0000 C   0  0  0  0  0  0  0  0  0  0  0  0
   -1.8132   -0.8108    0.0000 O   0  0  0  0  0  0  0  0  0  0  0  0
   -1.8132    0.8392    0.0000 O   0  0  0  0  0  0  0  0  0  0  0  0
   -0.3842    1.6642    0.0000 O   0  0  0  0  0  0  0  0  0  0  0  0
    0.3302   -0.3983    0.0000 O   0  0  0  0  0  0  0  0  0  0  0  0
    1.7592    0.4267    0.0000 O   0  0  0  0  0  0  0  0  0  0  0  0
   -0.7596   -1.2582    0.0000 H   0  0  0  0  0  0  0  0  0  0  0  0
   -1.2984   -0.9471    0.0000 H   0  0  0  0  0  0  0  0  0  0  0  0
   -1.6044    0.1347    0.0000 H   0  0  0  0  0  0  0  0  0  0  0  0
   -0.8899    1.1311    0.0000 H   0  0  0  0  0  0  0  0  0  0  0  0
    0.3302    1.0106    0.0000 H   0  0  0  0  0  0  0  0  0  0  0  0
    1.0447   -0.6038    0.0000 H   0  0  0  0  0  0  0  0  0  0  0  0
    2.6529   -1.5323    0.0000 H   0  0  0  0  0  0  0  0  0  0  0  0
    1.0447   -4.3178    0.0000 H   0  0  0  0  0  0  0  0  0  0  0  0
   -0.5635   -3.3893    0.0000 H   0  0  0  0  0  0  0  0  0  0  0  0
    1.0447    1.9092    0.0000 H   0  0  0  0  0  0  0  0  0  0  0  0
    1.9713    1.3742    0.0000 H   0  0  0  0  0  0  0  0  0  0  0  0
   -2.6532   -0.3258    0.0000 H   0  0  0  0  0  0  0  0  0  0  0  0
   -1.8132    1.8092    0.0000 H   0  0  0  0  0  0  0  0  0  0  0  0
    0.4558    2.1492    0.0000 H   0  0  0  0  0  0  0  0  0  0  0  0
    1.7592   -0.5433    0.0000 H   0  0  0  0  0  0  0  0  0  0  0  0
  1  2  2  0  0  0  0
  1  6  1  0  0  0  0
  1 27  1  0  0  0  0
  2  3  1  0  0  0  0
  2 28  1  0  0  0  0
  3  4  2  0  0  0  0
  3  7  1  0  0  0  0
  4  5  1  0  0  0  0
  4 29  1  0  0  0  0
  5  6  2  0  0  0  0
  5 30  1  0  0  0  0
  6 10  1  0  0  0  0
  7  8  2  0  0  0  0
  7  9  1  0  0  0  0
 11 10  1  0  0  0  0
 11 12  1  0  0  0  0
 11 20  1  0  0  0  0
 11 22  1  6  0  0  0
 12 13  1  0  0  0  0
 12 17  1  0  0  0  0
 12 23  1  1  0  0  0
 13 14  1  0  0  0  0
 13 18  1  0  0  0  0
 13 24  1  6  0  0  0
 14 15  1  0  0  0  0
 14 19  1  0  0  0  0
 14 25  1  1  0  0  0
 15 16  1  0  0  0  0
 15 20  1  0  0  0  0
 15 26  1  6  0  0  0
 16 21  1  0  0  0  0
 16 31  1  0  0  0  0
 16 32  1  0  0  0  0
 17 33  1  0  0  0  0
 18 34  1  0  0  0  0
 19 35  1  0  0  0  0
 21 36  1  0  0  0  0
M  CHG  2   7   1   9  -1
M  END
>  <DRUGBANK_ID>
DB08430

>  <COMMON_NAME>
PARA-NITROPHENYL 1-THIO-BETA-D-GLUCOPYRANOSIDE

$$$$
