
 OpenBabel10282417072D

100107  0  0  0  0  0  0  0  0999 V2000
   -3.5296    3.2721    0.0000 C   0  0  3  0  0  0  0  0  0  0  0  0
   -2.8071    2.8736    0.0000 C   0  0  3  0  0  0  0  0  0  0  0  0
   -2.1055    3.2997    0.0000 C   0  0  3  0  0  0  0  0  0  0  0  0
   -2.1191    4.1205    0.0000 O   0  0  0  0  0  0  0  0  0  0  0  0
   -2.8415    4.5192    0.0000 C   0  0  3  0  0  0  0  0  0  0  0  0
   -3.5504    4.0968    0.0000 C   0  0  3  0  0  0  0  0  0  0  0  0
   -4.2728    4.4954    0.0000 O   0  0  0  0  0  0  0  0  0  0  0  0
   -4.2346    2.8437    0.0000 O   0  0  0  0  0  0  0  0  0  0  0  0
   -2.7899    2.0485    0.0000 O   0  0  0  0  0  0  0  0  0  0  0  0
   -2.8552    5.3440    0.0000 C   0  0  0  0  0  0  0  0  0  0  0  0
   -2.1526    5.7678    0.0000 O   0  0  0  0  0  0  0  0  0  0  0  0
   -1.3869    2.8942    0.0000 O   0  0  0  0  0  0  0  0  0  0  0  0
    1.4789   -0.4149    0.0000 C   0  0  0  0  0  0  0  0  0  0  0  0
    0.7529   -0.8120    0.0000 C   0  0  0  0  0  0  0  0  0  0  0  0
    0.7349   -1.6374    0.0000 C   0  0  0  0  0  0  0  0  0  0  0  0
    1.4419   -2.0668    0.0000 C   0  0  0  0  0  0  0  0  0  0  0  0
    2.1688   -1.6647    0.0000 C   0  0  0  0  0  0  0  0  0  0  0  0
    2.1833   -0.8406    0.0000 C   0  0  0  0  0  0  0  0  0  0  0  0
   -1.3857   -0.3927    0.0000 C   0  0  0  0  0  0  0  0  0  0  0  0
   -2.1067   -0.7988    0.0000 C   0  0  0  0  0  0  0  0  0  0  0  0
   -2.1145   -1.6243    0.0000 C   0  0  0  0  0  0  0  0  0  0  0  0
   -1.4020   -2.0447    0.0000 C   0  0  0  0  0  0  0  0  0  0  0  0
   -0.6803   -1.6336    0.0000 C   0  0  0  0  0  0  0  0  0  0  0  0
   -0.6760   -0.8094    0.0000 C   0  0  0  0  0  0  0  0  0  0  0  0
   -2.0980    1.6580    0.0000 C   0  0  0  0  0  0  0  0  0  0  0  0
   -2.0992    0.8305    0.0000 C   0  0  0  0  0  0  0  0  0  0  0  0
   -1.3842    0.4176    0.0000 C   0  0  0  0  0  0  0  0  0  0  0  0
   -1.3860    2.0709    0.0000 C   0  0  0  0  0  0  0  0  0  0  0  0
   -0.6706    1.6616    0.0000 C   0  0  0  0  0  0  0  0  0  0  0  0
   -0.6717    0.8331    0.0000 C   0  0  0  0  0  0  0  0  0  0  0  0
    0.0411    0.4200    0.0000 C   0  0  3  0  0  0  0  0  0  0  0  0
    0.0435    2.0772    0.0000 C   0  0  0  0  0  0  0  0  0  0  0  0
    0.7612    1.6596    0.0000 C   0  0  0  0  0  0  0  0  0  0  0  0
    0.7594    0.8347    0.0000 C   0  0  0  0  0  0  0  0  0  0  0  0
    1.4719    0.4225    0.0000 C   0  0  0  0  0  0  0  0  0  0  0  0
    2.1864    0.8341    0.0000 C   0  0  0  0  0  0  0  0  0  0  0  0
    2.1841    1.6623    0.0000 C   0  0  0  0  0  0  0  0  0  0  0  0
    1.4712    2.0708    0.0000 C   0  0  0  0  0  0  0  0  0  0  0  0
    0.0435    2.9023    0.0000 O   0  0  0  0  0  0  0  0  0  0  0  0
    1.4693    2.8958    0.0000 O   0  0  0  0  0  0  0  0  0  0  0  0
    2.9014    0.4223    0.0000 C   0  0  0  0  0  0  0  0  0  0  0  0
    2.9022   -0.4027    0.0000 O   0  0  0  0  0  0  0  0  0  0  0  0
    3.6156    0.8356    0.0000 O   0  0  0  0  0  0  0  0  0  0  0  0
    0.0405   -0.4050    0.0000 C   0  0  3  0  0  0  0  0  0  0  0  0
    0.0321   -2.0505    0.0000 C   0  0  0  0  0  0  0  0  0  0  0  0
   -1.4084   -2.8698    0.0000 O   0  0  0  0  0  0  0  0  0  0  0  0
   -2.8171   -0.3790    0.0000 C   0  0  0  0  0  0  0  0  0  0  0  0
   -2.8088    0.4459    0.0000 O   0  0  0  0  0  0  0  0  0  0  0  0
   -3.5356   -0.7844    0.0000 O   0  0  0  0  0  0  0  0  0  0  0  0
    0.0329   -2.8757    0.0000 O   0  0  0  0  0  0  0  0  0  0  0  0
    1.4253   -2.8916    0.0000 O   0  0  0  0  0  0  0  0  0  0  0  0
    2.1372   -3.3009    0.0000 C   0  0  3  0  0  0  0  0  0  0  0  0
    2.1368   -4.1229    0.0000 O   0  0  0  0  0  0  0  0  0  0  0  0
    2.8446   -4.5320    0.0000 C   0  0  3  0  0  0  0  0  0  0  0  0
    3.5573   -4.1236    0.0000 C   0  0  3  0  0  0  0  0  0  0  0  0
    3.5577   -3.3016    0.0000 C   0  0  3  0  0  0  0  0  0  0  0  0
    2.8454   -2.8880    0.0000 C   0  0  3  0  0  0  0  0  0  0  0  0
    2.8446   -2.0629    0.0000 O   0  0  0  0  0  0  0  0  0  0  0  0
    4.2728   -2.8901    0.0000 O   0  0  0  0  0  0  0  0  0  0  0  0
    4.2710   -4.5375    0.0000 O   0  0  0  0  0  0  0  0  0  0  0  0
    2.8430   -5.3571    0.0000 C   0  0  0  0  0  0  0  0  0  0  0  0
    3.5540   -5.7678    0.0000 O   0  0  0  0  0  0  0  0  0  0  0  0
   -4.4687    3.7849    0.0000 H   0  0  0  0  0  0  0  0  0  0  0  0
   -1.8692    2.3587    0.0000 H   0  0  0  0  0  0  0  0  0  0  0  0
   -3.0423    3.8166    0.0000 H   0  0  0  0  0  0  0  0  0  0  0  0
   -1.9246    5.0707    0.0000 H   0  0  0  0  0  0  0  0  0  0  0  0
   -2.6135    3.5800    0.0000 H   0  0  0  0  0  0  0  0  0  0  0  0
   -4.2916    5.4652    0.0000 H   0  0  0  0  0  0  0  0  0  0  0  0
   -5.0853    3.3097    0.0000 H   0  0  0  0  0  0  0  0  0  0  0  0
   -3.6197    1.5461    0.0000 H   0  0  0  0  0  0  0  0  0  0  0  0
   -3.7913    5.8623    0.0000 H   0  0  0  0  0  0  0  0  0  0  0  0
   -2.8750    6.4138    0.0000 H   0  0  0  0  0  0  0  0  0  0  0  0
   -1.3034    5.2990    0.0000 H   0  0  0  0  0  0  0  0  0  0  0  0
    1.5011    0.6169    0.0000 H   0  0  0  0  0  0  0  0  0  0  0  0
    3.0531   -2.1967    0.0000 H   0  0  0  0  0  0  0  0  0  0  0  0
    3.0866   -0.3415    0.0000 H   0  0  0  0  0  0  0  0  0  0  0  0
   -1.3764    0.6393    0.0000 H   0  0  0  0  0  0  0  0  0  0  0  0
   -3.0131   -2.1318    0.0000 H   0  0  0  0  0  0  0  0  0  0  0  0
   -2.9919    2.1738    0.0000 H   0  0  0  0  0  0  0  0  0  0  0  0
   -2.9933    0.3152    0.0000 H   0  0  0  0  0  0  0  0  0  0  0  0
   -1.3820   -0.6144    0.0000 H   0  0  0  0  0  0  0  0  0  0  0  0
    0.0420    1.4900    0.0000 H   0  0  0  0  0  0  0  0  0  0  0  0
    1.4709   -0.6095    0.0000 H   0  0  0  0  0  0  0  0  0  0  0  0
    3.0763    2.1810    0.0000 H   0  0  0  0  0  0  0  0  0  0  0  0
    2.2797    3.3662    0.0000 H   0  0  0  0  0  0  0  0  0  0  0  0
    4.4275    0.3679    0.0000 H   0  0  0  0  0  0  0  0  0  0  0  0
   -0.8833    0.1349    0.0000 H   0  0  0  0  0  0  0  0  0  0  0  0
   -2.2235   -3.3320    0.0000 H   0  0  0  0  0  0  0  0  0  0  0  0
   -4.3424   -0.3079    0.0000 H   0  0  0  0  0  0  0  0  0  0  0  0
    1.2109   -3.8365    0.0000 H   0  0  0  0  0  0  0  0  0  0  0  0
    2.8466   -3.4620    0.0000 H   0  0  0  0  0  0  0  0  0  0  0  0
    2.6317   -3.5869    0.0000 H   0  0  0  0  0  0  0  0  0  0  0  0
    2.6303   -3.8352    0.0000 H   0  0  0  0  0  0  0  0  0  0  0  0
    2.8463   -3.9580    0.0000 H   0  0  0  0  0  0  0  0  0  0  0  0
    3.6842   -1.5771    0.0000 H   0  0  0  0  0  0  0  0  0  0  0  0
    5.1121   -3.3763    0.0000 H   0  0  0  0  0  0  0  0  0  0  0  0
    4.2691   -5.5075    0.0000 H   0  0  0  0  0  0  0  0  0  0  0  0
    1.9158   -5.8911    0.0000 H   0  0  0  0  0  0  0  0  0  0  0  0
    2.8423   -6.4271    0.0000 H   0  0  0  0  0  0  0  0  0  0  0  0
    3.5538   -6.7378    0.0000 H   0  0  0  0  0  0  0  0  0  0  0  0
  1  8  1  0  0  0  0
  1  6  1  0  0  0  0
  1  2  1  0  0  0  0
  1 63  1  0  0  0  0
  2  9  1  0  0  0  0
  2  3  1  0  0  0  0
  2 64  1  0  0  0  0
  3  4  1  0  0  0  0
  3 12  1  0  0  0  0
  3 65  1  0  0  0  0
  4  5  1  0  0  0  0
  5 10  1  0  0  0  0
  5  6  1  0  0  0  0
  5 66  1  0  0  0  0
  6  7  1  0  0  0  0
  6 67  1  0  0  0  0
  7 68  1  0  0  0  0
  8 69  1  0  0  0  0
  9 70  1  0  0  0  0
 10 11  1  0  0  0  0
 10 71  1  0  0  0  0
 10 72  1  0  0  0  0
 11 73  1  0  0  0  0
 13 14  2  0  0  0  0
 13 74  1  0  0  0  0
 14 15  1  0  0  0  0
 15 16  2  0  0  0  0
 16 17  1  0  0  0  0
 16 51  1  0  0  0  0
 17 18  2  0  0  0  0
 17 75  1  0  0  0  0
 18 13  1  0  0  0  0
 18 76  1  0  0  0  0
 19 20  2  0  0  0  0
 19 77  1  0  0  0  0
 20 21  1  0  0  0  0
 20 47  1  0  0  0  0
 21 22  2  0  0  0  0
 21 78  1  0  0  0  0
 22 23  1  0  0  0  0
 22 46  1  0  0  0  0
 23 45  1  0  0  0  0
 23 24  2  0  0  0  0
 24 19  1  0  0  0  0
 25 26  2  0  0  0  0
 25 79  1  0  0  0  0
 26 27  1  0  0  0  0
 26 80  1  0  0  0  0
 27 30  2  0  0  0  0
 27 81  1  0  0  0  0
 28 12  1  0  0  0  0
 28 25  1  0  0  0  0
 29 32  1  0  0  0  0
 29 28  2  0  0  0  0
 29 30  1  0  0  0  0
 30 31  1  0  0  0  0
 31 34  1  0  0  0  0
 31 44  1  0  0  0  0
 31 82  1  0  0  0  0
 32 39  2  0  0  0  0
 33 32  1  0  0  0  0
 33 34  2  0  0  0  0
 34 35  1  0  0  0  0
 35 36  2  0  0  0  0
 35 83  1  0  0  0  0
 36 37  1  0  0  0  0
 36 41  1  0  0  0  0
 37 38  2  0  0  0  0
 37 84  1  0  0  0  0
 38 33  1  0  0  0  0
 38 40  1  0  0  0  0
 40 85  1  0  0  0  0
 41 42  2  0  0  0  0
 41 43  1  0  0  0  0
 43 86  1  0  0  0  0
 44 24  1  0  0  0  0
 44 14  1  0  0  0  0
 44 87  1  0  0  0  0
 45 15  1  0  0  0  0
 45 50  2  0  0  0  0
 46 88  1  0  0  0  0
 47 48  2  0  0  0  0
 47 49  1  0  0  0  0
 49 89  1  0  0  0  0
 51 52  1  0  0  0  0
 52 53  1  0  0  0  0
 52 57  1  0  0  0  0
 52 90  1  0  0  0  0
 53 54  1  0  0  0  0
 54 55  1  0  0  0  0
 54 61  1  0  0  0  0
 54 91  1  0  0  0  0
 55 56  1  0  0  0  0
 55 60  1  0  0  0  0
 55 92  1  0  0  0  0
 56 57  1  0  0  0  0
 56 59  1  0  0  0  0
 56 93  1  0  0  0  0
 57 58  1  0  0  0  0
 57 94  1  0  0  0  0
 58 95  1  0  0  0  0
 59 96  1  0  0  0  0
 60 97  1  0  0  0  0
 61 62  1  0  0  0  0
 61 98  1  0  0  0  0
 61 99  1  0  0  0  0
 62100  1  0  0  0  0
M  END
>  <DRUGBANK_ID>
DB11365

>  <COMMON_NAME>
Sennosides

>  <CAS_NUMBER>
517-43-1

>  <UNII>
3FYP5M0IJX

>  <SYNONYMS>
Senna glycosides; Sennoside; Sennosides

$$$$
