
 OpenBabel10282417072D

 35 37  0  0  0  0  0  0  0  0999 V2000
    2.5006    2.4750    0.0000 C   0  0  0  0  0  0  0  0  0  0  0  0
    1.7861   -0.4125    0.0000 C   0  0  0  0  0  0  0  0  0  0  0  0
    2.5006    0.0000    0.0000 C   0  0  0  0  0  0  0  0  0  0  0  0
    1.0717    0.8250    0.0000 C   0  0  0  0  0  0  0  0  0  0  0  0
   -2.5006   -1.2375    0.0000 C   0  0  0  0  0  0  0  0  0  0  0  0
   -1.7861    0.0000    0.0000 C   0  0  0  0  0  0  0  0  0  0  0  0
    1.0717    0.0000    0.0000 C   0  0  0  0  0  0  0  0  0  0  0  0
   -2.5006   -0.4125    0.0000 C   0  0  0  0  0  0  0  0  0  0  0  0
    2.5006    0.8250    0.0000 C   0  0  0  0  0  0  0  0  0  0  0  0
   -1.7861   -1.6500    0.0000 C   0  0  0  0  0  0  0  0  0  0  0  0
    1.7861    1.2375    0.0000 C   0  0  0  0  0  0  0  0  0  0  0  0
   -1.0717   -0.4125    0.0000 C   0  0  0  0  0  0  0  0  0  0  0  0
   -1.0717   -1.2375    0.0000 C   0  0  0  0  0  0  0  0  0  0  0  0
   -0.3572   -1.6500    0.0000 C   0  0  0  0  0  0  0  0  0  0  0  0
    0.3572   -1.2375    0.0000 C   0  0  0  0  0  0  0  0  0  0  0  0
    0.3572   -0.4125    0.0000 C   0  0  0  0  0  0  0  0  0  0  0  0
   -3.2151    0.0000    0.0000 O   0  0  0  0  0  0  0  0  0  0  0  0
    3.2151    1.2375    0.0000 O   0  0  0  0  0  0  0  0  0  0  0  0
   -1.7861   -2.4750    0.0000 O   0  0  0  0  0  0  0  0  0  0  0  0
   -0.3572   -2.4750    0.0000 O   0  0  0  0  0  0  0  0  0  0  0  0
    1.0717   -1.6500    0.0000 O   0  0  0  0  0  0  0  0  0  0  0  0
    1.7861    2.0625    0.0000 O   0  0  0  0  0  0  0  0  0  0  0  0
   -0.3572    0.0000    0.0000 O   0  0  0  0  0  0  0  0  0  0  0  0
    3.4272    1.9400    0.0000 H   0  0  0  0  0  0  0  0  0  0  0  0
    2.5006    3.5450    0.0000 H   0  0  0  0  0  0  0  0  0  0  0  0
    3.4273    3.0100    0.0000 H   0  0  0  0  0  0  0  0  0  0  0  0
    1.7861   -1.4445    0.0000 H   0  0  0  0  0  0  0  0  0  0  0  0
    3.3943   -0.5160    0.0000 H   0  0  0  0  0  0  0  0  0  0  0  0
    0.1780    1.3410    0.0000 H   0  0  0  0  0  0  0  0  0  0  0  0
   -3.3943   -1.7535    0.0000 H   0  0  0  0  0  0  0  0  0  0  0  0
   -1.7861    1.0320    0.0000 H   0  0  0  0  0  0  0  0  0  0  0  0
   -3.2151    0.9370    0.0000 H   0  0  0  0  0  0  0  0  0  0  0  0
    4.0266    0.7690    0.0000 H   0  0  0  0  0  0  0  0  0  0  0  0
   -2.5976   -2.9435    0.0000 H   0  0  0  0  0  0  0  0  0  0  0  0
    1.0717   -2.5870    0.0000 H   0  0  0  0  0  0  0  0  0  0  0  0
  1 24  1  0  0  0  0
  1 25  1  0  0  0  0
  1 26  1  0  0  0  0
  2 27  1  0  0  0  0
  3  2  2  0  0  0  0
  3 28  1  0  0  0  0
  4 29  1  0  0  0  0
  5 30  1  0  0  0  0
  6 31  1  0  0  0  0
  7  2  1  0  0  0  0
  7  4  2  0  0  0  0
  8  5  2  0  0  0  0
  8  6  1  0  0  0  0
  9  3  1  0  0  0  0
 10  5  1  0  0  0  0
 11  4  1  0  0  0  0
 11  9  2  0  0  0  0
 12  6  2  0  0  0  0
 13 10  2  0  0  0  0
 13 12  1  0  0  0  0
 14 13  1  0  0  0  0
 15 14  1  0  0  0  0
 16  7  1  0  0  0  0
 16 15  2  0  0  0  0
 17  8  1  0  0  0  0
 17 32  1  0  0  0  0
 18  9  1  0  0  0  0
 18 33  1  0  0  0  0
 19 10  1  0  0  0  0
 19 34  1  0  0  0  0
 20 14  2  0  0  0  0
 21 15  1  0  0  0  0
 21 35  1  0  0  0  0
 22  1  1  0  0  0  0
 22 11  1  0  0  0  0
 23 12  1  0  0  0  0
 23 16  1  0  0  0  0
M  END
>  <DRUGBANK_ID>
DB16767

>  <COMMON_NAME>
Isorhamnetin

>  <CAS_NUMBER>
480-19-3

>  <UNII>
07X3IB4R4Z

>  <SYNONYMS>
3-Methylquercetin; 3-Methylquercetine; 3'-Methoxy-3,4',5,7-tetrahydroxyflavone; 3'-Methoxyquercetin; 3'-Methylquercetin; 3'-O-Methylquercetin; Isorhamnetol; Quercetin 3'-methyl ether

$$$$
