
 OpenBabel10282417072D

 98102  0  0  1  0  0  0  0  0999 V2000
   -0.2473    7.7647    0.0000 H   0  0  0  0  0  0  0  0  0  0  0  0
   -0.5429    6.9945    0.0000 C   0  0  1  0  0  0  0  0  0  0  0  0
    0.2775    7.0807    0.0000 C   0  0  0  0  0  0  0  0  0  0  0  0
    0.6131    6.3270    0.0000 C   0  0  0  0  0  0  0  0  0  0  0  0
   -0.0000    5.7750    0.0000 C   0  0  1  0  0  0  0  0  0  0  0  0
   -0.7145    5.3625    0.0000 H   0  0  0  0  0  0  0  0  0  0  0  0
   -0.0000    4.9500    0.0000 C   0  0  2  0  0  0  0  0  0  0  0  0
    0.7145    5.3625    0.0000 H   0  0  0  0  0  0  0  0  0  0  0  0
    0.7145    4.5375    0.0000 C   0  0  2  0  0  0  0  0  0  0  0  0
    1.4289    4.9500    0.0000 O   0  0  0  0  0  0  0  0  0  0  0  0
    0.7145    3.7125    0.0000 C   0  0  0  0  0  0  0  0  0  0  0  0
    0.0000    3.3000    0.0000 C   0  0  1  0  0  0  0  0  0  0  0  0
   -0.7145    2.8875    0.0000 H   0  0  0  0  0  0  0  0  0  0  0  0
    0.0000    2.4750    0.0000 C   0  0  0  0  0  0  0  0  0  0  0  0
   -0.7145    2.0625    0.0000 C   0  0  2  0  0  0  0  0  0  0  0  0
   -1.4289    2.4750    0.0000 C   0  0  0  0  0  0  0  0  0  0  0  0
   -1.4289    3.3000    0.0000 C   0  0  0  0  0  0  0  0  0  0  0  0
   -0.7145    3.7125    0.0000 C   0  0  1  0  0  0  0  0  0  0  0  0
   -1.4289    4.1250    0.0000 C   0  0  0  0  0  0  0  0  0  0  0  0
   -0.7145    4.5375    0.0000 C   0  0  1  0  0  0  0  0  0  0  0  0
   -0.0000    4.1250    0.0000 H   0  0  0  0  0  0  0  0  0  0  0  0
   -1.4289    4.9500    0.0000 C   0  0  0  0  0  0  0  0  0  0  0  0
   -1.4289    5.7750    0.0000 C   0  0  0  0  0  0  0  0  0  0  0  0
   -0.7145    6.1875    0.0000 C   0  0  2  0  0  0  0  0  0  0  0  0
   -1.3819    6.6724    0.0000 C   0  0  0  0  0  0  0  0  0  0  0  0
   -0.7145    1.2375    0.0000 N   0  0  0  0  0  0  0  0  0  0  0  0
    0.0000    0.8250    0.0000 C   0  0  0  0  0  0  0  0  0  0  0  0
    0.7145    1.2375    0.0000 C   0  0  0  0  0  0  0  0  0  0  0  0
    1.4289    0.8250    0.0000 C   0  0  0  0  0  0  0  0  0  0  0  0
    2.1434    1.2375    0.0000 C   0  0  0  0  0  0  0  0  0  0  0  0
    2.8579    0.8250    0.0000 N   0  0  0  0  0  0  0  0  0  0  0  0
    3.5724    1.2375    0.0000 C   0  0  0  0  0  0  0  0  0  0  0  0
    4.2868    0.8250    0.0000 C   0  0  0  0  0  0  0  0  0  0  0  0
    5.0013    1.2375    0.0000 C   0  0  0  0  0  0  0  0  0  0  0  0
    5.7158    0.8250    0.0000 C   0  0  0  0  0  0  0  0  0  0  0  0
    5.7158    0.0000    0.0000 C   0  0  0  0  0  0  0  0  0  0  0  0
    5.0013   -0.4125    0.0000 C   0  0  0  0  0  0  0  0  0  0  0  0
    4.2868    0.0000    0.0000 N   0  0  0  0  0  0  0  0  0  0  0  0
   -1.0950    7.6076    0.0000 C   0  0  2  0  0  0  0  0  0  0  0  0
   -0.8400    8.3922    0.0000 C   0  0  0  0  0  0  0  0  0  0  0  0
   -1.9019    7.4360    0.0000 C   0  0  0  0  0  0  0  0  0  0  0  0
   -2.4540    8.0491    0.0000 C   0  0  0  0  0  0  0  0  0  0  0  0
   -3.2610    7.8776    0.0000 C   0  0  0  0  0  0  0  0  0  0  0  0
   -3.5159    7.0930    0.0000 O   0  0  0  0  0  0  0  0  0  0  0  0
   -3.8130    8.4907    0.0000 O   0  0  0  0  0  0  0  0  0  0  0  0
   -4.6200    8.3192    0.0000 C   0  0  0  0  0  0  0  0  0  0  0  0
    0.8125    8.0073    0.0000 H   0  0  0  0  0  0  0  0  0  0  0  0
    1.3460    7.0247    0.0000 H   0  0  0  0  0  0  0  0  0  0  0  0
    1.6597    6.1045    0.0000 H   0  0  0  0  0  0  0  0  0  0  0  0
    0.8900    5.2935    0.0000 H   0  0  0  0  0  0  0  0  0  0  0  0
    0.7145    5.6075    0.0000 H   0  0  0  0  0  0  0  0  0  0  0  0
    2.2690    4.4650    0.0000 H   0  0  0  0  0  0  0  0  0  0  0  0
    1.6411    3.1775    0.0000 H   0  0  0  0  0  0  0  0  0  0  0  0
    0.7145    2.6425    0.0000 H   0  0  0  0  0  0  0  0  0  0  0  0
    0.9266    1.9400    0.0000 H   0  0  0  0  0  0  0  0  0  0  0  0
   -0.0000    1.4050    0.0000 H   0  0  0  0  0  0  0  0  0  0  0  0
    0.2121    1.5275    0.0000 H   0  0  0  0  0  0  0  0  0  0  0  0
   -2.3556    1.9400    0.0000 H   0  0  0  0  0  0  0  0  0  0  0  0
   -2.3555    3.0100    0.0000 H   0  0  0  0  0  0  0  0  0  0  0  0
   -2.3556    3.8350    0.0000 H   0  0  0  0  0  0  0  0  0  0  0  0
   -1.4289    4.3700    0.0000 H   0  0  0  0  0  0  0  0  0  0  0  0
   -1.4289    5.1950    0.0000 H   0  0  0  0  0  0  0  0  0  0  0  0
   -2.3556    3.5900    0.0000 H   0  0  0  0  0  0  0  0  0  0  0  0
   -2.3555    4.6600    0.0000 H   0  0  0  0  0  0  0  0  0  0  0  0
   -2.3556    4.4150    0.0000 H   0  0  0  0  0  0  0  0  0  0  0  0
   -2.3555    5.4850    0.0000 H   0  0  0  0  0  0  0  0  0  0  0  0
   -2.3556    6.3100    0.0000 H   0  0  0  0  0  0  0  0  0  0  0  0
   -1.4289    6.8450    0.0000 H   0  0  0  0  0  0  0  0  0  0  0  0
   -1.2700    7.7365    0.0000 H   0  0  0  0  0  0  0  0  0  0  0  0
   -2.3594    6.2372    0.0000 H   0  0  0  0  0  0  0  0  0  0  0  0
   -2.2475    7.3013    0.0000 H   0  0  0  0  0  0  0  0  0  0  0  0
   -1.5978    0.7275    0.0000 H   0  0  0  0  0  0  0  0  0  0  0  0
    0.0000   -0.2450    0.0000 H   0  0  0  0  0  0  0  0  0  0  0  0
    0.9266    0.2900    0.0000 H   0  0  0  0  0  0  0  0  0  0  0  0
    0.7145    2.3075    0.0000 H   0  0  0  0  0  0  0  0  0  0  0  0
    1.6412    1.7725    0.0000 H   0  0  0  0  0  0  0  0  0  0  0  0
    1.4289   -0.2450    0.0000 H   0  0  0  0  0  0  0  0  0  0  0  0
    2.3555    0.2900    0.0000 H   0  0  0  0  0  0  0  0  0  0  0  0
    2.1434    2.3075    0.0000 H   0  0  0  0  0  0  0  0  0  0  0  0
    3.0700    1.7725    0.0000 H   0  0  0  0  0  0  0  0  0  0  0  0
    2.8579   -0.1950    0.0000 H   0  0  0  0  0  0  0  0  0  0  0  0
    3.5724    2.3075    0.0000 H   0  0  0  0  0  0  0  0  0  0  0  0
    4.4991    1.7725    0.0000 H   0  0  0  0  0  0  0  0  0  0  0  0
    5.0013    2.2695    0.0000 H   0  0  0  0  0  0  0  0  0  0  0  0
    6.6095    1.3410    0.0000 H   0  0  0  0  0  0  0  0  0  0  0  0
    6.6095   -0.5160    0.0000 H   0  0  0  0  0  0  0  0  0  0  0  0
    5.0013   -1.4445    0.0000 H   0  0  0  0  0  0  0  0  0  0  0  0
   -1.8110    8.4028    0.0000 H   0  0  0  0  0  0  0  0  0  0  0  0
    0.2066    8.6146    0.0000 H   0  0  0  0  0  0  0  0  0  0  0  0
   -1.5559    9.1874    0.0000 H   0  0  0  0  0  0  0  0  0  0  0  0
   -0.5093    9.4098    0.0000 H   0  0  0  0  0  0  0  0  0  0  0  0
   -2.2325    6.4183    0.0000 H   0  0  0  0  0  0  0  0  0  0  0  0
   -2.9485    7.2135    0.0000 H   0  0  0  0  0  0  0  0  0  0  0  0
   -2.1234    9.0667    0.0000 H   0  0  0  0  0  0  0  0  0  0  0  0
   -3.1700    8.8443    0.0000 H   0  0  0  0  0  0  0  0  0  0  0  0
   -5.3359    9.1144    0.0000 H   0  0  0  0  0  0  0  0  0  0  0  0
   -4.9507    7.3016    0.0000 H   0  0  0  0  0  0  0  0  0  0  0  0
   -5.6666    8.0968    0.0000 H   0  0  0  0  0  0  0  0  0  0  0  0
  2  1  1  6  0  0  0
  2  3  1  0  0  0  0
  2 39  1  0  0  0  0
  3  4  1  0  0  0  0
  3 47  1  0  0  0  0
  3 48  1  0  0  0  0
  4 49  1  0  0  0  0
  4 50  1  0  0  0  0
  5  4  1  0  0  0  0
  5  6  1  6  0  0  0
  5 24  1  0  0  0  0
  7  5  1  0  0  0  0
  7  8  1  1  0  0  0
  7  9  1  0  0  0  0
  7 20  1  0  0  0  0
  9 10  1  0  0  0  0
  9 11  1  0  0  0  0
  9 51  1  1  0  0  0
 10 52  1  0  0  0  0
 11 53  1  0  0  0  0
 11 54  1  0  0  0  0
 12 11  1  0  0  0  0
 12 13  1  6  0  0  0
 12 14  1  0  0  0  0
 14 55  1  0  0  0  0
 14 56  1  0  0  0  0
 15 14  1  0  0  0  0
 15 16  1  0  0  0  0
 15 26  1  0  0  0  0
 15 57  1  6  0  0  0
 16 17  1  0  0  0  0
 16 58  1  0  0  0  0
 16 59  1  0  0  0  0
 17 60  1  0  0  0  0
 17 61  1  0  0  0  0
 18 17  1  0  0  0  0
 18 12  1  0  0  0  0
 18 19  1  1  0  0  0
 19 62  1  0  0  0  0
 19 63  1  0  0  0  0
 19 64  1  0  0  0  0
 20 18  1  0  0  0  0
 20 21  1  6  0  0  0
 20 22  1  0  0  0  0
 22 23  1  0  0  0  0
 22 65  1  0  0  0  0
 22 66  1  0  0  0  0
 23 67  1  0  0  0  0
 23 68  1  0  0  0  0
 24 23  1  0  0  0  0
 24  2  1  0  0  0  0
 24 25  1  1  0  0  0
 25 69  1  0  0  0  0
 25 70  1  0  0  0  0
 25 71  1  0  0  0  0
 26 27  1  0  0  0  0
 26 72  1  0  0  0  0
 27 28  1  0  0  0  0
 27 73  1  0  0  0  0
 27 74  1  0  0  0  0
 28 29  1  0  0  0  0
 28 75  1  0  0  0  0
 28 76  1  0  0  0  0
 29 30  1  0  0  0  0
 29 77  1  0  0  0  0
 29 78  1  0  0  0  0
 30 31  1  0  0  0  0
 30 79  1  0  0  0  0
 30 80  1  0  0  0  0
 31 32  1  0  0  0  0
 31 81  1  0  0  0  0
 32 33  1  0  0  0  0
 32 82  1  0  0  0  0
 32 83  1  0  0  0  0
 33 34  2  0  0  0  0
 33 38  1  0  0  0  0
 34 35  1  0  0  0  0
 34 84  1  0  0  0  0
 35 36  2  0  0  0  0
 35 85  1  0  0  0  0
 36 37  1  0  0  0  0
 36 86  1  0  0  0  0
 37 38  2  0  0  0  0
 37 87  1  0  0  0  0
 39 40  1  0  0  0  0
 39 41  1  0  0  0  0
 39 88  1  6  0  0  0
 40 89  1  0  0  0  0
 40 90  1  0  0  0  0
 40 91  1  0  0  0  0
 41 42  1  0  0  0  0
 41 92  1  0  0  0  0
 41 93  1  0  0  0  0
 42 43  1  0  0  0  0
 42 94  1  0  0  0  0
 42 95  1  0  0  0  0
 43 44  2  0  0  0  0
 43 45  1  0  0  0  0
 45 46  1  0  0  0  0
 46 96  1  0  0  0  0
 46 97  1  0  0  0  0
 46 98  1  0  0  0  0
M  END
>  <DRUGBANK_ID>
DB18390

>  <COMMON_NAME>
DPM-1001

>  <CAS_NUMBER>
1471172-29-8

>  <UNII>
4EA2U2RX2G

>  <SYNONYMS>
Cholan-24-oic acid, 7-hydroxy-3-[[4-[(2-pyridinylmethyl)amino]butyl]amino]-, methyl ester, (3β,5α,7α)-; Methyl (3β,5α,7α)-7-hydroxy-3-[[4-[(2-pyridinylmethyl)amino]butyl]amino]cholan-24-oate; methyl (R)-4-((3S,5R,7R,8R,9S,10S,13R,14S,17R)-7-hydroxy-10,13-dimethyl-3-((4-((pyridin-2-ylmethyl)amino)butyl)amino)hexadecahydro-1H-cyclopenta[a]phenanthren-17-yl)pentanoate

$$$$
