
 OpenBabel10282417072D

 58 62  0  0  0  0  0  0  0  0999 V2000
   -6.8758   -1.7484    0.0000 F   0  0  0  0  0  0  0  0  0  0  0  0
   -6.2438   -2.2787    0.0000 C   0  0  0  0  0  0  0  0  0  0  0  0
   -5.4685   -1.9966    0.0000 C   0  0  0  0  0  0  0  0  0  0  0  0
   -4.8366   -2.5269    0.0000 C   0  0  0  0  0  0  0  0  0  0  0  0
   -4.9798   -3.3393    0.0000 C   0  0  0  0  0  0  0  0  0  0  0  0
   -4.3478   -3.8696    0.0000 N   0  0  0  0  0  0  0  0  0  0  0  0
   -3.5726   -3.5875    0.0000 C   0  0  0  0  0  0  0  0  0  0  0  0
   -3.4293   -2.7750    0.0000 O   0  0  0  0  0  0  0  0  0  0  0  0
   -2.9406   -4.1178    0.0000 C   0  0  0  0  0  0  0  0  0  0  0  0
   -2.5281   -4.8322    0.0000 C   0  0  0  0  0  0  0  0  0  0  0  0
   -3.3531   -4.8322    0.0000 C   0  0  0  0  0  0  0  0  0  0  0  0
   -2.3086   -3.5875    0.0000 C   0  0  0  0  0  0  0  0  0  0  0  0
   -1.5334   -3.8696    0.0000 O   0  0  0  0  0  0  0  0  0  0  0  0
   -2.4519   -2.7750    0.0000 N   0  0  0  0  0  0  0  0  0  0  0  0
   -1.8199   -2.2447    0.0000 C   0  0  0  0  0  0  0  0  0  0  0  0
   -1.9631   -1.4322    0.0000 C   0  0  0  0  0  0  0  0  0  0  0  0
   -2.7384   -1.1501    0.0000 F   0  0  0  0  0  0  0  0  0  0  0  0
   -1.3312   -0.9019    0.0000 C   0  0  0  0  0  0  0  0  0  0  0  0
   -0.5559   -1.1841    0.0000 C   0  0  0  0  0  0  0  0  0  0  0  0
    0.0761   -0.6538    0.0000 O   0  0  0  0  0  0  0  0  0  0  0  0
   -0.0672    0.1587    0.0000 C   0  0  0  0  0  0  0  0  0  0  0  0
   -0.8424    0.4408    0.0000 C   0  0  0  0  0  0  0  0  0  0  0  0
   -0.9857    1.2533    0.0000 C   0  0  0  0  0  0  0  0  0  0  0  0
   -0.3537    1.7836    0.0000 N   0  0  0  0  0  0  0  0  0  0  0  0
    0.4215    1.5014    0.0000 C   0  0  0  0  0  0  0  0  0  0  0  0
    1.0535    2.0317    0.0000 N   0  0  0  0  0  0  0  0  0  0  0  0
    0.9103    2.8442    0.0000 C   0  0  0  0  0  0  0  0  0  0  0  0
    0.1350    3.1264    0.0000 O   0  0  0  0  0  0  0  0  0  0  0  0
    1.5423    3.3745    0.0000 C   0  0  0  0  0  0  0  0  0  0  0  0
    1.8244    4.1497    0.0000 C   0  0  0  0  0  0  0  0  0  0  0  0
    2.3547    3.5178    0.0000 C   0  0  0  0  0  0  0  0  0  0  0  0
    0.5648    0.6890    0.0000 C   0  0  0  0  0  0  0  0  0  0  0  0
   -0.4126   -1.9966    0.0000 C   0  0  0  0  0  0  0  0  0  0  0  0
    0.3626   -2.2787    0.0000 F   0  0  0  0  0  0  0  0  0  0  0  0
   -1.0446   -2.5269    0.0000 C   0  0  0  0  0  0  0  0  0  0  0  0
   -5.7551   -3.6215    0.0000 C   0  0  0  0  0  0  0  0  0  0  0  0
   -6.3870   -3.0912    0.0000 C   0  0  0  0  0  0  0  0  0  0  0  0
   -5.2892   -0.9803    0.0000 H   0  0  0  0  0  0  0  0  0  0  0  0
   -3.8668   -2.1739    0.0000 H   0  0  0  0  0  0  0  0  0  0  0  0
   -4.5188   -4.8391    0.0000 H   0  0  0  0  0  0  0  0  0  0  0  0
   -1.6014   -5.3672    0.0000 H   0  0  0  0  0  0  0  0  0  0  0  0
   -2.8050   -5.8657    0.0000 H   0  0  0  0  0  0  0  0  0  0  0  0
   -4.2798   -5.3672    0.0000 H   0  0  0  0  0  0  0  0  0  0  0  0
   -4.1097   -4.0756    0.0000 H   0  0  0  0  0  0  0  0  0  0  0  0
   -3.3770   -2.4383    0.0000 H   0  0  0  0  0  0  0  0  0  0  0  0
   -1.5104    0.1144    0.0000 H   0  0  0  0  0  0  0  0  0  0  0  0
   -1.6329   -0.2226    0.0000 H   0  0  0  0  0  0  0  0  0  0  0  0
   -1.9555    1.6062    0.0000 H   0  0  0  0  0  0  0  0  0  0  0  0
    1.9786    1.6949    0.0000 H   0  0  0  0  0  0  0  0  0  0  0  0
    2.3619    4.0623    0.0000 H   0  0  0  0  0  0  0  0  0  0  0  0
    1.6385    5.2034    0.0000 H   0  0  0  0  0  0  0  0  0  0  0  0
    2.7941    4.6020    0.0000 H   0  0  0  0  0  0  0  0  0  0  0  0
    3.3602    3.1519    0.0000 H   0  0  0  0  0  0  0  0  0  0  0  0
    2.2615    2.4519    0.0000 H   0  0  0  0  0  0  0  0  0  0  0  0
    1.5346    0.3361    0.0000 H   0  0  0  0  0  0  0  0  0  0  0  0
   -0.8654   -3.5432    0.0000 H   0  0  0  0  0  0  0  0  0  0  0  0
   -5.9343   -4.6378    0.0000 H   0  0  0  0  0  0  0  0  0  0  0  0
   -7.3568   -3.4442    0.0000 H   0  0  0  0  0  0  0  0  0  0  0  0
  1  2  1  0  0  0  0
  2  3  2  0  0  0  0
  2 37  1  0  0  0  0
  3  4  1  0  0  0  0
  3 38  1  0  0  0  0
  4  5  2  0  0  0  0
  4 39  1  0  0  0  0
  5  6  1  0  0  0  0
  5 36  1  0  0  0  0
  6  7  1  0  0  0  0
  6 40  1  0  0  0  0
  7  8  2  0  0  0  0
  7  9  1  0  0  0  0
  9 10  1  0  0  0  0
  9 11  1  0  0  0  0
  9 12  1  0  0  0  0
 10 11  1  0  0  0  0
 10 41  1  0  0  0  0
 10 42  1  0  0  0  0
 11 43  1  0  0  0  0
 11 44  1  0  0  0  0
 12 13  2  0  0  0  0
 12 14  1  0  0  0  0
 14 15  1  0  0  0  0
 14 45  1  0  0  0  0
 15 16  2  0  0  0  0
 15 35  1  0  0  0  0
 16 17  1  0  0  0  0
 16 18  1  0  0  0  0
 18 19  2  0  0  0  0
 18 46  1  0  0  0  0
 19 20  1  0  0  0  0
 19 33  1  0  0  0  0
 20 21  1  0  0  0  0
 21 22  2  0  0  0  0
 21 32  1  0  0  0  0
 22 23  1  0  0  0  0
 22 47  1  0  0  0  0
 23 24  2  0  0  0  0
 23 48  1  0  0  0  0
 24 25  1  0  0  0  0
 25 26  1  0  0  0  0
 25 32  2  0  0  0  0
 26 27  1  0  0  0  0
 26 49  1  0  0  0  0
 27 28  2  0  0  0  0
 27 29  1  0  0  0  0
 29 30  1  0  0  0  0
 29 31  1  0  0  0  0
 29 50  1  0  0  0  0
 30 31  1  0  0  0  0
 30 51  1  0  0  0  0
 30 52  1  0  0  0  0
 31 53  1  0  0  0  0
 31 54  1  0  0  0  0
 32 55  1  0  0  0  0
 33 34  1  0  0  0  0
 33 35  2  0  0  0  0
 35 56  1  0  0  0  0
 36 37  2  0  0  0  0
 36 57  1  0  0  0  0
 37 58  1  0  0  0  0
M  END
>  <DRUGBANK_ID>
DB17191

>  <COMMON_NAME>
Altiratinib

>  <CAS_NUMBER>
1345847-93-9

>  <UNII>
T678746713

>  <SYNONYMS>
1,1-cyclopropanedicarboxamide, n-(4-((2-((cyclopropylcarbonyl)amino)-4-pyridinyl)oxy)-2,5-difluorophenyl)-n'-(4-fluorophenyl)-; N-(4-((2-((cyclopropylcarbonyl)amino)pyridin-4-yl)oxy)-2,5-difluorophenyi)-n-(4- fluorophenyl)cyclopropane-1,1-dicarboxamide

$$$$
