1BH
 OpenBabel10282417072D

 67 69  0  0  0  0  0  0  0  0999 V2000
   -4.0543    0.8755    0.0000 C   0  0  0  0  0  0  0  0  0  0  0  0
   -2.6254    0.8755    0.0000 C   0  0  0  0  0  0  0  0  0  0  0  0
    0.5446   -0.8191    0.0000 O   0  0  0  0  0  0  0  0  0  0  0  0
    1.6723   -2.6879    0.0000 O   0  0  0  0  0  0  0  0  0  0  0  0
    1.1577   -0.2670    0.0000 C   0  0  0  0  0  0  0  0  0  0  0  0
    2.1139   -1.3289    0.0000 C   0  0  1  0  0  0  0  0  0  0  0  0
    1.5008   -1.8810    0.0000 C   0  0  1  0  0  0  0  0  0  0  0  0
   -4.0543    1.7005    0.0000 C   0  0  0  0  0  0  0  0  0  0  0  0
   -4.7688    2.1130    0.0000 C   0  0  0  0  0  0  0  0  0  0  0  0
   -4.0543    3.3505    0.0000 C   0  0  0  0  0  0  0  0  0  0  0  0
   -1.9109    0.4630    0.0000 N   0  0  0  0  0  0  0  0  0  0  0  0
   -1.1964    0.8755    0.0000 C   0  0  1  0  0  0  0  0  0  0  0  0
   -1.1964    1.7005    0.0000 C   0  0  0  0  0  0  0  0  0  0  0  0
   -0.4820    0.4630    0.0000 C   0  0  0  0  0  0  0  0  0  0  0  0
   -0.4820   -0.3620    0.0000 O   0  0  0  0  0  0  0  0  0  0  0  0
    0.2325    0.8755    0.0000 N   0  0  0  0  0  0  0  0  0  0  0  0
    0.3188    1.6960    0.0000 C   0  0  0  0  0  0  0  0  0  0  0  0
    0.9862    0.5400    0.0000 C   0  0  1  0  0  0  0  0  0  0  0  0
    1.5382    1.1530    0.0000 C   0  0  0  0  0  0  0  0  0  0  0  0
    1.1257    1.8675    0.0000 C   0  0  0  0  0  0  0  0  0  0  0  0
    1.9423   -0.5220    0.0000 N   0  0  0  0  0  0  0  0  0  0  0  0
    2.8985   -1.5839    0.0000 C   0  0  0  0  0  0  0  0  0  0  0  0
    3.0700   -2.3908    0.0000 C   0  0  0  0  0  0  0  0  0  0  0  0
    3.8546   -2.6458    0.0000 C   0  0  0  0  0  0  0  0  0  0  0  0
    2.4569   -2.9429    0.0000 C   0  0  0  0  0  0  0  0  0  0  0  0
    4.0262   -3.4528    0.0000 C   0  0  0  0  0  0  0  0  0  0  0  0
    2.6284   -3.7498    0.0000 C   0  0  0  0  0  0  0  0  0  0  0  0
    3.4131   -4.0048    0.0000 C   0  0  0  0  0  0  0  0  0  0  0  0
    0.7161   -1.6260    0.0000 C   0  0  0  0  0  0  0  0  0  0  0  0
   -3.3398    0.4630    0.0000 O   0  0  0  0  0  0  0  0  0  0  0  0
   -3.3398    2.1130    0.0000 C   0  0  0  0  0  0  0  0  0  0  0  0
   -4.7688    2.9380    0.0000 C   0  0  0  0  0  0  0  0  0  0  0  0
   -3.3398    2.9380    0.0000 C   0  0  0  0  0  0  0  0  0  0  0  0
   -2.6254    1.7005    0.0000 O   0  0  0  0  0  0  0  0  0  0  0  0
    1.5585   -1.1485    0.0000 H   0  0  0  0  0  0  0  0  0  0  0  0
    2.0561   -2.0614    0.0000 H   0  0  0  0  0  0  0  0  0  0  0  0
   -1.7021    1.1675    0.0000 H   0  0  0  0  0  0  0  0  0  0  0  0
    0.5324    0.1725    0.0000 H   0  0  0  0  0  0  0  0  0  0  0  0
   -4.9809    0.3405    0.0000 H   0  0  0  0  0  0  0  0  0  0  0  0
   -4.0543   -0.1945    0.0000 H   0  0  0  0  0  0  0  0  0  0  0  0
    0.9514   -3.3369    0.0000 H   0  0  0  0  0  0  0  0  0  0  0  0
   -5.6625    1.5970    0.0000 H   0  0  0  0  0  0  0  0  0  0  0  0
   -4.0543    4.3825    0.0000 H   0  0  0  0  0  0  0  0  0  0  0  0
   -1.9109   -0.5215    0.0000 H   0  0  0  0  0  0  0  0  0  0  0  0
   -0.2698    2.2355    0.0000 H   0  0  0  0  0  0  0  0  0  0  0  0
   -2.1230    2.2355    0.0000 H   0  0  0  0  0  0  0  0  0  0  0  0
   -1.1964    2.7705    0.0000 H   0  0  0  0  0  0  0  0  0  0  0  0
   -0.4763    2.4120    0.0000 H   0  0  0  0  0  0  0  0  0  0  0  0
    0.5958    2.7295    0.0000 H   0  0  0  0  0  0  0  0  0  0  0  0
    2.6023    1.0411    0.0000 H   0  0  0  0  0  0  0  0  0  0  0  0
    2.1210    2.0504    0.0000 H   0  0  0  0  0  0  0  0  0  0  0  0
    1.5609    2.8450    0.0000 H   0  0  0  0  0  0  0  0  0  0  0  0
    2.1942    1.9235    0.0000 H   0  0  0  0  0  0  0  0  0  0  0  0
    2.6739    0.1368    0.0000 H   0  0  0  0  0  0  0  0  0  0  0  0
    3.6937   -0.8680    0.0000 H   0  0  0  0  0  0  0  0  0  0  0  0
    3.9161   -1.9146    0.0000 H   0  0  0  0  0  0  0  0  0  0  0  0
    4.6215   -1.9553    0.0000 H   0  0  0  0  0  0  0  0  0  0  0  0
    1.4754   -2.6240    0.0000 H   0  0  0  0  0  0  0  0  0  0  0  0
    5.0077   -3.7717    0.0000 H   0  0  0  0  0  0  0  0  0  0  0  0
    1.8615   -4.4403    0.0000 H   0  0  0  0  0  0  0  0  0  0  0  0
    3.6276   -5.0143    0.0000 H   0  0  0  0  0  0  0  0  0  0  0  0
    0.4937   -0.5794    0.0000 H   0  0  0  0  0  0  0  0  0  0  0  0
   -0.0791   -2.3419    0.0000 H   0  0  0  0  0  0  0  0  0  0  0  0
   -0.3015   -1.2953    0.0000 H   0  0  0  0  0  0  0  0  0  0  0  0
   -2.4461    1.5970    0.0000 H   0  0  0  0  0  0  0  0  0  0  0  0
   -5.6625    3.4540    0.0000 H   0  0  0  0  0  0  0  0  0  0  0  0
   -2.4461    3.4540    0.0000 H   0  0  0  0  0  0  0  0  0  0  0  0
  1  8  1  0  0  0  0
  1 30  1  0  0  0  0
  1 39  1  0  0  0  0
  1 40  1  0  0  0  0
  2 11  1  0  0  0  0
  2 30  1  0  0  0  0
  2 34  2  0  0  0  0
  3  5  2  0  0  0  0
  4 41  1  0  0  0  0
  5 21  1  0  0  0  0
  6  7  1  0  0  0  0
  6 21  1  0  0  0  0
  6 22  1  0  0  0  0
  6 35  1  6  0  0  0
  7  4  1  0  0  0  0
  7 29  1  0  0  0  0
  7 36  1  1  0  0  0
  8  9  2  0  0  0  0
  8 31  1  0  0  0  0
  9 32  1  0  0  0  0
  9 42  1  0  0  0  0
 10 32  2  0  0  0  0
 10 33  1  0  0  0  0
 10 43  1  0  0  0  0
 11 12  1  0  0  0  0
 11 44  1  0  0  0  0
 12 13  1  0  0  0  0
 12 14  1  0  0  0  0
 12 37  1  6  0  0  0
 13 45  1  0  0  0  0
 13 46  1  0  0  0  0
 13 47  1  0  0  0  0
 14 15  2  0  0  0  0
 14 16  1  0  0  0  0
 16 17  1  0  0  0  0
 16 18  1  0  0  0  0
 17 20  1  0  0  0  0
 17 48  1  0  0  0  0
 17 49  1  0  0  0  0
 18  5  1  0  0  0  0
 18 19  1  0  0  0  0
 18 38  1  6  0  0  0
 19 20  1  0  0  0  0
 19 50  1  0  0  0  0
 19 51  1  0  0  0  0
 20 52  1  0  0  0  0
 20 53  1  0  0  0  0
 21 54  1  0  0  0  0
 22 23  1  0  0  0  0
 22 55  1  0  0  0  0
 22 56  1  0  0  0  0
 23 24  2  0  0  0  0
 23 25  1  0  0  0  0
 24 26  1  0  0  0  0
 24 57  1  0  0  0  0
 25 27  2  0  0  0  0
 25 58  1  0  0  0  0
 26 28  2  0  0  0  0
 26 59  1  0  0  0  0
 27 28  1  0  0  0  0
 27 60  1  0  0  0  0
 28 61  1  0  0  0  0
 29 62  1  0  0  0  0
 29 63  1  0  0  0  0
 29 64  1  0  0  0  0
 31 33  2  0  0  0  0
 31 65  1  0  0  0  0
 32 66  1  0  0  0  0
 33 67  1  0  0  0  0
M  END
>  <DRUGBANK_ID>
DB06886

>  <COMMON_NAME>
N-BENZYLOXYCARBONYL-ALA-PRO-3-AMINO-4-PHENYL-BUTAN-2-OL

$$$$
