
 OpenBabel10282417072D

 16 15  0  0  0  0  0  0  0  0999 V2000
   -0.1914    0.7146    0.0000 C   0  0  0  0  0  0  0  0  0  0  0  0
    0.5230    1.1271    0.0000 C   0  0  0  0  0  0  0  0  0  0  0  0
    1.2376    0.7146    0.0000 O   0  0  0  0  0  0  0  0  0  0  0  0
    1.9521    1.1271    0.0000 C   0  0  0  0  0  0  0  0  0  0  0  0
    2.6666    0.7146    0.0000 C   0  0  0  0  0  0  0  0  0  0  0  0
    3.3812    1.1271    0.0000 O   0  0  0  0  0  0  0  0  0  0  0  0
   -1.1181    1.2496    0.0000 H   0  0  0  0  0  0  0  0  0  0  0  0
   -0.1914   -0.3554    0.0000 H   0  0  0  0  0  0  0  0  0  0  0  0
   -1.1180    0.1796    0.0000 H   0  0  0  0  0  0  0  0  0  0  0  0
    0.5229    2.1971    0.0000 H   0  0  0  0  0  0  0  0  0  0  0  0
    1.4496    1.6622    0.0000 H   0  0  0  0  0  0  0  0  0  0  0  0
    1.9521    2.1971    0.0000 H   0  0  0  0  0  0  0  0  0  0  0  0
    2.8787    1.6621    0.0000 H   0  0  0  0  0  0  0  0  0  0  0  0
    2.6666   -0.3554    0.0000 H   0  0  0  0  0  0  0  0  0  0  0  0
    3.5932    0.1795    0.0000 H   0  0  0  0  0  0  0  0  0  0  0  0
    4.2212    0.6420    0.0000 H   0  0  0  0  0  0  0  0  0  0  0  0
  1  2  1  0  0  0  0
  1  7  1  0  0  0  0
  1  8  1  0  0  0  0
  1  9  1  0  0  0  0
  2  3  1  0  0  0  0
  2 10  1  0  0  0  0
  2 11  1  0  0  0  0
  3  4  1  0  0  0  0
  4  5  1  0  0  0  0
  4 12  1  0  0  0  0
  4 13  1  0  0  0  0
  5  6  1  0  0  0  0
  5 14  1  0  0  0  0
  5 15  1  0  0  0  0
  6 16  1  0  0  0  0
M  END
>  <DRUGBANK_ID>
DB02249

>  <SECONDARY_ACCESSION_NUMBERS>
EXPT01374

>  <COMMON_NAME>
2-Ethoxyethanol

>  <CAS_NUMBER>
110-80-5

>  <UNII>
IDK7C2HS09

$$$$
