U1N
 OpenBabel10282417072D

 45 46  0  0  0  0  0  0  0  0999 V2000
   -5.4795    2.4520    0.0000 C   0  0  0  0  0  0  0  0  0  0  0  0
   -5.4795    1.6270    0.0000 C   0  0  0  0  0  0  0  0  0  0  0  0
   -4.7650    1.2145    0.0000 C   0  0  0  0  0  0  0  0  0  0  0  0
   -4.0505    1.6270    0.0000 C   0  0  0  0  0  0  0  0  0  0  0  0
   -4.0505    2.4520    0.0000 C   0  0  0  0  0  0  0  0  0  0  0  0
   -4.7650    2.8645    0.0000 C   0  0  0  0  0  0  0  0  0  0  0  0
   -3.3361    1.2145    0.0000 C   0  0  0  0  0  0  0  0  0  0  0  0
   -2.6216    1.6270    0.0000 C   0  0  0  0  0  0  0  0  0  0  0  0
   -1.9071    1.2145    0.0000 C   0  0  1  0  0  0  0  0  0  0  0  0
   -1.9071    0.3895    0.0000 C   0  0  0  0  0  0  0  0  0  0  0  0
   -1.1927    1.6270    0.0000 N   0  0  0  0  0  0  0  0  0  0  0  0
   -0.4782    1.2145    0.0000 C   0  0  0  0  0  0  0  0  0  0  0  0
    0.2363    1.6270    0.0000 C   0  0  0  0  0  0  0  0  0  0  0  0
    0.2363    2.4520    0.0000 O   0  0  0  0  0  0  0  0  0  0  0  0
    0.9508    1.2145    0.0000 C   0  0  0  0  0  0  0  0  0  0  0  0
    0.9508    0.3895    0.0000 C   0  0  0  0  0  0  0  0  0  0  0  0
    1.6652   -0.0230    0.0000 C   0  0  0  0  0  0  0  0  0  0  0  0
    2.3797    0.3895    0.0000 C   0  0  0  0  0  0  0  0  0  0  0  0
    3.0942   -0.0230    0.0000 F   0  0  0  0  0  0  0  0  0  0  0  0
    2.3797    1.2145    0.0000 C   0  0  0  0  0  0  0  0  0  0  0  0
    1.6652    1.6270    0.0000 C   0  0  0  0  0  0  0  0  0  0  0  0
   -6.1940    2.8645    0.0000 C   0  0  0  0  0  0  0  0  0  0  0  0
   -6.9084    2.4520    0.0000 N   0  0  0  0  0  0  0  0  0  0  0  0
   -6.1940    3.6895    0.0000 O   0  0  0  0  0  0  0  0  0  0  0  0
   -1.9071    1.7984    0.0000 H   0  0  0  0  0  0  0  0  0  0  0  0
   -6.3732    1.1110    0.0000 H   0  0  0  0  0  0  0  0  0  0  0  0
   -4.7650    0.1825    0.0000 H   0  0  0  0  0  0  0  0  0  0  0  0
   -3.1568    2.9680    0.0000 H   0  0  0  0  0  0  0  0  0  0  0  0
   -4.7650    3.8965    0.0000 H   0  0  0  0  0  0  0  0  0  0  0  0
   -3.3361    0.1445    0.0000 H   0  0  0  0  0  0  0  0  0  0  0  0
   -2.4095    0.6795    0.0000 H   0  0  0  0  0  0  0  0  0  0  0  0
   -2.6216    2.6970    0.0000 H   0  0  0  0  0  0  0  0  0  0  0  0
   -1.6950    2.1620    0.0000 H   0  0  0  0  0  0  0  0  0  0  0  0
   -2.8337   -0.1455    0.0000 H   0  0  0  0  0  0  0  0  0  0  0  0
   -0.9805   -0.1455    0.0000 H   0  0  0  0  0  0  0  0  0  0  0  0
   -1.9071   -0.6805    0.0000 H   0  0  0  0  0  0  0  0  0  0  0  0
   -1.1927    2.6470    0.0000 H   0  0  0  0  0  0  0  0  0  0  0  0
   -0.4782    0.1445    0.0000 H   0  0  0  0  0  0  0  0  0  0  0  0
    0.4484    0.6795    0.0000 H   0  0  0  0  0  0  0  0  0  0  0  0
    0.0571   -0.1265    0.0000 H   0  0  0  0  0  0  0  0  0  0  0  0
    1.6652   -1.0550    0.0000 H   0  0  0  0  0  0  0  0  0  0  0  0
    3.2734    1.7305    0.0000 H   0  0  0  0  0  0  0  0  0  0  0  0
    1.6652    2.6590    0.0000 H   0  0  0  0  0  0  0  0  0  0  0  0
   -7.7610    2.9442    0.0000 H   0  0  0  0  0  0  0  0  0  0  0  0
   -6.9084    1.4675    0.0000 H   0  0  0  0  0  0  0  0  0  0  0  0
  1  6  1  0  0  0  0
  1 22  1  0  0  0  0
  1  2  2  0  0  0  0
  2  3  1  0  0  0  0
  2 26  1  0  0  0  0
  3  4  2  0  0  0  0
  3 27  1  0  0  0  0
  4  5  1  0  0  0  0
  4  7  1  0  0  0  0
  5  6  2  0  0  0  0
  5 28  1  0  0  0  0
  6 29  1  0  0  0  0
  7  8  1  0  0  0  0
  7 30  1  0  0  0  0
  7 31  1  0  0  0  0
  8  9  1  0  0  0  0
  8 32  1  0  0  0  0
  8 33  1  0  0  0  0
  9 11  1  0  0  0  0
  9 10  1  0  0  0  0
  9 25  1  1  0  0  0
 10 34  1  0  0  0  0
 10 35  1  0  0  0  0
 10 36  1  0  0  0  0
 11 12  1  0  0  0  0
 11 37  1  0  0  0  0
 12 13  1  0  0  0  0
 12 38  1  0  0  0  0
 12 39  1  0  0  0  0
 13 15  1  0  0  0  0
 13 14  2  0  0  0  0
 15 21  2  0  0  0  0
 15 16  1  0  0  0  0
 16 17  2  0  0  0  0
 16 40  1  0  0  0  0
 17 18  1  0  0  0  0
 17 41  1  0  0  0  0
 18 19  1  0  0  0  0
 18 20  2  0  0  0  0
 20 21  1  0  0  0  0
 20 42  1  0  0  0  0
 21 43  1  0  0  0  0
 22 24  2  0  0  0  0
 22 23  1  0  0  0  0
 23 44  1  0  0  0  0
 23 45  1  0  0  0  0
M  END
>  <DRUGBANK_ID>
DB08672

>  <COMMON_NAME>
4-[(3R)-3-{[2-(4-FLUOROPHENYL)-2-OXOETHYL]AMINO}BUTYL]BENZAMIDE

$$$$
