1096
 OpenBabel10282417072D

 41 42  0  0  1  0  0  0  0  0999 V2000
    2.3645    1.5348    0.0000 O   0  0  0  0  0  0  0  0  0  0  0  0
    2.3645   -1.7652    0.0000 O   0  5  0  0  0  0  0  0  0  0  0  0
    1.6500   -0.5277    0.0000 O   0  0  0  0  0  0  0  0  0  0  0  0
    5.2454   -0.9688    0.0000 N   0  0  0  0  0  0  0  0  0  0  0  0
    7.4219   -0.5504    0.0000 N   0  0  0  0  0  0  0  0  0  0  0  0
    2.3645   -0.9402    0.0000 N   0  3  0  0  0  0  0  0  0  0  0  0
    5.9929   -0.5448    0.0000 C   0  0  3  0  0  0  0  0  0  0  0  0
    5.9929    0.3145    0.0000 C   0  0  0  0  0  0  0  0  0  0  0  0
    5.2454    0.7385    0.0000 C   0  0  0  0  0  0  0  0  0  0  0  0
    6.7058   -0.9601    0.0000 C   0  0  0  0  0  0  0  0  0  0  0  0
    4.5079    0.2973    0.0000 C   0  0  0  0  0  0  0  0  0  0  0  0
    4.5079   -0.5277    0.0000 C   0  0  0  0  0  0  0  0  0  0  0  0
    3.7935    0.7098    0.0000 C   0  0  0  0  0  0  0  0  0  0  0  0
    8.1347   -0.9656    0.0000 C   0  0  0  0  0  0  0  0  0  0  0  0
    3.7935   -0.9402    0.0000 C   0  0  0  0  0  0  0  0  0  0  0  0
    3.0790    0.2973    0.0000 C   0  0  0  0  0  0  0  0  0  0  0  0
    3.0790   -0.5277    0.0000 C   0  0  0  0  0  0  0  0  0  0  0  0
    8.8509   -0.5559    0.0000 C   0  0  0  0  0  0  0  0  0  0  0  0
    8.1316   -1.7906    0.0000 C   0  0  0  0  0  0  0  0  0  0  0  0
    2.3645    0.7098    0.0000 C   0  0  0  0  0  0  0  0  0  0  0  0
    3.2045    2.0198    0.0000 H   0  0  0  0  0  0  0  0  0  0  0  0
    5.2341   -1.9532    0.0000 H   0  0  0  0  0  0  0  0  0  0  0  0
    7.4259    0.4696    0.0000 H   0  0  0  0  0  0  0  0  0  0  0  0
    5.0683   -0.0063    0.0000 H   0  0  0  0  0  0  0  0  0  0  0  0
    6.9175    0.8530    0.0000 H   0  0  0  0  0  0  0  0  0  0  0  0
    5.9868    1.3845    0.0000 H   0  0  0  0  0  0  0  0  0  0  0  0
    5.2330    1.8084    0.0000 H   0  0  0  0  0  0  0  0  0  0  0  0
    4.3116    1.2609    0.0000 H   0  0  0  0  0  0  0  0  0  0  0  0
    6.7016   -2.0301    0.0000 H   0  0  0  0  0  0  0  0  0  0  0  0
    5.7771   -1.4915    0.0000 H   0  0  0  0  0  0  0  0  0  0  0  0
    3.7935    1.7418    0.0000 H   0  0  0  0  0  0  0  0  0  0  0  0
    9.0593   -1.5042    0.0000 H   0  0  0  0  0  0  0  0  0  0  0  0
    3.7935   -1.9722    0.0000 H   0  0  0  0  0  0  0  0  0  0  0  0
    9.7754   -1.0946    0.0000 H   0  0  0  0  0  0  0  0  0  0  0  0
    8.8552    0.5141    0.0000 H   0  0  0  0  0  0  0  0  0  0  0  0
    9.7797   -0.0246    0.0000 H   0  0  0  0  0  0  0  0  0  0  0  0
    7.2029   -2.3221    0.0000 H   0  0  0  0  0  0  0  0  0  0  0  0
    9.0562   -2.3291    0.0000 H   0  0  0  0  0  0  0  0  0  0  0  0
    8.1276   -2.8606    0.0000 H   0  0  0  0  0  0  0  0  0  0  0  0
    1.4379    0.1748    0.0000 H   0  0  0  0  0  0  0  0  0  0  0  0
    2.3645   -0.3602    0.0000 H   0  0  0  0  0  0  0  0  0  0  0  0
  1 20  1  0  0  0  0
  1 21  1  0  0  0  0
  2  6  1  0  0  0  0
  3  6  2  0  0  0  0
  4  7  1  0  0  0  0
  4 12  1  0  0  0  0
  4 22  1  0  0  0  0
  5 10  1  0  0  0  0
  5 14  1  0  0  0  0
  5 23  1  0  0  0  0
  6 17  1  0  0  0  0
  7  8  1  0  0  0  0
  7 10  1  0  0  0  0
  7 24  1  0  0  0  0
  8  9  1  0  0  0  0
  8 25  1  0  0  0  0
  8 26  1  0  0  0  0
  9 11  1  0  0  0  0
  9 27  1  0  0  0  0
  9 28  1  0  0  0  0
 10 29  1  0  0  0  0
 10 30  1  0  0  0  0
 11 12  1  0  0  0  0
 11 13  2  0  0  0  0
 12 15  2  0  0  0  0
 13 16  1  0  0  0  0
 13 31  1  0  0  0  0
 14 18  1  0  0  0  0
 14 19  1  0  0  0  0
 14 32  1  0  0  0  0
 15 17  1  0  0  0  0
 15 33  1  0  0  0  0
 16 17  2  0  0  0  0
 16 20  1  0  0  0  0
 18 34  1  0  0  0  0
 18 35  1  0  0  0  0
 18 36  1  0  0  0  0
 19 37  1  0  0  0  0
 19 38  1  0  0  0  0
 19 39  1  0  0  0  0
 20 40  1  0  0  0  0
 20 41  1  0  0  0  0
M  CHG  2   2  -1   6   1
M  END
>  <DRUGBANK_ID>
DB01096

>  <SECONDARY_ACCESSION_NUMBERS>
APRD01150

>  <COMMON_NAME>
Oxamniquine

>  <CAS_NUMBER>
21738-42-1

>  <UNII>
0O977R722D

$$$$
