689
 OpenBabel10282417072D

 45 47  0  0  0  0  0  0  0  0999 V2000
    1.1084    1.3350    0.0000 C   0  0  0  0  0  0  0  0  0  0  0  0
    0.7105    0.5492    0.0000 C   0  0  1  0  0  0  0  0  0  0  0  0
    0.1607    0.1132    0.0000 C   0  0  1  0  0  0  0  0  0  0  0  0
   -0.5933   -0.0525    0.0000 C   0  0  0  0  0  0  0  0  0  0  0  0
   -0.8768    0.8605    0.0000 C   0  0  0  0  0  0  0  0  0  0  0  0
   -0.8852   -0.6894    0.0000 C   0  0  0  0  0  0  0  0  0  0  0  0
   -0.3807   -0.2651    0.0000 C   0  0  2  0  0  0  0  0  0  0  0  0
   -0.0998    0.6714    0.0000 C   0  0  0  0  0  0  0  0  0  0  0  0
    0.5793   -0.2544    0.0000 C   0  0  1  0  0  0  0  0  0  0  0  0
    1.4811    0.0719    0.0000 C   0  0  0  0  0  0  0  0  0  0  0  0
    2.2486    0.0923    0.0000 O   0  0  0  0  0  0  0  0  0  0  0  0
    0.6263   -1.2413    0.0000 C   0  0  0  0  0  0  0  0  0  0  0  0
   -0.1900   -1.4208    0.0000 O   0  0  0  0  0  0  0  0  0  0  0  0
    0.2221   -0.8399    0.0000 C   0  0  2  0  0  0  0  0  0  0  0  0
   -0.5716   -0.6148    0.0000 C   0  0  0  0  0  0  0  0  0  0  0  0
   -1.1633   -1.1896    0.0000 C   0  0  0  0  0  0  0  0  0  0  0  0
   -1.9570   -0.9645    0.0000 C   0  0  0  0  0  0  0  0  0  0  0  0
   -2.1590   -0.1646    0.0000 C   0  0  0  0  0  0  0  0  0  0  0  0
   -2.9527    0.0605    0.0000 O   0  0  0  0  0  0  0  0  0  0  0  0
   -1.5672    0.4102    0.0000 C   0  0  0  0  0  0  0  0  0  0  0  0
   -0.7735    0.1851    0.0000 C   0  0  0  0  0  0  0  0  0  0  0  0
    0.4117    1.0509    0.0000 H   0  0  0  0  0  0  0  0  0  0  0  0
    0.7296    0.2450    0.0000 H   0  0  0  0  0  0  0  0  0  0  0  0
   -0.8686    0.0556    0.0000 H   0  0  0  0  0  0  0  0  0  0  0  0
   -0.2780   -0.5385    0.0000 H   0  0  0  0  0  0  0  0  0  0  0  0
    2.1768    1.3937    0.0000 H   0  0  0  0  0  0  0  0  0  0  0  0
    0.5234    2.2309    0.0000 H   0  0  0  0  0  0  0  0  0  0  0  0
    1.5918    2.2896    0.0000 H   0  0  0  0  0  0  0  0  0  0  0  0
   -0.1505    1.6462    0.0000 H   0  0  0  0  0  0  0  0  0  0  0  0
   -1.9204    1.0966    0.0000 H   0  0  0  0  0  0  0  0  0  0  0  0
   -1.1941    1.8824    0.0000 H   0  0  0  0  0  0  0  0  0  0  0  0
   -1.5103   -1.5106    0.0000 H   0  0  0  0  0  0  0  0  0  0  0  0
    0.9415    0.9176    0.0000 H   0  0  0  0  0  0  0  0  0  0  0  0
   -0.8337    1.4501    0.0000 H   0  0  0  0  0  0  0  0  0  0  0  0
    0.2076    1.6963    0.0000 H   0  0  0  0  0  0  0  0  0  0  0  0
    1.2823    1.1233    0.0000 H   0  0  0  0  0  0  0  0  0  0  0  0
    2.1528    0.9048    0.0000 H   0  0  0  0  0  0  0  0  0  0  0  0
    2.7557   -0.7346    0.0000 H   0  0  0  0  0  0  0  0  0  0  0  0
    1.4759   -1.8917    0.0000 H   0  0  0  0  0  0  0  0  0  0  0  0
    0.3944   -2.2859    0.0000 H   0  0  0  0  0  0  0  0  0  0  0  0
   -0.9107   -2.1902    0.0000 H   0  0  0  0  0  0  0  0  0  0  0  0
   -2.6972   -1.6836    0.0000 H   0  0  0  0  0  0  0  0  0  0  0  0
   -3.1820    0.9690    0.0000 H   0  0  0  0  0  0  0  0  0  0  0  0
   -1.8198    1.4108    0.0000 H   0  0  0  0  0  0  0  0  0  0  0  0
   -0.0332    0.9041    0.0000 H   0  0  0  0  0  0  0  0  0  0  0  0
  1 26  1  0  0  0  0
  1 27  1  0  0  0  0
  1 28  1  0  0  0  0
  2  1  1  0  0  0  0
  2  3  1  0  0  0  0
  2  9  1  0  0  0  0
  2 22  1  1  0  0  0
  3  4  1  0  0  0  0
  3 14  1  0  0  0  0
  3 23  1  1  0  0  0
  4  5  1  0  0  0  0
  4  6  2  0  0  0  0
  5 29  1  0  0  0  0
  5 30  1  0  0  0  0
  5 31  1  0  0  0  0
  6  7  1  0  0  0  0
  6 32  1  0  0  0  0
  7  8  1  0  0  0  0
  7  9  1  0  0  0  0
  7 24  1  1  0  0  0
  8 33  1  0  0  0  0
  8 34  1  0  0  0  0
  8 35  1  0  0  0  0
  9 10  1  6  0  0  0
  9 12  1  0  0  0  0
 10 11  1  0  0  0  0
 10 36  1  0  0  0  0
 10 37  1  0  0  0  0
 11 38  1  0  0  0  0
 12 13  1  0  0  0  0
 12 39  1  0  0  0  0
 12 40  1  0  0  0  0
 13 14  1  0  0  0  0
 14 15  1  0  0  0  0
 14 25  1  1  0  0  0
 15 16  1  0  0  0  0
 15 21  2  0  0  0  0
 16 17  2  0  0  0  0
 16 41  1  0  0  0  0
 17 18  1  0  0  0  0
 17 42  1  0  0  0  0
 18 19  1  0  0  0  0
 18 20  2  0  0  0  0
 19 43  1  0  0  0  0
 20 21  1  0  0  0  0
 20 44  1  0  0  0  0
 21 45  1  0  0  0  0
M  END
>  <DRUGBANK_ID>
DB07195

>  <COMMON_NAME>
4-[(1S,2S,5S)-5-(HYDROXYMETHYL)-6,8,9-TRIMETHYL-3-OXABICYCLO[3.3.1]NON-7-EN-2-YL]PHENOL

$$$$
