
 OpenBabel10282417072D

 84 86  0  0  1  0  0  0  0  0999 V2000
   12.6750   -8.3538    0.0000 N   0  0  0  0  0  0  0  0  0  0  0  0
   12.3338   -9.7864    0.0000 C   0  0  2  0  0  0  0  0  0  0  0  0
   11.2348   -8.3538    0.0000 C   0  0  0  0  0  0  0  0  0  0  0  0
   12.6787   -7.5239    0.0000 C   0  0  0  0  0  0  0  0  0  0  0  0
   11.6518   -9.2937    0.0000 O   0  0  0  0  0  0  0  0  0  0  0  0
   12.0838  -10.5633    0.0000 C   0  0  1  0  0  0  0  0  0  0  0  0
   11.2348   -7.5239    0.0000 C   0  0  0  0  0  0  0  0  0  0  0  0
   10.5110   -8.7782    0.0000 N   0  0  0  0  0  0  0  0  0  0  0  0
   11.9587   -7.1032    0.0000 N   0  0  0  0  0  0  0  0  0  0  0  0
   10.9809   -9.7750    0.0000 C   0  0  1  0  0  0  0  0  0  0  0  0
   11.2424  -10.5633    0.0000 C   0  0  1  0  0  0  0  0  0  0  0  0
   12.5235  -11.1359    0.0000 O   0  0  0  0  0  0  0  0  0  0  0  0
   10.5110   -7.1108    0.0000 C   0  0  0  0  0  0  0  0  0  0  0  0
    9.7984   -8.3538    0.0000 C   0  0  0  0  0  0  0  0  0  0  0  0
   10.2116   -9.5324    0.0000 C   0  0  0  0  0  0  0  0  0  0  0  0
   10.8218  -11.1545    0.0000 O   0  0  0  0  0  0  0  0  0  0  0  0
    9.7984   -7.5239    0.0000 N   0  0  0  0  0  0  0  0  0  0  0  0
   10.5110   -6.3299    0.0000 N   0  0  0  0  0  0  0  0  0  0  0  0
    9.1275  -10.1121    0.0000 O   0  0  0  0  0  0  0  0  0  0  0  0
    9.9463  -11.1469    0.0000 P   0  0  0  0  0  0  0  0  0  0  0  0
    7.7673  -10.0819    0.0000 P   0  0  3  0  0  0  0  0  0  0  0  0
    9.9616  -10.3171    0.0000 O   0  0  0  0  0  0  0  0  0  0  0  0
    9.1844  -11.1206    0.0000 O   0  0  0  0  0  0  0  0  0  0  0  0
    9.9840  -11.9769    0.0000 O   0  0  0  0  0  0  0  0  0  0  0  0
    7.7673  -11.8706    0.0000 O   0  0  0  0  0  0  0  0  0  0  0  0
    7.7748   -9.2029    0.0000 O   0  0  0  0  0  0  0  0  0  0  0  0
    6.9863  -10.1121    0.0000 O   0  0  0  0  0  0  0  0  0  0  0  0
    7.7709  -13.5985    0.0000 P   0  0  3  0  0  0  0  0  0  0  0  0
    8.6313  -13.5796    0.0000 O   0  0  0  0  0  0  0  0  0  0  0  0
    7.8049  -14.5724    0.0000 O   0  0  0  0  0  0  0  0  0  0  0  0
    6.9448  -13.5833    0.0000 O   0  0  0  0  0  0  0  0  0  0  0  0
    9.3399  -13.1702    0.0000 C   0  0  0  0  0  0  0  0  0  0  0  0
   10.0562  -13.5796    0.0000 C   0  0  0  0  0  0  0  0  0  0  0  0
   10.7687  -13.1702    0.0000 C   0  0  2  0  0  0  0  0  0  0  0  0
   10.0448  -14.3147    0.0000 C   0  0  0  0  0  0  0  0  0  0  0  0
   10.0373  -12.7759    0.0000 C   0  0  0  0  0  0  0  0  0  0  0  0
   11.4850  -13.5796    0.0000 C   0  0  0  0  0  0  0  0  0  0  0  0
   10.7687  -12.3440    0.0000 O   0  0  0  0  0  0  0  0  0  0  0  0
   12.1974  -13.1702    0.0000 N   0  0  0  0  0  0  0  0  0  0  0  0
   11.4850  -14.3605    0.0000 O   0  0  0  0  0  0  0  0  0  0  0  0
   12.9099  -13.5796    0.0000 C   0  0  0  0  0  0  0  0  0  0  0  0
   13.6262  -13.1702    0.0000 C   0  0  0  0  0  0  0  0  0  0  0  0
   14.3387  -13.5796    0.0000 C   0  0  0  0  0  0  0  0  0  0  0  0
   15.0512  -13.1702    0.0000 N   0  0  0  0  0  0  0  0  0  0  0  0
   14.3387  -14.4057    0.0000 O   0  0  0  0  0  0  0  0  0  0  0  0
   15.7675  -13.5796    0.0000 C   0  0  0  0  0  0  0  0  0  0  0  0
   16.4799  -13.1665    0.0000 C   0  0  0  0  0  0  0  0  0  0  0  0
   17.1923  -13.5796    0.0000 S   0  0  0  0  0  0  0  0  0  0  0  0
   11.9612   -8.7834    0.0000 H   0  0  0  0  0  0  0  0  0  0  0  0
   13.5749   -7.0122    0.0000 H   0  0  0  0  0  0  0  0  0  0  0  0
   13.1381  -10.3804    0.0000 H   0  0  0  0  0  0  0  0  0  0  0  0
   10.8121   -8.7184    0.0000 H   0  0  0  0  0  0  0  0  0  0  0  0
   11.7329  -11.5142    0.0000 H   0  0  0  0  0  0  0  0  0  0  0  0
   12.1526  -12.0322    0.0000 H   0  0  0  0  0  0  0  0  0  0  0  0
    8.9012   -8.8637    0.0000 H   0  0  0  0  0  0  0  0  0  0  0  0
   10.1125   -8.4670    0.0000 H   0  0  0  0  0  0  0  0  0  0  0  0
    9.2693   -9.0255    0.0000 H   0  0  0  0  0  0  0  0  0  0  0  0
   11.3636   -5.8377    0.0000 H   0  0  0  0  0  0  0  0  0  0  0  0
    9.6584   -5.8377    0.0000 H   0  0  0  0  0  0  0  0  0  0  0  0
   10.8104   -9.8477    0.0000 H   0  0  0  0  0  0  0  0  0  0  0  0
    8.7287  -10.2643    0.0000 H   0  0  0  0  0  0  0  0  0  0  0  0
    8.6190   -8.7251    0.0000 H   0  0  0  0  0  0  0  0  0  0  0  0
    6.9823  -15.0864    0.0000 H   0  0  0  0  0  0  0  0  0  0  0  0
    9.3374  -12.1002    0.0000 H   0  0  0  0  0  0  0  0  0  0  0  0
   10.2648  -12.6321    0.0000 H   0  0  0  0  0  0  0  0  0  0  0  0
    9.8426  -12.6342    0.0000 H   0  0  0  0  0  0  0  0  0  0  0  0
    9.1100  -14.8353    0.0000 H   0  0  0  0  0  0  0  0  0  0  0  0
   10.9630  -14.8640    0.0000 H   0  0  0  0  0  0  0  0  0  0  0  0
   10.0282  -15.3846    0.0000 H   0  0  0  0  0  0  0  0  0  0  0  0
   10.9511  -12.2193    0.0000 H   0  0  0  0  0  0  0  0  0  0  0  0
    9.0983  -12.2628    0.0000 H   0  0  0  0  0  0  0  0  0  0  0  0
   10.0121  -11.7062    0.0000 H   0  0  0  0  0  0  0  0  0  0  0  0
   11.6087  -11.8590    0.0000 H   0  0  0  0  0  0  0  0  0  0  0  0
   12.1974  -12.1857    0.0000 H   0  0  0  0  0  0  0  0  0  0  0  0
   12.9087  -14.6496    0.0000 H   0  0  0  0  0  0  0  0  0  0  0  0
   13.8351  -14.1172    0.0000 H   0  0  0  0  0  0  0  0  0  0  0  0
   13.6274  -12.1002    0.0000 H   0  0  0  0  0  0  0  0  0  0  0  0
   14.5526  -12.6348    0.0000 H   0  0  0  0  0  0  0  0  0  0  0  0
   15.0501  -12.1857    0.0000 H   0  0  0  0  0  0  0  0  0  0  0  0
   15.7708  -14.6496    0.0000 H   0  0  0  0  0  0  0  0  0  0  0  0
   16.6955  -14.1123    0.0000 H   0  0  0  0  0  0  0  0  0  0  0  0
   16.4799  -12.0965    0.0000 H   0  0  0  0  0  0  0  0  0  0  0  0
   17.4071  -12.6324    0.0000 H   0  0  0  0  0  0  0  0  0  0  0  0
   17.1897  -14.9396    0.0000 H   0  0  0  0  0  0  0  0  0  0  0  0
  1  3  1  0  0  0  0
  1  4  1  0  0  0  0
  2  1  1  0  0  0  0
  2  5  1  0  0  0  0
  2  6  1  0  0  0  0
  2 49  1  6  0  0  0
  3  7  2  0  0  0  0
  3  8  1  0  0  0  0
  4  9  2  0  0  0  0
  4 50  1  0  0  0  0
  5 10  1  0  0  0  0
  6 11  1  0  0  0  0
  6 12  1  0  0  0  0
  6 51  1  1  0  0  0
  7 13  1  0  0  0  0
  7  9  1  0  0  0  0
  8 14  2  0  0  0  0
 10 15  1  0  0  0  0
 10 11  1  0  0  0  0
 10 52  1  6  0  0  0
 11 16  1  0  0  0  0
 11 53  1  1  0  0  0
 12 54  1  0  0  0  0
 13 17  2  0  0  0  0
 13 18  1  0  0  0  0
 14 17  1  0  0  0  0
 14 55  1  0  0  0  0
 15 19  1  0  0  0  0
 15 56  1  0  0  0  0
 15 57  1  0  0  0  0
 16 20  1  0  0  0  0
 18 58  1  0  0  0  0
 18 59  1  0  0  0  0
 19 21  1  0  0  0  0
 20 22  1  0  0  0  0
 20 23  1  0  0  0  0
 20 24  2  0  0  0  0
 21 25  1  0  0  0  0
 21 26  1  0  0  0  0
 21 27  2  0  0  0  0
 22 60  1  0  0  0  0
 23 61  1  0  0  0  0
 25 28  1  0  0  0  0
 26 62  1  0  0  0  0
 28 29  1  0  0  0  0
 28 30  1  0  0  0  0
 28 31  2  0  0  0  0
 29 32  1  0  0  0  0
 30 63  1  0  0  0  0
 32 33  1  0  0  0  0
 32 64  1  0  0  0  0
 32 65  1  0  0  0  0
 33 34  1  0  0  0  0
 33 35  1  0  0  0  0
 33 36  1  0  0  0  0
 34 37  1  0  0  0  0
 34 38  1  0  0  0  0
 34 66  1  6  0  0  0
 35 67  1  0  0  0  0
 35 68  1  0  0  0  0
 35 69  1  0  0  0  0
 36 70  1  0  0  0  0
 36 71  1  0  0  0  0
 36 72  1  0  0  0  0
 37 39  1  0  0  0  0
 37 40  2  0  0  0  0
 38 73  1  0  0  0  0
 39 41  1  0  0  0  0
 39 74  1  0  0  0  0
 41 42  1  0  0  0  0
 41 75  1  0  0  0  0
 41 76  1  0  0  0  0
 42 43  1  0  0  0  0
 42 77  1  0  0  0  0
 42 78  1  0  0  0  0
 43 44  1  0  0  0  0
 43 45  2  0  0  0  0
 44 46  1  0  0  0  0
 44 79  1  0  0  0  0
 46 47  1  0  0  0  0
 46 80  1  0  0  0  0
 46 81  1  0  0  0  0
 47 48  1  0  0  0  0
 47 82  1  0  0  0  0
 47 83  1  0  0  0  0
 48 84  1  0  0  0  0
M  END
>  <DRUGBANK_ID>
DB01992

>  <SECONDARY_ACCESSION_NUMBERS>
EXPT00991

>  <COMMON_NAME>
Coenzyme A

>  <CAS_NUMBER>
85-61-0

>  <UNII>
SAA04E81UX

>  <SYNONYMS>
3'-phosphoadenosine-(5')diphospho(4')pantatheine; CoA; CoA-SH; CoASH; HSCoA

$$$$
