
 OpenBabel10282417072D

 43 44  0  0  0  0  0  0  0  0999 V2000
    1.0729    0.8250    0.0000 C   0  0  0  0  0  0  0  0  0  0  0  0
    1.7854    0.4125    0.0000 C   0  0  0  0  0  0  0  0  0  0  0  0
    0.3562    0.4125    0.0000 C   0  0  0  0  0  0  0  0  0  0  0  0
   -1.7854   -1.6500    0.0000 C   0  0  0  0  0  0  0  0  0  0  0  0
    1.0729   -1.6500    0.0000 C   0  0  0  0  0  0  0  0  0  0  0  0
    0.3562   -2.0625    0.0000 C   0  0  0  0  0  0  0  0  0  0  0  0
    1.0729   -0.8250    0.0000 C   0  0  0  0  0  0  0  0  0  0  0  0
    0.3562   -0.4125    0.0000 C   0  0  0  0  0  0  0  0  0  0  0  0
    1.7854   -0.4125    0.0000 C   0  0  0  0  0  0  0  0  0  0  0  0
   -1.7854   -0.8250    0.0000 C   0  0  0  0  0  0  0  0  0  0  0  0
   -1.0729   -2.0625    0.0000 C   0  0  0  0  0  0  0  0  0  0  0  0
   -0.3562   -1.6500    0.0000 C   0  0  0  0  0  0  0  0  0  0  0  0
   -1.0729   -0.4125    0.0000 C   0  0  0  0  0  0  0  0  0  0  0  0
    1.0729    1.6500    0.0000 O   0  0  0  0  0  0  0  0  0  0  0  0
   -0.3562    0.8250    0.0000 O   0  0  0  0  0  0  0  0  0  0  0  0
    2.5020    0.8250    0.0000 O   0  0  0  0  0  0  0  0  0  0  0  0
   -2.5020   -2.0625    0.0000 O   0  0  0  0  0  0  0  0  0  0  0  0
   -0.3562   -0.8250    0.0000 C   0  0  0  0  0  0  0  0  0  0  0  0
   -2.5020   -0.4125    0.0000 O   0  0  0  0  0  0  0  0  0  0  0  0
    0.3562    2.0625    0.0000 C   0  0  0  0  0  0  0  0  0  0  0  0
    3.2146    0.4125    0.0000 C   0  0  0  0  0  0  0  0  0  0  0  0
   -1.0729    0.4125    0.0000 C   0  0  0  0  0  0  0  0  0  0  0  0
   -3.2146   -0.8250    0.0000 C   0  0  0  0  0  0  0  0  0  0  0  0
    1.9663   -2.1666    0.0000 H   0  0  0  0  0  0  0  0  0  0  0  0
    0.3549   -3.0945    0.0000 H   0  0  0  0  0  0  0  0  0  0  0  0
   -0.5372   -0.9291    0.0000 H   0  0  0  0  0  0  0  0  0  0  0  0
    2.6794   -0.9280    0.0000 H   0  0  0  0  0  0  0  0  0  0  0  0
   -1.0742   -3.0945    0.0000 H   0  0  0  0  0  0  0  0  0  0  0  0
   -1.0742    0.6195    0.0000 H   0  0  0  0  0  0  0  0  0  0  0  0
   -3.3129   -1.5930    0.0000 H   0  0  0  0  0  0  0  0  0  0  0  0
    0.5372   -0.3084    0.0000 H   0  0  0  0  0  0  0  0  0  0  0  0
    0.3548    3.1325    0.0000 H   0  0  0  0  0  0  0  0  0  0  0  0
   -0.5697    1.5263    0.0000 H   0  0  0  0  0  0  0  0  0  0  0  0
   -0.5712    2.5963    0.0000 H   0  0  0  0  0  0  0  0  0  0  0  0
    3.2134   -0.6575    0.0000 H   0  0  0  0  0  0  0  0  0  0  0  0
    4.1419    0.9464    0.0000 H   0  0  0  0  0  0  0  0  0  0  0  0
    4.1406   -0.1236    0.0000 H   0  0  0  0  0  0  0  0  0  0  0  0
   -1.9988    0.9487    0.0000 H   0  0  0  0  0  0  0  0  0  0  0  0
   -1.0743   -0.6575    0.0000 H   0  0  0  0  0  0  0  0  0  0  0  0
   -2.0003   -0.1213    0.0000 H   0  0  0  0  0  0  0  0  0  0  0  0
   -4.1419   -0.2911    0.0000 H   0  0  0  0  0  0  0  0  0  0  0  0
   -3.2134   -1.8950    0.0000 H   0  0  0  0  0  0  0  0  0  0  0  0
   -4.1406   -1.3611    0.0000 H   0  0  0  0  0  0  0  0  0  0  0  0
  2  1  2  0  0  0  0
  3  1  1  0  0  0  0
  4 11  2  0  0  0  0
  5  7  1  0  0  0  0
  5 24  1  0  0  0  0
  6  5  2  0  0  0  0
  6 25  1  0  0  0  0
  7  8  1  0  0  0  0
  8  3  2  0  0  0  0
  8 26  1  0  0  0  0
  9  2  1  0  0  0  0
  9  7  2  0  0  0  0
  9 27  1  0  0  0  0
 10 13  2  0  0  0  0
 10  4  1  0  0  0  0
 11 12  1  0  0  0  0
 11 28  1  0  0  0  0
 12  6  1  0  0  0  0
 13 18  1  0  0  0  0
 13 29  1  0  0  0  0
 14  1  1  0  0  0  0
 15  3  1  0  0  0  0
 16  2  1  0  0  0  0
 17  4  1  0  0  0  0
 17 30  1  0  0  0  0
 18 12  2  0  0  0  0
 18 31  1  0  0  0  0
 19 10  1  0  0  0  0
 20 14  1  0  0  0  0
 20 32  1  0  0  0  0
 20 33  1  0  0  0  0
 20 34  1  0  0  0  0
 21 16  1  0  0  0  0
 21 35  1  0  0  0  0
 21 36  1  0  0  0  0
 21 37  1  0  0  0  0
 22 15  1  0  0  0  0
 22 38  1  0  0  0  0
 22 39  1  0  0  0  0
 22 40  1  0  0  0  0
 23 19  1  0  0  0  0
 23 41  1  0  0  0  0
 23 42  1  0  0  0  0
 23 43  1  0  0  0  0
M  END
>  <DRUGBANK_ID>
DB14680

>  <COMMON_NAME>
Combretastatin A4

>  <CAS_NUMBER>
117048-59-6

>  <UNII>
16U6OP69RQ

>  <SYNONYMS>
2'-deoxycombretastatin A1; CA4; Combrestatin A4; Combretastatin 4; Combretastatin A-4; PHENOL, 2-METHOXY-5-(2-(3,4,5-TRIMETHOXYPHENYL)ETHENYL)-, (Z)-

$$$$
