
 OpenBabel10282417072D

 56 60  0  0  0  0  0  0  0  0999 V2000
   20.7380  -13.9364    0.0000 C   0  0  0  0  0  0  0  0  0  0  0  0
   20.2188  -14.5776    0.0000 N   0  0  0  0  0  0  0  0  0  0  0  0
   20.6681  -15.2694    0.0000 N   0  0  0  0  0  0  0  0  0  0  0  0
   21.4650  -15.0559    0.0000 C   0  0  0  0  0  0  0  0  0  0  0  0
   21.5082  -14.2321    0.0000 C   0  0  0  0  0  0  0  0  0  0  0  0
   22.2227  -13.8196    0.0000 C   0  0  0  0  0  0  0  0  0  0  0  0
   22.2227  -15.4696    0.0000 C   0  0  0  0  0  0  0  0  0  0  0  0
   22.9371  -15.0571    0.0000 C   0  0  1  0  0  0  0  0  0  0  0  0
   22.9371  -14.2321    0.0000 C   0  0  1  0  0  0  0  0  0  0  0  0
   23.6516  -13.8196    0.0000 C   0  0  2  0  0  0  0  0  0  0  0  0
   23.6516  -15.4696    0.0000 C   0  0  0  0  0  0  0  0  0  0  0  0
   24.3661  -15.0571    0.0000 C   0  0  0  0  0  0  0  0  0  0  0  0
   24.3661  -14.2321    0.0000 C   0  0  1  0  0  0  0  0  0  0  0  0
   24.3661  -12.5821    0.0000 C   0  0  0  0  0  0  0  0  0  0  0  0
   23.6516  -12.9946    0.0000 C   0  0  0  0  0  0  0  0  0  0  0  0
   25.0805  -13.8196    0.0000 C   0  0  1  0  0  0  0  0  0  0  0  0
   25.8076  -12.7001    0.0000 C   0  0  2  0  0  0  0  0  0  0  0  0
   25.0805  -12.9946    0.0000 C   0  0  1  0  0  0  0  0  0  0  0  0
   25.8774  -14.0331    0.0000 C   0  0  0  0  0  0  0  0  0  0  0  0
   26.3267  -13.3412    0.0000 C   0  0  0  0  0  0  0  0  0  0  0  0
   22.9371  -13.4071    0.0000 C   0  0  0  0  0  0  0  0  0  0  0  0
   22.9371  -15.8821    0.0000 H   0  0  0  0  0  0  0  0  0  0  0  0
   23.6516  -14.6446    0.0000 H   0  0  0  0  0  0  0  0  0  0  0  0
   24.3661  -13.4071    0.0000 H   0  0  0  0  0  0  0  0  0  0  0  0
   25.2941  -14.6165    0.0000 H   0  0  0  0  0  0  0  0  0  0  0  0
   25.0805  -12.1696    0.0000 C   0  0  0  0  0  0  0  0  0  0  0  0
   25.8076  -11.8751    0.0000 O   0  0  0  0  0  0  0  0  0  0  0  0
   26.5220  -12.2876    0.0000 C   0  0  0  0  0  0  0  0  0  0  0  0
   20.4709  -12.9396    0.0000 H   0  0  0  0  0  0  0  0  0  0  0  0
   19.2356  -14.5261    0.0000 H   0  0  0  0  0  0  0  0  0  0  0  0
   22.2227  -12.7496    0.0000 H   0  0  0  0  0  0  0  0  0  0  0  0
   23.1494  -13.2846    0.0000 H   0  0  0  0  0  0  0  0  0  0  0  0
   22.2355  -16.5395    0.0000 H   0  0  0  0  0  0  0  0  0  0  0  0
   23.1525  -15.9990    0.0000 H   0  0  0  0  0  0  0  0  0  0  0  0
   23.6516  -16.5396    0.0000 H   0  0  0  0  0  0  0  0  0  0  0  0
   24.5782  -16.0046    0.0000 H   0  0  0  0  0  0  0  0  0  0  0  0
   25.2927  -15.5921    0.0000 H   0  0  0  0  0  0  0  0  0  0  0  0
   25.2927  -14.5221    0.0000 H   0  0  0  0  0  0  0  0  0  0  0  0
   24.3661  -11.5121    0.0000 H   0  0  0  0  0  0  0  0  0  0  0  0
   25.2928  -12.0471    0.0000 H   0  0  0  0  0  0  0  0  0  0  0  0
   22.7250  -12.4596    0.0000 H   0  0  0  0  0  0  0  0  0  0  0  0
   23.6516  -11.9246    0.0000 H   0  0  0  0  0  0  0  0  0  0  0  0
   26.2609  -15.0320    0.0000 H   0  0  0  0  0  0  0  0  0  0  0  0
   26.9415  -14.1449    0.0000 H   0  0  0  0  0  0  0  0  0  0  0  0
   27.3952  -13.2852    0.0000 H   0  0  0  0  0  0  0  0  0  0  0  0
   26.7619  -12.3637    0.0000 H   0  0  0  0  0  0  0  0  0  0  0  0
   23.8637  -12.8721    0.0000 H   0  0  0  0  0  0  0  0  0  0  0  0
   22.0105  -12.8721    0.0000 H   0  0  0  0  0  0  0  0  0  0  0  0
   22.9371  -12.3371    0.0000 H   0  0  0  0  0  0  0  0  0  0  0  0
   26.0071  -11.6346    0.0000 H   0  0  0  0  0  0  0  0  0  0  0  0
   24.1539  -11.6346    0.0000 H   0  0  0  0  0  0  0  0  0  0  0  0
   25.0805  -11.0996    0.0000 H   0  0  0  0  0  0  0  0  0  0  0  0
   26.6476  -11.3901    0.0000 H   0  0  0  0  0  0  0  0  0  0  0  0
   27.4487  -12.8226    0.0000 H   0  0  0  0  0  0  0  0  0  0  0  0
   26.5220  -11.2176    0.0000 H   0  0  0  0  0  0  0  0  0  0  0  0
   27.4486  -11.7526    0.0000 H   0  0  0  0  0  0  0  0  0  0  0  0
  1  2  1  0  0  0  0
  1  5  2  0  0  0  0
  1 29  1  0  0  0  0
  2  3  1  0  0  0  0
  2 30  1  0  0  0  0
  3  4  2  0  0  0  0
  4  7  1  0  0  0  0
  5  4  1  0  0  0  0
  6  5  1  0  0  0  0
  6  9  1  0  0  0  0
  6 31  1  0  0  0  0
  6 32  1  0  0  0  0
  7  8  1  0  0  0  0
  7 33  1  0  0  0  0
  7 34  1  0  0  0  0
  8 11  1  0  0  0  0
  8 22  1  6  0  0  0
  9  8  1  0  0  0  0
  9 21  1  1  0  0  0
 10  9  1  0  0  0  0
 10 13  1  0  0  0  0
 10 23  1  6  0  0  0
 11 12  1  0  0  0  0
 11 35  1  0  0  0  0
 11 36  1  0  0  0  0
 12 13  1  0  0  0  0
 12 37  1  0  0  0  0
 12 38  1  0  0  0  0
 13 16  1  0  0  0  0
 13 24  1  1  0  0  0
 14 15  1  0  0  0  0
 14 18  1  0  0  0  0
 14 39  1  0  0  0  0
 14 40  1  0  0  0  0
 15 10  1  0  0  0  0
 15 41  1  0  0  0  0
 15 42  1  0  0  0  0
 16 19  1  0  0  0  0
 16 25  1  6  0  0  0
 17 18  1  0  0  0  0
 17 20  1  0  0  0  0
 17 27  1  1  0  0  0
 17 28  1  0  0  0  0
 18 16  1  0  0  0  0
 18 26  1  1  0  0  0
 19 20  1  0  0  0  0
 19 43  1  0  0  0  0
 19 44  1  0  0  0  0
 20 45  1  0  0  0  0
 20 46  1  0  0  0  0
 21 47  1  0  0  0  0
 21 48  1  0  0  0  0
 21 49  1  0  0  0  0
 26 50  1  0  0  0  0
 26 51  1  0  0  0  0
 26 52  1  0  0  0  0
 27 53  1  0  0  0  0
 28 54  1  0  0  0  0
 28 55  1  0  0  0  0
 28 56  1  0  0  0  0
M  END
>  <DRUGBANK_ID>
DB06718

>  <COMMON_NAME>
Stanozolol

>  <CAS_NUMBER>
10418-03-8

>  <UNII>
4R1VB9P8V3

>  <SYNONYMS>
Androstanazol; Androstanazole; Estanozolol; Stanozolol

$$$$
