
 OpenBabel10282417072D

 13 12  0  0  0  0  0  0  0  0999 V2000
   -0.6039   -1.6500    0.0000 O   0  0  0  0  0  0  0  0  0  0  0  0
    0.1105   -1.2375    0.0000 P   0  0  0  0  0  0  0  0  0  0  0  0
    0.5230   -1.9520    0.0000 O   0  0  0  0  0  0  0  0  0  0  0  0
   -0.3020   -0.5230    0.0000 O   0  0  0  0  0  0  0  0  0  0  0  0
    0.8250   -0.8250    0.0000 O   0  0  0  0  0  0  0  0  0  0  0  0
    0.8250    0.0000    0.0000 P   0  0  0  0  0  0  0  0  0  0  0  0
    0.8250    0.8250    0.0000 O   0  0  0  0  0  0  0  0  0  0  0  0
    1.6500    0.0000    0.0000 O   0  0  0  0  0  0  0  0  0  0  0  0
    0.0000    0.0000    0.0000 O   0  0  0  0  0  0  0  0  0  0  0  0
   -1.4440   -1.1650    0.0000 H   0  0  0  0  0  0  0  0  0  0  0  0
    0.0380   -2.7920    0.0000 H   0  0  0  0  0  0  0  0  0  0  0  0
    1.6650    1.3100    0.0000 H   0  0  0  0  0  0  0  0  0  0  0  0
    2.1350   -0.8400    0.0000 H   0  0  0  0  0  0  0  0  0  0  0  0
  1  2  1  0  0  0  0
  1 10  1  0  0  0  0
  2  3  1  0  0  0  0
  2  4  2  0  0  0  0
  2  5  1  0  0  0  0
  3 11  1  0  0  0  0
  5  6  1  0  0  0  0
  6  7  1  0  0  0  0
  6  8  1  0  0  0  0
  6  9  2  0  0  0  0
  7 12  1  0  0  0  0
  8 13  1  0  0  0  0
M  END
>  <DRUGBANK_ID>
DB04160

>  <SECONDARY_ACCESSION_NUMBERS>
EXPT01258; DB11055

>  <COMMON_NAME>
Pyrophosphoric acid

>  <CAS_NUMBER>
2466-09-3

>  <UNII>
4E862E7GRQ

>  <SYNONYMS>
acide diphosphorique; Diphosphoric acid; Diphosphorsäure; Pyrophosphorsäure

$$$$
