
 OpenBabel10282417072D

 22 22  0  0  0  0  0  0  0  0999 V2000
   -1.0747   -1.2373    0.0000 N   0  0  0  0  0  0  0  0  0  0  0  0
   -1.7650    0.0138    0.0000 N   0  0  0  0  0  0  0  0  0  0  0  0
   -1.7810   -0.8111    0.0000 C   0  0  0  0  0  0  0  0  0  0  0  0
   -0.3362   -0.0138    0.0000 C   0  0  0  0  0  0  0  0  0  0  0  0
   -0.3522   -0.8387    0.0000 C   0  0  0  0  0  0  0  0  0  0  0  0
   -1.0426    0.4124    0.0000 C   0  0  0  0  0  0  0  0  0  0  0  0
    0.3861    0.3847    0.0000 C   0  0  0  0  0  0  0  0  0  0  0  0
    0.3861    1.2317    0.0000 O   0  0  0  0  0  0  0  0  0  0  0  0
    1.0836   -0.0138    0.0000 O   0  0  0  0  0  0  0  0  0  0  0  0
   -2.5035   -1.2096    0.0000 N   0  0  0  0  0  0  0  0  0  0  0  0
   -1.0266    1.2373    0.0000 O   0  0  0  0  0  0  0  0  0  0  0  0
    1.8060    0.3598    0.0000 C   0  0  0  0  0  0  0  0  0  0  0  0
    2.5035   -0.0637    0.0000 C   0  0  0  0  0  0  0  0  0  0  0  0
    0.5313   -1.3720    0.0000 H   0  0  0  0  0  0  0  0  0  0  0  0
   -3.3463   -0.7008    0.0000 H   0  0  0  0  0  0  0  0  0  0  0  0
   -2.5228   -2.1939    0.0000 H   0  0  0  0  0  0  0  0  0  0  0  0
   -0.2062    1.6900    0.0000 H   0  0  0  0  0  0  0  0  0  0  0  0
    1.8426    1.4292    0.0000 H   0  0  0  0  0  0  0  0  0  0  0  0
    2.7473    0.8685    0.0000 H   0  0  0  0  0  0  0  0  0  0  0  0
    2.4799   -1.1334    0.0000 H   0  0  0  0  0  0  0  0  0  0  0  0
    3.4417    0.4507    0.0000 H   0  0  0  0  0  0  0  0  0  0  0  0
    3.4181   -0.6190    0.0000 H   0  0  0  0  0  0  0  0  0  0  0  0
  3  1  2  0  0  0  0
  3  2  1  0  0  0  0
  5  1  1  0  0  0  0
  5  4  2  0  0  0  0
  5 14  1  0  0  0  0
  6  2  2  0  0  0  0
  6  4  1  0  0  0  0
  7  4  1  0  0  0  0
  8  7  2  0  0  0  0
  9  7  1  0  0  0  0
 10  3  1  0  0  0  0
 10 15  1  0  0  0  0
 10 16  1  0  0  0  0
 11  6  1  0  0  0  0
 11 17  1  0  0  0  0
 12  9  1  0  0  0  0
 12 18  1  0  0  0  0
 12 19  1  0  0  0  0
 13 12  1  0  0  0  0
 13 20  1  0  0  0  0
 13 21  1  0  0  0  0
 13 22  1  0  0  0  0
M  END
>  <DRUGBANK_ID>
DB06906

>  <COMMON_NAME>
ethyl 2-amino-4-hydroxypyrimidine-5-carboxylate

>  <CAS_NUMBER>
15400-53-0

$$$$
