
 OpenBabel10282417072D

 95 97  0  0  0  0  0  0  0  0999 V2000
    2.6740    2.1349    0.0000 C   0  0  2  0  0  0  0  0  0  0  0  0
    2.0065    2.6198    0.0000 O   0  0  0  0  0  0  0  0  0  0  0  0
    2.4190    1.3503    0.0000 C   0  0  1  0  0  0  0  0  0  0  0  0
    1.3390    2.1349    0.0000 C   0  0  1  0  0  0  0  0  0  0  0  0
    1.5940    1.3503    0.0000 C   0  0  1  0  0  0  0  0  0  0  0  0
    2.9040    0.6828    0.0000 O   0  0  0  0  0  0  0  0  0  0  0  0
   -4.0717   -1.9060    0.0000 C   0  0  0  0  0  0  0  0  0  0  0  0
   -3.3289   -2.3185    0.0000 C   0  0  0  0  0  0  0  0  0  0  0  0
   -4.7862   -2.3185    0.0000 N   0  0  0  0  0  0  0  0  0  0  0  0
   -5.5006   -1.9060    0.0000 C   0  0  0  0  0  0  0  0  0  0  0  0
   -6.2151   -2.3185    0.0000 O   0  0  0  0  0  0  0  0  0  0  0  0
   -4.7578   -0.6685    0.0000 C   0  0  0  0  0  0  0  0  0  0  0  0
   -5.5006   -1.0810    0.0000 C   0  0  0  0  0  0  0  0  0  0  0  0
   -4.7578    0.1564    0.0000 N   0  0  0  0  0  0  0  0  0  0  0  0
   -6.1867    0.1564    0.0000 O   0  0  0  0  0  0  0  0  0  0  0  0
   -5.4723    0.5690    0.0000 C   0  0  0  0  0  0  0  0  0  0  0  0
   -4.0433    1.3940    0.0000 C   0  0  0  0  0  0  0  0  0  0  0  0
   -5.1703    2.5209    0.0000 C   0  0  0  0  0  0  0  0  0  0  0  0
   -4.7578    1.8065    0.0000 C   0  0  0  0  0  0  0  0  0  0  0  0
   -4.3453    2.5209    0.0000 C   0  0  0  0  0  0  0  0  0  0  0  0
   -5.4723    1.3940    0.0000 C   0  0  1  0  0  0  0  0  0  0  0  0
   -6.1868    1.8065    0.0000 O   0  0  0  0  0  0  0  0  0  0  0  0
   -3.3289    1.8065    0.0000 O   0  0  0  0  0  0  0  0  0  0  0  0
   -1.6789    1.8065    0.0000 O   0  0  0  0  0  0  0  0  0  0  0  0
   -0.0288    1.8065    0.0000 O   0  0  0  0  0  0  0  0  0  0  0  0
   -2.5039    2.6315    0.0000 O   0  0  0  0  0  0  0  0  0  0  0  0
   -2.5039    0.9815    0.0000 O   0  0  0  0  0  0  0  0  0  0  0  0
   -0.8539    2.6315    0.0000 O   0  0  0  0  0  0  0  0  0  0  0  0
   -0.8539    0.9815    0.0000 O   0  0  0  0  0  0  0  0  0  0  0  0
   -2.5039    1.8065    0.0000 P   0  0  3  0  0  0  0  0  0  0  0  0
   -0.8539    1.8065    0.0000 P   0  0  3  0  0  0  0  0  0  0  0  0
    0.5544    2.3898    0.0000 C   0  0  0  0  0  0  0  0  0  0  0  0
    1.1090    0.6828    0.0000 O   0  0  0  0  0  0  0  0  0  0  0  0
    0.2840   -0.1421    0.0000 O   0  0  0  0  0  0  0  0  0  0  0  0
    1.9340   -0.1421    0.0000 O   0  0  0  0  0  0  0  0  0  0  0  0
    1.1090   -0.1421    0.0000 P   0  0  0  0  0  0  0  0  0  0  0  0
    1.1090   -0.9671    0.0000 O   0  0  0  0  0  0  0  0  0  0  0  0
    3.4585    2.3898    0.0000 N   0  0  0  0  0  0  0  0  0  0  0  0
    4.0717    1.8378    0.0000 C   0  0  0  0  0  0  0  0  0  0  0  0
    3.7941    3.1435    0.0000 C   0  0  0  0  0  0  0  0  0  0  0  0
    4.7861    2.2503    0.0000 C   0  0  0  0  0  0  0  0  0  0  0  0
    4.0717    1.0128    0.0000 N   0  0  0  0  0  0  0  0  0  0  0  0
    4.6146    3.0573    0.0000 N   0  0  0  0  0  0  0  0  0  0  0  0
    5.5006    1.8379    0.0000 C   0  0  0  0  0  0  0  0  0  0  0  0
    4.7862    0.6004    0.0000 C   0  0  0  0  0  0  0  0  0  0  0  0
    5.5006    1.0129    0.0000 N   0  0  0  0  0  0  0  0  0  0  0  0
    6.2150    2.2504    0.0000 N   0  0  0  0  0  0  0  0  0  0  0  0
   -2.6144   -1.9060    0.0000 S   0  0  0  0  0  0  0  0  0  0  0  0
   -1.9000   -2.3185    0.0000 C   0  0  0  0  0  0  0  0  0  0  0  0
   -1.9000   -3.1435    0.0000 O   0  0  0  0  0  0  0  0  0  0  0  0
   -0.4709   -3.1435    0.0000 O   0  0  0  0  0  0  0  0  0  0  0  0
   -0.4709   -2.3185    0.0000 C   0  0  0  0  0  0  0  0  0  0  0  0
    0.2434   -1.9060    0.0000 O   0  0  0  0  0  0  0  0  0  0  0  0
   -1.1855   -1.9060    0.0000 C   0  0  1  0  0  0  0  0  0  0  0  0
   -1.1855   -1.0810    0.0000 C   0  0  0  0  0  0  0  0  0  0  0  0
    2.8413    3.1917    0.0000 H   0  0  0  0  0  0  0  0  0  0  0  0
    3.4758    1.5177    0.0000 H   0  0  0  0  0  0  0  0  0  0  0  0
    1.1716    3.1917    0.0000 H   0  0  0  0  0  0  0  0  0  0  0  0
    2.0798    0.3969    0.0000 H   0  0  0  0  0  0  0  0  0  0  0  0
    2.5095   -0.2034    0.0000 H   0  0  0  0  0  0  0  0  0  0  0  0
   -4.0806   -0.8360    0.0000 H   0  0  0  0  0  0  0  0  0  0  0  0
   -3.1518   -1.3595    0.0000 H   0  0  0  0  0  0  0  0  0  0  0  0
   -3.3200   -3.3885    0.0000 H   0  0  0  0  0  0  0  0  0  0  0  0
   -2.4000   -2.8496    0.0000 H   0  0  0  0  0  0  0  0  0  0  0  0
   -4.7862   -3.3030    0.0000 H   0  0  0  0  0  0  0  0  0  0  0  0
   -3.8356   -1.2112    0.0000 H   0  0  0  0  0  0  0  0  0  0  0  0
   -4.7712   -1.7384    0.0000 H   0  0  0  0  0  0  0  0  0  0  0  0
   -6.4228   -0.5383    0.0000 H   0  0  0  0  0  0  0  0  0  0  0  0
   -5.4872   -0.0111    0.0000 H   0  0  0  0  0  0  0  0  0  0  0  0
   -3.9052    0.6486    0.0000 H   0  0  0  0  0  0  0  0  0  0  0  0
   -4.0433    0.3240    0.0000 H   0  0  0  0  0  0  0  0  0  0  0  0
   -3.1166    0.8590    0.0000 H   0  0  0  0  0  0  0  0  0  0  0  0
   -4.6353    3.4476    0.0000 H   0  0  0  0  0  0  0  0  0  0  0  0
   -6.2403    2.5209    0.0000 H   0  0  0  0  0  0  0  0  0  0  0  0
   -5.7053    3.4475    0.0000 H   0  0  0  0  0  0  0  0  0  0  0  0
   -3.2753    2.5209    0.0000 H   0  0  0  0  0  0  0  0  0  0  0  0
   -4.8803    3.4476    0.0000 H   0  0  0  0  0  0  0  0  0  0  0  0
   -3.8103    3.4475    0.0000 H   0  0  0  0  0  0  0  0  0  0  0  0
   -6.3989    0.8590    0.0000 H   0  0  0  0  0  0  0  0  0  0  0  0
   -6.1868    2.7765    0.0000 H   0  0  0  0  0  0  0  0  0  0  0  0
   -3.3439    0.4965    0.0000 H   0  0  0  0  0  0  0  0  0  0  0  0
   -1.6939    0.4965    0.0000 H   0  0  0  0  0  0  0  0  0  0  0  0
    0.3045    3.4302    0.0000 H   0  0  0  0  0  0  0  0  0  0  0  0
   -0.4754    2.6802    0.0000 H   0  0  0  0  0  0  0  0  0  0  0  0
   -0.2010    0.6979    0.0000 H   0  0  0  0  0  0  0  0  0  0  0  0
    2.4190   -0.9821    0.0000 H   0  0  0  0  0  0  0  0  0  0  0  0
    3.2781    4.0372    0.0000 H   0  0  0  0  0  0  0  0  0  0  0  0
    4.7863   -0.4316    0.0000 H   0  0  0  0  0  0  0  0  0  0  0  0
    7.0676    1.7582    0.0000 H   0  0  0  0  0  0  0  0  0  0  0  0
    6.2150    3.2349    0.0000 H   0  0  0  0  0  0  0  0  0  0  0  0
    1.0549   -2.3744    0.0000 H   0  0  0  0  0  0  0  0  0  0  0  0
   -2.1121   -1.3710    0.0000 H   0  0  0  0  0  0  0  0  0  0  0  0
   -0.2589   -0.5460    0.0000 H   0  0  0  0  0  0  0  0  0  0  0  0
   -2.1121   -0.5460    0.0000 H   0  0  0  0  0  0  0  0  0  0  0  0
   -1.1855   -0.0110    0.0000 H   0  0  0  0  0  0  0  0  0  0  0  0
  1 38  1  0  0  0  0
  1 56  1  6  0  0  0
  2  1  1  0  0  0  0
  3  1  1  0  0  0  0
  3  6  1  0  0  0  0
  3 57  1  1  0  0  0
  4  2  1  0  0  0  0
  4 32  1  0  0  0  0
  4 58  1  6  0  0  0
  5  3  1  0  0  0  0
  5  4  1  0  0  0  0
  5 33  1  0  0  0  0
  5 59  1  1  0  0  0
  6 60  1  0  0  0  0
  7  8  1  0  0  0  0
  7 61  1  0  0  0  0
  7 62  1  0  0  0  0
  8 48  1  0  0  0  0
  8 63  1  0  0  0  0
  8 64  1  0  0  0  0
  9  7  1  0  0  0  0
  9 65  1  0  0  0  0
 10  9  1  0  0  0  0
 10 11  2  0  0  0  0
 12 14  1  0  0  0  0
 12 66  1  0  0  0  0
 12 67  1  0  0  0  0
 13 10  1  0  0  0  0
 13 12  1  0  0  0  0
 13 68  1  0  0  0  0
 13 69  1  0  0  0  0
 14 70  1  0  0  0  0
 16 14  1  0  0  0  0
 16 15  2  0  0  0  0
 16 21  1  0  0  0  0
 17 23  1  0  0  0  0
 17 71  1  0  0  0  0
 17 72  1  0  0  0  0
 18 73  1  0  0  0  0
 18 74  1  0  0  0  0
 18 75  1  0  0  0  0
 19 17  1  0  0  0  0
 19 18  1  0  0  0  0
 19 20  1  0  0  0  0
 20 76  1  0  0  0  0
 20 77  1  0  0  0  0
 20 78  1  0  0  0  0
 21 19  1  0  0  0  0
 21 22  1  0  0  0  0
 21 79  1  1  0  0  0
 22 80  1  0  0  0  0
 23 30  1  0  0  0  0
 24 31  1  0  0  0  0
 27 81  1  0  0  0  0
 29 82  1  0  0  0  0
 30 24  1  0  0  0  0
 30 26  2  0  0  0  0
 30 27  1  0  0  0  0
 31 25  1  0  0  0  0
 31 28  2  0  0  0  0
 31 29  1  0  0  0  0
 32 25  1  0  0  0  0
 32 83  1  0  0  0  0
 32 84  1  0  0  0  0
 33 36  1  0  0  0  0
 34 85  1  0  0  0  0
 35 86  1  0  0  0  0
 36 34  1  0  0  0  0
 36 35  1  0  0  0  0
 36 37  2  0  0  0  0
 39 38  1  0  0  0  0
 40 38  1  0  0  0  0
 40 87  1  0  0  0  0
 41 39  2  0  0  0  0
 42 39  1  0  0  0  0
 43 40  2  0  0  0  0
 43 41  1  0  0  0  0
 44 41  1  0  0  0  0
 45 42  2  0  0  0  0
 45 88  1  0  0  0  0
 46 44  2  0  0  0  0
 46 45  1  0  0  0  0
 47 44  1  0  0  0  0
 47 89  1  0  0  0  0
 47 90  1  0  0  0  0
 48 49  1  0  0  0  0
 49 54  1  0  0  0  0
 49 50  2  0  0  0  0
 52 51  2  0  0  0  0
 52 53  1  0  0  0  0
 53 91  1  0  0  0  0
 54 52  1  0  0  0  0
 54 55  1  0  0  0  0
 54 92  1  1  0  0  0
 55 93  1  0  0  0  0
 55 94  1  0  0  0  0
 55 95  1  0  0  0  0
M  END
>  <DRUGBANK_ID>
DB04045

>  <SECONDARY_ACCESSION_NUMBERS>
EXPT02132

>  <COMMON_NAME>
(R)-methylmalonyl-CoA

>  <SYNONYMS>
(R)-2-Methyl-3-oxopropanoyl-CoA; (R)-2-Methyl-3-oxopropionyl-CoA; (R)-3-Oxo-2-methylpropanoyl-CoA; Methylmalonyl-coenzyme A

$$$$
