
 OpenBabel10282417072D

 66 70  0  0  0  0  0  0  0  0999 V2000
   18.6037  -16.6649    0.0000 N   0  0  0  0  0  0  0  0  0  0  0  0
   18.6037  -17.4899    0.0000 C   0  0  0  0  0  0  0  0  0  0  0  0
   19.3049  -17.9024    0.0000 C   0  0  0  0  0  0  0  0  0  0  0  0
   20.0474  -17.4899    0.0000 N   0  0  0  0  0  0  0  0  0  0  0  0
   20.0474  -16.6649    0.0000 C   0  0  0  0  0  0  0  0  0  0  0  0
   19.3049  -16.2524    0.0000 C   0  0  0  0  0  0  0  0  0  0  0  0
   20.7487  -17.9024    0.0000 C   0  0  0  0  0  0  0  0  0  0  0  0
   17.8875  -16.2553    0.0000 C   0  0  0  0  0  0  0  0  0  0  0  0
   17.1872  -16.6636    0.0000 C   0  0  0  0  0  0  0  0  0  0  0  0
   16.4822  -16.2604    0.0000 C   0  0  0  0  0  0  0  0  0  0  0  0
   15.7694  -16.6758    0.0000 C   0  0  0  0  0  0  0  0  0  0  0  0
   15.7728  -17.5008    0.0000 C   0  0  0  0  0  0  0  0  0  0  0  0
   16.4777  -17.9040    0.0000 C   0  0  0  0  0  0  0  0  0  0  0  0
   17.1905  -17.4886    0.0000 C   0  0  0  0  0  0  0  0  0  0  0  0
   16.5199  -15.4277    0.0000 C   0  0  0  0  0  0  0  0  0  0  0  0
   16.5199  -14.6027    0.0000 F   0  0  0  0  0  0  0  0  0  0  0  0
   15.6949  -15.4277    0.0000 F   0  0  0  0  0  0  0  0  0  0  0  0
   17.3449  -15.4277    0.0000 F   0  0  0  0  0  0  0  0  0  0  0  0
   15.0535  -17.9201    0.0000 N   0  0  0  0  0  0  0  0  0  0  0  0
   14.3318  -17.5077    0.0000 C   0  0  0  0  0  0  0  0  0  0  0  0
   13.6137  -17.9266    0.0000 C   0  0  0  0  0  0  0  0  0  0  0  0
   14.3284  -16.6650    0.0000 O   0  0  0  0  0  0  0  0  0  0  0  0
   12.9038  -17.5213    0.0000 C   0  0  0  0  0  0  0  0  0  0  0  0
   12.1913  -17.9372    0.0000 C   0  0  0  0  0  0  0  0  0  0  0  0
   12.1953  -18.7622    0.0000 C   0  0  0  0  0  0  0  0  0  0  0  0
   12.9052  -19.1676    0.0000 C   0  0  0  0  0  0  0  0  0  0  0  0
   13.6177  -18.7516    0.0000 C   0  0  0  0  0  0  0  0  0  0  0  0
   11.4911  -19.1735    0.0000 C   0  0  0  0  0  0  0  0  0  0  0  0
   11.4918  -17.5377    0.0000 C   0  0  0  0  0  0  0  0  0  0  0  0
   10.7773  -17.1252    0.0000 C   0  0  0  0  0  0  0  0  0  0  0  0
   10.0628  -16.7127    0.0000 C   0  0  0  0  0  0  0  0  0  0  0  0
   10.0501  -15.8813    0.0000 C   0  0  0  0  0  0  0  0  0  0  0  0
    9.2559  -15.6360    0.0000 N   0  0  0  0  0  0  0  0  0  0  0  0
    8.7771  -16.3156    0.0000 C   0  0  0  0  0  0  0  0  0  0  0  0
    9.2756  -16.9809    0.0000 N   0  0  0  0  0  0  0  0  0  0  0  0
    7.9580  -16.4138    0.0000 C   0  0  0  0  0  0  0  0  0  0  0  0
    7.6335  -17.1724    0.0000 C   0  0  0  0  0  0  0  0  0  0  0  0
    8.1319  -17.8376    0.0000 C   0  0  0  0  0  0  0  0  0  0  0  0
    8.9510  -17.7394    0.0000 N   0  0  0  0  0  0  0  0  0  0  0  0
   17.6749  -18.0211    0.0000 H   0  0  0  0  0  0  0  0  0  0  0  0
   18.5972  -18.5599    0.0000 H   0  0  0  0  0  0  0  0  0  0  0  0
   19.2917  -18.9723    0.0000 H   0  0  0  0  0  0  0  0  0  0  0  0
   20.2237  -18.4507    0.0000 H   0  0  0  0  0  0  0  0  0  0  0  0
   20.9696  -16.1223    0.0000 H   0  0  0  0  0  0  0  0  0  0  0  0
   20.0342  -15.5950    0.0000 H   0  0  0  0  0  0  0  0  0  0  0  0
   19.2917  -15.1825    0.0000 H   0  0  0  0  0  0  0  0  0  0  0  0
   18.3728  -15.7269    0.0000 H   0  0  0  0  0  0  0  0  0  0  0  0
   20.7400  -18.9724    0.0000 H   0  0  0  0  0  0  0  0  0  0  0  0
   21.6796  -17.3749    0.0000 H   0  0  0  0  0  0  0  0  0  0  0  0
   21.6710  -18.4449    0.0000 H   0  0  0  0  0  0  0  0  0  0  0  0
   17.8830  -15.1853    0.0000 H   0  0  0  0  0  0  0  0  0  0  0  0
   16.9586  -15.7242    0.0000 H   0  0  0  0  0  0  0  0  0  0  0  0
   14.8736  -16.1635    0.0000 H   0  0  0  0  0  0  0  0  0  0  0  0
   16.4819  -18.9360    0.0000 H   0  0  0  0  0  0  0  0  0  0  0  0
   18.0863  -18.0010    0.0000 H   0  0  0  0  0  0  0  0  0  0  0  0
   15.0577  -18.9046    0.0000 H   0  0  0  0  0  0  0  0  0  0  0  0
   12.8988  -16.4893    0.0000 H   0  0  0  0  0  0  0  0  0  0  0  0
   12.9102  -20.1996    0.0000 H   0  0  0  0  0  0  0  0  0  0  0  0
   14.5139  -19.2633    0.0000 H   0  0  0  0  0  0  0  0  0  0  0  0
   10.5618  -18.6432    0.0000 H   0  0  0  0  0  0  0  0  0  0  0  0
   11.4965  -20.2435    0.0000 H   0  0  0  0  0  0  0  0  0  0  0  0
   10.5672  -19.7131    0.0000 H   0  0  0  0  0  0  0  0  0  0  0  0
   10.8759  -15.2623    0.0000 H   0  0  0  0  0  0  0  0  0  0  0  0
    7.3393  -15.5879    0.0000 H   0  0  0  0  0  0  0  0  0  0  0  0
    6.6088  -17.2953    0.0000 H   0  0  0  0  0  0  0  0  0  0  0  0
    7.7260  -18.7864    0.0000 H   0  0  0  0  0  0  0  0  0  0  0  0
  1  2  1  0  0  0  0
  1  6  1  0  0  0  0
  1  8  1  0  0  0  0
  2  3  1  0  0  0  0
  2 40  1  0  0  0  0
  2 41  1  0  0  0  0
  3  4  1  0  0  0  0
  3 42  1  0  0  0  0
  3 43  1  0  0  0  0
  4  5  1  0  0  0  0
  4  7  1  0  0  0  0
  5  6  1  0  0  0  0
  5 44  1  0  0  0  0
  5 45  1  0  0  0  0
  6 46  1  0  0  0  0
  6 47  1  0  0  0  0
  7 48  1  0  0  0  0
  7 49  1  0  0  0  0
  7 50  1  0  0  0  0
  8  9  1  0  0  0  0
  8 51  1  0  0  0  0
  8 52  1  0  0  0  0
  9 10  1  0  0  0  0
  9 14  2  0  0  0  0
 10 11  2  0  0  0  0
 10 15  1  0  0  0  0
 11 12  1  0  0  0  0
 11 53  1  0  0  0  0
 12 13  2  0  0  0  0
 12 19  1  0  0  0  0
 13 14  1  0  0  0  0
 13 54  1  0  0  0  0
 14 55  1  0  0  0  0
 15 16  1  0  0  0  0
 15 17  1  0  0  0  0
 15 18  1  0  0  0  0
 19 20  1  0  0  0  0
 19 56  1  0  0  0  0
 20 21  1  0  0  0  0
 20 22  2  0  0  0  0
 21 23  2  0  0  0  0
 21 27  1  0  0  0  0
 23 24  1  0  0  0  0
 23 57  1  0  0  0  0
 24 25  2  0  0  0  0
 24 29  1  0  0  0  0
 25 26  1  0  0  0  0
 25 28  1  0  0  0  0
 26 27  2  0  0  0  0
 26 58  1  0  0  0  0
 27 59  1  0  0  0  0
 28 60  1  0  0  0  0
 28 61  1  0  0  0  0
 28 62  1  0  0  0  0
 29 30  3  0  0  0  0
 30 31  1  0  0  0  0
 31 32  2  0  0  0  0
 31 35  1  0  0  0  0
 32 33  1  0  0  0  0
 32 63  1  0  0  0  0
 33 34  2  0  0  0  0
 34 35  1  0  0  0  0
 34 36  1  0  0  0  0
 35 39  1  0  0  0  0
 36 37  2  0  0  0  0
 36 64  1  0  0  0  0
 37 38  1  0  0  0  0
 37 65  1  0  0  0  0
 38 39  2  0  0  0  0
 38 66  1  0  0  0  0
M  END
>  <DRUGBANK_ID>
DB08901

>  <SECONDARY_ACCESSION_NUMBERS>
DB06300

>  <COMMON_NAME>
Ponatinib

>  <CAS_NUMBER>
943319-70-8

>  <UNII>
4340891KFS

>  <SYNONYMS>
Ponatinib; Ponatinibum

$$$$
