
 OpenBabel10282417072D

 57 61  0  0  0  0  0  0  0  0999 V2000
    1.6500   -0.3414    0.0000 Cl  0  0  0  0  0  0  0  0  0  0  0  0
    5.5992   -4.9670    0.0000 F   0  0  0  0  0  0  0  0  0  0  0  0
    8.1145    3.3560    0.0000 O   0  0  0  0  0  0  0  0  0  0  0  0
    5.3430    1.8501    0.0000 N   0  0  0  0  0  0  0  0  0  0  0  0
    4.5741   -1.8304    0.0000 N   0  0  0  0  0  0  0  0  0  0  0  0
    6.6628    3.5885    0.0000 N   0  0  0  0  0  0  0  0  0  0  0  0
    7.4493    4.6672    0.0000 N   0  0  0  0  0  0  0  0  0  0  0  0
    4.8304    0.2817    0.0000 C   0  0  0  0  0  0  0  0  0  0  0  0
    4.2794    0.8957    0.0000 C   0  0  0  0  0  0  0  0  0  0  0  0
    5.6377    0.4518    0.0000 C   0  0  0  0  0  0  0  0  0  0  0  0
    4.5357    1.6799    0.0000 C   0  0  0  0  0  0  0  0  0  0  0  0
    5.8939    1.2360    0.0000 C   0  0  0  0  0  0  0  0  0  0  0  0
    4.5741   -0.5025    0.0000 C   0  0  0  0  0  0  0  0  0  0  0  0
    5.5992    2.6343    0.0000 C   0  0  0  0  0  0  0  0  0  0  0  0
    3.7935   -0.7539    0.0000 C   0  0  0  0  0  0  0  0  0  0  0  0
    6.4066    2.8044    0.0000 C   0  0  0  0  0  0  0  0  0  0  0  0
    5.0556   -1.1664    0.0000 C   0  0  0  0  0  0  0  0  0  0  0  0
    3.7935   -1.5789    0.0000 C   0  0  0  0  0  0  0  0  0  0  0  0
    6.1791    4.2569    0.0000 C   0  0  0  0  0  0  0  0  0  0  0  0
    3.0790   -0.3414    0.0000 C   0  0  0  0  0  0  0  0  0  0  0  0
    6.6652    4.9235    0.0000 C   0  0  0  0  0  0  0  0  0  0  0  0
    3.0790   -1.9914    0.0000 C   0  0  0  0  0  0  0  0  0  0  0  0
    4.8304   -2.6145    0.0000 C   0  0  0  0  0  0  0  0  0  0  0  0
    7.4479    3.8421    0.0000 C   0  0  0  0  0  0  0  0  0  0  0  0
    2.3645   -0.7539    0.0000 C   0  0  0  0  0  0  0  0  0  0  0  0
    2.3645   -1.5789    0.0000 C   0  0  0  0  0  0  0  0  0  0  0  0
    5.6377   -2.7846    0.0000 C   0  0  0  0  0  0  0  0  0  0  0  0
    4.2794   -3.2286    0.0000 C   0  0  0  0  0  0  0  0  0  0  0  0
    5.8939   -3.5688    0.0000 C   0  0  0  0  0  0  0  0  0  0  0  0
    4.5357   -4.0128    0.0000 C   0  0  0  0  0  0  0  0  0  0  0  0
    5.3430   -4.1829    0.0000 C   0  0  0  0  0  0  0  0  0  0  0  0
    8.2468    5.2445    0.0000 H   0  0  0  0  0  0  0  0  0  0  0  0
    5.5450   -0.5147    0.0000 H   0  0  0  0  0  0  0  0  0  0  0  0
    3.2324    0.6750    0.0000 H   0  0  0  0  0  0  0  0  0  0  0  0
    3.5648    1.6921    0.0000 H   0  0  0  0  0  0  0  0  0  0  0  0
    6.3523   -0.3446    0.0000 H   0  0  0  0  0  0  0  0  0  0  0  0
    6.6847    0.6725    0.0000 H   0  0  0  0  0  0  0  0  0  0  0  0
    3.8211    2.4763    0.0000 H   0  0  0  0  0  0  0  0  0  0  0  0
    3.4887    1.4592    0.0000 H   0  0  0  0  0  0  0  0  0  0  0  0
    6.9409    1.4567    0.0000 H   0  0  0  0  0  0  0  0  0  0  0  0
    6.6085    0.4396    0.0000 H   0  0  0  0  0  0  0  0  0  0  0  0
    4.8846    3.4307    0.0000 H   0  0  0  0  0  0  0  0  0  0  0  0
    5.9316    3.6513    0.0000 H   0  0  0  0  0  0  0  0  0  0  0  0
    7.1212    2.0080    0.0000 H   0  0  0  0  0  0  0  0  0  0  0  0
    6.0742    1.7874    0.0000 H   0  0  0  0  0  0  0  0  0  0  0  0
    6.0876   -1.1664    0.0000 H   0  0  0  0  0  0  0  0  0  0  0  0
    5.1091    4.2588    0.0000 H   0  0  0  0  0  0  0  0  0  0  0  0
    5.6950    5.2111    0.0000 H   0  0  0  0  0  0  0  0  0  0  0  0
    3.0790    0.6906    0.0000 H   0  0  0  0  0  0  0  0  0  0  0  0
    6.3363    5.9417    0.0000 H   0  0  0  0  0  0  0  0  0  0  0  0
    5.6087    5.0927    0.0000 H   0  0  0  0  0  0  0  0  0  0  0  0
    3.0790   -3.0234    0.0000 H   0  0  0  0  0  0  0  0  0  0  0  0
    1.4708   -2.0949    0.0000 H   0  0  0  0  0  0  0  0  0  0  0  0
    6.3269   -2.0165    0.0000 H   0  0  0  0  0  0  0  0  0  0  0  0
    3.2696   -3.0158    0.0000 H   0  0  0  0  0  0  0  0  0  0  0  0
    6.9037   -3.7816    0.0000 H   0  0  0  0  0  0  0  0  0  0  0  0
    3.8465   -4.7809    0.0000 H   0  0  0  0  0  0  0  0  0  0  0  0
  1 25  1  0  0  0  0
  2 31  1  0  0  0  0
  3 24  2  0  0  0  0
  4 11  1  0  0  0  0
  4 12  1  0  0  0  0
  4 14  1  0  0  0  0
  5 17  1  0  0  0  0
  5 18  1  0  0  0  0
  5 23  1  0  0  0  0
  6 16  1  0  0  0  0
  6 19  1  0  0  0  0
  6 24  1  0  0  0  0
  7 21  1  0  0  0  0
  7 24  1  0  0  0  0
  7 32  1  0  0  0  0
  8  9  1  0  0  0  0
  8 10  1  0  0  0  0
  8 13  1  0  0  0  0
  8 33  1  0  0  0  0
  9 11  1  0  0  0  0
  9 34  1  0  0  0  0
  9 35  1  0  0  0  0
 10 12  1  0  0  0  0
 10 36  1  0  0  0  0
 10 37  1  0  0  0  0
 11 38  1  0  0  0  0
 11 39  1  0  0  0  0
 12 40  1  0  0  0  0
 12 41  1  0  0  0  0
 13 15  1  0  0  0  0
 13 17  2  0  0  0  0
 14 16  1  0  0  0  0
 14 42  1  0  0  0  0
 14 43  1  0  0  0  0
 15 18  2  0  0  0  0
 15 20  1  0  0  0  0
 16 44  1  0  0  0  0
 16 45  1  0  0  0  0
 17 46  1  0  0  0  0
 18 22  1  0  0  0  0
 19 21  1  0  0  0  0
 19 47  1  0  0  0  0
 19 48  1  0  0  0  0
 20 25  2  0  0  0  0
 20 49  1  0  0  0  0
 21 50  1  0  0  0  0
 21 51  1  0  0  0  0
 22 26  2  0  0  0  0
 22 52  1  0  0  0  0
 23 27  2  0  0  0  0
 23 28  1  0  0  0  0
 25 26  1  0  0  0  0
 26 53  1  0  0  0  0
 27 29  1  0  0  0  0
 27 54  1  0  0  0  0
 28 30  2  0  0  0  0
 28 55  1  0  0  0  0
 29 31  2  0  0  0  0
 29 56  1  0  0  0  0
 30 31  1  0  0  0  0
 30 57  1  0  0  0  0
M  END
>  <DRUGBANK_ID>
DB06144

>  <COMMON_NAME>
Sertindole

>  <CAS_NUMBER>
106516-24-9

>  <UNII>
GVV4Z879SP

>  <SYNONYMS>
1-[2-[4-[5-chloro-1-(4-fluorophenyl)-indol-3-yl]-1-piperidyl]ethyl]imidazolidin-2-one; Sertindol; Sertindole; Sertindolum

$$$$
