448
 OpenBabel10282417072D

 46 48  0  0  0  0  0  0  0  0999 V2000
   -4.9182   -1.2531    0.0000 F   0  0  0  0  0  0  0  0  0  0  0  0
   -4.2037   -0.8406    0.0000 C   0  0  0  0  0  0  0  0  0  0  0  0
   -3.4892   -1.2531    0.0000 C   0  0  0  0  0  0  0  0  0  0  0  0
   -2.7748   -0.8406    0.0000 C   0  0  0  0  0  0  0  0  0  0  0  0
   -2.0603   -1.2531    0.0000 F   0  0  0  0  0  0  0  0  0  0  0  0
   -4.2037   -0.0156    0.0000 C   0  0  0  0  0  0  0  0  0  0  0  0
   -4.9182    0.3969    0.0000 F   0  0  0  0  0  0  0  0  0  0  0  0
   -3.4892    0.3969    0.0000 C   0  0  0  0  0  0  0  0  0  0  0  0
   -2.7748   -0.0156    0.0000 C   0  0  0  0  0  0  0  0  0  0  0  0
   -2.0603    0.3969    0.0000 C   0  0  0  0  0  0  0  0  0  0  0  0
   -1.3458   -0.0156    0.0000 C   0  0  1  0  0  0  0  0  0  0  0  0
   -1.3458   -0.8406    0.0000 N   0  0  0  0  0  0  0  0  0  0  0  0
   -0.6314    0.3969    0.0000 C   0  0  0  0  0  0  0  0  0  0  0  0
    0.0831   -0.0156    0.0000 C   0  0  0  0  0  0  0  0  0  0  0  0
    0.0831   -0.8406    0.0000 O   0  0  0  0  0  0  0  0  0  0  0  0
    0.7976    0.3969    0.0000 N   0  0  0  0  0  0  0  0  0  0  0  0
    0.7976    1.2219    0.0000 C   0  0  0  0  0  0  0  0  0  0  0  0
    1.5121    1.6344    0.0000 C   0  0  0  0  0  0  0  0  0  0  0  0
    1.5121   -0.0156    0.0000 C   0  0  2  0  0  0  0  0  0  0  0  0
    1.5121   -0.8406    0.0000 C   0  0  0  0  0  0  0  0  0  0  0  0
    2.2265    0.3969    0.0000 C   0  0  0  0  0  0  0  0  0  0  0  0
    2.2265    1.2219    0.0000 N   0  0  0  0  0  0  0  0  0  0  0  0
    3.0112    1.4768    0.0000 N   0  0  0  0  0  0  0  0  0  0  0  0
    3.0112    0.1420    0.0000 N   0  0  0  0  0  0  0  0  0  0  0  0
    3.4961    0.8094    0.0000 C   0  0  0  0  0  0  0  0  0  0  0  0
    4.3211    0.8094    0.0000 C   0  0  0  0  0  0  0  0  0  0  0  0
    5.1461    0.8094    0.0000 F   0  0  0  0  0  0  0  0  0  0  0  0
    4.3211   -0.0156    0.0000 F   0  0  0  0  0  0  0  0  0  0  0  0
    4.3211    1.6344    0.0000 F   0  0  0  0  0  0  0  0  0  0  0  0
   -1.8515   -0.3076    0.0000 H   0  0  0  0  0  0  0  0  0  0  0  0
    1.0064   -0.3076    0.0000 H   0  0  0  0  0  0  0  0  0  0  0  0
   -3.4892   -2.2851    0.0000 H   0  0  0  0  0  0  0  0  0  0  0  0
   -3.4892    1.4289    0.0000 H   0  0  0  0  0  0  0  0  0  0  0  0
   -2.0603    1.4669    0.0000 H   0  0  0  0  0  0  0  0  0  0  0  0
   -1.1337    0.9319    0.0000 H   0  0  0  0  0  0  0  0  0  0  0  0
   -2.2291   -1.3506    0.0000 H   0  0  0  0  0  0  0  0  0  0  0  0
   -0.4625   -1.3506    0.0000 H   0  0  0  0  0  0  0  0  0  0  0  0
   -0.6314    1.4669    0.0000 H   0  0  0  0  0  0  0  0  0  0  0  0
    0.2952    0.9319    0.0000 H   0  0  0  0  0  0  0  0  0  0  0  0
   -0.1290    1.7569    0.0000 H   0  0  0  0  0  0  0  0  0  0  0  0
    0.7976    2.2919    0.0000 H   0  0  0  0  0  0  0  0  0  0  0  0
    1.5121    2.7044    0.0000 H   0  0  0  0  0  0  0  0  0  0  0  0
    2.4388    2.1694    0.0000 H   0  0  0  0  0  0  0  0  0  0  0  0
    0.5855   -1.3756    0.0000 H   0  0  0  0  0  0  0  0  0  0  0  0
    2.4387   -1.3756    0.0000 H   0  0  0  0  0  0  0  0  0  0  0  0
    1.5121   -1.9106    0.0000 H   0  0  0  0  0  0  0  0  0  0  0  0
  1  2  1  0  0  0  0
  2  6  1  0  0  0  0
  2  3  2  0  0  0  0
  3  4  1  0  0  0  0
  3 32  1  0  0  0  0
  4  9  2  0  0  0  0
  4  5  1  0  0  0  0
  6  7  1  0  0  0  0
  6  8  2  0  0  0  0
  8  9  1  0  0  0  0
  8 33  1  0  0  0  0
  9 10  1  0  0  0  0
 10 11  1  0  0  0  0
 10 34  1  0  0  0  0
 10 35  1  0  0  0  0
 11 12  1  0  0  0  0
 11 13  1  0  0  0  0
 11 30  1  1  0  0  0
 12 36  1  0  0  0  0
 12 37  1  0  0  0  0
 13 14  1  0  0  0  0
 13 38  1  0  0  0  0
 13 39  1  0  0  0  0
 14 15  2  0  0  0  0
 14 16  1  0  0  0  0
 16 17  1  0  0  0  0
 16 19  1  0  0  0  0
 17 18  1  0  0  0  0
 17 40  1  0  0  0  0
 17 41  1  0  0  0  0
 18 22  1  0  0  0  0
 18 42  1  0  0  0  0
 18 43  1  0  0  0  0
 19 21  1  0  0  0  0
 19 20  1  0  0  0  0
 19 31  1  6  0  0  0
 20 44  1  0  0  0  0
 20 45  1  0  0  0  0
 20 46  1  0  0  0  0
 21 22  1  0  0  0  0
 21 24  2  0  0  0  0
 22 23  1  0  0  0  0
 23 25  2  0  0  0  0
 24 25  1  0  0  0  0
 25 26  1  0  0  0  0
 26 28  1  0  0  0  0
 26 29  1  0  0  0  0
 26 27  1  0  0  0  0
M  END
>  <DRUGBANK_ID>
DB07081

>  <COMMON_NAME>
(2R)-4-[(8R)-8-METHYL-2-(TRIFLUOROMETHYL)-5,6-DIHYDRO[1,2,4]TRIAZOLO[1,5-A]PYRAZIN-7(8H)-YL]-4-OXO-1-(2,4,5-TRIFLUOROPHENYL)BUTAN-2-AMINE

$$$$
