PNC
 OpenBabel10282417072D

 40 40  0  0  0  0  0  0  0  0999 V2000
   -2.4602    0.0683    0.0000 C   0  0  0  0  0  0  0  0  0  0  0  0
   -2.4602   -0.7567    0.0000 C   0  0  0  0  0  0  0  0  0  0  0  0
   -3.1747   -1.1692    0.0000 C   0  0  0  0  0  0  0  0  0  0  0  0
   -3.8892   -0.7567    0.0000 C   0  0  0  0  0  0  0  0  0  0  0  0
   -3.8892    0.0683    0.0000 C   0  0  0  0  0  0  0  0  0  0  0  0
   -3.1747    0.4808    0.0000 C   0  0  0  0  0  0  0  0  0  0  0  0
   -1.7457    0.4808    0.0000 C   0  0  0  0  0  0  0  0  0  0  0  0
    0.3977    0.0683    0.0000 C   0  0  0  0  0  0  0  0  0  0  0  0
    1.1121    0.4808    0.0000 C   0  0  0  0  0  0  0  0  0  0  0  0
    1.8266    0.0683    0.0000 C   0  0  0  0  0  0  0  0  0  0  0  0
    2.5411    0.4808    0.0000 C   0  0  0  0  0  0  0  0  0  0  0  0
    3.9700    0.4808    0.0000 C   0  0  0  0  0  0  0  0  0  0  0  0
    4.6845    0.0683    0.0000 C   0  0  0  0  0  0  0  0  0  0  0  0
   -0.3168    0.4808    0.0000 C   0  0  0  0  0  0  0  0  0  0  0  0
   -4.6036   -1.1692    0.0000 N   0  3  0  0  0  0  0  0  0  0  0  0
    3.2556    0.0683    0.0000 N   0  0  0  0  0  0  0  0  0  0  0  0
   -1.0313    0.0683    0.0000 N   0  0  0  0  0  0  0  0  0  0  0  0
   -0.3168    1.3058    0.0000 O   0  0  0  0  0  0  0  0  0  0  0  0
   -5.3181   -0.7567    0.0000 O   0  0  0  0  0  0  0  0  0  0  0  0
   -4.6036   -1.9942    0.0000 O   0  5  0  0  0  0  0  0  0  0  0  0
    2.5411    1.3058    0.0000 O   0  0  0  0  0  0  0  0  0  0  0  0
    5.3990    0.4808    0.0000 O   0  0  0  0  0  0  0  0  0  0  0  0
    4.6845   -0.7567    0.0000 O   0  0  0  0  0  0  0  0  0  0  0  0
   -1.5665   -1.2727    0.0000 H   0  0  0  0  0  0  0  0  0  0  0  0
   -3.1747   -2.2012    0.0000 H   0  0  0  0  0  0  0  0  0  0  0  0
   -4.7829    0.5843    0.0000 H   0  0  0  0  0  0  0  0  0  0  0  0
   -3.1747    1.5128    0.0000 H   0  0  0  0  0  0  0  0  0  0  0  0
   -1.7457    1.5508    0.0000 H   0  0  0  0  0  0  0  0  0  0  0  0
   -0.8190    1.0158    0.0000 H   0  0  0  0  0  0  0  0  0  0  0  0
    0.3977   -1.0017    0.0000 H   0  0  0  0  0  0  0  0  0  0  0  0
   -0.5289   -0.4667    0.0000 H   0  0  0  0  0  0  0  0  0  0  0  0
    1.1121    1.5508    0.0000 H   0  0  0  0  0  0  0  0  0  0  0  0
    2.0387    1.0158    0.0000 H   0  0  0  0  0  0  0  0  0  0  0  0
    1.8266   -1.0017    0.0000 H   0  0  0  0  0  0  0  0  0  0  0  0
    2.7532   -0.4667    0.0000 H   0  0  0  0  0  0  0  0  0  0  0  0
    3.9700    1.5508    0.0000 H   0  0  0  0  0  0  0  0  0  0  0  0
    3.0433    1.0158    0.0000 H   0  0  0  0  0  0  0  0  0  0  0  0
    3.2556   -0.9162    0.0000 H   0  0  0  0  0  0  0  0  0  0  0  0
   -1.0313   -0.9162    0.0000 H   0  0  0  0  0  0  0  0  0  0  0  0
    3.8730   -1.2252    0.0000 H   0  0  0  0  0  0  0  0  0  0  0  0
  1  2  2  0  0  0  0
  1  6  1  0  0  0  0
  1  7  1  0  0  0  0
  2  3  1  0  0  0  0
  2 24  1  0  0  0  0
  3  4  2  0  0  0  0
  3 25  1  0  0  0  0
  4  5  1  0  0  0  0
  4 15  1  0  0  0  0
  5  6  2  0  0  0  0
  5 26  1  0  0  0  0
  6 27  1  0  0  0  0
  7 17  1  0  0  0  0
  7 28  1  0  0  0  0
  7 29  1  0  0  0  0
  8  9  1  0  0  0  0
  8 14  1  0  0  0  0
  8 30  1  0  0  0  0
  8 31  1  0  0  0  0
  9 10  1  0  0  0  0
  9 32  1  0  0  0  0
  9 33  1  0  0  0  0
 10 11  1  0  0  0  0
 10 34  1  0  0  0  0
 10 35  1  0  0  0  0
 11 16  1  0  0  0  0
 11 21  2  0  0  0  0
 12 13  1  0  0  0  0
 12 16  1  0  0  0  0
 12 36  1  0  0  0  0
 12 37  1  0  0  0  0
 13 22  2  0  0  0  0
 13 23  1  0  0  0  0
 14 17  1  0  0  0  0
 14 18  2  0  0  0  0
 15 19  2  0  0  0  0
 15 20  1  0  0  0  0
 16 38  1  0  0  0  0
 17 39  1  0  0  0  0
 23 40  1  0  0  0  0
M  CHG  2  15   1  20  -1
M  END
>  <DRUGBANK_ID>
DB08410

>  <COMMON_NAME>
PARA-NITROBENZYL GLUTARYL GLYCINIC ACID

$$$$
