
 OpenBabel10282417072D

 89 93  0  0  0  0  0  0  0  0999 V2000
   -1.3228    1.0113    0.0000 P   0  0  1  0  0  0  0  0  0  0  0  0
   -2.7441    0.8644    0.0000 P   0  0  1  0  0  0  0  0  0  0  0  0
    1.5668    1.2325    0.0000 O   0  0  0  0  0  0  0  0  0  0  0  0
   -4.8354   -0.5913    0.0000 O   0  0  0  0  0  0  0  0  0  0  0  0
    0.4686   -0.5981    0.0000 O   0  0  0  0  0  0  0  0  0  0  0  0
    2.2534   -0.7888    0.0000 O   0  0  0  0  0  0  0  0  0  0  0  0
   -5.8717    1.2750    0.0000 O   0  0  0  0  0  0  0  0  0  0  0  0
   -6.9293   -0.1752    0.0000 O   0  0  0  0  0  0  0  0  0  0  0  0
   -0.5696    0.6745    0.0000 O   0  0  0  0  0  0  0  0  0  0  0  0
   -3.4125    0.3805    0.0000 O   0  0  0  0  0  0  0  0  0  0  0  0
   -2.0759    1.3481    0.0000 O   0  0  0  0  0  0  0  0  0  0  0  0
   -0.9860    1.7644    0.0000 O   0  0  0  0  0  0  0  0  0  0  0  0
   -2.2605    0.1960    0.0000 O   0  0  0  0  0  0  0  0  0  0  0  0
   -1.6596    0.2581    0.0000 O   0  0  0  0  0  0  0  0  0  0  0  0
   -3.2280    1.5326    0.0000 O   0  0  0  0  0  0  0  0  0  0  0  0
    5.9592    0.7460    0.0000 O   0  0  0  0  0  0  0  0  0  0  0  0
    5.7029   -0.0381    0.0000 O   0  0  0  0  0  0  0  0  0  0  0  0
    5.1135    2.7582    0.0000 O   0  0  0  0  0  0  0  0  0  0  0  0
    7.7917    4.0530    0.0000 O   0  0  0  0  0  0  0  0  0  0  0  0
    8.0864    2.6546    0.0000 O   0  0  0  0  0  0  0  0  0  0  0  0
    2.9864    0.8496    0.0000 N   0  3  0  0  0  0  0  0  0  0  0  0
   -5.8767   -1.6290    0.0000 N   0  0  0  0  0  0  0  0  0  0  0  0
   -5.8767   -2.9570    0.0000 N   0  0  0  0  0  0  0  0  0  0  0  0
   -7.3719   -1.4680    0.0000 N   0  0  0  0  0  0  0  0  0  0  0  0
   -8.0864   -2.7055    0.0000 N   0  0  0  0  0  0  0  0  0  0  0  0
   -7.3719   -3.9431    0.0000 N   0  0  0  0  0  0  0  0  0  0  0  0
    4.6394   -0.9926    0.0000 N   0  0  0  0  0  0  0  0  0  0  0  0
    6.1771    3.7126    0.0000 N   0  0  0  0  0  0  0  0  0  0  0  0
    1.0218    0.0140    0.0000 C   0  0  1  0  0  0  0  0  0  0  0  0
    1.8422   -0.0735    0.0000 C   0  0  2  0  0  0  0  0  0  0  0  0
    0.8517    0.8213    0.0000 C   0  0  1  0  0  0  0  0  0  0  0  0
   -5.6182    0.4899    0.0000 C   0  0  1  0  0  0  0  0  0  0  0  0
    2.1790    0.6795    0.0000 C   0  0  1  0  0  0  0  0  0  0  0  0
   -6.1043   -0.1766    0.0000 C   0  0  2  0  0  0  0  0  0  0  0  0
   -4.8339    0.2337    0.0000 C   0  0  1  0  0  0  0  0  0  0  0  0
   -5.6205   -0.8449    0.0000 C   0  0  1  0  0  0  0  0  0  0  0  0
    0.0985    1.1581    0.0000 C   0  0  0  0  0  0  0  0  0  0  0  0
   -4.1657    0.7174    0.0000 C   0  0  0  0  0  0  0  0  0  0  0  0
   -6.6574   -1.8806    0.0000 C   0  0  0  0  0  0  0  0  0  0  0  0
    3.5374    0.2355    0.0000 C   0  0  0  0  0  0  0  0  0  0  0  0
    3.2427    1.6337    0.0000 C   0  0  0  0  0  0  0  0  0  0  0  0
   -5.3953   -2.2930    0.0000 C   0  0  0  0  0  0  0  0  0  0  0  0
    4.3447    0.4056    0.0000 C   0  0  0  0  0  0  0  0  0  0  0  0
   -6.6574   -2.7055    0.0000 C   0  0  0  0  0  0  0  0  0  0  0  0
    4.6009    1.1899    0.0000 C   0  0  0  0  0  0  0  0  0  0  0  0
    4.0500    1.8040    0.0000 C   0  0  0  0  0  0  0  0  0  0  0  0
    5.4082    1.3600    0.0000 C   0  0  1  0  0  0  0  0  0  0  0  0
   -7.3719   -3.1181    0.0000 C   0  0  0  0  0  0  0  0  0  0  0  0
    4.8956   -0.2083    0.0000 C   0  0  0  0  0  0  0  0  0  0  0  0
    5.6645    2.1442    0.0000 C   0  0  0  0  0  0  0  0  0  0  0  0
   -8.0864   -1.8806    0.0000 C   0  0  0  0  0  0  0  0  0  0  0  0
    6.4719    2.3143    0.0000 C   0  0  0  0  0  0  0  0  0  0  0  0
    6.7282    3.0986    0.0000 C   0  0  1  0  0  0  0  0  0  0  0  0
    7.5355    3.2687    0.0000 C   0  0  0  0  0  0  0  0  0  0  0  0
   -6.9289   -4.1989    0.0000 H   0  0  0  0  0  0  0  0  0  0  0  0
   -7.8149   -4.1989    0.0000 H   0  0  0  0  0  0  0  0  0  0  0  0
    4.1388   -1.0980    0.0000 H   0  0  0  0  0  0  0  0  0  0  0  0
    4.9809   -1.3732    0.0000 H   0  0  0  0  0  0  0  0  0  0  0  0
    5.6767    3.6071    0.0000 H   0  0  0  0  0  0  0  0  0  0  0  0
    6.3361    4.1989    0.0000 H   0  0  0  0  0  0  0  0  0  0  0  0
   -0.4798   -0.3947    0.0000 H   0  0  0  0  0  0  0  0  0  0  0  0
    1.7668   -1.6279    0.0000 H   0  0  0  0  0  0  0  0  0  0  0  0
   -5.2213    1.9947    0.0000 H   0  0  0  0  0  0  0  0  0  0  0  0
   -7.4129    0.6657    0.0000 H   0  0  0  0  0  0  0  0  0  0  0  0
   -0.0211    1.8642    0.0000 H   0  0  0  0  0  0  0  0  0  0  0  0
   -2.6568   -0.6894    0.0000 H   0  0  0  0  0  0  0  0  0  0  0  0
    5.6579   -0.1760    0.0000 H   0  0  0  0  0  0  0  0  0  0  0  0
    8.7085    4.2464    0.0000 H   0  0  0  0  0  0  0  0  0  0  0  0
    1.4036   -0.9856    0.0000 H   0  0  0  0  0  0  0  0  0  0  0  0
    1.2579   -0.9699    0.0000 H   0  0  0  0  0  0  0  0  0  0  0  0
    0.7975    1.8899    0.0000 H   0  0  0  0  0  0  0  0  0  0  0  0
   -6.6747    0.6592    0.0000 H   0  0  0  0  0  0  0  0  0  0  0  0
    2.4577    1.7126    0.0000 H   0  0  0  0  0  0  0  0  0  0  0  0
   -6.5884    0.7776    0.0000 H   0  0  0  0  0  0  0  0  0  0  0  0
   -3.8814   -0.2538    0.0000 H   0  0  0  0  0  0  0  0  0  0  0  0
   -4.8652   -1.6028    0.0000 H   0  0  0  0  0  0  0  0  0  0  0  0
   -0.0115    2.2224    0.0000 H   0  0  0  0  0  0  0  0  0  0  0  0
    0.9652    1.7856    0.0000 H   0  0  0  0  0  0  0  0  0  0  0  0
   -4.2757    1.7817    0.0000 H   0  0  0  0  0  0  0  0  0  0  0  0
   -5.1424    1.1543    0.0000 H   0  0  0  0  0  0  0  0  0  0  0  0
    3.2168   -0.7454    0.0000 H   0  0  0  0  0  0  0  0  0  0  0  0
    2.5534    2.4018    0.0000 H   0  0  0  0  0  0  0  0  0  0  0  0
   -4.3633   -2.2930    0.0000 H   0  0  0  0  0  0  0  0  0  0  0  0
    4.3706    2.7850    0.0000 H   0  0  0  0  0  0  0  0  0  0  0  0
    5.0758    0.3429    0.0000 H   0  0  0  0  0  0  0  0  0  0  0  0
   -8.9802   -1.3646    0.0000 H   0  0  0  0  0  0  0  0  0  0  0  0
    7.1865    1.5179    0.0000 H   0  0  0  0  0  0  0  0  0  0  0  0
    7.5189    2.5350    0.0000 H   0  0  0  0  0  0  0  0  0  0  0  0
    5.6812    2.8778    0.0000 H   0  0  0  0  0  0  0  0  0  0  0  0
  1  9  1  0  0  0  0
  1 11  1  0  0  0  0
  1 12  1  0  0  0  0
  1 14  2  6  0  0  0
  2 10  1  0  0  0  0
  2 11  1  0  0  0  0
  2 13  1  0  0  0  0
  2 15  2  6  0  0  0
  3 31  1  0  0  0  0
  3 33  1  0  0  0  0
  4 35  1  0  0  0  0
  4 36  1  0  0  0  0
  5 61  1  0  0  0  0
  6 62  1  0  0  0  0
  7 63  1  0  0  0  0
  8 64  1  0  0  0  0
  9 37  1  0  0  0  0
 10 38  1  0  0  0  0
 12 65  1  0  0  0  0
 13 66  1  0  0  0  0
 16 67  1  0  0  0  0
 17 49  2  0  0  0  0
 18 50  2  0  0  0  0
 19 54  1  0  0  0  0
 19 68  1  0  0  0  0
 20 54  2  0  0  0  0
 21 40  2  0  0  0  0
 21 41  1  0  0  0  0
 22 39  1  0  0  0  0
 22 42  1  0  0  0  0
 23 42  2  0  0  0  0
 23 44  1  0  0  0  0
 24 39  2  0  0  0  0
 24 51  1  0  0  0  0
 25 48  1  0  0  0  0
 25 51  2  0  0  0  0
 26 48  1  0  0  0  0
 26 55  1  0  0  0  0
 26 56  1  0  0  0  0
 27 49  1  0  0  0  0
 27 57  1  0  0  0  0
 27 58  1  0  0  0  0
 28 59  1  0  0  0  0
 28 60  1  0  0  0  0
 29  5  1  0  0  0  0
 29 30  1  0  0  0  0
 29 31  1  0  0  0  0
 29 69  1  1  0  0  0
 30  6  1  0  0  0  0
 30 33  1  0  0  0  0
 30 70  1  1  0  0  0
 31 37  1  0  0  0  0
 31 71  1  6  0  0  0
 32  7  1  0  0  0  0
 32 34  1  0  0  0  0
 32 35  1  0  0  0  0
 32 72  1  1  0  0  0
 33 21  1  0  0  0  0
 33 73  1  6  0  0  0
 34  8  1  0  0  0  0
 34 36  1  0  0  0  0
 34 74  1  1  0  0  0
 35 38  1  0  0  0  0
 35 75  1  6  0  0  0
 36 22  1  0  0  0  0
 36 76  1  6  0  0  0
 37 77  1  0  0  0  0
 37 78  1  0  0  0  0
 38 79  1  0  0  0  0
 38 80  1  0  0  0  0
 39 44  1  0  0  0  0
 40 43  1  0  0  0  0
 40 81  1  0  0  0  0
 41 46  2  0  0  0  0
 41 82  1  0  0  0  0
 42 83  1  0  0  0  0
 43 45  2  0  0  0  0
 43 49  1  0  0  0  0
 44 48  2  0  0  0  0
 45 46  1  0  0  0  0
 45 47  1  0  0  0  0
 46 84  1  0  0  0  0
 47 16  1  0  0  0  0
 47 50  1  0  0  0  0
 47 85  1  6  0  0  0
 50 52  1  0  0  0  0
 51 86  1  0  0  0  0
 52 53  1  0  0  0  0
 52 87  1  0  0  0  0
 52 88  1  0  0  0  0
 53 28  1  0  0  0  0
 53 54  1  0  0  0  0
 53 89  1  1  0  0  0
M  CHG  1  21   1
M  END
>  <DRUGBANK_ID>
DB02349

>  <SECONDARY_ACCESSION_NUMBERS>
EXPT02346

>  <COMMON_NAME>
Nicotinamide-adenine-dinucleotide-5-hydroxy-4-oxonorvaline

$$$$
