
 OpenBabel10282417072D

 68 72  0  0  1  0  0  0  0  0999 V2000
   -0.3121    0.0446    0.0000 C   0  0  0  0  0  0  0  0  0  0  0  0
   -0.9252   -0.5075    0.0000 C   0  0  1  0  0  0  0  0  0  0  0  0
   -1.7098   -0.2525    0.0000 C   0  0  0  0  0  0  0  0  0  0  0  0
   -2.3229   -0.8046    0.0000 C   0  0  0  0  0  0  0  0  0  0  0  0
   -3.1075   -0.5496    0.0000 C   0  0  0  0  0  0  0  0  0  0  0  0
   -3.2791    0.2573    0.0000 C   0  0  0  0  0  0  0  0  0  0  0  0
   -2.6660    0.8094    0.0000 C   0  0  0  0  0  0  0  0  0  0  0  0
   -1.8814    0.5544    0.0000 C   0  0  0  0  0  0  0  0  0  0  0  0
   -4.0637    0.5123    0.0000 C   0  0  0  0  0  0  0  0  0  0  0  0
   -4.6768   -0.0397    0.0000 O   0  0  0  0  0  0  0  0  0  0  0  0
   -4.2352    1.3193    0.0000 N   0  0  0  0  0  0  0  0  0  0  0  0
   -5.0198    1.5742    0.0000 C   0  0  0  0  0  0  0  0  0  0  0  0
   -5.1914    2.3812    0.0000 C   0  0  0  0  0  0  0  0  0  0  0  0
   -5.9760    2.6361    0.0000 C   0  0  0  0  0  0  0  0  0  0  0  0
   -6.1475    3.4431    0.0000 O   0  0  0  0  0  0  0  0  0  0  0  0
   -6.5891    2.0841    0.0000 O   0  0  0  0  0  0  0  0  0  0  0  0
   -0.7537   -1.3144    0.0000 N   0  0  0  0  0  0  0  0  0  0  0  0
    0.0000   -1.6500    0.0000 C   0  0  0  0  0  0  0  0  0  0  0  0
   -0.0862   -2.4705    0.0000 C   0  0  0  0  0  0  0  0  0  0  0  0
   -0.8932   -2.6420    0.0000 C   0  0  0  0  0  0  0  0  0  0  0  0
   -1.3057   -1.9275    0.0000 N   0  0  0  0  0  0  0  0  0  0  0  0
   -1.2288   -3.3957    0.0000 C   0  0  0  0  0  0  0  0  0  0  0  0
   -0.7438   -4.0631    0.0000 C   0  0  0  0  0  0  0  0  0  0  0  0
   -1.0794   -4.8168    0.0000 C   0  0  0  0  0  0  0  0  0  0  0  0
   -1.8999   -4.9030    0.0000 C   0  0  0  0  0  0  0  0  0  0  0  0
   -2.3848   -4.2356    0.0000 C   0  0  0  0  0  0  0  0  0  0  0  0
   -2.0492   -3.4819    0.0000 C   0  0  0  0  0  0  0  0  0  0  0  0
   -3.2053   -4.3218    0.0000 Cl  0  0  0  0  0  0  0  0  0  0  0  0
   -0.5945   -5.4842    0.0000 Cl  0  0  0  0  0  0  0  0  0  0  0  0
    0.7145   -1.2375    0.0000 C   0  0  0  0  0  0  0  0  0  0  0  0
    0.7145   -0.4125    0.0000 C   0  0  0  0  0  0  0  0  0  0  0  0
    1.4289    0.0000    0.0000 C   0  0  0  0  0  0  0  0  0  0  0  0
    2.1434   -0.4125    0.0000 C   0  0  0  0  0  0  0  0  0  0  0  0
    2.8579    0.0000    0.0000 C   0  0  0  0  0  0  0  0  0  0  0  0
    3.5724   -0.4125    0.0000 C   0  0  0  0  0  0  0  0  0  0  0  0
    3.5724   -1.2375    0.0000 C   0  0  0  0  0  0  0  0  0  0  0  0
    2.8579   -1.6500    0.0000 C   0  0  0  0  0  0  0  0  0  0  0  0
    2.1434   -1.2375    0.0000 C   0  0  0  0  0  0  0  0  0  0  0  0
    1.4289   -1.6500    0.0000 C   0  0  0  0  0  0  0  0  0  0  0  0
    4.2868   -0.0000    0.0000 O   0  0  0  0  0  0  0  0  0  0  0  0
    5.0013   -0.4125    0.0000 C   0  0  0  0  0  0  0  0  0  0  0  0
    0.7055   -0.2860    0.0000 H   0  0  0  0  0  0  0  0  0  0  0  0
   -0.5346    1.0912    0.0000 H   0  0  0  0  0  0  0  0  0  0  0  0
    0.4830    0.7606    0.0000 H   0  0  0  0  0  0  0  0  0  0  0  0
   -1.1477    0.5391    0.0000 H   0  0  0  0  0  0  0  0  0  0  0  0
   -2.1083   -1.8141    0.0000 H   0  0  0  0  0  0  0  0  0  0  0  0
   -3.8744   -1.2402    0.0000 H   0  0  0  0  0  0  0  0  0  0  0  0
   -2.8806    1.8189    0.0000 H   0  0  0  0  0  0  0  0  0  0  0  0
   -1.1145    1.2450    0.0000 H   0  0  0  0  0  0  0  0  0  0  0  0
   -3.5036    1.9781    0.0000 H   0  0  0  0  0  0  0  0  0  0  0  0
   -5.8149    0.8582    0.0000 H   0  0  0  0  0  0  0  0  0  0  0  0
   -6.0375    1.9048    0.0000 H   0  0  0  0  0  0  0  0  0  0  0  0
   -4.3963    3.0972    0.0000 H   0  0  0  0  0  0  0  0  0  0  0  0
   -5.4139    3.4278    0.0000 H   0  0  0  0  0  0  0  0  0  0  0  0
   -7.4802    2.3737    0.0000 H   0  0  0  0  0  0  0  0  0  0  0  0
    0.6807   -3.1610    0.0000 H   0  0  0  0  0  0  0  0  0  0  0  0
    0.2825   -3.9552    0.0000 H   0  0  0  0  0  0  0  0  0  0  0  0
   -2.3197   -5.8458    0.0000 H   0  0  0  0  0  0  0  0  0  0  0  0
   -2.6558   -2.6470    0.0000 H   0  0  0  0  0  0  0  0  0  0  0  0
   -0.1792    0.1035    0.0000 H   0  0  0  0  0  0  0  0  0  0  0  0
    1.4289    1.0320    0.0000 H   0  0  0  0  0  0  0  0  0  0  0  0
    2.8579    1.0320    0.0000 H   0  0  0  0  0  0  0  0  0  0  0  0
    4.4661   -1.7535    0.0000 H   0  0  0  0  0  0  0  0  0  0  0  0
    2.8579   -2.6820    0.0000 H   0  0  0  0  0  0  0  0  0  0  0  0
    1.4289   -2.6820    0.0000 H   0  0  0  0  0  0  0  0  0  0  0  0
    5.0013   -1.4825    0.0000 H   0  0  0  0  0  0  0  0  0  0  0  0
    5.9279    0.1225    0.0000 H   0  0  0  0  0  0  0  0  0  0  0  0
    5.9280   -0.9475    0.0000 H   0  0  0  0  0  0  0  0  0  0  0  0
  1 42  1  0  0  0  0
  1 43  1  0  0  0  0
  1 44  1  0  0  0  0
  2  1  1  0  0  0  0
  2  3  1  0  0  0  0
  2 17  1  0  0  0  0
  2 45  1  1  0  0  0
  3  4  2  0  0  0  0
  3  8  1  0  0  0  0
  4  5  1  0  0  0  0
  4 46  1  0  0  0  0
  5  6  2  0  0  0  0
  5 47  1  0  0  0  0
  6  7  1  0  0  0  0
  6  9  1  0  0  0  0
  7  8  2  0  0  0  0
  7 48  1  0  0  0  0
  8 49  1  0  0  0  0
  9 10  2  0  0  0  0
  9 11  1  0  0  0  0
 11 12  1  0  0  0  0
 11 50  1  0  0  0  0
 12 13  1  0  0  0  0
 12 51  1  0  0  0  0
 12 52  1  0  0  0  0
 13 14  1  0  0  0  0
 13 53  1  0  0  0  0
 13 54  1  0  0  0  0
 14 15  2  0  0  0  0
 14 16  1  0  0  0  0
 16 55  1  0  0  0  0
 17 18  1  0  0  0  0
 17 21  1  0  0  0  0
 18 19  2  0  0  0  0
 18 30  1  0  0  0  0
 19 20  1  0  0  0  0
 19 56  1  0  0  0  0
 20 21  2  0  0  0  0
 20 22  1  0  0  0  0
 22 23  2  0  0  0  0
 22 27  1  0  0  0  0
 23 24  1  0  0  0  0
 23 57  1  0  0  0  0
 24 25  2  0  0  0  0
 24 29  1  0  0  0  0
 25 26  1  0  0  0  0
 25 58  1  0  0  0  0
 26 27  2  0  0  0  0
 26 28  1  0  0  0  0
 27 59  1  0  0  0  0
 30 31  2  0  0  0  0
 30 39  1  0  0  0  0
 31 32  1  0  0  0  0
 31 60  1  0  0  0  0
 32 33  2  0  0  0  0
 32 61  1  0  0  0  0
 33 34  1  0  0  0  0
 33 38  1  0  0  0  0
 34 35  2  0  0  0  0
 34 62  1  0  0  0  0
 35 36  1  0  0  0  0
 35 40  1  0  0  0  0
 36 37  2  0  0  0  0
 36 63  1  0  0  0  0
 37 38  1  0  0  0  0
 37 64  1  0  0  0  0
 38 39  2  0  0  0  0
 39 65  1  0  0  0  0
 40 41  1  0  0  0  0
 41 66  1  0  0  0  0
 41 67  1  0  0  0  0
 41 68  1  0  0  0  0
M  END
>  <DRUGBANK_ID>
DB12044

>  <COMMON_NAME>
MK-0893

>  <UNII>
CCP2U6LWTP

$$$$
