
 OpenBabel10282417072D

 30 32  0  0  0  0  0  0  0  0999 V2000
   -0.1712   -0.6979    0.0000 C   0  0  0  0  0  0  0  0  0  0  0  0
    0.6538   -0.6979    0.0000 C   0  0  0  0  0  0  0  0  0  0  0  0
    1.1387   -0.0305    0.0000 C   0  0  0  0  0  0  0  0  0  0  0  0
    1.9233   -0.2854    0.0000 C   0  0  0  0  0  0  0  0  0  0  0  0
    2.6378    0.1271    0.0000 C   0  0  0  0  0  0  0  0  0  0  0  0
    3.3523   -0.2854    0.0000 C   0  0  0  0  0  0  0  0  0  0  0  0
    3.3523   -1.1104    0.0000 C   0  0  0  0  0  0  0  0  0  0  0  0
    2.6378   -1.5229    0.0000 C   0  0  0  0  0  0  0  0  0  0  0  0
    1.9233   -1.1104    0.0000 C   0  0  0  0  0  0  0  0  0  0  0  0
    1.1387   -1.3654    0.0000 S   0  0  0  0  0  0  0  0  0  0  0  0
    0.8838    0.7541    0.0000 C   0  0  0  0  0  0  0  0  0  0  0  0
    1.4358    1.3672    0.0000 C   0  0  0  0  0  0  0  0  0  0  0  0
    1.2643    2.1742    0.0000 N   0  0  0  0  0  0  0  0  0  0  0  0
    1.9788    2.5867    0.0000 C   0  0  0  0  0  0  0  0  0  0  0  0
    2.5919    2.0347    0.0000 C   0  0  0  0  0  0  0  0  0  0  0  0
    2.2563    1.2810    0.0000 N   0  0  0  0  0  0  0  0  0  0  0  0
   -0.7062    0.2287    0.0000 H   0  0  0  0  0  0  0  0  0  0  0  0
   -0.7062   -1.6245    0.0000 H   0  0  0  0  0  0  0  0  0  0  0  0
   -1.2412   -0.6979    0.0000 H   0  0  0  0  0  0  0  0  0  0  0  0
    2.6378    1.1591    0.0000 H   0  0  0  0  0  0  0  0  0  0  0  0
    4.2460    0.2306    0.0000 H   0  0  0  0  0  0  0  0  0  0  0  0
    4.2460   -1.6264    0.0000 H   0  0  0  0  0  0  0  0  0  0  0  0
    2.6378   -2.5549    0.0000 H   0  0  0  0  0  0  0  0  0  0  0  0
   -0.1628    0.9766    0.0000 H   0  0  0  0  0  0  0  0  0  0  0  0
    0.5531    1.7717    0.0000 H   0  0  0  0  0  0  0  0  0  0  0  0
    2.0906    3.6508    0.0000 H   0  0  0  0  0  0  0  0  0  0  0  0
    2.9777    2.9702    0.0000 H   0  0  0  0  0  0  0  0  0  0  0  0
    3.6385    2.2572    0.0000 H   0  0  0  0  0  0  0  0  0  0  0  0
    3.2653    1.2031    0.0000 H   0  0  0  0  0  0  0  0  0  0  0  0
    2.7486    0.4284    0.0000 H   0  0  0  0  0  0  0  0  0  0  0  0
  1  2  1  0  0  0  0
  1 17  1  0  0  0  0
  1 18  1  0  0  0  0
  1 19  1  0  0  0  0
  2  3  2  0  0  0  0
  2 10  1  0  0  0  0
  3  4  1  0  0  0  0
  3 11  1  0  0  0  0
  4  5  2  0  0  0  0
  4  9  1  0  0  0  0
  5  6  1  0  0  0  0
  5 20  1  0  0  0  0
  6  7  2  0  0  0  0
  6 21  1  0  0  0  0
  7  8  1  0  0  0  0
  7 22  1  0  0  0  0
  8  9  2  0  0  0  0
  8 23  1  0  0  0  0
  9 10  1  0  0  0  0
 11 12  1  0  0  0  0
 11 24  1  0  0  0  0
 11 25  1  0  0  0  0
 12 13  2  0  0  0  0
 12 16  1  0  0  0  0
 13 14  1  0  0  0  0
 14 15  1  0  0  0  0
 14 26  1  0  0  0  0
 14 27  1  0  0  0  0
 15 16  1  0  0  0  0
 15 28  1  0  0  0  0
 15 29  1  0  0  0  0
 16 30  1  0  0  0  0
M  END
>  <DRUGBANK_ID>
DB13614

>  <COMMON_NAME>
Metizoline

>  <CAS_NUMBER>
17692-22-7

>  <UNII>
Z27L8N105U

>  <SYNONYMS>
Metizoline

$$$$
