1581
 OpenBabel10282417072D

 30 31  0  0  0  0  0  0  0  0999 V2000
    2.4751    0.1279    0.0000 S   0  0  0  0  0  0  0  0  0  0  0  0
    1.6500    0.1279    0.0000 O   0  0  0  0  0  0  0  0  0  0  0  0
    3.3001    0.1279    0.0000 O   0  0  0  0  0  0  0  0  0  0  0  0
    2.4751    0.9529    0.0000 N   0  0  0  0  0  0  0  0  0  0  0  0
    3.1895    2.1904    0.0000 N   0  0  0  0  0  0  0  0  0  0  0  0
    3.9041    0.9529    0.0000 N   0  0  0  0  0  0  0  0  0  0  0  0
    2.4751   -3.1722    0.0000 N   0  0  0  0  0  0  0  0  0  0  0  0
    2.4751   -0.6971    0.0000 C   0  0  0  0  0  0  0  0  0  0  0  0
    1.7606   -1.1096    0.0000 C   0  0  0  0  0  0  0  0  0  0  0  0
    3.1895   -1.1096    0.0000 C   0  0  0  0  0  0  0  0  0  0  0  0
    2.4751   -2.3472    0.0000 C   0  0  0  0  0  0  0  0  0  0  0  0
    1.7606   -1.9347    0.0000 C   0  0  0  0  0  0  0  0  0  0  0  0
    3.1895   -1.9347    0.0000 C   0  0  0  0  0  0  0  0  0  0  0  0
    3.1895    1.3654    0.0000 C   0  0  0  0  0  0  0  0  0  0  0  0
    3.9041    2.6029    0.0000 C   0  0  0  0  0  0  0  0  0  0  0  0
    4.6185    2.1904    0.0000 C   0  0  0  0  0  0  0  0  0  0  0  0
    4.6185    1.3654    0.0000 C   0  0  0  0  0  0  0  0  0  0  0  0
    3.9041    3.4280    0.0000 C   0  0  0  0  0  0  0  0  0  0  0  0
    1.6225    1.4451    0.0000 H   0  0  0  0  0  0  0  0  0  0  0  0
    1.6225   -3.6645    0.0000 H   0  0  0  0  0  0  0  0  0  0  0  0
    3.3277   -3.6644    0.0000 H   0  0  0  0  0  0  0  0  0  0  0  0
    0.8669   -0.5936    0.0000 H   0  0  0  0  0  0  0  0  0  0  0  0
    4.0832   -0.5936    0.0000 H   0  0  0  0  0  0  0  0  0  0  0  0
    0.8669   -2.4507    0.0000 H   0  0  0  0  0  0  0  0  0  0  0  0
    4.0832   -2.4507    0.0000 H   0  0  0  0  0  0  0  0  0  0  0  0
    5.5122    2.7064    0.0000 H   0  0  0  0  0  0  0  0  0  0  0  0
    5.5122    0.8494    0.0000 H   0  0  0  0  0  0  0  0  0  0  0  0
    4.8307    3.9630    0.0000 H   0  0  0  0  0  0  0  0  0  0  0  0
    2.9775    3.9630    0.0000 H   0  0  0  0  0  0  0  0  0  0  0  0
    3.9041    4.4980    0.0000 H   0  0  0  0  0  0  0  0  0  0  0  0
  1  2  2  0  0  0  0
  1  3  2  0  0  0  0
  1  4  1  0  0  0  0
  1  8  1  0  0  0  0
  4 14  1  0  0  0  0
  4 19  1  0  0  0  0
  5 14  1  0  0  0  0
  5 15  2  0  0  0  0
  6 14  2  0  0  0  0
  6 17  1  0  0  0  0
  7 11  1  0  0  0  0
  7 20  1  0  0  0  0
  7 21  1  0  0  0  0
  8  9  2  0  0  0  0
  8 10  1  0  0  0  0
  9 12  1  0  0  0  0
  9 22  1  0  0  0  0
 10 13  2  0  0  0  0
 10 23  1  0  0  0  0
 11 12  2  0  0  0  0
 11 13  1  0  0  0  0
 12 24  1  0  0  0  0
 13 25  1  0  0  0  0
 15 16  1  0  0  0  0
 15 18  1  0  0  0  0
 16 17  2  0  0  0  0
 16 26  1  0  0  0  0
 17 27  1  0  0  0  0
 18 28  1  0  0  0  0
 18 29  1  0  0  0  0
 18 30  1  0  0  0  0
M  END
>  <DRUGBANK_ID>
DB01581

>  <COMMON_NAME>
Sulfamerazine

>  <CAS_NUMBER>
127-79-7

>  <UNII>
UR1SAB295F

>  <SYNONYMS>
(p-Aminobenzolsulfonyl)-2-amino-4-methylpyrimidin; 2-(4-Aminobenzenesulfonamido)-4-methylpyrimidine; 2-(p-Aminobenzolsulfonamido)-4-methylpyrimidine; 2-(Sulfanilamido)-4-methylpyrimidine; 2-Sulfa-4-methylpyrimidine; 4-Amino-N-(4-methyl-2-pyrimidinyl)-benzenesulfonamide; N-(4-Methyl-2-pyrimidyl)sulfanilamide; N(1)-(4-Methyl-2-pyrimidinyl)sulfanilamide; Sulfamerazina; Sulfamerazine; Sulfamerazinum; Sulfamethyldiazine; Sulphamerazine

$$$$
