1359
 OpenBabel10282417072D

 50 51  0  0  1  0  0  0  0  0999 V2000
    5.9370   -0.2223    0.0000 O   0  0  0  0  0  0  0  0  0  0  0  0
    4.5080    0.6028    0.0000 O   0  0  0  0  0  0  0  0  0  0  0  0
    3.0791   -0.2223    0.0000 N   0  0  0  0  0  0  0  0  0  0  0  0
    7.3659    0.6028    0.0000 C   0  0  0  0  0  0  0  0  0  0  0  0
    8.0334    1.0877    0.0000 C   0  0  0  0  0  0  0  0  0  0  0  0
    6.6985    1.0877    0.0000 C   0  0  0  0  0  0  0  0  0  0  0  0
    7.7784    1.8723    0.0000 C   0  0  0  0  0  0  0  0  0  0  0  0
    6.9534    1.8723    0.0000 C   0  0  0  0  0  0  0  0  0  0  0  0
    7.3659   -0.2223    0.0000 C   0  0  0  0  0  0  0  0  0  0  0  0
    6.6515   -0.6348    0.0000 C   0  0  0  0  0  0  0  0  0  0  0  0
    8.0804   -0.6348    0.0000 C   0  0  0  0  0  0  0  0  0  0  0  0
    2.3645   -0.6348    0.0000 C   0  0  0  0  0  0  0  0  0  0  0  0
    4.5080   -0.2223    0.0000 C   0  0  1  0  0  0  0  0  0  0  0  0
    3.7935   -0.6348    0.0000 C   0  0  0  0  0  0  0  0  0  0  0  0
    5.2224   -0.6348    0.0000 C   0  0  0  0  0  0  0  0  0  0  0  0
    6.6515   -1.4598    0.0000 C   0  0  0  0  0  0  0  0  0  0  0  0
    8.0804   -1.4598    0.0000 C   0  0  0  0  0  0  0  0  0  0  0  0
    2.7770   -1.3492    0.0000 C   0  0  0  0  0  0  0  0  0  0  0  0
    1.9520    0.0797    0.0000 C   0  0  0  0  0  0  0  0  0  0  0  0
    1.6500   -1.0473    0.0000 C   0  0  0  0  0  0  0  0  0  0  0  0
    7.3659   -1.8723    0.0000 C   0  0  0  0  0  0  0  0  0  0  0  0
    5.3480    1.0878    0.0000 H   0  0  0  0  0  0  0  0  0  0  0  0
    3.0792    0.7977    0.0000 H   0  0  0  0  0  0  0  0  0  0  0  0
    6.4125    0.1170    0.0000 H   0  0  0  0  0  0  0  0  0  0  0  0
    9.0510    0.7571    0.0000 H   0  0  0  0  0  0  0  0  0  0  0  0
    8.7900    1.8443    0.0000 H   0  0  0  0  0  0  0  0  0  0  0  0
    5.6809    0.7570    0.0000 H   0  0  0  0  0  0  0  0  0  0  0  0
    5.9419    1.8443    0.0000 H   0  0  0  0  0  0  0  0  0  0  0  0
    8.4073    2.7380    0.0000 H   0  0  0  0  0  0  0  0  0  0  0  0
    7.2926    2.8257    0.0000 H   0  0  0  0  0  0  0  0  0  0  0  0
    6.3245    2.7379    0.0000 H   0  0  0  0  0  0  0  0  0  0  0  0
    7.4392    2.8257    0.0000 H   0  0  0  0  0  0  0  0  0  0  0  0
    8.9741   -0.1188    0.0000 H   0  0  0  0  0  0  0  0  0  0  0  0
    3.5814    0.3127    0.0000 H   0  0  0  0  0  0  0  0  0  0  0  0
    3.7935   -1.7048    0.0000 H   0  0  0  0  0  0  0  0  0  0  0  0
    4.7201   -1.1698    0.0000 H   0  0  0  0  0  0  0  0  0  0  0  0
    5.2223   -1.7048    0.0000 H   0  0  0  0  0  0  0  0  0  0  0  0
    4.2957   -1.1698    0.0000 H   0  0  0  0  0  0  0  0  0  0  0  0
    5.7578   -1.9758    0.0000 H   0  0  0  0  0  0  0  0  0  0  0  0
    8.9741   -1.9758    0.0000 H   0  0  0  0  0  0  0  0  0  0  0  0
    2.2420   -2.2759    0.0000 H   0  0  0  0  0  0  0  0  0  0  0  0
    3.8470   -1.3492    0.0000 H   0  0  0  0  0  0  0  0  0  0  0  0
    3.3120   -2.2758    0.0000 H   0  0  0  0  0  0  0  0  0  0  0  0
    2.4870    1.0063    0.0000 H   0  0  0  0  0  0  0  0  0  0  0  0
    0.8820    0.0797    0.0000 H   0  0  0  0  0  0  0  0  0  0  0  0
    1.4170    1.0064    0.0000 H   0  0  0  0  0  0  0  0  0  0  0  0
    0.7234   -0.5123    0.0000 H   0  0  0  0  0  0  0  0  0  0  0  0
    1.6500   -2.1173    0.0000 H   0  0  0  0  0  0  0  0  0  0  0  0
    0.7233   -1.5823    0.0000 H   0  0  0  0  0  0  0  0  0  0  0  0
    7.3659   -2.9043    0.0000 H   0  0  0  0  0  0  0  0  0  0  0  0
  1 10  1  0  0  0  0
  1 15  1  0  0  0  0
  2 22  1  0  0  0  0
  3 12  1  0  0  0  0
  3 14  1  0  0  0  0
  3 23  1  0  0  0  0
  4  5  1  0  0  0  0
  4  6  1  0  0  0  0
  4  9  1  0  0  0  0
  4 24  1  0  0  0  0
  5  7  1  0  0  0  0
  5 25  1  0  0  0  0
  5 26  1  0  0  0  0
  6  8  1  0  0  0  0
  6 27  1  0  0  0  0
  6 28  1  0  0  0  0
  7  8  1  0  0  0  0
  7 29  1  0  0  0  0
  7 30  1  0  0  0  0
  8 31  1  0  0  0  0
  8 32  1  0  0  0  0
  9 10  1  0  0  0  0
  9 11  2  0  0  0  0
 10 16  2  0  0  0  0
 11 17  1  0  0  0  0
 11 33  1  0  0  0  0
 12 18  1  0  0  0  0
 12 19  1  0  0  0  0
 12 20  1  0  0  0  0
 13  2  1  0  0  0  0
 13 14  1  0  0  0  0
 13 15  1  0  0  0  0
 13 34  1  1  0  0  0
 14 35  1  0  0  0  0
 14 36  1  0  0  0  0
 15 37  1  0  0  0  0
 15 38  1  0  0  0  0
 16 21  1  0  0  0  0
 16 39  1  0  0  0  0
 17 21  2  0  0  0  0
 17 40  1  0  0  0  0
 18 41  1  0  0  0  0
 18 42  1  0  0  0  0
 18 43  1  0  0  0  0
 19 44  1  0  0  0  0
 19 45  1  0  0  0  0
 19 46  1  0  0  0  0
 20 47  1  0  0  0  0
 20 48  1  0  0  0  0
 20 49  1  0  0  0  0
 21 50  1  0  0  0  0
M  END
>  <DRUGBANK_ID>
DB01359

>  <COMMON_NAME>
Penbutolol

>  <CAS_NUMBER>
38363-40-5

>  <UNII>
78W62V43DY

>  <SYNONYMS>
(2S)-1-(tert-butylamino)-3-(2-cyclopentylphenoxy)propan-2-ol; Penbutolol; Penbutololum

$$$$
