
 OpenBabel10282417072D

 37 39  0  0  0  0  0  0  0  0999 V2000
    1.3219    3.4901    0.0000 N   0  0  0  0  0  0  0  0  0  0  0  0
    1.3219    2.6649    0.0000 C   0  0  0  0  0  0  0  0  0  0  0  0
    2.0376    2.2523    0.0000 N   0  0  0  0  0  0  0  0  0  0  0  0
    2.0376    1.4271    0.0000 C   0  0  0  0  0  0  0  0  0  0  0  0
    1.3219    1.0145    0.0000 N   0  0  0  0  0  0  0  0  0  0  0  0
    0.6061    1.4271    0.0000 C   0  0  0  0  0  0  0  0  0  0  0  0
    0.6061    2.2523    0.0000 C   0  0  0  0  0  0  0  0  0  0  0  0
   -0.1767    2.5049    0.0000 N   0  0  0  0  0  0  0  0  0  0  0  0
   -0.6652    1.8397    0.0000 C   0  0  0  0  0  0  0  0  0  0  0  0
   -0.1767    1.1746    0.0000 N   0  0  0  0  0  0  0  0  0  0  0  0
   -0.4294    0.3915    0.0000 C   0  0  2  0  0  0  0  0  0  0  0  0
    0.0505   -0.2736    0.0000 O   0  0  0  0  0  0  0  0  0  0  0  0
   -0.4294   -0.9387    0.0000 C   0  0  1  0  0  0  0  0  0  0  0  0
   -0.1767   -1.7219    0.0000 C   0  0  0  0  0  0  0  0  0  0  0  0
   -0.7326   -2.3366    0.0000 O   0  0  0  0  0  0  0  0  0  0  0  0
   -0.4715   -3.1197    0.0000 W   0  0  0  0  0  0  0  0  0  0  0  0
   -0.2189   -3.9026    0.0000 O   0  0  0  0  0  0  0  0  0  0  0  0
   -1.2546   -3.3722    0.0000 O   0  0  0  0  0  0  0  0  0  0  0  0
    0.3115   -2.8670    0.0000 O   0  0  0  0  0  0  0  0  0  0  0  0
   -1.2125   -0.6862    0.0000 C   0  0  2  0  0  0  0  0  0  0  0  0
   -1.8861   -1.1746    0.0000 O   0  0  0  0  0  0  0  0  0  0  0  0
   -1.2125    0.1388    0.0000 C   0  0  1  0  0  0  0  0  0  0  0  0
   -1.8861    0.6189    0.0000 O   0  0  0  0  0  0  0  0  0  0  0  0
    2.0376    3.9026    0.0000 H   0  0  0  0  0  0  0  0  0  0  0  0
    0.6061    3.9026    0.0000 H   0  0  0  0  0  0  0  0  0  0  0  0
    0.2779    0.8041    0.0000 H   0  0  0  0  0  0  0  0  0  0  0  0
   -0.7662   -1.6966    0.0000 H   0  0  0  0  0  0  0  0  0  0  0  0
   -2.0376   -0.6020    0.0000 H   0  0  0  0  0  0  0  0  0  0  0  0
   -1.1451    0.9556    0.0000 H   0  0  0  0  0  0  0  0  0  0  0  0
    2.9312    0.9108    0.0000 H   0  0  0  0  0  0  0  0  0  0  0  0
   -1.6972    1.8397    0.0000 H   0  0  0  0  0  0  0  0  0  0  0  0
    0.8694   -1.9466    0.0000 H   0  0  0  0  0  0  0  0  0  0  0  0
    0.1518   -2.7402    0.0000 H   0  0  0  0  0  0  0  0  0  0  0  0
   -0.8694   -4.6221    0.0000 H   0  0  0  0  0  0  0  0  0  0  0  0
   -1.9740   -2.7215    0.0000 H   0  0  0  0  0  0  0  0  0  0  0  0
   -2.7719   -0.7792    0.0000 H   0  0  0  0  0  0  0  0  0  0  0  0
   -1.7935    1.5845    0.0000 H   0  0  0  0  0  0  0  0  0  0  0  0
  1  2  1  0  0  0  0
  1 24  1  0  0  0  0
  1 25  1  0  0  0  0
  2  3  2  0  0  0  0
  2  7  1  0  0  0  0
  3  4  1  0  0  0  0
  4  5  2  0  0  0  0
  4 30  1  0  0  0  0
  5  6  1  0  0  0  0
  6  7  2  0  0  0  0
  6 10  1  0  0  0  0
  7  8  1  0  0  0  0
  8  9  2  0  0  0  0
  9 10  1  0  0  0  0
  9 31  1  0  0  0  0
 11 10  1  0  0  0  0
 11 12  1  0  0  0  0
 11 22  1  0  0  0  0
 11 26  1  1  0  0  0
 12 13  1  0  0  0  0
 13 14  1  0  0  0  0
 13 20  1  0  0  0  0
 13 27  1  6  0  0  0
 14 15  1  0  0  0  0
 14 32  1  0  0  0  0
 14 33  1  0  0  0  0
 15 16  1  0  0  0  0
 16 17  1  0  0  0  0
 16 18  1  0  0  0  0
 16 19  2  0  0  0  0
 17 34  1  0  0  0  0
 18 35  1  0  0  0  0
 20 21  1  0  0  0  0
 20 22  1  0  0  0  0
 20 28  1  1  0  0  0
 21 36  1  0  0  0  0
 22 23  1  0  0  0  0
 22 29  1  6  0  0  0
 23 37  1  0  0  0  0
M  END
>  <DRUGBANK_ID>
DB02373

>  <SECONDARY_ACCESSION_NUMBERS>
EXPT00516

>  <COMMON_NAME>
Adenosine monotungstate

$$$$
