
 OpenBabel10282417072D

 48 50  0  0  0  0  0  0  0  0999 V2000
   -2.8579    0.0000    0.0000 C   0  0  0  0  0  0  0  0  0  0  0  0
   -2.1434   -0.4125    0.0000 O   0  0  0  0  0  0  0  0  0  0  0  0
   -2.1434   -1.2375    0.0000 C   0  0  0  0  0  0  0  0  0  0  0  0
   -1.4289   -1.6500    0.0000 C   0  0  0  0  0  0  0  0  0  0  0  0
   -1.4289   -2.4750    0.0000 C   0  0  0  0  0  0  0  0  0  0  0  0
   -2.1434   -2.8875    0.0000 C   0  0  0  0  0  0  0  0  0  0  0  0
   -2.8579   -2.4750    0.0000 C   0  0  0  0  0  0  0  0  0  0  0  0
   -2.8579   -1.6500    0.0000 C   0  0  0  0  0  0  0  0  0  0  0  0
   -3.5724   -1.2375    0.0000 C   0  0  0  0  0  0  0  0  0  0  0  0
   -4.2868   -1.6500    0.0000 O   0  0  0  0  0  0  0  0  0  0  0  0
   -3.5724   -0.4125    0.0000 N   0  0  0  0  0  0  0  0  0  0  0  0
   -4.2868    0.0000    0.0000 C   0  0  0  0  0  0  0  0  0  0  0  0
   -4.2868    0.8250    0.0000 C   0  0  0  0  0  0  0  0  0  0  0  0
   -5.0013    1.2375    0.0000 C   0  0  0  0  0  0  0  0  0  0  0  0
   -5.0013    2.0625    0.0000 C   0  0  0  0  0  0  0  0  0  0  0  0
   -4.2868    2.4750    0.0000 C   0  0  0  0  0  0  0  0  0  0  0  0
   -3.5724    2.0625    0.0000 N   0  0  0  0  0  0  0  0  0  0  0  0
   -3.5724    1.2375    0.0000 C   0  0  0  0  0  0  0  0  0  0  0  0
   -2.1434   -3.7125    0.0000 C   0  0  0  0  0  0  0  0  0  0  0  0
   -1.4289   -4.1250    0.0000 O   0  0  0  0  0  0  0  0  0  0  0  0
   -2.8579   -4.1250    0.0000 N   0  0  0  0  0  0  0  0  0  0  0  0
   -2.8579   -4.9500    0.0000 C   0  0  0  0  0  0  0  0  0  0  0  0
   -2.1434   -5.3625    0.0000 C   0  0  0  0  0  0  0  0  0  0  0  0
   -1.4289   -4.9500    0.0000 C   0  0  0  0  0  0  0  0  0  0  0  0
   -0.7145   -5.3625    0.0000 C   0  0  0  0  0  0  0  0  0  0  0  0
   -0.7145   -6.1875    0.0000 C   0  0  0  0  0  0  0  0  0  0  0  0
   -1.4289   -6.6000    0.0000 N   0  0  0  0  0  0  0  0  0  0  0  0
   -2.1434   -6.1875    0.0000 C   0  0  0  0  0  0  0  0  0  0  0  0
   -2.8579    1.0700    0.0000 H   0  0  0  0  0  0  0  0  0  0  0  0
   -3.7845   -0.5350    0.0000 H   0  0  0  0  0  0  0  0  0  0  0  0
   -3.7846    0.5350    0.0000 H   0  0  0  0  0  0  0  0  0  0  0  0
   -0.5352   -1.1340    0.0000 H   0  0  0  0  0  0  0  0  0  0  0  0
   -0.5352   -2.9910    0.0000 H   0  0  0  0  0  0  0  0  0  0  0  0
   -3.7516   -2.9910    0.0000 H   0  0  0  0  0  0  0  0  0  0  0  0
   -2.7198    0.0797    0.0000 H   0  0  0  0  0  0  0  0  0  0  0  0
   -5.2135   -0.5350    0.0000 H   0  0  0  0  0  0  0  0  0  0  0  0
   -5.2134    0.5350    0.0000 H   0  0  0  0  0  0  0  0  0  0  0  0
   -5.8950    0.7215    0.0000 H   0  0  0  0  0  0  0  0  0  0  0  0
   -5.8950    2.5785    0.0000 H   0  0  0  0  0  0  0  0  0  0  0  0
   -4.2868    3.5070    0.0000 H   0  0  0  0  0  0  0  0  0  0  0  0
   -2.6787    0.7215    0.0000 H   0  0  0  0  0  0  0  0  0  0  0  0
   -3.7105   -3.6327    0.0000 H   0  0  0  0  0  0  0  0  0  0  0  0
   -3.7845   -5.4850    0.0000 H   0  0  0  0  0  0  0  0  0  0  0  0
   -2.8579   -6.0200    0.0000 H   0  0  0  0  0  0  0  0  0  0  0  0
   -1.4289   -3.9180    0.0000 H   0  0  0  0  0  0  0  0  0  0  0  0
    0.1792   -4.8465    0.0000 H   0  0  0  0  0  0  0  0  0  0  0  0
    0.1792   -6.7035    0.0000 H   0  0  0  0  0  0  0  0  0  0  0  0
   -3.0371   -6.7035    0.0000 H   0  0  0  0  0  0  0  0  0  0  0  0
  1  2  1  0  0  0  0
  1 29  1  0  0  0  0
  1 30  1  0  0  0  0
  1 31  1  0  0  0  0
  2  3  1  0  0  0  0
  3  4  2  0  0  0  0
  3  8  1  0  0  0  0
  4  5  1  0  0  0  0
  4 32  1  0  0  0  0
  5  6  2  0  0  0  0
  5 33  1  0  0  0  0
  6  7  1  0  0  0  0
  6 19  1  0  0  0  0
  7  8  2  0  0  0  0
  7 34  1  0  0  0  0
  8  9  1  0  0  0  0
  9 10  2  0  0  0  0
  9 11  1  0  0  0  0
 11 12  1  0  0  0  0
 11 35  1  0  0  0  0
 12 13  1  0  0  0  0
 12 36  1  0  0  0  0
 12 37  1  0  0  0  0
 13 14  2  0  0  0  0
 13 18  1  0  0  0  0
 14 15  1  0  0  0  0
 14 38  1  0  0  0  0
 15 16  2  0  0  0  0
 15 39  1  0  0  0  0
 16 17  1  0  0  0  0
 16 40  1  0  0  0  0
 17 18  2  0  0  0  0
 18 41  1  0  0  0  0
 19 20  2  0  0  0  0
 19 21  1  0  0  0  0
 21 22  1  0  0  0  0
 21 42  1  0  0  0  0
 22 23  1  0  0  0  0
 22 43  1  0  0  0  0
 22 44  1  0  0  0  0
 23 24  2  0  0  0  0
 23 28  1  0  0  0  0
 24 25  1  0  0  0  0
 24 45  1  0  0  0  0
 25 26  2  0  0  0  0
 25 46  1  0  0  0  0
 26 27  1  0  0  0  0
 26 47  1  0  0  0  0
 27 28  2  0  0  0  0
 28 48  1  0  0  0  0
M  END
>  <DRUGBANK_ID>
DB13327

>  <COMMON_NAME>
Picotamide

>  <CAS_NUMBER>
32828-81-2

>  <UNII>
654G2VCI4Q

$$$$
