
 OpenBabel10282417072D

 60 60  0  0  0  0  0  0  0  0999 V2000
    5.0013   -7.8375    0.0000 C   0  0  0  0  0  0  0  0  0  0  0  0
    5.7158   -8.2500    0.0000 C   0  0  0  0  0  0  0  0  0  0  0  0
    6.4302   -7.8375    0.0000 C   0  0  0  0  0  0  0  0  0  0  0  0
    7.1447   -8.2500    0.0000 C   0  0  0  0  0  0  0  0  0  0  0  0
    7.8592   -7.8375    0.0000 C   0  0  0  0  0  0  0  0  0  0  0  0
    8.5737   -8.2500    0.0000 C   0  0  0  0  0  0  0  0  0  0  0  0
    9.2881   -7.8375    0.0000 C   0  0  0  0  0  0  0  0  0  0  0  0
   10.0026   -8.2500    0.0000 C   0  0  0  0  0  0  0  0  0  0  0  0
   10.7171   -7.8375    0.0000 C   0  0  0  0  0  0  0  0  0  0  0  0
   11.4315   -8.2500    0.0000 C   0  0  0  0  0  0  0  0  0  0  0  0
   12.1460   -7.8375    0.0000 C   0  0  0  0  0  0  0  0  0  0  0  0
   12.8605   -8.2500    0.0000 C   0  0  0  0  0  0  0  0  0  0  0  0
   13.5749   -7.8375    0.0000 N   0  3  0  0  0  0  0  0  0  0  0  0
   13.9874   -8.5520    0.0000 C   0  0  0  0  0  0  0  0  0  0  0  0
   13.1624   -7.1230    0.0000 C   0  0  0  0  0  0  0  0  0  0  0  0
   14.2894   -7.4250    0.0000 C   0  0  0  0  0  0  0  0  0  0  0  0
   15.0039   -7.8375    0.0000 C   0  0  0  0  0  0  0  0  0  0  0  0
   15.7184   -7.4250    0.0000 C   0  0  0  0  0  0  0  0  0  0  0  0
   16.4328   -7.8375    0.0000 C   0  0  0  0  0  0  0  0  0  0  0  0
   16.4328   -8.6625    0.0000 C   0  0  0  0  0  0  0  0  0  0  0  0
   15.7184   -9.0750    0.0000 C   0  0  0  0  0  0  0  0  0  0  0  0
   15.0039   -8.6625    0.0000 C   0  0  0  0  0  0  0  0  0  0  0  0
    5.0013   -6.7675    0.0000 H   0  0  0  0  0  0  0  0  0  0  0  0
    4.0747   -8.3725    0.0000 H   0  0  0  0  0  0  0  0  0  0  0  0
    4.0746   -7.3025    0.0000 H   0  0  0  0  0  0  0  0  0  0  0  0
    5.7158   -9.3200    0.0000 H   0  0  0  0  0  0  0  0  0  0  0  0
    6.6425   -8.7850    0.0000 H   0  0  0  0  0  0  0  0  0  0  0  0
    6.4302   -6.7675    0.0000 H   0  0  0  0  0  0  0  0  0  0  0  0
    7.3568   -7.3025    0.0000 H   0  0  0  0  0  0  0  0  0  0  0  0
    7.1447   -9.3200    0.0000 H   0  0  0  0  0  0  0  0  0  0  0  0
    8.0713   -8.7850    0.0000 H   0  0  0  0  0  0  0  0  0  0  0  0
    7.8592   -6.7675    0.0000 H   0  0  0  0  0  0  0  0  0  0  0  0
    8.7858   -7.3025    0.0000 H   0  0  0  0  0  0  0  0  0  0  0  0
    8.5737   -9.3200    0.0000 H   0  0  0  0  0  0  0  0  0  0  0  0
    9.5004   -8.7850    0.0000 H   0  0  0  0  0  0  0  0  0  0  0  0
    9.2881   -6.7675    0.0000 H   0  0  0  0  0  0  0  0  0  0  0  0
   10.2147   -7.3025    0.0000 H   0  0  0  0  0  0  0  0  0  0  0  0
   10.0026   -9.3200    0.0000 H   0  0  0  0  0  0  0  0  0  0  0  0
   10.9292   -8.7850    0.0000 H   0  0  0  0  0  0  0  0  0  0  0  0
   10.7171   -6.7675    0.0000 H   0  0  0  0  0  0  0  0  0  0  0  0
   11.6438   -7.3025    0.0000 H   0  0  0  0  0  0  0  0  0  0  0  0
   11.4315   -9.3200    0.0000 H   0  0  0  0  0  0  0  0  0  0  0  0
   12.3581   -8.7850    0.0000 H   0  0  0  0  0  0  0  0  0  0  0  0
   12.1460   -6.7675    0.0000 H   0  0  0  0  0  0  0  0  0  0  0  0
   13.0726   -7.3025    0.0000 H   0  0  0  0  0  0  0  0  0  0  0  0
   12.8605   -9.3200    0.0000 H   0  0  0  0  0  0  0  0  0  0  0  0
   13.7872   -8.7850    0.0000 H   0  0  0  0  0  0  0  0  0  0  0  0
   13.4524   -9.4786    0.0000 H   0  0  0  0  0  0  0  0  0  0  0  0
   15.0574   -8.5520    0.0000 H   0  0  0  0  0  0  0  0  0  0  0  0
   14.5224   -9.4787    0.0000 H   0  0  0  0  0  0  0  0  0  0  0  0
   13.6974   -6.1964    0.0000 H   0  0  0  0  0  0  0  0  0  0  0  0
   12.0924   -7.1230    0.0000 H   0  0  0  0  0  0  0  0  0  0  0  0
   12.6274   -6.1963    0.0000 H   0  0  0  0  0  0  0  0  0  0  0  0
   14.2894   -6.3550    0.0000 H   0  0  0  0  0  0  0  0  0  0  0  0
   15.2160   -6.8900    0.0000 H   0  0  0  0  0  0  0  0  0  0  0  0
   15.7184   -6.3930    0.0000 H   0  0  0  0  0  0  0  0  0  0  0  0
   17.3265   -7.3215    0.0000 H   0  0  0  0  0  0  0  0  0  0  0  0
   17.3265   -9.1785    0.0000 H   0  0  0  0  0  0  0  0  0  0  0  0
   15.7184  -10.1070    0.0000 H   0  0  0  0  0  0  0  0  0  0  0  0
   14.1102   -9.1785    0.0000 H   0  0  0  0  0  0  0  0  0  0  0  0
  1  2  1  0  0  0  0
  1 23  1  0  0  0  0
  1 24  1  0  0  0  0
  1 25  1  0  0  0  0
  2  3  1  0  0  0  0
  2 26  1  0  0  0  0
  2 27  1  0  0  0  0
  3  4  1  0  0  0  0
  3 28  1  0  0  0  0
  3 29  1  0  0  0  0
  4  5  1  0  0  0  0
  4 30  1  0  0  0  0
  4 31  1  0  0  0  0
  5  6  1  0  0  0  0
  5 32  1  0  0  0  0
  5 33  1  0  0  0  0
  6  7  1  0  0  0  0
  6 34  1  0  0  0  0
  6 35  1  0  0  0  0
  7  8  1  0  0  0  0
  7 36  1  0  0  0  0
  7 37  1  0  0  0  0
  8  9  1  0  0  0  0
  8 38  1  0  0  0  0
  8 39  1  0  0  0  0
  9 10  1  0  0  0  0
  9 40  1  0  0  0  0
  9 41  1  0  0  0  0
 10 11  1  0  0  0  0
 10 42  1  0  0  0  0
 10 43  1  0  0  0  0
 11 12  1  0  0  0  0
 11 44  1  0  0  0  0
 11 45  1  0  0  0  0
 12 13  1  0  0  0  0
 12 46  1  0  0  0  0
 12 47  1  0  0  0  0
 13 14  1  0  0  0  0
 13 15  1  0  0  0  0
 13 16  1  0  0  0  0
 14 48  1  0  0  0  0
 14 49  1  0  0  0  0
 14 50  1  0  0  0  0
 15 51  1  0  0  0  0
 15 52  1  0  0  0  0
 15 53  1  0  0  0  0
 16 17  1  0  0  0  0
 16 54  1  0  0  0  0
 16 55  1  0  0  0  0
 17 18  2  0  0  0  0
 17 22  1  0  0  0  0
 18 19  1  0  0  0  0
 18 56  1  0  0  0  0
 19 20  2  0  0  0  0
 19 57  1  0  0  0  0
 20 21  1  0  0  0  0
 20 58  1  0  0  0  0
 21 22  2  0  0  0  0
 21 59  1  0  0  0  0
 22 60  1  0  0  0  0
M  CHG  1  13   1
M  END
>  <DRUGBANK_ID>
DB13282

>  <COMMON_NAME>
Benzododecinium

>  <CAS_NUMBER>
10328-35-5

>  <UNII>
N0BN0O8CSL

$$$$
