839
 OpenBabel10282417072D

 42 43  0  0  0  0  0  0  0  0999 V2000
    4.5080   -1.3162    0.0000 S   0  0  0  0  0  0  0  0  0  0  0  0
    4.5080    0.3339    0.0000 O   0  0  0  0  0  0  0  0  0  0  0  0
    4.0955   -0.6017    0.0000 O   0  0  0  0  0  0  0  0  0  0  0  0
    4.9205   -2.0306    0.0000 O   0  0  0  0  0  0  0  0  0  0  0  0
    5.9370    1.1589    0.0000 N   0  0  0  0  0  0  0  0  0  0  0  0
    5.9370    0.3339    0.0000 N   0  0  0  0  0  0  0  0  0  0  0  0
    5.2224   -0.9036    0.0000 N   0  0  0  0  0  0  0  0  0  0  0  0
    5.5245    2.9662    0.0000 C   0  0  0  0  0  0  0  0  0  0  0  0
    6.3495    2.9662    0.0000 C   0  0  0  0  0  0  0  0  0  0  0  0
    5.0101    2.3212    0.0000 C   0  0  0  0  0  0  0  0  0  0  0  0
    6.8638    2.3212    0.0000 C   0  0  0  0  0  0  0  0  0  0  0  0
    5.1937    1.5169    0.0000 C   0  0  0  0  0  0  0  0  0  0  0  0
    6.6803    1.5169    0.0000 C   0  0  0  0  0  0  0  0  0  0  0  0
    5.2224   -0.0786    0.0000 C   0  0  0  0  0  0  0  0  0  0  0  0
    3.7935   -1.7287    0.0000 C   0  0  0  0  0  0  0  0  0  0  0  0
    3.0791   -1.3162    0.0000 C   0  0  0  0  0  0  0  0  0  0  0  0
    3.7935   -2.5537    0.0000 C   0  0  0  0  0  0  0  0  0  0  0  0
    2.3645   -2.5537    0.0000 C   0  0  0  0  0  0  0  0  0  0  0  0
    2.3645   -1.7287    0.0000 C   0  0  0  0  0  0  0  0  0  0  0  0
    3.0791   -2.9662    0.0000 C   0  0  0  0  0  0  0  0  0  0  0  0
    1.6500   -2.9662    0.0000 C   0  0  0  0  0  0  0  0  0  0  0  0
    6.7896   -0.1584    0.0000 H   0  0  0  0  0  0  0  0  0  0  0  0
    6.0750   -1.3958    0.0000 H   0  0  0  0  0  0  0  0  0  0  0  0
    5.0603    3.9302    0.0000 H   0  0  0  0  0  0  0  0  0  0  0  0
    4.4612    3.0860    0.0000 H   0  0  0  0  0  0  0  0  0  0  0  0
    6.8138    3.9302    0.0000 H   0  0  0  0  0  0  0  0  0  0  0  0
    7.4128    3.0859    0.0000 H   0  0  0  0  0  0  0  0  0  0  0  0
    3.9669    2.5593    0.0000 H   0  0  0  0  0  0  0  0  0  0  0  0
    4.2535    1.5646    0.0000 H   0  0  0  0  0  0  0  0  0  0  0  0
    7.9070    2.5593    0.0000 H   0  0  0  0  0  0  0  0  0  0  0  0
    7.6204    1.5646    0.0000 H   0  0  0  0  0  0  0  0  0  0  0  0
    4.3571    0.8498    0.0000 H   0  0  0  0  0  0  0  0  0  0  0  0
    4.1837    1.8703    0.0000 H   0  0  0  0  0  0  0  0  0  0  0  0
    7.5169    0.8498    0.0000 H   0  0  0  0  0  0  0  0  0  0  0  0
    7.6902    1.8704    0.0000 H   0  0  0  0  0  0  0  0  0  0  0  0
    3.0792   -0.2842    0.0000 H   0  0  0  0  0  0  0  0  0  0  0  0
    4.6872   -3.0697    0.0000 H   0  0  0  0  0  0  0  0  0  0  0  0
    1.4708   -1.2127    0.0000 H   0  0  0  0  0  0  0  0  0  0  0  0
    3.0792   -3.9982    0.0000 H   0  0  0  0  0  0  0  0  0  0  0  0
    0.7234   -2.4312    0.0000 H   0  0  0  0  0  0  0  0  0  0  0  0
    1.6500   -4.0362    0.0000 H   0  0  0  0  0  0  0  0  0  0  0  0
    0.7233   -3.5012    0.0000 H   0  0  0  0  0  0  0  0  0  0  0  0
  1  3  2  0  0  0  0
  1  4  2  0  0  0  0
  1  7  1  0  0  0  0
  1 15  1  0  0  0  0
  2 14  2  0  0  0  0
  5  6  1  0  0  0  0
  5 12  1  0  0  0  0
  5 13  1  0  0  0  0
  6 14  1  0  0  0  0
  6 22  1  0  0  0  0
  7 14  1  0  0  0  0
  7 23  1  0  0  0  0
  8  9  1  0  0  0  0
  8 10  1  0  0  0  0
  8 24  1  0  0  0  0
  8 25  1  0  0  0  0
  9 11  1  0  0  0  0
  9 26  1  0  0  0  0
  9 27  1  0  0  0  0
 10 12  1  0  0  0  0
 10 28  1  0  0  0  0
 10 29  1  0  0  0  0
 11 13  1  0  0  0  0
 11 30  1  0  0  0  0
 11 31  1  0  0  0  0
 12 32  1  0  0  0  0
 12 33  1  0  0  0  0
 13 34  1  0  0  0  0
 13 35  1  0  0  0  0
 15 16  2  0  0  0  0
 15 17  1  0  0  0  0
 16 19  1  0  0  0  0
 16 36  1  0  0  0  0
 17 20  2  0  0  0  0
 17 37  1  0  0  0  0
 18 19  2  0  0  0  0
 18 20  1  0  0  0  0
 18 21  1  0  0  0  0
 19 38  1  0  0  0  0
 20 39  1  0  0  0  0
 21 40  1  0  0  0  0
 21 41  1  0  0  0  0
 21 42  1  0  0  0  0
M  END
>  <DRUGBANK_ID>
DB00839

>  <SECONDARY_ACCESSION_NUMBERS>
APRD01267

>  <COMMON_NAME>
Tolazamide

>  <CAS_NUMBER>
1156-19-0

>  <UNII>
9LT1BRO48Q

>  <SYNONYMS>
1-(Hexahydro-1-azepinyl)-3-p-tolylsulfonylurea; 1-(Hexahydro-1H-azepin-1-yl)-3-(p-tolylsulfonyl)urea; 4-(p-Tolylsulfonyl)-1,1-hexamethylenesemicarbazide; N-(p-Toluenesulfonyl)-N'-hexamethyleniminourea; Tolazamid; Tolazamida; Tolazamide; Tolazamidum

$$$$
