
 OpenBabel10282417072D

 41 42  0  0  0  0  0  0  0  0999 V2000
    4.2086    2.6841    0.0000 C   0  0  0  0  0  0  0  0  0  0  0  0
    0.0783    2.6841    0.0000 C   0  0  0  0  0  0  0  0  0  0  0  0
    3.5955    3.2361    0.0000 C   0  0  0  0  0  0  0  0  0  0  0  0
    0.6914    3.2361    0.0000 C   0  0  0  0  0  0  0  0  0  0  0  0
    1.2460    1.5291    0.0000 C   0  0  0  0  0  0  0  0  0  0  0  0
    0.4255    1.6153    0.0000 C   0  0  0  0  0  0  0  0  0  0  0  0
    4.2868    5.5286    0.0000 C   0  0  0  0  0  0  0  0  0  0  0  0
    2.8579    5.5286    0.0000 C   0  0  0  0  0  0  0  0  0  0  0  0
    3.5724    4.2911    0.0000 C   0  0  0  0  0  0  0  0  0  0  0  0
    3.5724    6.7661    0.0000 C   0  0  0  0  0  0  0  0  0  0  0  0
    5.0013    4.2911    0.0000 C   0  0  0  0  0  0  0  0  0  0  0  0
    3.5724    5.9411    0.0000 C   0  0  0  0  0  0  0  0  0  0  0  0
    4.2868    4.7036    0.0000 C   0  0  0  0  0  0  0  0  0  0  0  0
    2.8579    4.7036    0.0000 C   0  0  0  0  0  0  0  0  0  0  0  0
    2.8109    2.9812    0.0000 C   0  0  0  0  0  0  0  0  0  0  0  0
    1.4760    2.9812    0.0000 C   0  0  0  0  0  0  0  0  0  0  0  0
    2.1434    3.4661    0.0000 C   0  0  0  0  0  0  0  0  0  0  0  0
    3.5724    7.5911    0.0000 N   0  0  0  0  0  0  0  0  0  0  0  0
    5.7158    3.8786    0.0000 N   0  0  0  0  0  0  0  0  0  0  0  0
    2.5559    2.1965    0.0000 N   0  0  0  0  0  0  0  0  0  0  0  0
    1.7309    2.1965    0.0000 N   0  0  0  0  0  0  0  0  0  0  0  0
   -0.0594    0.9479    0.0000 O   0  0  0  0  0  0  0  0  0  0  0  0
    2.1434    4.2911    0.0000 O   0  0  0  0  0  0  0  0  0  0  0  0
    3.9862    1.6375    0.0000 H   0  0  0  0  0  0  0  0  0  0  0  0
    5.2262    3.0148    0.0000 H   0  0  0  0  0  0  0  0  0  0  0  0
    5.0038    1.9682    0.0000 H   0  0  0  0  0  0  0  0  0  0  0  0
   -0.9393    3.0148    0.0000 H   0  0  0  0  0  0  0  0  0  0  0  0
    0.3007    1.6375    0.0000 H   0  0  0  0  0  0  0  0  0  0  0  0
   -0.7169    1.9682    0.0000 H   0  0  0  0  0  0  0  0  0  0  0  0
    3.8180    4.2827    0.0000 H   0  0  0  0  0  0  0  0  0  0  0  0
    2.8003    3.9521    0.0000 H   0  0  0  0  0  0  0  0  0  0  0  0
    0.4689    4.2827    0.0000 H   0  0  0  0  0  0  0  0  0  0  0  0
    1.4866    3.9521    0.0000 H   0  0  0  0  0  0  0  0  0  0  0  0
    1.6812    0.5516    0.0000 H   0  0  0  0  0  0  0  0  0  0  0  0
    2.3101    1.4173    0.0000 H   0  0  0  0  0  0  0  0  0  0  0  0
   -0.0097    2.5928    0.0000 H   0  0  0  0  0  0  0  0  0  0  0  0
   -0.6386    1.7271    0.0000 H   0  0  0  0  0  0  0  0  0  0  0  0
    5.1805    6.0446    0.0000 H   0  0  0  0  0  0  0  0  0  0  0  0
    1.9642    6.0446    0.0000 H   0  0  0  0  0  0  0  0  0  0  0  0
    3.5724    3.2591    0.0000 H   0  0  0  0  0  0  0  0  0  0  0  0
   -1.0241    1.0493    0.0000 H   0  0  0  0  0  0  0  0  0  0  0  0
  1 24  1  0  0  0  0
  1 25  1  0  0  0  0
  1 26  1  0  0  0  0
  2 27  1  0  0  0  0
  2 28  1  0  0  0  0
  2 29  1  0  0  0  0
  3  1  1  0  0  0  0
  3 30  1  0  0  0  0
  3 31  1  0  0  0  0
  4  2  1  0  0  0  0
  4 32  1  0  0  0  0
  4 33  1  0  0  0  0
  5 34  1  0  0  0  0
  5 35  1  0  0  0  0
  6  5  1  0  0  0  0
  6 36  1  0  0  0  0
  6 37  1  0  0  0  0
  7 38  1  0  0  0  0
  8 39  1  0  0  0  0
  9 40  1  0  0  0  0
 12  7  2  0  0  0  0
 12  8  1  0  0  0  0
 12 10  1  0  0  0  0
 13  7  1  0  0  0  0
 13  9  2  0  0  0  0
 13 11  1  0  0  0  0
 14  8  2  0  0  0  0
 14  9  1  0  0  0  0
 15  3  1  0  0  0  0
 16  4  1  0  0  0  0
 17 15  1  0  0  0  0
 17 16  2  0  0  0  0
 18 10  3  0  0  0  0
 19 11  3  0  0  0  0
 20 15  2  0  0  0  0
 21  5  1  0  0  0  0
 21 16  1  0  0  0  0
 21 20  1  0  0  0  0
 22  6  1  0  0  0  0
 22 41  1  0  0  0  0
 23 14  1  0  0  0  0
 23 17  1  0  0  0  0
M  END
>  <DRUGBANK_ID>
DB11649

>  <COMMON_NAME>
Lersivirine

>  <CAS_NUMBER>
473921-12-9

>  <UNII>
R3ZGC15A9A

>  <SYNONYMS>
Lersivirine

$$$$
