
 OpenBabel10282417072D

 55 54  0  0  0  0  0  0  0  0999 V2000
   -5.7332   -0.1570    0.0000 C   0  0  0  0  0  0  0  0  0  0  0  0
   -5.7109    0.6597    0.0000 O   0  0  0  0  0  0  0  0  0  0  0  0
    0.0092   -0.1981    0.0000 C   0  0  0  0  0  0  0  0  0  0  0  0
    0.7190   -0.6186    0.0000 C   0  0  0  0  0  0  0  0  0  0  0  0
   -6.4617   -0.5667    0.0000 N   0  0  0  0  0  0  0  0  0  0  0  0
   -5.0243   -0.5740    0.0000 C   0  0  0  0  0  0  0  0  0  0  0  0
   -0.7183   -0.6112    0.0000 C   0  0  0  0  0  0  0  0  0  0  0  0
    1.4467   -0.2125    0.0000 C   0  0  0  0  0  0  0  0  0  0  0  0
   -4.2956   -0.1712    0.0000 C   0  0  0  0  0  0  0  0  0  0  0  0
   -1.4239   -0.1935    0.0000 C   0  0  0  0  0  0  0  0  0  0  0  0
    2.1524   -0.6303    0.0000 C   0  0  0  0  0  0  0  0  0  0  0  0
    5.7526   -0.2428    0.0000 C   0  0  0  0  0  0  0  0  0  0  0  0
    5.0241   -0.6454    0.0000 C   0  0  0  0  0  0  0  0  0  0  0  0
   -2.1525   -0.5961    0.0000 C   0  0  0  0  0  0  0  0  0  0  0  0
    2.8809   -0.2206    0.0000 C   0  0  0  0  0  0  0  0  0  0  0  0
    3.5900   -0.6374    0.0000 C   0  0  0  0  0  0  0  0  0  0  0  0
    4.3186   -0.2346    0.0000 C   0  0  0  0  0  0  0  0  0  0  0  0
   -3.5900   -0.5892    0.0000 C   0  0  0  0  0  0  0  0  0  0  0  0
   -2.8615   -0.1794    0.0000 C   0  0  0  0  0  0  0  0  0  0  0  0
    6.4617   -0.6597    0.0000 C   0  0  0  0  0  0  0  0  0  0  0  0
    0.0187    0.8339    0.0000 H   0  0  0  0  0  0  0  0  0  0  0  0
    0.7057   -1.6505    0.0000 H   0  0  0  0  0  0  0  0  0  0  0  0
   -7.3087   -0.0649    0.0000 H   0  0  0  0  0  0  0  0  0  0  0  0
   -6.4728   -1.5511    0.0000 H   0  0  0  0  0  0  0  0  0  0  0  0
   -5.0386   -1.6439    0.0000 H   0  0  0  0  0  0  0  0  0  0  0  0
   -4.1063   -1.1238    0.0000 H   0  0  0  0  0  0  0  0  0  0  0  0
   -0.7280   -1.6812    0.0000 H   0  0  0  0  0  0  0  0  0  0  0  0
   -1.6502   -1.1369    0.0000 H   0  0  0  0  0  0  0  0  0  0  0  0
    1.4604    0.8574    0.0000 H   0  0  0  0  0  0  0  0  0  0  0  0
    2.3796    0.3115    0.0000 H   0  0  0  0  0  0  0  0  0  0  0  0
   -4.2796    0.8987    0.0000 H   0  0  0  0  0  0  0  0  0  0  0  0
   -3.3620    0.3516    0.0000 H   0  0  0  0  0  0  0  0  0  0  0  0
   -1.4080    0.8764    0.0000 H   0  0  0  0  0  0  0  0  0  0  0  0
   -2.3414    0.3570    0.0000 H   0  0  0  0  0  0  0  0  0  0  0  0
    2.1405   -1.7002    0.0000 H   0  0  0  0  0  0  0  0  0  0  0  0
    3.0730   -1.1757    0.0000 H   0  0  0  0  0  0  0  0  0  0  0  0
    5.7668    0.8271    0.0000 H   0  0  0  0  0  0  0  0  0  0  0  0
    6.6849    0.2823    0.0000 H   0  0  0  0  0  0  0  0  0  0  0  0
    5.0121   -1.7153    0.0000 H   0  0  0  0  0  0  0  0  0  0  0  0
    4.0935   -1.1735    0.0000 H   0  0  0  0  0  0  0  0  0  0  0  0
   -2.1667   -1.6660    0.0000 H   0  0  0  0  0  0  0  0  0  0  0  0
   -3.0847   -1.1213    0.0000 H   0  0  0  0  0  0  0  0  0  0  0  0
    2.8911    0.8494    0.0000 H   0  0  0  0  0  0  0  0  0  0  0  0
    3.8121    0.3063    0.0000 H   0  0  0  0  0  0  0  0  0  0  0  0
    3.5759   -1.7073    0.0000 H   0  0  0  0  0  0  0  0  0  0  0  0
    4.5080   -1.1870    0.0000 H   0  0  0  0  0  0  0  0  0  0  0  0
    4.3305    0.8353    0.0000 H   0  0  0  0  0  0  0  0  0  0  0  0
    3.4000    0.3141    0.0000 H   0  0  0  0  0  0  0  0  0  0  0  0
   -3.6020   -1.6591    0.0000 H   0  0  0  0  0  0  0  0  0  0  0  0
   -2.6694   -1.1345    0.0000 H   0  0  0  0  0  0  0  0  0  0  0  0
   -2.8514    0.8906    0.0000 H   0  0  0  0  0  0  0  0  0  0  0  0
   -3.7826    0.3651    0.0000 H   0  0  0  0  0  0  0  0  0  0  0  0
    6.4533   -1.7297    0.0000 H   0  0  0  0  0  0  0  0  0  0  0  0
    7.3925   -0.1320    0.0000 H   0  0  0  0  0  0  0  0  0  0  0  0
    7.3841   -1.2020    0.0000 H   0  0  0  0  0  0  0  0  0  0  0  0
  2  1  2  0  0  0  0
  3  7  1  0  0  0  0
  3 21  1  0  0  0  0
  4  3  2  0  0  0  0
  4 22  1  0  0  0  0
  5  1  1  0  0  0  0
  5 23  1  0  0  0  0
  5 24  1  0  0  0  0
  6  1  1  0  0  0  0
  6 25  1  0  0  0  0
  6 26  1  0  0  0  0
  7 10  1  0  0  0  0
  7 27  1  0  0  0  0
  7 28  1  0  0  0  0
  8  4  1  0  0  0  0
  8 29  1  0  0  0  0
  8 30  1  0  0  0  0
  9  6  1  0  0  0  0
  9 31  1  0  0  0  0
  9 32  1  0  0  0  0
 10 14  1  0  0  0  0
 10 33  1  0  0  0  0
 10 34  1  0  0  0  0
 11  8  1  0  0  0  0
 11 35  1  0  0  0  0
 11 36  1  0  0  0  0
 12 13  1  0  0  0  0
 12 37  1  0  0  0  0
 12 38  1  0  0  0  0
 13 17  1  0  0  0  0
 13 39  1  0  0  0  0
 13 40  1  0  0  0  0
 14 19  1  0  0  0  0
 14 41  1  0  0  0  0
 14 42  1  0  0  0  0
 15 11  1  0  0  0  0
 15 43  1  0  0  0  0
 15 44  1  0  0  0  0
 16 15  1  0  0  0  0
 16 45  1  0  0  0  0
 16 46  1  0  0  0  0
 17 16  1  0  0  0  0
 17 47  1  0  0  0  0
 17 48  1  0  0  0  0
 18  9  1  0  0  0  0
 18 49  1  0  0  0  0
 18 50  1  0  0  0  0
 19 18  1  0  0  0  0
 19 51  1  0  0  0  0
 19 52  1  0  0  0  0
 20 12  1  0  0  0  0
 20 53  1  0  0  0  0
 20 54  1  0  0  0  0
 20 55  1  0  0  0  0
M  END
>  <DRUGBANK_ID>
DB03784

>  <SECONDARY_ACCESSION_NUMBERS>
EXPT01336

>  <COMMON_NAME>
Elaidamide

>  <CAS_NUMBER>
4303-70-2

>  <UNII>
GOU8K597IT

$$$$
