
 OpenBabel10282417072D

  9  8  0  0  0  0  0  0  0  0999 V2000
   -0.0000    1.0779    0.0000 S   0  0  0  0  0  0  0  0  0  0  0  0
    0.7622    0.7622    0.0000 S   0  0  0  0  0  0  0  0  0  0  0  0
    1.0779    0.0000    0.0000 S   0  0  0  0  0  0  0  0  0  0  0  0
    0.7622   -0.7622    0.0000 S   0  0  0  0  0  0  0  0  0  0  0  0
    0.0000   -1.0779    0.0000 S   0  0  0  0  0  0  0  0  0  0  0  0
   -0.7622   -0.7622    0.0000 S   0  0  0  0  0  0  0  0  0  0  0  0
   -1.0779   -0.0000    0.0000 S   0  0  0  0  0  0  0  0  0  0  0  0
   -0.7622    0.7622    0.0000 S   0  0  0  0  0  0  0  0  0  0  0  0
    3.5529    0.0000    0.0000 Tc  0  0  0  0  0  0  0  0  0  0  0  0
  1  2  1  0  0  0  0
  1  8  1  0  0  0  0
  2  3  1  0  0  0  0
  3  4  1  0  0  0  0
  4  5  1  0  0  0  0
  5  6  1  0  0  0  0
  6  7  1  0  0  0  0
  7  8  1  0  0  0  0
M  ISO  1   9  99
M  END
>  <DRUGBANK_ID>
DB09397

>  <COMMON_NAME>
Technetium Tc-99m sulfur colloid

>  <UNII>
556Q0P6PB1

>  <SYNONYMS>
Technetium (99mTc) sulfur colloid; Technetium 99m sulfur colloid; Technetium Tc 99m sulfur colloid; Technetium Tc-99m Sulfur Colloid

$$$$
