
 OpenBabel10282417072D

471474  0  0  1  0  0  0  0  0999 V2000
   19.4225   -5.9266    0.0000 C   0  0  0  0  0  0  0  0  0  0  0  0
   19.6081   -5.1227    0.0000 C   0  0  0  0  0  0  0  0  0  0  0  0
   19.0048   -4.5600    0.0000 C   0  0  2  0  0  0  0  0  0  0  0  0
   18.2158   -4.8012    0.0000 C   0  0  0  0  0  0  0  0  0  0  0  0
   19.1904   -3.7562    0.0000 C   0  0  2  0  0  0  0  0  0  0  0  0
   18.5871   -3.1935    0.0000 N   0  0  0  0  0  0  0  0  0  0  0  0
   17.7981   -3.4347    0.0000 C   0  0  0  0  0  0  0  0  0  0  0  0
   17.6125   -4.2385    0.0000 O   0  0  0  0  0  0  0  0  0  0  0  0
   17.1948   -2.8719    0.0000 C   0  0  2  0  0  0  0  0  0  0  0  0
   17.3805   -2.0681    0.0000 C   0  0  0  0  0  0  0  0  0  0  0  0
   16.7771   -1.5054    0.0000 O   0  0  0  0  0  0  0  0  0  0  0  0
   16.4058   -3.1131    0.0000 N   0  0  0  0  0  0  0  0  0  0  0  0
   15.8025   -2.5504    0.0000 C   0  0  0  0  0  0  0  0  0  0  0  0
   15.9881   -1.7466    0.0000 O   0  0  0  0  0  0  0  0  0  0  0  0
   15.0136   -2.7916    0.0000 C   0  0  2  0  0  0  0  0  0  0  0  0
   14.8279   -3.5954    0.0000 C   0  0  0  0  0  0  0  0  0  0  0  0
   15.4313   -4.1581    0.0000 C   0  0  0  0  0  0  0  0  0  0  0  0
   16.2202   -3.9170    0.0000 N   0  0  0  0  0  0  0  0  0  0  0  0
   15.2456   -4.9619    0.0000 O   0  0  0  0  0  0  0  0  0  0  0  0
   14.4102   -2.2289    0.0000 N   0  0  0  0  0  0  0  0  0  0  0  0
   13.6212   -2.4700    0.0000 C   0  0  0  0  0  0  0  0  0  0  0  0
   13.4356   -3.2739    0.0000 O   0  0  0  0  0  0  0  0  0  0  0  0
   13.0179   -1.9073    0.0000 C   0  0  2  0  0  0  0  0  0  0  0  0
   13.2035   -1.1035    0.0000 C   0  0  0  0  0  0  0  0  0  0  0  0
   13.9925   -0.8624    0.0000 C   0  0  0  0  0  0  0  0  0  0  0  0
   14.1782   -0.0585    0.0000 C   0  0  0  0  0  0  0  0  0  0  0  0
   14.5959   -1.4250    0.0000 C   0  0  0  0  0  0  0  0  0  0  0  0
   12.2290   -2.1485    0.0000 N   0  0  0  0  0  0  0  0  0  0  0  0
   11.6256   -1.5858    0.0000 C   0  0  0  0  0  0  0  0  0  0  0  0
   11.8113   -0.7820    0.0000 O   0  0  0  0  0  0  0  0  0  0  0  0
   10.8366   -1.8270    0.0000 C   0  0  2  0  0  0  0  0  0  0  0  0
   10.6510   -2.6308    0.0000 C   0  0  0  0  0  0  0  0  0  0  0  0
   11.2543   -3.1935    0.0000 C   0  0  0  0  0  0  0  0  0  0  0  0
   12.0433   -2.9524    0.0000 C   0  0  0  0  0  0  0  0  0  0  0  0
   12.6467   -3.5150    0.0000 C   0  0  0  0  0  0  0  0  0  0  0  0
   12.4610   -4.3189    0.0000 C   0  0  0  0  0  0  0  0  0  0  0  0
   13.0643   -4.8816    0.0000 O   0  0  0  0  0  0  0  0  0  0  0  0
   11.6720   -4.5600    0.0000 C   0  0  0  0  0  0  0  0  0  0  0  0
   11.0687   -3.9973    0.0000 C   0  0  0  0  0  0  0  0  0  0  0  0
   10.2333   -1.2643    0.0000 N   0  0  0  0  0  0  0  0  0  0  0  0
    9.4444   -1.5054    0.0000 C   0  0  0  0  0  0  0  0  0  0  0  0
    9.2587   -2.3093    0.0000 O   0  0  0  0  0  0  0  0  0  0  0  0
    8.8411   -0.9427    0.0000 C   0  0  2  0  0  0  0  0  0  0  0  0
    9.0267   -0.1389    0.0000 C   0  0  0  0  0  0  0  0  0  0  0  0
    8.4234    0.4237    0.0000 C   0  0  0  0  0  0  0  0  0  0  0  0
    8.6090    1.2275    0.0000 C   0  0  0  0  0  0  0  0  0  0  0  0
    8.0057    1.7902    0.0000 C   0  0  0  0  0  0  0  0  0  0  0  0
    8.1913    2.5941    0.0000 N   0  0  0  0  0  0  0  0  0  0  0  0
    8.0521   -1.1839    0.0000 N   0  0  0  0  0  0  0  0  0  0  0  0
    7.4487   -0.6212    0.0000 C   0  0  0  0  0  0  0  0  0  0  0  0
    7.6344    0.1825    0.0000 O   0  0  0  0  0  0  0  0  0  0  0  0
    6.6598   -0.8624    0.0000 C   0  0  2  0  0  0  0  0  0  0  0  0
    6.4741   -1.6662    0.0000 C   0  0  0  0  0  0  0  0  0  0  0  0
    7.0774   -2.2289    0.0000 C   0  0  0  0  0  0  0  0  0  0  0  0
    6.8918   -3.0327    0.0000 C   0  0  0  0  0  0  0  0  0  0  0  0
    7.4951   -3.5954    0.0000 C   0  0  0  0  0  0  0  0  0  0  0  0
    7.3095   -4.3993    0.0000 N   0  0  0  0  0  0  0  0  0  0  0  0
    6.0564   -0.2997    0.0000 N   0  0  0  0  0  0  0  0  0  0  0  0
    5.2675   -0.5408    0.0000 C   0  0  0  0  0  0  0  0  0  0  0  0
    5.0818   -1.3447    0.0000 O   0  0  0  0  0  0  0  0  0  0  0  0
    4.6641    0.0218    0.0000 C   0  0  1  0  0  0  0  0  0  0  0  0
    3.8752   -0.2193    0.0000 N   0  0  0  0  0  0  0  0  0  0  0  0
    3.2718    0.3433    0.0000 C   0  0  0  0  0  0  0  0  0  0  0  0
    3.4575    1.1472    0.0000 O   0  0  0  0  0  0  0  0  0  0  0  0
    2.4829    0.1021    0.0000 C   0  0  2  0  0  0  0  0  0  0  0  0
    2.2973   -0.7016    0.0000 C   0  0  0  0  0  0  0  0  0  0  0  0
    1.8796    0.6649    0.0000 N   0  0  0  0  0  0  0  0  0  0  0  0
    1.0906    0.4237    0.0000 C   0  0  0  0  0  0  0  0  0  0  0  0
    0.9049   -0.3801    0.0000 O   0  0  0  0  0  0  0  0  0  0  0  0
    0.4872    0.9864    0.0000 C   0  0  2  0  0  0  0  0  0  0  0  0
    0.6729    1.7902    0.0000 C   0  0  0  0  0  0  0  0  0  0  0  0
    1.4619    2.0314    0.0000 C   0  0  0  0  0  0  0  0  0  0  0  0
    1.6475    2.8352    0.0000 S   0  0  0  0  0  0  0  0  0  0  0  0
    2.4365    3.0764    0.0000 C   0  0  0  0  0  0  0  0  0  0  0  0
   -0.3016    0.7452    0.0000 N   0  0  0  0  0  0  0  0  0  0  0  0
   -0.9049    1.3079    0.0000 C   0  0  0  0  0  0  0  0  0  0  0  0
   -0.7193    2.1118    0.0000 O   0  0  0  0  0  0  0  0  0  0  0  0
   -1.6939    1.0667    0.0000 C   0  0  2  0  0  0  0  0  0  0  0  0
   -1.8796    0.2629    0.0000 C   0  0  0  0  0  0  0  0  0  0  0  0
   -1.2762   -0.2997    0.0000 C   0  0  0  0  0  0  0  0  0  0  0  0
   -1.4619   -1.1035    0.0000 C   0  0  0  0  0  0  0  0  0  0  0  0
   -2.2508   -1.3447    0.0000 N   0  0  0  0  0  0  0  0  0  0  0  0
   -0.8585   -1.6662    0.0000 O   0  0  0  0  0  0  0  0  0  0  0  0
   -2.2973    1.6295    0.0000 N   0  0  0  0  0  0  0  0  0  0  0  0
   -3.0862    1.3883    0.0000 C   0  0  0  0  0  0  0  0  0  0  0  0
   -3.2718    0.5844    0.0000 O   0  0  0  0  0  0  0  0  0  0  0  0
   -3.6895    1.9510    0.0000 C   0  0  2  0  0  0  0  0  0  0  0  0
   -3.5039    2.7548    0.0000 C   0  0  0  0  0  0  0  0  0  0  0  0
   -4.1072    3.3175    0.0000 C   0  0  0  0  0  0  0  0  0  0  0  0
   -3.9216    4.1214    0.0000 C   0  0  0  0  0  0  0  0  0  0  0  0
   -4.5249    4.6840    0.0000 C   0  0  0  0  0  0  0  0  0  0  0  0
   -4.3393    5.4879    0.0000 N   0  0  0  0  0  0  0  0  0  0  0  0
   -4.4785    1.7099    0.0000 N   0  0  0  0  0  0  0  0  0  0  0  0
   -5.0818    2.2725    0.0000 C   0  0  0  0  0  0  0  0  0  0  0  0
   -4.8962    3.0764    0.0000 O   0  0  0  0  0  0  0  0  0  0  0  0
   -5.8708    2.0314    0.0000 C   0  0  2  0  0  0  0  0  0  0  0  0
   -6.0564    1.2275    0.0000 C   0  0  0  0  0  0  0  0  0  0  0  0
   -6.8454    0.9864    0.0000 C   0  0  0  0  0  0  0  0  0  0  0  0
   -7.0310    0.1825    0.0000 C   0  0  0  0  0  0  0  0  0  0  0  0
   -7.8200   -0.0585    0.0000 N   0  0  0  0  0  0  0  0  0  0  0  0
   -8.0057   -0.8624    0.0000 C   0  0  0  0  0  0  0  0  0  0  0  0
   -7.4023   -1.4250    0.0000 N   0  0  0  0  0  0  0  0  0  0  0  0
   -8.7946   -1.1035    0.0000 N   0  0  0  0  0  0  0  0  0  0  0  0
   -6.4741    2.5941    0.0000 N   0  0  0  0  0  0  0  0  0  0  0  0
   -7.2631    2.3529    0.0000 C   0  0  0  0  0  0  0  0  0  0  0  0
   -7.4487    1.5491    0.0000 O   0  0  0  0  0  0  0  0  0  0  0  0
   -7.8664    2.9156    0.0000 C   0  0  2  0  0  0  0  0  0  0  0  0
   -7.6808    3.7194    0.0000 C   0  0  0  0  0  0  0  0  0  0  0  0
   -6.8918    3.9606    0.0000 C   0  0  0  0  0  0  0  0  0  0  0  0
   -6.7062    4.7645    0.0000 C   0  0  0  0  0  0  0  0  0  0  0  0
   -6.2885    3.3979    0.0000 C   0  0  0  0  0  0  0  0  0  0  0  0
   -8.6554    2.6745    0.0000 N   0  0  0  0  0  0  0  0  0  0  0  0
   -9.2587    3.2371    0.0000 C   0  0  0  0  0  0  0  0  0  0  0  0
   -9.0731    4.0410    0.0000 O   0  0  0  0  0  0  0  0  0  0  0  0
  -10.0477    2.9960    0.0000 C   0  0  2  0  0  0  0  0  0  0  0  0
  -10.2333    2.1922    0.0000 C   0  0  0  0  0  0  0  0  0  0  0  0
  -11.0223    1.9510    0.0000 C   0  0  0  0  0  0  0  0  0  0  0  0
  -11.2080    1.1472    0.0000 C   0  0  0  0  0  0  0  0  0  0  0  0
  -11.9969    0.9060    0.0000 N   0  0  0  0  0  0  0  0  0  0  0  0
  -12.1825    0.1021    0.0000 C   0  0  0  0  0  0  0  0  0  0  0  0
  -11.5792   -0.4604    0.0000 N   0  0  0  0  0  0  0  0  0  0  0  0
  -12.9715   -0.1389    0.0000 N   0  0  0  0  0  0  0  0  0  0  0  0
  -10.6510    3.5587    0.0000 N   0  0  0  0  0  0  0  0  0  0  0  0
  -11.4400    3.3175    0.0000 C   0  0  0  0  0  0  0  0  0  0  0  0
  -11.6256    2.5137    0.0000 O   0  0  0  0  0  0  0  0  0  0  0  0
  -12.0433    3.8802    0.0000 C   0  0  1  0  0  0  0  0  0  0  0  0
  -12.8323    3.6391    0.0000 N   0  0  0  0  0  0  0  0  0  0  0  0
  -13.4356    4.2017    0.0000 C   0  0  0  0  0  0  0  0  0  0  0  0
  -13.2500    5.0056    0.0000 O   0  0  0  0  0  0  0  0  0  0  0  0
  -14.2246    3.9606    0.0000 C   0  0  2  0  0  0  0  0  0  0  0  0
  -14.4102    3.1568    0.0000 C   0  0  0  0  0  0  0  0  0  0  0  0
  -13.8069    2.5941    0.0000 C   0  0  0  0  0  0  0  0  0  0  0  0
  -13.0179    2.8352    0.0000 C   0  0  0  0  0  0  0  0  0  0  0  0
  -12.4146    2.2725    0.0000 C   0  0  0  0  0  0  0  0  0  0  0  0
  -12.6002    1.4687    0.0000 C   0  0  0  0  0  0  0  0  0  0  0  0
  -12.4429    0.6589    0.0000 O   0  0  0  0  0  0  0  0  0  0  0  0
  -13.3892    1.2275    0.0000 C   0  0  0  0  0  0  0  0  0  0  0  0
  -13.9925    1.7902    0.0000 C   0  0  0  0  0  0  0  0  0  0  0  0
  -14.8279    4.5233    0.0000 N   0  0  0  0  0  0  0  0  0  0  0  0
  -15.6169    4.2822    0.0000 C   0  0  0  0  0  0  0  0  0  0  0  0
  -15.8025    3.4783    0.0000 O   0  0  0  0  0  0  0  0  0  0  0  0
  -16.2202    4.8448    0.0000 C   0  0  2  0  0  0  0  0  0  0  0  0
  -16.0346    5.6487    0.0000 C   0  0  0  0  0  0  0  0  0  0  0  0
  -15.2456    5.8898    0.0000 C   0  0  0  0  0  0  0  0  0  0  0  0
  -14.6423    5.3271    0.0000 N   0  0  0  0  0  0  0  0  0  0  0  0
  -15.0600    6.6937    0.0000 O   0  0  0  0  0  0  0  0  0  0  0  0
  -17.0091    4.6037    0.0000 N   0  0  0  0  0  0  0  0  0  0  0  0
  -17.6125    5.1664    0.0000 C   0  0  0  0  0  0  0  0  0  0  0  0
  -17.4268    5.9702    0.0000 O   0  0  0  0  0  0  0  0  0  0  0  0
  -18.4015    4.9252    0.0000 C   0  0  2  0  0  0  0  0  0  0  0  0
  -18.5871    4.1214    0.0000 C   0  0  0  0  0  0  0  0  0  0  0  0
  -17.9838    3.5587    0.0000 C   0  0  0  0  0  0  0  0  0  0  0  0
  -17.1948    3.7999    0.0000 O   0  0  0  0  0  0  0  0  0  0  0  0
  -18.1694    2.7548    0.0000 O   0  0  0  0  0  0  0  0  0  0  0  0
  -19.0048    5.4879    0.0000 N   0  0  0  0  0  0  0  0  0  0  0  0
  -19.7937    5.2468    0.0000 C   0  0  0  0  0  0  0  0  0  0  0  0
  -19.9794    4.4429    0.0000 O   0  0  0  0  0  0  0  0  0  0  0  0
  -20.3971    5.8094    0.0000 C   0  0  1  0  0  0  0  0  0  0  0  0
  -21.1861    5.5683    0.0000 N   0  0  0  0  0  0  0  0  0  0  0  0
  -21.7894    6.1310    0.0000 C   0  0  0  0  0  0  0  0  0  0  0  0
  -21.6038    6.9348    0.0000 O   0  0  0  0  0  0  0  0  0  0  0  0
  -22.5784    5.8898    0.0000 C   0  0  2  0  0  0  0  0  0  0  0  0
  -23.1817    6.4525    0.0000 C   0  0  0  0  0  0  0  0  0  0  0  0
  -23.9706    6.2114    0.0000 C   0  0  0  0  0  0  0  0  0  0  0  0
  -24.1563    5.4075    0.0000 C   0  0  0  0  0  0  0  0  0  0  0  0
  -24.9453    5.1664    0.0000 C   0  0  0  0  0  0  0  0  0  0  0  0
  -25.5486    5.7291    0.0000 C   0  0  0  0  0  0  0  0  0  0  0  0
  -25.3630    6.5329    0.0000 C   0  0  0  0  0  0  0  0  0  0  0  0
  -24.5740    6.7740    0.0000 C   0  0  0  0  0  0  0  0  0  0  0  0
  -22.7640    5.0860    0.0000 N   0  0  0  0  0  0  0  0  0  0  0  0
  -22.1607    4.5233    0.0000 C   0  0  0  0  0  0  0  0  0  0  0  0
  -21.3717    4.7645    0.0000 O   0  0  0  0  0  0  0  0  0  0  0  0
  -22.3463    3.7194    0.0000 C   0  0  1  0  0  0  0  0  0  0  0  0
  -21.7430    3.1568    0.0000 N   0  0  0  0  0  0  0  0  0  0  0  0
  -21.9286    2.3529    0.0000 C   0  0  0  0  0  0  0  0  0  0  0  0
  -22.7176    2.1118    0.0000 O   0  0  0  0  0  0  0  0  0  0  0  0
  -21.3253    1.7902    0.0000 C   0  0  2  0  0  0  0  0  0  0  0  0
  -20.5363    2.0314    0.0000 C   0  0  0  0  0  0  0  0  0  0  0  0
  -21.5109    0.9864    0.0000 N   0  0  0  0  0  0  0  0  0  0  0  0
  -20.9076    0.4237    0.0000 C   0  0  0  0  0  0  0  0  0  0  0  0
  -20.1186    0.6649    0.0000 O   0  0  0  0  0  0  0  0  0  0  0  0
  -21.0932   -0.3801    0.0000 C   0  0  2  0  0  0  0  0  0  0  0  0
  -21.8822   -0.6212    0.0000 C   0  0  0  0  0  0  0  0  0  0  0  0
  -22.4855   -0.0585    0.0000 C   0  0  0  0  0  0  0  0  0  0  0  0
  -23.2745   -0.2997    0.0000 O   0  0  0  0  0  0  0  0  0  0  0  0
  -22.2999    0.7452    0.0000 O   0  0  0  0  0  0  0  0  0  0  0  0
  -20.4899   -0.9427    0.0000 N   0  0  0  0  0  0  0  0  0  0  0  0
  -20.6756   -1.7466    0.0000 C   0  0  0  0  0  0  0  0  0  0  0  0
  -21.4645   -1.9877    0.0000 O   0  0  0  0  0  0  0  0  0  0  0  0
  -20.0722   -2.3093    0.0000 C   0  0  2  0  0  0  0  0  0  0  0  0
  -19.2833   -2.0681    0.0000 C   0  0  0  0  0  0  0  0  0  0  0  0
  -19.0976   -1.2643    0.0000 O   0  0  0  0  0  0  0  0  0  0  0  0
  -20.2579   -3.1131    0.0000 N   0  0  0  0  0  0  0  0  0  0  0  0
  -19.6546   -3.6758    0.0000 C   0  0  0  0  0  0  0  0  0  0  0  0
  -18.8656   -3.4347    0.0000 O   0  0  0  0  0  0  0  0  0  0  0  0
  -19.8402   -4.4796    0.0000 C   0  0  1  0  0  0  0  0  0  0  0  0
  -20.6291   -4.7208    0.0000 N   0  0  0  0  0  0  0  0  0  0  0  0
  -19.2369   -5.0423    0.0000 C   0  0  0  0  0  0  0  0  0  0  0  0
  -19.4225   -5.8462    0.0000 C   0  0  0  0  0  0  0  0  0  0  0  0
  -20.1819   -6.1685    0.0000 C   0  0  0  0  0  0  0  0  0  0  0  0
  -20.1101   -6.9904    0.0000 N   0  0  0  0  0  0  0  0  0  0  0  0
  -19.3062   -7.1760    0.0000 C   0  0  0  0  0  0  0  0  0  0  0  0
  -18.8813   -6.4688    0.0000 N   0  0  0  0  0  0  0  0  0  0  0  0
  -23.1353    3.4783    0.0000 C   0  0  0  0  0  0  0  0  0  0  0  0
  -23.3209    2.6745    0.0000 C   0  0  0  0  0  0  0  0  0  0  0  0
  -23.7386    4.0410    0.0000 C   0  0  0  0  0  0  0  0  0  0  0  0
  -20.2114    6.6133    0.0000 C   0  0  1  0  0  0  0  0  0  0  0  0
  -20.8148    7.1760    0.0000 C   0  0  0  0  0  0  0  0  0  0  0  0
  -19.4225    6.8544    0.0000 O   0  0  0  0  0  0  0  0  0  0  0  0
  -11.8577    4.6840    0.0000 C   0  0  1  0  0  0  0  0  0  0  0  0
  -11.0687    4.9252    0.0000 C   0  0  0  0  0  0  0  0  0  0  0  0
  -12.4610    5.2468    0.0000 O   0  0  0  0  0  0  0  0  0  0  0  0
    4.8498    0.8256    0.0000 C   0  0  0  0  0  0  0  0  0  0  0  0
    4.2465    1.3883    0.0000 C   0  0  0  0  0  0  0  0  0  0  0  0
    5.6388    1.0667    0.0000 C   0  0  0  0  0  0  0  0  0  0  0  0
   19.9794   -3.5150    0.0000 C   0  0  0  0  0  0  0  0  0  0  0  0
   20.1650   -2.7112    0.0000 O   0  0  0  0  0  0  0  0  0  0  0  0
   20.5827   -4.0777    0.0000 N   0  0  0  0  0  0  0  0  0  0  0  0
   21.3717   -3.8365    0.0000 C   0  0  1  0  0  0  0  0  0  0  0  0
   21.5574   -3.0327    0.0000 C   0  0  0  0  0  0  0  0  0  0  0  0
   22.3463   -2.7916    0.0000 C   0  0  0  0  0  0  0  0  0  0  0  0
   22.5319   -1.9877    0.0000 C   0  0  0  0  0  0  0  0  0  0  0  0
   22.9496   -3.3542    0.0000 C   0  0  0  0  0  0  0  0  0  0  0  0
   21.9750   -4.3993    0.0000 C   0  0  0  0  0  0  0  0  0  0  0  0
   21.7894   -5.2031    0.0000 O   0  0  0  0  0  0  0  0  0  0  0  0
   22.7640   -4.1581    0.0000 N   0  0  0  0  0  0  0  0  0  0  0  0
   23.3673   -4.7208    0.0000 C   0  0  1  0  0  0  0  0  0  0  0  0
   24.1563   -4.4796    0.0000 C   0  0  0  0  0  0  0  0  0  0  0  0
   24.7596   -5.0423    0.0000 C   0  0  0  0  0  0  0  0  0  0  0  0
   25.5486   -4.8012    0.0000 N   0  0  0  0  0  0  0  0  0  0  0  0
   24.5740   -5.8462    0.0000 O   0  0  0  0  0  0  0  0  0  0  0  0
   23.1817   -5.5246    0.0000 C   0  0  0  0  0  0  0  0  0  0  0  0
   23.7850   -6.0874    0.0000 O   0  0  0  0  0  0  0  0  0  0  0  0
   22.3927   -5.7658    0.0000 O   0  0  0  0  0  0  0  0  0  0  0  0
   18.3993   -6.2394    0.0000 H   0  0  0  0  0  0  0  0  0  0  0  0
   20.2050   -6.6563    0.0000 H   0  0  0  0  0  0  0  0  0  0  0  0
   19.1818   -6.9692    0.0000 H   0  0  0  0  0  0  0  0  0  0  0  0
   20.6314   -4.8099    0.0000 H   0  0  0  0  0  0  0  0  0  0  0  0
   19.8489   -4.0801    0.0000 H   0  0  0  0  0  0  0  0  0  0  0  0
   18.7640   -5.6026    0.0000 H   0  0  0  0  0  0  0  0  0  0  0  0
   17.4333   -4.0714    0.0000 H   0  0  0  0  0  0  0  0  0  0  0  0
   17.9751   -5.8438    0.0000 H   0  0  0  0  0  0  0  0  0  0  0  0
   17.1925   -5.1140    0.0000 H   0  0  0  0  0  0  0  0  0  0  0  0
   18.1671   -4.0690    0.0000 H   0  0  0  0  0  0  0  0  0  0  0  0
   18.8086   -2.2342    0.0000 H   0  0  0  0  0  0  0  0  0  0  0  0
   16.9540   -3.9145    0.0000 H   0  0  0  0  0  0  0  0  0  0  0  0
   18.4038   -1.7553    0.0000 H   0  0  0  0  0  0  0  0  0  0  0  0
   17.6213   -1.0255    0.0000 H   0  0  0  0  0  0  0  0  0  0  0  0
   16.9953   -0.5603    0.0000 H   0  0  0  0  0  0  0  0  0  0  0  0
   16.1843   -4.0724    0.0000 H   0  0  0  0  0  0  0  0  0  0  0  0
   15.2543   -1.7490    0.0000 H   0  0  0  0  0  0  0  0  0  0  0  0
   13.8046   -3.9082    0.0000 H   0  0  0  0  0  0  0  0  0  0  0  0
   14.5871   -4.6380    0.0000 H   0  0  0  0  0  0  0  0  0  0  0  0
   16.9401   -4.5885    0.0000 H   0  0  0  0  0  0  0  0  0  0  0  0
   16.4418   -2.9578    0.0000 H   0  0  0  0  0  0  0  0  0  0  0  0
   14.6317   -1.2697    0.0000 H   0  0  0  0  0  0  0  0  0  0  0  0
   12.7772   -2.9499    0.0000 H   0  0  0  0  0  0  0  0  0  0  0  0
   12.4210   -0.3737    0.0000 H   0  0  0  0  0  0  0  0  0  0  0  0
   13.4443   -0.0610    0.0000 H   0  0  0  0  0  0  0  0  0  0  0  0
   15.0158   -0.5496    0.0000 H   0  0  0  0  0  0  0  0  0  0  0  0
   15.2015    0.2542    0.0000 H   0  0  0  0  0  0  0  0  0  0  0  0
   13.3957    0.6713    0.0000 H   0  0  0  0  0  0  0  0  0  0  0  0
   14.4190    0.9840    0.0000 H   0  0  0  0  0  0  0  0  0  0  0  0
   14.3553   -2.4676    0.0000 H   0  0  0  0  0  0  0  0  0  0  0  0
   15.6191   -1.1121    0.0000 H   0  0  0  0  0  0  0  0  0  0  0  0
   15.3785   -2.1547    0.0000 H   0  0  0  0  0  0  0  0  0  0  0  0
   12.0075   -3.1078    0.0000 H   0  0  0  0  0  0  0  0  0  0  0  0
   11.0774   -0.7844    0.0000 H   0  0  0  0  0  0  0  0  0  0  0  0
    9.6277   -2.9436    0.0000 H   0  0  0  0  0  0  0  0  0  0  0  0
   10.4102   -3.6734    0.0000 H   0  0  0  0  0  0  0  0  0  0  0  0
   12.2755   -1.9469    0.0000 H   0  0  0  0  0  0  0  0  0  0  0  0
   13.6336   -3.2133    0.0000 H   0  0  0  0  0  0  0  0  0  0  0  0
   12.8534   -5.7946    0.0000 H   0  0  0  0  0  0  0  0  0  0  0  0
   11.4397   -5.5655    0.0000 H   0  0  0  0  0  0  0  0  0  0  0  0
   10.0818   -4.2990    0.0000 H   0  0  0  0  0  0  0  0  0  0  0  0
   10.4549   -0.3051    0.0000 H   0  0  0  0  0  0  0  0  0  0  0  0
    8.6003   -1.9853    0.0000 H   0  0  0  0  0  0  0  0  0  0  0  0
   10.0500    0.1739    0.0000 H   0  0  0  0  0  0  0  0  0  0  0  0
    9.2674    0.9037    0.0000 H   0  0  0  0  0  0  0  0  0  0  0  0
    7.4001    0.1109    0.0000 H   0  0  0  0  0  0  0  0  0  0  0  0
    7.6409    1.1535    0.0000 H   0  0  0  0  0  0  0  0  0  0  0  0
    9.6323    1.5403    0.0000 H   0  0  0  0  0  0  0  0  0  0  0  0
    8.8498    2.2701    0.0000 H   0  0  0  0  0  0  0  0  0  0  0  0
    6.9824    1.4774    0.0000 H   0  0  0  0  0  0  0  0  0  0  0  0
    7.2232    2.5200    0.0000 H   0  0  0  0  0  0  0  0  0  0  0  0
    9.1667    2.8923    0.0000 H   0  0  0  0  0  0  0  0  0  0  0  0
    7.4453    3.2897    0.0000 H   0  0  0  0  0  0  0  0  0  0  0  0
    7.8306   -2.1432    0.0000 H   0  0  0  0  0  0  0  0  0  0  0  0
    6.9005    0.1802    0.0000 H   0  0  0  0  0  0  0  0  0  0  0  0
    5.4508   -1.9789    0.0000 H   0  0  0  0  0  0  0  0  0  0  0  0
    6.2333   -2.7087    0.0000 H   0  0  0  0  0  0  0  0  0  0  0  0
    8.1007   -1.9161    0.0000 H   0  0  0  0  0  0  0  0  0  0  0  0
    7.8599   -2.9587    0.0000 H   0  0  0  0  0  0  0  0  0  0  0  0
    5.8685   -3.3455    0.0000 H   0  0  0  0  0  0  0  0  0  0  0  0
    6.6510   -4.0753    0.0000 H   0  0  0  0  0  0  0  0  0  0  0  0
    8.5184   -3.2826    0.0000 H   0  0  0  0  0  0  0  0  0  0  0  0
    8.2776   -4.3252    0.0000 H   0  0  0  0  0  0  0  0  0  0  0  0
    6.3341   -4.6975    0.0000 H   0  0  0  0  0  0  0  0  0  0  0  0
    8.0555   -5.0949    0.0000 H   0  0  0  0  0  0  0  0  0  0  0  0
    6.2779    0.6596    0.0000 H   0  0  0  0  0  0  0  0  0  0  0  0
    4.4234   -1.0208    0.0000 H   0  0  0  0  0  0  0  0  0  0  0  0
    3.6537   -1.1786    0.0000 H   0  0  0  0  0  0  0  0  0  0  0  0
    3.2654   -0.6277    0.0000 H   0  0  0  0  0  0  0  0  0  0  0  0
    1.2740   -1.0144    0.0000 H   0  0  0  0  0  0  0  0  0  0  0  0
    3.0798   -1.4314    0.0000 H   0  0  0  0  0  0  0  0  0  0  0  0
    2.0565   -1.7442    0.0000 H   0  0  0  0  0  0  0  0  0  0  0  0
    2.1012    1.6241    0.0000 H   0  0  0  0  0  0  0  0  0  0  0  0
    0.2465   -0.0562    0.0000 H   0  0  0  0  0  0  0  0  0  0  0  0
   -0.1096    2.5200    0.0000 H   0  0  0  0  0  0  0  0  0  0  0  0
    0.9137    2.8328    0.0000 H   0  0  0  0  0  0  0  0  0  0  0  0
    2.2444    1.3016    0.0000 H   0  0  0  0  0  0  0  0  0  0  0  0
    2.4852    2.3442    0.0000 H   0  0  0  0  0  0  0  0  0  0  0  0
    3.2190    2.3466    0.0000 H   0  0  0  0  0  0  0  0  0  0  0  0
    2.6772    4.1190    0.0000 H   0  0  0  0  0  0  0  0  0  0  0  0
    3.4598    3.3892    0.0000 H   0  0  0  0  0  0  0  0  0  0  0  0
   -0.5231   -0.2141    0.0000 H   0  0  0  0  0  0  0  0  0  0  0  0
   -1.4531    2.1093    0.0000 H   0  0  0  0  0  0  0  0  0  0  0  0
   -2.9029   -0.0499    0.0000 H   0  0  0  0  0  0  0  0  0  0  0  0
   -2.1203   -0.7797    0.0000 H   0  0  0  0  0  0  0  0  0  0  0  0
   -0.2529    0.0131    0.0000 H   0  0  0  0  0  0  0  0  0  0  0  0
   -0.4937   -1.0295    0.0000 H   0  0  0  0  0  0  0  0  0  0  0  0
   -2.9708   -0.6733    0.0000 H   0  0  0  0  0  0  0  0  0  0  0  0
   -2.4723   -2.3040    0.0000 H   0  0  0  0  0  0  0  0  0  0  0  0
   -2.0758    2.5888    0.0000 H   0  0  0  0  0  0  0  0  0  0  0  0
   -3.9303    0.9085    0.0000 H   0  0  0  0  0  0  0  0  0  0  0  0
   -2.4806    3.0676    0.0000 H   0  0  0  0  0  0  0  0  0  0  0  0
   -3.2631    3.7974    0.0000 H   0  0  0  0  0  0  0  0  0  0  0  0
   -5.1305    3.0047    0.0000 H   0  0  0  0  0  0  0  0  0  0  0  0
   -4.8897    4.0473    0.0000 H   0  0  0  0  0  0  0  0  0  0  0  0
   -2.8984    4.4342    0.0000 H   0  0  0  0  0  0  0  0  0  0  0  0
   -3.6809    5.1640    0.0000 H   0  0  0  0  0  0  0  0  0  0  0  0
   -5.5481    4.3712    0.0000 H   0  0  0  0  0  0  0  0  0  0  0  0
   -5.3074    5.4137    0.0000 H   0  0  0  0  0  0  0  0  0  0  0  0
   -3.3639    5.7861    0.0000 H   0  0  0  0  0  0  0  0  0  0  0  0
   -5.0853    6.1835    0.0000 H   0  0  0  0  0  0  0  0  0  0  0  0
   -4.7000    0.7506    0.0000 H   0  0  0  0  0  0  0  0  0  0  0  0
   -5.6300    3.0739    0.0000 H   0  0  0  0  0  0  0  0  0  0  0  0
   -5.2739    0.4977    0.0000 H   0  0  0  0  0  0  0  0  0  0  0  0
   -6.2972    0.1849    0.0000 H   0  0  0  0  0  0  0  0  0  0  0  0
   -7.6279    1.7162    0.0000 H   0  0  0  0  0  0  0  0  0  0  0  0
   -7.8687    0.6736    0.0000 H   0  0  0  0  0  0  0  0  0  0  0  0
   -6.2485   -0.5473    0.0000 H   0  0  0  0  0  0  0  0  0  0  0  0
   -7.2719   -0.8600    0.0000 H   0  0  0  0  0  0  0  0  0  0  0  0
   -8.5399    0.6131    0.0000 H   0  0  0  0  0  0  0  0  0  0  0  0
   -7.6237   -2.3843    0.0000 H   0  0  0  0  0  0  0  0  0  0  0  0
   -6.4608   -1.1371    0.0000 H   0  0  0  0  0  0  0  0  0  0  0  0
   -9.5145   -0.4320    0.0000 H   0  0  0  0  0  0  0  0  0  0  0  0
   -6.2526    3.5534    0.0000 H   0  0  0  0  0  0  0  0  0  0  0  0
   -8.1072    1.8731    0.0000 H   0  0  0  0  0  0  0  0  0  0  0  0
   -8.4633    4.4492    0.0000 H   0  0  0  0  0  0  0  0  0  0  0  0
   -7.4401    4.7620    0.0000 H   0  0  0  0  0  0  0  0  0  0  0  0
   -5.8685    4.2734    0.0000 H   0  0  0  0  0  0  0  0  0  0  0  0
   -5.6830    5.0773    0.0000 H   0  0  0  0  0  0  0  0  0  0  0  0
   -7.4887    5.4942    0.0000 H   0  0  0  0  0  0  0  0  0  0  0  0
   -6.4655    5.8071    0.0000 H   0  0  0  0  0  0  0  0  0  0  0  0
   -6.5293    2.3553    0.0000 H   0  0  0  0  0  0  0  0  0  0  0  0
   -5.2652    3.7106    0.0000 H   0  0  0  0  0  0  0  0  0  0  0  0
   -5.5060    2.6681    0.0000 H   0  0  0  0  0  0  0  0  0  0  0  0
   -8.8769    1.7152    0.0000 H   0  0  0  0  0  0  0  0  0  0  0  0
   -9.8069    4.0385    0.0000 H   0  0  0  0  0  0  0  0  0  0  0  0
   -9.4508    1.4624    0.0000 H   0  0  0  0  0  0  0  0  0  0  0  0
  -10.4740    1.1496    0.0000 H   0  0  0  0  0  0  0  0  0  0  0  0
  -11.8048    2.6808    0.0000 H   0  0  0  0  0  0  0  0  0  0  0  0
  -12.0456    1.6383    0.0000 H   0  0  0  0  0  0  0  0  0  0  0  0
  -10.4255    0.4174    0.0000 H   0  0  0  0  0  0  0  0  0  0  0  0
  -11.4487    0.1046    0.0000 H   0  0  0  0  0  0  0  0  0  0  0  0
  -12.7169    1.5774    0.0000 H   0  0  0  0  0  0  0  0  0  0  0  0
  -11.8006   -1.4197    0.0000 H   0  0  0  0  0  0  0  0  0  0  0  0
  -10.6377   -0.1725    0.0000 H   0  0  0  0  0  0  0  0  0  0  0  0
  -13.6913    0.5327    0.0000 H   0  0  0  0  0  0  0  0  0  0  0  0
  -10.4295    4.5180    0.0000 H   0  0  0  0  0  0  0  0  0  0  0  0
  -12.2841    2.8377    0.0000 H   0  0  0  0  0  0  0  0  0  0  0  0
  -13.0538    2.6798    0.0000 H   0  0  0  0  0  0  0  0  0  0  0  0
  -13.9838    5.0031    0.0000 H   0  0  0  0  0  0  0  0  0  0  0  0
  -15.4335    2.8440    0.0000 H   0  0  0  0  0  0  0  0  0  0  0  0
  -14.6510    2.1142    0.0000 H   0  0  0  0  0  0  0  0  0  0  0  0
  -12.7856    3.8407    0.0000 H   0  0  0  0  0  0  0  0  0  0  0  0
  -11.4277    2.5742    0.0000 H   0  0  0  0  0  0  0  0  0  0  0  0
  -13.1501    0.0443    0.0000 H   0  0  0  0  0  0  0  0  0  0  0  0
  -13.6214    0.2220    0.0000 H   0  0  0  0  0  0  0  0  0  0  0  0
  -14.9794    1.4885    0.0000 H   0  0  0  0  0  0  0  0  0  0  0  0
  -14.6063    5.4825    0.0000 H   0  0  0  0  0  0  0  0  0  0  0  0
  -16.4610    3.8022    0.0000 H   0  0  0  0  0  0  0  0  0  0  0  0
  -16.8171    6.3785    0.0000 H   0  0  0  0  0  0  0  0  0  0  0  0
  -15.7938    6.6913    0.0000 H   0  0  0  0  0  0  0  0  0  0  0  0
  -14.8639    4.3679    0.0000 H   0  0  0  0  0  0  0  0  0  0  0  0
  -13.7008    5.6148    0.0000 H   0  0  0  0  0  0  0  0  0  0  0  0
  -17.2306    3.6444    0.0000 H   0  0  0  0  0  0  0  0  0  0  0  0
  -18.1607    5.9678    0.0000 H   0  0  0  0  0  0  0  0  0  0  0  0
  -19.6104    3.8086    0.0000 H   0  0  0  0  0  0  0  0  0  0  0  0
  -18.8279    3.0788    0.0000 H   0  0  0  0  0  0  0  0  0  0  0  0
  -16.5095    3.1609    0.0000 H   0  0  0  0  0  0  0  0  0  0  0  0
  -18.7832    6.4471    0.0000 H   0  0  0  0  0  0  0  0  0  0  0  0
  -20.6378    4.7668    0.0000 H   0  0  0  0  0  0  0  0  0  0  0  0
  -21.4077    4.6091    0.0000 H   0  0  0  0  0  0  0  0  0  0  0  0
  -21.7959    5.1600    0.0000 H   0  0  0  0  0  0  0  0  0  0  0  0
  -22.9409    7.4951    0.0000 H   0  0  0  0  0  0  0  0  0  0  0  0
  -23.9642    7.1823    0.0000 H   0  0  0  0  0  0  0  0  0  0  0  0
  -23.4016    4.7036    0.0000 H   0  0  0  0  0  0  0  0  0  0  0  0
  -25.1776    4.1609    0.0000 H   0  0  0  0  0  0  0  0  0  0  0  0
  -26.5355    5.4274    0.0000 H   0  0  0  0  0  0  0  0  0  0  0  0
  -26.1177    7.2368    0.0000 H   0  0  0  0  0  0  0  0  0  0  0  0
  -24.3418    7.7795    0.0000 H   0  0  0  0  0  0  0  0  0  0  0  0
  -23.7055    4.7982    0.0000 H   0  0  0  0  0  0  0  0  0  0  0  0
  -21.3231    4.0322    0.0000 H   0  0  0  0  0  0  0  0  0  0  0  0
  -20.8015    3.4446    0.0000 H   0  0  0  0  0  0  0  0  0  0  0  0
  -21.0845    2.8328    0.0000 H   0  0  0  0  0  0  0  0  0  0  0  0
  -19.7538    1.3016    0.0000 H   0  0  0  0  0  0  0  0  0  0  0  0
  -20.2956    3.0740    0.0000 H   0  0  0  0  0  0  0  0  0  0  0  0
  -19.5130    2.3442    0.0000 H   0  0  0  0  0  0  0  0  0  0  0  0
  -22.4524    0.6986    0.0000 H   0  0  0  0  0  0  0  0  0  0  0  0
  -20.0699   -0.0673    0.0000 H   0  0  0  0  0  0  0  0  0  0  0  0
  -22.1230   -1.6637    0.0000 H   0  0  0  0  0  0  0  0  0  0  0  0
  -22.9055   -0.9339    0.0000 H   0  0  0  0  0  0  0  0  0  0  0  0
  -23.9598    0.3393    0.0000 H   0  0  0  0  0  0  0  0  0  0  0  0
  -19.5484   -0.6549    0.0000 H   0  0  0  0  0  0  0  0  0  0  0  0
  -21.0955   -2.6221    0.0000 H   0  0  0  0  0  0  0  0  0  0  0  0
  -18.5008   -2.7979    0.0000 H   0  0  0  0  0  0  0  0  0  0  0  0
  -18.2600   -1.7554    0.0000 H   0  0  0  0  0  0  0  0  0  0  0  0
  -18.1699   -0.9808    0.0000 H   0  0  0  0  0  0  0  0  0  0  0  0
  -21.1994   -3.4008    0.0000 H   0  0  0  0  0  0  0  0  0  0  0  0
  -20.6227   -3.7499    0.0000 H   0  0  0  0  0  0  0  0  0  0  0  0
  -21.3751   -4.0252    0.0000 H   0  0  0  0  0  0  0  0  0  0  0  0
  -20.8585   -5.7147    0.0000 H   0  0  0  0  0  0  0  0  0  0  0  0
  -18.2136   -4.7295    0.0000 H   0  0  0  0  0  0  0  0  0  0  0  0
  -18.4544   -5.7721    0.0000 H   0  0  0  0  0  0  0  0  0  0  0  0
  -21.0664   -5.6369    0.0000 H   0  0  0  0  0  0  0  0  0  0  0  0
  -20.8532   -7.6362    0.0000 H   0  0  0  0  0  0  0  0  0  0  0  0
  -18.9030   -8.1260    0.0000 H   0  0  0  0  0  0  0  0  0  0  0  0
  -24.1586    3.1655    0.0000 H   0  0  0  0  0  0  0  0  0  0  0  0
  -24.3442    2.3617    0.0000 H   0  0  0  0  0  0  0  0  0  0  0  0
  -22.5384    1.9447    0.0000 H   0  0  0  0  0  0  0  0  0  0  0  0
  -23.5616    1.6319    0.0000 H   0  0  0  0  0  0  0  0  0  0  0  0
  -23.4978    5.0836    0.0000 H   0  0  0  0  0  0  0  0  0  0  0  0
  -24.7619    3.7283    0.0000 H   0  0  0  0  0  0  0  0  0  0  0  0
  -24.5211    4.7708    0.0000 H   0  0  0  0  0  0  0  0  0  0  0  0
  -19.4289    5.8835    0.0000 H   0  0  0  0  0  0  0  0  0  0  0  0
  -20.5741    8.2186    0.0000 H   0  0  0  0  0  0  0  0  0  0  0  0
  -21.8381    6.8632    0.0000 H   0  0  0  0  0  0  0  0  0  0  0  0
  -21.5973    7.9058    0.0000 H   0  0  0  0  0  0  0  0  0  0  0  0
  -18.7132    6.1928    0.0000 H   0  0  0  0  0  0  0  0  0  0  0  0
  -12.8810    4.3713    0.0000 H   0  0  0  0  0  0  0  0  0  0  0  0
  -10.2862    4.1954    0.0000 H   0  0  0  0  0  0  0  0  0  0  0  0
  -10.8280    5.9678    0.0000 H   0  0  0  0  0  0  0  0  0  0  0  0
  -10.0454    5.2380    0.0000 H   0  0  0  0  0  0  0  0  0  0  0  0
  -12.2426    6.1919    0.0000 H   0  0  0  0  0  0  0  0  0  0  0  0
    5.0906    1.8681    0.0000 H   0  0  0  0  0  0  0  0  0  0  0  0
    4.4873    2.4309    0.0000 H   0  0  0  0  0  0  0  0  0  0  0  0
    3.2232    1.0756    0.0000 H   0  0  0  0  0  0  0  0  0  0  0  0
    3.4640    2.1181    0.0000 H   0  0  0  0  0  0  0  0  0  0  0  0
    6.4212    0.3369    0.0000 H   0  0  0  0  0  0  0  0  0  0  0  0
    5.8796    2.1092    0.0000 H   0  0  0  0  0  0  0  0  0  0  0  0
    6.6621    1.3794    0.0000 H   0  0  0  0  0  0  0  0  0  0  0  0
   20.3612   -5.0370    0.0000 H   0  0  0  0  0  0  0  0  0  0  0  0
   20.5892   -3.1067    0.0000 H   0  0  0  0  0  0  0  0  0  0  0  0
   20.7749   -2.3029    0.0000 H   0  0  0  0  0  0  0  0  0  0  0  0
   21.7982   -1.9902    0.0000 H   0  0  0  0  0  0  0  0  0  0  0  0
   23.3695   -2.4788    0.0000 H   0  0  0  0  0  0  0  0  0  0  0  0
   23.5551   -1.6749    0.0000 H   0  0  0  0  0  0  0  0  0  0  0  0
   21.7494   -1.2580    0.0000 H   0  0  0  0  0  0  0  0  0  0  0  0
   22.7726   -0.9451    0.0000 H   0  0  0  0  0  0  0  0  0  0  0  0
   22.7089   -4.3968    0.0000 H   0  0  0  0  0  0  0  0  0  0  0  0
   23.9728   -3.0414    0.0000 H   0  0  0  0  0  0  0  0  0  0  0  0
   23.7321   -4.0839    0.0000 H   0  0  0  0  0  0  0  0  0  0  0  0
   22.9855   -3.1988    0.0000 H   0  0  0  0  0  0  0  0  0  0  0  0
   23.6081   -3.6782    0.0000 H   0  0  0  0  0  0  0  0  0  0  0  0
   24.3971   -3.4370    0.0000 H   0  0  0  0  0  0  0  0  0  0  0  0
   25.1796   -4.1668    0.0000 H   0  0  0  0  0  0  0  0  0  0  0  0
   26.2685   -5.4727    0.0000 H   0  0  0  0  0  0  0  0  0  0  0  0
   25.7702   -3.8420    0.0000 H   0  0  0  0  0  0  0  0  0  0  0  0
   23.5740   -7.0003    0.0000 H   0  0  0  0  0  0  0  0  0  0  0  0
  1  2  1  0  0  0  0
  1235  1  0  0  0  0
  1236  1  0  0  0  0
  1237  1  0  0  0  0
  2238  1  0  0  0  0
  2239  1  0  0  0  0
  3  2  1  0  0  0  0
  3  4  1  0  0  0  0
  3  5  1  0  0  0  0
  3240  1  1  0  0  0
  4241  1  0  0  0  0
  4242  1  0  0  0  0
  4243  1  0  0  0  0
  5  6  1  0  0  0  0
  5216  1  0  0  0  0
  5244  1  1  0  0  0
  6  7  1  0  0  0  0
  6245  1  0  0  0  0
  7  8  2  0  0  0  0
  9  7  1  0  0  0  0
  9 10  1  0  0  0  0
  9 12  1  0  0  0  0
  9246  1  6  0  0  0
 10 11  1  0  0  0  0
 10247  1  0  0  0  0
 10248  1  0  0  0  0
 11249  1  0  0  0  0
 12 13  1  0  0  0  0
 12250  1  0  0  0  0
 13 14  2  0  0  0  0
 15 13  1  0  0  0  0
 15 16  1  0  0  0  0
 15 20  1  0  0  0  0
 15251  1  1  0  0  0
 16 17  1  0  0  0  0
 16252  1  0  0  0  0
 16253  1  0  0  0  0
 17 18  1  0  0  0  0
 17 19  2  0  0  0  0
 18254  1  0  0  0  0
 18255  1  0  0  0  0
 20 21  1  0  0  0  0
 20256  1  0  0  0  0
 21 22  2  0  0  0  0
 23 21  1  0  0  0  0
 23 24  1  0  0  0  0
 23 28  1  0  0  0  0
 23257  1  6  0  0  0
 24 25  1  0  0  0  0
 24258  1  0  0  0  0
 24259  1  0  0  0  0
 25 26  1  0  0  0  0
 25 27  1  0  0  0  0
 25260  1  0  0  0  0
 26261  1  0  0  0  0
 26262  1  0  0  0  0
 26263  1  0  0  0  0
 27264  1  0  0  0  0
 27265  1  0  0  0  0
 27266  1  0  0  0  0
 28 29  1  0  0  0  0
 28267  1  0  0  0  0
 29 30  2  0  0  0  0
 31 29  1  0  0  0  0
 31 32  1  0  0  0  0
 31 40  1  0  0  0  0
 31268  1  1  0  0  0
 32 33  1  0  0  0  0
 32269  1  0  0  0  0
 32270  1  0  0  0  0
 33 34  2  0  0  0  0
 33 39  1  0  0  0  0
 34 35  1  0  0  0  0
 34271  1  0  0  0  0
 35 36  2  0  0  0  0
 35272  1  0  0  0  0
 36 37  1  0  0  0  0
 36 38  1  0  0  0  0
 37273  1  0  0  0  0
 38 39  2  0  0  0  0
 38274  1  0  0  0  0
 39275  1  0  0  0  0
 40 41  1  0  0  0  0
 40276  1  0  0  0  0
 41 42  2  0  0  0  0
 43 41  1  0  0  0  0
 43 44  1  0  0  0  0
 43 49  1  0  0  0  0
 43277  1  6  0  0  0
 44 45  1  0  0  0  0
 44278  1  0  0  0  0
 44279  1  0  0  0  0
 45 46  1  0  0  0  0
 45280  1  0  0  0  0
 45281  1  0  0  0  0
 46 47  1  0  0  0  0
 46282  1  0  0  0  0
 46283  1  0  0  0  0
 47 48  1  0  0  0  0
 47284  1  0  0  0  0
 47285  1  0  0  0  0
 48286  1  0  0  0  0
 48287  1  0  0  0  0
 49 50  1  0  0  0  0
 49288  1  0  0  0  0
 50 51  2  0  0  0  0
 52 50  1  0  0  0  0
 52 53  1  0  0  0  0
 52 58  1  0  0  0  0
 52289  1  1  0  0  0
 53 54  1  0  0  0  0
 53290  1  0  0  0  0
 53291  1  0  0  0  0
 54 55  1  0  0  0  0
 54292  1  0  0  0  0
 54293  1  0  0  0  0
 55 56  1  0  0  0  0
 55294  1  0  0  0  0
 55295  1  0  0  0  0
 56 57  1  0  0  0  0
 56296  1  0  0  0  0
 56297  1  0  0  0  0
 57298  1  0  0  0  0
 57299  1  0  0  0  0
 58 59  1  0  0  0  0
 58300  1  0  0  0  0
 59 60  2  0  0  0  0
 61 59  1  0  0  0  0
 61 62  1  0  0  0  0
 61213  1  0  0  0  0
 61301  1  6  0  0  0
 62 63  1  0  0  0  0
 62302  1  0  0  0  0
 63 64  2  0  0  0  0
 65 63  1  0  0  0  0
 65 66  1  0  0  0  0
 65 67  1  0  0  0  0
 65303  1  1  0  0  0
 66304  1  0  0  0  0
 66305  1  0  0  0  0
 66306  1  0  0  0  0
 67 68  1  0  0  0  0
 67307  1  0  0  0  0
 68 69  2  0  0  0  0
 70 68  1  0  0  0  0
 70 71  1  0  0  0  0
 70 75  1  0  0  0  0
 70308  1  6  0  0  0
 71 72  1  0  0  0  0
 71309  1  0  0  0  0
 71310  1  0  0  0  0
 72 73  1  0  0  0  0
 72311  1  0  0  0  0
 72312  1  0  0  0  0
 73 74  1  0  0  0  0
 74313  1  0  0  0  0
 74314  1  0  0  0  0
 74315  1  0  0  0  0
 75 76  1  0  0  0  0
 75316  1  0  0  0  0
 76 77  2  0  0  0  0
 78 76  1  0  0  0  0
 78 79  1  0  0  0  0
 78 84  1  0  0  0  0
 78317  1  1  0  0  0
 79 80  1  0  0  0  0
 79318  1  0  0  0  0
 79319  1  0  0  0  0
 80 81  1  0  0  0  0
 80320  1  0  0  0  0
 80321  1  0  0  0  0
 81 82  1  0  0  0  0
 81 83  2  0  0  0  0
 82322  1  0  0  0  0
 82323  1  0  0  0  0
 84 85  1  0  0  0  0
 84324  1  0  0  0  0
 85 86  2  0  0  0  0
 87 85  1  0  0  0  0
 87 88  1  0  0  0  0
 87 93  1  0  0  0  0
 87325  1  6  0  0  0
 88 89  1  0  0  0  0
 88326  1  0  0  0  0
 88327  1  0  0  0  0
 89 90  1  0  0  0  0
 89328  1  0  0  0  0
 89329  1  0  0  0  0
 90 91  1  0  0  0  0
 90330  1  0  0  0  0
 90331  1  0  0  0  0
 91 92  1  0  0  0  0
 91332  1  0  0  0  0
 91333  1  0  0  0  0
 92334  1  0  0  0  0
 92335  1  0  0  0  0
 93 94  1  0  0  0  0
 93336  1  0  0  0  0
 94 95  2  0  0  0  0
 96 94  1  0  0  0  0
 96 97  1  0  0  0  0
 96104  1  0  0  0  0
 96337  1  1  0  0  0
 97 98  1  0  0  0  0
 97338  1  0  0  0  0
 97339  1  0  0  0  0
 98 99  1  0  0  0  0
 98340  1  0  0  0  0
 98341  1  0  0  0  0
 99100  1  0  0  0  0
 99342  1  0  0  0  0
 99343  1  0  0  0  0
100101  1  0  0  0  0
100344  1  0  0  0  0
101102  1  0  0  0  0
101103  2  0  0  0  0
102345  1  0  0  0  0
102346  1  0  0  0  0
103347  1  0  0  0  0
104105  1  0  0  0  0
104348  1  0  0  0  0
105106  2  0  0  0  0
107105  1  0  0  0  0
107108  1  0  0  0  0
107112  1  0  0  0  0
107349  1  6  0  0  0
108109  1  0  0  0  0
108350  1  0  0  0  0
108351  1  0  0  0  0
109110  1  0  0  0  0
109111  1  0  0  0  0
109352  1  0  0  0  0
110353  1  0  0  0  0
110354  1  0  0  0  0
110355  1  0  0  0  0
111356  1  0  0  0  0
111357  1  0  0  0  0
111358  1  0  0  0  0
112113  1  0  0  0  0
112359  1  0  0  0  0
113114  2  0  0  0  0
115113  1  0  0  0  0
115116  1  0  0  0  0
115123  1  0  0  0  0
115360  1  1  0  0  0
116117  1  0  0  0  0
116361  1  0  0  0  0
116362  1  0  0  0  0
117118  1  0  0  0  0
117363  1  0  0  0  0
117364  1  0  0  0  0
118119  1  0  0  0  0
118365  1  0  0  0  0
118366  1  0  0  0  0
119120  1  0  0  0  0
119367  1  0  0  0  0
120121  1  0  0  0  0
120122  2  0  0  0  0
121368  1  0  0  0  0
121369  1  0  0  0  0
122370  1  0  0  0  0
123124  1  0  0  0  0
123371  1  0  0  0  0
124125  2  0  0  0  0
126124  1  0  0  0  0
126127  1  0  0  0  0
126210  1  0  0  0  0
126372  1  6  0  0  0
127128  1  0  0  0  0
127373  1  0  0  0  0
128129  2  0  0  0  0
130128  1  0  0  0  0
130131  1  0  0  0  0
130139  1  0  0  0  0
130374  1  1  0  0  0
131132  1  0  0  0  0
131375  1  0  0  0  0
131376  1  0  0  0  0
132133  2  0  0  0  0
132138  1  0  0  0  0
133134  1  0  0  0  0
133377  1  0  0  0  0
134135  2  0  0  0  0
134378  1  0  0  0  0
135136  1  0  0  0  0
135137  1  0  0  0  0
136379  1  0  0  0  0
137138  2  0  0  0  0
137380  1  0  0  0  0
138381  1  0  0  0  0
139140  1  0  0  0  0
139382  1  0  0  0  0
140141  2  0  0  0  0
142140  1  0  0  0  0
142143  1  0  0  0  0
142147  1  0  0  0  0
142383  1  6  0  0  0
143144  1  0  0  0  0
143384  1  0  0  0  0
143385  1  0  0  0  0
144145  1  0  0  0  0
144146  2  0  0  0  0
145386  1  0  0  0  0
145387  1  0  0  0  0
147148  1  0  0  0  0
147388  1  0  0  0  0
148149  2  0  0  0  0
150148  1  0  0  0  0
150151  1  0  0  0  0
150155  1  0  0  0  0
150389  1  1  0  0  0
151152  1  0  0  0  0
151390  1  0  0  0  0
151391  1  0  0  0  0
152153  1  0  0  0  0
152154  2  0  0  0  0
153392  1  0  0  0  0
155156  1  0  0  0  0
155393  1  0  0  0  0
156157  2  0  0  0  0
158156  1  0  0  0  0
158159  1  0  0  0  0
158207  1  0  0  0  0
158394  1  6  0  0  0
159160  1  0  0  0  0
159395  1  0  0  0  0
160161  2  0  0  0  0
162160  1  0  0  0  0
162163  1  0  0  0  0
162170  1  0  0  0  0
162396  1  6  0  0  0
163164  1  0  0  0  0
163397  1  0  0  0  0
163398  1  0  0  0  0
164165  2  0  0  0  0
164169  1  0  0  0  0
165166  1  0  0  0  0
165399  1  0  0  0  0
166167  2  0  0  0  0
166400  1  0  0  0  0
167168  1  0  0  0  0
167401  1  0  0  0  0
168169  2  0  0  0  0
168402  1  0  0  0  0
169403  1  0  0  0  0
170171  1  0  0  0  0
170404  1  0  0  0  0
171172  2  0  0  0  0
173171  1  0  0  0  0
173174  1  0  0  0  0
173204  1  0  0  0  0
173405  1  6  0  0  0
174175  1  0  0  0  0
174406  1  0  0  0  0
175176  2  0  0  0  0
177175  1  0  0  0  0
177178  1  0  0  0  0
177179  1  0  0  0  0
177407  1  1  0  0  0
178408  1  0  0  0  0
178409  1  0  0  0  0
178410  1  0  0  0  0
179180  1  0  0  0  0
179411  1  0  0  0  0
180181  2  0  0  0  0
182180  1  0  0  0  0
182183  1  0  0  0  0
182187  1  0  0  0  0
182412  1  6  0  0  0
183184  1  0  0  0  0
183413  1  0  0  0  0
183414  1  0  0  0  0
184185  1  0  0  0  0
184186  2  0  0  0  0
185415  1  0  0  0  0
187188  1  0  0  0  0
187416  1  0  0  0  0
188189  2  0  0  0  0
190188  1  0  0  0  0
190191  1  0  0  0  0
190193  1  0  0  0  0
190417  1  1  0  0  0
191192  1  0  0  0  0
191418  1  0  0  0  0
191419  1  0  0  0  0
192420  1  0  0  0  0
193194  1  0  0  0  0
193421  1  0  0  0  0
194195  2  0  0  0  0
196194  1  0  0  0  0
196197  1  0  0  0  0
196198  1  0  0  0  0
196422  1  1  0  0  0
197423  1  0  0  0  0
197424  1  0  0  0  0
198199  1  0  0  0  0
198425  1  0  0  0  0
198426  1  0  0  0  0
199200  2  0  0  0  0
199203  1  0  0  0  0
200201  1  0  0  0  0
200427  1  0  0  0  0
201202  1  0  0  0  0
201428  1  0  0  0  0
202203  2  0  0  0  0
202429  1  0  0  0  0
204205  1  0  0  0  0
204206  1  0  0  0  0
204430  1  0  0  0  0
205431  1  0  0  0  0
205432  1  0  0  0  0
205433  1  0  0  0  0
206434  1  0  0  0  0
206435  1  0  0  0  0
206436  1  0  0  0  0
207208  1  0  0  0  0
207209  1  0  0  0  0
207437  1  6  0  0  0
208438  1  0  0  0  0
208439  1  0  0  0  0
208440  1  0  0  0  0
209441  1  0  0  0  0
210211  1  0  0  0  0
210212  1  0  0  0  0
210442  1  1  0  0  0
211443  1  0  0  0  0
211444  1  0  0  0  0
211445  1  0  0  0  0
212446  1  0  0  0  0
213214  1  0  0  0  0
213215  1  0  0  0  0
213447  1  0  0  0  0
214448  1  0  0  0  0
214449  1  0  0  0  0
214450  1  0  0  0  0
215451  1  0  0  0  0
215452  1  0  0  0  0
215453  1  0  0  0  0
216217  2  0  0  0  0
216218  1  0  0  0  0
218454  1  0  0  0  0
219218  1  0  0  0  0
219220  1  0  0  0  0
219224  1  0  0  0  0
219455  1  6  0  0  0
220221  1  0  0  0  0
220456  1  0  0  0  0
220457  1  0  0  0  0
221222  1  0  0  0  0
221223  1  0  0  0  0
221458  1  0  0  0  0
222459  1  0  0  0  0
222460  1  0  0  0  0
222461  1  0  0  0  0
223462  1  0  0  0  0
223463  1  0  0  0  0
223464  1  0  0  0  0
224225  2  0  0  0  0
224226  1  0  0  0  0
226465  1  0  0  0  0
227226  1  0  0  0  0
227228  1  0  0  0  0
227232  1  0  0  0  0
227466  1  6  0  0  0
228229  1  0  0  0  0
228467  1  0  0  0  0
228468  1  0  0  0  0
229230  1  0  0  0  0
229231  2  0  0  0  0
230469  1  0  0  0  0
230470  1  0  0  0  0
232233  1  0  0  0  0
232234  2  0  0  0  0
233471  1  0  0  0  0
M  END
>  <DRUGBANK_ID>
DB18634

>  <COMMON_NAME>
Vasoactive intestinal peptide

>  <CAS_NUMBER>
37221-79-7

>  <UNII>
6J2WVD66KR

>  <SYNONYMS>
His-ser-asp-ala-val-phe-thr-asp-asn-tyr-thr-arg-leu-arg-lys-gln-met-ala-val-lys-lys-tyr-leu-asn-ser-ile-leu-asn; Vasoactive intestinal peptide (human); Vasoactive intestinal polypeptide; VIP

$$$$
