
 OpenBabel10282417072D

 36 38  0  0  0  0  0  0  0  0999 V2000
   -3.4179    0.7661    0.0000 C   0  0  0  0  0  0  0  0  0  0  0  0
   -4.1323    1.1786    0.0000 C   0  0  0  0  0  0  0  0  0  0  0  0
   -4.8468    0.7661    0.0000 C   0  0  0  0  0  0  0  0  0  0  0  0
   -4.8468   -0.0589    0.0000 C   0  0  0  0  0  0  0  0  0  0  0  0
   -4.1323   -0.4714    0.0000 C   0  0  0  0  0  0  0  0  0  0  0  0
   -3.4179   -0.0589    0.0000 C   0  0  0  0  0  0  0  0  0  0  0  0
   -2.7034   -0.4714    0.0000 S   0  0  0  0  0  0  0  0  0  0  0  0
   -1.9889   -0.0589    0.0000 N   0  0  0  0  0  0  0  0  0  0  0  0
   -1.9889    0.7661    0.0000 C   0  0  0  0  0  0  0  0  0  0  0  0
   -2.7034    1.1786    0.0000 C   0  0  0  0  0  0  0  0  0  0  0  0
   -1.2744    1.1786    0.0000 C   0  0  0  0  0  0  0  0  0  0  0  0
   -1.2744    2.0036    0.0000 N   0  0  0  0  0  0  0  0  0  0  0  0
   -0.5600    2.4161    0.0000 C   0  0  0  0  0  0  0  0  0  0  0  0
    0.1545    3.6536    0.0000 C   0  0  0  0  0  0  0  0  0  0  0  0
   -0.5600    3.2411    0.0000 N   0  0  0  0  0  0  0  0  0  0  0  0
    0.1545    2.0036    0.0000 C   0  0  0  0  0  0  0  0  0  0  0  0
    0.8690    2.4161    0.0000 C   0  0  0  0  0  0  0  0  0  0  0  0
    0.8690    3.2411    0.0000 C   0  0  0  0  0  0  0  0  0  0  0  0
   -1.2744   -0.4714    0.0000 C   0  0  0  0  0  0  0  0  0  0  0  0
   -2.7034    2.0036    0.0000 O   0  0  0  0  0  0  0  0  0  0  0  0
   -0.5599    0.7661    0.0000 O   0  0  0  0  0  0  0  0  0  0  0  0
   -3.2868   -1.0548    0.0000 O   0  0  0  0  0  0  0  0  0  0  0  0
   -2.1200   -1.0548    0.0000 O   0  0  0  0  0  0  0  0  0  0  0  0
   -4.1323    2.2106    0.0000 H   0  0  0  0  0  0  0  0  0  0  0  0
   -5.7405    1.2821    0.0000 H   0  0  0  0  0  0  0  0  0  0  0  0
   -5.7405   -0.5749    0.0000 H   0  0  0  0  0  0  0  0  0  0  0  0
   -4.1323   -1.5034    0.0000 H   0  0  0  0  0  0  0  0  0  0  0  0
   -2.1270    2.4958    0.0000 H   0  0  0  0  0  0  0  0  0  0  0  0
    0.1545    4.6856    0.0000 H   0  0  0  0  0  0  0  0  0  0  0  0
    0.1545    0.9716    0.0000 H   0  0  0  0  0  0  0  0  0  0  0  0
    1.7627    1.9001    0.0000 H   0  0  0  0  0  0  0  0  0  0  0  0
    1.7627    3.7571    0.0000 H   0  0  0  0  0  0  0  0  0  0  0  0
   -1.2744   -1.5414    0.0000 H   0  0  0  0  0  0  0  0  0  0  0  0
   -0.3478    0.0636    0.0000 H   0  0  0  0  0  0  0  0  0  0  0  0
   -0.3477   -1.0064    0.0000 H   0  0  0  0  0  0  0  0  0  0  0  0
   -1.8919    2.4721    0.0000 H   0  0  0  0  0  0  0  0  0  0  0  0
  1  2  1  0  0  0  0
  1  6  2  0  0  0  0
  1 10  1  0  0  0  0
  2  3  2  0  0  0  0
  2 24  1  0  0  0  0
  3  4  1  0  0  0  0
  3 25  1  0  0  0  0
  4  5  2  0  0  0  0
  4 26  1  0  0  0  0
  5  6  1  0  0  0  0
  5 27  1  0  0  0  0
  6  7  1  0  0  0  0
  7  8  1  0  0  0  0
  7 22  2  0  0  0  0
  7 23  2  0  0  0  0
  8  9  1  0  0  0  0
  8 19  1  0  0  0  0
  9 10  2  0  0  0  0
  9 11  1  0  0  0  0
 10 20  1  0  0  0  0
 11 12  1  0  0  0  0
 11 21  2  0  0  0  0
 12 13  1  0  0  0  0
 12 28  1  0  0  0  0
 13 16  1  0  0  0  0
 14 15  1  0  0  0  0
 14 18  2  0  0  0  0
 14 29  1  0  0  0  0
 15 13  2  0  0  0  0
 16 17  2  0  0  0  0
 16 30  1  0  0  0  0
 17 18  1  0  0  0  0
 17 31  1  0  0  0  0
 18 32  1  0  0  0  0
 19 33  1  0  0  0  0
 19 34  1  0  0  0  0
 19 35  1  0  0  0  0
 20 36  1  0  0  0  0
M  END
>  <DRUGBANK_ID>
DB00554

>  <SECONDARY_ACCESSION_NUMBERS>
APRD01187

>  <COMMON_NAME>
Piroxicam

>  <CAS_NUMBER>
36322-90-4

>  <UNII>
13T4O6VMAM

>  <SYNONYMS>
4-Hydroxy-2-methyl-N-(2-pyridyl)-2H-1,2-benzothiazin-3-caboxyamid-1,1-dioxid; Piroxicam; Piroxicam betadex; Piroxicamum; Pyroxycam

$$$$
