NP6
 OpenBabel10282417072D

 50 51  0  0  0  0  0  0  0  0999 V2000
   -4.2342    0.1720    0.0000 C   0  0  0  0  0  0  0  0  0  0  0  0
   -3.5197    0.5845    0.0000 C   0  0  0  0  0  0  0  0  0  0  0  0
   -2.8052    0.1720    0.0000 C   0  0  0  0  0  0  0  0  0  0  0  0
   -2.0908    0.5845    0.0000 C   0  0  0  0  0  0  0  0  0  0  0  0
   -2.0908    1.4095    0.0000 O   0  0  0  0  0  0  0  0  0  0  0  0
   -1.3763    0.1720    0.0000 N   0  0  0  0  0  0  0  0  0  0  0  0
   -0.6618    0.5845    0.0000 C   0  0  2  0  0  0  0  0  0  0  0  0
   -0.6618    1.4095    0.0000 C   0  0  1  0  0  0  0  0  0  0  0  0
   -1.3763    1.8220    0.0000 O   0  0  0  0  0  0  0  0  0  0  0  0
    0.0526    1.8220    0.0000 C   0  0  2  0  0  0  0  0  0  0  0  0
    0.0526    2.6470    0.0000 O   0  0  0  0  0  0  0  0  0  0  0  0
    0.7671    1.4095    0.0000 C   0  0  1  0  0  0  0  0  0  0  0  0
    1.4816    1.8220    0.0000 C   0  0  0  0  0  0  0  0  0  0  0  0
    2.1961    1.4095    0.0000 O   0  0  0  0  0  0  0  0  0  0  0  0
    0.7671    0.5845    0.0000 O   0  0  0  0  0  0  0  0  0  0  0  0
    0.0526    0.1720    0.0000 C   0  0  0  0  0  0  0  0  0  0  0  0
    0.0526   -0.6530    0.0000 N   0  0  0  0  0  0  0  0  0  0  0  0
    0.7671   -1.0655    0.0000 O   0  0  0  0  0  0  0  0  0  0  0  0
    0.7671   -1.8905    0.0000 C   0  0  0  0  0  0  0  0  0  0  0  0
    0.0526   -2.3030    0.0000 O   0  0  0  0  0  0  0  0  0  0  0  0
    1.4816   -2.3030    0.0000 N   0  0  0  0  0  0  0  0  0  0  0  0
    2.1961   -1.8905    0.0000 C   0  0  0  0  0  0  0  0  0  0  0  0
    2.1961   -1.0655    0.0000 C   0  0  0  0  0  0  0  0  0  0  0  0
    2.9105   -0.6530    0.0000 C   0  0  0  0  0  0  0  0  0  0  0  0
    3.6250   -1.0655    0.0000 C   0  0  0  0  0  0  0  0  0  0  0  0
    3.6250   -1.8905    0.0000 C   0  0  0  0  0  0  0  0  0  0  0  0
    2.9105   -2.3030    0.0000 C   0  0  0  0  0  0  0  0  0  0  0  0
   -1.2369    0.6859    0.0000 H   0  0  0  0  0  0  0  0  0  0  0  0
   -1.2369    1.3081    0.0000 H   0  0  0  0  0  0  0  0  0  0  0  0
   -0.4531    2.1140    0.0000 H   0  0  0  0  0  0  0  0  0  0  0  0
    0.7671    1.9934    0.0000 H   0  0  0  0  0  0  0  0  0  0  0  0
   -5.1608    0.7070    0.0000 H   0  0  0  0  0  0  0  0  0  0  0  0
   -4.2342   -0.8980    0.0000 H   0  0  0  0  0  0  0  0  0  0  0  0
   -5.1609   -0.3630    0.0000 H   0  0  0  0  0  0  0  0  0  0  0  0
   -3.5197    1.6545    0.0000 H   0  0  0  0  0  0  0  0  0  0  0  0
   -2.5931    1.1195    0.0000 H   0  0  0  0  0  0  0  0  0  0  0  0
   -2.8052   -0.8980    0.0000 H   0  0  0  0  0  0  0  0  0  0  0  0
   -1.8785   -0.3630    0.0000 H   0  0  0  0  0  0  0  0  0  0  0  0
   -1.3763   -0.8125    0.0000 H   0  0  0  0  0  0  0  0  0  0  0  0
   -1.3763    2.7920    0.0000 H   0  0  0  0  0  0  0  0  0  0  0  0
    0.8926    3.1320    0.0000 H   0  0  0  0  0  0  0  0  0  0  0  0
    1.4816    2.8920    0.0000 H   0  0  0  0  0  0  0  0  0  0  0  0
    2.4082    2.3570    0.0000 H   0  0  0  0  0  0  0  0  0  0  0  0
    2.1961    0.4395    0.0000 H   0  0  0  0  0  0  0  0  0  0  0  0
    1.4816   -3.2875    0.0000 H   0  0  0  0  0  0  0  0  0  0  0  0
    1.3024   -0.5495    0.0000 H   0  0  0  0  0  0  0  0  0  0  0  0
    2.9105    0.3790    0.0000 H   0  0  0  0  0  0  0  0  0  0  0  0
    4.5187   -0.5495    0.0000 H   0  0  0  0  0  0  0  0  0  0  0  0
    4.5187   -2.4065    0.0000 H   0  0  0  0  0  0  0  0  0  0  0  0
    2.9105   -3.3350    0.0000 H   0  0  0  0  0  0  0  0  0  0  0  0
  1  2  1  0  0  0  0
  1 32  1  0  0  0  0
  1 33  1  0  0  0  0
  1 34  1  0  0  0  0
  2  3  1  0  0  0  0
  2 35  1  0  0  0  0
  2 36  1  0  0  0  0
  3  4  1  0  0  0  0
  3 37  1  0  0  0  0
  3 38  1  0  0  0  0
  4  5  2  0  0  0  0
  4  6  1  0  0  0  0
  6 39  1  0  0  0  0
  7  6  1  0  0  0  0
  7  8  1  0  0  0  0
  7 16  1  0  0  0  0
  7 28  1  1  0  0  0
  8  9  1  0  0  0  0
  8 10  1  0  0  0  0
  8 29  1  6  0  0  0
  9 40  1  0  0  0  0
 10 11  1  0  0  0  0
 10 12  1  0  0  0  0
 10 30  1  1  0  0  0
 11 41  1  0  0  0  0
 12 13  1  0  0  0  0
 12 15  1  0  0  0  0
 12 31  1  6  0  0  0
 13 14  1  0  0  0  0
 13 42  1  0  0  0  0
 13 43  1  0  0  0  0
 14 44  1  0  0  0  0
 15 16  1  0  0  0  0
 16 17  2  0  0  0  0
 17 18  1  0  0  0  0
 18 19  1  0  0  0  0
 19 20  2  0  0  0  0
 19 21  1  0  0  0  0
 21 22  1  0  0  0  0
 21 45  1  0  0  0  0
 22 23  1  0  0  0  0
 22 27  2  0  0  0  0
 23 24  2  0  0  0  0
 23 46  1  0  0  0  0
 24 25  1  0  0  0  0
 24 47  1  0  0  0  0
 25 26  2  0  0  0  0
 25 48  1  0  0  0  0
 26 27  1  0  0  0  0
 26 49  1  0  0  0  0
 27 50  1  0  0  0  0
M  END
>  <DRUGBANK_ID>
DB07432

>  <COMMON_NAME>
[[(3R,4R,5S,6R)-3-(butanoylamino)-4,5-dihydroxy-6-(hydroxymethyl)oxan-2-ylidene]amino] N-phenylcarbamate

$$$$
