2SC
 OpenBabel10282417072D

 42 45  0  0  0  0  0  0  0  0999 V2000
   -1.4858    1.1428    0.0000 C   0  0  0  0  0  0  0  0  0  0  0  0
   -0.7011    0.8878    0.0000 C   0  0  0  0  0  0  0  0  0  0  0  0
   -0.7011    0.0628    0.0000 N   0  0  0  0  0  0  0  0  0  0  0  0
   -1.4858   -0.1921    0.0000 N   0  0  0  0  0  0  0  0  0  0  0  0
   -1.9707    0.4753    0.0000 C   0  0  0  0  0  0  0  0  0  0  0  0
    0.0133    1.3003    0.0000 N   0  0  0  0  0  0  0  0  0  0  0  0
    0.7278    0.8878    0.0000 C   0  0  0  0  0  0  0  0  0  0  0  0
    0.7278    0.0628    0.0000 C   0  0  0  0  0  0  0  0  0  0  0  0
    0.0133   -0.3497    0.0000 C   0  0  0  0  0  0  0  0  0  0  0  0
    0.0133   -1.1747    0.0000 N   0  0  0  0  0  0  0  0  0  0  0  0
    1.4423    1.3003    0.0000 C   0  0  0  0  0  0  0  0  0  0  0  0
   -0.7011   -1.5872    0.0000 C   0  0  0  0  0  0  0  0  0  0  0  0
   -0.7011   -2.4122    0.0000 C   0  0  0  0  0  0  0  0  0  0  0  0
   -1.4156   -2.8247    0.0000 C   0  0  0  0  0  0  0  0  0  0  0  0
   -1.4156   -3.6497    0.0000 N   0  0  0  0  0  0  0  0  0  0  0  0
   -0.7011   -4.0622    0.0000 C   0  0  0  0  0  0  0  0  0  0  0  0
    0.0133   -3.6497    0.0000 C   0  0  0  0  0  0  0  0  0  0  0  0
    0.0133   -2.8247    0.0000 C   0  0  0  0  0  0  0  0  0  0  0  0
    1.4423    2.1253    0.0000 C   0  0  0  0  0  0  0  0  0  0  0  0
    2.1568    2.5378    0.0000 C   0  0  0  0  0  0  0  0  0  0  0  0
    2.8712    2.1253    0.0000 C   0  0  0  0  0  0  0  0  0  0  0  0
    2.8712    1.3003    0.0000 C   0  0  0  0  0  0  0  0  0  0  0  0
    2.1568    0.8878    0.0000 C   0  0  0  0  0  0  0  0  0  0  0  0
   -1.7407    1.9274    0.0000 C   0  0  0  0  0  0  0  0  0  0  0  0
   -2.5477    2.0989    0.0000 O   0  0  0  0  0  0  0  0  0  0  0  0
   -3.0027    0.4753    0.0000 H   0  0  0  0  0  0  0  0  0  0  0  0
    1.6215   -0.4532    0.0000 H   0  0  0  0  0  0  0  0  0  0  0  0
    0.8659   -1.6669    0.0000 H   0  0  0  0  0  0  0  0  0  0  0  0
   -1.6278   -1.0522    0.0000 H   0  0  0  0  0  0  0  0  0  0  0  0
   -1.6277   -2.1222    0.0000 H   0  0  0  0  0  0  0  0  0  0  0  0
   -2.3093   -2.3087    0.0000 H   0  0  0  0  0  0  0  0  0  0  0  0
   -0.7011   -5.0942    0.0000 H   0  0  0  0  0  0  0  0  0  0  0  0
    0.9070   -4.1657    0.0000 H   0  0  0  0  0  0  0  0  0  0  0  0
    0.9070   -2.3087    0.0000 H   0  0  0  0  0  0  0  0  0  0  0  0
    0.5486    2.6413    0.0000 H   0  0  0  0  0  0  0  0  0  0  0  0
    2.1568    3.5698    0.0000 H   0  0  0  0  0  0  0  0  0  0  0  0
    3.7649    2.6413    0.0000 H   0  0  0  0  0  0  0  0  0  0  0  0
    3.7649    0.7843    0.0000 H   0  0  0  0  0  0  0  0  0  0  0  0
    2.1568   -0.1442    0.0000 H   0  0  0  0  0  0  0  0  0  0  0  0
   -1.0247    2.7226    0.0000 H   0  0  0  0  0  0  0  0  0  0  0  0
   -2.0714    2.9450    0.0000 H   0  0  0  0  0  0  0  0  0  0  0  0
   -2.8475    3.0214    0.0000 H   0  0  0  0  0  0  0  0  0  0  0  0
  1  2  2  0  0  0  0
  1 24  1  0  0  0  0
  2  6  1  0  0  0  0
  3  2  1  0  0  0  0
  4  5  2  0  0  0  0
  4  3  1  0  0  0  0
  5  1  1  0  0  0  0
  5 26  1  0  0  0  0
  7  6  2  0  0  0  0
  7 11  1  0  0  0  0
  8  7  1  0  0  0  0
  8 27  1  0  0  0  0
  9  3  1  0  0  0  0
  9  8  2  0  0  0  0
 10 12  1  0  0  0  0
 10  9  1  0  0  0  0
 10 28  1  0  0  0  0
 11 19  2  0  0  0  0
 11 23  1  0  0  0  0
 12 29  1  0  0  0  0
 12 30  1  0  0  0  0
 13 18  1  0  0  0  0
 13 12  1  0  0  0  0
 14 13  2  0  0  0  0
 14 31  1  0  0  0  0
 15 16  2  0  0  0  0
 15 14  1  0  0  0  0
 16 17  1  0  0  0  0
 16 32  1  0  0  0  0
 17 18  2  0  0  0  0
 17 33  1  0  0  0  0
 18 34  1  0  0  0  0
 19 20  1  0  0  0  0
 19 35  1  0  0  0  0
 20 21  2  0  0  0  0
 20 36  1  0  0  0  0
 21 37  1  0  0  0  0
 22 21  1  0  0  0  0
 22 38  1  0  0  0  0
 23 22  2  0  0  0  0
 23 39  1  0  0  0  0
 24 25  1  0  0  0  0
 24 40  1  0  0  0  0
 24 41  1  0  0  0  0
 25 42  1  0  0  0  0
M  END
>  <DRUGBANK_ID>
DB06983

>  <COMMON_NAME>
(5-phenyl-7-(pyridin-3-ylmethylamino)pyrazolo[1,5-a]pyrimidin-3-yl)methanol

$$$$
