
 OpenBabel10282417072D

 56 58  0  0  0  0  0  0  0  0999 V2000
    0.0280    3.5062    0.0000 S   0  0  0  0  0  0  0  0  0  0  0  0
   -2.1153   -3.5062    0.0000 P   0  0  0  0  0  0  0  0  0  0  0  0
   -1.4009    0.2062    0.0000 O   0  0  0  0  0  0  0  0  0  0  0  0
    0.0280   -1.4437    0.0000 O   0  0  0  0  0  0  0  0  0  0  0  0
   -2.1153   -1.0312    0.0000 O   0  0  0  0  0  0  0  0  0  0  0  0
   -2.1153   -2.6812    0.0000 O   0  0  0  0  0  0  0  0  0  0  0  0
    0.0280    4.3312    0.0000 O   0  5  0  0  0  0  0  0  0  0  0  0
    0.8530    3.5062    0.0000 O   0  0  0  0  0  0  0  0  0  0  0  0
   -0.7969    3.5062    0.0000 O   0  0  0  0  0  0  0  0  0  0  0  0
    1.4704    3.5347    0.0000 O   0  0  0  0  0  0  0  0  0  0  0  0
    2.9403    1.0113    0.0000 O   0  0  0  0  0  0  0  0  0  0  0  0
   -2.1153   -4.3312    0.0000 O   0  0  0  0  0  0  0  0  0  0  0  0
   -2.9403   -3.5062    0.0000 O   0  0  0  0  0  0  0  0  0  0  0  0
   -1.2903   -3.5062    0.0000 O   0  0  0  0  0  0  0  0  0  0  0  0
    0.0280    1.0312    0.0000 N   0  0  0  0  0  0  0  0  0  0  0  0
    0.0280    2.6812    0.0000 N   0  3  0  0  0  0  0  0  0  0  0  0
    1.4799    1.0026    0.0000 N   0  0  0  0  0  0  0  0  0  0  0  0
    2.2275    2.2859    0.0000 N   0  0  0  0  0  0  0  0  0  0  0  0
    0.0280    0.2062    0.0000 C   0  0  0  0  0  0  0  0  0  0  0  0
   -0.6864   -0.2062    0.0000 C   0  0  1  0  0  0  0  0  0  0  0  0
   -0.6864   -1.0312    0.0000 C   0  0  1  0  0  0  0  0  0  0  0  0
   -0.6864    1.4437    0.0000 C   0  0  0  0  0  0  0  0  0  0  0  0
   -0.6864    2.2687    0.0000 C   0  0  0  0  0  0  0  0  0  0  0  0
    0.7425    1.4437    0.0000 C   0  0  0  0  0  0  0  0  0  0  0  0
   -1.4009   -1.4437    0.0000 C   0  0  1  0  0  0  0  0  0  0  0  0
    0.7425    2.2687    0.0000 C   0  0  0  0  0  0  0  0  0  0  0  0
   -1.4239    1.0026    0.0000 C   0  0  0  0  0  0  0  0  0  0  0  0
   -1.4239    2.7098    0.0000 C   0  0  0  0  0  0  0  0  0  0  0  0
   -2.1714    1.4265    0.0000 C   0  0  0  0  0  0  0  0  0  0  0  0
   -2.1714    2.2859    0.0000 C   0  0  0  0  0  0  0  0  0  0  0  0
   -1.4009   -2.2687    0.0000 C   0  0  0  0  0  0  0  0  0  0  0  0
    1.4799    2.7098    0.0000 C   0  0  0  0  0  0  0  0  0  0  0  0
   -2.8842    1.0113    0.0000 C   0  0  0  0  0  0  0  0  0  0  0  0
   -2.8842    2.7011    0.0000 C   0  0  0  0  0  0  0  0  0  0  0  0
    2.2275    1.4265    0.0000 C   0  0  0  0  0  0  0  0  0  0  0  0
    2.6694    2.5433    0.0000 H   0  0  0  0  0  0  0  0  0  0  0  0
   -1.4010    1.1762    0.0000 H   0  0  0  0  0  0  0  0  0  0  0  0
    0.0280   -2.4137    0.0000 H   0  0  0  0  0  0  0  0  0  0  0  0
   -2.1153   -0.0612    0.0000 H   0  0  0  0  0  0  0  0  0  0  0  0
   -2.9553   -4.8162    0.0000 H   0  0  0  0  0  0  0  0  0  0  0  0
   -3.4253   -2.6662    0.0000 H   0  0  0  0  0  0  0  0  0  0  0  0
    0.9546   -0.3288    0.0000 H   0  0  0  0  0  0  0  0  0  0  0  0
    0.0280   -0.8638    0.0000 H   0  0  0  0  0  0  0  0  0  0  0  0
   -0.6864    0.8638    0.0000 H   0  0  0  0  0  0  0  0  0  0  0  0
    0.2403   -0.4962    0.0000 H   0  0  0  0  0  0  0  0  0  0  0  0
   -1.4009   -0.3737    0.0000 H   0  0  0  0  0  0  0  0  0  0  0  0
   -1.4120   -0.0293    0.0000 H   0  0  0  0  0  0  0  0  0  0  0  0
   -1.4120    3.7417    0.0000 H   0  0  0  0  0  0  0  0  0  0  0  0
   -0.4742   -2.8037    0.0000 H   0  0  0  0  0  0  0  0  0  0  0  0
   -0.4743   -1.7337    0.0000 H   0  0  0  0  0  0  0  0  0  0  0  0
   -3.8129    1.5427    0.0000 H   0  0  0  0  0  0  0  0  0  0  0  0
   -2.8801   -0.0587    0.0000 H   0  0  0  0  0  0  0  0  0  0  0  0
   -3.8088    0.4727    0.0000 H   0  0  0  0  0  0  0  0  0  0  0  0
   -2.8801    3.7711    0.0000 H   0  0  0  0  0  0  0  0  0  0  0  0
   -3.8129    2.1697    0.0000 H   0  0  0  0  0  0  0  0  0  0  0  0
   -3.8088    3.2397    0.0000 H   0  0  0  0  0  0  0  0  0  0  0  0
  1  7  1  0  0  0  0
  1  8  2  0  0  0  0
  1  9  2  0  0  0  0
  1 16  1  0  0  0  0
  2  6  1  0  0  0  0
  2 12  1  0  0  0  0
  2 13  1  0  0  0  0
  2 14  2  0  0  0  0
  3 37  1  0  0  0  0
  4 38  1  0  0  0  0
  5 39  1  0  0  0  0
  6 31  1  0  0  0  0
 10 32  2  0  0  0  0
 11 35  2  0  0  0  0
 12 40  1  0  0  0  0
 13 41  1  0  0  0  0
 15 19  1  0  0  0  0
 15 22  1  0  0  0  0
 15 24  1  0  0  0  0
 16 23  1  0  0  0  0
 16 26  2  0  0  0  0
 17 24  2  0  0  0  0
 17 35  1  0  0  0  0
 18 32  1  0  0  0  0
 18 35  1  0  0  0  0
 18 36  1  0  0  0  0
 19 20  1  0  0  0  0
 19 42  1  0  0  0  0
 19 43  1  0  0  0  0
 20  3  1  0  0  0  0
 20 21  1  0  0  0  0
 20 44  1  6  0  0  0
 21  4  1  0  0  0  0
 21 25  1  0  0  0  0
 21 45  1  1  0  0  0
 22 23  2  0  0  0  0
 22 27  1  0  0  0  0
 23 28  1  0  0  0  0
 24 26  1  0  0  0  0
 25  5  1  0  0  0  0
 25 31  1  0  0  0  0
 25 46  1  6  0  0  0
 26 32  1  0  0  0  0
 27 29  2  0  0  0  0
 27 47  1  0  0  0  0
 28 30  2  0  0  0  0
 28 48  1  0  0  0  0
 29 30  1  0  0  0  0
 29 33  1  0  0  0  0
 30 34  1  0  0  0  0
 31 49  1  0  0  0  0
 31 50  1  0  0  0  0
 33 51  1  0  0  0  0
 33 52  1  0  0  0  0
 33 53  1  0  0  0  0
 34 54  1  0  0  0  0
 34 55  1  0  0  0  0
 34 56  1  0  0  0  0
M  CHG  2   7  -1  16   1
M  END
>  <DRUGBANK_ID>
DB02164

>  <SECONDARY_ACCESSION_NUMBERS>
EXPT01464

>  <COMMON_NAME>
N-sulfo-flavin mononucleotide

$$$$
