637
 OpenBabel10282417072D

 65 69  0  0  0  0  0  0  0  0999 V2000
    1.9121    4.8101    0.0000 F   0  0  0  0  0  0  0  0  0  0  0  0
    9.2913   -4.8101    0.0000 O   0  0  0  0  0  0  0  0  0  0  0  0
    6.4037   -1.2377    0.0000 N   0  0  0  0  0  0  0  0  0  0  0  0
    5.1662    0.9058    0.0000 N   0  0  0  0  0  0  0  0  0  0  0  0
    3.8597    1.5697    0.0000 N   0  0  0  0  0  0  0  0  0  0  0  0
    3.8597    0.2418    0.0000 N   0  0  0  0  0  0  0  0  0  0  0  0
    5.5787    0.1912    0.0000 C   0  0  0  0  0  0  0  0  0  0  0  0
    5.1662   -0.5232    0.0000 C   0  0  0  0  0  0  0  0  0  0  0  0
    6.4037    0.1912    0.0000 C   0  0  0  0  0  0  0  0  0  0  0  0
    5.5787   -1.2377    0.0000 C   0  0  0  0  0  0  0  0  0  0  0  0
    6.8162   -0.5232    0.0000 C   0  0  0  0  0  0  0  0  0  0  0  0
    6.8162   -1.9522    0.0000 C   0  0  0  0  0  0  0  0  0  0  0  0
    7.6412   -1.9522    0.0000 C   0  0  0  0  0  0  0  0  0  0  0  0
    4.3412    0.9058    0.0000 C   0  0  0  0  0  0  0  0  0  0  0  0
    8.0537   -2.6667    0.0000 C   0  0  0  0  0  0  0  0  0  0  0  0
    3.0791    1.3183    0.0000 C   0  0  0  0  0  0  0  0  0  0  0  0
    4.1159    2.3539    0.0000 C   0  0  0  0  0  0  0  0  0  0  0  0
    3.0791    0.4933    0.0000 C   0  0  0  0  0  0  0  0  0  0  0  0
    2.3645    1.7308    0.0000 C   0  0  0  0  0  0  0  0  0  0  0  0
    3.5650    2.9679    0.0000 C   0  0  0  0  0  0  0  0  0  0  0  0
    8.8788   -2.6667    0.0000 C   0  0  0  0  0  0  0  0  0  0  0  0
    7.6412   -3.3812    0.0000 C   0  0  0  0  0  0  0  0  0  0  0  0
    2.3645    0.0808    0.0000 C   0  0  0  0  0  0  0  0  0  0  0  0
    1.6500    1.3183    0.0000 C   0  0  0  0  0  0  0  0  0  0  0  0
    1.6500    0.4933    0.0000 C   0  0  0  0  0  0  0  0  0  0  0  0
    9.2913   -3.3812    0.0000 C   0  0  0  0  0  0  0  0  0  0  0  0
    8.0537   -4.0956    0.0000 C   0  0  0  0  0  0  0  0  0  0  0  0
    2.7577    2.7978    0.0000 C   0  0  0  0  0  0  0  0  0  0  0  0
    3.8213    3.7521    0.0000 C   0  0  0  0  0  0  0  0  0  0  0  0
    8.8788   -4.0956    0.0000 C   0  0  0  0  0  0  0  0  0  0  0  0
    2.2067    3.4119    0.0000 C   0  0  0  0  0  0  0  0  0  0  0  0
    3.2703    4.3662    0.0000 C   0  0  0  0  0  0  0  0  0  0  0  0
    2.4630    4.1960    0.0000 C   0  0  0  0  0  0  0  0  0  0  0  0
   10.1163   -4.8101    0.0000 C   0  0  0  0  0  0  0  0  0  0  0  0
    5.6585    1.7584    0.0000 H   0  0  0  0  0  0  0  0  0  0  0  0
    6.1137   -0.7355    0.0000 H   0  0  0  0  0  0  0  0  0  0  0  0
    4.0962   -0.5232    0.0000 H   0  0  0  0  0  0  0  0  0  0  0  0
    4.6312   -1.4498    0.0000 H   0  0  0  0  0  0  0  0  0  0  0  0
    6.9387    1.1179    0.0000 H   0  0  0  0  0  0  0  0  0  0  0  0
    7.4737    0.1912    0.0000 H   0  0  0  0  0  0  0  0  0  0  0  0
    5.0437   -2.1643    0.0000 H   0  0  0  0  0  0  0  0  0  0  0  0
    4.5087   -1.2377    0.0000 H   0  0  0  0  0  0  0  0  0  0  0  0
    7.8862   -0.5232    0.0000 H   0  0  0  0  0  0  0  0  0  0  0  0
    7.3512    0.4035    0.0000 H   0  0  0  0  0  0  0  0  0  0  0  0
    6.2812   -2.8788    0.0000 H   0  0  0  0  0  0  0  0  0  0  0  0
    7.3512   -2.8788    0.0000 H   0  0  0  0  0  0  0  0  0  0  0  0
    8.1762   -1.0256    0.0000 H   0  0  0  0  0  0  0  0  0  0  0  0
    8.7112   -1.9522    0.0000 H   0  0  0  0  0  0  0  0  0  0  0  0
    5.1629    2.5746    0.0000 H   0  0  0  0  0  0  0  0  0  0  0  0
    4.4483    3.3710    0.0000 H   0  0  0  0  0  0  0  0  0  0  0  0
    2.3645    2.7628    0.0000 H   0  0  0  0  0  0  0  0  0  0  0  0
    9.3948   -1.7730    0.0000 H   0  0  0  0  0  0  0  0  0  0  0  0
    6.6092   -3.3812    0.0000 H   0  0  0  0  0  0  0  0  0  0  0  0
    2.3645   -0.9512    0.0000 H   0  0  0  0  0  0  0  0  0  0  0  0
    0.7563    1.8343    0.0000 H   0  0  0  0  0  0  0  0  0  0  0  0
    0.7563   -0.0227    0.0000 H   0  0  0  0  0  0  0  0  0  0  0  0
   10.3233   -3.3812    0.0000 H   0  0  0  0  0  0  0  0  0  0  0  0
    7.5377   -4.9893    0.0000 H   0  0  0  0  0  0  0  0  0  0  0  0
    2.4371    1.8169    0.0000 H   0  0  0  0  0  0  0  0  0  0  0  0
    4.8311    3.9649    0.0000 H   0  0  0  0  0  0  0  0  0  0  0  0
    1.1969    3.1991    0.0000 H   0  0  0  0  0  0  0  0  0  0  0  0
    3.5909    5.3471    0.0000 H   0  0  0  0  0  0  0  0  0  0  0  0
   10.6513   -5.7367    0.0000 H   0  0  0  0  0  0  0  0  0  0  0  0
   10.6513   -3.8835    0.0000 H   0  0  0  0  0  0  0  0  0  0  0  0
   11.1863   -4.8101    0.0000 H   0  0  0  0  0  0  0  0  0  0  0  0
  1 33  1  0  0  0  0
  2 30  1  0  0  0  0
  2 34  1  0  0  0  0
  3 10  1  0  0  0  0
  3 11  1  0  0  0  0
  3 12  1  0  0  0  0
  4  7  1  0  0  0  0
  4 14  1  0  0  0  0
  4 35  1  0  0  0  0
  5 14  1  0  0  0  0
  5 16  1  0  0  0  0
  5 17  1  0  0  0  0
  6 14  2  0  0  0  0
  6 18  1  0  0  0  0
  7  8  1  0  0  0  0
  7  9  1  0  0  0  0
  7 36  1  0  0  0  0
  8 10  1  0  0  0  0
  8 37  1  0  0  0  0
  8 38  1  0  0  0  0
  9 11  1  0  0  0  0
  9 39  1  0  0  0  0
  9 40  1  0  0  0  0
 10 41  1  0  0  0  0
 10 42  1  0  0  0  0
 11 43  1  0  0  0  0
 11 44  1  0  0  0  0
 12 13  1  0  0  0  0
 12 45  1  0  0  0  0
 12 46  1  0  0  0  0
 13 15  1  0  0  0  0
 13 47  1  0  0  0  0
 13 48  1  0  0  0  0
 15 21  2  0  0  0  0
 15 22  1  0  0  0  0
 16 18  1  0  0  0  0
 16 19  2  0  0  0  0
 17 20  1  0  0  0  0
 17 49  1  0  0  0  0
 17 50  1  0  0  0  0
 18 23  2  0  0  0  0
 19 24  1  0  0  0  0
 19 51  1  0  0  0  0
 20 28  2  0  0  0  0
 20 29  1  0  0  0  0
 21 26  1  0  0  0  0
 21 52  1  0  0  0  0
 22 27  2  0  0  0  0
 22 53  1  0  0  0  0
 23 25  1  0  0  0  0
 23 54  1  0  0  0  0
 24 25  2  0  0  0  0
 24 55  1  0  0  0  0
 25 56  1  0  0  0  0
 26 30  2  0  0  0  0
 26 57  1  0  0  0  0
 27 30  1  0  0  0  0
 27 58  1  0  0  0  0
 28 31  1  0  0  0  0
 28 59  1  0  0  0  0
 29 32  2  0  0  0  0
 29 60  1  0  0  0  0
 31 33  2  0  0  0  0
 31 61  1  0  0  0  0
 32 33  1  0  0  0  0
 32 62  1  0  0  0  0
 34 63  1  0  0  0  0
 34 64  1  0  0  0  0
 34 65  1  0  0  0  0
M  END
>  <DRUGBANK_ID>
DB00637

>  <SECONDARY_ACCESSION_NUMBERS>
APRD00585

>  <COMMON_NAME>
Astemizole

>  <CAS_NUMBER>
68844-77-9

>  <UNII>
7HU6337315

>  <SYNONYMS>
1-(p-Fluorobenzyl)-2-((1-(2-(p-methoxyphenyl)ethyl)piperid-4-yl)amino)benzimidazole; 1-(p-Fluorobenzyl)-2-((1-(p-methoxyphenethyl)-4-piperidyl)amino)benzimidazole; Astemizol; Ast√©mizole; Astemizole; Astemizolum

$$$$
