
 OpenBabel10282417072D

189193  0  0  0  0  0  0  0  0999 V2000
    4.8227    3.0768    0.0000 Ga  0  1  0  0  0  0  0  0  0  0  0  0
    4.0941    6.0617    0.0000 C   0  0  0  0  0  0  0  0  0  0  0  0
    4.9189    6.0617    0.0000 O   0  0  0  0  0  0  0  0  0  0  0  0
    3.6816    6.7762    0.0000 O   0  5  0  0  0  0  0  0  0  0  0  0
    3.6816    5.3473    0.0000 C   0  0  0  0  0  0  0  0  0  0  0  0
    4.0941    4.6327    0.0000 N   0  0  0  0  0  0  0  0  0  0  0  0
    3.6816    3.9183    0.0000 C   0  0  0  0  0  0  0  0  0  0  0  0
    2.9625    3.5011    0.0000 C   0  0  0  0  0  0  0  0  0  0  0  0
    2.9625    2.6762    0.0000 N   0  0  0  0  0  0  0  0  0  0  0  0
    3.6816    2.2639    0.0000 C   0  0  0  0  0  0  0  0  0  0  0  0
    4.0941    1.5494    0.0000 C   0  0  0  0  0  0  0  0  0  0  0  0
    4.9189    1.5494    0.0000 N   0  0  0  0  0  0  0  0  0  0  0  0
    5.3312    2.2639    0.0000 C   0  0  0  0  0  0  0  0  0  0  0  0
    6.0458    2.6762    0.0000 C   0  0  0  0  0  0  0  0  0  0  0  0
    6.0458    3.5011    0.0000 N   0  0  0  0  0  0  0  0  0  0  0  0
    5.3312    3.9183    0.0000 C   0  0  0  0  0  0  0  0  0  0  0  0
    4.9189    4.6327    0.0000 C   0  0  0  0  0  0  0  0  0  0  0  0
    6.7604    3.9183    0.0000 C   0  0  0  0  0  0  0  0  0  0  0  0
    6.7604    4.7430    0.0000 C   0  0  0  0  0  0  0  0  0  0  0  0
    6.0458    5.1554    0.0000 O   0  5  0  0  0  0  0  0  0  0  0  0
    7.4797    5.1554    0.0000 O   0  0  0  0  0  0  0  0  0  0  0  0
    5.3312    0.8349    0.0000 C   0  0  0  0  0  0  0  0  0  0  0  0
    6.1560    0.8349    0.0000 C   0  0  0  0  0  0  0  0  0  0  0  0
    6.5685    1.5494    0.0000 O   0  5  0  0  0  0  0  0  0  0  0  0
    6.5685    0.1203    0.0000 O   0  0  0  0  0  0  0  0  0  0  0  0
    2.2480    2.2639    0.0000 C   0  0  0  0  0  0  0  0  0  0  0  0
    2.2480    1.4391    0.0000 C   0  0  0  0  0  0  0  0  0  0  0  0
    2.9625    1.0267    0.0000 O   0  0  0  0  0  0  0  0  0  0  0  0
    1.3205    0.9017    0.0000 N   0  0  0  0  0  0  0  0  0  0  0  0
    1.3205   -0.1733    0.0000 C   0  0  1  0  0  0  0  0  0  0  0  0
    0.6060   -0.5856    0.0000 C   0  0  0  0  0  0  0  0  0  0  0  0
   -0.1085   -0.1733    0.0000 O   0  0  0  0  0  0  0  0  0  0  0  0
    0.6060   -1.4106    0.0000 N   0  0  0  0  0  0  0  0  0  0  0  0
   -0.1085   -1.8228    0.0000 C   0  0  1  0  0  0  0  0  0  0  0  0
   -0.1085   -2.6477    0.0000 C   0  0  0  0  0  0  0  0  0  0  0  0
    0.6060   -3.0601    0.0000 S   0  0  0  0  0  0  0  0  0  0  0  0
    0.6060   -3.8895    0.0000 S   0  0  0  0  0  0  0  0  0  0  0  0
    1.3205   -4.3019    0.0000 C   0  0  0  0  0  0  0  0  0  0  0  0
    1.3205   -5.1266    0.0000 C   0  0  1  0  0  0  0  0  0  0  0  0
    2.0350   -5.5391    0.0000 C   0  0  0  0  0  0  0  0  0  0  0  0
    2.7495   -5.1266    0.0000 N   0  0  0  0  0  0  0  0  0  0  0  0
    2.7495   -4.3019    0.0000 C   0  0  1  0  0  0  0  0  0  0  0  0
    3.4641   -3.8895    0.0000 C   0  0  2  0  0  0  0  0  0  0  0  0
    3.4641   -3.0601    0.0000 O   0  0  0  0  0  0  0  0  0  0  0  0
    4.1787   -4.3019    0.0000 C   0  0  0  0  0  0  0  0  0  0  0  0
    2.0350   -3.8895    0.0000 C   0  0  0  0  0  0  0  0  0  0  0  0
    2.0350   -3.0601    0.0000 O   0  0  0  0  0  0  0  0  0  0  0  0
    2.0350   -6.3639    0.0000 O   0  0  0  0  0  0  0  0  0  0  0  0
    0.6060   -5.5391    0.0000 N   0  0  0  0  0  0  0  0  0  0  0  0
   -0.1085   -5.1266    0.0000 C   0  0  0  0  0  0  0  0  0  0  0  0
   -0.8276   -5.5391    0.0000 C   0  0  1  0  0  0  0  0  0  0  0  0
   -1.5422   -5.1266    0.0000 N   0  0  0  0  0  0  0  0  0  0  0  0
   -2.2568   -5.5391    0.0000 C   0  0  0  0  0  0  0  0  0  0  0  0
   -2.9713   -5.1266    0.0000 C   0  0  1  0  0  0  0  0  0  0  0  0
   -2.9713   -4.3019    0.0000 N   0  0  0  0  0  0  0  0  0  0  0  0
   -3.6858   -3.8895    0.0000 C   0  0  0  0  0  0  0  0  0  0  0  0
   -3.6858   -3.0601    0.0000 C   0  0  2  0  0  0  0  0  0  0  0  0
   -2.9713   -2.6477    0.0000 N   0  0  0  0  0  0  0  0  0  0  0  0
   -2.9713   -1.8228    0.0000 C   0  0  0  0  0  0  0  0  0  0  0  0
   -2.2568   -1.4106    0.0000 C   0  0  1  0  0  0  0  0  0  0  0  0
   -1.5422   -1.8228    0.0000 N   0  0  0  0  0  0  0  0  0  0  0  0
   -0.8276   -1.4106    0.0000 C   0  0  0  0  0  0  0  0  0  0  0  0
   -0.8276   -0.5856    0.0000 O   0  0  0  0  0  0  0  0  0  0  0  0
   -2.2568   -0.5856    0.0000 C   0  0  0  0  0  0  0  0  0  0  0  0
   -2.9713   -0.1733    0.0000 C   0  0  0  0  0  0  0  0  0  0  0  0
   -2.9713    0.6560    0.0000 C   0  0  0  0  0  0  0  0  0  0  0  0
   -3.6858    1.0685    0.0000 C   0  0  0  0  0  0  0  0  0  0  0  0
   -4.4004    0.6560    0.0000 C   0  0  0  0  0  0  0  0  0  0  0  0
   -4.4004   -0.1733    0.0000 C   0  0  0  0  0  0  0  0  0  0  0  0
   -3.6858   -0.5856    0.0000 C   0  0  0  0  0  0  0  0  0  0  0  0
   -5.1149    1.0685    0.0000 O   0  0  0  0  0  0  0  0  0  0  0  0
   -3.6858   -1.4106    0.0000 O   0  0  0  0  0  0  0  0  0  0  0  0
   -4.4004   -2.6477    0.0000 C   0  0  0  0  0  0  0  0  0  0  0  0
   -5.1149   -3.0601    0.0000 C   0  0  0  0  0  0  0  0  0  0  0  0
   -5.8688   -2.7248    0.0000 C   0  0  0  0  0  0  0  0  0  0  0  0
   -6.4241   -3.3395    0.0000 C   0  0  0  0  0  0  0  0  0  0  0  0
   -6.0118   -4.0539    0.0000 N   0  0  0  0  0  0  0  0  0  0  0  0
   -5.2025   -3.8844    0.0000 C   0  0  0  0  0  0  0  0  0  0  0  0
   -7.2277   -3.1699    0.0000 C   0  0  0  0  0  0  0  0  0  0  0  0
   -7.4797   -2.3812    0.0000 C   0  0  0  0  0  0  0  0  0  0  0  0
   -6.9338   -1.7666    0.0000 C   0  0  0  0  0  0  0  0  0  0  0  0
   -6.1275   -1.9408    0.0000 C   0  0  0  0  0  0  0  0  0  0  0  0
   -4.4004   -4.3019    0.0000 O   0  0  0  0  0  0  0  0  0  0  0  0
   -3.6858   -5.5391    0.0000 C   0  0  0  0  0  0  0  0  0  0  0  0
   -4.4004   -5.1266    0.0000 C   0  0  0  0  0  0  0  0  0  0  0  0
   -5.1149   -5.5391    0.0000 C   0  0  0  0  0  0  0  0  0  0  0  0
   -5.8293   -5.1266    0.0000 C   0  0  0  0  0  0  0  0  0  0  0  0
   -6.5486   -5.5391    0.0000 N   0  0  0  0  0  0  0  0  0  0  0  0
   -2.2568   -6.3639    0.0000 O   0  0  0  0  0  0  0  0  0  0  0  0
   -0.8276   -6.3639    0.0000 C   0  0  2  0  0  0  0  0  0  0  0  0
   -1.5422   -6.7762    0.0000 O   0  0  0  0  0  0  0  0  0  0  0  0
   -0.1085   -6.7762    0.0000 C   0  0  0  0  0  0  0  0  0  0  0  0
   -0.1085   -4.3019    0.0000 O   0  0  0  0  0  0  0  0  0  0  0  0
    2.4656   -0.8313    0.0000 C   0  0  0  0  0  0  0  0  0  0  0  0
    3.1802   -0.4189    0.0000 C   0  0  0  0  0  0  0  0  0  0  0  0
    3.1802    0.4057    0.0000 C   0  0  0  0  0  0  0  0  0  0  0  0
    3.8947    0.8182    0.0000 C   0  0  0  0  0  0  0  0  0  0  0  0
    4.6093    0.4057    0.0000 C   0  0  0  0  0  0  0  0  0  0  0  0
    4.6093   -0.4189    0.0000 C   0  0  0  0  0  0  0  0  0  0  0  0
    3.8947   -0.8313    0.0000 C   0  0  0  0  0  0  0  0  0  0  0  0
    2.6116    5.3474    0.0000 H   0  0  0  0  0  0  0  0  0  0  0  0
    3.1465    4.4207    0.0000 H   0  0  0  0  0  0  0  0  0  0  0  0
    4.4390    3.1625    0.0000 H   0  0  0  0  0  0  0  0  0  0  0  0
    3.5436    2.8572    0.0000 H   0  0  0  0  0  0  0  0  0  0  0  0
    2.0353    4.0351    0.0000 H   0  0  0  0  0  0  0  0  0  0  0  0
    2.0361    2.9656    0.0000 H   0  0  0  0  0  0  0  0  0  0  0  0
    4.4371    3.0216    0.0000 H   0  0  0  0  0  0  0  0  0  0  0  0
    4.7425    2.1250    0.0000 H   0  0  0  0  0  0  0  0  0  0  0  0
    3.5591    0.6228    0.0000 H   0  0  0  0  0  0  0  0  0  0  0  0
    4.6291    0.6228    0.0000 H   0  0  0  0  0  0  0  0  0  0  0  0
    4.5746    3.0205    0.0000 H   0  0  0  0  0  0  0  0  0  0  0  0
    5.4710    3.3247    0.0000 H   0  0  0  0  0  0  0  0  0  0  0  0
    6.9724    2.1411    0.0000 H   0  0  0  0  0  0  0  0  0  0  0  0
    6.9725    3.2111    0.0000 H   0  0  0  0  0  0  0  0  0  0  0  0
    4.5727    3.1636    0.0000 H   0  0  0  0  0  0  0  0  0  0  0  0
    4.2705    4.0594    0.0000 H   0  0  0  0  0  0  0  0  0  0  0  0
    5.4540    5.5593    0.0000 H   0  0  0  0  0  0  0  0  0  0  0  0
    4.3839    5.5594    0.0000 H   0  0  0  0  0  0  0  0  0  0  0  0
    7.6883    3.3855    0.0000 H   0  0  0  0  0  0  0  0  0  0  0  0
    7.6864    4.4544    0.0000 H   0  0  0  0  0  0  0  0  0  0  0  0
    4.7961   -0.0917    0.0000 H   0  0  0  0  0  0  0  0  0  0  0  0
    5.8661   -0.0918    0.0000 H   0  0  0  0  0  0  0  0  0  0  0  0
    1.3214    2.7990    0.0000 H   0  0  0  0  0  0  0  0  0  0  0  0
    1.3213    1.7290    0.0000 H   0  0  0  0  0  0  0  0  0  0  0  0
    0.4675    1.3933    0.0000 H   0  0  0  0  0  0  0  0  0  0  0  0
    2.2466    0.3626    0.0000 H   0  0  0  0  0  0  0  0  0  0  0  0
    1.4585   -1.9030    0.0000 H   0  0  0  0  0  0  0  0  0  0  0  0
    0.8181   -2.3580    0.0000 H   0  0  0  0  0  0  0  0  0  0  0  0
   -1.0351   -3.1828    0.0000 H   0  0  0  0  0  0  0  0  0  0  0  0
   -0.1084   -3.7177    0.0000 H   0  0  0  0  0  0  0  0  0  0  0  0
    2.2471   -3.7668    0.0000 H   0  0  0  0  0  0  0  0  0  0  0  0
    2.2472   -4.8369    0.0000 H   0  0  0  0  0  0  0  0  0  0  0  0
    2.2471   -4.5916    0.0000 H   0  0  0  0  0  0  0  0  0  0  0  0
    3.6021   -5.6189    0.0000 H   0  0  0  0  0  0  0  0  0  0  0  0
    3.6761   -4.8370    0.0000 H   0  0  0  0  0  0  0  0  0  0  0  0
    2.5375   -3.3544    0.0000 H   0  0  0  0  0  0  0  0  0  0  0  0
    4.3041   -2.5751    0.0000 H   0  0  0  0  0  0  0  0  0  0  0  0
    4.1789   -5.3719    0.0000 H   0  0  0  0  0  0  0  0  0  0  0  0
    5.1052   -3.7667    0.0000 H   0  0  0  0  0  0  0  0  0  0  0  0
    5.1054   -4.8367    0.0000 H   0  0  0  0  0  0  0  0  0  0  0  0
    1.1084   -4.4246    0.0000 H   0  0  0  0  0  0  0  0  0  0  0  0
    1.1083   -3.3545    0.0000 H   0  0  0  0  0  0  0  0  0  0  0  0
    2.8750   -2.5751    0.0000 H   0  0  0  0  0  0  0  0  0  0  0  0
    0.6060   -6.5236    0.0000 H   0  0  0  0  0  0  0  0  0  0  0  0
   -0.8261   -4.4691    0.0000 H   0  0  0  0  0  0  0  0  0  0  0  0
   -1.5422   -4.1421    0.0000 H   0  0  0  0  0  0  0  0  0  0  0  0
   -2.9713   -6.1966    0.0000 H   0  0  0  0  0  0  0  0  0  0  0  0
   -2.1187   -3.8096    0.0000 H   0  0  0  0  0  0  0  0  0  0  0  0
   -4.6124   -3.5952    0.0000 H   0  0  0  0  0  0  0  0  0  0  0  0
   -2.1187   -3.1400    0.0000 H   0  0  0  0  0  0  0  0  0  0  0  0
   -3.1834   -0.8754    0.0000 H   0  0  0  0  0  0  0  0  0  0  0  0
   -1.5422   -2.8073    0.0000 H   0  0  0  0  0  0  0  0  0  0  0  0
   -1.3302   -0.0505    0.0000 H   0  0  0  0  0  0  0  0  0  0  0  0
   -2.2570    0.4844    0.0000 H   0  0  0  0  0  0  0  0  0  0  0  0
   -2.0776    1.1720    0.0000 H   0  0  0  0  0  0  0  0  0  0  0  0
   -3.6858    2.1005    0.0000 H   0  0  0  0  0  0  0  0  0  0  0  0
   -5.2941   -0.6894    0.0000 H   0  0  0  0  0  0  0  0  0  0  0  0
   -3.6858   -1.6176    0.0000 H   0  0  0  0  0  0  0  0  0  0  0  0
   -5.1149    2.0055    0.0000 H   0  0  0  0  0  0  0  0  0  0  0  0
   -4.4004   -1.5777    0.0000 H   0  0  0  0  0  0  0  0  0  0  0  0
   -5.3270   -2.1127    0.0000 H   0  0  0  0  0  0  0  0  0  0  0  0
   -6.4136   -4.9527    0.0000 H   0  0  0  0  0  0  0  0  0  0  0  0
   -4.4370   -4.5765    0.0000 H   0  0  0  0  0  0  0  0  0  0  0  0
   -7.9196   -3.9356    0.0000 H   0  0  0  0  0  0  0  0  0  0  0  0
   -8.4893   -2.1676    0.0000 H   0  0  0  0  0  0  0  0  0  0  0  0
   -7.2544   -0.7857    0.0000 H   0  0  0  0  0  0  0  0  0  0  0  0
   -5.4374   -1.1735    0.0000 H   0  0  0  0  0  0  0  0  0  0  0  0
   -3.6858   -6.6091    0.0000 H   0  0  0  0  0  0  0  0  0  0  0  0
   -4.6124   -6.0742    0.0000 H   0  0  0  0  0  0  0  0  0  0  0  0
   -4.4004   -4.0566    0.0000 H   0  0  0  0  0  0  0  0  0  0  0  0
   -5.3271   -4.5916    0.0000 H   0  0  0  0  0  0  0  0  0  0  0  0
   -5.1149   -6.6091    0.0000 H   0  0  0  0  0  0  0  0  0  0  0  0
   -6.0416   -6.0741    0.0000 H   0  0  0  0  0  0  0  0  0  0  0  0
   -5.8277   -4.0566    0.0000 H   0  0  0  0  0  0  0  0  0  0  0  0
   -6.7548   -4.5896    0.0000 H   0  0  0  0  0  0  0  0  0  0  0  0
   -7.4305   -5.0265    0.0000 H   0  0  0  0  0  0  0  0  0  0  0  0
   -6.5516   -6.5591    0.0000 H   0  0  0  0  0  0  0  0  0  0  0  0
   -1.7542   -5.8288    0.0000 H   0  0  0  0  0  0  0  0  0  0  0  0
   -2.3821   -6.2910    0.0000 H   0  0  0  0  0  0  0  0  0  0  0  0
   -0.1053   -7.8462    0.0000 H   0  0  0  0  0  0  0  0  0  0  0  0
    0.8165   -6.2384    0.0000 H   0  0  0  0  0  0  0  0  0  0  0  0
    0.8197   -7.3084    0.0000 H   0  0  0  0  0  0  0  0  0  0  0  0
    2.4666   -1.9013    0.0000 H   0  0  0  0  0  0  0  0  0  0  0  0
    3.3924   -1.3660    0.0000 H   0  0  0  0  0  0  0  0  0  0  0  0
    2.2865    0.9217    0.0000 H   0  0  0  0  0  0  0  0  0  0  0  0
    3.8947    1.8502    0.0000 H   0  0  0  0  0  0  0  0  0  0  0  0
    5.5030    0.9217    0.0000 H   0  0  0  0  0  0  0  0  0  0  0  0
    5.5030   -0.9350    0.0000 H   0  0  0  0  0  0  0  0  0  0  0  0
    3.8947   -1.8633    0.0000 H   0  0  0  0  0  0  0  0  0  0  0  0
  2  3  2  0  0  0  0
  2  4  1  0  0  0  0
  2  5  1  0  0  0  0
  5101  1  0  0  0  0
  5102  1  0  0  0  0
  6  5  1  0  0  0  0
  6 17  1  0  0  0  0
  7  6  1  0  0  0  0
  7103  1  0  0  0  0
  7104  1  0  0  0  0
  8  7  1  0  0  0  0
  8105  1  0  0  0  0
  8106  1  0  0  0  0
  9  8  1  0  0  0  0
 10  9  1  0  0  0  0
 10107  1  0  0  0  0
 10108  1  0  0  0  0
 11 10  1  0  0  0  0
 11109  1  0  0  0  0
 11110  1  0  0  0  0
 12 11  1  0  0  0  0
 12 22  1  0  0  0  0
 13 12  1  0  0  0  0
 13111  1  0  0  0  0
 13112  1  0  0  0  0
 14 13  1  0  0  0  0
 14113  1  0  0  0  0
 14114  1  0  0  0  0
 15 14  1  0  0  0  0
 15 18  1  0  0  0  0
 16 15  1  0  0  0  0
 16115  1  0  0  0  0
 16116  1  0  0  0  0
 17 16  1  0  0  0  0
 17117  1  0  0  0  0
 17118  1  0  0  0  0
 18119  1  0  0  0  0
 18120  1  0  0  0  0
 19 18  1  0  0  0  0
 19 20  1  0  0  0  0
 19 21  2  0  0  0  0
 22121  1  0  0  0  0
 22122  1  0  0  0  0
 23 22  1  0  0  0  0
 23 24  1  0  0  0  0
 23 25  2  0  0  0  0
 26  9  1  0  0  0  0
 26123  1  0  0  0  0
 26124  1  0  0  0  0
 27 26  1  0  0  0  0
 27 28  2  0  0  0  0
 29 27  1  0  0  0  0
 29 30  1  0  0  0  0
 29125  1  0  0  0  0
 30 31  1  0  0  0  0
 30 94  1  0  0  0  0
 30126  1  1  0  0  0
 31 32  2  0  0  0  0
 33 31  1  0  0  0  0
 33127  1  0  0  0  0
 34 33  1  0  0  0  0
 34 35  1  0  0  0  0
 34 62  1  0  0  0  0
 34128  1  6  0  0  0
 35 36  1  0  0  0  0
 35129  1  0  0  0  0
 35130  1  0  0  0  0
 36 37  1  0  0  0  0
 38 37  1  0  0  0  0
 38131  1  0  0  0  0
 38132  1  0  0  0  0
 39 38  1  0  0  0  0
 39 40  1  0  0  0  0
 39133  1  6  0  0  0
 40 48  2  0  0  0  0
 41 40  1  0  0  0  0
 41134  1  0  0  0  0
 42 41  1  0  0  0  0
 42 43  1  0  0  0  0
 42 46  1  0  0  0  0
 42135  1  1  0  0  0
 43 44  1  0  0  0  0
 43 45  1  0  0  0  0
 43136  1  1  0  0  0
 44137  1  0  0  0  0
 45138  1  0  0  0  0
 45139  1  0  0  0  0
 45140  1  0  0  0  0
 46 47  1  0  0  0  0
 46141  1  0  0  0  0
 46142  1  0  0  0  0
 47143  1  0  0  0  0
 49 39  1  0  0  0  0
 49144  1  0  0  0  0
 50 49  1  0  0  0  0
 50 93  2  0  0  0  0
 51 50  1  0  0  0  0
 51 52  1  0  0  0  0
 51 90  1  0  0  0  0
 51145  1  1  0  0  0
 52 53  1  0  0  0  0
 52146  1  0  0  0  0
 53 89  2  0  0  0  0
 54 53  1  0  0  0  0
 54 84  1  0  0  0  0
 54147  1  1  0  0  0
 55 54  1  0  0  0  0
 55 56  1  0  0  0  0
 55148  1  0  0  0  0
 56 83  2  0  0  0  0
 57 56  1  0  0  0  0
 57 73  1  0  0  0  0
 57149  1  6  0  0  0
 58 57  1  0  0  0  0
 58 59  1  0  0  0  0
 58150  1  0  0  0  0
 59 72  2  0  0  0  0
 60 59  1  0  0  0  0
 60 64  1  0  0  0  0
 60151  1  1  0  0  0
 61 60  1  0  0  0  0
 61 62  1  0  0  0  0
 61152  1  0  0  0  0
 62 63  2  0  0  0  0
 64 65  1  0  0  0  0
 64153  1  0  0  0  0
 64154  1  0  0  0  0
 65 70  1  0  0  0  0
 66 65  2  0  0  0  0
 66155  1  0  0  0  0
 67 66  1  0  0  0  0
 67156  1  0  0  0  0
 68 67  2  0  0  0  0
 68 71  1  0  0  0  0
 69 68  1  0  0  0  0
 69157  1  0  0  0  0
 70 69  2  0  0  0  0
 70158  1  0  0  0  0
 71159  1  0  0  0  0
 73 74  1  0  0  0  0
 73160  1  0  0  0  0
 73161  1  0  0  0  0
 74 75  1  0  0  0  0
 75 76  2  0  0  0  0
 76 77  1  0  0  0  0
 76 79  1  0  0  0  0
 77 78  1  0  0  0  0
 77162  1  0  0  0  0
 78 74  2  0  0  0  0
 78163  1  0  0  0  0
 79 80  2  0  0  0  0
 79164  1  0  0  0  0
 80 81  1  0  0  0  0
 80165  1  0  0  0  0
 81 82  2  0  0  0  0
 81166  1  0  0  0  0
 82 75  1  0  0  0  0
 82167  1  0  0  0  0
 84 85  1  0  0  0  0
 84168  1  0  0  0  0
 84169  1  0  0  0  0
 85 86  1  0  0  0  0
 85170  1  0  0  0  0
 85171  1  0  0  0  0
 86 87  1  0  0  0  0
 86172  1  0  0  0  0
 86173  1  0  0  0  0
 87 88  1  0  0  0  0
 87174  1  0  0  0  0
 87175  1  0  0  0  0
 88176  1  0  0  0  0
 88177  1  0  0  0  0
 90 91  1  0  0  0  0
 90 92  1  0  0  0  0
 90178  1  6  0  0  0
 91179  1  0  0  0  0
 92180  1  0  0  0  0
 92181  1  0  0  0  0
 92182  1  0  0  0  0
 94 95  1  0  0  0  0
 94183  1  0  0  0  0
 94184  1  0  0  0  0
 95100  1  0  0  0  0
 96 95  2  0  0  0  0
 96185  1  0  0  0  0
 97 96  1  0  0  0  0
 97186  1  0  0  0  0
 98 97  2  0  0  0  0
 98187  1  0  0  0  0
 99 98  1  0  0  0  0
 99188  1  0  0  0  0
100 99  2  0  0  0  0
100189  1  0  0  0  0
M  ISO  1   1  68
M  CHG  4   1   3   4  -1  20  -1  24  -1
M  END
>  <DRUGBANK_ID>
DB15494

>  <COMMON_NAME>
Edotreotide gallium Ga-68

>  <CAS_NUMBER>
2101630-92-4

>  <UNII>
Y68179SY2L

>  <SYNONYMS>
Edotreotide Gallium Ga-68; Gallium (68Ga) edotreotide; Gallium edotreotide Ga-68; Gallium Ga 68-dotatoc; Gallium Ga 68-edotreotide; Gallium Ga-68 edotreotide; Gallium-68 (DOTA0-Phel-Tyr3)octreotide

$$$$
