
 OpenBabel10282417072D

 32 31  0  0  0  0  0  0  0  0999 V2000
    2.1434   -0.2062    0.0000 C   0  0  0  0  0  0  0  0  0  0  0  0
    2.8579   -0.6187    0.0000 H   0  0  0  0  0  0  0  0  0  0  0  0
    1.4289   -0.6187    0.0000 C   0  0  0  0  0  0  0  0  0  0  0  0
    0.7145   -0.2062    0.0000 C   0  0  3  0  0  0  0  0  0  0  0  0
   -1.4289   -0.6187    0.0000 C   0  0  0  0  0  0  0  0  0  0  0  0
    0.0000   -0.6187    0.0000 C   0  0  0  0  0  0  0  0  0  0  0  0
   -0.7145   -0.2062    0.0000 C   0  0  0  0  0  0  0  0  0  0  0  0
   -2.8579   -0.6187    0.0000 C   0  0  0  0  0  0  0  0  0  0  0  0
   -2.1434   -0.2062    0.0000 C   0  0  0  0  0  0  0  0  0  0  0  0
   -2.1434    0.6187    0.0000 C   0  0  0  0  0  0  0  0  0  0  0  0
    0.7145    0.6187    0.0000 C   0  0  0  0  0  0  0  0  0  0  0  0
    2.1434    0.6187    0.0000 O   0  0  0  0  0  0  0  0  0  0  0  0
   -2.8579    0.2062    0.0000 O   0  0  0  0  0  0  0  0  0  0  0  0
    1.4289   -1.6887    0.0000 H   0  0  0  0  0  0  0  0  0  0  0  0
    0.5022   -1.1537    0.0000 H   0  0  0  0  0  0  0  0  0  0  0  0
    1.6412    0.3288    0.0000 H   0  0  0  0  0  0  0  0  0  0  0  0
   -1.4289   -1.6887    0.0000 H   0  0  0  0  0  0  0  0  0  0  0  0
   -2.3555   -1.1537    0.0000 H   0  0  0  0  0  0  0  0  0  0  0  0
    0.0000   -1.6887    0.0000 H   0  0  0  0  0  0  0  0  0  0  0  0
   -0.9266   -1.1537    0.0000 H   0  0  0  0  0  0  0  0  0  0  0  0
   -0.7145    0.8638    0.0000 H   0  0  0  0  0  0  0  0  0  0  0  0
    0.2121    0.3288    0.0000 H   0  0  0  0  0  0  0  0  0  0  0  0
   -3.7845   -0.0837    0.0000 H   0  0  0  0  0  0  0  0  0  0  0  0
   -2.8579   -1.6887    0.0000 H   0  0  0  0  0  0  0  0  0  0  0  0
   -3.7846   -1.1537    0.0000 H   0  0  0  0  0  0  0  0  0  0  0  0
   -1.2168    1.1537    0.0000 H   0  0  0  0  0  0  0  0  0  0  0  0
   -3.0700    1.1537    0.0000 H   0  0  0  0  0  0  0  0  0  0  0  0
   -2.1434    1.6887    0.0000 H   0  0  0  0  0  0  0  0  0  0  0  0
    1.6411    1.1537    0.0000 H   0  0  0  0  0  0  0  0  0  0  0  0
   -0.2121    1.1537    0.0000 H   0  0  0  0  0  0  0  0  0  0  0  0
    0.7145    1.6887    0.0000 H   0  0  0  0  0  0  0  0  0  0  0  0
   -2.8580    1.1762    0.0000 H   0  0  0  0  0  0  0  0  0  0  0  0
  1 12  2  0  0  0  0
  1  2  1  0  0  0  0
  1  3  1  0  0  0  0
  3 14  1  0  0  0  0
  3 15  1  0  0  0  0
  4  3  1  0  0  0  0
  4 11  1  0  0  0  0
  4 16  1  0  0  0  0
  5 17  1  0  0  0  0
  5 18  1  0  0  0  0
  6  4  1  0  0  0  0
  6 19  1  0  0  0  0
  6 20  1  0  0  0  0
  7  5  1  0  0  0  0
  7  6  1  0  0  0  0
  7 21  1  0  0  0  0
  7 22  1  0  0  0  0
  8 23  1  0  0  0  0
  8 24  1  0  0  0  0
  8 25  1  0  0  0  0
  9  5  1  0  0  0  0
  9  8  1  0  0  0  0
  9 13  1  0  0  0  0
 10  9  1  0  0  0  0
 10 26  1  0  0  0  0
 10 27  1  0  0  0  0
 10 28  1  0  0  0  0
 11 29  1  0  0  0  0
 11 30  1  0  0  0  0
 11 31  1  0  0  0  0
 13 32  1  0  0  0  0
M  END
>  <DRUGBANK_ID>
DB14187

>  <COMMON_NAME>
Hydroxycitronellal

>  <CAS_NUMBER>
107-75-5

>  <UNII>
8SQ0VA4YUR

>  <SYNONYMS>
3,7-dimethyl-7-hydroxyoctan-1-al; 3,7-Dimethyl-7-hydroxyoctanal; 7-hydroxy-3,7-dimethyloctanal; 7-hydroxycitronellal; Citronellal hydrate; Cyclalia; Cyclosia; Fixol; hydroxy citronellal; Laurine; Lilyl aldehyde; Muguet synthetic; Muguettine principle; Oxydihydrocitronellal; Phixia

$$$$
