
 OpenBabel10282417072D

 26 26  0  0  0  0  0  0  0  0999 V2000
    1.2299    1.5822    0.0000 C   0  0  0  0  0  0  0  0  0  0  0  0
    1.2381    2.4043    0.0000 O   0  0  0  0  0  0  0  0  0  0  0  0
    0.5228    1.1711    0.0000 C   0  0  2  0  0  0  0  0  0  0  0  0
    1.9452    1.1711    0.0000 O   0  0  0  0  0  0  0  0  0  0  0  0
   -0.1924    1.5822    0.0000 N   0  0  0  0  0  0  0  0  0  0  0  0
    0.9371    0.4576    0.0000 C   0  0  0  0  0  0  0  0  0  0  0  0
    0.1120    0.4555    0.0000 C   0  0  0  0  0  0  0  0  0  0  0  0
    0.5263   -0.2579    0.0000 C   0  0  0  0  0  0  0  0  0  0  0  0
   -0.7129    0.4534    0.0000 C   0  0  0  0  0  0  0  0  0  0  0  0
    0.1156   -0.9734    0.0000 C   0  0  0  0  0  0  0  0  0  0  0  0
   -1.1236   -0.2619    0.0000 C   0  0  0  0  0  0  0  0  0  0  0  0
   -0.7093   -0.9754    0.0000 C   0  0  0  0  0  0  0  0  0  0  0  0
   -1.1201   -1.6910    0.0000 C   0  0  0  0  0  0  0  0  0  0  0  0
   -1.9452   -1.6929    0.0000 O   0  0  0  0  0  0  0  0  0  0  0  0
   -0.7058   -2.4043    0.0000 O   0  0  0  0  0  0  0  0  0  0  0  0
    1.9470    0.2341    0.0000 H   0  0  0  0  0  0  0  0  0  0  0  0
   -0.1943    2.6022    0.0000 H   0  0  0  0  0  0  0  0  0  0  0  0
   -1.0748    1.0705    0.0000 H   0  0  0  0  0  0  0  0  0  0  0  0
    0.4044   -0.4704    0.0000 H   0  0  0  0  0  0  0  0  0  0  0  0
    2.0071    0.4603    0.0000 H   0  0  0  0  0  0  0  0  0  0  0  0
    1.4744   -0.4677    0.0000 H   0  0  0  0  0  0  0  0  0  0  0  0
    1.5583   -0.2553    0.0000 H   0  0  0  0  0  0  0  0  0  0  0  0
   -1.2311    1.3459    0.0000 H   0  0  0  0  0  0  0  0  0  0  0  0
    0.6338   -1.8659    0.0000 H   0  0  0  0  0  0  0  0  0  0  0  0
   -2.1556   -0.2644    0.0000 H   0  0  0  0  0  0  0  0  0  0  0  0
   -2.4156   -0.8825    0.0000 H   0  0  0  0  0  0  0  0  0  0  0  0
  2  1  2  0  0  0  0
  3  1  1  6  0  0  0
  3  6  1  0  0  0  0
  4  1  1  0  0  0  0
  4 16  1  0  0  0  0
  5  3  1  0  0  0  0
  5 17  1  0  0  0  0
  5 18  1  0  0  0  0
  6 19  1  0  0  0  0
  6 20  1  0  0  0  0
  6 21  1  0  0  0  0
  7  3  1  0  0  0  0
  8  7  1  0  0  0  0
  8 22  1  0  0  0  0
  9  7  2  0  0  0  0
  9 23  1  0  0  0  0
 10  8  2  0  0  0  0
 10 24  1  0  0  0  0
 11  9  1  0  0  0  0
 11 25  1  0  0  0  0
 12 10  1  0  0  0  0
 12 11  2  0  0  0  0
 12 13  1  0  0  0  0
 13 14  1  0  0  0  0
 13 15  2  0  0  0  0
 14 26  1  0  0  0  0
M  END
>  <DRUGBANK_ID>
DB04256

>  <SECONDARY_ACCESSION_NUMBERS>
EXPT02133

>  <COMMON_NAME>
(S)-alpha-methyl-4-carboxyphenylglycine

>  <CAS_NUMBER>
150145-89-4

>  <UNII>
61F6J48NHR

>  <SYNONYMS>
(+)-MCPG; (+)-α-methyl-4-carboxyphenylglycine; (S)-(+)-α-amino-4-carboxy-2-methylbenzeneacetic; (S)-(+)-α-methyl-4-carboxyphenylglycine; (S)-a-methyl-4-carboxyphenylglycine; (S)-MCPG; (S)-α-methyl-4-carboxyphenylglycine

$$$$
