IPE
 OpenBabel10282417072D

 26 25  0  0  0  0  0  0  0  0999 V2000
    1.1926    0.1259    0.0000 C   0  0  0  0  0  0  0  0  0  0  0  0
    0.4780   -0.2866    0.0000 O   0  0  0  0  0  0  0  0  0  0  0  0
    1.9070   -0.2866    0.0000 C   0  0  0  0  0  0  0  0  0  0  0  0
    2.6216    0.1259    0.0000 C   0  0  0  0  0  0  0  0  0  0  0  0
    3.3361   -0.2866    0.0000 C   0  0  0  0  0  0  0  0  0  0  0  0
    2.6216    0.9510    0.0000 C   0  0  0  0  0  0  0  0  0  0  0  0
   -0.2365    0.1259    0.0000 P   0  0  1  0  0  0  0  0  0  0  0  0
    0.1760    0.8404    0.0000 O   0  0  0  0  0  0  0  0  0  0  0  0
   -0.6490   -0.5886    0.0000 O   0  0  0  0  0  0  0  0  0  0  0  0
   -0.9511    0.5384    0.0000 O   0  0  0  0  0  0  0  0  0  0  0  0
   -1.6655    0.1259    0.0000 P   0  0  0  0  0  0  0  0  0  0  0  0
   -2.3801   -0.2866    0.0000 O   0  0  0  0  0  0  0  0  0  0  0  0
   -2.0781    0.8404    0.0000 O   0  0  0  0  0  0  0  0  0  0  0  0
   -1.2530   -0.5886    0.0000 O   0  0  0  0  0  0  0  0  0  0  0  0
    1.1927    1.1959    0.0000 H   0  0  0  0  0  0  0  0  0  0  0  0
    2.1193    0.6609    0.0000 H   0  0  0  0  0  0  0  0  0  0  0  0
    1.9069   -1.3566    0.0000 H   0  0  0  0  0  0  0  0  0  0  0  0
    2.8336   -0.8217    0.0000 H   0  0  0  0  0  0  0  0  0  0  0  0
    3.3361   -1.3186    0.0000 H   0  0  0  0  0  0  0  0  0  0  0  0
    4.2298    0.2294    0.0000 H   0  0  0  0  0  0  0  0  0  0  0  0
    3.5482    1.4860    0.0000 H   0  0  0  0  0  0  0  0  0  0  0  0
    1.6950    1.4860    0.0000 H   0  0  0  0  0  0  0  0  0  0  0  0
    2.6216    2.0210    0.0000 H   0  0  0  0  0  0  0  0  0  0  0  0
   -1.6190   -0.5886    0.0000 H   0  0  0  0  0  0  0  0  0  0  0  0
   -3.2201    0.1985    0.0000 H   0  0  0  0  0  0  0  0  0  0  0  0
   -1.7380   -1.4286    0.0000 H   0  0  0  0  0  0  0  0  0  0  0  0
  1  2  1  0  0  0  0
  1  3  1  0  0  0  0
  1 15  1  0  0  0  0
  1 16  1  0  0  0  0
  3  4  1  0  0  0  0
  3 17  1  0  0  0  0
  3 18  1  0  0  0  0
  4  5  2  0  0  0  0
  4  6  1  0  0  0  0
  5 19  1  0  0  0  0
  5 20  1  0  0  0  0
  6 21  1  0  0  0  0
  6 22  1  0  0  0  0
  6 23  1  0  0  0  0
  7  2  1  0  0  0  0
  7  8  2  6  0  0  0
  7  9  1  0  0  0  0
  7 10  1  0  0  0  0
  9 24  1  0  0  0  0
 10 11  1  0  0  0  0
 11 12  1  0  0  0  0
 11 13  2  0  0  0  0
 11 14  1  0  0  0  0
 12 25  1  0  0  0  0
 14 26  1  0  0  0  0
M  END
>  <DRUGBANK_ID>
DB04714

>  <COMMON_NAME>
ISOPENTENYL PYROPHOSPHATE

>  <UNII>
LSC8849M7B

$$$$
