
 OpenBabel10282417072D

 56 60  0  0  0  0  0  0  0  0999 V2000
   -1.8722    4.0400    0.0000 C   0  0  0  0  0  0  0  0  0  0  0  0
   -2.5867    3.6275    0.0000 C   0  0  0  0  0  0  0  0  0  0  0  0
   -2.5867    2.8025    0.0000 C   0  0  0  0  0  0  0  0  0  0  0  0
   -1.8722    2.3901    0.0000 C   0  0  0  0  0  0  0  0  0  0  0  0
   -1.1577    2.8025    0.0000 C   0  0  0  0  0  0  0  0  0  0  0  0
   -1.1577    3.6275    0.0000 C   0  0  0  0  0  0  0  0  0  0  0  0
   -0.3731    3.8824    0.0000 S   0  0  0  0  0  0  0  0  0  0  0  0
    0.1117    3.2150    0.0000 C   0  0  0  0  0  0  0  0  0  0  0  0
   -0.3731    2.5476    0.0000 N   0  0  0  0  0  0  0  0  0  0  0  0
    0.9367    3.2150    0.0000 C   0  0  3  0  0  0  0  0  0  0  0  0
    1.3492    2.5005    0.0000 C   0  0  0  0  0  0  0  0  0  0  0  0
    1.3492    3.9296    0.0000 C   0  0  0  0  0  0  0  0  0  0  0  0
    1.7617    4.6440    0.0000 N   0  0  0  0  0  0  0  0  0  0  0  0
    2.1742    2.5005    0.0000 C   0  0  0  0  0  0  0  0  0  0  0  0
    0.9367    1.7861    0.0000 N   0  0  0  0  0  0  0  0  0  0  0  0
    1.3492    1.0716    0.0000 C   0  0  0  0  0  0  0  0  0  0  0  0
    2.1742    1.0716    0.0000 N   0  0  0  0  0  0  0  0  0  0  0  0
    2.5867    1.7861    0.0000 C   0  0  0  0  0  0  0  0  0  0  0  0
    0.9367    0.3571    0.0000 O   0  0  0  0  0  0  0  0  0  0  0  0
    0.1117    0.3571    0.0000 C   0  0  0  0  0  0  0  0  0  0  0  0
   -0.3007   -0.3572    0.0000 C   0  0  0  0  0  0  0  0  0  0  0  0
   -1.1257   -0.3572    0.0000 C   0  0  0  0  0  0  0  0  0  0  0  0
   -1.5382   -1.0717    0.0000 C   0  0  0  0  0  0  0  0  0  0  0  0
   -1.1257   -1.7862    0.0000 C   0  0  0  0  0  0  0  0  0  0  0  0
   -0.3007   -1.7862    0.0000 C   0  0  0  0  0  0  0  0  0  0  0  0
    0.1117   -1.0717    0.0000 C   0  0  0  0  0  0  0  0  0  0  0  0
   -1.5382   -2.5007    0.0000 C   0  0  0  0  0  0  0  0  0  0  0  0
   -1.1257   -3.2151    0.0000 N   0  0  0  0  0  0  0  0  0  0  0  0
   -0.3007   -3.2151    0.0000 C   0  0  0  0  0  0  0  0  0  0  0  0
   -1.5382   -3.9296    0.0000 C   0  0  0  0  0  0  0  0  0  0  0  0
   -1.1257   -4.6441    0.0000 C   0  0  0  0  0  0  0  0  0  0  0  0
   -0.3007   -4.6441    0.0000 O   0  0  0  0  0  0  0  0  0  0  0  0
    0.1117   -3.9296    0.0000 C   0  0  0  0  0  0  0  0  0  0  0  0
   -1.8722    5.0720    0.0000 H   0  0  0  0  0  0  0  0  0  0  0  0
   -3.4804    4.1435    0.0000 H   0  0  0  0  0  0  0  0  0  0  0  0
   -3.4804    2.2864    0.0000 H   0  0  0  0  0  0  0  0  0  0  0  0
   -1.8722    1.3581    0.0000 H   0  0  0  0  0  0  0  0  0  0  0  0
    0.4017    2.2884    0.0000 H   0  0  0  0  0  0  0  0  0  0  0  0
    2.6902    3.3942    0.0000 H   0  0  0  0  0  0  0  0  0  0  0  0
    3.6187    1.7861    0.0000 H   0  0  0  0  0  0  0  0  0  0  0  0
   -0.4233    1.2837    0.0000 H   0  0  0  0  0  0  0  0  0  0  0  0
   -0.9583    0.3571    0.0000 H   0  0  0  0  0  0  0  0  0  0  0  0
   -1.6417    0.5365    0.0000 H   0  0  0  0  0  0  0  0  0  0  0  0
   -2.5702   -1.0717    0.0000 H   0  0  0  0  0  0  0  0  0  0  0  0
    0.2154   -2.6799    0.0000 H   0  0  0  0  0  0  0  0  0  0  0  0
    1.1437   -1.0717    0.0000 H   0  0  0  0  0  0  0  0  0  0  0  0
   -2.6082   -2.5007    0.0000 H   0  0  0  0  0  0  0  0  0  0  0  0
   -2.0732   -3.4274    0.0000 H   0  0  0  0  0  0  0  0  0  0  0  0
    0.2344   -2.2885    0.0000 H   0  0  0  0  0  0  0  0  0  0  0  0
    0.7693   -3.2152    0.0000 H   0  0  0  0  0  0  0  0  0  0  0  0
   -2.6082   -3.9296    0.0000 H   0  0  0  0  0  0  0  0  0  0  0  0
   -2.0732   -4.8562    0.0000 H   0  0  0  0  0  0  0  0  0  0  0  0
   -1.6607   -5.5707    0.0000 H   0  0  0  0  0  0  0  0  0  0  0  0
   -0.5907   -5.5707    0.0000 H   0  0  0  0  0  0  0  0  0  0  0  0
    1.1817   -3.9296    0.0000 H   0  0  0  0  0  0  0  0  0  0  0  0
    0.6468   -3.0030    0.0000 H   0  0  0  0  0  0  0  0  0  0  0  0
  1  2  2  0  0  0  0
  1  6  1  0  0  0  0
  1 34  1  0  0  0  0
  2  3  1  0  0  0  0
  2 35  1  0  0  0  0
  3  4  2  0  0  0  0
  3 36  1  0  0  0  0
  4  5  1  0  0  0  0
  4 37  1  0  0  0  0
  5  6  2  0  0  0  0
  7  6  1  0  0  0  0
  7  8  1  0  0  0  0
  8  9  2  0  0  0  0
  8 10  1  0  0  0  0
  9  5  1  0  0  0  0
 10 11  1  0  0  0  0
 10 12  1  0  0  0  0
 10 38  1  0  0  0  0
 11 15  1  0  0  0  0
 12 13  3  0  0  0  0
 14 11  2  0  0  0  0
 14 18  1  0  0  0  0
 14 39  1  0  0  0  0
 15 16  2  0  0  0  0
 16 17  1  0  0  0  0
 16 19  1  0  0  0  0
 17 18  2  0  0  0  0
 18 40  1  0  0  0  0
 19 20  1  0  0  0  0
 20 21  1  0  0  0  0
 20 41  1  0  0  0  0
 20 42  1  0  0  0  0
 21 22  2  0  0  0  0
 21 26  1  0  0  0  0
 22 23  1  0  0  0  0
 22 43  1  0  0  0  0
 23 24  2  0  0  0  0
 23 44  1  0  0  0  0
 24 25  1  0  0  0  0
 24 27  1  0  0  0  0
 25 26  2  0  0  0  0
 25 45  1  0  0  0  0
 26 46  1  0  0  0  0
 27 28  1  0  0  0  0
 27 47  1  0  0  0  0
 27 48  1  0  0  0  0
 28 30  1  0  0  0  0
 29 28  1  0  0  0  0
 29 33  1  0  0  0  0
 29 49  1  0  0  0  0
 29 50  1  0  0  0  0
 30 31  1  0  0  0  0
 30 51  1  0  0  0  0
 30 52  1  0  0  0  0
 31 32  1  0  0  0  0
 31 53  1  0  0  0  0
 31 54  1  0  0  0  0
 32 33  1  0  0  0  0
 33 55  1  0  0  0  0
 33 56  1  0  0  0  0
M  END
>  <DRUGBANK_ID>
DB16851

>  <COMMON_NAME>
Bentamapimod

>  <CAS_NUMBER>
848344-36-5

>  <UNII>
TT3L4B4U0N

>  <SYNONYMS>
Bentamapimod

$$$$
