
 OpenBabel10282417072D

 29 31  0  0  0  0  0  0  0  0999 V2000
   -1.4158   -0.6176    0.0000 C   0  0  0  0  0  0  0  0  0  0  0  0
   -2.1345   -0.2124    0.0000 C   0  0  0  0  0  0  0  0  0  0  0  0
   -2.1429    0.6125    0.0000 C   0  0  0  0  0  0  0  0  0  0  0  0
   -1.4326    1.0322    0.0000 C   0  0  0  0  0  0  0  0  0  0  0  0
   -0.7140    0.6271    0.0000 C   0  0  0  0  0  0  0  0  0  0  0  0
   -0.7056   -0.1978    0.0000 C   0  0  0  0  0  0  0  0  0  0  0  0
   -2.8451   -0.6324    0.0000 C   0  0  0  0  0  0  0  0  0  0  0  0
   -3.4133   -0.9682    0.0000 N   0  0  0  0  0  0  0  0  0  0  0  0
   -0.0025    1.0456    0.0000 O   0  0  0  0  0  0  0  0  0  0  0  0
    0.7158    0.6392    0.0000 C   0  0  0  0  0  0  0  0  0  0  0  0
    1.4378    1.0603    0.0000 C   0  0  0  0  0  0  0  0  0  0  0  0
    2.1498    0.6392    0.0000 C   0  0  0  0  0  0  0  0  0  0  0  0
    2.1498   -0.1830    0.0000 C   0  0  0  0  0  0  0  0  0  0  0  0
    1.4378   -0.6041    0.0000 C   0  0  0  0  0  0  0  0  0  0  0  0
    0.7158   -0.1830    0.0000 C   0  0  0  0  0  0  0  0  0  0  0  0
    2.9320    0.8899    0.0000 C   0  0  0  0  0  0  0  0  0  0  0  0
    3.4133    0.2380    0.0000 O   0  0  0  0  0  0  0  0  0  0  0  0
    2.9320   -0.4337    0.0000 B   0  0  0  0  0  0  0  0  0  0  0  0
    3.1393   -1.0603    0.0000 O   0  0  0  0  0  0  0  0  0  0  0  0
   -1.4052   -1.6495    0.0000 H   0  0  0  0  0  0  0  0  0  0  0  0
   -3.0418    1.1194    0.0000 H   0  0  0  0  0  0  0  0  0  0  0  0
   -1.4431    2.0641    0.0000 H   0  0  0  0  0  0  0  0  0  0  0  0
    0.1934   -0.7046    0.0000 H   0  0  0  0  0  0  0  0  0  0  0  0
    1.4409    2.0923    0.0000 H   0  0  0  0  0  0  0  0  0  0  0  0
    1.4409   -1.6361    0.0000 H   0  0  0  0  0  0  0  0  0  0  0  0
   -0.1791   -0.6970    0.0000 H   0  0  0  0  0  0  0  0  0  0  0  0
    3.2608    1.9081    0.0000 H   0  0  0  0  0  0  0  0  0  0  0  0
    3.9880    1.0623    0.0000 H   0  0  0  0  0  0  0  0  0  0  0  0
    2.4941   -1.7846    0.0000 H   0  0  0  0  0  0  0  0  0  0  0  0
  1  2  2  0  0  0  0
  1  6  1  0  0  0  0
  1 20  1  0  0  0  0
  2  3  1  0  0  0  0
  2  7  1  0  0  0  0
  3  4  2  0  0  0  0
  3 21  1  0  0  0  0
  4  5  1  0  0  0  0
  4 22  1  0  0  0  0
  5  6  2  0  0  0  0
  5  9  1  0  0  0  0
  6 23  1  0  0  0  0
  7  8  3  0  0  0  0
  9 10  1  0  0  0  0
 10 11  2  0  0  0  0
 10 15  1  0  0  0  0
 11 12  1  0  0  0  0
 11 24  1  0  0  0  0
 12 16  1  0  0  0  0
 12 13  2  0  0  0  0
 13 14  1  0  0  0  0
 13 18  1  0  0  0  0
 14 15  2  0  0  0  0
 14 25  1  0  0  0  0
 15 26  1  0  0  0  0
 16 17  1  0  0  0  0
 16 27  1  0  0  0  0
 16 28  1  0  0  0  0
 17 18  1  0  0  0  0
 18 19  1  0  0  0  0
 19 29  1  0  0  0  0
M  END
>  <DRUGBANK_ID>
DB05219

>  <COMMON_NAME>
Crisaborole

>  <CAS_NUMBER>
906673-24-3

>  <UNII>
Q2R47HGR7P

>  <SYNONYMS>
Crisaborole

$$$$
