
 OpenBabel10282417072D

 39 38  0  0  0  0  0  0  0  0999 V2000
   -2.3650   -0.2062    0.0000 O   0  0  0  0  0  0  0  0  0  0  0  0
    0.4930   -1.0312    0.0000 O   0  0  0  0  0  0  0  0  0  0  0  0
   -1.6505    1.0312    0.0000 O   0  0  0  0  0  0  0  0  0  0  0  0
    2.6365    1.0312    0.0000 O   0  0  0  0  0  0  0  0  0  0  0  0
   -0.9360   -0.2062    0.0000 N   0  0  0  0  0  0  0  0  0  0  0  0
    1.2075    0.2062    0.0000 N   0  0  0  0  0  0  0  0  0  0  0  0
    3.3511   -0.2062    0.0000 N   0  0  0  0  0  0  0  0  0  0  0  0
   -3.0795    0.2062    0.0000 C   0  0  0  0  0  0  0  0  0  0  0  0
   -0.2214    0.2062    0.0000 C   0  0  2  0  0  0  0  0  0  0  0  0
   -3.7940    0.6188    0.0000 C   0  0  0  0  0  0  0  0  0  0  0  0
   -3.4921   -0.5082    0.0000 C   0  0  0  0  0  0  0  0  0  0  0  0
   -2.6671    0.9207    0.0000 C   0  0  0  0  0  0  0  0  0  0  0  0
    1.9220   -0.2062    0.0000 C   0  0  1  0  0  0  0  0  0  0  0  0
    0.4930   -0.2062    0.0000 C   0  0  0  0  0  0  0  0  0  0  0  0
   -0.2214    1.0312    0.0000 C   0  0  0  0  0  0  0  0  0  0  0  0
   -1.6505    0.2062    0.0000 C   0  0  0  0  0  0  0  0  0  0  0  0
    1.9220   -1.0312    0.0000 C   0  0  0  0  0  0  0  0  0  0  0  0
    2.6365    0.2062    0.0000 C   0  0  0  0  0  0  0  0  0  0  0  0
   -0.9360   -0.7178    0.0000 H   0  0  0  0  0  0  0  0  0  0  0  0
    1.2075    0.7178    0.0000 H   0  0  0  0  0  0  0  0  0  0  0  0
    3.7940    0.0494    0.0000 H   0  0  0  0  0  0  0  0  0  0  0  0
    3.3511   -0.7178    0.0000 H   0  0  0  0  0  0  0  0  0  0  0  0
   -0.2215   -0.8638    0.0000 H   0  0  0  0  0  0  0  0  0  0  0  0
   -3.7939    1.6888    0.0000 H   0  0  0  0  0  0  0  0  0  0  0  0
   -4.7207    0.0839    0.0000 H   0  0  0  0  0  0  0  0  0  0  0  0
   -4.7206    1.1539    0.0000 H   0  0  0  0  0  0  0  0  0  0  0  0
   -4.5621   -0.5080    0.0000 H   0  0  0  0  0  0  0  0  0  0  0  0
   -2.9572   -1.4349    0.0000 H   0  0  0  0  0  0  0  0  0  0  0  0
   -4.0272   -1.4348    0.0000 H   0  0  0  0  0  0  0  0  0  0  0  0
   -1.5971    0.9208    0.0000 H   0  0  0  0  0  0  0  0  0  0  0  0
   -3.2022    1.8473    0.0000 H   0  0  0  0  0  0  0  0  0  0  0  0
   -2.1322    1.8474    0.0000 H   0  0  0  0  0  0  0  0  0  0  0  0
    0.9954   -0.7413    0.0000 H   0  0  0  0  0  0  0  0  0  0  0  0
    0.7052    1.5662    0.0000 H   0  0  0  0  0  0  0  0  0  0  0  0
   -1.1480    1.5662    0.0000 H   0  0  0  0  0  0  0  0  0  0  0  0
   -0.2214    2.1012    0.0000 H   0  0  0  0  0  0  0  0  0  0  0  0
    0.9954   -1.5662    0.0000 H   0  0  0  0  0  0  0  0  0  0  0  0
    2.8486   -1.5662    0.0000 H   0  0  0  0  0  0  0  0  0  0  0  0
    1.9220   -2.1012    0.0000 H   0  0  0  0  0  0  0  0  0  0  0  0
  1  8  1  0  0  0  0
  1 16  1  0  0  0  0
  2 14  2  0  0  0  0
  3 16  2  0  0  0  0
  4 18  2  0  0  0  0
  5 16  1  0  0  0  0
  5 19  1  0  0  0  0
  6 14  1  0  0  0  0
  6 20  1  0  0  0  0
  7 18  1  0  0  0  0
  7 21  1  0  0  0  0
  7 22  1  0  0  0  0
  8 10  1  0  0  0  0
  8 11  1  0  0  0  0
  8 12  1  0  0  0  0
  9  5  1  0  0  0  0
  9 14  1  0  0  0  0
  9 15  1  0  0  0  0
  9 23  1  6  0  0  0
 10 24  1  0  0  0  0
 10 25  1  0  0  0  0
 10 26  1  0  0  0  0
 11 27  1  0  0  0  0
 11 28  1  0  0  0  0
 11 29  1  0  0  0  0
 12 30  1  0  0  0  0
 12 31  1  0  0  0  0
 12 32  1  0  0  0  0
 13  6  1  0  0  0  0
 13 17  1  0  0  0  0
 13 18  1  0  0  0  0
 13 33  1  1  0  0  0
 15 34  1  0  0  0  0
 15 35  1  0  0  0  0
 15 36  1  0  0  0  0
 17 37  1  0  0  0  0
 17 38  1  0  0  0  0
 17 39  1  0  0  0  0
M  END
>  <DRUGBANK_ID>
DB03757

>  <SECONDARY_ACCESSION_NUMBERS>
EXPT00619

>  <COMMON_NAME>
N-{[(2-Methyl-2-propanyl)oxy]carbonyl}-L-alanyl-L-alaninamide

>  <CAS_NUMBER>
41036-24-2

>  <SYNONYMS>
(Tert-butyloxycarbonyl)-alanyl-alanyl-amine

$$$$
