
 OpenBabel10282417072D

 88 93  0  0  0  0  0  0  0  0999 V2000
    0.4928    4.9473    0.0000 O   0  0  0  0  0  0  0  0  0  0  0  0
    0.7478    4.1626    0.0000 C   0  0  0  0  0  0  0  0  0  0  0  0
    1.5547    3.9911    0.0000 O   0  0  0  0  0  0  0  0  0  0  0  0
    0.1957    3.5496    0.0000 C   0  0  0  0  0  0  0  0  0  0  0  0
    0.4507    2.7649    0.0000 C   0  0  0  0  0  0  0  0  0  0  0  0
   -0.1014    2.1518    0.0000 C   0  0  0  0  0  0  0  0  0  0  0  0
   -0.9083    2.3234    0.0000 C   0  0  0  0  0  0  0  0  0  0  0  0
   -1.4604    1.7103    0.0000 C   0  0  0  0  0  0  0  0  0  0  0  0
   -1.2054    0.9256    0.0000 C   0  0  0  0  0  0  0  0  0  0  0  0
   -0.3984    0.7541    0.0000 C   0  0  0  0  0  0  0  0  0  0  0  0
   -0.1435   -0.0305    0.0000 C   0  0  0  0  0  0  0  0  0  0  0  0
   -0.6284   -0.6979    0.0000 C   0  0  0  0  0  0  0  0  0  0  0  0
   -1.4534   -0.6979    0.0000 C   0  0  0  0  0  0  0  0  0  0  0  0
   -1.8659    0.0165    0.0000 C   0  0  0  0  0  0  0  0  0  0  0  0
   -2.6909    0.0165    0.0000 N   0  0  0  0  0  0  0  0  0  0  0  0
   -3.1034   -0.6979    0.0000 S   0  0  0  0  0  0  0  0  0  0  0  0
   -3.8179   -0.2854    0.0000 O   0  0  0  0  0  0  0  0  0  0  0  0
   -2.3890   -1.1104    0.0000 O   0  0  0  0  0  0  0  0  0  0  0  0
   -3.5159   -1.4124    0.0000 C   0  0  0  0  0  0  0  0  0  0  0  0
   -4.3409   -1.4124    0.0000 C   0  0  0  0  0  0  0  0  0  0  0  0
   -4.7534   -2.1269    0.0000 C   0  0  0  0  0  0  0  0  0  0  0  0
   -5.5784   -2.1269    0.0000 C   0  0  0  0  0  0  0  0  0  0  0  0
   -5.9909   -1.4124    0.0000 C   0  0  0  0  0  0  0  0  0  0  0  0
   -5.5784   -0.6979    0.0000 C   0  0  0  0  0  0  0  0  0  0  0  0
   -4.7534   -0.6979    0.0000 C   0  0  0  0  0  0  0  0  0  0  0  0
   -4.3409   -2.8414    0.0000 C   0  0  0  0  0  0  0  0  0  0  0  0
   -3.9284   -3.5558    0.0000 F   0  0  0  0  0  0  0  0  0  0  0  0
   -5.0554   -3.2539    0.0000 F   0  0  0  0  0  0  0  0  0  0  0  0
   -3.6265   -2.4289    0.0000 F   0  0  0  0  0  0  0  0  0  0  0  0
   -0.1435   -1.3654    0.0000 N   0  0  0  0  0  0  0  0  0  0  0  0
   -0.3984   -2.1500    0.0000 C   0  0  0  0  0  0  0  0  0  0  0  0
    0.1536   -2.7631    0.0000 C   0  0  0  0  0  0  0  0  0  0  0  0
    0.9606   -2.5916    0.0000 C   0  0  0  0  0  0  0  0  0  0  0  0
    1.5126   -3.2047    0.0000 C   0  0  0  0  0  0  0  0  0  0  0  0
    1.2577   -3.9893    0.0000 C   0  0  0  0  0  0  0  0  0  0  0  0
    0.4507   -4.1608    0.0000 C   0  0  0  0  0  0  0  0  0  0  0  0
   -0.1014   -3.5477    0.0000 C   0  0  0  0  0  0  0  0  0  0  0  0
   -1.2054   -2.3215    0.0000 C   0  0  0  0  0  0  0  0  0  0  0  0
   -1.4604   -3.1062    0.0000 C   0  0  0  0  0  0  0  0  0  0  0  0
   -2.2673   -3.2777    0.0000 C   0  0  0  0  0  0  0  0  0  0  0  0
   -2.8194   -2.6646    0.0000 C   0  0  0  0  0  0  0  0  0  0  0  0
   -2.5644   -1.8800    0.0000 C   0  0  0  0  0  0  0  0  0  0  0  0
   -1.7575   -1.7084    0.0000 C   0  0  0  0  0  0  0  0  0  0  0  0
    0.6411   -1.1104    0.0000 C   0  0  0  0  0  0  0  0  0  0  0  0
    0.6411   -0.2854    0.0000 C   0  0  0  0  0  0  0  0  0  0  0  0
    1.3556    0.1271    0.0000 C   0  0  0  0  0  0  0  0  0  0  0  0
    2.0701   -0.2854    0.0000 C   0  0  0  0  0  0  0  0  0  0  0  0
    2.7845    0.1271    0.0000 Cl  0  0  0  0  0  0  0  0  0  0  0  0
    2.0701   -1.1104    0.0000 C   0  0  0  0  0  0  0  0  0  0  0  0
    1.3556   -1.5229    0.0000 C   0  0  0  0  0  0  0  0  0  0  0  0
   -1.1633    3.1080    0.0000 C   0  0  0  0  0  0  0  0  0  0  0  0
   -0.6112    3.7211    0.0000 C   0  0  0  0  0  0  0  0  0  0  0  0
    1.1197    5.6437    0.0000 H   0  0  0  0  0  0  0  0  0  0  0  0
    1.4601    2.5503    0.0000 H   0  0  0  0  0  0  0  0  0  0  0  0
    0.2174    1.1703    0.0000 H   0  0  0  0  0  0  0  0  0  0  0  0
   -2.5070    1.9328    0.0000 H   0  0  0  0  0  0  0  0  0  0  0  0
   -2.1764    0.9151    0.0000 H   0  0  0  0  0  0  0  0  0  0  0  0
   -1.9213    0.1304    0.0000 H   0  0  0  0  0  0  0  0  0  0  0  0
   -0.8747   -0.0920    0.0000 H   0  0  0  0  0  0  0  0  0  0  0  0
    0.3176    1.5493    0.0000 H   0  0  0  0  0  0  0  0  0  0  0  0
    0.6482    0.5316    0.0000 H   0  0  0  0  0  0  0  0  0  0  0  0
   -1.9884   -1.6246    0.0000 H   0  0  0  0  0  0  0  0  0  0  0  0
   -2.5234   -0.6979    0.0000 H   0  0  0  0  0  0  0  0  0  0  0  0
   -1.3309    0.9432    0.0000 H   0  0  0  0  0  0  0  0  0  0  0  0
   -2.4009    0.9431    0.0000 H   0  0  0  0  0  0  0  0  0  0  0  0
   -3.2009    0.8999    0.0000 H   0  0  0  0  0  0  0  0  0  0  0  0
   -2.9809   -2.3390    0.0000 H   0  0  0  0  0  0  0  0  0  0  0  0
   -4.0509   -2.3390    0.0000 H   0  0  0  0  0  0  0  0  0  0  0  0
   -6.0944   -3.0206    0.0000 H   0  0  0  0  0  0  0  0  0  0  0  0
   -7.0229   -1.4124    0.0000 H   0  0  0  0  0  0  0  0  0  0  0  0
   -6.0944    0.1958    0.0000 H   0  0  0  0  0  0  0  0  0  0  0  0
   -4.2374    0.1958    0.0000 H   0  0  0  0  0  0  0  0  0  0  0  0
   -0.7291   -3.1676    0.0000 H   0  0  0  0  0  0  0  0  0  0  0  0
    1.2795   -1.6101    0.0000 H   0  0  0  0  0  0  0  0  0  0  0  0
    2.5220   -2.9901    0.0000 H   0  0  0  0  0  0  0  0  0  0  0  0
    1.9482   -4.7562    0.0000 H   0  0  0  0  0  0  0  0  0  0  0  0
    0.1318   -5.1423    0.0000 H   0  0  0  0  0  0  0  0  0  0  0  0
   -1.1109   -3.7623    0.0000 H   0  0  0  0  0  0  0  0  0  0  0  0
   -0.7699   -3.8731    0.0000 H   0  0  0  0  0  0  0  0  0  0  0  0
   -2.5862   -4.2592    0.0000 H   0  0  0  0  0  0  0  0  0  0  0  0
   -3.8289   -2.8792    0.0000 H   0  0  0  0  0  0  0  0  0  0  0  0
   -3.2550   -1.1131    0.0000 H   0  0  0  0  0  0  0  0  0  0  0  0
   -1.4387   -0.7269    0.0000 H   0  0  0  0  0  0  0  0  0  0  0  0
    1.3556    1.1591    0.0000 H   0  0  0  0  0  0  0  0  0  0  0  0
    2.9638   -1.6264    0.0000 H   0  0  0  0  0  0  0  0  0  0  0  0
    1.3556   -2.5549    0.0000 H   0  0  0  0  0  0  0  0  0  0  0  0
   -2.1728    3.3226    0.0000 H   0  0  0  0  0  0  0  0  0  0  0  0
   -0.9301    4.7026    0.0000 H   0  0  0  0  0  0  0  0  0  0  0  0
  1  2  1  0  0  0  0
  1 53  1  0  0  0  0
  2  3  2  0  0  0  0
  2  4  1  0  0  0  0
  4  5  2  0  0  0  0
  4 52  1  0  0  0  0
  5  6  1  0  0  0  0
  5 54  1  0  0  0  0
  6  7  2  0  0  0  0
  6 55  1  0  0  0  0
  7  8  1  0  0  0  0
  7 51  1  0  0  0  0
  8  9  1  0  0  0  0
  8 56  1  0  0  0  0
  8 57  1  0  0  0  0
  9 10  1  0  0  0  0
  9 58  1  0  0  0  0
  9 59  1  0  0  0  0
 10 11  1  0  0  0  0
 10 60  1  0  0  0  0
 10 61  1  0  0  0  0
 11 12  2  0  0  0  0
 11 45  1  0  0  0  0
 12 13  1  0  0  0  0
 12 30  1  0  0  0  0
 13 14  1  0  0  0  0
 13 62  1  0  0  0  0
 13 63  1  0  0  0  0
 14 15  1  0  0  0  0
 14 64  1  0  0  0  0
 14 65  1  0  0  0  0
 15 16  1  0  0  0  0
 15 66  1  0  0  0  0
 16 17  2  0  0  0  0
 16 18  2  0  0  0  0
 16 19  1  0  0  0  0
 19 20  1  0  0  0  0
 19 67  1  0  0  0  0
 19 68  1  0  0  0  0
 20 21  2  0  0  0  0
 20 25  1  0  0  0  0
 21 22  1  0  0  0  0
 21 26  1  0  0  0  0
 22 23  2  0  0  0  0
 22 69  1  0  0  0  0
 23 24  1  0  0  0  0
 23 70  1  0  0  0  0
 24 25  2  0  0  0  0
 24 71  1  0  0  0  0
 25 72  1  0  0  0  0
 26 27  1  0  0  0  0
 26 28  1  0  0  0  0
 26 29  1  0  0  0  0
 30 31  1  0  0  0  0
 30 44  1  0  0  0  0
 31 32  1  0  0  0  0
 31 38  1  0  0  0  0
 31 73  1  0  0  0  0
 32 33  2  0  0  0  0
 32 37  1  0  0  0  0
 33 34  1  0  0  0  0
 33 74  1  0  0  0  0
 34 35  2  0  0  0  0
 34 75  1  0  0  0  0
 35 36  1  0  0  0  0
 35 76  1  0  0  0  0
 36 37  2  0  0  0  0
 36 77  1  0  0  0  0
 37 78  1  0  0  0  0
 38 39  2  0  0  0  0
 38 43  1  0  0  0  0
 39 40  1  0  0  0  0
 39 79  1  0  0  0  0
 40 41  2  0  0  0  0
 40 80  1  0  0  0  0
 41 42  1  0  0  0  0
 41 81  1  0  0  0  0
 42 43  2  0  0  0  0
 42 82  1  0  0  0  0
 43 83  1  0  0  0  0
 44 45  2  0  0  0  0
 44 50  1  0  0  0  0
 45 46  1  0  0  0  0
 46 47  2  0  0  0  0
 46 84  1  0  0  0  0
 47 48  1  0  0  0  0
 47 49  1  0  0  0  0
 49 50  2  0  0  0  0
 49 85  1  0  0  0  0
 50 86  1  0  0  0  0
 51 52  2  0  0  0  0
 51 87  1  0  0  0  0
 52 88  1  0  0  0  0
M  END
>  <DRUGBANK_ID>
DB15426

>  <COMMON_NAME>
Giripladib

>  <CAS_NUMBER>
865200-20-0

>  <UNII>
1W10Q5H7WD

>  <SYNONYMS>
Giripladib

$$$$
