
 OpenBabel10282417072D

 50 51  0  0  0  0  0  0  0  0999 V2000
    3.0171    2.7288    0.0000 C   0  0  0  0  0  0  0  0  0  0  0  0
    2.6815    3.4824    0.0000 C   0  0  0  0  0  0  0  0  0  0  0  0
    1.8610    3.5687    0.0000 C   0  0  0  0  0  0  0  0  0  0  0  0
    1.5255    4.3223    0.0000 C   0  0  0  0  0  0  0  0  0  0  0  0
    0.7050    4.4086    0.0000 C   0  0  0  0  0  0  0  0  0  0  0  0
    0.3694    5.1623    0.0000 C   0  0  0  0  0  0  0  0  0  0  0  0
   -0.4509    5.2485    0.0000 C   0  0  0  0  0  0  0  0  0  0  0  0
   -0.7865    6.0022    0.0000 C   0  0  0  0  0  0  0  0  0  0  0  0
   -2.0821    8.1696    0.0000 C   0  0  0  0  0  0  0  0  0  0  0  0
   -2.8357    7.8341    0.0000 C   0  0  2  0  0  0  0  0  0  0  0  0
   -3.5894    8.1696    0.0000 C   0  0  2  0  0  0  0  0  0  0  0  0
   -4.2569    7.6847    0.0000 C   0  0  1  0  0  0  0  0  0  0  0  0
   -4.1706    6.8642    0.0000 C   0  0  2  0  0  0  0  0  0  0  0  0
   -3.4169    6.5287    0.0000 C   0  0  1  0  0  0  0  0  0  0  0  0
   -1.9425    6.8421    0.0000 C   0  0  0  0  0  0  0  0  0  0  0  0
   -1.6070    6.0884    0.0000 N   0  0  0  0  0  0  0  0  0  0  0  0
   -2.7495    7.0136    0.0000 N   0  0  0  0  0  0  0  0  0  0  0  0
   -3.6757    8.9901    0.0000 O   0  0  0  0  0  0  0  0  0  0  0  0
   -5.0105    8.0203    0.0000 O   0  0  0  0  0  0  0  0  0  0  0  0
   -4.8381    6.3793    0.0000 O   0  0  0  0  0  0  0  0  0  0  0  0
   -3.3307    5.7082    0.0000 O   0  0  0  0  0  0  0  0  0  0  0  0
   -1.5300    7.5565    0.0000 S   0  0  0  0  0  0  0  0  0  0  0  0
   -2.6642    8.6411    0.0000 H   0  0  0  0  0  0  0  0  0  0  0  0
    2.3882    1.8631    0.0000 H   0  0  0  0  0  0  0  0  0  0  0  0
    4.0812    2.6170    0.0000 H   0  0  0  0  0  0  0  0  0  0  0  0
    3.4524    1.7513    0.0000 H   0  0  0  0  0  0  0  0  0  0  0  0
    3.3104    4.3481    0.0000 H   0  0  0  0  0  0  0  0  0  0  0  0
    2.2463    4.4599    0.0000 H   0  0  0  0  0  0  0  0  0  0  0  0
    1.2320    2.7031    0.0000 H   0  0  0  0  0  0  0  0  0  0  0  0
    0.7969    3.6806    0.0000 H   0  0  0  0  0  0  0  0  0  0  0  0
    2.1545    5.1879    0.0000 H   0  0  0  0  0  0  0  0  0  0  0  0
    1.0904    5.2998    0.0000 H   0  0  0  0  0  0  0  0  0  0  0  0
    0.0761    3.5430    0.0000 H   0  0  0  0  0  0  0  0  0  0  0  0
   -0.3591    4.5204    0.0000 H   0  0  0  0  0  0  0  0  0  0  0  0
    0.9983    6.0280    0.0000 H   0  0  0  0  0  0  0  0  0  0  0  0
   -0.0658    6.1398    0.0000 H   0  0  0  0  0  0  0  0  0  0  0  0
   -1.0798    4.3828    0.0000 H   0  0  0  0  0  0  0  0  0  0  0  0
   -1.5150    5.3603    0.0000 H   0  0  0  0  0  0  0  0  0  0  0  0
   -0.1576    6.8679    0.0000 H   0  0  0  0  0  0  0  0  0  0  0  0
   -1.2218    6.9797    0.0000 H   0  0  0  0  0  0  0  0  0  0  0  0
   -1.8596    9.2162    0.0000 H   0  0  0  0  0  0  0  0  0  0  0  0
   -1.0486    8.4466    0.0000 H   0  0  0  0  0  0  0  0  0  0  0  0
   -2.7238    8.7986    0.0000 H   0  0  0  0  0  0  0  0  0  0  0  0
   -4.3687    8.7488    0.0000 H   0  0  0  0  0  0  0  0  0  0  0  0
   -5.1481    7.2994    0.0000 H   0  0  0  0  0  0  0  0  0  0  0  0
   -4.2825    5.8998    0.0000 H   0  0  0  0  0  0  0  0  0  0  0  0
   -2.8910    9.5603    0.0000 H   0  0  0  0  0  0  0  0  0  0  0  0
   -5.1118    8.9850    0.0000 H   0  0  0  0  0  0  0  0  0  0  0  0
   -5.7242    6.7739    0.0000 H   0  0  0  0  0  0  0  0  0  0  0  0
   -4.1155    5.1381    0.0000 H   0  0  0  0  0  0  0  0  0  0  0  0
  1 24  1  0  0  0  0
  1 25  1  0  0  0  0
  1 26  1  0  0  0  0
  2  1  1  0  0  0  0
  2 27  1  0  0  0  0
  2 28  1  0  0  0  0
  3  2  1  0  0  0  0
  3 29  1  0  0  0  0
  3 30  1  0  0  0  0
  4  3  1  0  0  0  0
  4 31  1  0  0  0  0
  4 32  1  0  0  0  0
  5  4  1  0  0  0  0
  5 33  1  0  0  0  0
  5 34  1  0  0  0  0
  6  5  1  0  0  0  0
  6 35  1  0  0  0  0
  6 36  1  0  0  0  0
  7  6  1  0  0  0  0
  7 37  1  0  0  0  0
  7 38  1  0  0  0  0
  8  7  1  0  0  0  0
  8 39  1  0  0  0  0
  8 40  1  0  0  0  0
  9 41  1  0  0  0  0
  9 42  1  0  0  0  0
 10  9  1  0  0  0  0
 10 23  1  6  0  0  0
 11 10  1  0  0  0  0
 11 18  1  0  0  0  0
 11 43  1  1  0  0  0
 12 11  1  0  0  0  0
 12 19  1  0  0  0  0
 12 44  1  6  0  0  0
 13 12  1  0  0  0  0
 13 20  1  0  0  0  0
 13 45  1  1  0  0  0
 14 13  1  0  0  0  0
 14 21  1  0  0  0  0
 14 46  1  6  0  0  0
 16  8  1  0  0  0  0
 16 15  2  0  0  0  0
 17 10  1  0  0  0  0
 17 14  1  0  0  0  0
 17 15  1  0  0  0  0
 18 47  1  0  0  0  0
 19 48  1  0  0  0  0
 20 49  1  0  0  0  0
 21 50  1  0  0  0  0
 22  9  1  0  0  0  0
 22 15  1  0  0  0  0
M  END
>  <DRUGBANK_ID>
DB07370

>  <COMMON_NAME>
(3Z,5S,6R,7S,8R,8aS)-3-(octylimino)hexahydro[1,3]thiazolo[3,4-a]pyridine-5,6,7,8-tetrol

$$$$
