4BR
 OpenBabel10282417072D

 25 25  0  0  0  0  0  0  0  0999 V2000
   -0.1455   -1.6096    0.0000 C   0  0  0  0  0  0  0  0  0  0  0  0
   -0.8600   -1.1971    0.0000 C   0  0  0  0  0  0  0  0  0  0  0  0
   -0.8600   -0.3721    0.0000 C   0  0  0  0  0  0  0  0  0  0  0  0
   -0.1455    0.0404    0.0000 C   0  0  0  0  0  0  0  0  0  0  0  0
    0.5689   -0.3721    0.0000 C   0  0  0  0  0  0  0  0  0  0  0  0
    0.5689   -1.1971    0.0000 C   0  0  0  0  0  0  0  0  0  0  0  0
    1.2834   -1.6096    0.0000 O   0  0  0  0  0  0  0  0  0  0  0  0
    1.9979   -1.1971    0.0000 C   0  0  0  0  0  0  0  0  0  0  0  0
    2.7124   -1.6096    0.0000 C   0  0  0  0  0  0  0  0  0  0  0  0
    3.4268   -1.1971    0.0000 P   0  0  1  0  0  0  0  0  0  0  0  0
    4.1413   -1.6096    0.0000 O   0  5  0  0  0  0  0  0  0  0  0  0
    3.4268   -0.3721    0.0000 O   0  0  0  0  0  0  0  0  0  0  0  0
   -1.5745    0.0404    0.0000 C   0  0  0  0  0  0  0  0  0  0  0  0
    3.4268   -1.9256    0.0000 H   0  0  0  0  0  0  0  0  0  0  0  0
   -0.1455   -2.6416    0.0000 H   0  0  0  0  0  0  0  0  0  0  0  0
   -1.7537   -1.7131    0.0000 H   0  0  0  0  0  0  0  0  0  0  0  0
   -0.1455    1.0724    0.0000 H   0  0  0  0  0  0  0  0  0  0  0  0
    1.4626    0.1439    0.0000 H   0  0  0  0  0  0  0  0  0  0  0  0
    1.9979   -0.1271    0.0000 H   0  0  0  0  0  0  0  0  0  0  0  0
    2.9245   -0.6621    0.0000 H   0  0  0  0  0  0  0  0  0  0  0  0
    2.7124   -2.6796    0.0000 H   0  0  0  0  0  0  0  0  0  0  0  0
    3.6391   -2.1446    0.0000 H   0  0  0  0  0  0  0  0  0  0  0  0
   -1.5745    1.1104    0.0000 H   0  0  0  0  0  0  0  0  0  0  0  0
   -2.5011   -0.4946    0.0000 H   0  0  0  0  0  0  0  0  0  0  0  0
   -2.5012    0.5754    0.0000 H   0  0  0  0  0  0  0  0  0  0  0  0
  1  2  2  0  0  0  0
  1  6  1  0  0  0  0
  1 15  1  0  0  0  0
  2  3  1  0  0  0  0
  2 16  1  0  0  0  0
  3  4  2  0  0  0  0
  3 13  1  0  0  0  0
  4  5  1  0  0  0  0
  4 17  1  0  0  0  0
  5  6  2  0  0  0  0
  5 18  1  0  0  0  0
  6  7  1  0  0  0  0
  7  8  1  0  0  0  0
  8  9  1  0  0  0  0
  8 19  1  0  0  0  0
  8 20  1  0  0  0  0
  9 10  1  0  0  0  0
  9 21  1  0  0  0  0
  9 22  1  0  0  0  0
 10 11  1  0  0  0  0
 10 12  2  0  0  0  0
 10 14  1  1  0  0  0
 13 23  1  0  0  0  0
 13 24  1  0  0  0  0
 13 25  1  0  0  0  0
M  CHG  1  11  -1
M  END
>  <DRUGBANK_ID>
DB07103

>  <COMMON_NAME>
2-(4-METHYLPHENOXY)ETHYLPHOSPHINATE

$$$$
