
 OpenBabel10282417072D

 14 14  0  0  0  0  0  0  0  0999 V2000
    0.0000    0.0000    0.0000 C   0  0  0  0  0  0  0  0  0  0  0  0
    0.0000   -0.8250    0.0000 C   0  0  0  0  0  0  0  0  0  0  0  0
   -0.7144    0.4125    0.0000 N   0  0  0  0  0  0  0  0  0  0  0  0
    0.7144    0.4125    0.0000 C   0  0  0  0  0  0  0  0  0  0  0  0
   -0.7144   -1.2374    0.0000 C   0  0  0  0  0  0  0  0  0  0  0  0
   -1.4289    0.0000    0.0000 C   0  0  0  0  0  0  0  0  0  0  0  0
    0.7144    1.2375    0.0000 O   0  0  0  0  0  0  0  0  0  0  0  0
    1.4289    0.0000    0.0000 O   0  0  0  0  0  0  0  0  0  0  0  0
   -1.4289   -0.8250    0.0000 C   0  0  0  0  0  0  0  0  0  0  0  0
    0.8937   -1.3410    0.0000 H   0  0  0  0  0  0  0  0  0  0  0  0
   -0.7144   -2.2694    0.0000 H   0  0  0  0  0  0  0  0  0  0  0  0
   -2.3226    0.5160    0.0000 H   0  0  0  0  0  0  0  0  0  0  0  0
    1.4289   -0.9370    0.0000 H   0  0  0  0  0  0  0  0  0  0  0  0
   -2.3226   -1.3411    0.0000 H   0  0  0  0  0  0  0  0  0  0  0  0
  1  2  2  0  0  0  0
  1  3  1  0  0  0  0
  1  4  1  0  0  0  0
  2  5  1  0  0  0  0
  2 10  1  0  0  0  0
  3  6  2  0  0  0  0
  4  7  2  0  0  0  0
  4  8  1  0  0  0  0
  5  9  2  0  0  0  0
  5 11  1  0  0  0  0
  6  9  1  0  0  0  0
  6 12  1  0  0  0  0
  8 13  1  0  0  0  0
  9 14  1  0  0  0  0
M  END
>  <DRUGBANK_ID>
DB05483

>  <COMMON_NAME>
Picolinic acid

>  <CAS_NUMBER>
98-98-6

>  <UNII>
QZV2W997JQ

>  <SYNONYMS>
2-Carboxypyridine; Acide picolique

$$$$
