1505
 OpenBabel10282417072D

 50 51  0  0  0  0  0  0  0  0999 V2000
    2.8876    2.7150    0.0000 O   0  0  0  0  0  0  0  0  0  0  0  0
    3.8558    3.5274    0.0000 O   0  0  0  0  0  0  0  0  0  0  0  0
    3.4106   -1.7121    0.0000 O   0  0  0  0  0  0  0  0  0  0  0  0
    1.9816   -3.3621    0.0000 O   0  0  0  0  0  0  0  0  0  0  0  0
    4.1251    0.3505    0.0000 N   0  0  0  0  0  0  0  0  0  0  0  0
    4.1251    2.0005    0.0000 C   0  0  0  0  0  0  0  0  0  0  0  0
    4.8396    1.5880    0.0000 C   0  0  0  0  0  0  0  0  0  0  0  0
    3.4106    1.5880    0.0000 C   0  0  0  0  0  0  0  0  0  0  0  0
    4.8396    0.7630    0.0000 C   0  0  0  0  0  0  0  0  0  0  0  0
    3.4106    0.7630    0.0000 C   0  0  0  0  0  0  0  0  0  0  0  0
    4.7571    2.5308    0.0000 C   0  0  0  0  0  0  0  0  0  0  0  0
    3.7126    2.7150    0.0000 C   0  0  0  0  0  0  0  0  0  0  0  0
    4.1251   -0.4746    0.0000 C   0  0  0  0  0  0  0  0  0  0  0  0
    4.6138    3.3433    0.0000 C   0  0  0  0  0  0  0  0  0  0  0  0
    5.5323    2.2487    0.0000 C   0  0  0  0  0  0  0  0  0  0  0  0
    3.4106   -0.8871    0.0000 C   0  0  0  0  0  0  0  0  0  0  0  0
    5.2458    3.8736    0.0000 C   0  0  0  0  0  0  0  0  0  0  0  0
    6.1644    2.7790    0.0000 C   0  0  0  0  0  0  0  0  0  0  0  0
    6.0211    3.5915    0.0000 C   0  0  0  0  0  0  0  0  0  0  0  0
    2.4751    3.4295    0.0000 C   0  0  0  0  0  0  0  0  0  0  0  0
    2.6961   -2.1246    0.0000 C   0  0  0  0  0  0  0  0  0  0  0  0
    1.6500    3.4295    0.0000 C   0  0  0  0  0  0  0  0  0  0  0  0
    2.6961   -2.9496    0.0000 C   0  0  0  0  0  0  0  0  0  0  0  0
    1.1416   -2.8771    0.0000 H   0  0  0  0  0  0  0  0  0  0  0  0
    5.7662    2.1230    0.0000 H   0  0  0  0  0  0  0  0  0  0  0  0
    5.7662    1.0530    0.0000 H   0  0  0  0  0  0  0  0  0  0  0  0
    2.4840    2.1230    0.0000 H   0  0  0  0  0  0  0  0  0  0  0  0
    2.4840    1.0530    0.0000 H   0  0  0  0  0  0  0  0  0  0  0  0
    5.7662    0.2280    0.0000 H   0  0  0  0  0  0  0  0  0  0  0  0
    5.7662    1.2980    0.0000 H   0  0  0  0  0  0  0  0  0  0  0  0
    2.4840    0.2280    0.0000 H   0  0  0  0  0  0  0  0  0  0  0  0
    2.4840    1.2980    0.0000 H   0  0  0  0  0  0  0  0  0  0  0  0
    5.0517   -1.0096    0.0000 H   0  0  0  0  0  0  0  0  0  0  0  0
    4.1251   -1.5446    0.0000 H   0  0  0  0  0  0  0  0  0  0  0  0
    3.6440    3.6962    0.0000 H   0  0  0  0  0  0  0  0  0  0  0  0
    5.7115    1.2324    0.0000 H   0  0  0  0  0  0  0  0  0  0  0  0
    2.4840   -0.3521    0.0000 H   0  0  0  0  0  0  0  0  0  0  0  0
    3.4106    0.1829    0.0000 H   0  0  0  0  0  0  0  0  0  0  0  0
    5.0666    4.8899    0.0000 H   0  0  0  0  0  0  0  0  0  0  0  0
    7.1342    2.4260    0.0000 H   0  0  0  0  0  0  0  0  0  0  0  0
    6.8116    4.2549    0.0000 H   0  0  0  0  0  0  0  0  0  0  0  0
    3.0101    4.3561    0.0000 H   0  0  0  0  0  0  0  0  0  0  0  0
    1.9401    4.3561    0.0000 H   0  0  0  0  0  0  0  0  0  0  0  0
    1.7695   -1.5896    0.0000 H   0  0  0  0  0  0  0  0  0  0  0  0
    1.7695   -2.6596    0.0000 H   0  0  0  0  0  0  0  0  0  0  0  0
    1.1150    4.3561    0.0000 H   0  0  0  0  0  0  0  0  0  0  0  0
    1.1150    2.5029    0.0000 H   0  0  0  0  0  0  0  0  0  0  0  0
    0.5800    3.4295    0.0000 H   0  0  0  0  0  0  0  0  0  0  0  0
    3.6227   -3.4846    0.0000 H   0  0  0  0  0  0  0  0  0  0  0  0
    3.6227   -2.4146    0.0000 H   0  0  0  0  0  0  0  0  0  0  0  0
  1 12  1  0  0  0  0
  1 20  1  0  0  0  0
  2 12  2  0  0  0  0
  3 16  1  0  0  0  0
  3 21  1  0  0  0  0
  4 23  1  0  0  0  0
  4 24  1  0  0  0  0
  5  9  1  0  0  0  0
  5 10  1  0  0  0  0
  5 13  1  0  0  0  0
  6  7  1  0  0  0  0
  6  8  1  0  0  0  0
  6 11  1  0  0  0  0
  6 12  1  0  0  0  0
  7  9  1  0  0  0  0
  7 25  1  0  0  0  0
  7 26  1  0  0  0  0
  8 10  1  0  0  0  0
  8 27  1  0  0  0  0
  8 28  1  0  0  0  0
  9 29  1  0  0  0  0
  9 30  1  0  0  0  0
 10 31  1  0  0  0  0
 10 32  1  0  0  0  0
 11 14  2  0  0  0  0
 11 15  1  0  0  0  0
 13 16  1  0  0  0  0
 13 33  1  0  0  0  0
 13 34  1  0  0  0  0
 14 17  1  0  0  0  0
 14 35  1  0  0  0  0
 15 18  2  0  0  0  0
 15 36  1  0  0  0  0
 16 37  1  0  0  0  0
 16 38  1  0  0  0  0
 17 19  2  0  0  0  0
 17 39  1  0  0  0  0
 18 19  1  0  0  0  0
 18 40  1  0  0  0  0
 19 41  1  0  0  0  0
 20 22  1  0  0  0  0
 20 42  1  0  0  0  0
 20 43  1  0  0  0  0
 21 23  1  0  0  0  0
 21 44  1  0  0  0  0
 21 45  1  0  0  0  0
 22 46  1  0  0  0  0
 22 47  1  0  0  0  0
 22 48  1  0  0  0  0
 23 49  1  0  0  0  0
 23 50  1  0  0  0  0
M  END
>  <DRUGBANK_ID>
DB01505

>  <COMMON_NAME>
Etoxeridine

>  <CAS_NUMBER>
469-82-9

>  <UNII>
RHW35E1G7E

>  <SYNONYMS>
Etoxeridine

$$$$
