
 OpenBabel10282417072D

 53 56  0  0  0  0  0  0  0  0999 V2000
   -3.5837    0.4168    0.0000 C   0  0  0  0  0  0  0  0  0  0  0  0
   -4.2970    0.0043    0.0000 C   0  0  0  0  0  0  0  0  0  0  0  0
   -4.2970   -0.8293    0.0000 N   0  0  0  0  0  0  0  0  0  0  0  0
   -3.5837   -1.2418    0.0000 C   0  0  0  0  0  0  0  0  0  0  0  0
   -2.8617   -0.8293    0.0000 C   0  0  0  0  0  0  0  0  0  0  0  0
   -2.8617    0.0043    0.0000 C   0  0  0  0  0  0  0  0  0  0  0  0
   -3.5837   -2.0668    0.0000 C   0  0  0  0  0  0  0  0  0  0  0  0
   -2.8617   -2.4793    0.0000 C   0  0  0  0  0  0  0  0  0  0  0  0
   -2.1484   -2.0668    0.0000 C   0  0  0  0  0  0  0  0  0  0  0  0
   -2.1484   -1.2418    0.0000 C   0  0  0  0  0  0  0  0  0  0  0  0
   -1.4352   -2.4793    0.0000 F   0  0  0  0  0  0  0  0  0  0  0  0
   -2.1484    0.4168    0.0000 C   0  0  1  0  0  0  0  0  0  0  0  0
   -1.4352    0.0043    0.0000 C   0  0  0  0  0  0  0  0  0  0  0  0
   -0.7132    0.4168    0.0000 C   0  0  0  0  0  0  0  0  0  0  0  0
   -0.7132    1.2418    0.0000 C   0  0  2  0  0  0  0  0  0  0  0  0
   -1.4352    1.6543    0.0000 C   0  0  0  0  0  0  0  0  0  0  0  0
   -2.1484    1.2418    0.0000 C   0  0  0  0  0  0  0  0  0  0  0  0
    0.0000    1.6543    0.0000 C   0  0  2  0  0  0  0  0  0  0  0  0
   -0.7132    2.0668    0.0000 H   0  0  0  0  0  0  0  0  0  0  0  0
   -2.1484   -0.4081    0.0000 H   0  0  0  0  0  0  0  0  0  0  0  0
    0.7132    1.2418    0.0000 C   0  0  0  0  0  0  0  0  0  0  0  0
    1.4352    1.6543    0.0000 N   0  0  0  0  0  0  0  0  0  0  0  0
    0.7132    0.4168    0.0000 O   0  0  0  0  0  0  0  0  0  0  0  0
    2.1484    1.2418    0.0000 C   0  0  0  0  0  0  0  0  0  0  0  0
    2.1484    0.4168    0.0000 C   0  0  0  0  0  0  0  0  0  0  0  0
    2.8617    0.0043    0.0000 C   0  0  0  0  0  0  0  0  0  0  0  0
    3.5837    0.4168    0.0000 C   0  0  0  0  0  0  0  0  0  0  0  0
    3.5837    1.2418    0.0000 C   0  0  0  0  0  0  0  0  0  0  0  0
    2.8617    1.6543    0.0000 C   0  0  0  0  0  0  0  0  0  0  0  0
    4.2970    0.0043    0.0000 Cl  0  0  0  0  0  0  0  0  0  0  0  0
    0.0000    2.4793    0.0000 C   0  0  0  0  0  0  0  0  0  0  0  0
   -3.5864    1.4488    0.0000 H   0  0  0  0  0  0  0  0  0  0  0  0
   -5.1909    0.5200    0.0000 H   0  0  0  0  0  0  0  0  0  0  0  0
   -4.4763   -2.5848    0.0000 H   0  0  0  0  0  0  0  0  0  0  0  0
   -2.8590   -3.5113    0.0000 H   0  0  0  0  0  0  0  0  0  0  0  0
   -1.2545   -0.7261    0.0000 H   0  0  0  0  0  0  0  0  0  0  0  0
   -1.4380   -1.0657    0.0000 H   0  0  0  0  0  0  0  0  0  0  0  0
   -0.5105   -0.5340    0.0000 H   0  0  0  0  0  0  0  0  0  0  0  0
    0.2122   -0.1203    0.0000 H   0  0  0  0  0  0  0  0  0  0  0  0
    0.2141    0.9508    0.0000 H   0  0  0  0  0  0  0  0  0  0  0  0
   -1.4380    2.7243    0.0000 H   0  0  0  0  0  0  0  0  0  0  0  0
   -2.3628    2.1877    0.0000 H   0  0  0  0  0  0  0  0  0  0  0  0
   -3.0753    1.7764    0.0000 H   0  0  0  0  0  0  0  0  0  0  0  0
   -2.1490    2.3118    0.0000 H   0  0  0  0  0  0  0  0  0  0  0  0
   -0.9269    2.1889    0.0000 H   0  0  0  0  0  0  0  0  0  0  0  0
    1.4378    2.6388    0.0000 H   0  0  0  0  0  0  0  0  0  0  0  0
    1.2545   -0.0989    0.0000 H   0  0  0  0  0  0  0  0  0  0  0  0
    2.8590   -1.0277    0.0000 H   0  0  0  0  0  0  0  0  0  0  0  0
    4.4763    1.7598    0.0000 H   0  0  0  0  0  0  0  0  0  0  0  0
    2.8590    2.6863    0.0000 H   0  0  0  0  0  0  0  0  0  0  0  0
    0.9266    3.0143    0.0000 H   0  0  0  0  0  0  0  0  0  0  0  0
   -0.9266    3.0143    0.0000 H   0  0  0  0  0  0  0  0  0  0  0  0
   -0.0000    3.5493    0.0000 H   0  0  0  0  0  0  0  0  0  0  0  0
  1  2  2  0  0  0  0
  1  6  1  0  0  0  0
  1 32  1  0  0  0  0
  2  3  1  0  0  0  0
  2 33  1  0  0  0  0
  3  4  2  0  0  0  0
  4  5  1  0  0  0  0
  4  7  1  0  0  0  0
  5  6  2  0  0  0  0
  5 10  1  0  0  0  0
  6 12  1  0  0  0  0
  7  8  2  0  0  0  0
  7 34  1  0  0  0  0
  8  9  1  0  0  0  0
  8 35  1  0  0  0  0
  9 10  2  0  0  0  0
  9 11  1  0  0  0  0
 10 36  1  0  0  0  0
 12 13  1  0  0  0  0
 12 17  1  0  0  0  0
 12 20  1  1  0  0  0
 13 14  1  0  0  0  0
 13 37  1  0  0  0  0
 13 38  1  0  0  0  0
 14 15  1  0  0  0  0
 14 39  1  0  0  0  0
 14 40  1  0  0  0  0
 15 16  1  0  0  0  0
 15 18  1  0  0  0  0
 15 19  1  1  0  0  0
 16 17  1  0  0  0  0
 16 41  1  0  0  0  0
 16 42  1  0  0  0  0
 17 43  1  0  0  0  0
 17 44  1  0  0  0  0
 18 21  1  0  0  0  0
 18 31  1  0  0  0  0
 18 45  1  6  0  0  0
 21 22  1  0  0  0  0
 21 23  2  0  0  0  0
 22 24  1  0  0  0  0
 22 46  1  0  0  0  0
 24 25  2  0  0  0  0
 24 29  1  0  0  0  0
 25 26  1  0  0  0  0
 25 47  1  0  0  0  0
 26 27  2  0  0  0  0
 26 48  1  0  0  0  0
 27 28  1  0  0  0  0
 27 30  1  0  0  0  0
 28 29  2  0  0  0  0
 28 49  1  0  0  0  0
 29 50  1  0  0  0  0
 31 51  1  0  0  0  0
 31 52  1  0  0  0  0
 31 53  1  0  0  0  0
M  END
>  <DRUGBANK_ID>
DB14986

>  <COMMON_NAME>
Linrodostat

>  <CAS_NUMBER>
1923833-60-6

>  <UNII>
0A7729F42K

>  <SYNONYMS>
Linrodostat

$$$$
