4DI
 OpenBabel10282417072D

 28 27  0  0  0  0  0  0  0  0999 V2000
   -2.0472    0.0754    0.0000 C   0  0  0  0  0  0  0  0  0  0  0  0
   -1.3326   -0.3371    0.0000 S   0  0  0  0  0  0  0  0  0  0  0  0
   -0.6180    0.0754    0.0000 C   0  0  0  0  0  0  0  0  0  0  0  0
    0.0965   -0.3371    0.0000 C   0  0  0  0  0  0  0  0  0  0  0  0
    0.8110    0.0754    0.0000 C   0  0  0  0  0  0  0  0  0  0  0  0
    1.5255   -0.3371    0.0000 C   0  0  0  0  0  0  0  0  0  0  0  0
    2.2401    0.0754    0.0000 N   0  0  0  0  0  0  0  0  0  0  0  0
    2.9545   -0.3371    0.0000 C   0  0  0  0  0  0  0  0  0  0  0  0
    2.2401    0.9005    0.0000 C   0  0  0  0  0  0  0  0  0  0  0  0
   -2.7616   -0.3371    0.0000 N   0  0  0  0  0  0  0  0  0  0  0  0
   -2.0472    0.9005    0.0000 N   0  0  0  0  0  0  0  0  0  0  0  0
   -0.6180    1.1454    0.0000 H   0  0  0  0  0  0  0  0  0  0  0  0
    0.3087    0.6104    0.0000 H   0  0  0  0  0  0  0  0  0  0  0  0
    0.0965   -1.4071    0.0000 H   0  0  0  0  0  0  0  0  0  0  0  0
    1.0231   -0.8721    0.0000 H   0  0  0  0  0  0  0  0  0  0  0  0
    0.8110    1.1454    0.0000 H   0  0  0  0  0  0  0  0  0  0  0  0
    1.7376    0.6104    0.0000 H   0  0  0  0  0  0  0  0  0  0  0  0
    1.5255   -1.4071    0.0000 H   0  0  0  0  0  0  0  0  0  0  0  0
    2.4521   -0.8722    0.0000 H   0  0  0  0  0  0  0  0  0  0  0  0
    2.9545   -1.4071    0.0000 H   0  0  0  0  0  0  0  0  0  0  0  0
    3.8812    0.1979    0.0000 H   0  0  0  0  0  0  0  0  0  0  0  0
    3.8811   -0.8721    0.0000 H   0  0  0  0  0  0  0  0  0  0  0  0
    3.1667    1.4355    0.0000 H   0  0  0  0  0  0  0  0  0  0  0  0
    1.3135    1.4355    0.0000 H   0  0  0  0  0  0  0  0  0  0  0  0
    2.2401    1.9705    0.0000 H   0  0  0  0  0  0  0  0  0  0  0  0
   -3.6142    0.1551    0.0000 H   0  0  0  0  0  0  0  0  0  0  0  0
   -2.7616   -1.3216    0.0000 H   0  0  0  0  0  0  0  0  0  0  0  0
   -1.1946    1.3927    0.0000 H   0  0  0  0  0  0  0  0  0  0  0  0
  1  2  1  0  0  0  0
  1 10  1  0  0  0  0
  1 11  2  0  0  0  0
  2  3  1  0  0  0  0
  3  4  1  0  0  0  0
  3 12  1  0  0  0  0
  3 13  1  0  0  0  0
  4  5  1  0  0  0  0
  4 14  1  0  0  0  0
  4 15  1  0  0  0  0
  5  6  1  0  0  0  0
  5 16  1  0  0  0  0
  5 17  1  0  0  0  0
  6  7  1  0  0  0  0
  6 18  1  0  0  0  0
  6 19  1  0  0  0  0
  7  8  1  0  0  0  0
  7  9  1  0  0  0  0
  8 20  1  0  0  0  0
  8 21  1  0  0  0  0
  8 22  1  0  0  0  0
  9 23  1  0  0  0  0
  9 24  1  0  0  0  0
  9 25  1  0  0  0  0
 10 26  1  0  0  0  0
 10 27  1  0  0  0  0
 11 28  1  0  0  0  0
M  END
>  <DRUGBANK_ID>
DB07106

>  <COMMON_NAME>
SKF-91488

>  <CAS_NUMBER>
68643-23-2

>  <UNII>
1I4LVX494H

>  <SYNONYMS>
Homodimaprit

$$$$
