IM9
 OpenBabel10282417072D

 61 64  0  0  0  0  0  0  0  0999 V2000
    1.8487   13.0607    0.0000 C   0  0  0  0  0  0  0  0  0  0  0  0
    1.1343   12.6482    0.0000 C   0  0  0  0  0  0  0  0  0  0  0  0
    0.4198   13.0607    0.0000 C   0  0  0  0  0  0  0  0  0  0  0  0
    1.1343   11.8232    0.0000 N   0  0  0  0  0  0  0  0  0  0  0  0
    1.8017   11.3383    0.0000 C   0  0  0  0  0  0  0  0  0  0  0  0
    2.5863   11.5932    0.0000 C   0  0  0  0  0  0  0  0  0  0  0  0
    1.5468   10.5537    0.0000 N   0  0  0  0  0  0  0  0  0  0  0  0
    0.7218   10.5537    0.0000 C   0  0  0  0  0  0  0  0  0  0  0  0
    0.4668   11.3383    0.0000 C   0  0  0  0  0  0  0  0  0  0  0  0
   -0.3178   11.5932    0.0000 C   0  0  0  0  0  0  0  0  0  0  0  0
   -0.9309   11.0412    0.0000 C   0  0  0  0  0  0  0  0  0  0  0  0
   -1.7155   11.2961    0.0000 C   0  0  0  0  0  0  0  0  0  0  0  0
   -1.8870   12.1031    0.0000 N   0  0  0  0  0  0  0  0  0  0  0  0
   -1.2739   12.6551    0.0000 C   0  0  0  0  0  0  0  0  0  0  0  0
   -1.4455   13.4621    0.0000 N   0  0  0  0  0  0  0  0  0  0  0  0
   -0.8324   14.0141    0.0000 C   0  0  0  0  0  0  0  0  0  0  0  0
   -1.0039   14.8211    0.0000 C   0  0  0  0  0  0  0  0  0  0  0  0
   -0.3908   15.3731    0.0000 C   0  0  0  0  0  0  0  0  0  0  0  0
    0.3938   15.1182    0.0000 C   0  0  0  0  0  0  0  0  0  0  0  0
    0.5653   14.3112    0.0000 C   0  0  0  0  0  0  0  0  0  0  0  0
   -0.0477   13.7592    0.0000 C   0  0  0  0  0  0  0  0  0  0  0  0
    1.0069   15.6702    0.0000 N   0  0  0  0  0  0  0  0  0  0  0  0
    0.8354   16.4772    0.0000 C   0  0  0  0  0  0  0  0  0  0  0  0
    1.4485   17.0292    0.0000 C   0  0  0  0  0  0  0  0  0  0  0  0
    2.2331   16.7743    0.0000 N   0  0  0  0  0  0  0  0  0  0  0  0
    2.4046   15.9673    0.0000 C   0  0  0  0  0  0  0  0  0  0  0  0
    1.7915   15.4153    0.0000 C   0  0  0  0  0  0  0  0  0  0  0  0
    2.8462   17.3263    0.0000 C   0  0  0  0  0  0  0  0  0  0  0  0
    2.6747   18.1333    0.0000 O   0  0  0  0  0  0  0  0  0  0  0  0
    3.6308   17.0714    0.0000 C   0  0  0  0  0  0  0  0  0  0  0  0
    4.2439   17.6234    0.0000 O   0  0  0  0  0  0  0  0  0  0  0  0
   -0.4893   12.4002    0.0000 N   0  0  0  0  0  0  0  0  0  0  0  0
    2.7754   12.5257    0.0000 H   0  0  0  0  0  0  0  0  0  0  0  0
    1.8487   14.1307    0.0000 H   0  0  0  0  0  0  0  0  0  0  0  0
    2.7753   13.5957    0.0000 H   0  0  0  0  0  0  0  0  0  0  0  0
    0.2077   12.1132    0.0000 H   0  0  0  0  0  0  0  0  0  0  0  0
    0.4198   14.1307    0.0000 H   0  0  0  0  0  0  0  0  0  0  0  0
   -0.5068   12.5257    0.0000 H   0  0  0  0  0  0  0  0  0  0  0  0
   -0.5069   13.5957    0.0000 H   0  0  0  0  0  0  0  0  0  0  0  0
    3.3814   10.8772    0.0000 H   0  0  0  0  0  0  0  0  0  0  0  0
    2.8088   12.6398    0.0000 H   0  0  0  0  0  0  0  0  0  0  0  0
    3.6039   11.9238    0.0000 H   0  0  0  0  0  0  0  0  0  0  0  0
    0.1152    9.7188    0.0000 H   0  0  0  0  0  0  0  0  0  0  0  0
   -0.7163   10.0318    0.0000 H   0  0  0  0  0  0  0  0  0  0  0  0
   -2.4824   10.6056    0.0000 H   0  0  0  0  0  0  0  0  0  0  0  0
   -2.3818   13.7663    0.0000 H   0  0  0  0  0  0  0  0  0  0  0  0
   -1.9854   15.1400    0.0000 H   0  0  0  0  0  0  0  0  0  0  0  0
   -0.6054   16.3825    0.0000 H   0  0  0  0  0  0  0  0  0  0  0  0
    1.5468   13.9923    0.0000 H   0  0  0  0  0  0  0  0  0  0  0  0
    0.1669   12.7498    0.0000 H   0  0  0  0  0  0  0  0  0  0  0  0
   -0.1822   16.8079    0.0000 H   0  0  0  0  0  0  0  0  0  0  0  0
    0.6130   17.5238    0.0000 H   0  0  0  0  0  0  0  0  0  0  0  0
    1.2260   18.0758    0.0000 H   0  0  0  0  0  0  0  0  0  0  0  0
    2.2437   17.7452    0.0000 H   0  0  0  0  0  0  0  0  0  0  0  0
    3.4222   15.6366    0.0000 H   0  0  0  0  0  0  0  0  0  0  0  0
    2.6270   14.9207    0.0000 H   0  0  0  0  0  0  0  0  0  0  0  0
    2.0140   14.3687    0.0000 H   0  0  0  0  0  0  0  0  0  0  0  0
    2.8091   15.0846    0.0000 H   0  0  0  0  0  0  0  0  0  0  0  0
    3.8533   16.0248    0.0000 H   0  0  0  0  0  0  0  0  0  0  0  0
    4.6484   16.7407    0.0000 H   0  0  0  0  0  0  0  0  0  0  0  0
    5.1664   17.3236    0.0000 H   0  0  0  0  0  0  0  0  0  0  0  0
  1  2  1  0  0  0  0
  1 33  1  0  0  0  0
  1 34  1  0  0  0  0
  1 35  1  0  0  0  0
  2  3  1  0  0  0  0
  2  4  1  0  0  0  0
  2 36  1  0  0  0  0
  3 37  1  0  0  0  0
  3 38  1  0  0  0  0
  3 39  1  0  0  0  0
  4  5  1  0  0  0  0
  4  9  1  0  0  0  0
  5  6  1  0  0  0  0
  5  7  2  0  0  0  0
  6 40  1  0  0  0  0
  6 41  1  0  0  0  0
  6 42  1  0  0  0  0
  7  8  1  0  0  0  0
  8  9  2  0  0  0  0
  8 43  1  0  0  0  0
  9 10  1  0  0  0  0
 10 11  1  0  0  0  0
 10 32  2  0  0  0  0
 11 12  2  0  0  0  0
 11 44  1  0  0  0  0
 12 13  1  0  0  0  0
 12 45  1  0  0  0  0
 13 14  2  0  0  0  0
 14 15  1  0  0  0  0
 14 32  1  0  0  0  0
 15 16  1  0  0  0  0
 15 46  1  0  0  0  0
 16 17  1  0  0  0  0
 16 21  2  0  0  0  0
 17 18  2  0  0  0  0
 17 47  1  0  0  0  0
 18 19  1  0  0  0  0
 18 48  1  0  0  0  0
 19 20  2  0  0  0  0
 19 22  1  0  0  0  0
 20 21  1  0  0  0  0
 20 49  1  0  0  0  0
 21 50  1  0  0  0  0
 22 23  1  0  0  0  0
 22 27  1  0  0  0  0
 23 24  1  0  0  0  0
 23 51  1  0  0  0  0
 23 52  1  0  0  0  0
 24 25  1  0  0  0  0
 24 53  1  0  0  0  0
 24 54  1  0  0  0  0
 25 26  1  0  0  0  0
 25 28  1  0  0  0  0
 26 27  1  0  0  0  0
 26 55  1  0  0  0  0
 26 56  1  0  0  0  0
 27 57  1  0  0  0  0
 27 58  1  0  0  0  0
 28 29  2  0  0  0  0
 28 30  1  0  0  0  0
 30 31  1  0  0  0  0
 30 59  1  0  0  0  0
 30 60  1  0  0  0  0
 31 61  1  0  0  0  0
M  END
>  <DRUGBANK_ID>
DB07982

>  <COMMON_NAME>
2-{4-[4-({4-[2-methyl-1-(1-methylethyl)-1H-imidazol-5-yl]pyrimidin-2-yl}amino)phenyl]piperazin-1-yl}-2-oxoethanol

$$$$
