MUP
 OpenBabel10282417072D

 43 42  0  0  0  0  0  0  0  0999 V2000
    2.5118    0.5306    0.0000 C   0  0  0  0  0  0  0  0  0  0  0  0
    1.8494    0.0389    0.0000 C   0  0  0  0  0  0  0  0  0  0  0  0
    1.0923    0.3667    0.0000 C   0  0  0  0  0  0  0  0  0  0  0  0
    0.4299   -0.1251    0.0000 C   0  0  0  0  0  0  0  0  0  0  0  0
   -0.3272    0.2028    0.0000 C   0  0  0  0  0  0  0  0  0  0  0  0
   -0.9896   -0.2890    0.0000 C   0  0  0  0  0  0  0  0  0  0  0  0
   -1.7467    0.0389    0.0000 C   0  0  0  0  0  0  0  0  0  0  0  0
   -2.4091   -0.4529    0.0000 C   0  0  0  0  0  0  0  0  0  0  0  0
   -3.1662   -0.1251    0.0000 C   0  0  0  0  0  0  0  0  0  0  0  0
   -3.8286   -0.6168    0.0000 C   0  0  0  0  0  0  0  0  0  0  0  0
   -4.5857   -0.2890    0.0000 C   0  0  0  0  0  0  0  0  0  0  0  0
    4.6884    0.3667    0.0000 C   0  0  0  0  0  0  0  0  0  0  0  0
    2.9411   -0.5543    0.0000 O   0  0  0  0  0  0  0  0  0  0  0  0
    4.0260   -0.1251    0.0000 O   0  0  0  0  0  0  0  0  0  0  0  0
    3.5967    0.9598    0.0000 O   0  0  0  0  0  0  0  0  0  0  0  0
    3.2689    0.2028    0.0000 P   0  0  1  0  0  0  0  0  0  0  0  0
    2.3890    1.5935    0.0000 H   0  0  0  0  0  0  0  0  0  0  0  0
    3.3709    1.1684    0.0000 H   0  0  0  0  0  0  0  0  0  0  0  0
    1.9722   -1.0240    0.0000 H   0  0  0  0  0  0  0  0  0  0  0  0
    0.9903   -0.5989    0.0000 H   0  0  0  0  0  0  0  0  0  0  0  0
    0.9695    1.4296    0.0000 H   0  0  0  0  0  0  0  0  0  0  0  0
    0.1104    0.7918    0.0000 H   0  0  0  0  0  0  0  0  0  0  0  0
    0.5526   -1.1880    0.0000 H   0  0  0  0  0  0  0  0  0  0  0  0
   -0.4293   -0.7628    0.0000 H   0  0  0  0  0  0  0  0  0  0  0  0
   -0.4499    1.2657    0.0000 H   0  0  0  0  0  0  0  0  0  0  0  0
   -1.3091    0.6279    0.0000 H   0  0  0  0  0  0  0  0  0  0  0  0
   -0.8669   -1.3519    0.0000 H   0  0  0  0  0  0  0  0  0  0  0  0
   -1.8488   -0.9267    0.0000 H   0  0  0  0  0  0  0  0  0  0  0  0
   -1.8694    1.1018    0.0000 H   0  0  0  0  0  0  0  0  0  0  0  0
   -2.7286    0.4640    0.0000 H   0  0  0  0  0  0  0  0  0  0  0  0
   -2.2863   -1.5158    0.0000 H   0  0  0  0  0  0  0  0  0  0  0  0
   -3.2682   -1.0907    0.0000 H   0  0  0  0  0  0  0  0  0  0  0  0
   -3.2890    0.9378    0.0000 H   0  0  0  0  0  0  0  0  0  0  0  0
   -4.1481    0.3001    0.0000 H   0  0  0  0  0  0  0  0  0  0  0  0
   -3.7058   -1.6797    0.0000 H   0  0  0  0  0  0  0  0  0  0  0  0
   -4.6877   -1.2546    0.0000 H   0  0  0  0  0  0  0  0  0  0  0  0
   -4.7085    0.7739    0.0000 H   0  0  0  0  0  0  0  0  0  0  0  0
   -5.4448   -0.9268    0.0000 H   0  0  0  0  0  0  0  0  0  0  0  0
   -5.5676    0.1361    0.0000 H   0  0  0  0  0  0  0  0  0  0  0  0
    5.6703   -0.0584    0.0000 H   0  0  0  0  0  0  0  0  0  0  0  0
    4.5656    1.4296    0.0000 H   0  0  0  0  0  0  0  0  0  0  0  0
    5.5475    1.0045    0.0000 H   0  0  0  0  0  0  0  0  0  0  0  0
    4.5603    1.0711    0.0000 H   0  0  0  0  0  0  0  0  0  0  0  0
  1  2  1  0  0  0  0
  1 16  1  0  0  0  0
  1 17  1  0  0  0  0
  1 18  1  0  0  0  0
  2  3  1  0  0  0  0
  2 19  1  0  0  0  0
  2 20  1  0  0  0  0
  3  4  1  0  0  0  0
  3 21  1  0  0  0  0
  3 22  1  0  0  0  0
  4  5  1  0  0  0  0
  4 23  1  0  0  0  0
  4 24  1  0  0  0  0
  5  6  1  0  0  0  0
  5 25  1  0  0  0  0
  5 26  1  0  0  0  0
  6  7  1  0  0  0  0
  6 27  1  0  0  0  0
  6 28  1  0  0  0  0
  7  8  1  0  0  0  0
  7 29  1  0  0  0  0
  7 30  1  0  0  0  0
  8  9  1  0  0  0  0
  8 31  1  0  0  0  0
  8 32  1  0  0  0  0
  9 10  1  0  0  0  0
  9 33  1  0  0  0  0
  9 34  1  0  0  0  0
 10 11  1  0  0  0  0
 10 35  1  0  0  0  0
 10 36  1  0  0  0  0
 11 37  1  0  0  0  0
 11 38  1  0  0  0  0
 11 39  1  0  0  0  0
 12 14  1  0  0  0  0
 12 40  1  0  0  0  0
 12 41  1  0  0  0  0
 12 42  1  0  0  0  0
 15 43  1  0  0  0  0
 16 13  2  1  0  0  0
 16 14  1  0  0  0  0
 16 15  1  0  0  0  0
M  END
>  <DRUGBANK_ID>
DB08222

>  <COMMON_NAME>
METHOXYUNDECYLPHOSPHINIC ACID

$$$$
