
 OpenBabel10282417072D

 41 43  0  0  1  0  0  0  0  0999 V2000
    0.3194   -1.9658    0.0000 C   0  0  0  0  0  0  0  0  0  0  0  0
    0.9514   -2.4961    0.0000 O   0  0  0  0  0  0  0  0  0  0  0  0
    0.8081   -3.3086    0.0000 C   0  0  0  0  0  0  0  0  0  0  0  0
    0.0329   -3.5908    0.0000 O   0  0  0  0  0  0  0  0  0  0  0  0
    1.4401   -3.8389    0.0000 C   0  0  0  0  0  0  0  0  0  0  0  0
    1.8526   -4.5534    0.0000 C   0  0  0  0  0  0  0  0  0  0  0  0
    1.0276   -4.5534    0.0000 C   0  0  0  0  0  0  0  0  0  0  0  0
    2.0721   -3.3086    0.0000 O   0  0  0  0  0  0  0  0  0  0  0  0
    2.8473   -3.5908    0.0000 C   0  0  0  0  0  0  0  0  0  0  0  0
    2.9906   -4.4032    0.0000 O   0  0  0  0  0  0  0  0  0  0  0  0
    3.4793   -3.0605    0.0000 C   0  0  0  0  0  0  0  0  0  0  0  0
    3.4218   -2.2375    0.0000 C   0  0  0  0  0  0  0  0  0  0  0  0
    4.1867   -1.9284    0.0000 N   0  0  0  0  0  0  0  0  0  0  0  0
    4.7170   -2.5604    0.0000 C   0  0  0  0  0  0  0  0  0  0  0  0
    4.2798   -3.2601    0.0000 N   0  0  0  0  0  0  0  0  0  0  0  0
    4.5889   -4.0250    0.0000 C   0  0  2  0  0  0  0  0  0  0  0  0
    4.0809   -4.6751    0.0000 C   0  0  0  0  0  0  0  0  0  0  0  0
    5.4058   -4.1398    0.0000 C   0  0  0  0  0  0  0  0  0  0  0  0
    5.9138   -3.4897    0.0000 C   0  0  0  0  0  0  0  0  0  0  0  0
    6.7307   -3.6045    0.0000 C   0  0  0  0  0  0  0  0  0  0  0  0
    7.0398   -4.3694    0.0000 C   0  0  0  0  0  0  0  0  0  0  0  0
    6.5319   -5.0196    0.0000 C   0  0  0  0  0  0  0  0  0  0  0  0
    5.7149   -4.9047    0.0000 C   0  0  0  0  0  0  0  0  0  0  0  0
    0.5052   -0.9121    0.0000 H   0  0  0  0  0  0  0  0  0  0  0  0
   -0.6861   -2.3318    0.0000 H   0  0  0  0  0  0  0  0  0  0  0  0
   -0.5003   -1.2780    0.0000 H   0  0  0  0  0  0  0  0  0  0  0  0
    2.7792   -5.0884    0.0000 H   0  0  0  0  0  0  0  0  0  0  0  0
    1.5757   -5.5869    0.0000 H   0  0  0  0  0  0  0  0  0  0  0  0
    0.1010   -5.0884    0.0000 H   0  0  0  0  0  0  0  0  0  0  0  0
    0.2710   -3.7968    0.0000 H   0  0  0  0  0  0  0  0  0  0  0  0
    2.5466   -1.6906    0.0000 H   0  0  0  0  0  0  0  0  0  0  0  0
    5.7465   -2.4884    0.0000 H   0  0  0  0  0  0  0  0  0  0  0  0
    3.5293   -3.8761    0.0000 H   0  0  0  0  0  0  0  0  0  0  0  0
    3.0213   -4.5261    0.0000 H   0  0  0  0  0  0  0  0  0  0  0  0
    4.4816   -5.6672    0.0000 H   0  0  0  0  0  0  0  0  0  0  0  0
    3.4221   -5.5182    0.0000 H   0  0  0  0  0  0  0  0  0  0  0  0
    5.5272   -2.5328    0.0000 H   0  0  0  0  0  0  0  0  0  0  0  0
    7.3660   -2.7912    0.0000 H   0  0  0  0  0  0  0  0  0  0  0  0
    8.0618   -4.5129    0.0000 H   0  0  0  0  0  0  0  0  0  0  0  0
    6.9185   -5.9765    0.0000 H   0  0  0  0  0  0  0  0  0  0  0  0
    5.0795   -5.7179    0.0000 H   0  0  0  0  0  0  0  0  0  0  0  0
  1  2  1  0  0  0  0
  1 24  1  0  0  0  0
  1 25  1  0  0  0  0
  1 26  1  0  0  0  0
  2  3  1  0  0  0  0
  3  4  2  0  0  0  0
  3  5  1  0  0  0  0
  5  6  1  0  0  0  0
  5  7  1  0  0  0  0
  5  8  1  0  0  0  0
  6  7  1  0  0  0  0
  6 27  1  0  0  0  0
  6 28  1  0  0  0  0
  7 29  1  0  0  0  0
  7 30  1  0  0  0  0
  8  9  1  0  0  0  0
  9 10  2  0  0  0  0
  9 11  1  0  0  0  0
 11 12  2  0  0  0  0
 11 15  1  0  0  0  0
 12 13  1  0  0  0  0
 12 31  1  0  0  0  0
 13 14  2  0  0  0  0
 14 15  1  0  0  0  0
 14 32  1  0  0  0  0
 16 15  1  0  0  0  0
 16 17  1  0  0  0  0
 16 18  1  0  0  0  0
 16 33  1  6  0  0  0
 17 34  1  0  0  0  0
 17 35  1  0  0  0  0
 17 36  1  0  0  0  0
 18 19  2  0  0  0  0
 18 23  1  0  0  0  0
 19 20  1  0  0  0  0
 19 37  1  0  0  0  0
 20 21  2  0  0  0  0
 20 38  1  0  0  0  0
 21 22  1  0  0  0  0
 21 39  1  0  0  0  0
 22 23  2  0  0  0  0
 22 40  1  0  0  0  0
 23 41  1  0  0  0  0
M  END
>  <DRUGBANK_ID>
DB15411

>  <COMMON_NAME>
ABP-700

>  <CAS_NUMBER>
1446482-29-6

>  <UNII>
LZ0835OW2M

$$$$
