
 OpenBabel10282417072D

 41 43  0  0  0  0  0  0  0  0999 V2000
   -2.8673   -0.8256    0.0000 N   0  0  0  0  0  0  0  0  0  0  0  0
   -2.0853   -1.0793    0.0000 C   0  0  0  0  0  0  0  0  0  0  0  0
   -1.4217   -0.5937    0.0000 N   0  0  0  0  0  0  0  0  0  0  0  0
   -0.7538   -1.0793    0.0000 N   0  0  0  0  0  0  0  0  0  0  0  0
   -1.0101   -1.8617    0.0000 C   0  0  0  0  0  0  0  0  0  0  0  0
   -1.8334   -1.8617    0.0000 N   0  0  0  0  0  0  0  0  0  0  0  0
   -0.5277   -2.5273    0.0000 N   0  0  0  0  0  0  0  0  0  0  0  0
    0.2899   -2.4424    0.0000 C   0  0  0  0  0  0  0  0  0  0  0  0
    0.7727   -3.1129    0.0000 C   0  0  0  0  0  0  0  0  0  0  0  0
    1.5938   -3.0202    0.0000 C   0  0  0  0  0  0  0  0  0  0  0  0
    1.9285   -2.2648    0.0000 C   0  0  0  0  0  0  0  0  0  0  0  0
    1.4422   -1.6019    0.0000 C   0  0  0  0  0  0  0  0  0  0  0  0
    0.6246   -1.6869    0.0000 C   0  0  0  0  0  0  0  0  0  0  0  0
    2.7457   -2.1763    0.0000 S   0  0  0  0  0  0  0  0  0  0  0  0
    3.5630   -2.0877    0.0000 N   0  0  0  0  0  0  0  0  0  0  0  0
    2.6572   -1.3590    0.0000 O   0  0  0  0  0  0  0  0  0  0  0  0
    2.8343   -2.9935    0.0000 O   0  0  0  0  0  0  0  0  0  0  0  0
   -1.4217    0.2283    0.0000 C   0  0  0  0  0  0  0  0  0  0  0  0
   -0.7117    0.6403    0.0000 S   0  0  0  0  0  0  0  0  0  0  0  0
   -2.1367    0.6382    0.0000 N   0  0  0  0  0  0  0  0  0  0  0  0
   -2.1367    1.4602    0.0000 C   0  0  0  0  0  0  0  0  0  0  0  0
   -2.8505    1.8765    0.0000 C   0  0  0  0  0  0  0  0  0  0  0  0
   -2.8505    2.7028    0.0000 C   0  0  0  0  0  0  0  0  0  0  0  0
   -2.1393    3.1129    0.0000 C   0  0  0  0  0  0  0  0  0  0  0  0
   -1.4243    2.7050    0.0000 C   0  0  0  0  0  0  0  0  0  0  0  0
   -1.4243    1.8786    0.0000 C   0  0  0  0  0  0  0  0  0  0  0  0
   -0.7105    1.4708    0.0000 F   0  0  0  0  0  0  0  0  0  0  0  0
   -3.5630    1.4664    0.0000 F   0  0  0  0  0  0  0  0  0  0  0  0
   -3.0724    0.1373    0.0000 H   0  0  0  0  0  0  0  0  0  0  0  0
   -3.5986   -1.4847    0.0000 H   0  0  0  0  0  0  0  0  0  0  0  0
   -0.9292   -3.4262    0.0000 H   0  0  0  0  0  0  0  0  0  0  0  0
    0.3546   -4.0564    0.0000 H   0  0  0  0  0  0  0  0  0  0  0  0
    2.2044   -3.8522    0.0000 H   0  0  0  0  0  0  0  0  0  0  0  0
    1.8603   -0.6584    0.0000 H   0  0  0  0  0  0  0  0  0  0  0  0
    0.0177   -0.8522    0.0000 H   0  0  0  0  0  0  0  0  0  0  0  0
    4.1652   -2.9109    0.0000 H   0  0  0  0  0  0  0  0  0  0  0  0
    3.9748   -1.1545    0.0000 H   0  0  0  0  0  0  0  0  0  0  0  0
   -2.9885    0.1446    0.0000 H   0  0  0  0  0  0  0  0  0  0  0  0
   -3.7441    3.2190    0.0000 H   0  0  0  0  0  0  0  0  0  0  0  0
   -2.1417    4.1449    0.0000 H   0  0  0  0  0  0  0  0  0  0  0  0
   -0.5319    3.2233    0.0000 H   0  0  0  0  0  0  0  0  0  0  0  0
  1  2  1  0  0  0  0
  1 29  1  0  0  0  0
  1 30  1  0  0  0  0
  2  3  1  0  0  0  0
  2  6  2  0  0  0  0
  3 18  1  0  0  0  0
  4  3  1  0  0  0  0
  5  4  2  0  0  0  0
  5  7  1  0  0  0  0
  6  5  1  0  0  0  0
  7  8  1  0  0  0  0
  7 31  1  0  0  0  0
  8  9  2  0  0  0  0
  8 13  1  0  0  0  0
  9 32  1  0  0  0  0
 10  9  1  0  0  0  0
 10 33  1  0  0  0  0
 11 10  2  0  0  0  0
 11 14  1  0  0  0  0
 12 11  1  0  0  0  0
 12 34  1  0  0  0  0
 13 12  2  0  0  0  0
 13 35  1  0  0  0  0
 14 15  1  0  0  0  0
 14 16  2  0  0  0  0
 14 17  2  0  0  0  0
 15 36  1  0  0  0  0
 15 37  1  0  0  0  0
 18 19  2  0  0  0  0
 18 20  1  0  0  0  0
 20 21  1  0  0  0  0
 20 38  1  0  0  0  0
 21 22  2  0  0  0  0
 21 26  1  0  0  0  0
 22 28  1  0  0  0  0
 23 22  1  0  0  0  0
 23 39  1  0  0  0  0
 24 23  2  0  0  0  0
 24 40  1  0  0  0  0
 25 24  1  0  0  0  0
 25 41  1  0  0  0  0
 26 25  2  0  0  0  0
 26 27  1  0  0  0  0
M  END
>  <DRUGBANK_ID>
DB07664

>  <COMMON_NAME>
K-00546

>  <CAS_NUMBER>
443798-47-8

>  <UNII>
LFR1253W75

>  <SYNONYMS>
CDK1/2 inhibitor III

$$$$
