
 OpenBabel10282417072D

 57 60  0  0  0  0  0  0  0  0999 V2000
   -0.1712   -0.6979    0.0000 C   0  0  0  0  0  0  0  0  0  0  0  0
    4.7812   -0.2854    0.0000 C   0  0  0  0  0  0  0  0  0  0  0  0
    4.7812   -1.1104    0.0000 C   0  0  0  0  0  0  0  0  0  0  0  0
   -0.0938    6.0749    0.0000 C   0  0  0  0  0  0  0  0  0  0  0  0
   -0.6459    5.4618    0.0000 C   0  0  0  0  0  0  0  0  0  0  0  0
    0.7132    5.9034    0.0000 C   0  0  0  0  0  0  0  0  0  0  0  0
   -0.3909    4.6772    0.0000 C   0  0  0  0  0  0  0  0  0  0  0  0
    0.9681    5.1188    0.0000 C   0  0  0  0  0  0  0  0  0  0  0  0
    0.8838    0.7541    0.0000 C   0  0  0  0  0  0  0  0  0  0  0  0
    1.4358    1.3672    0.0000 C   0  0  0  0  0  0  0  0  0  0  0  0
    1.7329    2.7649    0.0000 C   0  0  0  0  0  0  0  0  0  0  0  0
    0.3739    2.3234    0.0000 C   0  0  0  0  0  0  0  0  0  0  0  0
    1.4780    3.5496    0.0000 C   0  0  0  0  0  0  0  0  0  0  0  0
    0.1190    3.1080    0.0000 C   0  0  0  0  0  0  0  0  0  0  0  0
    2.6378    0.1271    0.0000 C   0  0  0  0  0  0  0  0  0  0  0  0
    2.6378   -1.5229    0.0000 C   0  0  0  0  0  0  0  0  0  0  0  0
    0.6538   -0.6979    0.0000 C   0  0  0  0  0  0  0  0  0  0  0  0
    0.4161    4.5057    0.0000 C   0  0  0  0  0  0  0  0  0  0  0  0
    1.1387   -0.0305    0.0000 C   0  0  0  0  0  0  0  0  0  0  0  0
    1.9233   -0.2854    0.0000 C   0  0  0  0  0  0  0  0  0  0  0  0
    1.9233   -1.1104    0.0000 C   0  0  0  0  0  0  0  0  0  0  0  0
    3.3523   -0.2854    0.0000 C   0  0  0  0  0  0  0  0  0  0  0  0
    3.3523   -1.1104    0.0000 C   0  0  0  0  0  0  0  0  0  0  0  0
    1.1387   -1.3654    0.0000 N   0  0  0  0  0  0  0  0  0  0  0  0
    1.1809    2.1518    0.0000 N   0  0  0  0  0  0  0  0  0  0  0  0
    0.6710    3.7211    0.0000 N   0  0  0  0  0  0  0  0  0  0  0  0
    4.0668    0.1271    0.0000 O   0  0  0  0  0  0  0  0  0  0  0  0
    4.0668   -1.5229    0.0000 O   0  0  0  0  0  0  0  0  0  0  0  0
   -0.7062    0.2287    0.0000 H   0  0  0  0  0  0  0  0  0  0  0  0
   -0.7062   -1.6245    0.0000 H   0  0  0  0  0  0  0  0  0  0  0  0
   -1.2412   -0.6979    0.0000 H   0  0  0  0  0  0  0  0  0  0  0  0
    4.7812   -1.3554    0.0000 H   0  0  0  0  0  0  0  0  0  0  0  0
    5.7079    0.2496    0.0000 H   0  0  0  0  0  0  0  0  0  0  0  0
    5.7078   -0.8204    0.0000 H   0  0  0  0  0  0  0  0  0  0  0  0
    5.7079   -1.6454    0.0000 H   0  0  0  0  0  0  0  0  0  0  0  0
    4.7812   -0.0404    0.0000 H   0  0  0  0  0  0  0  0  0  0  0  0
    5.7078   -0.5754    0.0000 H   0  0  0  0  0  0  0  0  0  0  0  0
   -0.4127    7.0564    0.0000 H   0  0  0  0  0  0  0  0  0  0  0  0
   -1.6554    5.6764    0.0000 H   0  0  0  0  0  0  0  0  0  0  0  0
    1.4037    6.6703    0.0000 H   0  0  0  0  0  0  0  0  0  0  0  0
   -1.0814    3.9102    0.0000 H   0  0  0  0  0  0  0  0  0  0  0  0
    1.9775    4.9042    0.0000 H   0  0  0  0  0  0  0  0  0  0  0  0
   -0.1628    0.9766    0.0000 H   0  0  0  0  0  0  0  0  0  0  0  0
    0.1678   -0.0411    0.0000 H   0  0  0  0  0  0  0  0  0  0  0  0
    2.4824    1.1447    0.0000 H   0  0  0  0  0  0  0  0  0  0  0  0
    2.1518    2.1624    0.0000 H   0  0  0  0  0  0  0  0  0  0  0  0
    2.7795    2.5424    0.0000 H   0  0  0  0  0  0  0  0  0  0  0  0
    2.0636    1.7473    0.0000 H   0  0  0  0  0  0  0  0  0  0  0  0
   -0.3421    1.5283    0.0000 H   0  0  0  0  0  0  0  0  0  0  0  0
    0.7045    1.3057    0.0000 H   0  0  0  0  0  0  0  0  0  0  0  0
    2.1940    4.3448    0.0000 H   0  0  0  0  0  0  0  0  0  0  0  0
    1.1473    4.5672    0.0000 H   0  0  0  0  0  0  0  0  0  0  0  0
   -0.9276    3.3305    0.0000 H   0  0  0  0  0  0  0  0  0  0  0  0
   -0.2117    4.1256    0.0000 H   0  0  0  0  0  0  0  0  0  0  0  0
    2.6378    1.1591    0.0000 H   0  0  0  0  0  0  0  0  0  0  0  0
    2.6378   -2.5549    0.0000 H   0  0  0  0  0  0  0  0  0  0  0  0
    0.8345   -2.3017    0.0000 H   0  0  0  0  0  0  0  0  0  0  0  0
  1 29  1  0  0  0  0
  1 30  1  0  0  0  0
  1 31  1  0  0  0  0
  2 32  1  0  0  0  0
  2 33  1  0  0  0  0
  2 34  1  0  0  0  0
  3 35  1  0  0  0  0
  3 36  1  0  0  0  0
  3 37  1  0  0  0  0
  4 38  1  0  0  0  0
  5  4  2  0  0  0  0
  5 39  1  0  0  0  0
  6  4  1  0  0  0  0
  6 40  1  0  0  0  0
  7  5  1  0  0  0  0
  7 41  1  0  0  0  0
  8  6  2  0  0  0  0
  8 42  1  0  0  0  0
  9 43  1  0  0  0  0
  9 44  1  0  0  0  0
 10  9  1  0  0  0  0
 10 45  1  0  0  0  0
 10 46  1  0  0  0  0
 11 47  1  0  0  0  0
 11 48  1  0  0  0  0
 12 49  1  0  0  0  0
 12 50  1  0  0  0  0
 13 11  1  0  0  0  0
 13 51  1  0  0  0  0
 13 52  1  0  0  0  0
 14 12  1  0  0  0  0
 14 53  1  0  0  0  0
 14 54  1  0  0  0  0
 15 55  1  0  0  0  0
 16 56  1  0  0  0  0
 17  1  1  0  0  0  0
 18  7  2  0  0  0  0
 18  8  1  0  0  0  0
 19  9  1  0  0  0  0
 19 17  2  0  0  0  0
 20 15  2  0  0  0  0
 20 19  1  0  0  0  0
 21 16  2  0  0  0  0
 21 20  1  0  0  0  0
 22 15  1  0  0  0  0
 23 16  1  0  0  0  0
 23 22  2  0  0  0  0
 24 17  1  0  0  0  0
 24 21  1  0  0  0  0
 24 57  1  0  0  0  0
 25 10  1  0  0  0  0
 25 11  1  0  0  0  0
 25 12  1  0  0  0  0
 26 13  1  0  0  0  0
 26 14  1  0  0  0  0
 26 18  1  0  0  0  0
 27  2  1  0  0  0  0
 27 22  1  0  0  0  0
 28  3  1  0  0  0  0
 28 23  1  0  0  0  0
M  END
>  <DRUGBANK_ID>
DB13403

>  <COMMON_NAME>
Oxypertine

>  <CAS_NUMBER>
153-87-7

>  <UNII>
5JGL4G25R7

>  <SYNONYMS>
Oxypertine

$$$$
