0AY
 OpenBabel10282417072D

 37 36  0  0  0  0  0  0  0  0999 V2000
    0.3748   -1.2502    0.0000 N   0  0  0  0  0  0  0  0  0  0  0  0
    0.1047   -0.4707    0.0000 C   0  0  1  0  0  0  0  0  0  0  0  0
    0.6448    0.1530    0.0000 C   0  0  0  0  0  0  0  0  0  0  0  0
    1.4550   -0.0029    0.0000 C   0  0  0  0  0  0  0  0  0  0  0  0
    1.9951    0.6207    0.0000 C   0  0  0  0  0  0  0  0  0  0  0  0
    2.8052    0.4648    0.0000 C   0  0  0  0  0  0  0  0  0  0  0  0
    3.3453    1.0884    0.0000 N   0  0  0  0  0  0  0  0  0  0  0  0
   -0.7054   -0.3147    0.0000 B   0  0  0  0  0  0  0  0  0  0  0  0
   -1.2455   -0.9384    0.0000 O   0  0  0  0  0  0  0  0  0  0  0  0
   -2.0556   -0.7825    0.0000 C   0  0  0  0  0  0  0  0  0  0  0  0
   -2.5957   -1.4061    0.0000 C   0  0  0  0  0  0  0  0  0  0  0  0
   -0.9754    0.4648    0.0000 O   0  0  0  0  0  0  0  0  0  0  0  0
   -1.7856    0.6207    0.0000 C   0  0  0  0  0  0  0  0  0  0  0  0
   -2.0556    1.4003    0.0000 C   0  0  0  0  0  0  0  0  0  0  0  0
   -0.2775   -0.9121    0.0000 H   0  0  0  0  0  0  0  0  0  0  0  0
   -0.2929   -2.0213    0.0000 H   0  0  0  0  0  0  0  0  0  0  0  0
    1.3764   -1.4429    0.0000 H   0  0  0  0  0  0  0  0  0  0  0  0
    0.2945    1.1640    0.0000 H   0  0  0  0  0  0  0  0  0  0  0  0
    1.3453    0.9619    0.0000 H   0  0  0  0  0  0  0  0  0  0  0  0
    1.8052   -1.0140    0.0000 H   0  0  0  0  0  0  0  0  0  0  0  0
    2.5057   -0.2051    0.0000 H   0  0  0  0  0  0  0  0  0  0  0  0
    1.6449    1.6318    0.0000 H   0  0  0  0  0  0  0  0  0  0  0  0
    2.6956    1.4295    0.0000 H   0  0  0  0  0  0  0  0  0  0  0  0
    3.1554   -0.5463    0.0000 H   0  0  0  0  0  0  0  0  0  0  0  0
    3.8559    0.2626    0.0000 H   0  0  0  0  0  0  0  0  0  0  0  0
    4.3469    0.8956    0.0000 H   0  0  0  0  0  0  0  0  0  0  0  0
    3.0115    2.0522    0.0000 H   0  0  0  0  0  0  0  0  0  0  0  0
   -2.4058    0.2286    0.0000 H   0  0  0  0  0  0  0  0  0  0  0  0
   -3.1063   -0.5803    0.0000 H   0  0  0  0  0  0  0  0  0  0  0  0
   -3.6464   -1.2038    0.0000 H   0  0  0  0  0  0  0  0  0  0  0  0
   -2.2455   -2.4172    0.0000 H   0  0  0  0  0  0  0  0  0  0  0  0
   -3.2962   -2.2149    0.0000 H   0  0  0  0  0  0  0  0  0  0  0  0
   -2.4861   -0.1881    0.0000 H   0  0  0  0  0  0  0  0  0  0  0  0
   -2.8363    0.8230    0.0000 H   0  0  0  0  0  0  0  0  0  0  0  0
   -1.3551    2.2091    0.0000 H   0  0  0  0  0  0  0  0  0  0  0  0
   -3.1063    1.6026    0.0000 H   0  0  0  0  0  0  0  0  0  0  0  0
   -2.4058    2.4114    0.0000 H   0  0  0  0  0  0  0  0  0  0  0  0
  1 16  1  0  0  0  0
  1 17  1  0  0  0  0
  2  1  1  0  0  0  0
  2  8  1  0  0  0  0
  2 15  1  1  0  0  0
  3  2  1  0  0  0  0
  3 18  1  0  0  0  0
  3 19  1  0  0  0  0
  4  3  1  0  0  0  0
  4 20  1  0  0  0  0
  4 21  1  0  0  0  0
  5  4  1  0  0  0  0
  5 22  1  0  0  0  0
  5 23  1  0  0  0  0
  6  5  1  0  0  0  0
  6 24  1  0  0  0  0
  6 25  1  0  0  0  0
  7  6  1  0  0  0  0
  7 26  1  0  0  0  0
  7 27  1  0  0  0  0
  8 12  1  0  0  0  0
  8  9  1  0  0  0  0
  9 10  1  0  0  0  0
 10 11  1  0  0  0  0
 10 28  1  0  0  0  0
 10 29  1  0  0  0  0
 11 30  1  0  0  0  0
 11 31  1  0  0  0  0
 11 32  1  0  0  0  0
 12 13  1  0  0  0  0
 13 33  1  0  0  0  0
 13 34  1  0  0  0  0
 14 13  1  0  0  0  0
 14 35  1  0  0  0  0
 14 36  1  0  0  0  0
 14 37  1  0  0  0  0
M  END
>  <DRUGBANK_ID>
DB06840

>  <COMMON_NAME>
diethyl [(1R)-1,5-diaminopentyl]boronate

$$$$
