
 OpenBabel10282417072D

 61 65  0  0  0  0  0  0  0  0999 V2000
   -2.9056   -2.0855    0.0000 C   0  0  0  0  0  0  0  0  0  0  0  0
   -2.7424   -1.2786    0.0000 C   0  0  0  0  0  0  0  0  0  0  0  0
   -2.7523   -0.4550    0.0000 O   0  0  0  0  0  0  0  0  0  0  0  0
   -1.9679   -0.1956    0.0000 C   0  0  2  0  0  0  0  0  0  0  0  0
   -1.4875    0.4798    0.0000 C   0  0  0  0  0  0  0  0  0  0  0  0
   -0.7049    0.2347    0.0000 C   0  0  1  0  0  0  0  0  0  0  0  0
    0.0066    0.6515    0.0000 C   0  0  2  0  0  0  0  0  0  0  0  0
   -0.0032    1.4753    0.0000 C   0  0  0  0  0  0  0  0  0  0  0  0
    0.7040    1.8964    0.0000 C   0  0  1  0  0  0  0  0  0  0  0  0
    1.4257    1.4894    0.0000 C   0  0  0  0  0  0  0  0  0  0  0  0
    2.1331    1.9107    0.0000 C   0  0  0  0  0  0  0  0  0  0  0  0
    2.8548    1.5039    0.0000 C   0  0  0  0  0  0  0  0  0  0  0  0
    3.5665    1.9250    0.0000 O   0  0  0  0  0  0  0  0  0  0  0  0
    2.8612    0.6822    0.0000 C   0  0  0  0  0  0  0  0  0  0  0  0
    2.1537    0.2610    0.0000 C   0  0  0  0  0  0  0  0  0  0  0  0
    1.4322    0.6637    0.0000 C   0  0  2  0  0  0  0  0  0  0  0  0
    0.7203    0.2468    0.0000 C   0  0  1  0  0  0  0  0  0  0  0  0
    0.7347   -0.5768    0.0000 C   0  0  2  0  0  0  0  0  0  0  0  0
    0.0230   -0.9938    0.0000 C   0  0  0  0  0  0  0  0  0  0  0  0
   -0.6986   -0.5911    0.0000 C   0  0  2  0  0  0  0  0  0  0  0  0
   -1.4788   -0.8545    0.0000 C   0  0  2  0  0  0  0  0  0  0  0  0
   -1.9554   -1.5236    0.0000 O   0  0  0  0  0  0  0  0  0  0  0  0
   -0.8871   -2.0326    0.0000 C   0  0  0  0  0  0  0  0  0  0  0  0
   -0.0638   -2.0815    0.0000 O   0  0  0  0  0  0  0  0  0  0  0  0
   -1.3443   -2.7224    0.0000 C   0  0  0  0  0  0  0  0  0  0  0  0
   -2.1674   -2.6735    0.0000 O   0  0  0  0  0  0  0  0  0  0  0  0
   -0.6269   -1.4151    0.0000 C   0  0  0  0  0  0  0  0  0  0  0  0
    1.2647   -1.2047    0.0000 Cl  0  0  0  0  0  0  0  0  0  0  0  0
    1.8773   -0.4012    0.0000 Cl  0  0  0  0  0  0  0  0  0  0  0  0
    0.6976    2.7224    0.0000 F   0  0  0  0  0  0  0  0  0  0  0  0
   -3.5665   -1.2025    0.0000 C   0  0  0  0  0  0  0  0  0  0  0  0
    0.6781    1.1010    0.0000 C   0  0  0  0  0  0  0  0  0  0  0  0
   -0.7130    1.0882    0.0000 H   0  0  0  0  0  0  0  0  0  0  0  0
   -2.5765    0.4096    0.0000 H   0  0  0  0  0  0  0  0  0  0  0  0
   -0.0002   -0.1956    0.0000 H   0  0  0  0  0  0  0  0  0  0  0  0
   -3.9199   -2.4262    0.0000 H   0  0  0  0  0  0  0  0  0  0  0  0
   -2.1034   -2.7936    0.0000 H   0  0  0  0  0  0  0  0  0  0  0  0
   -3.1177   -3.1343    0.0000 H   0  0  0  0  0  0  0  0  0  0  0  0
   -1.8287    1.4940    0.0000 H   0  0  0  0  0  0  0  0  0  0  0  0
   -0.7389    1.2443    0.0000 H   0  0  0  0  0  0  0  0  0  0  0  0
   -0.9366    1.9985    0.0000 H   0  0  0  0  0  0  0  0  0  0  0  0
   -0.0172    2.5452    0.0000 H   0  0  0  0  0  0  0  0  0  0  0  0
   -0.2283    2.4215    0.0000 H   0  0  0  0  0  0  0  0  0  0  0  0
    2.1208    2.9426    0.0000 H   0  0  0  0  0  0  0  0  0  0  0  0
    3.7604    0.1757    0.0000 H   0  0  0  0  0  0  0  0  0  0  0  0
    2.1681   -0.7709    0.0000 H   0  0  0  0  0  0  0  0  0  0  0  0
    1.7364   -0.2006    0.0000 H   0  0  0  0  0  0  0  0  0  0  0  0
    0.0342   -2.0637    0.0000 H   0  0  0  0  0  0  0  0  0  0  0  0
   -0.8969   -1.5404    0.0000 H   0  0  0  0  0  0  0  0  0  0  0  0
   -0.8663   -3.6797    0.0000 H   0  0  0  0  0  0  0  0  0  0  0  0
   -1.9338   -3.6153    0.0000 H   0  0  0  0  0  0  0  0  0  0  0  0
   -2.6017   -1.8062    0.0000 H   0  0  0  0  0  0  0  0  0  0  0  0
   -1.5037   -2.0284    0.0000 H   0  0  0  0  0  0  0  0  0  0  0  0
    0.3426   -1.8678    0.0000 H   0  0  0  0  0  0  0  0  0  0  0  0
   -0.5341   -2.4811    0.0000 H   0  0  0  0  0  0  0  0  0  0  0  0
   -4.0140   -0.2306    0.0000 H   0  0  0  0  0  0  0  0  0  0  0  0
   -4.1844   -2.0760    0.0000 H   0  0  0  0  0  0  0  0  0  0  0  0
   -4.6320   -1.1041    0.0000 H   0  0  0  0  0  0  0  0  0  0  0  0
    0.6801    2.1710    0.0000 H   0  0  0  0  0  0  0  0  0  0  0  0
   -0.2496    0.5678    0.0000 H   0  0  0  0  0  0  0  0  0  0  0  0
   -0.2475    1.6378    0.0000 H   0  0  0  0  0  0  0  0  0  0  0  0
  1  2  1  0  0  0  0
  1 36  1  0  0  0  0
  1 37  1  0  0  0  0
  1 38  1  0  0  0  0
  2 22  1  0  0  0  0
  2 31  1  0  0  0  0
  2  3  1  0  0  0  0
  4  5  1  0  0  0  0
  4 21  1  0  0  0  0
  4 34  1  1  0  0  0
  4  3  1  0  0  0  0
  5 39  1  0  0  0  0
  5 40  1  0  0  0  0
  6  5  1  0  0  0  0
  6  7  1  0  0  0  0
  6 20  1  0  0  0  0
  6 33  1  6  0  0  0
  7  8  1  0  0  0  0
  7 17  1  0  0  0  0
  7 35  1  1  0  0  0
  8  9  1  0  0  0  0
  8 41  1  0  0  0  0
  8 42  1  0  0  0  0
  9 10  1  0  0  0  0
  9 30  1  0  0  0  0
  9 43  1  1  0  0  0
 10 11  2  0  0  0  0
 10 16  1  0  0  0  0
 11 12  1  0  0  0  0
 11 44  1  0  0  0  0
 12 13  2  0  0  0  0
 12 14  1  0  0  0  0
 14 15  2  0  0  0  0
 14 45  1  0  0  0  0
 15 16  1  0  0  0  0
 15 46  1  0  0  0  0
 16 17  1  0  0  0  0
 16 32  1  1  0  0  0
 17 18  1  0  0  0  0
 17 29  1  6  0  0  0
 18 19  1  0  0  0  0
 18 28  1  0  0  0  0
 18 47  1  6  0  0  0
 19 20  1  0  0  0  0
 19 48  1  0  0  0  0
 19 49  1  0  0  0  0
 20 21  1  0  0  0  0
 20 27  1  1  0  0  0
 21 22  1  0  0  0  0
 21 23  1  1  0  0  0
 23 24  2  0  0  0  0
 23 25  1  0  0  0  0
 25 26  1  0  0  0  0
 25 50  1  0  0  0  0
 25 51  1  0  0  0  0
 26 52  1  0  0  0  0
 27 53  1  0  0  0  0
 27 54  1  0  0  0  0
 27 55  1  0  0  0  0
 31 56  1  0  0  0  0
 31 57  1  0  0  0  0
 31 58  1  0  0  0  0
 32 59  1  0  0  0  0
 32 60  1  0  0  0  0
 32 61  1  0  0  0  0
M  END
>  <DRUGBANK_ID>
DB08973

>  <COMMON_NAME>
Fluclorolone acetonide

>  <CAS_NUMBER>
3693-39-8

>  <UNII>
MG258KTA37

>  <SYNONYMS>
Fluclorolone acetonide; Flucloronide

$$$$
