TRL
 OpenBabel10282417072D

 64 64  0  0  0  0  0  0  0  0999 V2000
   -2.7903    0.5858    0.0000 O   0  0  0  0  0  0  0  0  0  0  0  0
   -2.0057    0.3309    0.0000 C   0  0  0  0  0  0  0  0  0  0  0  0
   -1.8342   -0.4761    0.0000 C   0  0  1  0  0  0  0  0  0  0  0  0
   -2.4473   -1.0282    0.0000 C   0  0  0  0  0  0  0  0  0  0  0  0
   -3.2319   -0.7732    0.0000 C   0  0  0  0  0  0  0  0  0  0  0  0
   -1.0496   -0.7311    0.0000 C   0  0  1  0  0  0  0  0  0  0  0  0
   -0.3821   -0.2461    0.0000 N   0  0  0  0  0  0  0  0  0  0  0  0
    0.2853   -0.7311    0.0000 C   0  0  0  0  0  0  0  0  0  0  0  0
    0.0304   -1.5157    0.0000 C   0  0  0  0  0  0  0  0  0  0  0  0
   -0.7946   -1.5157    0.0000 C   0  0  2  0  0  0  0  0  0  0  0  0
   -1.2795   -2.1831    0.0000 N   0  0  0  0  0  0  0  0  0  0  0  0
   -0.9440   -2.9368    0.0000 S   0  0  0  0  0  0  0  0  0  0  0  0
   -0.6084   -3.6905    0.0000 O   0  0  0  0  0  0  0  0  0  0  0  0
   -0.1903   -2.6012    0.0000 O   0  0  0  0  0  0  0  0  0  0  0  0
   -1.6977   -3.2724    0.0000 C   0  0  0  0  0  0  0  0  0  0  0  0
   -0.3821    0.5789    0.0000 C   0  0  0  0  0  0  0  0  0  0  0  0
   -1.0966    0.9914    0.0000 O   0  0  0  0  0  0  0  0  0  0  0  0
    0.3324    0.9914    0.0000 C   0  0  2  0  0  0  0  0  0  0  0  0
    0.3324    1.8164    0.0000 C   0  0  0  0  0  0  0  0  0  0  0  0
   -0.3821    2.2289    0.0000 C   0  0  0  0  0  0  0  0  0  0  0  0
    1.0468    2.2289    0.0000 C   0  0  0  0  0  0  0  0  0  0  0  0
    1.0468    0.5789    0.0000 N   0  0  0  0  0  0  0  0  0  0  0  0
    1.7613    0.9914    0.0000 C   0  0  0  0  0  0  0  0  0  0  0  0
    1.7613    1.8164    0.0000 O   0  0  0  0  0  0  0  0  0  0  0  0
    2.4758    0.5789    0.0000 O   0  0  0  0  0  0  0  0  0  0  0  0
    3.1902    0.9914    0.0000 C   0  0  0  0  0  0  0  0  0  0  0  0
    3.9047    1.4039    0.0000 C   0  0  0  0  0  0  0  0  0  0  0  0
    3.6027    0.2769    0.0000 C   0  0  0  0  0  0  0  0  0  0  0  0
    2.7777    1.7058    0.0000 C   0  0  0  0  0  0  0  0  0  0  0  0
   -2.3895   -0.2957    0.0000 H   0  0  0  0  0  0  0  0  0  0  0  0
   -1.1409   -0.1543    0.0000 H   0  0  0  0  0  0  0  0  0  0  0  0
   -1.3714   -1.4243    0.0000 H   0  0  0  0  0  0  0  0  0  0  0  0
   -0.2427    1.0928    0.0000 H   0  0  0  0  0  0  0  0  0  0  0  0
   -1.2388    1.0214    0.0000 H   0  0  0  0  0  0  0  0  0  0  0  0
   -2.2248   -2.0748    0.0000 H   0  0  0  0  0  0  0  0  0  0  0  0
   -3.2425   -1.7441    0.0000 H   0  0  0  0  0  0  0  0  0  0  0  0
   -3.4543    0.2734    0.0000 H   0  0  0  0  0  0  0  0  0  0  0  0
   -4.0271   -1.4891    0.0000 H   0  0  0  0  0  0  0  0  0  0  0  0
   -4.2495   -0.4425    0.0000 H   0  0  0  0  0  0  0  0  0  0  0  0
    1.3029   -0.4005    0.0000 H   0  0  0  0  0  0  0  0  0  0  0  0
    1.0419   -1.4877    0.0000 H   0  0  0  0  0  0  0  0  0  0  0  0
    0.6593   -2.3813    0.0000 H   0  0  0  0  0  0  0  0  0  0  0  0
   -0.4554   -2.4691    0.0000 H   0  0  0  0  0  0  0  0  0  0  0  0
   -2.2939   -2.0764    0.0000 H   0  0  0  0  0  0  0  0  0  0  0  0
   -2.5634   -2.6435    0.0000 H   0  0  0  0  0  0  0  0  0  0  0  0
   -1.8095   -4.3365    0.0000 H   0  0  0  0  0  0  0  0  0  0  0  0
   -2.6752   -3.7076    0.0000 H   0  0  0  0  0  0  0  0  0  0  0  0
    0.3324    2.8864    0.0000 H   0  0  0  0  0  0  0  0  0  0  0  0
   -0.3821    3.2989    0.0000 H   0  0  0  0  0  0  0  0  0  0  0  0
   -1.3087    1.6939    0.0000 H   0  0  0  0  0  0  0  0  0  0  0  0
   -1.3088    2.7639    0.0000 H   0  0  0  0  0  0  0  0  0  0  0  0
    1.9735    1.6939    0.0000 H   0  0  0  0  0  0  0  0  0  0  0  0
    1.0468    3.2989    0.0000 H   0  0  0  0  0  0  0  0  0  0  0  0
    1.9734    2.7639    0.0000 H   0  0  0  0  0  0  0  0  0  0  0  0
    1.0468   -0.4056    0.0000 H   0  0  0  0  0  0  0  0  0  0  0  0
    4.8313    0.8689    0.0000 H   0  0  0  0  0  0  0  0  0  0  0  0
    3.9047    2.4739    0.0000 H   0  0  0  0  0  0  0  0  0  0  0  0
    4.8314    1.9389    0.0000 H   0  0  0  0  0  0  0  0  0  0  0  0
    3.0677   -0.6497    0.0000 H   0  0  0  0  0  0  0  0  0  0  0  0
    4.6727    0.2769    0.0000 H   0  0  0  0  0  0  0  0  0  0  0  0
    4.1377   -0.6498    0.0000 H   0  0  0  0  0  0  0  0  0  0  0  0
    3.3127    2.6325    0.0000 H   0  0  0  0  0  0  0  0  0  0  0  0
    1.7077    1.7058    0.0000 H   0  0  0  0  0  0  0  0  0  0  0  0
    2.2427    2.6324    0.0000 H   0  0  0  0  0  0  0  0  0  0  0  0
  1  2  2  0  0  0  0
  2  3  1  0  0  0  0
  2 34  1  0  0  0  0
  3  4  1  0  0  0  0
  3 30  1  1  0  0  0
  4  5  1  0  0  0  0
  4 35  1  0  0  0  0
  4 36  1  0  0  0  0
  5 37  1  0  0  0  0
  5 38  1  0  0  0  0
  5 39  1  0  0  0  0
  6  3  1  0  0  0  0
  6  7  1  0  0  0  0
  6 10  1  0  0  0  0
  6 31  1  6  0  0  0
  7  8  1  0  0  0  0
  7 16  1  0  0  0  0
  8  9  1  0  0  0  0
  8 40  1  0  0  0  0
  8 41  1  0  0  0  0
  9 10  1  0  0  0  0
  9 42  1  0  0  0  0
  9 43  1  0  0  0  0
 10 11  1  0  0  0  0
 10 32  1  1  0  0  0
 11 12  1  0  0  0  0
 11 44  1  0  0  0  0
 12 13  2  0  0  0  0
 12 14  2  0  0  0  0
 12 15  1  0  0  0  0
 15 45  1  0  0  0  0
 15 46  1  0  0  0  0
 15 47  1  0  0  0  0
 16 17  2  0  0  0  0
 16 18  1  0  0  0  0
 18 19  1  0  0  0  0
 18 22  1  0  0  0  0
 18 33  1  1  0  0  0
 19 20  1  0  0  0  0
 19 21  1  0  0  0  0
 19 48  1  0  0  0  0
 20 49  1  0  0  0  0
 20 50  1  0  0  0  0
 20 51  1  0  0  0  0
 21 52  1  0  0  0  0
 21 53  1  0  0  0  0
 21 54  1  0  0  0  0
 22 23  1  0  0  0  0
 22 55  1  0  0  0  0
 23 24  2  0  0  0  0
 23 25  1  0  0  0  0
 25 26  1  0  0  0  0
 26 27  1  0  0  0  0
 26 28  1  0  0  0  0
 26 29  1  0  0  0  0
 27 56  1  0  0  0  0
 27 57  1  0  0  0  0
 27 58  1  0  0  0  0
 28 59  1  0  0  0  0
 28 60  1  0  0  0  0
 28 61  1  0  0  0  0
 29 62  1  0  0  0  0
 29 63  1  0  0  0  0
 29 64  1  0  0  0  0
M  END
>  <DRUGBANK_ID>
DB08644

>  <COMMON_NAME>
{1-[2-(1-FORMYL-PROPYL)-3-METHANESULFONYLAMINO-PYRROLIDINE-1-CARBONYL]-2-METHYL-PROPYL}-CARBAMIC ACID TERT-BUTYL ESTER

$$$$
