BDE
 OpenBabel10282417072D

 30 31  0  0  0  0  0  0  0  0999 V2000
    1.6143    0.1686    0.0000 C   0  0  0  0  0  0  0  0  0  0  0  0
    2.3287   -0.2439    0.0000 C   0  0  0  0  0  0  0  0  0  0  0  0
    2.3287   -1.0689    0.0000 C   0  0  0  0  0  0  0  0  0  0  0  0
    1.6143   -1.4814    0.0000 N   0  0  0  0  0  0  0  0  0  0  0  0
    0.8998   -1.0689    0.0000 C   0  0  0  0  0  0  0  0  0  0  0  0
    0.8998   -0.2439    0.0000 C   0  0  0  0  0  0  0  0  0  0  0  0
    0.1853    0.1686    0.0000 C   0  0  0  0  0  0  0  0  0  0  0  0
    0.1853    0.9936    0.0000 O   0  0  0  0  0  0  0  0  0  0  0  0
   -0.5291   -0.2439    0.0000 N   0  0  0  0  0  0  0  0  0  0  0  0
   -1.2436    0.1686    0.0000 N   0  0  0  0  0  0  0  0  0  0  0  0
   -1.9581   -0.2439    0.0000 C   0  0  0  0  0  0  0  0  0  0  0  0
   -2.6726    0.1686    0.0000 C   0  0  0  0  0  0  0  0  0  0  0  0
   -3.3870   -0.2439    0.0000 C   0  0  0  0  0  0  0  0  0  0  0  0
   -4.1015    0.1686    0.0000 C   0  0  0  0  0  0  0  0  0  0  0  0
   -4.8160   -0.2439    0.0000 Br  0  0  0  0  0  0  0  0  0  0  0  0
   -4.1015    0.9936    0.0000 C   0  0  0  0  0  0  0  0  0  0  0  0
   -4.8160    1.4061    0.0000 O   0  0  0  0  0  0  0  0  0  0  0  0
   -3.3870    1.4061    0.0000 C   0  0  0  0  0  0  0  0  0  0  0  0
   -3.3870    2.2311    0.0000 Br  0  0  0  0  0  0  0  0  0  0  0  0
   -2.6726    0.9936    0.0000 C   0  0  0  0  0  0  0  0  0  0  0  0
   -1.9581    1.4061    0.0000 O   0  0  0  0  0  0  0  0  0  0  0  0
    1.6143    1.2006    0.0000 H   0  0  0  0  0  0  0  0  0  0  0  0
    3.2224    0.2721    0.0000 H   0  0  0  0  0  0  0  0  0  0  0  0
    3.2224   -1.5849    0.0000 H   0  0  0  0  0  0  0  0  0  0  0  0
    0.0061   -1.5849    0.0000 H   0  0  0  0  0  0  0  0  0  0  0  0
   -0.5291   -1.2284    0.0000 H   0  0  0  0  0  0  0  0  0  0  0  0
   -1.9581   -1.2759    0.0000 H   0  0  0  0  0  0  0  0  0  0  0  0
   -3.3870   -1.2759    0.0000 H   0  0  0  0  0  0  0  0  0  0  0  0
   -4.8160    2.3431    0.0000 H   0  0  0  0  0  0  0  0  0  0  0  0
   -1.1466    0.9376    0.0000 H   0  0  0  0  0  0  0  0  0  0  0  0
  1  2  2  0  0  0  0
  1  6  1  0  0  0  0
  1 22  1  0  0  0  0
  2  3  1  0  0  0  0
  2 23  1  0  0  0  0
  3  4  2  0  0  0  0
  3 24  1  0  0  0  0
  4  5  1  0  0  0  0
  5  6  2  0  0  0  0
  5 25  1  0  0  0  0
  6  7  1  0  0  0  0
  7  8  2  0  0  0  0
  7  9  1  0  0  0  0
  9 10  1  0  0  0  0
  9 26  1  0  0  0  0
 10 11  2  0  0  0  0
 11 12  1  0  0  0  0
 11 27  1  0  0  0  0
 12 13  2  0  0  0  0
 12 20  1  0  0  0  0
 13 14  1  0  0  0  0
 13 28  1  0  0  0  0
 14 15  1  0  0  0  0
 14 16  2  0  0  0  0
 16 17  1  0  0  0  0
 16 18  1  0  0  0  0
 17 29  1  0  0  0  0
 18 19  1  0  0  0  0
 18 20  2  0  0  0  0
 20 21  1  0  0  0  0
 21 30  1  0  0  0  0
M  END
>  <DRUGBANK_ID>
DB07445

>  <COMMON_NAME>
N'-[(1E)-(3,5-DIBROMO-2,4-DIHYDROXYPHENYL)METHYLENE]NICOTINOHYDRAZIDE

$$$$
