34Q
 OpenBabel10282417072D

 46 49  0  0  0  0  0  0  0  0999 V2000
    0.4459    0.6856    0.0000 N   0  0  0  0  0  0  0  0  0  0  0  0
   -1.6803    0.4943    0.0000 N   0  0  0  0  0  0  0  0  0  0  0  0
   -0.7828   -1.0600    0.0000 C   0  0  0  0  0  0  0  0  0  0  0  0
   -2.0158   -1.8608    0.0000 C   0  0  0  0  0  0  0  0  0  0  0  0
   -2.8228   -1.6892    0.0000 C   0  0  0  0  0  0  0  0  0  0  0  0
   -2.1554   -0.5332    0.0000 C   0  0  0  0  0  0  0  0  0  0  0  0
   -2.9090   -0.8687    0.0000 C   0  0  0  0  0  0  0  0  0  0  0  0
    1.1604    1.0981    0.0000 C   0  0  0  0  0  0  0  0  0  0  0  0
    3.3038   -0.1394    0.0000 C   0  0  0  0  0  0  0  0  0  0  0  0
    4.0183    1.0981    0.0000 C   0  0  0  0  0  0  0  0  0  0  0  0
    1.8749    0.6856    0.0000 C   0  0  0  0  0  0  0  0  0  0  0  0
    1.1604    1.9231    0.0000 O   0  0  0  0  0  0  0  0  0  0  0  0
    1.8749   -0.1394    0.0000 C   0  0  0  0  0  0  0  0  0  0  0  0
    2.5893   -0.5519    0.0000 N   0  0  0  0  0  0  0  0  0  0  0  0
    3.3038    0.6856    0.0000 C   0  0  0  0  0  0  0  0  0  0  0  0
    2.5893    1.0981    0.0000 N   0  0  0  0  0  0  0  0  0  0  0  0
    4.7327    0.6856    0.0000 C   0  0  0  0  0  0  0  0  0  0  0  0
    4.0183   -0.5519    0.0000 C   0  0  0  0  0  0  0  0  0  0  0  0
    4.7327   -0.1394    0.0000 C   0  0  0  0  0  0  0  0  0  0  0  0
    0.3597   -0.1348    0.0000 C   0  0  0  0  0  0  0  0  0  0  0  0
   -0.4473   -0.3064    0.0000 C   0  0  2  0  0  0  0  0  0  0  0  0
   -0.8598    0.4081    0.0000 C   0  0  2  0  0  0  0  0  0  0  0  0
   -0.3078    1.0212    0.0000 C   0  0  0  0  0  0  0  0  0  0  0  0
   -0.2979   -1.7275    0.0000 O   0  0  0  0  0  0  0  0  0  0  0  0
   -1.6033   -1.1463    0.0000 N   0  0  0  0  0  0  0  0  0  0  0  0
   -0.0798   -0.7602    0.0000 H   0  0  0  0  0  0  0  0  0  0  0  0
   -1.1778   -0.0816    0.0000 H   0  0  0  0  0  0  0  0  0  0  0  0
   -2.0952    1.4261    0.0000 H   0  0  0  0  0  0  0  0  0  0  0  0
   -2.2798   -0.3309    0.0000 H   0  0  0  0  0  0  0  0  0  0  0  0
   -1.5806   -2.8383    0.0000 H   0  0  0  0  0  0  0  0  0  0  0  0
   -0.9473   -1.9168    0.0000 H   0  0  0  0  0  0  0  0  0  0  0  0
   -3.6180   -2.4051    0.0000 H   0  0  0  0  0  0  0  0  0  0  0  0
   -3.8217   -1.3057    0.0000 H   0  0  0  0  0  0  0  0  0  0  0  0
   -1.9329    0.5134    0.0000 H   0  0  0  0  0  0  0  0  0  0  0  0
   -1.1219   -0.2562    0.0000 H   0  0  0  0  0  0  0  0  0  0  0  0
   -3.8356   -0.3337    0.0000 H   0  0  0  0  0  0  0  0  0  0  0  0
   -2.8530    0.1998    0.0000 H   0  0  0  0  0  0  0  0  0  0  0  0
    4.0183    2.1301    0.0000 H   0  0  0  0  0  0  0  0  0  0  0  0
    0.9812   -0.6554    0.0000 H   0  0  0  0  0  0  0  0  0  0  0  0
    5.6264    1.2016    0.0000 H   0  0  0  0  0  0  0  0  0  0  0  0
    4.0183   -1.5839    0.0000 H   0  0  0  0  0  0  0  0  0  0  0  0
    5.6264   -0.6554    0.0000 H   0  0  0  0  0  0  0  0  0  0  0  0
    1.1549   -0.8507    0.0000 H   0  0  0  0  0  0  0  0  0  0  0  0
    0.0828   -1.1684    0.0000 H   0  0  0  0  0  0  0  0  0  0  0  0
   -0.5303    2.0678    0.0000 H   0  0  0  0  0  0  0  0  0  0  0  0
   -1.3413    1.2981    0.0000 H   0  0  0  0  0  0  0  0  0  0  0  0
  1  8  1  0  0  0  0
  1 20  1  0  0  0  0
  1 23  1  0  0  0  0
  2 28  1  0  0  0  0
  2 29  1  0  0  0  0
  3 24  2  0  0  0  0
  3 25  1  0  0  0  0
  4  5  1  0  0  0  0
  4 25  1  0  0  0  0
  4 30  1  0  0  0  0
  4 31  1  0  0  0  0
  5  7  1  0  0  0  0
  5 32  1  0  0  0  0
  5 33  1  0  0  0  0
  6  7  1  0  0  0  0
  6 25  1  0  0  0  0
  6 34  1  0  0  0  0
  6 35  1  0  0  0  0
  7 36  1  0  0  0  0
  7 37  1  0  0  0  0
  8 11  1  0  0  0  0
  8 12  2  0  0  0  0
  9 14  2  0  0  0  0
  9 15  1  0  0  0  0
  9 18  1  0  0  0  0
 10 15  1  0  0  0  0
 10 17  2  0  0  0  0
 10 38  1  0  0  0  0
 11 13  2  0  0  0  0
 11 16  1  0  0  0  0
 13 14  1  0  0  0  0
 13 39  1  0  0  0  0
 15 16  2  0  0  0  0
 17 19  1  0  0  0  0
 17 40  1  0  0  0  0
 18 19  2  0  0  0  0
 18 41  1  0  0  0  0
 19 42  1  0  0  0  0
 20 21  1  0  0  0  0
 20 43  1  0  0  0  0
 20 44  1  0  0  0  0
 21  3  1  0  0  0  0
 21 22  1  0  0  0  0
 21 26  1  6  0  0  0
 22  2  1  0  0  0  0
 22 23  1  0  0  0  0
 22 27  1  6  0  0  0
 23 45  1  0  0  0  0
 23 46  1  0  0  0  0
M  END
>  <DRUGBANK_ID>
DB07015

>  <COMMON_NAME>
(3R,4R)-4-(pyrrolidin-1-ylcarbonyl)-1-(quinoxalin-2-ylcarbonyl)pyrrolidin-3-amine

$$$$
