
 OpenBabel10282417072D

  5  4  0  0  0  0  0  0  0  0999 V2000
   -0.8250    0.0000    0.0000 O   0  5  0  0  0  0  0  0  0  0  0  0
    0.0000    0.0000    0.0000 Mo  0  0  0  0  0  0  0  0  0  0  0  0
   -0.0029    0.8250    0.0000 O   0  0  0  0  0  0  0  0  0  0  0  0
   -0.0029   -0.8250    0.0000 O   0  0  0  0  0  0  0  0  0  0  0  0
    0.8250    0.0000    0.0000 O   0  5  0  0  0  0  0  0  0  0  0  0
  1  2  1  0  0  0  0
  2  4  2  0  0  0  0
  2  5  1  0  0  0  0
  2  3  2  0  0  0  0
M  ISO  1   2  99
M  CHG  2   1  -1   5  -1
M  END
>  <DRUGBANK_ID>
DB16587

>  <COMMON_NAME>
Molybdate Mo-99

>  <CAS_NUMBER>
72826-31-4

>  <UNII>
7608GL58YX

>  <SYNONYMS>
Molybdate ion Mo 99; Molybdate ion Mo-99; Molybdate Mo 99; Molybdate Mo-99

$$$$
