
 OpenBabel10282417072D

104109  0  0  1  0  0  0  0  0999 V2000
    0.9545    2.4613    0.0000 S   0  0  0  0  0  0  0  0  0  0  0  0
    0.3030    1.9457    0.0000 C   0  0  0  0  0  0  0  0  0  0  0  0
    0.3030    1.1207    0.0000 C   0  0  0  0  0  0  0  0  0  0  0  0
    0.9497    0.6052    0.0000 C   0  0  1  0  0  0  0  0  0  0  0  0
    0.9497   -0.2759    0.0000 C   0  0  0  0  0  0  0  0  0  0  0  0
    0.2467   -0.6696    0.0000 C   0  0  0  0  0  0  0  0  0  0  0  0
    0.2467   -1.4946    0.0000 C   0  0  0  0  0  0  0  0  0  0  0  0
    0.9497   -1.9164    0.0000 C   0  0  0  0  0  0  0  0  0  0  0  0
    0.9497   -2.7975    0.0000 O   0  0  0  0  0  0  0  0  0  0  0  0
    0.1906   -3.2382    0.0000 C   0  0  0  0  0  0  0  0  0  0  0  0
   -0.5781   -2.7975    0.0000 C   0  0  0  0  0  0  0  0  0  0  0  0
   -0.5781   -1.9679    0.0000 C   0  0  0  0  0  0  0  0  0  0  0  0
   -1.2671   -1.5742    0.0000 C   0  0  0  0  0  0  0  0  0  0  0  0
   -1.9233   -2.0148    0.0000 C   0  0  0  0  0  0  0  0  0  0  0  0
   -2.6217   -1.6117    0.0000 C   0  0  0  0  0  0  0  0  0  0  0  0
   -3.3361   -2.0242    0.0000 N   0  3  3  0  0  0  0  0  0  0  0  0
   -3.3361   -2.8492    0.0000 C   0  0  0  0  0  0  0  0  0  0  0  0
   -4.0505   -3.2618    0.0000 C   0  0  0  0  0  0  0  0  0  0  0  0
   -4.7650   -2.8494    0.0000 N   0  0  3  0  0  0  0  0  0  0  0  0
   -4.7651   -2.0244    0.0000 C   0  0  0  0  0  0  0  0  0  0  0  0
   -4.0506   -1.6118    0.0000 C   0  0  0  0  0  0  0  0  0  0  0  0
   -4.2455   -2.3619    0.0000 C   0  0  0  0  0  0  0  0  0  0  0  0
   -3.6672   -2.4439    0.0000 C   0  0  0  0  0  0  0  0  0  0  0  0
   -1.9233   -2.8304    0.0000 C   0  0  0  0  0  0  0  0  0  0  0  0
   -1.2343   -3.2241    0.0000 C   0  0  0  0  0  0  0  0  0  0  0  0
    1.6529   -1.5133    0.0000 C   0  0  0  0  0  0  0  0  0  0  0  0
    1.6529   -0.6978    0.0000 C   0  0  0  0  0  0  0  0  0  0  0  0
    1.7607    0.7880    0.0000 C   0  0  2  0  0  0  0  0  0  0  0  0
    2.1216    1.5332    0.0000 C   0  0  0  0  0  0  0  0  0  0  0  0
    1.7607    2.2832    0.0000 C   0  0  0  0  0  0  0  0  0  0  0  0
    2.5621    2.3020    0.0000 C   0  0  0  0  0  0  0  0  0  0  0  0
    3.4433    2.3020    0.0000 C   0  0  0  0  0  0  0  0  0  0  0  0
    3.8838    3.0565    0.0000 C   0  0  0  0  0  0  0  0  0  0  0  0
    4.7651    3.0565    0.0000 C   0  0  0  0  0  0  0  0  0  0  0  0
    3.0027    1.5332    0.0000 C   0  0  0  0  0  0  0  0  0  0  0  0
    3.4433    0.7645    0.0000 C   0  0  0  0  0  0  0  0  0  0  0  0
    4.3244    0.7645    0.0000 C   0  0  0  0  0  0  0  0  0  0  0  0
    4.7651    0.0053    0.0000 C   0  0  0  0  0  0  0  0  0  0  0  0
    2.3418    0.2021    0.0000 O   0  0  0  0  0  0  0  0  0  0  0  0
   -0.4094    0.7083    0.0000 C   0  0  0  0  0  0  0  0  0  0  0  0
   -1.1219    1.1207    0.0000 C   0  0  0  0  0  0  0  0  0  0  0  0
   -1.8366    0.7086    0.0000 N   0  0  0  0  0  0  0  0  0  0  0  0
   -2.5508    1.1215    0.0000 C   0  0  0  0  0  0  0  0  0  0  0  0
   -1.8370   -0.1163    0.0000 C   0  0  0  0  0  0  0  0  0  0  0  0
   -1.1219    1.9457    0.0000 C   0  0  0  0  0  0  0  0  0  0  0  0
   -0.4000    2.3581    0.0000 C   0  0  0  0  0  0  0  0  0  0  0  0
    0.4255    3.0944    0.0000 O   0  0  0  0  0  0  0  0  0  0  0  0
    1.1538    3.2618    0.0000 O   0  0  0  0  0  0  0  0  0  0  0  0
   -0.0143    0.1408    0.0000 H   0  0  0  0  0  0  0  0  0  0  0  0
   -0.6436   -0.1478    0.0000 H   0  0  0  0  0  0  0  0  0  0  0  0
   -0.6513   -2.0031    0.0000 H   0  0  0  0  0  0  0  0  0  0  0  0
    0.1935   -4.3082    0.0000 H   0  0  0  0  0  0  0  0  0  0  0  0
   -0.7345   -3.7759    0.0000 H   0  0  0  0  0  0  0  0  0  0  0  0
    0.3145   -1.4499    0.0000 H   0  0  0  0  0  0  0  0  0  0  0  0
   -1.3043   -0.5429    0.0000 H   0  0  0  0  0  0  0  0  0  0  0  0
   -2.6218   -0.5417    0.0000 H   0  0  0  0  0  0  0  0  0  0  0  0
   -3.5484   -1.0768    0.0000 H   0  0  0  0  0  0  0  0  0  0  0  0
   -2.4094   -3.3841    0.0000 H   0  0  0  0  0  0  0  0  0  0  0  0
   -3.3360   -3.9192    0.0000 H   0  0  0  0  0  0  0  0  0  0  0  0
   -4.0504   -4.3318    0.0000 H   0  0  0  0  0  0  0  0  0  0  0  0
   -4.9771   -3.7969    0.0000 H   0  0  0  0  0  0  0  0  0  0  0  0
   -5.6918   -1.4895    0.0000 H   0  0  0  0  0  0  0  0  0  0  0  0
   -4.7652   -0.9544    0.0000 H   0  0  0  0  0  0  0  0  0  0  0  0
   -4.0507   -0.5418    0.0000 H   0  0  0  0  0  0  0  0  0  0  0  0
   -3.1240   -1.0767    0.0000 H   0  0  0  0  0  0  0  0  0  0  0  0
   -4.5682   -1.3417    0.0000 H   0  0  0  0  0  0  0  0  0  0  0  0
   -3.5540   -1.5453    0.0000 H   0  0  0  0  0  0  0  0  0  0  0  0
   -3.2693   -3.4372    0.0000 H   0  0  0  0  0  0  0  0  0  0  0  0
   -2.6082   -2.5969    0.0000 H   0  0  0  0  0  0  0  0  0  0  0  0
   -2.8159   -3.3484    0.0000 H   0  0  0  0  0  0  0  0  0  0  0  0
   -1.2047   -4.2557    0.0000 H   0  0  0  0  0  0  0  0  0  0  0  0
    2.5458   -2.0307    0.0000 H   0  0  0  0  0  0  0  0  0  0  0  0
    2.5509   -0.1893    0.0000 H   0  0  0  0  0  0  0  0  0  0  0  0
    1.4610   -0.2392    0.0000 H   0  0  0  0  0  0  0  0  0  0  0  0
    2.4250    3.1220    0.0000 H   0  0  0  0  0  0  0  0  0  0  0  0
    1.4021    3.2913    0.0000 H   0  0  0  0  0  0  0  0  0  0  0  0
    2.0256    3.2278    0.0000 H   0  0  0  0  0  0  0  0  0  0  0  0
    3.0963    3.2291    0.0000 H   0  0  0  0  0  0  0  0  0  0  0  0
    3.9761    1.3741    0.0000 H   0  0  0  0  0  0  0  0  0  0  0  0
    4.5133    2.2981    0.0000 H   0  0  0  0  0  0  0  0  0  0  0  0
    3.3510    3.9844    0.0000 H   0  0  0  0  0  0  0  0  0  0  0  0
    4.4199    3.9825    0.0000 H   0  0  0  0  0  0  0  0  0  0  0  0
    5.3001    2.1299    0.0000 H   0  0  0  0  0  0  0  0  0  0  0  0
    5.3001    3.9831    0.0000 H   0  0  0  0  0  0  0  0  0  0  0  0
    5.8351    3.0565    0.0000 H   0  0  0  0  0  0  0  0  0  0  0  0
    3.5392    2.4590    0.0000 H   0  0  0  0  0  0  0  0  0  0  0  0
    4.0727    1.5307    0.0000 H   0  0  0  0  0  0  0  0  0  0  0  0
    2.9068   -0.1613    0.0000 H   0  0  0  0  0  0  0  0  0  0  0  0
    3.9776   -0.1626    0.0000 H   0  0  0  0  0  0  0  0  0  0  0  0
    4.8583    1.6918    0.0000 H   0  0  0  0  0  0  0  0  0  0  0  0
    5.3944    0.7664    0.0000 H   0  0  0  0  0  0  0  0  0  0  0  0
    4.2323   -0.9226    0.0000 H   0  0  0  0  0  0  0  0  0  0  0  0
    5.8351    0.0078    0.0000 H   0  0  0  0  0  0  0  0  0  0  0  0
    5.3023   -0.9201    0.0000 H   0  0  0  0  0  0  0  0  0  0  0  0
    2.0869   -0.7338    0.0000 H   0  0  0  0  0  0  0  0  0  0  0  0
   -0.4094   -0.3237    0.0000 H   0  0  0  0  0  0  0  0  0  0  0  0
   -2.5502    2.1915    0.0000 H   0  0  0  0  0  0  0  0  0  0  0  0
   -3.4778    0.5870    0.0000 H   0  0  0  0  0  0  0  0  0  0  0  0
   -3.4771    1.6570    0.0000 H   0  0  0  0  0  0  0  0  0  0  0  0
   -2.7639   -0.6509    0.0000 H   0  0  0  0  0  0  0  0  0  0  0  0
   -0.9106   -0.6517    0.0000 H   0  0  0  0  0  0  0  0  0  0  0  0
   -1.8375   -1.1863    0.0000 H   0  0  0  0  0  0  0  0  0  0  0  0
   -2.0145    2.4637    0.0000 H   0  0  0  0  0  0  0  0  0  0  0  0
   -0.3941    3.3901    0.0000 H   0  0  0  0  0  0  0  0  0  0  0  0
  2  1  1  0  0  0  0
  3  2  1  0  0  0  0
  4  3  1  0  0  0  0
  4  5  1  0  0  0  0
  4 49  1  1  0  0  0
  6  5  1  0  0  0  0
  6 50  1  0  0  0  0
  7  6  2  0  0  0  0
  7 51  1  0  0  0  0
  8  7  1  0  0  0  0
  9  8  1  0  0  0  0
 10  9  1  0  0  0  0
 10 52  1  0  0  0  0
 10 53  1  0  0  0  0
 11 10  1  0  0  0  0
 12 11  1  0  0  0  0
 12 54  1  0  0  0  0
 13 12  2  0  0  0  0
 13 14  1  0  0  0  0
 13 55  1  0  0  0  0
 14 24  2  0  0  0  0
 15 14  1  0  0  0  0
 15 56  1  0  0  0  0
 15 57  1  0  0  0  0
 16 15  1  0  0  0  0
 17 16  1  0  0  0  0
 17 58  1  0  0  0  0
 17 59  1  0  0  0  0
 18 17  1  0  0  0  0
 18 60  1  0  0  0  0
 18 61  1  0  0  0  0
 19 18  1  0  0  0  0
 20 19  1  0  0  0  0
 20 21  1  0  0  0  0
 20 62  1  0  0  0  0
 20 63  1  0  0  0  0
 21 16  1  0  0  0  0
 21 64  1  0  0  0  0
 21 65  1  0  0  0  0
 22 19  1  0  0  0  0
 22 23  1  0  0  0  0
 22 66  1  0  0  0  0
 22 67  1  0  0  0  0
 23 16  1  0  0  0  0
 23 68  1  0  0  0  0
 23 69  1  0  0  0  0
 24 25  1  0  0  0  0
 24 70  1  0  0  0  0
 25 11  2  0  0  0  0
 25 71  1  0  0  0  0
 26  8  2  0  0  0  0
 26 27  1  0  0  0  0
 26 72  1  0  0  0  0
 27  5  2  0  0  0  0
 27 73  1  0  0  0  0
 28  4  1  0  0  0  0
 28 29  1  0  0  0  0
 28 39  1  0  0  0  0
 28 74  1  1  0  0  0
 29 30  1  0  0  0  0
 30  1  1  0  0  0  0
 30 75  1  0  0  0  0
 30 76  1  0  0  0  0
 31 29  1  0  0  0  0
 31 77  1  0  0  0  0
 31 78  1  0  0  0  0
 32 31  1  0  0  0  0
 32 79  1  0  0  0  0
 32 80  1  0  0  0  0
 33 32  1  0  0  0  0
 33 81  1  0  0  0  0
 33 82  1  0  0  0  0
 34 33  1  0  0  0  0
 34 83  1  0  0  0  0
 34 84  1  0  0  0  0
 34 85  1  0  0  0  0
 35 29  1  0  0  0  0
 35 86  1  0  0  0  0
 35 87  1  0  0  0  0
 36 35  1  0  0  0  0
 36 88  1  0  0  0  0
 36 89  1  0  0  0  0
 37 36  1  0  0  0  0
 37 90  1  0  0  0  0
 37 91  1  0  0  0  0
 38 37  1  0  0  0  0
 38 92  1  0  0  0  0
 38 93  1  0  0  0  0
 38 94  1  0  0  0  0
 39 95  1  0  0  0  0
 40  3  2  0  0  0  0
 40 96  1  0  0  0  0
 41 40  1  0  0  0  0
 42 41  1  0  0  0  0
 43 42  1  0  0  0  0
 43 97  1  0  0  0  0
 43 98  1  0  0  0  0
 43 99  1  0  0  0  0
 44 42  1  0  0  0  0
 44100  1  0  0  0  0
 44101  1  0  0  0  0
 44102  1  0  0  0  0
 45 41  2  0  0  0  0
 45 46  1  0  0  0  0
 45103  1  0  0  0  0
 46  2  2  0  0  0  0
 46104  1  0  0  0  0
 47  1  2  0  0  0  0
 48  1  2  0  0  0  0
M  CHG  1  16   1
M  END
>  <DRUGBANK_ID>
DB16226

>  <COMMON_NAME>
Maralixibat

>  <CAS_NUMBER>
716313-53-0

>  <UNII>
UYB6UOF69L

>  <SYNONYMS>
Lopixibat; Lopixibat cation; Maralixibat; Maralixibat cation

$$$$
