
 OpenBabel10282417072D

157160  0  0  0  0  0  0  0  0999 V2000
    5.0012    2.0625    0.0000 C   0  0  0  0  0  0  0  0  0  0  0  0
    4.2868    1.6500    0.0000 N   0  0  0  0  0  0  0  0  0  0  0  0
    4.2868    0.8249    0.0000 C   0  0  1  0  0  0  0  0  0  0  0  0
    5.0012    0.4124    0.0000 C   0  0  0  0  0  0  0  0  0  0  0  0
    5.7157    0.8249    0.0000 C   0  0  0  0  0  0  0  0  0  0  0  0
    5.7157    1.6500    0.0000 C   0  0  0  0  0  0  0  0  0  0  0  0
    3.5723    0.4124    0.0000 C   0  0  0  0  0  0  0  0  0  0  0  0
    3.5723   -0.4125    0.0000 O   0  0  0  0  0  0  0  0  0  0  0  0
    2.8578    0.8249    0.0000 O   0  0  0  0  0  0  0  0  0  0  0  0
    2.1434    0.4125    0.0000 C   0  0  1  0  0  0  0  0  0  0  0  0
    1.4289    0.8250    0.0000 C   0  0  0  0  0  0  0  0  0  0  0  0
    2.1434   -0.4124    0.0000 C   0  0  1  0  0  0  0  0  0  0  0  0
    0.7144    0.4125    0.0000 C   0  0  0  0  0  0  0  0  0  0  0  0
    0.0000    0.8250    0.0000 C   0  0  1  0  0  0  0  0  0  0  0  0
    0.7144   -0.4124    0.0000 O   0  0  0  0  0  0  0  0  0  0  0  0
   -0.7144    0.4125    0.0000 C   0  0  0  0  0  0  0  0  0  0  0  0
    0.0000    1.6500    0.0000 C   0  0  0  0  0  0  0  0  0  0  0  0
   -1.4289    0.8250    0.0000 C   0  0  0  0  0  0  0  0  0  0  0  0
   -2.1434    0.4125    0.0000 C   0  0  2  0  0  0  0  0  0  0  0  0
   -1.4289    1.6500    0.0000 C   0  0  0  0  0  0  0  0  0  0  0  0
   -2.8578    0.8250    0.0000 C   0  0  1  0  0  0  0  0  0  0  0  0
   -2.1434   -0.4124    0.0000 O   0  0  0  0  0  0  0  0  0  0  0  0
   -2.8578    1.6500    0.0000 O   0  0  0  0  0  0  0  0  0  0  0  0
    3.5723    2.0625    0.0000 C   0  0  0  0  0  0  0  0  0  0  0  0
    2.8578    1.6499    0.0000 O   0  0  0  0  0  0  0  0  0  0  0  0
    3.5723    2.8875    0.0000 C   0  0  0  0  0  0  0  0  0  0  0  0
    2.8578    3.2999    0.0000 C   0  0  1  0  0  0  0  0  0  0  0  0
    4.2868    3.3000    0.0000 O   0  0  0  0  0  0  0  0  0  0  0  0
    2.8578    4.1249    0.0000 C   0  0  1  0  0  0  0  0  0  0  0  0
    2.1433    4.5375    0.0000 C   0  0  0  0  0  0  0  0  0  0  0  0
    1.4288    4.1250    0.0000 C   0  0  0  0  0  0  0  0  0  0  0  0
    1.4289    3.3000    0.0000 C   0  0  2  0  0  0  0  0  0  0  0  0
    2.1433    2.8875    0.0000 O   0  0  0  0  0  0  0  0  0  0  0  0
    0.7144    2.8874    0.0000 C   0  0  0  0  0  0  0  0  0  0  0  0
    0.0000    3.2999    0.0000 C   0  0  1  0  0  0  0  0  0  0  0  0
   -0.7145    2.8874    0.0000 C   0  0  0  0  0  0  0  0  0  0  0  0
   -1.4289    3.2999    0.0000 C   0  0  0  0  0  0  0  0  0  0  0  0
   -0.7145    2.0624    0.0000 C   0  0  0  0  0  0  0  0  0  0  0  0
   -2.1434    2.8874    0.0000 C   0  0  0  0  0  0  0  0  0  0  0  0
   -2.8579    3.2999    0.0000 C   0  0  0  0  0  0  0  0  0  0  0  0
   -3.5723    2.8874    0.0000 C   0  0  0  0  0  0  0  0  0  0  0  0
   -4.2868    3.2999    0.0000 C   0  0  0  0  0  0  0  0  0  0  0  0
   -5.0013    2.8874    0.0000 C   0  0  2  0  0  0  0  0  0  0  0  0
   -5.0013    2.0624    0.0000 C   0  0  0  0  0  0  0  0  0  0  0  0
   -4.2868    1.6499    0.0000 C   0  0  2  0  0  0  0  0  0  0  0  0
   -4.2868    0.8249    0.0000 C   0  0  0  0  0  0  0  0  0  0  0  0
   -5.0013    0.4124    0.0000 O   0  0  0  0  0  0  0  0  0  0  0  0
   -2.2745    2.2333    0.0000 C   0  0  0  0  0  0  0  0  0  0  0  0
   -3.5723    2.0624    0.0000 C   0  0  0  0  0  0  0  0  0  0  0  0
   -5.7157    3.2999    0.0000 C   0  0  0  0  0  0  0  0  0  0  0  0
    2.8578   -0.8249    0.0000 C   0  0  0  0  0  0  0  0  0  0  0  0
    2.8578   -1.6499    0.0000 C   0  0  2  0  0  0  0  0  0  0  0  0
    1.4289   -0.8249    0.0000 C   0  0  0  0  0  0  0  0  0  0  0  0
    2.1434   -2.0625    0.0000 C   0  0  0  0  0  0  0  0  0  0  0  0
    2.1434   -2.8875    0.0000 C   0  0  0  0  0  0  0  0  0  0  0  0
    2.8578   -3.3000    0.0000 C   0  0  2  0  0  0  0  0  0  0  0  0
    3.5723   -2.8875    0.0000 C   0  0  1  0  0  0  0  0  0  0  0  0
    3.5723   -2.0625    0.0000 C   0  0  0  0  0  0  0  0  0  0  0  0
    4.2868   -3.3000    0.0000 O   0  0  0  0  0  0  0  0  0  0  0  0
    5.0012   -2.8875    0.0000 C   0  0  0  0  0  0  0  0  0  0  0  0
    2.8578   -4.1250    0.0000 O   0  0  0  0  0  0  0  0  0  0  0  0
    2.1434   -4.5375    0.0000 C   0  0  0  0  0  0  0  0  0  0  0  0
    1.4289   -4.1250    0.0000 C   0  0  0  0  0  0  0  0  0  0  0  0
    0.7144   -4.5375    0.0000 O   0  0  0  0  0  0  0  0  0  0  0  0
    0.0000   -4.1250    0.0000 C   0  0  0  0  0  0  0  0  0  0  0  0
   -0.7144   -4.5375    0.0000 C   0  0  0  0  0  0  0  0  0  0  0  0
    3.5723    4.5375    0.0000 C   0  0  0  0  0  0  0  0  0  0  0  0
    2.8578    2.4749    0.0000 O   0  0  0  0  0  0  0  0  0  0  0  0
    0.0000    4.1249    0.0000 O   0  0  0  0  0  0  0  0  0  0  0  0
   -0.7145    4.5374    0.0000 C   0  0  0  0  0  0  0  0  0  0  0  0
    0.5628    3.7999    0.0000 H   0  0  0  0  0  0  0  0  0  0  0  0
    2.1434    1.4125    0.0000 H   0  0  0  0  0  0  0  0  0  0  0  0
    4.2868   -0.1750    0.0000 H   0  0  0  0  0  0  0  0  0  0  0  0
    5.0012    3.1325    0.0000 H   0  0  0  0  0  0  0  0  0  0  0  0
    5.9278    2.5975    0.0000 H   0  0  0  0  0  0  0  0  0  0  0  0
    5.0012   -0.6576    0.0000 H   0  0  0  0  0  0  0  0  0  0  0  0
    5.9278   -0.1226    0.0000 H   0  0  0  0  0  0  0  0  0  0  0  0
    6.6423    0.2899    0.0000 H   0  0  0  0  0  0  0  0  0  0  0  0
    6.6423    1.3599    0.0000 H   0  0  0  0  0  0  0  0  0  0  0  0
    6.6423    2.1850    0.0000 H   0  0  0  0  0  0  0  0  0  0  0  0
    6.6423    1.1150    0.0000 H   0  0  0  0  0  0  0  0  0  0  0  0
    1.4289    1.8950    0.0000 H   0  0  0  0  0  0  0  0  0  0  0  0
    0.5023    1.3600    0.0000 H   0  0  0  0  0  0  0  0  0  0  0  0
    1.2168    0.1226    0.0000 H   0  0  0  0  0  0  0  0  0  0  0  0
    0.9267    1.3600    0.0000 H   0  0  0  0  0  0  0  0  0  0  0  0
   -0.7144   -0.6195    0.0000 H   0  0  0  0  0  0  0  0  0  0  0  0
    0.9266    2.1850    0.0000 H   0  0  0  0  0  0  0  0  0  0  0  0
   -0.9266    2.1850    0.0000 H   0  0  0  0  0  0  0  0  0  0  0  0
   -0.0000    2.7200    0.0000 H   0  0  0  0  0  0  0  0  0  0  0  0
   -1.2168   -0.1225    0.0000 H   0  0  0  0  0  0  0  0  0  0  0  0
   -0.5023    2.1850    0.0000 H   0  0  0  0  0  0  0  0  0  0  0  0
   -2.3555    2.1850    0.0000 H   0  0  0  0  0  0  0  0  0  0  0  0
   -1.4289    2.7200    0.0000 H   0  0  0  0  0  0  0  0  0  0  0  0
   -1.9311    1.3600    0.0000 H   0  0  0  0  0  0  0  0  0  0  0  0
   -2.9834   -0.8974    0.0000 H   0  0  0  0  0  0  0  0  0  0  0  0
    3.7845    3.5899    0.0000 H   0  0  0  0  0  0  0  0  0  0  0  0
    2.1434    5.6075    0.0000 H   0  0  0  0  0  0  0  0  0  0  0  0
    1.2167    5.0725    0.0000 H   0  0  0  0  0  0  0  0  0  0  0  0
    0.5021    4.6600    0.0000 H   0  0  0  0  0  0  0  0  0  0  0  0
    0.5022    3.5899    0.0000 H   0  0  0  0  0  0  0  0  0  0  0  0
    0.7144    1.8174    0.0000 H   0  0  0  0  0  0  0  0  0  0  0  0
   -0.2123    2.3524    0.0000 H   0  0  0  0  0  0  0  0  0  0  0  0
    0.9267    3.8349    0.0000 H   0  0  0  0  0  0  0  0  0  0  0  0
   -1.4289    4.3319    0.0000 H   0  0  0  0  0  0  0  0  0  0  0  0
   -1.6411    1.5274    0.0000 H   0  0  0  0  0  0  0  0  0  0  0  0
    0.2121    1.5274    0.0000 H   0  0  0  0  0  0  0  0  0  0  0  0
   -0.7145    0.9924    0.0000 H   0  0  0  0  0  0  0  0  0  0  0  0
   -2.1434    1.8554    0.0000 H   0  0  0  0  0  0  0  0  0  0  0  0
   -2.8579    4.3319    0.0000 H   0  0  0  0  0  0  0  0  0  0  0  0
   -3.5723    1.8554    0.0000 H   0  0  0  0  0  0  0  0  0  0  0  0
   -4.2868    4.3319    0.0000 H   0  0  0  0  0  0  0  0  0  0  0  0
   -5.0013    3.9574    0.0000 H   0  0  0  0  0  0  0  0  0  0  0  0
   -5.9279    1.5274    0.0000 H   0  0  0  0  0  0  0  0  0  0  0  0
   -5.0013    0.9924    0.0000 H   0  0  0  0  0  0  0  0  0  0  0  0
   -4.2868    2.7199    0.0000 H   0  0  0  0  0  0  0  0  0  0  0  0
   -1.2410    1.9564    0.0000 H   0  0  0  0  0  0  0  0  0  0  0  0
   -2.5514    3.2668    0.0000 H   0  0  0  0  0  0  0  0  0  0  0  0
   -1.5179    2.9899    0.0000 H   0  0  0  0  0  0  0  0  0  0  0  0
   -2.6457    1.5274    0.0000 H   0  0  0  0  0  0  0  0  0  0  0  0
   -3.5723    3.1324    0.0000 H   0  0  0  0  0  0  0  0  0  0  0  0
   -2.6456    2.5974    0.0000 H   0  0  0  0  0  0  0  0  0  0  0  0
   -5.7157    4.3699    0.0000 H   0  0  0  0  0  0  0  0  0  0  0  0
   -6.6424    2.7649    0.0000 H   0  0  0  0  0  0  0  0  0  0  0  0
   -6.6423    3.8349    0.0000 H   0  0  0  0  0  0  0  0  0  0  0  0
    3.7845   -0.2899    0.0000 H   0  0  0  0  0  0  0  0  0  0  0  0
    3.7844   -1.3599    0.0000 H   0  0  0  0  0  0  0  0  0  0  0  0
    1.9311   -1.1150    0.0000 H   0  0  0  0  0  0  0  0  0  0  0  0
    0.5023   -0.2899    0.0000 H   0  0  0  0  0  0  0  0  0  0  0  0
    1.4289   -1.8949    0.0000 H   0  0  0  0  0  0  0  0  0  0  0  0
    0.5022   -1.3599    0.0000 H   0  0  0  0  0  0  0  0  0  0  0  0
    1.2167   -1.5276    0.0000 H   0  0  0  0  0  0  0  0  0  0  0  0
    1.2168   -2.5975    0.0000 H   0  0  0  0  0  0  0  0  0  0  0  0
    1.2167   -3.4225    0.0000 H   0  0  0  0  0  0  0  0  0  0  0  0
    2.1434   -3.9575    0.0000 H   0  0  0  0  0  0  0  0  0  0  0  0
    1.9311   -3.8350    0.0000 H   0  0  0  0  0  0  0  0  0  0  0  0
    3.5723   -3.9575    0.0000 H   0  0  0  0  0  0  0  0  0  0  0  0
    4.4990   -1.5275    0.0000 H   0  0  0  0  0  0  0  0  0  0  0  0
    4.4989   -2.5975    0.0000 H   0  0  0  0  0  0  0  0  0  0  0  0
    5.9279   -3.4225    0.0000 H   0  0  0  0  0  0  0  0  0  0  0  0
    5.0012   -1.8175    0.0000 H   0  0  0  0  0  0  0  0  0  0  0  0
    5.9278   -2.3525    0.0000 H   0  0  0  0  0  0  0  0  0  0  0  0
    2.1434   -5.6075    0.0000 H   0  0  0  0  0  0  0  0  0  0  0  0
    1.2168   -5.0725    0.0000 H   0  0  0  0  0  0  0  0  0  0  0  0
    1.4289   -3.0550    0.0000 H   0  0  0  0  0  0  0  0  0  0  0  0
    0.5023   -3.5900    0.0000 H   0  0  0  0  0  0  0  0  0  0  0  0
    0.0000   -3.0550    0.0000 H   0  0  0  0  0  0  0  0  0  0  0  0
   -0.9267   -3.5900    0.0000 H   0  0  0  0  0  0  0  0  0  0  0  0
   -1.6411   -4.0025    0.0000 H   0  0  0  0  0  0  0  0  0  0  0  0
   -0.7144   -5.6075    0.0000 H   0  0  0  0  0  0  0  0  0  0  0  0
   -1.6410   -5.0725    0.0000 H   0  0  0  0  0  0  0  0  0  0  0  0
    4.4990    4.0026    0.0000 H   0  0  0  0  0  0  0  0  0  0  0  0
    3.5722    5.6075    0.0000 H   0  0  0  0  0  0  0  0  0  0  0  0
    4.4989    5.0726    0.0000 H   0  0  0  0  0  0  0  0  0  0  0  0
    2.0178    1.9899    0.0000 H   0  0  0  0  0  0  0  0  0  0  0  0
   -0.7145    5.6074    0.0000 H   0  0  0  0  0  0  0  0  0  0  0  0
   -1.6411    4.0024    0.0000 H   0  0  0  0  0  0  0  0  0  0  0  0
   -1.6412    5.0724    0.0000 H   0  0  0  0  0  0  0  0  0  0  0  0
  1  2  1  0  0  0  0
  1 74  1  0  0  0  0
  1 75  1  0  0  0  0
  2  3  1  0  0  0  0
  2 24  1  0  0  0  0
  3  4  1  0  0  0  0
  3  7  1  0  0  0  0
  3 73  1  6  0  0  0
  4  5  1  0  0  0  0
  4 76  1  0  0  0  0
  4 77  1  0  0  0  0
  5  6  1  0  0  0  0
  5 78  1  0  0  0  0
  5 79  1  0  0  0  0
  6  1  1  0  0  0  0
  6 80  1  0  0  0  0
  6 81  1  0  0  0  0
  7  8  2  0  0  0  0
  7  9  1  0  0  0  0
  9 10  1  0  0  0  0
 10 11  1  0  0  0  0
 10 12  1  0  0  0  0
 10 72  1  1  0  0  0
 11 13  1  0  0  0  0
 11 82  1  0  0  0  0
 11 83  1  0  0  0  0
 12 51  1  0  0  0  0
 12 53  1  0  0  0  0
 12 84  1  6  0  0  0
 13 14  1  0  0  0  0
 13 15  2  0  0  0  0
 14 16  1  0  0  0  0
 14 17  1  0  0  0  0
 14 85  1  6  0  0  0
 16 18  2  0  0  0  0
 16 86  1  0  0  0  0
 17 87  1  0  0  0  0
 17 88  1  0  0  0  0
 17 89  1  0  0  0  0
 18 19  1  0  0  0  0
 18 20  1  0  0  0  0
 19 21  1  0  0  0  0
 19 22  1  0  0  0  0
 19 90  1  6  0  0  0
 20 91  1  0  0  0  0
 20 92  1  0  0  0  0
 20 93  1  0  0  0  0
 21 23  1  0  0  0  0
 21 46  1  0  0  0  0
 21 94  1  1  0  0  0
 22 95  1  0  0  0  0
 23 48  1  0  0  0  0
 24 25  2  0  0  0  0
 24 26  1  0  0  0  0
 26 27  1  0  0  0  0
 26 28  2  0  0  0  0
 27 29  1  0  0  0  0
 27 68  1  1  0  0  0
 29 30  1  0  0  0  0
 29 67  1  0  0  0  0
 29 96  1  6  0  0  0
 30 31  1  0  0  0  0
 30 97  1  0  0  0  0
 30 98  1  0  0  0  0
 31 32  1  0  0  0  0
 31 99  1  0  0  0  0
 31100  1  0  0  0  0
 32 33  1  0  0  0  0
 32 34  1  0  0  0  0
 32 71  1  1  0  0  0
 33 27  1  0  0  0  0
 34 35  1  0  0  0  0
 34101  1  0  0  0  0
 34102  1  0  0  0  0
 35 36  1  0  0  0  0
 35 69  1  0  0  0  0
 35103  1  6  0  0  0
 36 37  2  0  0  0  0
 36 38  1  0  0  0  0
 37 39  1  0  0  0  0
 37104  1  0  0  0  0
 38105  1  0  0  0  0
 38106  1  0  0  0  0
 38107  1  0  0  0  0
 39 40  2  0  0  0  0
 39108  1  0  0  0  0
 40 41  1  0  0  0  0
 40109  1  0  0  0  0
 41 42  2  0  0  0  0
 41110  1  0  0  0  0
 42 43  1  0  0  0  0
 42111  1  0  0  0  0
 43 44  1  0  0  0  0
 43 50  1  0  0  0  0
 43112  1  1  0  0  0
 44 45  1  0  0  0  0
 44113  1  0  0  0  0
 44114  1  0  0  0  0
 45 46  1  0  0  0  0
 45 49  1  0  0  0  0
 45115  1  6  0  0  0
 46 47  2  0  0  0  0
 48116  1  0  0  0  0
 48117  1  0  0  0  0
 48118  1  0  0  0  0
 49119  1  0  0  0  0
 49120  1  0  0  0  0
 49121  1  0  0  0  0
 50122  1  0  0  0  0
 50123  1  0  0  0  0
 50124  1  0  0  0  0
 51125  1  0  0  0  0
 51126  1  0  0  0  0
 52 51  1  0  0  0  0
 52 54  1  0  0  0  0
 52127  1  6  0  0  0
 53128  1  0  0  0  0
 53129  1  0  0  0  0
 53130  1  0  0  0  0
 54 55  1  0  0  0  0
 54131  1  0  0  0  0
 54132  1  0  0  0  0
 55 56  1  0  0  0  0
 55133  1  0  0  0  0
 55134  1  0  0  0  0
 56 57  1  0  0  0  0
 56 61  1  0  0  0  0
 56135  1  1  0  0  0
 57 58  1  0  0  0  0
 57 59  1  0  0  0  0
 57136  1  6  0  0  0
 58 52  1  0  0  0  0
 58137  1  0  0  0  0
 58138  1  0  0  0  0
 59 60  1  0  0  0  0
 60139  1  0  0  0  0
 60140  1  0  0  0  0
 60141  1  0  0  0  0
 61 62  1  0  0  0  0
 62 63  1  0  0  0  0
 62142  1  0  0  0  0
 62143  1  0  0  0  0
 63 64  1  0  0  0  0
 63144  1  0  0  0  0
 63145  1  0  0  0  0
 64 65  1  0  0  0  0
 65 66  1  0  0  0  0
 65146  1  0  0  0  0
 65147  1  0  0  0  0
 66148  1  0  0  0  0
 66149  1  0  0  0  0
 66150  1  0  0  0  0
 67151  1  0  0  0  0
 67152  1  0  0  0  0
 67153  1  0  0  0  0
 68154  1  0  0  0  0
 69 70  1  0  0  0  0
 70155  1  0  0  0  0
 70156  1  0  0  0  0
 70157  1  0  0  0  0
M  END
>  <DRUGBANK_ID>
DB15527

>  <COMMON_NAME>
Umirolimus

>  <CAS_NUMBER>
851536-75-9

>  <UNII>
U36PGF65JH

>  <SYNONYMS>
42-O-(2-ethoxyethyl) rapamycin; Biolimus A9; Umirolimus

$$$$
