PF2
 OpenBabel10282417072D

 50 53  0  0  0  0  0  0  0  0999 V2000
    4.2277    2.5919    0.0000 F   0  0  0  0  0  0  0  0  0  0  0  0
    3.8152    1.8774    0.0000 C   0  0  0  0  0  0  0  0  0  0  0  0
    4.5689    1.5418    0.0000 F   0  0  0  0  0  0  0  0  0  0  0  0
    3.1478    2.3623    0.0000 C   0  0  0  0  0  0  0  0  0  0  0  0
    2.4803    1.8774    0.0000 C   0  0  0  0  0  0  0  0  0  0  0  0
    3.5603    1.0928    0.0000 C   0  0  0  0  0  0  0  0  0  0  0  0
    2.7353    1.0928    0.0000 N   0  0  0  0  0  0  0  0  0  0  0  0
    2.2503    0.4253    0.0000 C   0  0  0  0  0  0  0  0  0  0  0  0
    2.5859   -0.3283    0.0000 O   0  0  0  0  0  0  0  0  0  0  0  0
    1.4299    0.5116    0.0000 C   0  0  1  0  0  0  0  0  0  0  0  0
    1.0174    1.2261    0.0000 N   0  0  0  0  0  0  0  0  0  0  0  0
    0.2104    1.0545    0.0000 C   0  0  0  0  0  0  0  0  0  0  0  0
    0.8778   -0.1015    0.0000 C   0  0  0  0  0  0  0  0  0  0  0  0
    0.1242    0.2340    0.0000 C   0  0  2  0  0  0  0  0  0  0  0  0
   -0.5903   -0.1785    0.0000 N   0  0  0  0  0  0  0  0  0  0  0  0
   -1.3048    0.2340    0.0000 C   0  0  0  0  0  0  0  0  0  0  0  0
   -2.0193   -0.1785    0.0000 C   0  0  0  0  0  0  0  0  0  0  0  0
   -2.0193   -1.0035    0.0000 N   0  0  0  0  0  0  0  0  0  0  0  0
   -1.3048   -1.4160    0.0000 C   0  0  0  0  0  0  0  0  0  0  0  0
   -0.5903   -1.0035    0.0000 C   0  0  0  0  0  0  0  0  0  0  0  0
   -2.7337   -1.4160    0.0000 C   0  0  0  0  0  0  0  0  0  0  0  0
   -3.4482   -1.0035    0.0000 N   0  0  0  0  0  0  0  0  0  0  0  0
   -4.1627   -1.4160    0.0000 C   0  0  0  0  0  0  0  0  0  0  0  0
   -4.1627   -2.2410    0.0000 C   0  0  0  0  0  0  0  0  0  0  0  0
   -3.4482   -2.6535    0.0000 C   0  0  0  0  0  0  0  0  0  0  0  0
   -2.7337   -2.2410    0.0000 N   0  0  0  0  0  0  0  0  0  0  0  0
    1.7479    1.0013    0.0000 H   0  0  0  0  0  0  0  0  0  0  0  0
   -0.3656    0.5521    0.0000 H   0  0  0  0  0  0  0  0  0  0  0  0
    3.1478    3.4323    0.0000 H   0  0  0  0  0  0  0  0  0  0  0  0
    2.1944    2.8481    0.0000 H   0  0  0  0  0  0  0  0  0  0  0  0
    1.4627    2.2080    0.0000 H   0  0  0  0  0  0  0  0  0  0  0  0
    1.7237    1.1208    0.0000 H   0  0  0  0  0  0  0  0  0  0  0  0
    4.1892    0.2272    0.0000 H   0  0  0  0  0  0  0  0  0  0  0  0
    3.0745    0.1394    0.0000 H   0  0  0  0  0  0  0  0  0  0  0  0
    1.4322    2.1579    0.0000 H   0  0  0  0  0  0  0  0  0  0  0  0
   -0.5848    1.7704    0.0000 H   0  0  0  0  0  0  0  0  0  0  0  0
   -0.7885    0.6710    0.0000 H   0  0  0  0  0  0  0  0  0  0  0  0
    1.1003   -1.1481    0.0000 H   0  0  0  0  0  0  0  0  0  0  0  0
    0.0463   -0.7749    0.0000 H   0  0  0  0  0  0  0  0  0  0  0  0
   -1.3048    1.3040    0.0000 H   0  0  0  0  0  0  0  0  0  0  0  0
   -2.2314    0.7690    0.0000 H   0  0  0  0  0  0  0  0  0  0  0  0
   -2.9459    0.3565    0.0000 H   0  0  0  0  0  0  0  0  0  0  0  0
   -2.9459   -0.7135    0.0000 H   0  0  0  0  0  0  0  0  0  0  0  0
   -1.3048   -2.4860    0.0000 H   0  0  0  0  0  0  0  0  0  0  0  0
   -0.3782   -1.9510    0.0000 H   0  0  0  0  0  0  0  0  0  0  0  0
    0.3363   -1.5385    0.0000 H   0  0  0  0  0  0  0  0  0  0  0  0
    0.3363   -0.4685    0.0000 H   0  0  0  0  0  0  0  0  0  0  0  0
   -5.0564   -0.9000    0.0000 H   0  0  0  0  0  0  0  0  0  0  0  0
   -5.0564   -2.7570    0.0000 H   0  0  0  0  0  0  0  0  0  0  0  0
   -3.4482   -3.6855    0.0000 H   0  0  0  0  0  0  0  0  0  0  0  0
  2  1  1  0  0  0  0
  2  3  1  0  0  0  0
  4  2  1  0  0  0  0
  4 29  1  0  0  0  0
  4 30  1  0  0  0  0
  5  4  1  0  0  0  0
  5  7  1  0  0  0  0
  5 31  1  0  0  0  0
  5 32  1  0  0  0  0
  6  2  1  0  0  0  0
  6 33  1  0  0  0  0
  6 34  1  0  0  0  0
  7  6  1  0  0  0  0
  8  7  1  0  0  0  0
  9  8  2  0  0  0  0
 10  8  1  0  0  0  0
 10 27  1  1  0  0  0
 11 10  1  0  0  0  0
 11 35  1  0  0  0  0
 12 11  1  0  0  0  0
 12 36  1  0  0  0  0
 12 37  1  0  0  0  0
 13 10  1  0  0  0  0
 13 38  1  0  0  0  0
 13 39  1  0  0  0  0
 14 12  1  0  0  0  0
 14 13  1  0  0  0  0
 14 28  1  1  0  0  0
 14 15  1  0  0  0  0
 16 15  1  0  0  0  0
 16 40  1  0  0  0  0
 16 41  1  0  0  0  0
 17 16  1  0  0  0  0
 17 42  1  0  0  0  0
 17 43  1  0  0  0  0
 18 17  1  0  0  0  0
 18 19  1  0  0  0  0
 19 20  1  0  0  0  0
 19 44  1  0  0  0  0
 19 45  1  0  0  0  0
 20 15  1  0  0  0  0
 20 46  1  0  0  0  0
 20 47  1  0  0  0  0
 21 18  1  0  0  0  0
 22 21  2  0  0  0  0
 23 22  1  0  0  0  0
 23 48  1  0  0  0  0
 24 23  2  0  0  0  0
 24 25  1  0  0  0  0
 24 49  1  0  0  0  0
 25 26  2  0  0  0  0
 25 50  1  0  0  0  0
 26 21  1  0  0  0  0
M  END
>  <DRUGBANK_ID>
DB08382

>  <SECONDARY_ACCESSION_NUMBERS>
DB12502

>  <COMMON_NAME>
Gosogliptin

>  <CAS_NUMBER>
869490-23-3

>  <UNII>
GI718UO477

>  <SYNONYMS>
2-(4-{(3S,5S)-5-[(3,3-difluoropyrrolidin-1-yl)carbonyl]pyrrolidin-3-yl}piperazin-1-yl)pyrimidine; Gosogliptin

$$$$
