
 OpenBabel10282417072D

 33 35  0  0  0  0  0  0  0  0999 V2000
    3.2056    0.7145    0.0000 C   0  0  0  0  0  0  0  0  0  0  0  0
    3.2056   -0.1105    0.0000 C   0  0  0  0  0  0  0  0  0  0  0  0
    2.4912   -0.5230    0.0000 C   0  0  0  0  0  0  0  0  0  0  0  0
    1.7766   -0.1105    0.0000 C   0  0  0  0  0  0  0  0  0  0  0  0
    1.7766    0.7145    0.0000 C   0  0  0  0  0  0  0  0  0  0  0  0
    2.4912    1.1270    0.0000 C   0  0  0  0  0  0  0  0  0  0  0  0
    0.9920    0.9695    0.0000 N   0  0  0  0  0  0  0  0  0  0  0  0
    0.5070    0.3019    0.0000 C   0  0  0  0  0  0  0  0  0  0  0  0
    0.9920   -0.3654    0.0000 S   0  0  0  0  0  0  0  0  0  0  0  0
   -0.3179    0.3019    0.0000 S   0  0  0  0  0  0  0  0  0  0  0  0
   -0.7305   -0.4125    0.0000 N   0  0  0  0  0  0  0  0  0  0  0  0
   -1.5555   -0.4125    0.0000 C   0  0  0  0  0  0  0  0  0  0  0  0
   -1.9680   -1.1270    0.0000 C   0  0  0  0  0  0  0  0  0  0  0  0
   -2.7931   -1.1270    0.0000 C   0  0  0  0  0  0  0  0  0  0  0  0
   -3.2056   -0.4125    0.0000 C   0  0  0  0  0  0  0  0  0  0  0  0
   -2.7931    0.3019    0.0000 C   0  0  0  0  0  0  0  0  0  0  0  0
   -1.9680    0.3019    0.0000 C   0  0  0  0  0  0  0  0  0  0  0  0
    4.0993    1.2305    0.0000 H   0  0  0  0  0  0  0  0  0  0  0  0
    4.0993   -0.6265    0.0000 H   0  0  0  0  0  0  0  0  0  0  0  0
    2.4913   -1.5550    0.0000 H   0  0  0  0  0  0  0  0  0  0  0  0
    2.4913    2.1590    0.0000 H   0  0  0  0  0  0  0  0  0  0  0  0
   -0.2206   -1.2959    0.0000 H   0  0  0  0  0  0  0  0  0  0  0  0
   -2.6255   -0.4125    0.0000 H   0  0  0  0  0  0  0  0  0  0  0  0
   -1.4330   -2.0536    0.0000 H   0  0  0  0  0  0  0  0  0  0  0  0
   -2.5030   -2.0536    0.0000 H   0  0  0  0  0  0  0  0  0  0  0  0
   -3.3281   -2.0536    0.0000 H   0  0  0  0  0  0  0  0  0  0  0  0
   -3.8631   -1.1270    0.0000 H   0  0  0  0  0  0  0  0  0  0  0  0
   -4.2756   -0.4125    0.0000 H   0  0  0  0  0  0  0  0  0  0  0  0
   -3.7406    0.5142    0.0000 H   0  0  0  0  0  0  0  0  0  0  0  0
   -3.3281    1.2286    0.0000 H   0  0  0  0  0  0  0  0  0  0  0  0
   -2.2581    1.2285    0.0000 H   0  0  0  0  0  0  0  0  0  0  0  0
   -1.4330    1.2286    0.0000 H   0  0  0  0  0  0  0  0  0  0  0  0
   -0.8980    0.3019    0.0000 H   0  0  0  0  0  0  0  0  0  0  0  0
  1  2  2  0  0  0  0
  1  6  1  0  0  0  0
  1 18  1  0  0  0  0
  2  3  1  0  0  0  0
  2 19  1  0  0  0  0
  3  4  2  0  0  0  0
  3 20  1  0  0  0  0
  4  5  1  0  0  0  0
  4  9  1  0  0  0  0
  5  6  2  0  0  0  0
  5  7  1  0  0  0  0
  6 21  1  0  0  0  0
  7  8  2  0  0  0  0
  8  9  1  0  0  0  0
  8 10  1  0  0  0  0
 10 11  1  0  0  0  0
 11 12  1  0  0  0  0
 11 22  1  0  0  0  0
 12 13  1  0  0  0  0
 12 17  1  0  0  0  0
 12 23  1  0  0  0  0
 13 14  1  0  0  0  0
 13 24  1  0  0  0  0
 13 25  1  0  0  0  0
 14 15  1  0  0  0  0
 14 26  1  0  0  0  0
 14 27  1  0  0  0  0
 15 16  1  0  0  0  0
 15 28  1  0  0  0  0
 15 29  1  0  0  0  0
 16 17  1  0  0  0  0
 16 30  1  0  0  0  0
 16 31  1  0  0  0  0
 17 32  1  0  0  0  0
 17 33  1  0  0  0  0
M  END
>  <DRUGBANK_ID>
DB14200

>  <COMMON_NAME>
Thiohexam

>  <CAS_NUMBER>
95-33-0

>  <UNII>
UCA53G94EV

>  <SYNONYMS>
2-(Cyclohexylaminothio)benzothiazole; 2-Benzenethiazolesulfenamide, N-cyclohexyl-; Benzothiazyl-2-cyclohexylsulfenamide; Cyclohexyl benzothiazolesulfenamide; N-cyclohexyl-2-Benzothiazosulfenamide; N-Cyclohexylbenzothiazol-2-sulfenamid

$$$$
