EMD
 OpenBabel10282417072D

 53 56  0  0  0  0  0  0  0  0999 V2000
   -3.4104   -2.8288    0.0000 S   0  0  0  0  0  0  0  0  0  0  0  0
   -4.1249   -2.4163    0.0000 C   0  0  0  0  0  0  0  0  0  0  0  0
   -4.8394   -2.8288    0.0000 O   0  0  0  0  0  0  0  0  0  0  0  0
   -4.1249   -1.5913    0.0000 N   0  0  0  0  0  0  0  0  0  0  0  0
   -3.4104   -1.1788    0.0000 N   0  0  0  0  0  0  0  0  0  0  0  0
   -2.6960   -1.5913    0.0000 C   0  0  0  0  0  0  0  0  0  0  0  0
   -2.6960   -2.4163    0.0000 C   0  0  1  0  0  0  0  0  0  0  0  0
   -1.9815   -2.8288    0.0000 C   0  0  0  0  0  0  0  0  0  0  0  0
   -1.9815   -1.1788    0.0000 C   0  0  0  0  0  0  0  0  0  0  0  0
   -1.2670   -1.5913    0.0000 C   0  0  0  0  0  0  0  0  0  0  0  0
   -0.5526   -1.1788    0.0000 C   0  0  0  0  0  0  0  0  0  0  0  0
   -0.5526   -0.3538    0.0000 C   0  0  0  0  0  0  0  0  0  0  0  0
   -1.2670    0.0587    0.0000 C   0  0  0  0  0  0  0  0  0  0  0  0
   -1.9815   -0.3538    0.0000 C   0  0  0  0  0  0  0  0  0  0  0  0
    0.1619    0.0587    0.0000 N   0  0  0  0  0  0  0  0  0  0  0  0
    0.8764   -0.3538    0.0000 C   0  0  0  0  0  0  0  0  0  0  0  0
    0.8764   -1.1788    0.0000 C   0  0  0  0  0  0  0  0  0  0  0  0
    0.1619   -1.5913    0.0000 C   0  0  0  0  0  0  0  0  0  0  0  0
    0.1619    0.8837    0.0000 C   0  0  0  0  0  0  0  0  0  0  0  0
   -0.5526    1.2962    0.0000 O   0  0  0  0  0  0  0  0  0  0  0  0
    0.8764    1.2962    0.0000 C   0  0  0  0  0  0  0  0  0  0  0  0
    0.8764    2.1212    0.0000 C   0  0  0  0  0  0  0  0  0  0  0  0
    1.5909    2.5337    0.0000 C   0  0  0  0  0  0  0  0  0  0  0  0
    1.5909    3.3587    0.0000 O   0  0  0  0  0  0  0  0  0  0  0  0
    2.3053    2.1212    0.0000 C   0  0  0  0  0  0  0  0  0  0  0  0
    3.0198    2.5337    0.0000 O   0  0  0  0  0  0  0  0  0  0  0  0
    2.3053    1.2962    0.0000 C   0  0  0  0  0  0  0  0  0  0  0  0
    1.5909    0.8837    0.0000 C   0  0  0  0  0  0  0  0  0  0  0  0
    2.3053    3.7712    0.0000 C   0  0  0  0  0  0  0  0  0  0  0  0
    3.0198    3.3587    0.0000 C   0  0  0  0  0  0  0  0  0  0  0  0
   -2.6960   -3.0002    0.0000 H   0  0  0  0  0  0  0  0  0  0  0  0
   -4.9775   -1.0990    0.0000 H   0  0  0  0  0  0  0  0  0  0  0  0
   -1.9815   -3.8988    0.0000 H   0  0  0  0  0  0  0  0  0  0  0  0
   -1.0549   -2.2938    0.0000 H   0  0  0  0  0  0  0  0  0  0  0  0
   -1.0548   -3.3638    0.0000 H   0  0  0  0  0  0  0  0  0  0  0  0
   -1.2670   -2.6233    0.0000 H   0  0  0  0  0  0  0  0  0  0  0  0
   -1.2670    1.0907    0.0000 H   0  0  0  0  0  0  0  0  0  0  0  0
   -2.8752    0.1622    0.0000 H   0  0  0  0  0  0  0  0  0  0  0  0
    1.8030    0.1812    0.0000 H   0  0  0  0  0  0  0  0  0  0  0  0
    1.8030   -0.8888    0.0000 H   0  0  0  0  0  0  0  0  0  0  0  0
    1.8030   -1.7138    0.0000 H   0  0  0  0  0  0  0  0  0  0  0  0
    0.8764   -2.2488    0.0000 H   0  0  0  0  0  0  0  0  0  0  0  0
    0.1619   -2.6613    0.0000 H   0  0  0  0  0  0  0  0  0  0  0  0
    1.0885   -2.1263    0.0000 H   0  0  0  0  0  0  0  0  0  0  0  0
   -0.0173    2.6372    0.0000 H   0  0  0  0  0  0  0  0  0  0  0  0
    3.1990    0.7802    0.0000 H   0  0  0  0  0  0  0  0  0  0  0  0
    1.5909   -0.1483    0.0000 H   0  0  0  0  0  0  0  0  0  0  0  0
    3.2320    3.2362    0.0000 H   0  0  0  0  0  0  0  0  0  0  0  0
    2.3053    4.8412    0.0000 H   0  0  0  0  0  0  0  0  0  0  0  0
    3.2319    4.3062    0.0000 H   0  0  0  0  0  0  0  0  0  0  0  0
    3.9464    3.8937    0.0000 H   0  0  0  0  0  0  0  0  0  0  0  0
    2.0932    3.8937    0.0000 H   0  0  0  0  0  0  0  0  0  0  0  0
    3.0198    4.4287    0.0000 H   0  0  0  0  0  0  0  0  0  0  0  0
  1  2  1  0  0  0  0
  1  7  1  0  0  0  0
  2  3  2  0  0  0  0
  2  4  1  0  0  0  0
  4  5  1  0  0  0  0
  4 32  1  0  0  0  0
  5  6  2  0  0  0  0
  6  7  1  0  0  0  0
  6  9  1  0  0  0  0
  7  8  1  0  0  0  0
  7 31  1  6  0  0  0
  8 33  1  0  0  0  0
  8 34  1  0  0  0  0
  8 35  1  0  0  0  0
  9 10  2  0  0  0  0
  9 14  1  0  0  0  0
 10 11  1  0  0  0  0
 10 36  1  0  0  0  0
 11 12  2  0  0  0  0
 11 18  1  0  0  0  0
 12 13  1  0  0  0  0
 12 15  1  0  0  0  0
 13 14  2  0  0  0  0
 13 37  1  0  0  0  0
 14 38  1  0  0  0  0
 15 16  1  0  0  0  0
 15 19  1  0  0  0  0
 16 17  1  0  0  0  0
 16 39  1  0  0  0  0
 16 40  1  0  0  0  0
 17 18  1  0  0  0  0
 17 41  1  0  0  0  0
 17 42  1  0  0  0  0
 18 43  1  0  0  0  0
 18 44  1  0  0  0  0
 19 20  2  0  0  0  0
 19 21  1  0  0  0  0
 21 22  2  0  0  0  0
 21 28  1  0  0  0  0
 22 23  1  0  0  0  0
 22 45  1  0  0  0  0
 23 24  1  0  0  0  0
 23 25  2  0  0  0  0
 24 29  1  0  0  0  0
 25 26  1  0  0  0  0
 25 27  1  0  0  0  0
 26 30  1  0  0  0  0
 27 28  2  0  0  0  0
 27 46  1  0  0  0  0
 28 47  1  0  0  0  0
 29 48  1  0  0  0  0
 29 49  1  0  0  0  0
 29 50  1  0  0  0  0
 30 51  1  0  0  0  0
 30 52  1  0  0  0  0
 30 53  1  0  0  0  0
M  END
>  <DRUGBANK_ID>
DB03944

>  <SECONDARY_ACCESSION_NUMBERS>
EXPT01339

>  <COMMON_NAME>
5-[1-(3,4-Dimethoxy-Benzoyl)-1,2,3,4-Tetrahydro-Quinolin-6-Yl]-6-Methyl-3,6-Dihydro-[1,3,4]Thiadiazin-2-One

$$$$
