
 OpenBabel10282417072D

 33 34  0  0  0  0  0  0  0  0999 V2000
    3.5008   -1.0712    0.0000 C   0  0  0  0  0  0  0  0  0  0  0  0
    2.6746   -1.0712    0.0000 O   0  0  0  0  0  0  0  0  0  0  0  0
    2.2685   -0.3570    0.0000 C   0  0  0  0  0  0  0  0  0  0  0  0
    2.6746    0.3570    0.0000 C   0  0  0  0  0  0  0  0  0  0  0  0
    2.2685    1.0712    0.0000 C   0  0  0  0  0  0  0  0  0  0  0  0
    1.4423    1.0712    0.0000 C   0  0  0  0  0  0  0  0  0  0  0  0
    1.0292    0.3570    0.0000 C   0  0  0  0  0  0  0  0  0  0  0  0
    0.2030    0.3570    0.0000 C   0  0  0  0  0  0  0  0  0  0  0  0
   -0.2030   -0.3570    0.0000 N   0  0  0  0  0  0  0  0  0  0  0  0
   -1.0292   -0.3570    0.0000 C   0  0  0  0  0  0  0  0  0  0  0  0
   -1.4424    0.3570    0.0000 C   0  0  0  0  0  0  0  0  0  0  0  0
   -2.2685    0.3570    0.0000 C   0  0  0  0  0  0  0  0  0  0  0  0
   -2.6746   -0.3570    0.0000 C   0  0  0  0  0  0  0  0  0  0  0  0
   -3.5008   -0.3570    0.0000 C   0  0  0  0  0  0  0  0  0  0  0  0
   -2.2685   -1.0712    0.0000 C   0  0  0  0  0  0  0  0  0  0  0  0
   -1.4424   -1.0712    0.0000 C   0  0  0  0  0  0  0  0  0  0  0  0
    1.4423   -0.3570    0.0000 C   0  0  0  0  0  0  0  0  0  0  0  0
    1.0292   -1.0712    0.0000 O   0  0  0  0  0  0  0  0  0  0  0  0
    4.0358   -1.9978    0.0000 H   0  0  0  0  0  0  0  0  0  0  0  0
    4.0358   -0.1446    0.0000 H   0  0  0  0  0  0  0  0  0  0  0  0
    4.5708   -1.0712    0.0000 H   0  0  0  0  0  0  0  0  0  0  0  0
    3.7066    0.3569    0.0000 H   0  0  0  0  0  0  0  0  0  0  0  0
    2.7874    1.9632    0.0000 H   0  0  0  0  0  0  0  0  0  0  0  0
    0.9267    1.9651    0.0000 H   0  0  0  0  0  0  0  0  0  0  0  0
   -0.3159    1.2490    0.0000 H   0  0  0  0  0  0  0  0  0  0  0  0
   -0.9269    1.2510    0.0000 H   0  0  0  0  0  0  0  0  0  0  0  0
   -2.7874    1.2491    0.0000 H   0  0  0  0  0  0  0  0  0  0  0  0
   -4.0358    0.5696    0.0000 H   0  0  0  0  0  0  0  0  0  0  0  0
   -4.0358   -1.2836    0.0000 H   0  0  0  0  0  0  0  0  0  0  0  0
   -4.5708   -0.3570    0.0000 H   0  0  0  0  0  0  0  0  0  0  0  0
   -2.7874   -1.9632    0.0000 H   0  0  0  0  0  0  0  0  0  0  0  0
   -0.9268   -1.9652    0.0000 H   0  0  0  0  0  0  0  0  0  0  0  0
    0.0922   -1.0705    0.0000 H   0  0  0  0  0  0  0  0  0  0  0  0
  1  2  1  0  0  0  0
  1 19  1  0  0  0  0
  1 20  1  0  0  0  0
  1 21  1  0  0  0  0
  2  3  1  0  0  0  0
  3  4  1  0  0  0  0
  3 17  2  0  0  0  0
  4  5  2  0  0  0  0
  4 22  1  0  0  0  0
  5  6  1  0  0  0  0
  5 23  1  0  0  0  0
  6  7  2  0  0  0  0
  6 24  1  0  0  0  0
  7  8  1  0  0  0  0
  7 17  1  0  0  0  0
  8  9  2  0  0  0  0
  8 25  1  0  0  0  0
  9 10  1  0  0  0  0
 10 11  1  0  0  0  0
 10 16  2  0  0  0  0
 11 12  2  0  0  0  0
 11 26  1  0  0  0  0
 12 13  1  0  0  0  0
 12 27  1  0  0  0  0
 13 14  1  0  0  0  0
 13 15  2  0  0  0  0
 14 28  1  0  0  0  0
 14 29  1  0  0  0  0
 14 30  1  0  0  0  0
 15 16  1  0  0  0  0
 15 31  1  0  0  0  0
 16 32  1  0  0  0  0
 17 18  1  0  0  0  0
 18 33  1  0  0  0  0
M  END
>  <DRUGBANK_ID>
DB13869

>  <COMMON_NAME>
2-Methoxy-6-{(E)-[(4-methylphenyl)imino]methyl}phenol

>  <CAS_NUMBER>
20772-64-9

>  <SYNONYMS>
2-Methoxy-6-[[(4-methylphenyl)imino]methyl]phenol; TIMBD

$$$$
