
 OpenBabel10282417072D

 54 55  0  0  0  0  0  0  0  0999 V2000
   -2.1403   -0.2105    0.0000 C   0  0  0  0  0  0  0  0  0  0  0  0
   -2.1510    0.6079    0.0000 C   0  0  0  0  0  0  0  0  0  0  0  0
   -2.8524   -0.6280    0.0000 C   0  0  0  0  0  0  0  0  0  0  0  0
   -1.4282   -0.6135    0.0000 C   0  0  0  0  0  0  0  0  0  0  0  0
   -1.4437    1.0330    0.0000 C   0  0  0  0  0  0  0  0  0  0  0  0
   -2.8721    1.0082    0.0000 C   0  0  0  0  0  0  0  0  0  0  0  0
   -2.8480   -1.4522    0.0000 C   0  0  0  0  0  0  0  0  0  0  0  0
   -3.5713   -0.2177    0.0000 C   0  0  0  0  0  0  0  0  0  0  0  0
   -0.7145   -0.1981    0.0000 C   0  0  0  0  0  0  0  0  0  0  0  0
   -1.4206   -1.4368    0.0000 C   0  0  0  0  0  0  0  0  0  0  0  0
   -1.4554    1.8574    0.0000 C   0  0  0  0  0  0  0  0  0  0  0  0
   -2.8876    1.8363    0.0000 C   0  0  0  0  0  0  0  0  0  0  0  0
   -3.5541   -1.8617    0.0000 C   0  0  0  0  0  0  0  0  0  0  0  0
   -4.2848   -0.6349    0.0000 C   0  0  0  0  0  0  0  0  0  0  0  0
   -0.0073   -0.5999    0.0000 O   0  0  0  0  0  0  0  0  0  0  0  0
   -0.7254    0.6246    0.0000 O   0  0  0  0  0  0  0  0  0  0  0  0
   -1.4121   -2.2551    0.0000 N   0  0  0  0  0  0  0  0  0  0  0  0
   -2.1906    2.2551    0.0000 C   0  0  0  0  0  0  0  0  0  0  0  0
   -4.2755   -1.4594    0.0000 C   0  0  0  0  0  0  0  0  0  0  0  0
    0.7068   -0.1885    0.0000 C   0  0  0  0  0  0  0  0  0  0  0  0
    1.4215   -0.5976    0.0000 C   0  0  3  0  0  0  0  0  0  0  0  0
    2.1381   -0.1835    0.0000 C   0  0  0  0  0  0  0  0  0  0  0  0
    1.4275   -1.4226    0.0000 C   0  0  0  0  0  0  0  0  0  0  0  0
    2.8546   -0.5969    0.0000 C   0  0  0  0  0  0  0  0  0  0  0  0
    0.7206   -1.8335    0.0000 C   0  0  0  0  0  0  0  0  0  0  0  0
    3.5690   -0.1838    0.0000 C   0  0  0  0  0  0  0  0  0  0  0  0
    4.2848   -0.5942    0.0000 C   0  0  0  0  0  0  0  0  0  0  0  0
   -0.5419    0.5313    0.0000 H   0  0  0  0  0  0  0  0  0  0  0  0
   -3.7565    0.4764    0.0000 H   0  0  0  0  0  0  0  0  0  0  0  0
   -1.9524   -1.9649    0.0000 H   0  0  0  0  0  0  0  0  0  0  0  0
   -3.5767    0.8143    0.0000 H   0  0  0  0  0  0  0  0  0  0  0  0
   -0.5727    2.3920    0.0000 H   0  0  0  0  0  0  0  0  0  0  0  0
   -3.7905    2.3361    0.0000 H   0  0  0  0  0  0  0  0  0  0  0  0
   -3.5454   -2.8937    0.0000 H   0  0  0  0  0  0  0  0  0  0  0  0
   -5.1828   -0.1264    0.0000 H   0  0  0  0  0  0  0  0  0  0  0  0
   -2.2139    3.2868    0.0000 H   0  0  0  0  0  0  0  0  0  0  0  0
   -5.1624   -1.9870    0.0000 H   0  0  0  0  0  0  0  0  0  0  0  0
    0.7053    0.8815    0.0000 H   0  0  0  0  0  0  0  0  0  0  0  0
    1.6321    0.3489    0.0000 H   0  0  0  0  0  0  0  0  0  0  0  0
    1.4193    0.4724    0.0000 H   0  0  0  0  0  0  0  0  0  0  0  0
    2.1377    0.8865    0.0000 H   0  0  0  0  0  0  0  0  0  0  0  0
    3.0646    0.3518    0.0000 H   0  0  0  0  0  0  0  0  0  0  0  0
    2.3569   -1.9529    0.0000 H   0  0  0  0  0  0  0  0  0  0  0  0
    1.4318   -2.4926    0.0000 H   0  0  0  0  0  0  0  0  0  0  0  0
    2.8551   -1.6669    0.0000 H   0  0  0  0  0  0  0  0  0  0  0  0
    3.7816   -1.1314    0.0000 H   0  0  0  0  0  0  0  0  0  0  0  0
   -0.2076   -1.3012    0.0000 H   0  0  0  0  0  0  0  0  0  0  0  0
    0.7237   -2.9035    0.0000 H   0  0  0  0  0  0  0  0  0  0  0  0
   -0.2045   -2.3712    0.0000 H   0  0  0  0  0  0  0  0  0  0  0  0
    3.5670    0.8862    0.0000 H   0  0  0  0  0  0  0  0  0  0  0  0
    4.4943    0.3534    0.0000 H   0  0  0  0  0  0  0  0  0  0  0  0
    4.2880   -1.6642    0.0000 H   0  0  0  0  0  0  0  0  0  0  0  0
    5.2098   -0.0564    0.0000 H   0  0  0  0  0  0  0  0  0  0  0  0
    5.2131   -1.1264    0.0000 H   0  0  0  0  0  0  0  0  0  0  0  0
  1  2  1  0  0  0  0
  1  3  1  0  0  0  0
  1  4  2  0  0  0  0
  2  5  1  0  0  0  0
  2  6  2  0  0  0  0
  3  7  1  0  0  0  0
  3  8  2  0  0  0  0
  4  9  1  0  0  0  0
  4 10  1  0  0  0  0
  5 11  2  0  0  0  0
  5 28  1  0  0  0  0
  6 12  1  0  0  0  0
  6 29  1  0  0  0  0
  7 13  2  0  0  0  0
  7 30  1  0  0  0  0
  8 14  1  0  0  0  0
  8 31  1  0  0  0  0
  9 15  1  0  0  0  0
  9 16  2  0  0  0  0
 10 17  3  0  0  0  0
 11 18  1  0  0  0  0
 11 32  1  0  0  0  0
 12 18  2  0  0  0  0
 12 33  1  0  0  0  0
 13 19  1  0  0  0  0
 13 34  1  0  0  0  0
 14 19  2  0  0  0  0
 14 35  1  0  0  0  0
 15 20  1  0  0  0  0
 18 36  1  0  0  0  0
 19 37  1  0  0  0  0
 20 21  1  0  0  0  0
 20 38  1  0  0  0  0
 20 39  1  0  0  0  0
 21 22  1  0  0  0  0
 21 23  1  0  0  0  0
 21 40  1  0  0  0  0
 22 24  1  0  0  0  0
 22 41  1  0  0  0  0
 22 42  1  0  0  0  0
 23 25  1  0  0  0  0
 23 43  1  0  0  0  0
 23 44  1  0  0  0  0
 24 26  1  0  0  0  0
 24 45  1  0  0  0  0
 24 46  1  0  0  0  0
 25 47  1  0  0  0  0
 25 48  1  0  0  0  0
 25 49  1  0  0  0  0
 26 27  1  0  0  0  0
 26 50  1  0  0  0  0
 26 51  1  0  0  0  0
 27 52  1  0  0  0  0
 27 53  1  0  0  0  0
 27 54  1  0  0  0  0
M  END
>  <DRUGBANK_ID>
DB09535

>  <COMMON_NAME>
Octocrylene

>  <CAS_NUMBER>
6197-30-4

>  <UNII>
5A68WGF6WM

>  <SYNONYMS>
Octocrileno; Octocrilenum; Octocrylene

$$$$
