
 OpenBabel10282417072D

102104  0  0  1  0  0  0  0  0999 V2000
   -4.8941    0.1799    0.0000 N   0  0  0  0  0  0  0  0  0  0  0  0
   -4.1848    0.5969    0.0000 C   0  0  2  0  0  0  0  0  0  0  0  0
   -4.1848    1.4220    0.0000 C   0  0  0  0  0  0  0  0  0  0  0  0
   -4.9125    1.8252    0.0000 C   0  0  0  0  0  0  0  0  0  0  0  0
   -4.9125    2.6476    0.0000 C   0  0  0  0  0  0  0  0  0  0  0  0
   -5.6368    3.0508    0.0000 C   0  0  0  0  0  0  0  0  0  0  0  0
   -6.3452    2.6286    0.0000 C   0  0  0  0  0  0  0  0  0  0  0  0
   -6.3452    1.8061    0.0000 C   0  0  0  0  0  0  0  0  0  0  0  0
   -5.6162    1.4041    0.0000 C   0  0  0  0  0  0  0  0  0  0  0  0
   -3.4664    0.1891    0.0000 C   0  0  0  0  0  0  0  0  0  0  0  0
   -2.7572    0.6109    0.0000 N   0  0  0  0  0  0  0  0  0  0  0  0
   -2.0387    0.2029    0.0000 C   0  0  2  0  0  0  0  0  0  0  0  0
   -2.0387   -0.6173    0.0000 C   0  0  0  0  0  0  0  0  0  0  0  0
   -1.3204   -1.0298    0.0000 C   0  0  0  0  0  0  0  0  0  0  0  0
   -1.3204   -1.8527    0.0000 C   0  0  0  0  0  0  0  0  0  0  0  0
   -0.6065   -2.2606    0.0000 C   0  0  0  0  0  0  0  0  0  0  0  0
    0.1077   -1.8472    0.0000 C   0  0  0  0  0  0  0  0  0  0  0  0
    0.1077   -1.0192    0.0000 C   0  0  0  0  0  0  0  0  0  0  0  0
   -0.6156   -0.6126    0.0000 C   0  0  0  0  0  0  0  0  0  0  0  0
   -1.3296    0.6201    0.0000 C   0  0  0  0  0  0  0  0  0  0  0  0
   -1.3296    1.4452    0.0000 O   0  0  0  0  0  0  0  0  0  0  0  0
   -0.6112    0.2123    0.0000 N   0  0  0  0  0  0  0  0  0  0  0  0
    0.0978    0.6340    0.0000 C   0  0  1  0  0  0  0  0  0  0  0  0
    0.8162    0.2263    0.0000 C   0  0  0  0  0  0  0  0  0  0  0  0
    1.5254    0.6433    0.0000 N   0  0  0  0  0  0  0  0  0  0  0  0
    2.2439    0.2400    0.0000 C   0  0  1  0  0  0  0  0  0  0  0  0
    2.9532    0.6573    0.0000 C   0  0  0  0  0  0  0  0  0  0  0  0
    2.9532    1.4777    0.0000 O   0  0  0  0  0  0  0  0  0  0  0  0
    3.6715    0.2494    0.0000 N   0  0  0  0  0  0  0  0  0  0  0  0
    3.6715   -0.5750    0.0000 C   0  0  0  0  0  0  0  0  0  0  0  0
    4.3925   -0.9828    0.0000 C   0  0  0  0  0  0  0  0  0  0  0  0
    5.1074   -0.5640    0.0000 C   0  0  3  0  0  0  0  0  0  0  0  0
    5.1074    0.2603    0.0000 C   0  0  0  0  0  0  0  0  0  0  0  0
    4.3838    0.6706    0.0000 C   0  0  0  0  0  0  0  0  0  0  0  0
    5.9289   -0.5640    0.0000 C   0  0  0  0  0  0  0  0  0  0  0  0
    6.3452   -1.2723    0.0000 O   0  0  0  0  0  0  0  0  0  0  0  0
    6.3375    0.1560    0.0000 O   0  0  0  0  0  0  0  0  0  0  0  0
    5.1827   -1.6138    0.0000 N   0  0  0  0  0  0  0  0  0  0  0  0
    2.2439   -0.5849    0.0000 C   0  0  0  0  0  0  0  0  0  0  0  0
    2.9623   -0.9927    0.0000 C   0  0  0  0  0  0  0  0  0  0  0  0
    2.9623   -1.8178    0.0000 C   0  0  0  0  0  0  0  0  0  0  0  0
    3.6807   -2.2257    0.0000 C   0  0  0  0  0  0  0  0  0  0  0  0
    3.6807   -3.0508    0.0000 N   0  0  0  0  0  0  0  0  0  0  0  0
    0.8162   -0.5987    0.0000 O   0  0  0  0  0  0  0  0  0  0  0  0
    0.0978    1.4590    0.0000 C   0  0  0  0  0  0  0  0  0  0  0  0
    0.7979    1.8717    0.0000 C   0  0  0  0  0  0  0  0  0  0  0  0
    1.5162    1.4684    0.0000 C   0  0  0  0  0  0  0  0  0  0  0  0
    0.7979    2.6967    0.0000 C   0  0  0  0  0  0  0  0  0  0  0  0
   -3.4664   -0.6312    0.0000 O   0  0  0  0  0  0  0  0  0  0  0  0
   -5.7814    0.6829    0.0000 H   0  0  0  0  0  0  0  0  0  0  0  0
   -4.8861   -0.8401    0.0000 H   0  0  0  0  0  0  0  0  0  0  0  0
   -5.1135    1.1282    0.0000 H   0  0  0  0  0  0  0  0  0  0  0  0
   -3.2629    1.9651    0.0000 H   0  0  0  0  0  0  0  0  0  0  0  0
   -4.1989    2.4919    0.0000 H   0  0  0  0  0  0  0  0  0  0  0  0
   -4.0228    3.1706    0.0000 H   0  0  0  0  0  0  0  0  0  0  0  0
   -5.6520    4.0827    0.0000 H   0  0  0  0  0  0  0  0  0  0  0  0
   -7.2425    3.1384    0.0000 H   0  0  0  0  0  0  0  0  0  0  0  0
   -7.2338    1.2813    0.0000 H   0  0  0  0  0  0  0  0  0  0  0  0
   -5.5980    0.3723    0.0000 H   0  0  0  0  0  0  0  0  0  0  0  0
   -2.7671    1.5954    0.0000 H   0  0  0  0  0  0  0  0  0  0  0  0
   -2.9634   -0.3354    0.0000 H   0  0  0  0  0  0  0  0  0  0  0  0
   -2.9647   -1.1534    0.0000 H   0  0  0  0  0  0  0  0  0  0  0  0
   -2.0368   -1.6873    0.0000 H   0  0  0  0  0  0  0  0  0  0  0  0
   -2.2130   -2.3707    0.0000 H   0  0  0  0  0  0  0  0  0  0  0  0
   -0.6036   -3.2926    0.0000 H   0  0  0  0  0  0  0  0  0  0  0  0
    1.0017   -2.3627    0.0000 H   0  0  0  0  0  0  0  0  0  0  0  0
    0.9985   -0.4981    0.0000 H   0  0  0  0  0  0  0  0  0  0  0  0
   -0.6271    0.4193    0.0000 H   0  0  0  0  0  0  0  0  0  0  0  0
   -0.6012   -0.7721    0.0000 H   0  0  0  0  0  0  0  0  0  0  0  0
   -0.8323    1.1630    0.0000 H   0  0  0  0  0  0  0  0  0  0  0  0
    1.5155    1.6278    0.0000 H   0  0  0  0  0  0  0  0  0  0  0  0
    1.3205   -0.3006    0.0000 H   0  0  0  0  0  0  0  0  0  0  0  0
    2.7472   -1.1141    0.0000 H   0  0  0  0  0  0  0  0  0  0  0  0
    3.6786   -1.6450    0.0000 H   0  0  0  0  0  0  0  0  0  0  0  0
    4.4006   -2.0528    0.0000 H   0  0  0  0  0  0  0  0  0  0  0  0
    5.3228   -1.5113    0.0000 H   0  0  0  0  0  0  0  0  0  0  0  0
    6.0320    0.7989    0.0000 H   0  0  0  0  0  0  0  0  0  0  0  0
    5.1012    1.3303    0.0000 H   0  0  0  0  0  0  0  0  0  0  0  0
    4.3741    1.7406    0.0000 H   0  0  0  0  0  0  0  0  0  0  0  0
    3.4520    1.1965    0.0000 H   0  0  0  0  0  0  0  0  0  0  0  0
    5.8830   -2.0874    0.0000 H   0  0  0  0  0  0  0  0  0  0  0  0
    4.3381   -2.1857    0.0000 H   0  0  0  0  0  0  0  0  0  0  0  0
    6.1003   -2.0593    0.0000 H   0  0  0  0  0  0  0  0  0  0  0  0
    1.3192   -1.1233    0.0000 H   0  0  0  0  0  0  0  0  0  0  0  0
    2.2498   -1.6549    0.0000 H   0  0  0  0  0  0  0  0  0  0  0  0
    3.8870   -0.4543    0.0000 H   0  0  0  0  0  0  0  0  0  0  0  0
    3.8899   -1.5260    0.0000 H   0  0  0  0  0  0  0  0  0  0  0  0
    2.0376   -2.3561    0.0000 H   0  0  0  0  0  0  0  0  0  0  0  0
    2.9681   -2.8878    0.0000 H   0  0  0  0  0  0  0  0  0  0  0  0
    4.6054   -1.6874    0.0000 H   0  0  0  0  0  0  0  0  0  0  0  0
    4.6083   -2.7590    0.0000 H   0  0  0  0  0  0  0  0  0  0  0  0
    2.7974   -3.5608    0.0000 H   0  0  0  0  0  0  0  0  0  0  0  0
    4.5640   -3.5608    0.0000 H   0  0  0  0  0  0  0  0  0  0  0  0
   -0.8313    1.9898    0.0000 H   0  0  0  0  0  0  0  0  0  0  0  0
    0.0905    2.5290    0.0000 H   0  0  0  0  0  0  0  0  0  0  0  0
    1.7213    2.4122    0.0000 H   0  0  0  0  0  0  0  0  0  0  0  0
    1.5290    0.3985    0.0000 H   0  0  0  0  0  0  0  0  0  0  0  0
    2.4364    2.0145    0.0000 H   0  0  0  0  0  0  0  0  0  0  0  0
    2.4492    0.9446    0.0000 H   0  0  0  0  0  0  0  0  0  0  0  0
    1.7245    3.2317    0.0000 H   0  0  0  0  0  0  0  0  0  0  0  0
   -0.1287    3.2317    0.0000 H   0  0  0  0  0  0  0  0  0  0  0  0
    0.7979    3.7667    0.0000 H   0  0  0  0  0  0  0  0  0  0  0  0
  1  2  1  0  0  0  0
  1 50  1  0  0  0  0
  1 51  1  0  0  0  0
  2  3  1  0  0  0  0
  2 10  1  0  0  0  0
  2 52  1  1  0  0  0
  3  4  1  0  0  0  0
  3 53  1  0  0  0  0
  3 54  1  0  0  0  0
  4  5  2  0  0  0  0
  5  6  1  0  0  0  0
  5 55  1  0  0  0  0
  6  7  2  0  0  0  0
  6 56  1  0  0  0  0
  7  8  1  0  0  0  0
  7 57  1  0  0  0  0
  8  9  2  0  0  0  0
  8 58  1  0  0  0  0
  9  4  1  0  0  0  0
  9 59  1  0  0  0  0
 10 11  1  0  0  0  0
 10 49  2  0  0  0  0
 11 12  1  0  0  0  0
 11 60  1  0  0  0  0
 12 13  1  0  0  0  0
 12 20  1  0  0  0  0
 12 61  1  6  0  0  0
 13 14  1  0  0  0  0
 13 62  1  0  0  0  0
 13 63  1  0  0  0  0
 14 15  2  0  0  0  0
 15 16  1  0  0  0  0
 15 64  1  0  0  0  0
 16 17  2  0  0  0  0
 16 65  1  0  0  0  0
 17 18  1  0  0  0  0
 17 66  1  0  0  0  0
 18 19  2  0  0  0  0
 18 67  1  0  0  0  0
 19 14  1  0  0  0  0
 19 68  1  0  0  0  0
 20 21  2  0  0  0  0
 20 22  1  0  0  0  0
 22 23  1  0  0  0  0
 22 69  1  0  0  0  0
 23 24  1  0  0  0  0
 23 45  1  0  0  0  0
 23 70  1  1  0  0  0
 24 25  1  0  0  0  0
 24 44  2  0  0  0  0
 25 26  1  0  0  0  0
 25 71  1  0  0  0  0
 26 27  1  0  0  0  0
 26 39  1  0  0  0  0
 26 72  1  6  0  0  0
 27 28  2  0  0  0  0
 27 29  1  0  0  0  0
 29 30  1  0  0  0  0
 29 34  1  0  0  0  0
 30 31  1  0  0  0  0
 30 73  1  0  0  0  0
 30 74  1  0  0  0  0
 31 32  1  0  0  0  0
 31 75  1  0  0  0  0
 31 76  1  0  0  0  0
 32 33  1  0  0  0  0
 32 35  1  0  0  0  0
 32 38  1  0  0  0  0
 33 34  1  0  0  0  0
 33 77  1  0  0  0  0
 33 78  1  0  0  0  0
 34 79  1  0  0  0  0
 34 80  1  0  0  0  0
 35 36  1  0  0  0  0
 35 37  2  0  0  0  0
 36 81  1  0  0  0  0
 38 82  1  0  0  0  0
 38 83  1  0  0  0  0
 39 40  1  0  0  0  0
 39 84  1  0  0  0  0
 39 85  1  0  0  0  0
 40 41  1  0  0  0  0
 40 86  1  0  0  0  0
 40 87  1  0  0  0  0
 41 42  1  0  0  0  0
 41 88  1  0  0  0  0
 41 89  1  0  0  0  0
 42 43  1  0  0  0  0
 42 90  1  0  0  0  0
 42 91  1  0  0  0  0
 43 92  1  0  0  0  0
 43 93  1  0  0  0  0
 45 46  1  0  0  0  0
 45 94  1  0  0  0  0
 45 95  1  0  0  0  0
 46 47  1  0  0  0  0
 46 48  1  0  0  0  0
 46 96  1  0  0  0  0
 47 97  1  0  0  0  0
 47 98  1  0  0  0  0
 47 99  1  0  0  0  0
 48100  1  0  0  0  0
 48101  1  0  0  0  0
 48102  1  0  0  0  0
M  END
>  <DRUGBANK_ID>
DB11938

>  <COMMON_NAME>
Difelikefalin

>  <CAS_NUMBER>
1024828-77-0

>  <UNII>
NA1U919MRO

>  <SYNONYMS>
Difelikefalin

$$$$
