
 OpenBabel10282417072D

 45 47  0  0  1  0  0  0  0  0999 V2000
   -1.4232    1.3660    0.0000 C   0  0  0  0  0  0  0  0  0  0  0  0
    3.3523    1.1104    0.0000 C   0  0  0  0  0  0  0  0  0  0  0  0
    3.3523    1.9354    0.0000 C   0  0  0  0  0  0  0  0  0  0  0  0
    2.6378    0.6979    0.0000 C   0  0  0  0  0  0  0  0  0  0  0  0
    0.8838    2.9750    0.0000 C   0  0  0  0  0  0  0  0  0  0  0  0
    0.6538    1.5229    0.0000 C   0  0  0  0  0  0  0  0  0  0  0  0
   -1.6313    4.4271    0.0000 C   0  0  0  0  0  0  0  0  0  0  0  0
   -2.0907    1.8510    0.0000 C   0  0  1  0  0  0  0  0  0  0  0  0
    1.1387    2.1904    0.0000 C   0  0  0  0  0  0  0  0  0  0  0  0
    2.6378    2.3479    0.0000 C   0  0  0  0  0  0  0  0  0  0  0  0
    1.9233    1.1104    0.0000 C   0  0  0  0  0  0  0  0  0  0  0  0
    0.0768    3.1465    0.0000 C   0  0  0  0  0  0  0  0  0  0  0  0
   -1.3763    5.2117    0.0000 C   0  0  0  0  0  0  0  0  0  0  0  0
    1.9233    1.9354    0.0000 C   0  0  0  0  0  0  0  0  0  0  0  0
   -2.0044    2.6714    0.0000 C   0  0  1  0  0  0  0  0  0  0  0  0
   -1.2508    3.0070    0.0000 C   0  0  0  0  0  0  0  0  0  0  0  0
   -0.2587    3.9002    0.0000 C   0  0  0  0  0  0  0  0  0  0  0  0
    2.6378    3.1729    0.0000 F   0  0  0  0  0  0  0  0  0  0  0  0
   -2.6719    3.1564    0.0000 N   0  0  0  0  0  0  0  0  0  0  0  0
    1.1387    0.8555    0.0000 N   0  0  0  0  0  0  0  0  0  0  0  0
   -0.5363    2.5945    0.0000 N   0  0  0  0  0  0  0  0  0  0  0  0
   -1.0792    3.8140    0.0000 N   0  0  0  0  0  0  0  0  0  0  0  0
   -2.8443    1.5154    0.0000 O   0  0  0  0  0  0  0  0  0  0  0  0
   -1.9284    5.8248    0.0000 O   0  0  0  0  0  0  0  0  0  0  0  0
   -0.5693    5.3832    0.0000 O   0  0  0  0  0  0  0  0  0  0  0  0
    0.1538    4.6147    0.0000 O   0  0  0  0  0  0  0  0  0  0  0  0
   -1.4972    2.4241    0.0000 H   0  0  0  0  0  0  0  0  0  0  0  0
   -1.2114    2.4440    0.0000 H   0  0  0  0  0  0  0  0  0  0  0  0
   -1.5351    0.3019    0.0000 H   0  0  0  0  0  0  0  0  0  0  0  0
   -0.4457    1.8012    0.0000 H   0  0  0  0  0  0  0  0  0  0  0  0
   -0.5576    0.7370    0.0000 H   0  0  0  0  0  0  0  0  0  0  0  0
    4.2460    0.5944    0.0000 H   0  0  0  0  0  0  0  0  0  0  0  0
    4.2460    2.4514    0.0000 H   0  0  0  0  0  0  0  0  0  0  0  0
    2.6378   -0.3341    0.0000 H   0  0  0  0  0  0  0  0  0  0  0  0
    1.5998    3.7702    0.0000 H   0  0  0  0  0  0  0  0  0  0  0  0
    0.5531    3.9926    0.0000 H   0  0  0  0  0  0  0  0  0  0  0  0
   -0.3782    1.5229    0.0000 H   0  0  0  0  0  0  0  0  0  0  0  0
   -2.6779    4.2046    0.0000 H   0  0  0  0  0  0  0  0  0  0  0  0
   -1.9619    3.4095    0.0000 H   0  0  0  0  0  0  0  0  0  0  0  0
   -2.5652    4.1708    0.0000 H   0  0  0  0  0  0  0  0  0  0  0  0
   -3.6037    2.7416    0.0000 H   0  0  0  0  0  0  0  0  0  0  0  0
    0.8345   -0.0808    0.0000 H   0  0  0  0  0  0  0  0  0  0  0  0
   -3.6291    2.0855    0.0000 H   0  0  0  0  0  0  0  0  0  0  0  0
    0.0576    4.6868    0.0000 H   0  0  0  0  0  0  0  0  0  0  0  0
    1.0908    4.6147    0.0000 H   0  0  0  0  0  0  0  0  0  0  0  0
  1 29  1  0  0  0  0
  1 30  1  0  0  0  0
  1 31  1  0  0  0  0
  2 32  1  0  0  0  0
  3  2  2  0  0  0  0
  3 33  1  0  0  0  0
  4  2  1  0  0  0  0
  4 34  1  0  0  0  0
  5 35  1  0  0  0  0
  5 36  1  0  0  0  0
  6 37  1  0  0  0  0
  7 38  1  0  0  0  0
  7 39  1  0  0  0  0
  8  1  1  0  0  0  0
  8 23  1  0  0  0  0
  8 27  1  1  0  0  0
  9  5  1  0  0  0  0
  9  6  2  0  0  0  0
 10  3  1  0  0  0  0
 11  4  2  0  0  0  0
 12  5  1  0  0  0  0
 13  7  1  0  0  0  0
 14  9  1  0  0  0  0
 14 10  2  0  0  0  0
 14 11  1  0  0  0  0
 15  8  1  0  0  0  0
 15 19  1  0  0  0  0
 15 28  1  1  0  0  0
 16 15  1  0  0  0  0
 17 12  2  0  0  0  0
 18 10  1  0  0  0  0
 19 40  1  0  0  0  0
 19 41  1  0  0  0  0
 20  6  1  0  0  0  0
 20 11  1  0  0  0  0
 20 42  1  0  0  0  0
 21 12  1  0  0  0  0
 21 16  2  0  0  0  0
 22  7  1  0  0  0  0
 22 16  1  0  0  0  0
 22 17  1  0  0  0  0
 23 43  1  0  0  0  0
 24 13  2  0  0  0  0
 25 13  1  0  0  0  0
 25 44  1  0  0  0  0
 26 17  1  0  0  0  0
 26 45  1  0  0  0  0
M  END
>  <DRUGBANK_ID>
DB01674

>  <SECONDARY_ACCESSION_NUMBERS>
EXPT00211

>  <COMMON_NAME>
[2-(1-Amino-2-Hydroxy-Propyl)-4-(4-Fluoro-1h-Indol-3-Ylmethyl)-5-Hydroxy-Imidazol-1-Yl]-Acetic Acid

$$$$
