
 OpenBabel10282417072D

 63 65  0  0  1  0  0  0  0  0999 V2000
    1.0250   -0.6241    0.0000 C   0  0  0  0  0  0  0  0  0  0  0  0
    0.4730   -0.0110    0.0000 C   0  0  0  0  0  0  0  0  0  0  0  0
    0.7279    0.7736    0.0000 C   0  0  0  0  0  0  0  0  0  0  0  0
   -0.3340   -0.1826    0.0000 C   0  0  0  0  0  0  0  0  0  0  0  0
   -0.8860    0.4305    0.0000 N   0  0  0  0  0  0  0  0  0  0  0  0
   -1.7065    0.3443    0.0000 N   0  0  0  0  0  0  0  0  0  0  0  0
   -2.0420    1.0980    0.0000 C   0  0  0  0  0  0  0  0  0  0  0  0
   -1.4289    1.6500    0.0000 C   0  0  0  0  0  0  0  0  0  0  0  0
   -1.4289    2.4750    0.0000 C   0  0  0  0  0  0  0  0  0  0  0  0
   -0.7145    2.8875    0.0000 C   0  0  0  0  0  0  0  0  0  0  0  0
   -0.7145    3.7125    0.0000 O   0  0  0  0  0  0  0  0  0  0  0  0
   -1.4289    4.1250    0.0000 C   0  0  0  0  0  0  0  0  0  0  0  0
   -2.1434    3.7125    0.0000 C   0  0  0  0  0  0  0  0  0  0  0  0
   -2.8579    4.1250    0.0000 C   0  0  0  0  0  0  0  0  0  0  0  0
   -2.8579    4.9500    0.0000 C   0  0  0  0  0  0  0  0  0  0  0  0
   -3.5724    5.3625    0.0000 F   0  0  0  0  0  0  0  0  0  0  0  0
   -2.1434    5.3625    0.0000 C   0  0  0  0  0  0  0  0  0  0  0  0
   -1.4289    4.9500    0.0000 C   0  0  0  0  0  0  0  0  0  0  0  0
   -0.7145    5.3625    0.0000 F   0  0  0  0  0  0  0  0  0  0  0  0
    0.0000    2.4750    0.0000 C   0  0  0  0  0  0  0  0  0  0  0  0
    0.0000    1.6500    0.0000 C   0  0  0  0  0  0  0  0  0  0  0  0
   -0.7145    1.2375    0.0000 C   0  0  0  0  0  0  0  0  0  0  0  0
    0.7145    2.8875    0.0000 C   0  0  0  0  0  0  0  0  0  0  0  0
    0.7145    3.7125    0.0000 O   0  0  0  0  0  0  0  0  0  0  0  0
    1.4289    2.4750    0.0000 N   0  0  0  0  0  0  0  0  0  0  0  0
    2.1434    2.8875    0.0000 C   0  0  1  0  0  0  0  0  0  0  0  0
    2.8579    2.4750    0.0000 C   0  0  0  0  0  0  0  0  0  0  0  0
    3.5724    2.8875    0.0000 C   0  0  0  0  0  0  0  0  0  0  0  0
    4.2868    2.4750    0.0000 N   0  0  0  0  0  0  0  0  0  0  0  0
    5.0013    2.8875    0.0000 C   0  0  0  0  0  0  0  0  0  0  0  0
    4.2868    1.6500    0.0000 C   0  0  0  0  0  0  0  0  0  0  0  0
    2.1434    3.7125    0.0000 C   0  0  0  0  0  0  0  0  0  0  0  0
    2.8579    4.1250    0.0000 N   0  0  0  0  0  0  0  0  0  0  0  0
    1.4289    4.1250    0.0000 O   0  0  0  0  0  0  0  0  0  0  0  0
    0.6943   -1.6417    0.0000 H   0  0  0  0  0  0  0  0  0  0  0  0
    2.0716   -0.4017    0.0000 H   0  0  0  0  0  0  0  0  0  0  0  0
    1.7409   -1.4193    0.0000 H   0  0  0  0  0  0  0  0  0  0  0  0
   -0.2430    0.7841    0.0000 H   0  0  0  0  0  0  0  0  0  0  0  0
    1.7745    0.9961    0.0000 H   0  0  0  0  0  0  0  0  0  0  0  0
    0.0119    1.5687    0.0000 H   0  0  0  0  0  0  0  0  0  0  0  0
    1.0585    1.7912    0.0000 H   0  0  0  0  0  0  0  0  0  0  0  0
   -0.6646   -1.2002    0.0000 H   0  0  0  0  0  0  0  0  0  0  0  0
   -1.3806   -0.4051    0.0000 H   0  0  0  0  0  0  0  0  0  0  0  0
   -3.0514    1.3126    0.0000 H   0  0  0  0  0  0  0  0  0  0  0  0
   -2.3226    2.9910    0.0000 H   0  0  0  0  0  0  0  0  0  0  0  0
   -2.1434    2.6805    0.0000 H   0  0  0  0  0  0  0  0  0  0  0  0
   -3.7516    3.6090    0.0000 H   0  0  0  0  0  0  0  0  0  0  0  0
   -2.1434    6.3945    0.0000 H   0  0  0  0  0  0  0  0  0  0  0  0
    0.8937    1.1340    0.0000 H   0  0  0  0  0  0  0  0  0  0  0  0
    1.4289    1.4905    0.0000 H   0  0  0  0  0  0  0  0  0  0  0  0
    2.1434    1.8175    0.0000 H   0  0  0  0  0  0  0  0  0  0  0  0
    2.8579    1.4050    0.0000 H   0  0  0  0  0  0  0  0  0  0  0  0
    3.7845    1.9400    0.0000 H   0  0  0  0  0  0  0  0  0  0  0  0
    3.5724    3.9575    0.0000 H   0  0  0  0  0  0  0  0  0  0  0  0
    4.4991    3.4225    0.0000 H   0  0  0  0  0  0  0  0  0  0  0  0
    5.9279    2.3525    0.0000 H   0  0  0  0  0  0  0  0  0  0  0  0
    5.0013    3.9575    0.0000 H   0  0  0  0  0  0  0  0  0  0  0  0
    5.9280    3.4225    0.0000 H   0  0  0  0  0  0  0  0  0  0  0  0
    3.3602    1.1150    0.0000 H   0  0  0  0  0  0  0  0  0  0  0  0
    5.2134    1.1150    0.0000 H   0  0  0  0  0  0  0  0  0  0  0  0
    4.2868    0.5800    0.0000 H   0  0  0  0  0  0  0  0  0  0  0  0
    3.7105    3.6327    0.0000 H   0  0  0  0  0  0  0  0  0  0  0  0
    2.8579    5.1095    0.0000 H   0  0  0  0  0  0  0  0  0  0  0  0
  1  2  1  0  0  0  0
  1 35  1  0  0  0  0
  1 36  1  0  0  0  0
  1 37  1  0  0  0  0
  2  3  1  0  0  0  0
  2  4  1  0  0  0  0
  2 38  1  0  0  0  0
  3 39  1  0  0  0  0
  3 40  1  0  0  0  0
  3 41  1  0  0  0  0
  4  5  1  0  0  0  0
  4 42  1  0  0  0  0
  4 43  1  0  0  0  0
  5  6  1  0  0  0  0
  5 22  1  0  0  0  0
  6  7  2  0  0  0  0
  7  8  1  0  0  0  0
  7 44  1  0  0  0  0
  8  9  2  0  0  0  0
  8 22  1  0  0  0  0
  9 10  1  0  0  0  0
  9 45  1  0  0  0  0
 10 11  1  0  0  0  0
 10 20  2  0  0  0  0
 11 12  1  0  0  0  0
 12 13  2  0  0  0  0
 12 18  1  0  0  0  0
 13 14  1  0  0  0  0
 13 46  1  0  0  0  0
 14 15  2  0  0  0  0
 14 47  1  0  0  0  0
 15 16  1  0  0  0  0
 15 17  1  0  0  0  0
 17 18  2  0  0  0  0
 17 48  1  0  0  0  0
 18 19  1  0  0  0  0
 20 21  1  0  0  0  0
 20 23  1  0  0  0  0
 21 22  2  0  0  0  0
 21 49  1  0  0  0  0
 23 24  2  0  0  0  0
 23 25  1  0  0  0  0
 25 50  1  0  0  0  0
 26 25  1  0  0  0  0
 26 27  1  0  0  0  0
 26 32  1  0  0  0  0
 26 51  1  1  0  0  0
 27 28  1  0  0  0  0
 27 52  1  0  0  0  0
 27 53  1  0  0  0  0
 28 29  1  0  0  0  0
 28 54  1  0  0  0  0
 28 55  1  0  0  0  0
 29 30  1  0  0  0  0
 29 31  1  0  0  0  0
 30 56  1  0  0  0  0
 30 57  1  0  0  0  0
 30 58  1  0  0  0  0
 31 59  1  0  0  0  0
 31 60  1  0  0  0  0
 31 61  1  0  0  0  0
 32 33  1  0  0  0  0
 32 34  2  0  0  0  0
 33 62  1  0  0  0  0
 33 63  1  0  0  0  0
M  END
>  <DRUGBANK_ID>
DB17603

>  <COMMON_NAME>
Emprumapimod

>  <CAS_NUMBER>
765914-60-1

>  <UNII>
4JG61K4659

$$$$
