
 OpenBabel10282417072D

 33 33  0  0  0  0  0  0  0  0999 V2000
    1.0745    0.6181    0.0000 C   0  0  0  0  0  0  0  0  0  0  0  0
    1.0733   -0.2093    0.0000 C   0  0  0  0  0  0  0  0  0  0  0  0
    1.7882   -0.6221    0.0000 C   0  0  0  0  0  0  0  0  0  0  0  0
    2.5046   -0.2088    0.0000 C   0  0  0  0  0  0  0  0  0  0  0  0
    2.5017    0.6216    0.0000 C   0  0  0  0  0  0  0  0  0  0  0  0
    1.7864    1.0308    0.0000 C   0  0  0  0  0  0  0  0  0  0  0  0
    3.2147    1.0368    0.0000 O   0  0  0  0  0  0  0  0  0  0  0  0
    1.7839    1.8559    0.0000 O   0  0  0  0  0  0  0  0  0  0  0  0
    0.3599    1.0303    0.0000 O   0  0  0  0  0  0  0  0  0  0  0  0
    0.3586   -0.6212    0.0000 C   0  0  0  0  0  0  0  0  0  0  0  0
   -0.3555   -0.2081    0.0000 N   0  0  0  0  0  0  0  0  0  0  0  0
   -1.0703   -0.6201    0.0000 N   0  0  0  0  0  0  0  0  0  0  0  0
   -1.7844   -0.2069    0.0000 C   0  0  0  0  0  0  0  0  0  0  0  0
   -2.4992   -0.6188    0.0000 C   0  0  3  0  0  0  0  0  0  0  0  0
   -1.7838    0.6179    0.0000 O   0  0  0  0  0  0  0  0  0  0  0  0
   -3.2134   -0.2059    0.0000 N   0  0  0  0  0  0  0  0  0  0  0  0
   -2.4999   -1.4439    0.0000 C   0  0  0  0  0  0  0  0  0  0  0  0
   -3.2147   -1.8559    0.0000 O   0  0  0  0  0  0  0  0  0  0  0  0
    1.7880   -1.6541    0.0000 H   0  0  0  0  0  0  0  0  0  0  0  0
    3.3992   -0.7234    0.0000 H   0  0  0  0  0  0  0  0  0  0  0  0
    4.0279    0.5713    0.0000 H   0  0  0  0  0  0  0  0  0  0  0  0
    2.5939    2.3269    0.0000 H   0  0  0  0  0  0  0  0  0  0  0  0
    0.3595    1.9673    0.0000 H   0  0  0  0  0  0  0  0  0  0  0  0
    0.3577   -1.6912    0.0000 H   0  0  0  0  0  0  0  0  0  0  0  0
   -0.5685   -1.1554    0.0000 H   0  0  0  0  0  0  0  0  0  0  0  0
   -0.3547    0.8119    0.0000 H   0  0  0  0  0  0  0  0  0  0  0  0
   -1.0711   -1.6046    0.0000 H   0  0  0  0  0  0  0  0  0  0  0  0
   -2.4984    0.4512    0.0000 H   0  0  0  0  0  0  0  0  0  0  0  0
   -3.2128    0.8141    0.0000 H   0  0  0  0  0  0  0  0  0  0  0  0
   -4.0970   -0.7154    0.0000 H   0  0  0  0  0  0  0  0  0  0  0  0
   -1.5737   -1.9796    0.0000 H   0  0  0  0  0  0  0  0  0  0  0  0
   -2.5007   -2.5139    0.0000 H   0  0  0  0  0  0  0  0  0  0  0  0
   -4.0544   -1.3703    0.0000 H   0  0  0  0  0  0  0  0  0  0  0  0
  1  9  1  0  0  0  0
  1  2  2  0  0  0  0
  2 10  1  0  0  0  0
  2  3  1  0  0  0  0
  3  4  2  0  0  0  0
  3 19  1  0  0  0  0
  4  5  1  0  0  0  0
  4 20  1  0  0  0  0
  5  6  2  0  0  0  0
  5  7  1  0  0  0  0
  6  1  1  0  0  0  0
  6  8  1  0  0  0  0
  7 21  1  0  0  0  0
  8 22  1  0  0  0  0
  9 23  1  0  0  0  0
 10 11  1  0  0  0  0
 10 24  1  0  0  0  0
 10 25  1  0  0  0  0
 11 12  1  0  0  0  0
 11 26  1  0  0  0  0
 12 13  1  0  0  0  0
 12 27  1  0  0  0  0
 13 14  1  0  0  0  0
 13 15  2  0  0  0  0
 14 16  1  0  0  0  0
 14 17  1  0  0  0  0
 14 28  1  0  0  0  0
 16 29  1  0  0  0  0
 16 30  1  0  0  0  0
 17 18  1  0  0  0  0
 17 31  1  0  0  0  0
 17 32  1  0  0  0  0
 18 33  1  0  0  0  0
M  END
>  <DRUGBANK_ID>
DB12783

>  <COMMON_NAME>
Benserazide

>  <CAS_NUMBER>
322-35-0

>  <UNII>
762OS3ZEJU

>  <SYNONYMS>
benserazida; Benserazide; benserazidum

$$$$
