
 OpenBabel10282417072D

141144  0  0  0  0  0  0  0  0999 V2000
    3.8770   -1.8292    0.0000 C   0  0  1  0  0  0  0  0  0  0  0  0
    3.4689   -2.5434    0.0000 C   0  0  1  0  0  0  0  0  0  0  0  0
    2.6381   -2.5434    0.0000 C   0  0  2  0  0  0  0  0  0  0  0  0
   -4.1685   -0.0364    0.0000 C   0  0  2  0  0  0  0  0  0  0  0  0
   -4.9896   -0.0364    0.0000 C   0  0  1  0  0  0  0  0  0  0  0  0
   -3.7604    0.6777    0.0000 C   0  0  1  0  0  0  0  0  0  0  0  0
    3.4689   -1.1150    0.0000 O   0  0  0  0  0  0  0  0  0  0  0  0
    1.9530    0.6777    0.0000 C   0  0  2  0  0  0  0  0  0  0  0  0
    3.8721   -0.7360    0.0000 O   0  0  0  0  0  0  0  0  0  0  0  0
   -4.1685    1.3919    0.0000 O   0  0  0  0  0  0  0  0  0  0  0  0
    2.2251   -1.8292    0.0000 C   0  0  1  0  0  0  0  0  0  0  0  0
   -5.4074    0.6777    0.0000 C   0  0  1  0  0  0  0  0  0  0  0  0
    1.2388    0.2696    0.0000 C   0  0  2  0  0  0  0  0  0  0  0  0
   -0.1894   -0.5611    0.0000 C   0  0  0  0  0  0  0  0  0  0  0  0
   -0.9036   -0.9838    0.0000 O   0  0  0  0  0  0  0  0  0  0  0  0
    0.5247   -0.9692    0.0000 C   0  0  0  0  0  0  0  0  0  0  0  0
    2.6381   -1.1150    0.0000 C   0  0  1  0  0  0  0  0  0  0  0  0
   -4.9896    1.3919    0.0000 C   0  0  1  0  0  0  0  0  0  0  0  0
    1.2388   -0.5562    0.0000 C   0  0  1  0  0  0  0  0  0  0  0  0
    1.9530    1.4939    0.0000 C   0  0  2  0  0  0  0  0  0  0  0  0
    4.0956    1.9166    0.0000 N   0  0  0  0  0  0  0  0  0  0  0  0
   -1.6178    0.2550    0.0000 C   0  0  1  0  0  0  0  0  0  0  0  0
   -0.9036    0.6680    0.0000 C   0  0  0  0  0  0  0  0  0  0  0  0
   -0.1894    2.7183    0.0000 C   0  0  0  0  0  0  0  0  0  0  0  0
    0.5247    3.1313    0.0000 C   0  0  0  0  0  0  0  0  0  0  0  0
   -1.6178   -0.5708    0.0000 C   0  0  1  0  0  0  0  0  0  0  0  0
   -0.9036    1.4939    0.0000 C   0  0  0  0  0  0  0  0  0  0  0  0
    1.2388    1.9020    0.0000 C   0  0  0  0  0  0  0  0  0  0  0  0
   -0.1894    1.9020    0.0000 C   0  0  0  0  0  0  0  0  0  0  0  0
   -3.0462    0.2599    0.0000 O   0  0  0  0  0  0  0  0  0  0  0  0
    2.2300   -3.2576    0.0000 N   0  0  0  0  0  0  0  0  0  0  0  0
    1.2388    2.7232    0.0000 C   0  0  1  0  0  0  0  0  0  0  0  0
   -2.3320    0.6680    0.0000 C   0  0  0  0  0  0  0  0  0  0  0  0
   -0.2040    0.2696    0.0000 O   0  0  0  0  0  0  0  0  0  0  0  0
    2.6672    1.9166    0.0000 C   0  0  0  0  0  0  0  0  0  0  0  0
    0.5198    3.9571    0.0000 O   0  0  0  0  0  0  0  0  0  0  0  0
    4.8098    1.4939    0.0000 C   0  0  0  0  0  0  0  0  0  0  0  0
    4.0956    2.7328    0.0000 C   0  0  0  0  0  0  0  0  0  0  0  0
    3.3814    1.4988    0.0000 C   0  0  0  0  0  0  0  0  0  0  0  0
    3.8770   -3.2576    0.0000 O   0  0  0  0  0  0  0  0  0  0  0  0
   -3.7507   -0.7506    0.0000 O   0  0  0  0  0  0  0  0  0  0  0  0
   -5.4074   -0.7506    0.0000 O   0  0  0  0  0  0  0  0  0  0  0  0
   -6.2382    0.6777    0.0000 O   0  0  0  0  0  0  0  0  0  0  0  0
    1.3992   -1.8292    0.0000 O   0  0  0  0  0  0  0  0  0  0  0  0
    5.5240    1.9070    0.0000 C   0  0  2  0  0  0  0  0  0  0  0  0
    4.8098    3.1458    0.0000 C   0  0  1  0  0  0  0  0  0  0  0  0
    5.5240    2.7328    0.0000 C   0  0  0  0  0  0  0  0  0  0  0  0
    1.9530   -0.9644    0.0000 O   0  0  0  0  0  0  0  0  0  0  0  0
    0.5198    0.6826    0.0000 C   0  0  0  0  0  0  0  0  0  0  0  0
   -5.4074    2.1061    0.0000 C   0  0  0  0  0  0  0  0  0  0  0  0
    2.2300   -0.4008    0.0000 C   0  0  0  0  0  0  0  0  0  0  0  0
   -2.3320   -0.9838    0.0000 C   0  0  0  0  0  0  0  0  0  0  0  0
   -1.6178    1.9166    0.0000 C   0  0  0  0  0  0  0  0  0  0  0  0
    2.6381   -3.9718    0.0000 C   0  0  0  0  0  0  0  0  0  0  0  0
    1.3992   -3.2576    0.0000 C   0  0  0  0  0  0  0  0  0  0  0  0
    1.9530    3.1409    0.0000 C   0  0  0  0  0  0  0  0  0  0  0  0
    6.2382    1.4939    0.0000 C   0  0  0  0  0  0  0  0  0  0  0  0
    4.8098    3.9718    0.0000 C   0  0  0  0  0  0  0  0  0  0  0  0
   -4.1685   -1.4648    0.0000 C   0  0  0  0  0  0  0  0  0  0  0  0
   -6.2285   -0.7506    0.0000 C   0  0  0  0  0  0  0  0  0  0  0  0
   -2.3320   -1.8097    0.0000 C   0  0  0  0  0  0  0  0  0  0  0  0
    2.8422   -1.5569    0.0000 H   0  0  0  0  0  0  0  0  0  0  0  0
    4.5389   -2.5434    0.0000 H   0  0  0  0  0  0  0  0  0  0  0  0
    3.1752   -3.4688    0.0000 H   0  0  0  0  0  0  0  0  0  0  0  0
   -3.0985   -0.0310    0.0000 H   0  0  0  0  0  0  0  0  0  0  0  0
   -4.4572   -0.9646    0.0000 H   0  0  0  0  0  0  0  0  0  0  0  0
   -3.4841   -0.3560    0.0000 H   0  0  0  0  0  0  0  0  0  0  0  0
    1.8911   -0.3905    0.0000 H   0  0  0  0  0  0  0  0  0  0  0  0
    1.6904   -2.7560    0.0000 H   0  0  0  0  0  0  0  0  0  0  0  0
   -5.9397   -0.2505    0.0000 H   0  0  0  0  0  0  0  0  0  0  0  0
    1.2400    1.3396    0.0000 H   0  0  0  0  0  0  0  0  0  0  0  0
    0.5275   -2.0392    0.0000 H   0  0  0  0  0  0  0  0  0  0  0  0
    1.4522   -1.5027    0.0000 H   0  0  0  0  0  0  0  0  0  0  0  0
    3.1752   -0.1896    0.0000 H   0  0  0  0  0  0  0  0  0  0  0  0
   -4.4572    2.3201    0.0000 H   0  0  0  0  0  0  0  0  0  0  0  0
    1.2415   -1.6262    0.0000 H   0  0  0  0  0  0  0  0  0  0  0  0
    2.8825    0.9639    0.0000 H   0  0  0  0  0  0  0  0  0  0  0  0
   -2.5446   -0.2797    0.0000 H   0  0  0  0  0  0  0  0  0  0  0  0
   -0.0097    0.1523    0.0000 H   0  0  0  0  0  0  0  0  0  0  0  0
   -1.0833    3.2340    0.0000 H   0  0  0  0  0  0  0  0  0  0  0  0
   -2.5446   -0.0361    0.0000 H   0  0  0  0  0  0  0  0  0  0  0  0
    0.3134    1.3649    0.0000 H   0  0  0  0  0  0  0  0  0  0  0  0
    0.3116    2.4360    0.0000 H   0  0  0  0  0  0  0  0  0  0  0  0
    0.7032    1.3840    0.0000 H   0  0  0  0  0  0  0  0  0  0  0  0
    1.2334    3.7932    0.0000 H   0  0  0  0  0  0  0  0  0  0  0  0
   -2.3292    1.7380    0.0000 H   0  0  0  0  0  0  0  0  0  0  0  0
   -1.4045    1.2015    0.0000 H   0  0  0  0  0  0  0  0  0  0  0  0
    2.6645    2.9866    0.0000 H   0  0  0  0  0  0  0  0  0  0  0  0
    3.5947    2.4501    0.0000 H   0  0  0  0  0  0  0  0  0  0  0  0
    4.8044    0.4239    0.0000 H   0  0  0  0  0  0  0  0  0  0  0  0
    5.7353    0.9569    0.0000 H   0  0  0  0  0  0  0  0  0  0  0  0
    3.1688    3.2675    0.0000 H   0  0  0  0  0  0  0  0  0  0  0  0
    4.0950    3.8028    0.0000 H   0  0  0  0  0  0  0  0  0  0  0  0
    3.3814    0.4288    0.0000 H   0  0  0  0  0  0  0  0  0  0  0  0
    2.4532    0.9664    0.0000 H   0  0  0  0  0  0  0  0  0  0  0  0
    3.3883   -4.0955    0.0000 H   0  0  0  0  0  0  0  0  0  0  0  0
   -6.7232    1.5177    0.0000 H   0  0  0  0  0  0  0  0  0  0  0  0
    0.9142   -0.9892    0.0000 H   0  0  0  0  0  0  0  0  0  0  0  0
    5.5240    0.8370    0.0000 H   0  0  0  0  0  0  0  0  0  0  0  0
    3.8830    3.6805    0.0000 H   0  0  0  0  0  0  0  0  0  0  0  0
    6.4508    3.2675    0.0000 H   0  0  0  0  0  0  0  0  0  0  0  0
    6.4506    2.1976    0.0000 H   0  0  0  0  0  0  0  0  0  0  0  0
    1.9572   -1.9344    0.0000 H   0  0  0  0  0  0  0  0  0  0  0  0
    0.5174    1.7526    0.0000 H   0  0  0  0  0  0  0  0  0  0  0  0
   -0.4057    0.1456    0.0000 H   0  0  0  0  0  0  0  0  0  0  0  0
   -0.4080    1.2156    0.0000 H   0  0  0  0  0  0  0  0  0  0  0  0
   -4.8777    3.0358    0.0000 H   0  0  0  0  0  0  0  0  0  0  0  0
   -6.4774    2.1000    0.0000 H   0  0  0  0  0  0  0  0  0  0  0  0
   -5.9477    3.0297    0.0000 H   0  0  0  0  0  0  0  0  0  0  0  0
    2.7691    0.5234    0.0000 H   0  0  0  0  0  0  0  0  0  0  0  0
    1.1600   -0.3960    0.0000 H   0  0  0  0  0  0  0  0  0  0  0  0
    1.6991    0.5282    0.0000 H   0  0  0  0  0  0  0  0  0  0  0  0
   -3.2588   -0.4491    0.0000 H   0  0  0  0  0  0  0  0  0  0  0  0
   -3.2586   -1.5190    0.0000 H   0  0  0  0  0  0  0  0  0  0  0  0
   -1.6062    2.9865    0.0000 H   0  0  0  0  0  0  0  0  0  0  0  0
   -2.5502    1.3916    0.0000 H   0  0  0  0  0  0  0  0  0  0  0  0
   -2.5386    2.4616    0.0000 H   0  0  0  0  0  0  0  0  0  0  0  0
    2.0990   -4.8960    0.0000 H   0  0  0  0  0  0  0  0  0  0  0  0
    3.7081   -3.9766    0.0000 H   0  0  0  0  0  0  0  0  0  0  0  0
    3.1690   -4.9008    0.0000 H   0  0  0  0  0  0  0  0  0  0  0  0
    0.8642   -2.3310    0.0000 H   0  0  0  0  0  0  0  0  0  0  0  0
    0.8642   -4.1842    0.0000 H   0  0  0  0  0  0  0  0  0  0  0  0
    0.3292   -3.2576    0.0000 H   0  0  0  0  0  0  0  0  0  0  0  0
    2.8826    2.6111    0.0000 H   0  0  0  0  0  0  0  0  0  0  0  0
    1.9470    4.2109    0.0000 H   0  0  0  0  0  0  0  0  0  0  0  0
    2.8766    3.6811    0.0000 H   0  0  0  0  0  0  0  0  0  0  0  0
    6.2374    0.4239    0.0000 H   0  0  0  0  0  0  0  0  0  0  0  0
    7.1653    2.0282    0.0000 H   0  0  0  0  0  0  0  0  0  0  0  0
    7.1644    0.9582    0.0000 H   0  0  0  0  0  0  0  0  0  0  0  0
    5.7364    4.5068    0.0000 H   0  0  0  0  0  0  0  0  0  0  0  0
    3.8832    4.5068    0.0000 H   0  0  0  0  0  0  0  0  0  0  0  0
    4.8098    5.0418    0.0000 H   0  0  0  0  0  0  0  0  0  0  0  0
   -5.2385   -1.4587    0.0000 H   0  0  0  0  0  0  0  0  0  0  0  0
   -3.6388   -2.3945    0.0000 H   0  0  0  0  0  0  0  0  0  0  0  0
   -4.7088   -2.3884    0.0000 H   0  0  0  0  0  0  0  0  0  0  0  0
   -6.7635    0.1760    0.0000 H   0  0  0  0  0  0  0  0  0  0  0  0
   -6.7635   -1.6772    0.0000 H   0  0  0  0  0  0  0  0  0  0  0  0
   -7.2985   -0.7506    0.0000 H   0  0  0  0  0  0  0  0  0  0  0  0
   -3.2586   -2.3447    0.0000 H   0  0  0  0  0  0  0  0  0  0  0  0
   -1.4054   -2.3447    0.0000 H   0  0  0  0  0  0  0  0  0  0  0  0
   -2.3320   -2.8797    0.0000 H   0  0  0  0  0  0  0  0  0  0  0  0
  1  9  1  0  0  0  0
  1 62  1  6  0  0  0
  2  1  1  0  0  0  0
  2 40  1  0  0  0  0
  2 63  1  1  0  0  0
  3  2  1  0  0  0  0
  3 31  1  0  0  0  0
  3 64  1  6  0  0  0
  4  6  1  0  0  0  0
  4 41  1  0  0  0  0
  4 65  1  1  0  0  0
  5  4  1  0  0  0  0
  5 42  1  0  0  0  0
  5 66  1  1  0  0  0
  6 30  1  0  0  0  0
  6 67  1  6  0  0  0
  7  1  1  0  0  0  0
  8  9  1  0  0  0  0
  8 68  1  1  0  0  0
 10  6  1  0  0  0  0
 11  3  1  0  0  0  0
 11 44  1  0  0  0  0
 11 17  1  0  0  0  0
 11 69  1  1  0  0  0
 12  5  1  0  0  0  0
 12 43  1  0  0  0  0
 12 18  1  0  0  0  0
 12 70  1  1  0  0  0
 13  8  1  0  0  0  0
 13 49  1  0  0  0  0
 13 71  1  1  0  0  0
 14 16  1  0  0  0  0
 15 14  1  0  0  0  0
 16 19  1  0  0  0  0
 16 72  1  0  0  0  0
 16 73  1  0  0  0  0
 17  7  1  0  0  0  0
 17 51  1  0  0  0  0
 17 74  1  6  0  0  0
 18 10  1  0  0  0  0
 18 50  1  0  0  0  0
 18 75  1  6  0  0  0
 19 13  1  0  0  0  0
 19 48  1  0  0  0  0
 19 76  1  1  0  0  0
 20  8  1  0  0  0  0
 20 35  1  0  0  0  0
 20 77  1  1  0  0  0
 21 39  1  0  0  0  0
 22 26  1  0  0  0  0
 22 33  1  0  0  0  0
 22 23  1  0  0  0  0
 22 78  1  6  0  0  0
 23 27  2  0  0  0  0
 23 79  1  0  0  0  0
 24 25  1  0  0  0  0
 24 80  1  0  0  0  0
 25 32  1  0  0  0  0
 26 15  1  0  0  0  0
 26 52  1  0  0  0  0
 26 81  1  1  0  0  0
 27 29  1  0  0  0  0
 28 20  1  0  0  0  0
 28 82  1  0  0  0  0
 28 83  1  0  0  0  0
 29 24  2  0  0  0  0
 29 84  1  0  0  0  0
 30 33  1  0  0  0  0
 32 28  1  0  0  0  0
 32 56  1  0  0  0  0
 32 85  1  1  0  0  0
 33 86  1  0  0  0  0
 33 87  1  0  0  0  0
 34 14  2  0  0  0  0
 35 88  1  0  0  0  0
 35 89  1  0  0  0  0
 36 25  2  0  0  0  0
 37 21  1  0  0  0  0
 37 90  1  0  0  0  0
 37 91  1  0  0  0  0
 38 21  1  0  0  0  0
 38 92  1  0  0  0  0
 38 93  1  0  0  0  0
 39 35  1  0  0  0  0
 39 94  1  0  0  0  0
 39 95  1  0  0  0  0
 40 96  1  0  0  0  0
 43 97  1  0  0  0  0
 44 98  1  0  0  0  0
 45 37  1  0  0  0  0
 45 57  1  0  0  0  0
 45 99  1  1  0  0  0
 46 38  1  0  0  0  0
 46 58  1  0  0  0  0
 46100  1  1  0  0  0
 47 46  1  0  0  0  0
 47 45  1  0  0  0  0
 47101  1  0  0  0  0
 47102  1  0  0  0  0
 48103  1  0  0  0  0
 49104  1  0  0  0  0
 49105  1  0  0  0  0
 49106  1  0  0  0  0
 50107  1  0  0  0  0
 50108  1  0  0  0  0
 50109  1  0  0  0  0
 51110  1  0  0  0  0
 51111  1  0  0  0  0
 51112  1  0  0  0  0
 52113  1  0  0  0  0
 52114  1  0  0  0  0
 53 27  1  0  0  0  0
 53115  1  0  0  0  0
 53116  1  0  0  0  0
 53117  1  0  0  0  0
 54 31  1  0  0  0  0
 54118  1  0  0  0  0
 54119  1  0  0  0  0
 54120  1  0  0  0  0
 55 31  1  0  0  0  0
 55121  1  0  0  0  0
 55122  1  0  0  0  0
 55123  1  0  0  0  0
 56124  1  0  0  0  0
 56125  1  0  0  0  0
 56126  1  0  0  0  0
 57127  1  0  0  0  0
 57128  1  0  0  0  0
 57129  1  0  0  0  0
 58130  1  0  0  0  0
 58131  1  0  0  0  0
 58132  1  0  0  0  0
 59 41  1  0  0  0  0
 59133  1  0  0  0  0
 59134  1  0  0  0  0
 59135  1  0  0  0  0
 60 42  1  0  0  0  0
 60136  1  0  0  0  0
 60137  1  0  0  0  0
 60138  1  0  0  0  0
 61 52  1  0  0  0  0
 61139  1  0  0  0  0
 61140  1  0  0  0  0
 61141  1  0  0  0  0
M  END
>  <DRUGBANK_ID>
DB11471

>  <COMMON_NAME>
Tilmicosin

>  <CAS_NUMBER>
108050-54-0

>  <UNII>
XL4103X2E3

>  <SYNONYMS>
Tilmicosin

$$$$
