
 OpenBabel10282417072D

 67 70  0  0  1  0  0  0  0  0999 V2000
   -8.7723    3.4050    0.0000 C   0  0  0  0  0  0  0  0  0  0  0  0
   -8.7723    2.5800    0.0000 C   0  0  0  0  0  0  0  0  0  0  0  0
   -8.0579    2.1675    0.0000 C   0  0  0  0  0  0  0  0  0  0  0  0
   -8.0579    1.3425    0.0000 C   0  0  1  0  0  0  0  0  0  0  0  0
   -8.7723    0.9300    0.0000 C   0  0  1  0  0  0  0  0  0  0  0  0
   -9.4868    1.3425    0.0000 C   0  0  0  0  0  0  0  0  0  0  0  0
   -9.5730    2.1630    0.0000 C   0  0  0  0  0  0  0  0  0  0  0  0
  -10.3800    2.3345    0.0000 N   0  0  0  0  0  0  0  0  0  0  0  0
  -10.7925    1.6200    0.0000 C   0  0  0  0  0  0  0  0  0  0  0  0
  -10.2405    1.0070    0.0000 C   0  0  0  0  0  0  0  0  0  0  0  0
  -10.4954    0.2223    0.0000 C   0  0  0  0  0  0  0  0  0  0  0  0
  -11.3024    0.0508    0.0000 C   0  0  0  0  0  0  0  0  0  0  0  0
  -11.5573   -0.7338    0.0000 C   0  0  0  0  0  0  0  0  0  0  0  0
  -11.8544    0.6639    0.0000 C   0  0  0  0  0  0  0  0  0  0  0  0
  -11.5995    1.4485    0.0000 C   0  0  0  0  0  0  0  0  0  0  0  0
  -12.1515    2.0616    0.0000 F   0  0  0  0  0  0  0  0  0  0  0  0
   -8.7723    0.1050    0.0000 C   0  0  0  0  0  0  0  0  0  0  0  0
   -8.0579   -0.3075    0.0000 C   0  0  0  0  0  0  0  0  0  0  0  0
   -8.0579   -1.1325    0.0000 C   0  0  0  0  0  0  0  0  0  0  0  0
   -8.7723   -1.5450    0.0000 C   0  0  0  0  0  0  0  0  0  0  0  0
   -8.7723   -2.3700    0.0000 Cl  0  0  0  0  0  0  0  0  0  0  0  0
   -9.4868   -1.1325    0.0000 C   0  0  0  0  0  0  0  0  0  0  0  0
   -9.4868   -0.3075    0.0000 C   0  0  0  0  0  0  0  0  0  0  0  0
   -7.3434    0.9300    0.0000 C   0  0  0  0  0  0  0  0  0  0  0  0
   -6.6289    1.3425    0.0000 C   0  0  0  0  0  0  0  0  0  0  0  0
   -5.9145    0.9300    0.0000 C   0  0  0  0  0  0  0  0  0  0  0  0
   -5.9145    0.1050    0.0000 C   0  0  0  0  0  0  0  0  0  0  0  0
   -6.6289   -0.3075    0.0000 C   0  0  0  0  0  0  0  0  0  0  0  0
   -7.3434    0.1050    0.0000 C   0  0  0  0  0  0  0  0  0  0  0  0
   -5.2000   -0.3075    0.0000 C   0  0  0  0  0  0  0  0  0  0  0  0
   -5.2000   -1.1325    0.0000 O   0  0  0  0  0  0  0  0  0  0  0  0
   -4.4855    0.1050    0.0000 N   0  0  0  0  0  0  0  0  0  0  0  0
   -3.7710   -0.3075    0.0000 C   0  0  0  0  0  0  0  0  0  0  0  0
   -3.0566    0.1050    0.0000 C   0  0  0  0  0  0  0  0  0  0  0  0
   -2.3421   -0.3075    0.0000 C   0  0  0  0  0  0  0  0  0  0  0  0
   -1.6276    0.1050    0.0000 O   0  0  0  0  0  0  0  0  0  0  0  0
   -2.3421   -1.1325    0.0000 O   0  0  0  0  0  0  0  0  0  0  0  0
   -7.8457    3.9400    0.0000 H   0  0  0  0  0  0  0  0  0  0  0  0
   -9.6989    3.9400    0.0000 H   0  0  0  0  0  0  0  0  0  0  0  0
   -8.7723    4.4750    0.0000 H   0  0  0  0  0  0  0  0  0  0  0  0
   -9.6990    2.0450    0.0000 H   0  0  0  0  0  0  0  0  0  0  0  0
   -8.7723    1.5100    0.0000 H   0  0  0  0  0  0  0  0  0  0  0  0
   -7.1312    2.7025    0.0000 H   0  0  0  0  0  0  0  0  0  0  0  0
   -7.1313    1.6325    0.0000 H   0  0  0  0  0  0  0  0  0  0  0  0
   -8.9846    1.8775    0.0000 H   0  0  0  0  0  0  0  0  0  0  0  0
   -8.7723    2.0000    0.0000 H   0  0  0  0  0  0  0  0  0  0  0  0
   -8.8061    2.8535    0.0000 H   0  0  0  0  0  0  0  0  0  0  0  0
  -10.7805    3.2339    0.0000 H   0  0  0  0  0  0  0  0  0  0  0  0
   -9.8048   -0.5446    0.0000 H   0  0  0  0  0  0  0  0  0  0  0  0
  -12.6039   -0.9563    0.0000 H   0  0  0  0  0  0  0  0  0  0  0  0
  -10.8413   -1.5289    0.0000 H   0  0  0  0  0  0  0  0  0  0  0  0
  -11.8879   -1.7514    0.0000 H   0  0  0  0  0  0  0  0  0  0  0  0
  -12.8638    0.4493    0.0000 H   0  0  0  0  0  0  0  0  0  0  0  0
   -7.1642    0.2085    0.0000 H   0  0  0  0  0  0  0  0  0  0  0  0
   -7.1642   -1.6485    0.0000 H   0  0  0  0  0  0  0  0  0  0  0  0
  -10.3805   -1.6485    0.0000 H   0  0  0  0  0  0  0  0  0  0  0  0
  -10.3805    0.2085    0.0000 H   0  0  0  0  0  0  0  0  0  0  0  0
   -6.6289    2.3745    0.0000 H   0  0  0  0  0  0  0  0  0  0  0  0
   -5.0208    1.4460    0.0000 H   0  0  0  0  0  0  0  0  0  0  0  0
   -6.6289   -1.3395    0.0000 H   0  0  0  0  0  0  0  0  0  0  0  0
   -8.2371   -0.4110    0.0000 H   0  0  0  0  0  0  0  0  0  0  0  0
   -4.4855    1.0895    0.0000 H   0  0  0  0  0  0  0  0  0  0  0  0
   -3.7710   -1.3775    0.0000 H   0  0  0  0  0  0  0  0  0  0  0  0
   -2.8443   -0.8425    0.0000 H   0  0  0  0  0  0  0  0  0  0  0  0
   -3.0566    1.1750    0.0000 H   0  0  0  0  0  0  0  0  0  0  0  0
   -2.1300    0.6400    0.0000 H   0  0  0  0  0  0  0  0  0  0  0  0
   -0.8161   -0.3635    0.0000 H   0  0  0  0  0  0  0  0  0  0  0  0
  1  2  1  0  0  0  0
  1 38  1  0  0  0  0
  1 39  1  0  0  0  0
  1 40  1  0  0  0  0
  2  3  1  0  0  0  0
  2 41  1  0  0  0  0
  2 42  1  0  0  0  0
  3 43  1  0  0  0  0
  3 44  1  0  0  0  0
  4  3  1  0  0  0  0
  4  5  1  0  0  0  0
  4 24  1  0  0  0  0
  4 45  1  1  0  0  0
  5  6  1  0  0  0  0
  5 17  1  0  0  0  0
  5 46  1  1  0  0  0
  6  7  2  0  0  0  0
  6 10  1  0  0  0  0
  7  8  1  0  0  0  0
  7 47  1  0  0  0  0
  8  9  1  0  0  0  0
  8 48  1  0  0  0  0
  9 10  2  0  0  0  0
  9 15  1  0  0  0  0
 10 11  1  0  0  0  0
 11 12  2  0  0  0  0
 11 49  1  0  0  0  0
 12 13  1  0  0  0  0
 12 14  1  0  0  0  0
 13 50  1  0  0  0  0
 13 51  1  0  0  0  0
 13 52  1  0  0  0  0
 14 15  2  0  0  0  0
 14 53  1  0  0  0  0
 15 16  1  0  0  0  0
 17 18  2  0  0  0  0
 17 23  1  0  0  0  0
 18 19  1  0  0  0  0
 18 54  1  0  0  0  0
 19 20  2  0  0  0  0
 19 55  1  0  0  0  0
 20 21  1  0  0  0  0
 20 22  1  0  0  0  0
 22 23  2  0  0  0  0
 22 56  1  0  0  0  0
 23 57  1  0  0  0  0
 24 25  2  0  0  0  0
 24 29  1  0  0  0  0
 25 26  1  0  0  0  0
 25 58  1  0  0  0  0
 26 27  2  0  0  0  0
 26 59  1  0  0  0  0
 27 28  1  0  0  0  0
 27 30  1  0  0  0  0
 28 29  2  0  0  0  0
 28 60  1  0  0  0  0
 29 61  1  0  0  0  0
 30 31  2  0  0  0  0
 30 32  1  0  0  0  0
 32 33  1  0  0  0  0
 32 62  1  0  0  0  0
 33 34  1  0  0  0  0
 33 63  1  0  0  0  0
 33 64  1  0  0  0  0
 34 35  1  0  0  0  0
 34 65  1  0  0  0  0
 34 66  1  0  0  0  0
 35 36  1  0  0  0  0
 35 37  2  0  0  0  0
 36 67  1  0  0  0  0
M  END
>  <DRUGBANK_ID>
DB14957

>  <COMMON_NAME>
MK-3577

>  <CAS_NUMBER>
1019112-29-8

>  <UNII>
03TW1410NL

$$$$
