
 OpenBabel10282417072D

 52 51  0  0  0  0  0  0  0  0999 V2000
   -5.3625   -3.5724    0.0000 C   0  0  0  0  0  0  0  0  0  0  0  0
   -5.3625   -2.1434    0.0000 C   0  0  0  0  0  0  0  0  0  0  0  0
   -2.8875   -0.7145    0.0000 C   0  0  0  0  0  0  0  0  0  0  0  0
   -0.4125    0.7145    0.0000 C   0  0  0  0  0  0  0  0  0  0  0  0
   -3.7125   -2.1434    0.0000 C   0  0  0  0  0  0  0  0  0  0  0  0
   -1.2375   -0.7145    0.0000 C   0  0  0  0  0  0  0  0  0  0  0  0
   -4.1250   -2.8579    0.0000 C   0  0  0  0  0  0  0  0  0  0  0  0
   -2.8875   -2.1434    0.0000 C   0  0  0  0  0  0  0  0  0  0  0  0
   -1.6500   -1.4289    0.0000 C   0  0  0  0  0  0  0  0  0  0  0  0
   -0.4125   -0.7145    0.0000 C   0  0  0  0  0  0  0  0  0  0  0  0
    0.8250    0.0000    0.0000 C   0  0  0  0  0  0  0  0  0  0  0  0
    1.2375    0.7145    0.0000 C   0  0  0  0  0  0  0  0  0  0  0  0
   -4.9500   -2.8579    0.0000 C   0  0  0  0  0  0  0  0  0  0  0  0
   -2.4750   -1.4289    0.0000 C   0  0  0  0  0  0  0  0  0  0  0  0
    0.0000    0.0000    0.0000 C   0  0  0  0  0  0  0  0  0  0  0  0
    0.8250    4.2868    0.0000 O   0  0  0  0  0  0  0  0  0  0  0  0
    1.9520    3.9849    0.0000 O   0  0  0  0  0  0  0  0  0  0  0  0
    0.5230    3.1599    0.0000 O   0  0  0  0  0  0  0  0  0  0  0  0
    1.9520    1.7309    0.0000 O   0  0  0  0  0  0  0  0  0  0  0  0
    0.5230    2.5559    0.0000 O   0  0  0  0  0  0  0  0  0  0  0  0
    1.6500    2.8579    0.0000 O   0  0  0  0  0  0  0  0  0  0  0  0
    1.2375    3.5724    0.0000 P   0  0  0  0  0  0  0  0  0  0  0  0
    1.2375    2.1434    0.0000 P   0  0  3  0  0  0  0  0  0  0  0  0
    0.8250    1.4289    0.0000 S   0  0  0  0  0  0  0  0  0  0  0  0
   -1.2375   -2.1434    0.0000 H   0  0  0  0  0  0  0  0  0  0  0  0
    1.2375   -0.7145    0.0000 H   0  0  0  0  0  0  0  0  0  0  0  0
   -6.4325   -3.5724    0.0000 H   0  0  0  0  0  0  0  0  0  0  0  0
   -4.8275   -4.4990    0.0000 H   0  0  0  0  0  0  0  0  0  0  0  0
   -5.8975   -4.4991    0.0000 H   0  0  0  0  0  0  0  0  0  0  0  0
   -4.8275   -1.2168    0.0000 H   0  0  0  0  0  0  0  0  0  0  0  0
   -6.4325   -2.1434    0.0000 H   0  0  0  0  0  0  0  0  0  0  0  0
   -5.8975   -1.2167    0.0000 H   0  0  0  0  0  0  0  0  0  0  0  0
   -2.3525    0.2122    0.0000 H   0  0  0  0  0  0  0  0  0  0  0  0
   -3.9575   -0.7145    0.0000 H   0  0  0  0  0  0  0  0  0  0  0  0
   -3.4225    0.2121    0.0000 H   0  0  0  0  0  0  0  0  0  0  0  0
    0.1225    1.6411    0.0000 H   0  0  0  0  0  0  0  0  0  0  0  0
   -1.4825    0.7145    0.0000 H   0  0  0  0  0  0  0  0  0  0  0  0
   -0.9475    1.6412    0.0000 H   0  0  0  0  0  0  0  0  0  0  0  0
   -4.2475   -1.2168    0.0000 H   0  0  0  0  0  0  0  0  0  0  0  0
   -3.1775   -1.2168    0.0000 H   0  0  0  0  0  0  0  0  0  0  0  0
   -1.7725    0.2122    0.0000 H   0  0  0  0  0  0  0  0  0  0  0  0
   -0.7025    0.2121    0.0000 H   0  0  0  0  0  0  0  0  0  0  0  0
   -3.6090   -3.7516    0.0000 H   0  0  0  0  0  0  0  0  0  0  0  0
   -2.3525   -3.0700    0.0000 H   0  0  0  0  0  0  0  0  0  0  0  0
   -1.8175   -2.1434    0.0000 H   0  0  0  0  0  0  0  0  0  0  0  0
    0.1225   -1.6411    0.0000 H   0  0  0  0  0  0  0  0  0  0  0  0
    0.6575   -0.7145    0.0000 H   0  0  0  0  0  0  0  0  0  0  0  0
    2.3075    0.7145    0.0000 H   0  0  0  0  0  0  0  0  0  0  0  0
    1.7725    1.6412    0.0000 H   0  0  0  0  0  0  0  0  0  0  0  0
    1.3100    5.1269    0.0000 H   0  0  0  0  0  0  0  0  0  0  0  0
    2.7920    3.4999    0.0000 H   0  0  0  0  0  0  0  0  0  0  0  0
    1.9520    0.7609    0.0000 H   0  0  0  0  0  0  0  0  0  0  0  0
  1 27  1  0  0  0  0
  1 28  1  0  0  0  0
  1 29  1  0  0  0  0
  2 30  1  0  0  0  0
  2 31  1  0  0  0  0
  2 32  1  0  0  0  0
  3 33  1  0  0  0  0
  3 34  1  0  0  0  0
  3 35  1  0  0  0  0
  4 36  1  0  0  0  0
  4 37  1  0  0  0  0
  4 38  1  0  0  0  0
  5 39  1  0  0  0  0
  5 40  1  0  0  0  0
  6 41  1  0  0  0  0
  6 42  1  0  0  0  0
  7  5  1  0  0  0  0
  7 43  1  0  0  0  0
  8  5  1  0  0  0  0
  8 44  1  0  0  0  0
  8 45  1  0  0  0  0
  9  6  1  0  0  0  0
 10  6  1  0  0  0  0
 10 46  1  0  0  0  0
 10 47  1  0  0  0  0
 12 11  1  0  0  0  0
 12 48  1  0  0  0  0
 12 49  1  0  0  0  0
 13  1  1  0  0  0  0
 13  2  1  0  0  0  0
 13  7  2  0  0  0  0
 14  3  1  0  0  0  0
 14  8  1  0  0  0  0
 14  9  2  0  0  0  0
 15  4  1  0  0  0  0
 15 10  1  0  0  0  0
 15 11  2  0  0  0  0
 16 50  1  0  0  0  0
 17 51  1  0  0  0  0
 19 52  1  0  0  0  0
 22 16  1  0  0  0  0
 22 17  1  0  0  0  0
 22 18  2  0  0  0  0
 22 21  1  0  0  0  0
 23 19  1  0  0  0  0
 23 20  2  0  0  0  0
 23 21  1  0  0  0  0
 24 12  1  0  0  0  0
 24 23  1  0  0  0  0
 25  9  1  0  0  0  0
 26 11  1  0  0  0  0
M  END
>  <DRUGBANK_ID>
DB04695

>  <COMMON_NAME>
Farnesyl thiopyrophosphate

>  <SYNONYMS>
Farnesyl thiodiphosphate

$$$$
