
 OpenBabel10282417072D

 68 70  0  0  1  0  0  0  0  0999 V2000
    1.4289   -4.1250    0.0000 C   0  0  0  0  0  0  0  0  0  0  0  0
    2.1434   -3.7125    0.0000 C   0  0  0  0  0  0  0  0  0  0  0  0
    2.8579   -4.1250    0.0000 C   0  0  0  0  0  0  0  0  0  0  0  0
    3.5724   -3.7125    0.0000 C   0  0  0  0  0  0  0  0  0  0  0  0
    4.2868   -4.1250    0.0000 C   0  0  0  0  0  0  0  0  0  0  0  0
    5.0013   -3.7125    0.0000 C   0  0  1  0  0  0  0  0  0  0  0  0
    5.7158   -4.1250    0.0000 C   0  0  0  0  0  0  0  0  0  0  0  0
    6.4302   -3.7125    0.0000 C   0  0  0  0  0  0  0  0  0  0  0  0
    7.1447   -4.1250    0.0000 C   0  0  0  0  0  0  0  0  0  0  0  0
    7.1447   -4.9500    0.0000 C   0  0  0  0  0  0  0  0  0  0  0  0
    6.4302   -5.3625    0.0000 C   0  0  0  0  0  0  0  0  0  0  0  0
    5.7158   -4.9500    0.0000 C   0  0  0  0  0  0  0  0  0  0  0  0
    7.8592   -5.3625    0.0000 N   0  0  0  0  0  0  0  0  0  0  0  0
    8.6129   -5.0269    0.0000 C   0  0  2  0  0  0  0  0  0  0  0  0
    9.1649   -5.6400    0.0000 C   0  0  0  0  0  0  0  0  0  0  0  0
    8.7524   -6.3545    0.0000 C   0  0  0  0  0  0  0  0  0  0  0  0
    7.9454   -6.1830    0.0000 C   0  0  0  0  0  0  0  0  0  0  0  0
    7.3323   -6.7350    0.0000 O   0  0  0  0  0  0  0  0  0  0  0  0
    8.7844   -4.2200    0.0000 C   0  0  0  0  0  0  0  0  0  0  0  0
    9.5690   -3.9650    0.0000 O   0  0  0  0  0  0  0  0  0  0  0  0
   10.1821   -4.5171    0.0000 C   0  0  0  0  0  0  0  0  0  0  0  0
   10.9667   -4.2621    0.0000 C   0  0  0  0  0  0  0  0  0  0  0  0
   11.2217   -3.4775    0.0000 C   0  0  0  0  0  0  0  0  0  0  0  0
   12.0467   -3.4775    0.0000 C   0  0  0  0  0  0  0  0  0  0  0  0
   12.3016   -4.2621    0.0000 C   0  0  0  0  0  0  0  0  0  0  0  0
   11.6342   -4.7470    0.0000 S   0  0  0  0  0  0  0  0  0  0  0  0
   13.0862   -4.5171    0.0000 C   0  0  0  0  0  0  0  0  0  0  0  0
   13.2577   -5.3240    0.0000 O   0  0  0  0  0  0  0  0  0  0  0  0
   13.6993   -3.9650    0.0000 O   0  0  0  0  0  0  0  0  0  0  0  0
   14.4839   -4.2200    0.0000 C   0  0  0  0  0  0  0  0  0  0  0  0
   15.0970   -3.6679    0.0000 C   0  0  0  0  0  0  0  0  0  0  0  0
   14.6555   -5.0269    0.0000 C   0  0  0  0  0  0  0  0  0  0  0  0
    5.0013   -2.8875    0.0000 O   0  0  0  0  0  0  0  0  0  0  0  0
    0.5023   -3.5900    0.0000 H   0  0  0  0  0  0  0  0  0  0  0  0
    1.4289   -5.1950    0.0000 H   0  0  0  0  0  0  0  0  0  0  0  0
    0.5022   -4.6600    0.0000 H   0  0  0  0  0  0  0  0  0  0  0  0
    2.1434   -2.6425    0.0000 H   0  0  0  0  0  0  0  0  0  0  0  0
    3.0700   -3.1775    0.0000 H   0  0  0  0  0  0  0  0  0  0  0  0
    2.8579   -5.1950    0.0000 H   0  0  0  0  0  0  0  0  0  0  0  0
    3.7845   -4.6600    0.0000 H   0  0  0  0  0  0  0  0  0  0  0  0
    3.5724   -2.6425    0.0000 H   0  0  0  0  0  0  0  0  0  0  0  0
    4.4991   -3.1775    0.0000 H   0  0  0  0  0  0  0  0  0  0  0  0
    4.2868   -5.1950    0.0000 H   0  0  0  0  0  0  0  0  0  0  0  0
    5.2134   -4.6600    0.0000 H   0  0  0  0  0  0  0  0  0  0  0  0
    4.0747   -3.1775    0.0000 H   0  0  0  0  0  0  0  0  0  0  0  0
    6.4302   -2.6805    0.0000 H   0  0  0  0  0  0  0  0  0  0  0  0
    8.0384   -3.6090    0.0000 H   0  0  0  0  0  0  0  0  0  0  0  0
    6.4302   -6.3945    0.0000 H   0  0  0  0  0  0  0  0  0  0  0  0
    4.8221   -5.4660    0.0000 H   0  0  0  0  0  0  0  0  0  0  0  0
    7.7813   -4.3535    0.0000 H   0  0  0  0  0  0  0  0  0  0  0  0
   10.2290   -5.5282    0.0000 H   0  0  0  0  0  0  0  0  0  0  0  0
    9.7477   -6.5374    0.0000 H   0  0  0  0  0  0  0  0  0  0  0  0
    9.1876   -7.3320    0.0000 H   0  0  0  0  0  0  0  0  0  0  0  0
    8.0791   -7.1861    0.0000 H   0  0  0  0  0  0  0  0  0  0  0  0
    7.9892   -3.5041    0.0000 H   0  0  0  0  0  0  0  0  0  0  0  0
    9.0068   -3.1734    0.0000 H   0  0  0  0  0  0  0  0  0  0  0  0
    9.9596   -5.5637    0.0000 H   0  0  0  0  0  0  0  0  0  0  0  0
   10.9773   -5.2330    0.0000 H   0  0  0  0  0  0  0  0  0  0  0  0
   10.6151   -2.6426    0.0000 H   0  0  0  0  0  0  0  0  0  0  0  0
   12.6533   -2.6426    0.0000 H   0  0  0  0  0  0  0  0  0  0  0  0
   15.5016   -4.5506    0.0000 H   0  0  0  0  0  0  0  0  0  0  0  0
   16.1146   -3.9985    0.0000 H   0  0  0  0  0  0  0  0  0  0  0  0
   14.8745   -2.6213    0.0000 H   0  0  0  0  0  0  0  0  0  0  0  0
   15.8921   -2.9519    0.0000 H   0  0  0  0  0  0  0  0  0  0  0  0
   13.8604   -5.7430    0.0000 H   0  0  0  0  0  0  0  0  0  0  0  0
   15.6732   -5.3574    0.0000 H   0  0  0  0  0  0  0  0  0  0  0  0
   14.8781   -6.0735    0.0000 H   0  0  0  0  0  0  0  0  0  0  0  0
    5.8413   -2.4025    0.0000 H   0  0  0  0  0  0  0  0  0  0  0  0
  1  2  1  0  0  0  0
  1 34  1  0  0  0  0
  1 35  1  0  0  0  0
  1 36  1  0  0  0  0
  2  3  1  0  0  0  0
  2 37  1  0  0  0  0
  2 38  1  0  0  0  0
  3  4  1  0  0  0  0
  3 39  1  0  0  0  0
  3 40  1  0  0  0  0
  4  5  1  0  0  0  0
  4 41  1  0  0  0  0
  4 42  1  0  0  0  0
  5  6  1  0  0  0  0
  5 43  1  0  0  0  0
  5 44  1  0  0  0  0
  6  7  1  0  0  0  0
  6 33  1  0  0  0  0
  6 45  1  1  0  0  0
  7  8  2  0  0  0  0
  7 12  1  0  0  0  0
  8  9  1  0  0  0  0
  8 46  1  0  0  0  0
  9 10  2  0  0  0  0
  9 47  1  0  0  0  0
 10 11  1  0  0  0  0
 10 13  1  0  0  0  0
 11 12  2  0  0  0  0
 11 48  1  0  0  0  0
 12 49  1  0  0  0  0
 13 14  1  0  0  0  0
 13 17  1  0  0  0  0
 14 15  1  0  0  0  0
 14 19  1  0  0  0  0
 14 50  1  6  0  0  0
 15 16  1  0  0  0  0
 15 51  1  0  0  0  0
 15 52  1  0  0  0  0
 16 17  1  0  0  0  0
 16 53  1  0  0  0  0
 16 54  1  0  0  0  0
 17 18  2  0  0  0  0
 19 20  1  0  0  0  0
 19 55  1  0  0  0  0
 19 56  1  0  0  0  0
 20 21  1  0  0  0  0
 21 22  1  0  0  0  0
 21 57  1  0  0  0  0
 21 58  1  0  0  0  0
 22 23  2  0  0  0  0
 22 26  1  0  0  0  0
 23 24  1  0  0  0  0
 23 59  1  0  0  0  0
 24 25  2  0  0  0  0
 24 60  1  0  0  0  0
 25 26  1  0  0  0  0
 25 27  1  0  0  0  0
 27 28  2  0  0  0  0
 27 29  1  0  0  0  0
 29 30  1  0  0  0  0
 30 31  1  0  0  0  0
 30 32  1  0  0  0  0
 30 61  1  0  0  0  0
 31 62  1  0  0  0  0
 31 63  1  0  0  0  0
 31 64  1  0  0  0  0
 32 65  1  0  0  0  0
 32 66  1  0  0  0  0
 32 67  1  0  0  0  0
 33 68  1  0  0  0  0
M  END
>  <DRUGBANK_ID>
DB12977

>  <COMMON_NAME>
Simenepag isopropyl

>  <CAS_NUMBER>
910562-13-9

>  <UNII>
8908HU0G4K

>  <SYNONYMS>
Simenepag isopropyl

$$$$
