
 OpenBabel10282417072D

 18 18  0  0  0  0  0  0  0  0999 V2000
    1.0716   -0.2204    0.0000 P   0  0  0  0  0  0  0  0  0  0  0  0
    1.0716    0.6046    0.0000 O   0  0  0  0  0  0  0  0  0  0  0  0
    1.7862   -0.6329    0.0000 O   0  0  0  0  0  0  0  0  0  0  0  0
    0.3572   -0.6329    0.0000 O   0  0  0  0  0  0  0  0  0  0  0  0
    0.8582   -1.0172    0.0000 O   0  0  0  0  0  0  0  0  0  0  0  0
   -0.3571   -0.2204    0.0000 C   0  0  0  0  0  0  0  0  0  0  0  0
   -1.0716    1.0172    0.0000 C   0  0  0  0  0  0  0  0  0  0  0  0
   -1.7861    0.6046    0.0000 C   0  0  0  0  0  0  0  0  0  0  0  0
   -1.7861   -0.2204    0.0000 C   0  0  0  0  0  0  0  0  0  0  0  0
   -1.0716   -0.6329    0.0000 C   0  0  0  0  0  0  0  0  0  0  0  0
   -0.3571    0.6046    0.0000 C   0  0  0  0  0  0  0  0  0  0  0  0
    1.7863   -1.6029    0.0000 H   0  0  0  0  0  0  0  0  0  0  0  0
   -0.0787   -1.2684    0.0000 H   0  0  0  0  0  0  0  0  0  0  0  0
   -1.0716    2.0492    0.0000 H   0  0  0  0  0  0  0  0  0  0  0  0
   -2.6799    1.1206    0.0000 H   0  0  0  0  0  0  0  0  0  0  0  0
   -2.6798   -0.7364    0.0000 H   0  0  0  0  0  0  0  0  0  0  0  0
   -1.0716   -1.6649    0.0000 H   0  0  0  0  0  0  0  0  0  0  0  0
    0.5367    1.1206    0.0000 H   0  0  0  0  0  0  0  0  0  0  0  0
  1  2  2  0  0  0  0
  1  3  1  0  0  0  0
  1  4  1  0  0  0  0
  1  5  1  0  0  0  0
  3 12  1  0  0  0  0
  4  6  1  0  0  0  0
  5 13  1  0  0  0  0
  6 11  1  0  0  0  0
  7  8  1  0  0  0  0
  7 11  2  0  0  0  0
  7 14  1  0  0  0  0
  8  9  2  0  0  0  0
  8 15  1  0  0  0  0
  9 10  1  0  0  0  0
  9 16  1  0  0  0  0
 10  6  2  0  0  0  0
 10 17  1  0  0  0  0
 11 18  1  0  0  0  0
M  END
>  <DRUGBANK_ID>
DB03298

>  <SECONDARY_ACCESSION_NUMBERS>
EXPT01775

>  <COMMON_NAME>
Phenylphosphate

>  <CAS_NUMBER>
701-64-4

>  <UNII>
75M88J863E

>  <SYNONYMS>
Monophenylphosphate; Phenolic phosphate; Phenyl phosphate; Phenylphosphoric acid; Phosphoric acid, monophenyl ester

$$$$
