
 OpenBabel10282417072D

105111  0  0  1  0  0  0  0  0999 V2000
    0.3343    3.3935    0.0000 C   0  0  0  0  0  0  0  0  0  0  0  0
   -5.0012    7.0125    0.0000 C   0  0  0  0  0  0  0  0  0  0  0  0
   -0.7145    4.5375    0.0000 C   0  0  0  0  0  0  0  0  0  0  0  0
   -2.1434    3.7125    0.0000 C   0  0  0  0  0  0  0  0  0  0  0  0
    0.0000    7.4250    0.0000 C   0  0  0  0  0  0  0  0  0  0  0  0
    1.4289    7.4250    0.0000 C   0  0  0  0  0  0  0  0  0  0  0  0
    0.6165    2.6183    0.0000 C   0  0  0  0  0  0  0  0  0  0  0  0
    7.1447    2.4749    0.0000 C   0  0  0  0  0  0  0  0  0  0  0  0
    6.4302    2.0625    0.0000 C   0  0  0  0  0  0  0  0  0  0  0  0
    7.1447    3.3000    0.0000 C   0  0  0  0  0  0  0  0  0  0  0  0
   -5.7158    4.9499    0.0000 C   0  0  0  0  0  0  0  0  0  0  0  0
   -5.0012    4.5375    0.0000 C   0  0  0  0  0  0  0  0  0  0  0  0
    3.5724    2.0625    0.0000 C   0  0  0  0  0  0  0  0  0  0  0  0
    1.4289    5.7750    0.0000 C   0  0  0  0  0  0  0  0  0  0  0  0
   -2.1434    6.1875    0.0000 C   0  0  0  0  0  0  0  0  0  0  0  0
    2.1434    2.0625    0.0000 C   0  0  0  0  0  0  0  0  0  0  0  0
    1.4289    3.3000    0.0000 C   0  0  0  0  0  0  0  0  0  0  0  0
   -5.0012    6.1875    0.0000 C   0  0  2  0  0  0  0  0  0  0  0  0
    0.0000    4.9499    0.0000 C   0  0  1  0  0  0  0  0  0  0  0  0
   -2.1434    4.5375    0.0000 C   0  0  1  0  0  0  0  0  0  0  0  0
    2.8579    2.4749    0.0000 C   0  0  0  0  0  0  0  0  0  0  0  0
    5.7158    2.4749    0.0000 C   0  0  0  0  0  0  0  0  0  0  0  0
    4.2868    2.4749    0.0000 C   0  0  0  0  0  0  0  0  0  0  0  0
    0.7145    6.1875    0.0000 C   0  0  1  0  0  0  0  0  0  0  0  0
   -5.7158    5.7750    0.0000 C   0  0  0  0  0  0  0  0  0  0  0  0
    6.4302    3.7125    0.0000 C   0  0  0  0  0  0  0  0  0  0  0  0
   -2.8579    5.7750    0.0000 C   0  0  1  0  0  0  0  0  0  0  0  0
    2.1434    3.7125    0.0000 C   0  0  1  0  0  0  0  0  0  0  0  0
   -4.2868    4.9499    0.0000 C   0  0  1  0  0  0  0  0  0  0  0  0
    1.4289    4.9499    0.0000 C   0  0  1  0  0  0  0  0  0  0  0  0
   -1.4289    5.7750    0.0000 C   0  0  2  0  0  0  0  0  0  0  0  0
    2.8579    3.3000    0.0000 C   0  0  0  0  0  0  0  0  0  0  0  0
    5.7158    3.3000    0.0000 C   0  0  0  0  0  0  0  0  0  0  0  0
    4.2868    3.3000    0.0000 C   0  0  0  0  0  0  0  0  0  0  0  0
    5.0012    2.0625    0.0000 C   0  0  0  0  0  0  0  0  0  0  0  0
    3.5724    3.7125    0.0000 C   0  0  0  0  0  0  0  0  0  0  0  0
    5.0012    3.7125    0.0000 C   0  0  0  0  0  0  0  0  0  0  0  0
    0.0000    5.7750    0.0000 C   0  0  2  0  0  0  0  0  0  0  0  0
   -2.8579    4.9499    0.0000 C   0  0  1  0  0  0  0  0  0  0  0  0
    1.4289    2.4749    0.0000 C   0  0  2  0  0  0  0  0  0  0  0  0
    0.7145    7.0125    0.0000 N   0  0  0  0  0  0  0  0  0  0  0  0
   -6.4302    6.1875    0.0000 O   0  0  0  0  0  0  0  0  0  0  0  0
    6.4302    4.5375    0.0000 O   0  0  0  0  0  0  0  0  0  0  0  0
   -3.5724    6.1875    0.0000 O   0  0  0  0  0  0  0  0  0  0  0  0
    5.0012    1.2374    0.0000 O   0  0  0  0  0  0  0  0  0  0  0  0
    3.5724    4.5375    0.0000 O   0  0  0  0  0  0  0  0  0  0  0  0
    5.0012    4.5375    0.0000 O   0  0  0  0  0  0  0  0  0  0  0  0
    1.1468    1.6998    0.0000 O   0  0  0  0  0  0  0  0  0  0  0  0
   -4.2868    5.7750    0.0000 O   0  0  0  0  0  0  0  0  0  0  0  0
    0.7145    4.5375    0.0000 O   0  0  0  0  0  0  0  0  0  0  0  0
   -1.4289    4.9499    0.0000 O   0  0  0  0  0  0  0  0  0  0  0  0
    2.1434    4.5375    0.0000 O   0  0  0  0  0  0  0  0  0  0  0  0
   -3.5724    4.5375    0.0000 O   0  0  0  0  0  0  0  0  0  0  0  0
   -0.7145    6.1875    0.0000 O   0  0  0  0  0  0  0  0  0  0  0  0
    1.0220    4.2132    0.0000 H   0  0  0  0  0  0  0  0  0  0  0  0
   -0.7195    3.5792    0.0000 H   0  0  0  0  0  0  0  0  0  0  0  0
   -0.0317    4.3990    0.0000 H   0  0  0  0  0  0  0  0  0  0  0  0
   -4.0746    7.5475    0.0000 H   0  0  0  0  0  0  0  0  0  0  0  0
   -5.9278    7.5475    0.0000 H   0  0  0  0  0  0  0  0  0  0  0  0
   -5.0012    8.0825    0.0000 H   0  0  0  0  0  0  0  0  0  0  0  0
   -1.6411    5.0726    0.0000 H   0  0  0  0  0  0  0  0  0  0  0  0
   -0.7146    3.4675    0.0000 H   0  0  0  0  0  0  0  0  0  0  0  0
   -1.6412    4.0026    0.0000 H   0  0  0  0  0  0  0  0  0  0  0  0
   -3.0700    3.1775    0.0000 H   0  0  0  0  0  0  0  0  0  0  0  0
   -1.2168    3.1775    0.0000 H   0  0  0  0  0  0  0  0  0  0  0  0
   -2.1434    2.6425    0.0000 H   0  0  0  0  0  0  0  0  0  0  0  0
   -0.0000    8.4950    0.0000 H   0  0  0  0  0  0  0  0  0  0  0  0
   -0.9266    6.8900    0.0000 H   0  0  0  0  0  0  0  0  0  0  0  0
   -0.9267    7.9600    0.0000 H   0  0  0  0  0  0  0  0  0  0  0  0
    2.3556    6.8900    0.0000 H   0  0  0  0  0  0  0  0  0  0  0  0
    1.4289    8.4950    0.0000 H   0  0  0  0  0  0  0  0  0  0  0  0
    2.3555    7.9600    0.0000 H   0  0  0  0  0  0  0  0  0  0  0  0
   -0.0713    1.7987    0.0000 H   0  0  0  0  0  0  0  0  0  0  0  0
    0.9823    1.6128    0.0000 H   0  0  0  0  0  0  0  0  0  0  0  0
    8.0384    1.9588    0.0000 H   0  0  0  0  0  0  0  0  0  0  0  0
    6.4302    1.0305    0.0000 H   0  0  0  0  0  0  0  0  0  0  0  0
    8.0384    3.8160    0.0000 H   0  0  0  0  0  0  0  0  0  0  0  0
   -6.6424    4.4148    0.0000 H   0  0  0  0  0  0  0  0  0  0  0  0
   -6.6425    5.4849    0.0000 H   0  0  0  0  0  0  0  0  0  0  0  0
   -5.0011    3.4675    0.0000 H   0  0  0  0  0  0  0  0  0  0  0  0
   -4.0746    4.0025    0.0000 H   0  0  0  0  0  0  0  0  0  0  0  0
    3.5724    1.0305    0.0000 H   0  0  0  0  0  0  0  0  0  0  0  0
    2.3556    6.3100    0.0000 H   0  0  0  0  0  0  0  0  0  0  0  0
    2.3555    5.2400    0.0000 H   0  0  0  0  0  0  0  0  0  0  0  0
   -2.1434    7.2575    0.0000 H   0  0  0  0  0  0  0  0  0  0  0  0
   -1.2168    6.7225    0.0000 H   0  0  0  0  0  0  0  0  0  0  0  0
    2.1434    0.9925    0.0000 H   0  0  0  0  0  0  0  0  0  0  0  0
    1.2168    1.5274    0.0000 H   0  0  0  0  0  0  0  0  0  0  0  0
    0.5023    3.8350    0.0000 H   0  0  0  0  0  0  0  0  0  0  0  0
    0.5023    2.7650    0.0000 H   0  0  0  0  0  0  0  0  0  0  0  0
   -5.9278    6.7225    0.0000 H   0  0  0  0  0  0  0  0  0  0  0  0
   -0.9266    5.4850    0.0000 H   0  0  0  0  0  0  0  0  0  0  0  0
   -3.0700    4.0024    0.0000 H   0  0  0  0  0  0  0  0  0  0  0  0
    1.6412    6.7225    0.0000 H   0  0  0  0  0  0  0  0  0  0  0  0
   -2.8579    6.8450    0.0000 H   0  0  0  0  0  0  0  0  0  0  0  0
    1.2168    4.2475    0.0000 H   0  0  0  0  0  0  0  0  0  0  0  0
   -4.2868    3.8799    0.0000 H   0  0  0  0  0  0  0  0  0  0  0  0
    2.3555    5.4850    0.0000 H   0  0  0  0  0  0  0  0  0  0  0  0
   -1.4289    6.8450    0.0000 H   0  0  0  0  0  0  0  0  0  0  0  0
   -0.9266    5.2400    0.0000 H   0  0  0  0  0  0  0  0  0  0  0  0
   -2.8579    3.8799    0.0000 H   0  0  0  0  0  0  0  0  0  0  0  0
    7.2417    5.0060    0.0000 H   0  0  0  0  0  0  0  0  0  0  0  0
   -3.5724    7.1575    0.0000 H   0  0  0  0  0  0  0  0  0  0  0  0
    4.3839    5.0060    0.0000 H   0  0  0  0  0  0  0  0  0  0  0  0
    0.1915    1.5313    0.0000 H   0  0  0  0  0  0  0  0  0  0  0  0
  1 55  1  0  0  0  0
  1 56  1  0  0  0  0
  1 57  1  0  0  0  0
  2 58  1  0  0  0  0
  2 59  1  0  0  0  0
  2 60  1  0  0  0  0
  3 61  1  0  0  0  0
  3 62  1  0  0  0  0
  3 63  1  0  0  0  0
  4 64  1  0  0  0  0
  4 65  1  0  0  0  0
  4 66  1  0  0  0  0
  5 67  1  0  0  0  0
  5 68  1  0  0  0  0
  5 69  1  0  0  0  0
  6 70  1  0  0  0  0
  6 71  1  0  0  0  0
  6 72  1  0  0  0  0
  7  1  1  0  0  0  0
  7 73  1  0  0  0  0
  7 74  1  0  0  0  0
  8 75  1  0  0  0  0
  9  8  2  0  0  0  0
  9 76  1  0  0  0  0
 10  8  1  0  0  0  0
 10 77  1  0  0  0  0
 11 78  1  0  0  0  0
 11 79  1  0  0  0  0
 12 11  1  0  0  0  0
 12 80  1  0  0  0  0
 12 81  1  0  0  0  0
 13 82  1  0  0  0  0
 14 83  1  0  0  0  0
 14 84  1  0  0  0  0
 15 85  1  0  0  0  0
 15 86  1  0  0  0  0
 16 87  1  0  0  0  0
 16 88  1  0  0  0  0
 17 89  1  0  0  0  0
 17 90  1  0  0  0  0
 18  2  1  0  0  0  0
 18 91  1  6  0  0  0
 19  3  1  0  0  0  0
 19 92  1  6  0  0  0
 20  4  1  0  0  0  0
 20 93  1  6  0  0  0
 21 13  2  0  0  0  0
 21 16  1  0  0  0  0
 22  9  1  0  0  0  0
 23 13  1  0  0  0  0
 24 14  1  0  0  0  0
 24 41  1  0  0  0  0
 24 94  1  6  0  0  0
 25 11  1  0  0  0  0
 25 18  1  0  0  0  0
 26 10  2  0  0  0  0
 27 15  1  0  0  0  0
 27 44  1  0  0  0  0
 27 95  1  6  0  0  0
 28 17  1  0  0  0  0
 28 52  1  0  0  0  0
 28 96  1  1  0  0  0
 29 12  1  0  0  0  0
 29 53  1  0  0  0  0
 29 97  1  6  0  0  0
 30 14  1  0  0  0  0
 30 52  1  0  0  0  0
 30 98  1  1  0  0  0
 31 15  1  0  0  0  0
 31 54  1  0  0  0  0
 31 99  1  6  0  0  0
 32 21  1  0  0  0  0
 32 28  1  0  0  0  0
 33 22  2  0  0  0  0
 33 26  1  0  0  0  0
 34 23  2  0  0  0  0
 35 22  1  0  0  0  0
 35 23  1  0  0  0  0
 36 32  2  0  0  0  0
 36 34  1  0  0  0  0
 37 33  1  0  0  0  0
 37 34  1  0  0  0  0
 38 19  1  0  0  0  0
 38 24  1  0  0  0  0
 38 54  1  0  0  0  0
 38100  1  6  0  0  0
 39 20  1  0  0  0  0
 39 27  1  0  0  0  0
 39 53  1  0  0  0  0
 39101  1  1  0  0  0
 40  7  1  0  0  0  0
 40 16  1  0  0  0  0
 40 17  1  0  0  0  0
 40 48  1  6  0  0  0
 41  5  1  0  0  0  0
 41  6  1  0  0  0  0
 42 25  2  0  0  0  0
 43 26  1  0  0  0  0
 43102  1  0  0  0  0
 44103  1  0  0  0  0
 45 35  2  0  0  0  0
 46 36  1  0  0  0  0
 46104  1  0  0  0  0
 47 37  2  0  0  0  0
 48105  1  0  0  0  0
 49 18  1  0  0  0  0
 49 29  1  0  0  0  0
 50 19  1  0  0  0  0
 50 30  1  0  0  0  0
 51 20  1  0  0  0  0
 51 31  1  0  0  0  0
M  END
>  <DRUGBANK_ID>
DB01806

>  <SECONDARY_ACCESSION_NUMBERS>
EXPT00481

>  <COMMON_NAME>
10-decarboxymethylaclacinomycin A

>  <SYNONYMS>
DCMAA

$$$$
