
 OpenBabel10282417072D

 59 62  0  0  0  0  0  0  0  0999 V2000
   -0.7145   -0.4125    0.0000 C   0  0  0  0  0  0  0  0  0  0  0  0
    0.0000    0.0000    0.0000 N   0  0  0  0  0  0  0  0  0  0  0  0
    0.7145   -0.4125    0.0000 C   0  0  0  0  0  0  0  0  0  0  0  0
    1.4289    0.0000    0.0000 N   0  0  0  0  0  0  0  0  0  0  0  0
    2.1434   -0.4125    0.0000 C   0  0  0  0  0  0  0  0  0  0  0  0
    2.8579    0.0000    0.0000 C   0  0  0  0  0  0  0  0  0  0  0  0
    3.5724   -0.4125    0.0000 C   0  0  0  0  0  0  0  0  0  0  0  0
    3.5724   -1.2375    0.0000 C   0  0  0  0  0  0  0  0  0  0  0  0
    2.8579   -1.6500    0.0000 C   0  0  0  0  0  0  0  0  0  0  0  0
    2.1434   -1.2375    0.0000 C   0  0  0  0  0  0  0  0  0  0  0  0
    1.4289   -1.6500    0.0000 C   0  0  0  0  0  0  0  0  0  0  0  0
    0.7145   -1.2375    0.0000 N   0  0  0  0  0  0  0  0  0  0  0  0
    1.4289   -2.4750    0.0000 C   0  0  0  0  0  0  0  0  0  0  0  0
    2.1434   -2.8875    0.0000 C   0  0  0  0  0  0  0  0  0  0  0  0
    2.1434   -3.7125    0.0000 C   0  0  0  0  0  0  0  0  0  0  0  0
    1.4289   -4.1250    0.0000 C   0  0  0  0  0  0  0  0  0  0  0  0
    0.7145   -3.7125    0.0000 C   0  0  0  0  0  0  0  0  0  0  0  0
    0.7145   -2.8875    0.0000 C   0  0  0  0  0  0  0  0  0  0  0  0
    0.0000   -4.1250    0.0000 N   0  0  0  0  0  0  0  0  0  0  0  0
    0.0000   -4.9500    0.0000 C   0  0  0  0  0  0  0  0  0  0  0  0
    0.7145   -5.3625    0.0000 O   0  0  0  0  0  0  0  0  0  0  0  0
   -0.7145   -5.3625    0.0000 C   0  0  0  0  0  0  0  0  0  0  0  0
   -0.7145   -6.1875    0.0000 C   0  0  0  0  0  0  0  0  0  0  0  0
   -1.4289   -6.6000    0.0000 C   0  0  0  0  0  0  0  0  0  0  0  0
   -2.1434   -6.1875    0.0000 C   0  0  0  0  0  0  0  0  0  0  0  0
   -2.1434   -5.3625    0.0000 C   0  0  0  0  0  0  0  0  0  0  0  0
   -1.4289   -4.9500    0.0000 C   0  0  0  0  0  0  0  0  0  0  0  0
   -2.8579   -6.6000    0.0000 C   0  0  0  0  0  0  0  0  0  0  0  0
   -2.8579   -7.4250    0.0000 O   0  0  0  0  0  0  0  0  0  0  0  0
   -3.5724   -6.1875    0.0000 O   0  0  0  0  0  0  0  0  0  0  0  0
   -4.2868   -6.6000    0.0000 C   0  0  0  0  0  0  0  0  0  0  0  0
    4.2868   -1.6500    0.0000 O   0  0  0  0  0  0  0  0  0  0  0  0
    4.2868   -2.4750    0.0000 C   0  0  0  0  0  0  0  0  0  0  0  0
    4.2868   -0.0000    0.0000 O   0  0  0  0  0  0  0  0  0  0  0  0
    4.2868    0.8250    0.0000 C   0  0  0  0  0  0  0  0  0  0  0  0
   -1.6411    0.1225    0.0000 H   0  0  0  0  0  0  0  0  0  0  0  0
   -0.7145   -1.4825    0.0000 H   0  0  0  0  0  0  0  0  0  0  0  0
   -1.6412   -0.9475    0.0000 H   0  0  0  0  0  0  0  0  0  0  0  0
    0.0000    0.9845    0.0000 H   0  0  0  0  0  0  0  0  0  0  0  0
    2.8579    1.0320    0.0000 H   0  0  0  0  0  0  0  0  0  0  0  0
    2.8579   -2.6820    0.0000 H   0  0  0  0  0  0  0  0  0  0  0  0
    3.0371   -2.3715    0.0000 H   0  0  0  0  0  0  0  0  0  0  0  0
    3.0371   -4.2285    0.0000 H   0  0  0  0  0  0  0  0  0  0  0  0
    1.4289   -5.1570    0.0000 H   0  0  0  0  0  0  0  0  0  0  0  0
   -0.1792   -2.3715    0.0000 H   0  0  0  0  0  0  0  0  0  0  0  0
   -0.8526   -3.6327    0.0000 H   0  0  0  0  0  0  0  0  0  0  0  0
    0.1792   -6.7035    0.0000 H   0  0  0  0  0  0  0  0  0  0  0  0
   -1.4289   -7.6320    0.0000 H   0  0  0  0  0  0  0  0  0  0  0  0
   -3.0371   -4.8465    0.0000 H   0  0  0  0  0  0  0  0  0  0  0  0
   -1.4289   -3.9180    0.0000 H   0  0  0  0  0  0  0  0  0  0  0  0
   -5.2135   -6.0650    0.0000 H   0  0  0  0  0  0  0  0  0  0  0  0
   -4.2868   -7.6700    0.0000 H   0  0  0  0  0  0  0  0  0  0  0  0
   -5.2134   -7.1350    0.0000 H   0  0  0  0  0  0  0  0  0  0  0  0
    3.3602   -3.0100    0.0000 H   0  0  0  0  0  0  0  0  0  0  0  0
    5.2134   -3.0100    0.0000 H   0  0  0  0  0  0  0  0  0  0  0  0
    4.2868   -3.5450    0.0000 H   0  0  0  0  0  0  0  0  0  0  0  0
    5.2134    1.3600    0.0000 H   0  0  0  0  0  0  0  0  0  0  0  0
    3.3602    1.3600    0.0000 H   0  0  0  0  0  0  0  0  0  0  0  0
    4.2868    1.8950    0.0000 H   0  0  0  0  0  0  0  0  0  0  0  0
  1  2  1  0  0  0  0
  1 36  1  0  0  0  0
  1 37  1  0  0  0  0
  1 38  1  0  0  0  0
  2  3  1  0  0  0  0
  2 39  1  0  0  0  0
  3  4  1  0  0  0  0
  3 12  2  0  0  0  0
  4  5  2  0  0  0  0
  5  6  1  0  0  0  0
  5 10  1  0  0  0  0
  6  7  2  0  0  0  0
  6 40  1  0  0  0  0
  7  8  1  0  0  0  0
  7 34  1  0  0  0  0
  8  9  2  0  0  0  0
  8 32  1  0  0  0  0
  9 10  1  0  0  0  0
  9 41  1  0  0  0  0
 10 11  2  0  0  0  0
 11 12  1  0  0  0  0
 11 13  1  0  0  0  0
 13 14  2  0  0  0  0
 13 18  1  0  0  0  0
 14 15  1  0  0  0  0
 14 42  1  0  0  0  0
 15 16  2  0  0  0  0
 15 43  1  0  0  0  0
 16 17  1  0  0  0  0
 16 44  1  0  0  0  0
 17 18  2  0  0  0  0
 17 19  1  0  0  0  0
 18 45  1  0  0  0  0
 19 20  1  0  0  0  0
 19 46  1  0  0  0  0
 20 21  2  0  0  0  0
 20 22  1  0  0  0  0
 22 23  2  0  0  0  0
 22 27  1  0  0  0  0
 23 24  1  0  0  0  0
 23 47  1  0  0  0  0
 24 25  2  0  0  0  0
 24 48  1  0  0  0  0
 25 26  1  0  0  0  0
 25 28  1  0  0  0  0
 26 27  2  0  0  0  0
 26 49  1  0  0  0  0
 27 50  1  0  0  0  0
 28 29  2  0  0  0  0
 28 30  1  0  0  0  0
 30 31  1  0  0  0  0
 31 51  1  0  0  0  0
 31 52  1  0  0  0  0
 31 53  1  0  0  0  0
 32 33  1  0  0  0  0
 33 54  1  0  0  0  0
 33 55  1  0  0  0  0
 33 56  1  0  0  0  0
 34 35  1  0  0  0  0
 35 57  1  0  0  0  0
 35 58  1  0  0  0  0
 35 59  1  0  0  0  0
M  END
>  <DRUGBANK_ID>
DB12776

>  <COMMON_NAME>
E-6005

>  <CAS_NUMBER>
947620-48-6

>  <UNII>
TO043KKB9C

$$$$
