
 OpenBabel10282417072D

 29 28  0  0  0  0  0  0  0  0999 V2000
    1.6500   -1.4289    0.0000 C   0  0  0  0  0  0  0  0  0  0  0  0
    1.2375   -0.7145    0.0000 C   0  0  0  0  0  0  0  0  0  0  0  0
    1.9520   -0.3020    0.0000 C   0  0  0  0  0  0  0  0  0  0  0  0
    1.9520    0.5230    0.0000 C   0  0  0  0  0  0  0  0  0  0  0  0
    2.6664    0.9355    0.0000 C   0  0  0  0  0  0  0  0  0  0  0  0
    2.6664    1.7605    0.0000 C   0  0  0  0  0  0  0  0  0  0  0  0
    3.3809    2.1730    0.0000 C   0  0  0  0  0  0  0  0  0  0  0  0
    3.3809    2.9980    0.0000 F   0  0  0  0  0  0  0  0  0  0  0  0
    0.5230   -1.1270    0.0000 C   0  0  0  0  0  0  0  0  0  0  0  0
    0.5230   -1.9520    0.0000 O   0  0  0  0  0  0  0  0  0  0  0  0
   -0.1914   -0.7145    0.0000 O   0  0  0  0  0  0  0  0  0  0  0  0
    0.8250    0.0000    0.0000 C   0  0  0  0  0  0  0  0  0  0  0  0
    1.2375    0.7145    0.0000 O   0  0  0  0  0  0  0  0  0  0  0  0
    0.0000    0.0000    0.0000 O   0  0  0  0  0  0  0  0  0  0  0  0
    1.1150   -2.3556    0.0000 H   0  0  0  0  0  0  0  0  0  0  0  0
    2.7200   -1.4289    0.0000 H   0  0  0  0  0  0  0  0  0  0  0  0
    2.1850   -2.3555    0.0000 H   0  0  0  0  0  0  0  0  0  0  0  0
    2.8786   -0.8370    0.0000 H   0  0  0  0  0  0  0  0  0  0  0  0
    2.8786    0.2330    0.0000 H   0  0  0  0  0  0  0  0  0  0  0  0
    1.0253    1.0580    0.0000 H   0  0  0  0  0  0  0  0  0  0  0  0
    1.9520    1.5930    0.0000 H   0  0  0  0  0  0  0  0  0  0  0  0
    3.5931    0.4005    0.0000 H   0  0  0  0  0  0  0  0  0  0  0  0
    3.5930    1.4705    0.0000 H   0  0  0  0  0  0  0  0  0  0  0  0
    1.7398    2.2955    0.0000 H   0  0  0  0  0  0  0  0  0  0  0  0
    2.6664    2.8305    0.0000 H   0  0  0  0  0  0  0  0  0  0  0  0
    4.3075    1.6380    0.0000 H   0  0  0  0  0  0  0  0  0  0  0  0
    4.3075    2.7080    0.0000 H   0  0  0  0  0  0  0  0  0  0  0  0
   -0.2885   -2.4205    0.0000 H   0  0  0  0  0  0  0  0  0  0  0  0
    2.1745    0.7145    0.0000 H   0  0  0  0  0  0  0  0  0  0  0  0
  1  2  1  0  0  0  0
  1 15  1  0  0  0  0
  1 16  1  0  0  0  0
  1 17  1  0  0  0  0
  2  3  1  0  0  0  0
  2  9  1  0  0  0  0
  2 12  1  0  0  0  0
  3  4  1  0  0  0  0
  3 18  1  0  0  0  0
  3 19  1  0  0  0  0
  4  5  1  0  0  0  0
  4 20  1  0  0  0  0
  4 21  1  0  0  0  0
  5  6  1  0  0  0  0
  5 22  1  0  0  0  0
  5 23  1  0  0  0  0
  6  7  1  0  0  0  0
  6 24  1  0  0  0  0
  6 25  1  0  0  0  0
  7  8  1  0  0  0  0
  7 26  1  0  0  0  0
  7 27  1  0  0  0  0
  9 10  1  0  0  0  0
  9 11  2  0  0  0  0
 10 28  1  0  0  0  0
 12 13  1  0  0  0  0
 12 14  2  0  0  0  0
 13 29  1  0  0  0  0
M  ISO  1   8  18
M  END
>  <DRUGBANK_ID>
DB16029

>  <COMMON_NAME>
2-(5-fluoro-pentyl)-2-methyl-malonic-acid

>  <CAS_NUMBER>
1236354-10-1

>  <UNII>
AK3K0K6CM5

$$$$
