
 OpenBabel10282417072D

 46 47  0  0  0  0  0  0  0  0999 V2000
   -2.8579   -4.9500    0.0000 C   0  0  0  0  0  0  0  0  0  0  0  0
   -3.5724   -4.5375    0.0000 C   0  0  0  0  0  0  0  0  0  0  0  0
   -3.5724   -3.7125    0.0000 C   0  0  0  0  0  0  0  0  0  0  0  0
   -2.8579   -3.3000    0.0000 C   0  0  0  0  0  0  0  0  0  0  0  0
   -2.1434   -3.7125    0.0000 C   0  0  0  0  0  0  0  0  0  0  0  0
   -2.1434   -4.5375    0.0000 C   0  0  0  0  0  0  0  0  0  0  0  0
   -1.4289   -4.9500    0.0000 C   0  0  0  0  0  0  0  0  0  0  0  0
   -0.7145   -4.5375    0.0000 C   0  0  0  0  0  0  0  0  0  0  0  0
    0.0000   -4.9500    0.0000 C   0  0  0  0  0  0  0  0  0  0  0  0
    0.7145   -4.5375    0.0000 O   0  0  0  0  0  0  0  0  0  0  0  0
    1.4289   -4.9500    0.0000 C   0  0  0  0  0  0  0  0  0  0  0  0
    2.1434   -4.5375    0.0000 C   0  0  0  0  0  0  0  0  0  0  0  0
    2.8579   -4.9500    0.0000 C   0  0  0  0  0  0  0  0  0  0  0  0
    3.5724   -4.5375    0.0000 N   0  0  0  0  0  0  0  0  0  0  0  0
    3.5724   -3.7125    0.0000 C   0  0  0  0  0  0  0  0  0  0  0  0
    4.2868   -3.3000    0.0000 C   0  0  0  0  0  0  0  0  0  0  0  0
    5.0013   -3.7125    0.0000 C   0  0  0  0  0  0  0  0  0  0  0  0
    5.0013   -4.5375    0.0000 C   0  0  0  0  0  0  0  0  0  0  0  0
    4.2868   -4.9500    0.0000 C   0  0  0  0  0  0  0  0  0  0  0  0
   -4.2868   -3.3000    0.0000 Cl  0  0  0  0  0  0  0  0  0  0  0  0
   -2.8579   -5.9820    0.0000 H   0  0  0  0  0  0  0  0  0  0  0  0
   -4.4661   -5.0535    0.0000 H   0  0  0  0  0  0  0  0  0  0  0  0
   -2.8579   -2.2680    0.0000 H   0  0  0  0  0  0  0  0  0  0  0  0
   -1.2497   -3.1965    0.0000 H   0  0  0  0  0  0  0  0  0  0  0  0
   -1.4289   -6.0200    0.0000 H   0  0  0  0  0  0  0  0  0  0  0  0
   -0.5022   -5.4850    0.0000 H   0  0  0  0  0  0  0  0  0  0  0  0
   -0.7145   -3.4675    0.0000 H   0  0  0  0  0  0  0  0  0  0  0  0
    0.2121   -4.0025    0.0000 H   0  0  0  0  0  0  0  0  0  0  0  0
    0.0000   -6.0200    0.0000 H   0  0  0  0  0  0  0  0  0  0  0  0
    0.9266   -5.4850    0.0000 H   0  0  0  0  0  0  0  0  0  0  0  0
    1.4289   -6.0200    0.0000 H   0  0  0  0  0  0  0  0  0  0  0  0
    2.3555   -5.4850    0.0000 H   0  0  0  0  0  0  0  0  0  0  0  0
    2.1434   -3.4675    0.0000 H   0  0  0  0  0  0  0  0  0  0  0  0
    3.0700   -4.0025    0.0000 H   0  0  0  0  0  0  0  0  0  0  0  0
    2.8579   -6.0200    0.0000 H   0  0  0  0  0  0  0  0  0  0  0  0
    3.7845   -5.4850    0.0000 H   0  0  0  0  0  0  0  0  0  0  0  0
    2.6457   -3.1775    0.0000 H   0  0  0  0  0  0  0  0  0  0  0  0
    3.5724   -2.6425    0.0000 H   0  0  0  0  0  0  0  0  0  0  0  0
    4.2868   -2.2300    0.0000 H   0  0  0  0  0  0  0  0  0  0  0  0
    5.2134   -2.7650    0.0000 H   0  0  0  0  0  0  0  0  0  0  0  0
    5.9279   -3.1775    0.0000 H   0  0  0  0  0  0  0  0  0  0  0  0
    5.9279   -4.2475    0.0000 H   0  0  0  0  0  0  0  0  0  0  0  0
    5.9279   -5.0725    0.0000 H   0  0  0  0  0  0  0  0  0  0  0  0
    5.0013   -5.6075    0.0000 H   0  0  0  0  0  0  0  0  0  0  0  0
    4.2868   -6.0200    0.0000 H   0  0  0  0  0  0  0  0  0  0  0  0
    3.3601   -5.4850    0.0000 H   0  0  0  0  0  0  0  0  0  0  0  0
  1  2  2  0  0  0  0
  1  6  1  0  0  0  0
  1 21  1  0  0  0  0
  2  3  1  0  0  0  0
  2 22  1  0  0  0  0
  3  4  2  0  0  0  0
  3 20  1  0  0  0  0
  4  5  1  0  0  0  0
  4 23  1  0  0  0  0
  5  6  2  0  0  0  0
  5 24  1  0  0  0  0
  6  7  1  0  0  0  0
  7  8  1  0  0  0  0
  7 25  1  0  0  0  0
  7 26  1  0  0  0  0
  8  9  1  0  0  0  0
  8 27  1  0  0  0  0
  8 28  1  0  0  0  0
  9 10  1  0  0  0  0
  9 29  1  0  0  0  0
  9 30  1  0  0  0  0
 10 11  1  0  0  0  0
 11 12  1  0  0  0  0
 11 31  1  0  0  0  0
 11 32  1  0  0  0  0
 12 13  1  0  0  0  0
 12 33  1  0  0  0  0
 12 34  1  0  0  0  0
 13 14  1  0  0  0  0
 13 35  1  0  0  0  0
 13 36  1  0  0  0  0
 14 15  1  0  0  0  0
 14 19  1  0  0  0  0
 15 16  1  0  0  0  0
 15 37  1  0  0  0  0
 15 38  1  0  0  0  0
 16 17  1  0  0  0  0
 16 39  1  0  0  0  0
 16 40  1  0  0  0  0
 17 18  1  0  0  0  0
 17 41  1  0  0  0  0
 17 42  1  0  0  0  0
 18 19  1  0  0  0  0
 18 43  1  0  0  0  0
 18 44  1  0  0  0  0
 19 45  1  0  0  0  0
 19 46  1  0  0  0  0
M  END
>  <DRUGBANK_ID>
DB11642

>  <COMMON_NAME>
Pitolisant

>  <CAS_NUMBER>
362665-56-3

>  <UNII>
4BC83L4PIY

>  <SYNONYMS>
Pitolisant

$$$$
