TFM
 OpenBabel10282417072D

 27 27  0  0  0  0  0  0  0  0999 V2000
    0.1467    0.9282    0.0000 N   0  0  0  0  0  0  0  0  0  0  0  0
    0.8611    0.5157    0.0000 C   0  0  0  0  0  0  0  0  0  0  0  0
    1.5756    0.9282    0.0000 S   0  0  0  0  0  0  0  0  0  0  0  0
    0.8611   -0.3093    0.0000 N   0  0  0  0  0  0  0  0  0  0  0  0
    0.1467   -0.7218    0.0000 C   0  0  0  0  0  0  0  0  0  0  0  0
    0.1467   -1.5468    0.0000 C   0  0  0  0  0  0  0  0  0  0  0  0
   -0.5678   -1.9593    0.0000 C   0  0  0  0  0  0  0  0  0  0  0  0
   -1.2823   -1.5468    0.0000 C   0  0  0  0  0  0  0  0  0  0  0  0
   -1.2823   -0.7218    0.0000 C   0  0  0  0  0  0  0  0  0  0  0  0
   -0.5678   -0.3093    0.0000 C   0  0  0  0  0  0  0  0  0  0  0  0
    1.5756    1.7532    0.0000 C   0  0  0  0  0  0  0  0  0  0  0  0
    2.2901    2.1657    0.0000 C   0  0  0  0  0  0  0  0  0  0  0  0
   -1.9968   -1.9593    0.0000 C   0  0  0  0  0  0  0  0  0  0  0  0
   -2.7112   -2.3718    0.0000 F   0  0  0  0  0  0  0  0  0  0  0  0
   -2.4093   -1.2448    0.0000 F   0  0  0  0  0  0  0  0  0  0  0  0
   -1.5843   -2.6738    0.0000 F   0  0  0  0  0  0  0  0  0  0  0  0
    0.1467    1.9127    0.0000 H   0  0  0  0  0  0  0  0  0  0  0  0
   -0.7059    0.4360    0.0000 H   0  0  0  0  0  0  0  0  0  0  0  0
    1.0404   -2.0628    0.0000 H   0  0  0  0  0  0  0  0  0  0  0  0
   -0.5678   -2.9913    0.0000 H   0  0  0  0  0  0  0  0  0  0  0  0
   -2.1760   -0.2058    0.0000 H   0  0  0  0  0  0  0  0  0  0  0  0
   -0.5678    0.7227    0.0000 H   0  0  0  0  0  0  0  0  0  0  0  0
    0.6490    2.2882    0.0000 H   0  0  0  0  0  0  0  0  0  0  0  0
    1.5756    2.8232    0.0000 H   0  0  0  0  0  0  0  0  0  0  0  0
    3.2167    1.6307    0.0000 H   0  0  0  0  0  0  0  0  0  0  0  0
    2.2901    3.2357    0.0000 H   0  0  0  0  0  0  0  0  0  0  0  0
    3.2168    2.7007    0.0000 H   0  0  0  0  0  0  0  0  0  0  0  0
  1  2  1  0  0  0  0
  1 17  1  0  0  0  0
  1 18  1  0  0  0  0
  2  3  1  0  0  0  0
  2  4  2  0  0  0  0
  3 11  1  0  0  0  0
  4  5  1  0  0  0  0
  5  6  2  0  0  0  0
  5 10  1  0  0  0  0
  6  7  1  0  0  0  0
  6 19  1  0  0  0  0
  7  8  2  0  0  0  0
  7 20  1  0  0  0  0
  8  9  1  0  0  0  0
  8 13  1  0  0  0  0
  9 10  2  0  0  0  0
  9 21  1  0  0  0  0
 10 22  1  0  0  0  0
 11 12  1  0  0  0  0
 11 23  1  0  0  0  0
 11 24  1  0  0  0  0
 12 25  1  0  0  0  0
 12 26  1  0  0  0  0
 12 27  1  0  0  0  0
 13 14  1  0  0  0  0
 13 15  1  0  0  0  0
 13 16  1  0  0  0  0
M  END
>  <DRUGBANK_ID>
DB02991

>  <SECONDARY_ACCESSION_NUMBERS>
EXPT03044

>  <COMMON_NAME>
S-Ethyl-N-[4-(Trifluoromethyl)Phenyl]Isothiourea

$$$$
