NBQ
 OpenBabel10282417072D

 53 55  0  0  0  0  0  0  0  0999 V2000
    2.8079   -7.6256    0.0000 N   0  0  0  0  0  0  0  0  0  0  0  0
    2.0935   -8.0381    0.0000 C   0  0  1  0  0  0  0  0  0  0  0  0
    1.3790   -7.6256    0.0000 C   0  0  0  0  0  0  0  0  0  0  0  0
    1.3790   -6.8006    0.0000 C   0  0  0  0  0  0  0  0  0  0  0  0
    0.6645   -6.3881    0.0000 C   0  0  0  0  0  0  0  0  0  0  0  0
   -0.0500   -6.8006    0.0000 O   0  0  0  0  0  0  0  0  0  0  0  0
    0.6645   -5.5631    0.0000 C   0  0  0  0  0  0  0  0  0  0  0  0
    1.3790   -5.1506    0.0000 C   0  0  0  0  0  0  0  0  0  0  0  0
    1.3790   -4.3256    0.0000 O   0  0  0  0  0  0  0  0  0  0  0  0
    2.0935   -5.5631    0.0000 C   0  0  0  0  0  0  0  0  0  0  0  0
    2.0935   -6.3881    0.0000 C   0  0  0  0  0  0  0  0  0  0  0  0
    2.8079   -5.1506    0.0000 N   0  0  0  0  0  0  0  0  0  0  0  0
    2.8079   -4.3256    0.0000 C   0  0  0  0  0  0  0  0  0  0  0  0
    2.0935   -3.9131    0.0000 C   0  0  0  0  0  0  0  0  0  0  0  0
    2.0935   -3.0881    0.0000 C   0  0  0  0  0  0  0  0  0  0  0  0
    1.3790   -2.6756    0.0000 O   0  0  0  0  0  0  0  0  0  0  0  0
    3.5224   -3.9131    0.0000 C   0  0  0  0  0  0  0  0  0  0  0  0
    3.5224   -3.0881    0.0000 O   0  0  0  0  0  0  0  0  0  0  0  0
    4.2369   -2.6756    0.0000 C   0  0  0  0  0  0  0  0  0  0  0  0
    4.2369   -1.8506    0.0000 C   0  0  0  0  0  0  0  0  0  0  0  0
    4.9513   -1.4381    0.0000 C   0  0  0  0  0  0  0  0  0  0  0  0
    5.6658   -1.8506    0.0000 C   0  0  0  0  0  0  0  0  0  0  0  0
    6.3803   -1.4381    0.0000 C   0  0  0  0  0  0  0  0  0  0  0  0
    5.6658   -2.6756    0.0000 C   0  0  0  0  0  0  0  0  0  0  0  0
    4.9513   -3.0881    0.0000 C   0  0  0  0  0  0  0  0  0  0  0  0
    6.3803   -3.0881    0.0000 C   0  0  0  0  0  0  0  0  0  0  0  0
    7.0947   -2.6756    0.0000 C   0  0  0  0  0  0  0  0  0  0  0  0
    7.0947   -1.8506    0.0000 C   0  0  0  0  0  0  0  0  0  0  0  0
    2.0935   -8.8631    0.0000 C   0  0  0  0  0  0  0  0  0  0  0  0
    1.3790   -9.2756    0.0000 O   0  0  0  0  0  0  0  0  0  0  0  0
    2.8079   -9.2756    0.0000 O   0  0  0  0  0  0  0  0  0  0  0  0
    2.0935   -7.4541    0.0000 H   0  0  0  0  0  0  0  0  0  0  0  0
    3.6913   -8.1356    0.0000 H   0  0  0  0  0  0  0  0  0  0  0  0
    2.8079   -6.6056    0.0000 H   0  0  0  0  0  0  0  0  0  0  0  0
    0.4524   -8.1606    0.0000 H   0  0  0  0  0  0  0  0  0  0  0  0
    0.4524   -7.0906    0.0000 H   0  0  0  0  0  0  0  0  0  0  0  0
   -0.8615   -6.3321    0.0000 H   0  0  0  0  0  0  0  0  0  0  0  0
   -0.2292   -5.0471    0.0000 H   0  0  0  0  0  0  0  0  0  0  0  0
    2.1905   -3.8571    0.0000 H   0  0  0  0  0  0  0  0  0  0  0  0
    2.9872   -6.9041    0.0000 H   0  0  0  0  0  0  0  0  0  0  0  0
    3.6605   -5.6428    0.0000 H   0  0  0  0  0  0  0  0  0  0  0  0
    1.1998   -4.4291    0.0000 H   0  0  0  0  0  0  0  0  0  0  0  0
    2.9872   -2.5721    0.0000 H   0  0  0  0  0  0  0  0  0  0  0  0
    4.4490   -4.4481    0.0000 H   0  0  0  0  0  0  0  0  0  0  0  0
    4.4490   -3.3781    0.0000 H   0  0  0  0  0  0  0  0  0  0  0  0
    3.3432   -1.3346    0.0000 H   0  0  0  0  0  0  0  0  0  0  0  0
    4.9513   -0.4061    0.0000 H   0  0  0  0  0  0  0  0  0  0  0  0
    6.3803   -0.4061    0.0000 H   0  0  0  0  0  0  0  0  0  0  0  0
    4.9513   -4.1201    0.0000 H   0  0  0  0  0  0  0  0  0  0  0  0
    6.3803   -4.1201    0.0000 H   0  0  0  0  0  0  0  0  0  0  0  0
    7.9884   -3.1916    0.0000 H   0  0  0  0  0  0  0  0  0  0  0  0
    7.9884   -1.3346    0.0000 H   0  0  0  0  0  0  0  0  0  0  0  0
    0.5675   -8.8071    0.0000 H   0  0  0  0  0  0  0  0  0  0  0  0
  1 33  1  0  0  0  0
  1 34  1  0  0  0  0
  2  1  1  0  0  0  0
  2  3  1  0  0  0  0
  2 29  1  0  0  0  0
  2 32  1  1  0  0  0
  3  4  1  0  0  0  0
  3 35  1  0  0  0  0
  3 36  1  0  0  0  0
  4  5  2  0  0  0  0
  4 11  1  0  0  0  0
  5  6  1  0  0  0  0
  5  7  1  0  0  0  0
  6 37  1  0  0  0  0
  7  8  2  0  0  0  0
  7 38  1  0  0  0  0
  8  9  1  0  0  0  0
  8 10  1  0  0  0  0
  9 39  1  0  0  0  0
 10 11  2  0  0  0  0
 10 12  1  0  0  0  0
 11 40  1  0  0  0  0
 12 13  1  0  0  0  0
 12 41  1  0  0  0  0
 13 14  2  0  0  0  0
 13 17  1  0  0  0  0
 14 15  1  0  0  0  0
 14 42  1  0  0  0  0
 15 16  2  0  0  0  0
 15 43  1  0  0  0  0
 17 18  1  0  0  0  0
 17 44  1  0  0  0  0
 17 45  1  0  0  0  0
 18 19  1  0  0  0  0
 19 20  2  0  0  0  0
 19 25  1  0  0  0  0
 20 21  1  0  0  0  0
 20 46  1  0  0  0  0
 21 22  2  0  0  0  0
 21 47  1  0  0  0  0
 22 23  1  0  0  0  0
 22 24  1  0  0  0  0
 23 28  2  0  0  0  0
 23 48  1  0  0  0  0
 24 25  2  0  0  0  0
 24 26  1  0  0  0  0
 25 49  1  0  0  0  0
 26 27  2  0  0  0  0
 26 50  1  0  0  0  0
 27 28  1  0  0  0  0
 27 51  1  0  0  0  0
 28 52  1  0  0  0  0
 29 30  1  0  0  0  0
 29 31  2  0  0  0  0
 30 53  1  0  0  0  0
M  END
>  <DRUGBANK_ID>
DB02511

>  <SECONDARY_ACCESSION_NUMBERS>
EXPT02304

>  <COMMON_NAME>
2-Hydroxy-5-({1-[(2-Naphthyloxy)Methyl]-3-Oxoprop-1-Enyl}Amino)Tyrosine

>  <SYNONYMS>
2-Hydroxy-5-{[(2E)-1-(2-naphthyloxy)-4-oxo-2-buten-2-yl]amino}-L-tyrosine

$$$$
