
 OpenBabel10282417072D

 51 53  0  0  0  0  0  0  0  0999 V2000
    2.0990   -2.3952    0.0000 C   0  0  0  0  0  0  0  0  0  0  0  0
    1.5048    0.4002    0.0000 C   0  0  0  0  0  0  0  0  0  0  0  0
   -1.9947   -1.6761    0.0000 C   0  0  0  0  0  0  0  0  0  0  0  0
   -2.7091   -1.2636    0.0000 C   0  0  0  0  0  0  0  0  0  0  0  0
   -1.2802   -1.2636    0.0000 C   0  0  0  0  0  0  0  0  0  0  0  0
   -6.2815   -1.6761    0.0000 C   0  0  0  0  0  0  0  0  0  0  0  0
   -5.5670   -0.4386    0.0000 C   0  0  0  0  0  0  0  0  0  0  0  0
   -6.9960   -0.4386    0.0000 C   0  0  0  0  0  0  0  0  0  0  0  0
   -4.1381   -1.2636    0.0000 C   0  0  0  0  0  0  0  0  0  0  0  0
   -0.4795   -2.4966    0.0000 C   0  0  0  0  0  0  0  0  0  0  0  0
   -5.5670   -1.2636    0.0000 C   0  0  0  0  0  0  0  0  0  0  0  0
   -6.9960   -1.2636    0.0000 C   0  0  0  0  0  0  0  0  0  0  0  0
   -6.2815   -0.0261    0.0000 C   0  0  0  0  0  0  0  0  0  0  0  0
   -4.8525   -1.6761    0.0000 C   0  0  3  0  0  0  0  0  0  0  0  0
    0.1880   -1.3406    0.0000 C   0  0  0  0  0  0  0  0  0  0  0  0
    0.7400   -1.9537    0.0000 C   0  0  0  0  0  0  0  0  0  0  0  0
    0.4429   -0.5560    0.0000 C   0  0  0  0  0  0  0  0  0  0  0  0
    1.8019   -0.9975    0.0000 C   0  0  0  0  0  0  0  0  0  0  0  0
   -3.4236   -1.6761    0.0000 N   0  0  0  0  0  0  0  0  0  0  0  0
    0.3275   -2.6681    0.0000 N   0  0  0  0  0  0  0  0  0  0  0  0
    1.5470   -1.7821    0.0000 N   0  0  0  0  0  0  0  0  0  0  0  0
    1.2499   -0.3844    0.0000 N   0  0  0  0  0  0  0  0  0  0  0  0
   -0.5657   -1.6761    0.0000 N   0  0  0  0  0  0  0  0  0  0  0  0
   -7.7104   -1.6761    0.0000 O   0  0  0  0  0  0  0  0  0  0  0  0
   -6.2815    0.7989    0.0000 O   0  0  0  0  0  0  0  0  0  0  0  0
   -4.8525   -2.5011    0.0000 O   0  0  0  0  0  0  0  0  0  0  0  0
   -0.1091    0.0571    0.0000 O   0  0  0  0  0  0  0  0  0  0  0  0
    2.6089   -0.8260    0.0000 O   0  0  0  0  0  0  0  0  0  0  0  0
    1.7683   -3.4128    0.0000 H   0  0  0  0  0  0  0  0  0  0  0  0
    3.1456   -2.1728    0.0000 H   0  0  0  0  0  0  0  0  0  0  0  0
    2.8149   -3.1904    0.0000 H   0  0  0  0  0  0  0  0  0  0  0  0
    2.5514    0.6227    0.0000 H   0  0  0  0  0  0  0  0  0  0  0  0
    0.7888    1.1953    0.0000 H   0  0  0  0  0  0  0  0  0  0  0  0
    1.8354    1.4178    0.0000 H   0  0  0  0  0  0  0  0  0  0  0  0
   -1.9947   -2.7461    0.0000 H   0  0  0  0  0  0  0  0  0  0  0  0
   -1.0681   -2.2111    0.0000 H   0  0  0  0  0  0  0  0  0  0  0  0
   -2.7091   -0.1936    0.0000 H   0  0  0  0  0  0  0  0  0  0  0  0
   -3.6357   -0.7286    0.0000 H   0  0  0  0  0  0  0  0  0  0  0  0
   -1.2802   -0.1936    0.0000 H   0  0  0  0  0  0  0  0  0  0  0  0
   -0.3536   -0.7286    0.0000 H   0  0  0  0  0  0  0  0  0  0  0  0
   -6.2815   -2.7081    0.0000 H   0  0  0  0  0  0  0  0  0  0  0  0
   -4.6733    0.0774    0.0000 H   0  0  0  0  0  0  0  0  0  0  0  0
   -7.8897    0.0774    0.0000 H   0  0  0  0  0  0  0  0  0  0  0  0
   -4.1381   -0.1936    0.0000 H   0  0  0  0  0  0  0  0  0  0  0  0
   -3.2115   -0.7286    0.0000 H   0  0  0  0  0  0  0  0  0  0  0  0
   -1.2464   -3.1871    0.0000 H   0  0  0  0  0  0  0  0  0  0  0  0
   -4.8525   -0.6061    0.0000 H   0  0  0  0  0  0  0  0  0  0  0  0
   -3.4236   -2.6961    0.0000 H   0  0  0  0  0  0  0  0  0  0  0  0
   -8.5219   -1.2076    0.0000 H   0  0  0  0  0  0  0  0  0  0  0  0
   -5.4700    1.2674    0.0000 H   0  0  0  0  0  0  0  0  0  0  0  0
   -5.6925   -2.9861    0.0000 H   0  0  0  0  0  0  0  0  0  0  0  0
  1 29  1  0  0  0  0
  1 30  1  0  0  0  0
  1 31  1  0  0  0  0
  2 32  1  0  0  0  0
  2 33  1  0  0  0  0
  2 34  1  0  0  0  0
  3 35  1  0  0  0  0
  3 36  1  0  0  0  0
  4  3  1  0  0  0  0
  4 37  1  0  0  0  0
  4 38  1  0  0  0  0
  5  3  1  0  0  0  0
  5 39  1  0  0  0  0
  5 40  1  0  0  0  0
  6 41  1  0  0  0  0
  7 42  1  0  0  0  0
  8 43  1  0  0  0  0
  9 44  1  0  0  0  0
  9 45  1  0  0  0  0
 10 46  1  0  0  0  0
 11  6  2  0  0  0  0
 11  7  1  0  0  0  0
 12  6  1  0  0  0  0
 12  8  2  0  0  0  0
 13  7  2  0  0  0  0
 13  8  1  0  0  0  0
 14  9  1  0  0  0  0
 14 11  1  0  0  0  0
 14 47  1  0  0  0  0
 16 15  2  0  0  0  0
 17 15  1  0  0  0  0
 19  4  1  0  0  0  0
 19  9  1  0  0  0  0
 19 48  1  0  0  0  0
 20 10  2  0  0  0  0
 20 16  1  0  0  0  0
 21  1  1  0  0  0  0
 21 16  1  0  0  0  0
 21 18  1  0  0  0  0
 22  2  1  0  0  0  0
 22 17  1  0  0  0  0
 22 18  1  0  0  0  0
 23  5  1  0  0  0  0
 23 10  1  0  0  0  0
 23 15  1  0  0  0  0
 24 12  1  0  0  0  0
 24 49  1  0  0  0  0
 25 13  1  0  0  0  0
 25 50  1  0  0  0  0
 26 14  1  0  0  0  0
 26 51  1  0  0  0  0
 27 17  2  0  0  0  0
 28 18  2  0  0  0  0
M  END
>  <DRUGBANK_ID>
DB12846

>  <COMMON_NAME>
Reproterol

>  <CAS_NUMBER>
54063-54-6

>  <UNII>
11941YC6RN

>  <SYNONYMS>
7-(3-((2-(3,5-Dihydroxyphenyl)-2-hydroxyethyl)amino)propyl)theophylline; Reproterol; Reproterolum

$$$$
