
 OpenBabel10282417072D

 42 44  0  0  0  0  0  0  0  0999 V2000
   -0.9373   -1.5316    0.0000 C   0  0  0  0  0  0  0  0  0  0  0  0
   -0.2228   -1.9441    0.0000 O   0  0  0  0  0  0  0  0  0  0  0  0
    0.4917   -1.5316    0.0000 C   0  0  0  0  0  0  0  0  0  0  0  0
    0.4917   -0.7066    0.0000 C   0  0  0  0  0  0  0  0  0  0  0  0
    1.2062   -0.2941    0.0000 C   0  0  0  0  0  0  0  0  0  0  0  0
    1.9206   -0.7066    0.0000 C   0  0  0  0  0  0  0  0  0  0  0  0
    2.5656   -0.1923    0.0000 S   0  0  0  0  0  0  0  0  0  0  0  0
    3.3700   -0.3758    0.0000 C   0  0  0  0  0  0  0  0  0  0  0  0
    3.7279   -1.1191    0.0000 C   0  0  0  0  0  0  0  0  0  0  0  0
    3.3700   -1.8624    0.0000 N   0  0  0  0  0  0  0  0  0  0  0  0
    3.8843   -2.5075    0.0000 C   0  0  0  0  0  0  0  0  0  0  0  0
    3.5829   -3.2754    0.0000 C   0  0  0  0  0  0  0  0  0  0  0  0
    4.0973   -3.9204    0.0000 C   0  0  0  0  0  0  0  0  0  0  0  0
    3.7959   -4.6884    0.0000 C   0  0  0  0  0  0  0  0  0  0  0  0
    2.9801   -4.8114    0.0000 C   0  0  0  0  0  0  0  0  0  0  0  0
    2.4657   -4.1664    0.0000 C   0  0  0  0  0  0  0  0  0  0  0  0
    2.7671   -3.3984    0.0000 C   0  0  0  0  0  0  0  0  0  0  0  0
    2.6787   -5.5793    0.0000 C   0  0  0  0  0  0  0  0  0  0  0  0
    3.1931   -6.2244    0.0000 O   0  0  0  0  0  0  0  0  0  0  0  0
    1.8629   -5.7023    0.0000 O   0  0  0  0  0  0  0  0  0  0  0  0
    2.5656   -2.0460    0.0000 C   0  0  0  0  0  0  0  0  0  0  0  0
    1.9206   -1.5316    0.0000 C   0  0  0  0  0  0  0  0  0  0  0  0
    1.2062   -1.9441    0.0000 C   0  0  0  0  0  0  0  0  0  0  0  0
   -0.9373   -0.4616    0.0000 H   0  0  0  0  0  0  0  0  0  0  0  0
   -1.8639   -2.0666    0.0000 H   0  0  0  0  0  0  0  0  0  0  0  0
   -1.8640   -0.9966    0.0000 H   0  0  0  0  0  0  0  0  0  0  0  0
   -0.4020   -0.1906    0.0000 H   0  0  0  0  0  0  0  0  0  0  0  0
    1.2062    0.7379    0.0000 H   0  0  0  0  0  0  0  0  0  0  0  0
    4.0371    0.4608    0.0000 H   0  0  0  0  0  0  0  0  0  0  0  0
    4.4333   -0.4956    0.0000 H   0  0  0  0  0  0  0  0  0  0  0  0
    4.7979   -1.1191    0.0000 H   0  0  0  0  0  0  0  0  0  0  0  0
    4.2972   -2.0251    0.0000 H   0  0  0  0  0  0  0  0  0  0  0  0
    4.9424   -2.3481    0.0000 H   0  0  0  0  0  0  0  0  0  0  0  0
    4.5514   -3.3441    0.0000 H   0  0  0  0  0  0  0  0  0  0  0  0
    5.1178   -3.7666    0.0000 H   0  0  0  0  0  0  0  0  0  0  0  0
    4.4394   -5.4952    0.0000 H   0  0  0  0  0  0  0  0  0  0  0  0
    1.4452   -4.3202    0.0000 H   0  0  0  0  0  0  0  0  0  0  0  0
    2.1236   -2.5916    0.0000 H   0  0  0  0  0  0  0  0  0  0  0  0
    2.8507   -7.0966    0.0000 H   0  0  0  0  0  0  0  0  0  0  0  0
    2.3275   -3.0892    0.0000 H   0  0  0  0  0  0  0  0  0  0  0  0
    1.5556   -2.3994    0.0000 H   0  0  0  0  0  0  0  0  0  0  0  0
    1.2062   -2.9761    0.0000 H   0  0  0  0  0  0  0  0  0  0  0  0
  1  2  1  0  0  0  0
  1 24  1  0  0  0  0
  1 25  1  0  0  0  0
  1 26  1  0  0  0  0
  2  3  1  0  0  0  0
  3  4  2  0  0  0  0
  3 23  1  0  0  0  0
  4  5  1  0  0  0  0
  4 27  1  0  0  0  0
  5  6  2  0  0  0  0
  5 28  1  0  0  0  0
  6  7  1  0  0  0  0
  6 22  1  0  0  0  0
  7  8  1  0  0  0  0
  8  9  1  0  0  0  0
  8 29  1  0  0  0  0
  8 30  1  0  0  0  0
  9 10  1  0  0  0  0
  9 31  1  0  0  0  0
  9 32  1  0  0  0  0
 10 11  1  0  0  0  0
 10 21  1  0  0  0  0
 11 12  1  0  0  0  0
 11 33  1  0  0  0  0
 11 34  1  0  0  0  0
 12 13  2  0  0  0  0
 12 17  1  0  0  0  0
 13 14  1  0  0  0  0
 13 35  1  0  0  0  0
 14 15  2  0  0  0  0
 14 36  1  0  0  0  0
 15 16  1  0  0  0  0
 15 18  1  0  0  0  0
 16 17  2  0  0  0  0
 16 37  1  0  0  0  0
 17 38  1  0  0  0  0
 18 19  1  0  0  0  0
 18 20  2  0  0  0  0
 19 39  1  0  0  0  0
 21 22  1  0  0  0  0
 21 40  1  0  0  0  0
 21 41  1  0  0  0  0
 22 23  2  0  0  0  0
 23 42  1  0  0  0  0
M  END
>  <DRUGBANK_ID>
DB16944

>  <COMMON_NAME>
ARM-210

>  <CAS_NUMBER>
1467605-57-7

>  <UNII>
1033GN605L

>  <SYNONYMS>
4-((7-methoxy-2,3-dihydro-1,4-benzothiazepin-4(5h)-yl)methyl)benzoic acid; Benzoic acid, 4-((2,3-dihydro-7-methoxy-1,4-benzothiazepin-4(5h)-yl)methyl)-; Rycal dmd

$$$$
