
 OpenBabel10282417072D

 75 77  0  0  1  0  0  0  0  0999 V2000
    0.1536    1.3672    0.0000 C   0  0  0  0  0  0  0  0  0  0  0  0
   -0.3984    0.7541    0.0000 C   0  0  2  0  0  0  0  0  0  0  0  0
   -1.2054    0.9256    0.0000 C   0  0  0  0  0  0  0  0  0  0  0  0
   -1.4604    1.7103    0.0000 C   0  0  0  0  0  0  0  0  0  0  0  0
   -2.2673    1.8818    0.0000 C   0  0  2  0  0  0  0  0  0  0  0  0
   -2.0958    2.6888    0.0000 C   0  0  0  0  0  0  0  0  0  0  0  0
   -3.0743    2.0533    0.0000 C   0  0  0  0  0  0  0  0  0  0  0  0
   -3.3292    2.8379    0.0000 C   0  0  0  0  0  0  0  0  0  0  0  0
   -3.6263    1.4402    0.0000 C   0  0  0  0  0  0  0  0  0  0  0  0
   -2.4389    1.0748    0.0000 O   0  0  0  0  0  0  0  0  0  0  0  0
   -0.1435   -0.0305    0.0000 C   0  0  1  0  0  0  0  0  0  0  0  0
   -0.6284   -0.6979    0.0000 C   0  0  0  0  0  0  0  0  0  0  0  0
   -0.1435   -1.3654    0.0000 C   0  0  0  0  0  0  0  0  0  0  0  0
    0.6411   -1.1104    0.0000 C   0  0  2  0  0  0  0  0  0  0  0  0
    0.6411   -0.2854    0.0000 C   0  0  2  0  0  0  0  0  0  0  0  0
    1.3556    0.1271    0.0000 C   0  0  0  0  0  0  0  0  0  0  0  0
    2.0701   -0.2854    0.0000 C   0  0  0  0  0  0  0  0  0  0  0  0
    2.0701   -1.1104    0.0000 C   0  0  0  0  0  0  0  0  0  0  0  0
    1.3556   -1.5229    0.0000 C   0  0  0  0  0  0  0  0  0  0  0  0
    1.3556   -2.3479    0.0000 C   0  0  0  0  0  0  0  0  0  0  0  0
    2.0701   -2.7604    0.0000 C   0  0  0  0  0  0  0  0  0  0  0  0
    2.0701   -3.5854    0.0000 C   0  0  0  0  0  0  0  0  0  0  0  0
    2.7845   -3.9979    0.0000 C   0  0  0  0  0  0  0  0  0  0  0  0
    2.7845   -4.8229    0.0000 C   0  0  2  0  0  0  0  0  0  0  0  0
    2.0701   -5.2354    0.0000 C   0  0  0  0  0  0  0  0  0  0  0  0
    1.3556   -4.8229    0.0000 C   0  0  1  0  0  0  0  0  0  0  0  0
    1.3556   -3.9979    0.0000 C   0  0  0  0  0  0  0  0  0  0  0  0
    0.6411   -3.5854    0.0000 C   0  0  0  0  0  0  0  0  0  0  0  0
    0.6411   -5.2354    0.0000 O   0  0  0  0  0  0  0  0  0  0  0  0
    3.4990   -5.2354    0.0000 O   0  0  0  0  0  0  0  0  0  0  0  0
    0.5549    0.5350    0.0000 C   0  0  0  0  0  0  0  0  0  0  0  0
    1.2002    1.1448    0.0000 H   0  0  0  0  0  0  0  0  0  0  0  0
   -0.1771    2.3848    0.0000 H   0  0  0  0  0  0  0  0  0  0  0  0
    0.8695    2.1624    0.0000 H   0  0  0  0  0  0  0  0  0  0  0  0
   -1.1144   -0.0411    0.0000 H   0  0  0  0  0  0  0  0  0  0  0  0
   -1.8959    0.1586    0.0000 H   0  0  0  0  0  0  0  0  0  0  0  0
   -0.7699    2.4772    0.0000 H   0  0  0  0  0  0  0  0  0  0  0  0
   -1.0782    3.0195    0.0000 H   0  0  0  0  0  0  0  0  0  0  0  0
   -2.8910    3.4047    0.0000 H   0  0  0  0  0  0  0  0  0  0  0  0
   -1.8734    3.7354    0.0000 H   0  0  0  0  0  0  0  0  0  0  0  0
   -4.1209    2.2758    0.0000 H   0  0  0  0  0  0  0  0  0  0  0  0
   -2.6132    3.6330    0.0000 H   0  0  0  0  0  0  0  0  0  0  0  0
   -4.3758    3.0604    0.0000 H   0  0  0  0  0  0  0  0  0  0  0  0
   -3.6598    3.8555    0.0000 H   0  0  0  0  0  0  0  0  0  0  0  0
   -4.6729    1.6626    0.0000 H   0  0  0  0  0  0  0  0  0  0  0  0
   -3.2956    0.4226    0.0000 H   0  0  0  0  0  0  0  0  0  0  0  0
   -4.3422    0.6450    0.0000 H   0  0  0  0  0  0  0  0  0  0  0  0
   -3.3614    0.7751    0.0000 H   0  0  0  0  0  0  0  0  0  0  0  0
   -1.2003    0.1369    0.0000 H   0  0  0  0  0  0  0  0  0  0  0  0
   -1.6984   -0.6979    0.0000 H   0  0  0  0  0  0  0  0  0  0  0  0
   -1.1142   -1.6513    0.0000 H   0  0  0  0  0  0  0  0  0  0  0  0
   -0.4741   -2.3830    0.0000 H   0  0  0  0  0  0  0  0  0  0  0  0
    0.6131   -2.1220    0.0000 H   0  0  0  0  0  0  0  0  0  0  0  0
   -0.2246   -0.4815    0.0000 H   0  0  0  0  0  0  0  0  0  0  0  0
    1.3556    1.1971    0.0000 H   0  0  0  0  0  0  0  0  0  0  0  0
    2.2822    0.6621    0.0000 H   0  0  0  0  0  0  0  0  0  0  0  0
    2.9967    0.2496    0.0000 H   0  0  0  0  0  0  0  0  0  0  0  0
    2.9967   -0.8204    0.0000 H   0  0  0  0  0  0  0  0  0  0  0  0
    2.9967   -1.6454    0.0000 H   0  0  0  0  0  0  0  0  0  0  0  0
    2.0701   -2.1804    0.0000 H   0  0  0  0  0  0  0  0  0  0  0  0
    0.4619   -2.8639    0.0000 H   0  0  0  0  0  0  0  0  0  0  0  0
    2.9638   -2.2444    0.0000 H   0  0  0  0  0  0  0  0  0  0  0  0
    3.7112   -3.4629    0.0000 H   0  0  0  0  0  0  0  0  0  0  0  0
    3.7111   -4.5329    0.0000 H   0  0  0  0  0  0  0  0  0  0  0  0
    3.7111   -4.2879    0.0000 H   0  0  0  0  0  0  0  0  0  0  0  0
    2.0701   -6.3054    0.0000 H   0  0  0  0  0  0  0  0  0  0  0  0
    1.1435   -5.7704    0.0000 H   0  0  0  0  0  0  0  0  0  0  0  0
    1.3556   -5.8929    0.0000 H   0  0  0  0  0  0  0  0  0  0  0  0
    0.6411   -2.5534    0.0000 H   0  0  0  0  0  0  0  0  0  0  0  0
   -0.2526   -4.1014    0.0000 H   0  0  0  0  0  0  0  0  0  0  0  0
   -0.1989   -4.7504    0.0000 H   0  0  0  0  0  0  0  0  0  0  0  0
    3.4990   -6.2054    0.0000 H   0  0  0  0  0  0  0  0  0  0  0  0
    1.4206    1.1639    0.0000 H   0  0  0  0  0  0  0  0  0  0  0  0
   -0.4226    0.9702    0.0000 H   0  0  0  0  0  0  0  0  0  0  0  0
    0.4431    1.5991    0.0000 H   0  0  0  0  0  0  0  0  0  0  0  0
  1 32  1  0  0  0  0
  1 33  1  0  0  0  0
  1 34  1  0  0  0  0
  2  1  1  0  0  0  0
  2  3  1  0  0  0  0
  2 35  1  6  0  0  0
  3  4  2  0  0  0  0
  3 36  1  0  0  0  0
  4 37  1  0  0  0  0
  5  4  1  1  0  0  0
  5  6  1  0  0  0  0
  5  7  1  0  0  0  0
  5 10  1  0  0  0  0
  6 38  1  0  0  0  0
  6 39  1  0  0  0  0
  6 40  1  0  0  0  0
  7  8  1  0  0  0  0
  7  9  1  0  0  0  0
  7 41  1  0  0  0  0
  8 42  1  0  0  0  0
  8 43  1  0  0  0  0
  8 44  1  0  0  0  0
  9 45  1  0  0  0  0
  9 46  1  0  0  0  0
  9 47  1  0  0  0  0
 10 48  1  0  0  0  0
 11  2  1  0  0  0  0
 11 12  1  0  0  0  0
 11 15  1  0  0  0  0
 11 49  1  1  0  0  0
 12 13  1  0  0  0  0
 12 50  1  0  0  0  0
 12 51  1  0  0  0  0
 13 52  1  0  0  0  0
 13 53  1  0  0  0  0
 14 13  1  0  0  0  0
 14 19  1  0  0  0  0
 14 54  1  1  0  0  0
 15 14  1  0  0  0  0
 15 16  1  0  0  0  0
 15 31  1  6  0  0  0
 16 17  1  0  0  0  0
 16 55  1  0  0  0  0
 16 56  1  0  0  0  0
 17 18  1  0  0  0  0
 17 57  1  0  0  0  0
 17 58  1  0  0  0  0
 18 19  1  0  0  0  0
 18 59  1  0  0  0  0
 18 60  1  0  0  0  0
 19 20  2  0  0  0  0
 20 21  1  0  0  0  0
 20 61  1  0  0  0  0
 21 22  2  0  0  0  0
 21 62  1  0  0  0  0
 22 23  1  0  0  0  0
 22 27  1  0  0  0  0
 23 63  1  0  0  0  0
 23 64  1  0  0  0  0
 24 23  1  0  0  0  0
 24 25  1  0  0  0  0
 24 30  1  0  0  0  0
 24 65  1  6  0  0  0
 25 66  1  0  0  0  0
 25 67  1  0  0  0  0
 26 25  1  0  0  0  0
 26 27  1  0  0  0  0
 26 29  1  0  0  0  0
 26 68  1  1  0  0  0
 27 28  2  0  0  0  0
 28 69  1  0  0  0  0
 28 70  1  0  0  0  0
 29 71  1  0  0  0  0
 30 72  1  0  0  0  0
 31 73  1  0  0  0  0
 31 74  1  0  0  0  0
 31 75  1  0  0  0  0
M  END
>  <DRUGBANK_ID>
DB06117

>  <COMMON_NAME>
1alpha,24S-Dihydroxyvitamin D2

>  <CAS_NUMBER>
156316-85-7

>  <UNII>
2900I92Z36

$$$$
