
 OpenBabel10282417072D

 74 79  0  0  0  0  0  0  0  0999 V2000
   -6.8159   -2.8414    0.0000 C   0  0  0  0  0  0  0  0  0  0  0  0
   -6.4034   -2.1269    0.0000 O   0  0  0  0  0  0  0  0  0  0  0  0
   -5.5784   -2.1269    0.0000 C   0  0  0  0  0  0  0  0  0  0  0  0
   -5.1659   -1.4124    0.0000 C   0  0  0  0  0  0  0  0  0  0  0  0
   -4.3409   -1.4124    0.0000 N   0  0  0  0  0  0  0  0  0  0  0  0
   -3.9284   -0.6979    0.0000 C   0  0  0  0  0  0  0  0  0  0  0  0
   -3.1034   -0.6979    0.0000 C   0  0  0  0  0  0  0  0  0  0  0  0
   -2.6909    0.0165    0.0000 C   0  0  0  0  0  0  0  0  0  0  0  0
   -1.8659    0.0165    0.0000 C   0  0  0  0  0  0  0  0  0  0  0  0
   -1.4534   -0.6979    0.0000 C   0  0  0  0  0  0  0  0  0  0  0  0
   -1.8659   -1.4124    0.0000 N   0  0  0  0  0  0  0  0  0  0  0  0
   -2.6909   -1.4124    0.0000 C   0  0  0  0  0  0  0  0  0  0  0  0
   -0.6284   -0.6979    0.0000 C   0  0  0  0  0  0  0  0  0  0  0  0
   -0.1435   -1.3654    0.0000 C   0  0  0  0  0  0  0  0  0  0  0  0
    0.6411   -1.1104    0.0000 C   0  0  0  0  0  0  0  0  0  0  0  0
    0.6411   -0.2854    0.0000 C   0  0  0  0  0  0  0  0  0  0  0  0
   -0.1435   -0.0305    0.0000 S   0  0  0  0  0  0  0  0  0  0  0  0
    1.3556    0.1271    0.0000 C   0  0  0  0  0  0  0  0  0  0  0  0
    1.3556    0.9521    0.0000 O   0  0  0  0  0  0  0  0  0  0  0  0
    2.0701    1.3646    0.0000 C   0  0  0  0  0  0  0  0  0  0  0  0
    2.0701    2.1896    0.0000 C   0  0  0  0  0  0  0  0  0  0  0  0
    1.3556    2.6021    0.0000 F   0  0  0  0  0  0  0  0  0  0  0  0
    2.7845    2.6021    0.0000 C   0  0  0  0  0  0  0  0  0  0  0  0
    3.4990    2.1896    0.0000 C   0  0  0  0  0  0  0  0  0  0  0  0
    4.2135    2.6021    0.0000 N   0  0  0  0  0  0  0  0  0  0  0  0
    4.2135    3.4271    0.0000 C   0  0  0  0  0  0  0  0  0  0  0  0
    3.4990    3.8396    0.0000 O   0  0  0  0  0  0  0  0  0  0  0  0
    4.9279    3.8396    0.0000 C   0  0  0  0  0  0  0  0  0  0  0  0
    5.7404    3.9828    0.0000 C   0  0  0  0  0  0  0  0  0  0  0  0
    5.4582    3.2076    0.0000 C   0  0  0  0  0  0  0  0  0  0  0  0
    4.6458    4.6148    0.0000 C   0  0  0  0  0  0  0  0  0  0  0  0
    3.8333    4.7581    0.0000 O   0  0  0  0  0  0  0  0  0  0  0  0
    5.1761    5.2468    0.0000 N   0  0  0  0  0  0  0  0  0  0  0  0
    5.9885    5.1035    0.0000 C   0  0  0  0  0  0  0  0  0  0  0  0
    6.5188    5.7355    0.0000 C   0  0  0  0  0  0  0  0  0  0  0  0
    7.3313    5.5923    0.0000 C   0  0  0  0  0  0  0  0  0  0  0  0
    7.6135    4.8170    0.0000 C   0  0  0  0  0  0  0  0  0  0  0  0
    8.4259    4.6738    0.0000 F   0  0  0  0  0  0  0  0  0  0  0  0
    7.0832    4.1850    0.0000 C   0  0  0  0  0  0  0  0  0  0  0  0
    6.2707    4.3283    0.0000 C   0  0  0  0  0  0  0  0  0  0  0  0
    3.4990    1.3646    0.0000 C   0  0  0  0  0  0  0  0  0  0  0  0
    2.7845    0.9521    0.0000 C   0  0  0  0  0  0  0  0  0  0  0  0
    2.0701   -0.2854    0.0000 C   0  0  0  0  0  0  0  0  0  0  0  0
    2.0701   -1.1104    0.0000 C   0  0  0  0  0  0  0  0  0  0  0  0
    1.3556   -1.5229    0.0000 N   0  0  0  0  0  0  0  0  0  0  0  0
   -7.8859   -2.8414    0.0000 H   0  0  0  0  0  0  0  0  0  0  0  0
   -6.2809   -3.7680    0.0000 H   0  0  0  0  0  0  0  0  0  0  0  0
   -7.3509   -3.7681    0.0000 H   0  0  0  0  0  0  0  0  0  0  0  0
   -5.0434   -3.0535    0.0000 H   0  0  0  0  0  0  0  0  0  0  0  0
   -4.5084   -2.1269    0.0000 H   0  0  0  0  0  0  0  0  0  0  0  0
   -5.7009   -0.4858    0.0000 H   0  0  0  0  0  0  0  0  0  0  0  0
   -4.6309   -0.4858    0.0000 H   0  0  0  0  0  0  0  0  0  0  0  0
   -3.8309   -2.2957    0.0000 H   0  0  0  0  0  0  0  0  0  0  0  0
   -4.4634    0.2287    0.0000 H   0  0  0  0  0  0  0  0  0  0  0  0
   -3.3934    0.2287    0.0000 H   0  0  0  0  0  0  0  0  0  0  0  0
   -3.2069    0.9102    0.0000 H   0  0  0  0  0  0  0  0  0  0  0  0
   -1.3499    0.9102    0.0000 H   0  0  0  0  0  0  0  0  0  0  0  0
   -3.2069   -2.3061    0.0000 H   0  0  0  0  0  0  0  0  0  0  0  0
   -0.4624   -2.3469    0.0000 H   0  0  0  0  0  0  0  0  0  0  0  0
    2.7845    3.6341    0.0000 H   0  0  0  0  0  0  0  0  0  0  0  0
    5.0661    2.1098    0.0000 H   0  0  0  0  0  0  0  0  0  0  0  0
    6.5601    4.6705    0.0000 H   0  0  0  0  0  0  0  0  0  0  0  0
    6.6169    3.3690    0.0000 H   0  0  0  0  0  0  0  0  0  0  0  0
    5.6440    2.1538    0.0000 H   0  0  0  0  0  0  0  0  0  0  0  0
    4.4884    2.7554    0.0000 H   0  0  0  0  0  0  0  0  0  0  0  0
    4.8394    6.1719    0.0000 H   0  0  0  0  0  0  0  0  0  0  0  0
    6.1658    6.7052    0.0000 H   0  0  0  0  0  0  0  0  0  0  0  0
    7.9946    6.3829    0.0000 H   0  0  0  0  0  0  0  0  0  0  0  0
    7.4361    3.2152    0.0000 H   0  0  0  0  0  0  0  0  0  0  0  0
    5.6073    3.5377    0.0000 H   0  0  0  0  0  0  0  0  0  0  0  0
    4.3927    0.8486    0.0000 H   0  0  0  0  0  0  0  0  0  0  0  0
    2.7845   -0.0799    0.0000 H   0  0  0  0  0  0  0  0  0  0  0  0
    2.9638    0.2306    0.0000 H   0  0  0  0  0  0  0  0  0  0  0  0
    2.9638   -1.6264    0.0000 H   0  0  0  0  0  0  0  0  0  0  0  0
  1  2  1  0  0  0  0
  1 46  1  0  0  0  0
  1 47  1  0  0  0  0
  1 48  1  0  0  0  0
  2  3  1  0  0  0  0
  3  4  1  0  0  0  0
  3 49  1  0  0  0  0
  3 50  1  0  0  0  0
  4  5  1  0  0  0  0
  4 51  1  0  0  0  0
  4 52  1  0  0  0  0
  5  6  1  0  0  0  0
  5 53  1  0  0  0  0
  6  7  1  0  0  0  0
  6 54  1  0  0  0  0
  6 55  1  0  0  0  0
  7  8  2  0  0  0  0
  7 12  1  0  0  0  0
  8  9  1  0  0  0  0
  8 56  1  0  0  0  0
  9 10  2  0  0  0  0
  9 57  1  0  0  0  0
 10 11  1  0  0  0  0
 10 13  1  0  0  0  0
 11 12  2  0  0  0  0
 12 58  1  0  0  0  0
 13 14  2  0  0  0  0
 13 17  1  0  0  0  0
 14 15  1  0  0  0  0
 14 59  1  0  0  0  0
 15 16  2  0  0  0  0
 15 45  1  0  0  0  0
 16 17  1  0  0  0  0
 16 18  1  0  0  0  0
 18 19  1  0  0  0  0
 18 43  2  0  0  0  0
 19 20  1  0  0  0  0
 20 21  2  0  0  0  0
 20 42  1  0  0  0  0
 21 22  1  0  0  0  0
 21 23  1  0  0  0  0
 23 24  2  0  0  0  0
 23 60  1  0  0  0  0
 24 25  1  0  0  0  0
 24 41  1  0  0  0  0
 25 26  1  0  0  0  0
 25 61  1  0  0  0  0
 26 27  2  0  0  0  0
 26 28  1  0  0  0  0
 28 29  1  0  0  0  0
 28 30  1  0  0  0  0
 28 31  1  0  0  0  0
 29 30  1  0  0  0  0
 29 62  1  0  0  0  0
 29 63  1  0  0  0  0
 30 64  1  0  0  0  0
 30 65  1  0  0  0  0
 31 32  2  0  0  0  0
 31 33  1  0  0  0  0
 33 34  1  0  0  0  0
 33 66  1  0  0  0  0
 34 35  2  0  0  0  0
 34 40  1  0  0  0  0
 35 36  1  0  0  0  0
 35 67  1  0  0  0  0
 36 37  2  0  0  0  0
 36 68  1  0  0  0  0
 37 38  1  0  0  0  0
 37 39  1  0  0  0  0
 39 40  2  0  0  0  0
 39 69  1  0  0  0  0
 40 70  1  0  0  0  0
 41 42  2  0  0  0  0
 41 71  1  0  0  0  0
 42 72  1  0  0  0  0
 43 44  1  0  0  0  0
 43 73  1  0  0  0  0
 44 45  2  0  0  0  0
 44 74  1  0  0  0  0
M  END
>  <DRUGBANK_ID>
DB15036

>  <COMMON_NAME>
Sitravatinib

>  <CAS_NUMBER>
1123837-84-2

>  <UNII>
CWG62Q1VTB

>  <SYNONYMS>
Sitravatinib

$$$$
