
 OpenBabel10282417072D

 61 65  0  0  0  0  0  0  0  0999 V2000
   -3.2176    1.9800    0.0000 C   0  0  0  0  0  0  0  0  0  0  0  0
   -3.2176    1.1550    0.0000 C   0  0  0  0  0  0  0  0  0  0  0  0
   -3.9189    0.7425    0.0000 C   0  0  0  0  0  0  0  0  0  0  0  0
   -4.6614    1.1550    0.0000 C   0  0  0  0  0  0  0  0  0  0  0  0
   -4.6614    1.9800    0.0000 C   0  0  0  0  0  0  0  0  0  0  0  0
   -3.9189    2.3926    0.0000 N   0  0  0  0  0  0  0  0  0  0  0  0
   -2.5163    2.3926    0.0000 C   0  0  0  0  0  0  0  0  0  0  0  0
   -1.7738    1.9800    0.0000 C   0  0  0  0  0  0  0  0  0  0  0  0
   -1.7738    1.1550    0.0000 C   0  0  0  0  0  0  0  0  0  0  0  0
   -2.5163    0.7425    0.0000 C   0  0  0  0  0  0  0  0  0  0  0  0
   -1.0725    2.3926    0.0000 O   0  0  0  0  0  0  0  0  0  0  0  0
   -0.3712    1.9800    0.0000 C   0  0  0  0  0  0  0  0  0  0  0  0
   -1.0725    0.7425    0.0000 O   0  0  0  0  0  0  0  0  0  0  0  0
   -0.3712    1.1550    0.0000 C   0  0  0  0  0  0  0  0  0  0  0  0
   -3.9189   -0.0824    0.0000 O   0  0  0  0  0  0  0  0  0  0  0  0
   -3.1763   -0.4950    0.0000 C   0  0  0  0  0  0  0  0  0  0  0  0
   -3.1763   -1.3201    0.0000 C   0  0  0  0  0  0  0  0  0  0  0  0
   -2.4750   -1.7326    0.0000 C   0  0  0  0  0  0  0  0  0  0  0  0
   -1.7738   -1.3201    0.0000 C   0  0  0  0  0  0  0  0  0  0  0  0
   -1.7738   -0.4537    0.0000 C   0  0  0  0  0  0  0  0  0  0  0  0
   -2.4750   -0.0412    0.0000 C   0  0  0  0  0  0  0  0  0  0  0  0
   -1.0313   -1.6913    0.0000 N   0  0  0  0  0  0  0  0  0  0  0  0
   -0.3300   -1.2788    0.0000 C   0  0  0  0  0  0  0  0  0  0  0  0
    0.4125   -1.6913    0.0000 C   0  0  0  0  0  0  0  0  0  0  0  0
   -0.3300   -0.4537    0.0000 O   0  0  0  0  0  0  0  0  0  0  0  0
    1.1138   -1.2375    0.0000 C   0  0  0  0  0  0  0  0  0  0  0  0
    1.8151   -1.6500    0.0000 N   0  0  0  0  0  0  0  0  0  0  0  0
    1.1138   -0.4125    0.0000 O   0  0  0  0  0  0  0  0  0  0  0  0
    2.5163   -1.2375    0.0000 C   0  0  0  0  0  0  0  0  0  0  0  0
    3.2589   -1.6500    0.0000 C   0  0  0  0  0  0  0  0  0  0  0  0
    3.9189   -1.1963    0.0000 C   0  0  0  0  0  0  0  0  0  0  0  0
    3.9189   -0.3713    0.0000 C   0  0  0  0  0  0  0  0  0  0  0  0
    3.2176    0.0000    0.0000 C   0  0  0  0  0  0  0  0  0  0  0  0
    2.5163   -0.4125    0.0000 C   0  0  0  0  0  0  0  0  0  0  0  0
    4.6615    0.0000    0.0000 F   0  0  0  0  0  0  0  0  0  0  0  0
    0.0000   -2.3926    0.0000 C   0  0  0  0  0  0  0  0  0  0  0  0
    0.8250   -2.3926    0.0000 C   0  0  0  0  0  0  0  0  0  0  0  0
   -5.5509    0.6316    0.0000 H   0  0  0  0  0  0  0  0  0  0  0  0
   -5.5509    2.5033    0.0000 H   0  0  0  0  0  0  0  0  0  0  0  0
   -2.5290    3.4245    0.0000 H   0  0  0  0  0  0  0  0  0  0  0  0
   -2.5290   -0.2894    0.0000 H   0  0  0  0  0  0  0  0  0  0  0  0
   -0.3800    0.9100    0.0000 H   0  0  0  0  0  0  0  0  0  0  0  0
    0.5598    2.5074    0.0000 H   0  0  0  0  0  0  0  0  0  0  0  0
    0.5510    1.4374    0.0000 H   0  0  0  0  0  0  0  0  0  0  0  0
    0.5597    0.6275    0.0000 H   0  0  0  0  0  0  0  0  0  0  0  0
   -0.3799    2.2250    0.0000 H   0  0  0  0  0  0  0  0  0  0  0  0
    0.5511    1.6975    0.0000 H   0  0  0  0  0  0  0  0  0  0  0  0
   -4.0721   -1.8325    0.0000 H   0  0  0  0  0  0  0  0  0  0  0  0
   -2.4750   -2.7646    0.0000 H   0  0  0  0  0  0  0  0  0  0  0  0
   -0.8780    0.0587    0.0000 H   0  0  0  0  0  0  0  0  0  0  0  0
   -2.4970    0.9906    0.0000 H   0  0  0  0  0  0  0  0  0  0  0  0
   -0.9978   -2.6752    0.0000 H   0  0  0  0  0  0  0  0  0  0  0  0
    1.8151   -2.6345    0.0000 H   0  0  0  0  0  0  0  0  0  0  0  0
    3.3080   -2.6808    0.0000 H   0  0  0  0  0  0  0  0  0  0  0  0
    4.8322   -1.6768    0.0000 H   0  0  0  0  0  0  0  0  0  0  0  0
    3.1945    1.0317    0.0000 H   0  0  0  0  0  0  0  0  0  0  0  0
    1.6205    0.0999    0.0000 H   0  0  0  0  0  0  0  0  0  0  0  0
   -0.9288   -2.9238    0.0000 H   0  0  0  0  0  0  0  0  0  0  0  0
   -0.7520   -1.6314    0.0000 H   0  0  0  0  0  0  0  0  0  0  0  0
    1.7538   -2.9238    0.0000 H   0  0  0  0  0  0  0  0  0  0  0  0
    1.5770   -1.6314    0.0000 H   0  0  0  0  0  0  0  0  0  0  0  0
  1  2  2  0  0  0  0
  1  6  1  0  0  0  0
  1  7  1  0  0  0  0
  2  3  1  0  0  0  0
  2 10  1  0  0  0  0
  3  4  2  0  0  0  0
  3 15  1  0  0  0  0
  4  5  1  0  0  0  0
  4 38  1  0  0  0  0
  5  6  2  0  0  0  0
  5 39  1  0  0  0  0
  7  8  2  0  0  0  0
  7 40  1  0  0  0  0
  8  9  1  0  0  0  0
  8 11  1  0  0  0  0
  9 10  2  0  0  0  0
  9 13  1  0  0  0  0
 10 41  1  0  0  0  0
 11 12  1  0  0  0  0
 12 42  1  0  0  0  0
 12 43  1  0  0  0  0
 12 44  1  0  0  0  0
 13 14  1  0  0  0  0
 14 45  1  0  0  0  0
 14 46  1  0  0  0  0
 14 47  1  0  0  0  0
 15 16  1  0  0  0  0
 16 17  2  0  0  0  0
 16 21  1  0  0  0  0
 17 18  1  0  0  0  0
 17 48  1  0  0  0  0
 18 19  2  0  0  0  0
 18 49  1  0  0  0  0
 19 20  1  0  0  0  0
 19 22  1  0  0  0  0
 20 21  2  0  0  0  0
 20 50  1  0  0  0  0
 21 51  1  0  0  0  0
 22 23  1  0  0  0  0
 22 52  1  0  0  0  0
 23 24  1  0  0  0  0
 23 25  2  0  0  0  0
 24 26  1  0  0  0  0
 24 36  1  0  0  0  0
 26 27  1  0  0  0  0
 26 28  2  0  0  0  0
 27 29  1  0  0  0  0
 27 53  1  0  0  0  0
 29 30  2  0  0  0  0
 29 34  1  0  0  0  0
 30 31  1  0  0  0  0
 30 54  1  0  0  0  0
 31 32  2  0  0  0  0
 31 55  1  0  0  0  0
 32 33  1  0  0  0  0
 32 35  1  0  0  0  0
 33 34  2  0  0  0  0
 33 56  1  0  0  0  0
 34 57  1  0  0  0  0
 36 37  1  0  0  0  0
 36 58  1  0  0  0  0
 36 59  1  0  0  0  0
 37 24  1  0  0  0  0
 37 60  1  0  0  0  0
 37 61  1  0  0  0  0
M  END
>  <DRUGBANK_ID>
DB08875

>  <SECONDARY_ACCESSION_NUMBERS>
DB05153

>  <COMMON_NAME>
Cabozantinib

>  <CAS_NUMBER>
849217-68-1

>  <UNII>
1C39JW444G

>  <SYNONYMS>
Cabozantinib

$$$$
