
 OpenBabel10282417072D

 21 21  0  0  1  0  0  0  0  0999 V2000
    0.5678    1.9393    0.0000 N   0  0  0  0  0  0  0  0  0  0  0  0
    0.5678    1.1143    0.0000 C   0  0  1  0  0  0  0  0  0  0  0  0
    1.2352    0.6294    0.0000 C   0  0  0  0  0  0  0  0  0  0  0  0
    0.9803   -0.1553    0.0000 C   0  0  2  0  0  0  0  0  0  0  0  0
    0.1553   -0.1553    0.0000 C   0  0  0  0  0  0  0  0  0  0  0  0
   -0.0997    0.6294    0.0000 C   0  0  0  0  0  0  0  0  0  0  0  0
   -0.8843    0.8843    0.0000 C   0  0  0  0  0  0  0  0  0  0  0  0
   -1.4974    0.3323    0.0000 F   0  0  0  0  0  0  0  0  0  0  0  0
   -1.0558    1.6913    0.0000 F   0  0  0  0  0  0  0  0  0  0  0  0
    1.4652   -0.8227    0.0000 C   0  0  0  0  0  0  0  0  0  0  0  0
    2.2857   -0.7365    0.0000 O   0  0  0  0  0  0  0  0  0  0  0  0
    1.1296   -1.5764    0.0000 O   0  0  0  0  0  0  0  0  0  0  0  0
    1.4511    2.4493    0.0000 H   0  0  0  0  0  0  0  0  0  0  0  0
   -0.3155    2.4493    0.0000 H   0  0  0  0  0  0  0  0  0  0  0  0
    1.5212    1.6001    0.0000 H   0  0  0  0  0  0  0  0  0  0  0  0
    2.2528    0.9601    0.0000 H   0  0  0  0  0  0  0  0  0  0  0  0
    1.9918   -0.1272    0.0000 H   0  0  0  0  0  0  0  0  0  0  0  0
    2.0371    0.0121    0.0000 H   0  0  0  0  0  0  0  0  0  0  0  0
   -0.4736   -1.0210    0.0000 H   0  0  0  0  0  0  0  0  0  0  0  0
   -0.9015    0.0121    0.0000 H   0  0  0  0  0  0  0  0  0  0  0  0
    2.8364   -1.4946    0.0000 H   0  0  0  0  0  0  0  0  0  0  0  0
  1 13  1  0  0  0  0
  1 14  1  0  0  0  0
  2  1  1  0  0  0  0
  2  3  1  0  0  0  0
  2  6  1  0  0  0  0
  2 15  1  6  0  0  0
  3 16  1  0  0  0  0
  3 17  1  0  0  0  0
  4  3  1  0  0  0  0
  4  5  1  0  0  0  0
  4 10  1  0  0  0  0
  4 18  1  6  0  0  0
  5  6  1  0  0  0  0
  5 19  1  0  0  0  0
  5 20  1  0  0  0  0
  6  7  2  0  0  0  0
  7  8  1  0  0  0  0
  7  9  1  0  0  0  0
 10 11  1  0  0  0  0
 10 12  2  0  0  0  0
 11 21  1  0  0  0  0
M  END
>  <DRUGBANK_ID>
DB17919

>  <COMMON_NAME>
CPP-115 free base

>  <CAS_NUMBER>
640897-20-7

>  <UNII>
5TD9324Z2U

>  <SYNONYMS>
(+)-(1s,4s)-4-amino-3-(difluoromethylene)-1-cyclopentanecarboxylic acid; (1s,3s)-3-amino-4-(difluoromethylene) cyclopentanecarboxylic acid; (1s,3s)-3-amino-4-difluoromethylenyl-1-cyclopentanoic acid

$$$$
