
 OpenBabel10282417072D

 35 36  0  0  0  0  0  0  0  0999 V2000
   -0.3436    0.1979    0.0000 C   0  0  0  0  0  0  0  0  0  0  0  0
   -0.3436   -0.6271    0.0000 C   0  0  0  0  0  0  0  0  0  0  0  0
    0.3683   -1.0355    0.0000 C   0  0  0  0  0  0  0  0  0  0  0  0
    0.3683    0.6146    0.0000 C   0  0  0  0  0  0  0  0  0  0  0  0
    1.0804    0.1979    0.0000 C   0  0  0  0  0  0  0  0  0  0  0  0
    1.0769   -0.6271    0.0000 C   0  0  0  0  0  0  0  0  0  0  0  0
    2.5014   -0.6332    0.0000 C   0  0  3  0  0  0  0  0  0  0  0  0
    2.5048    0.1918    0.0000 C   0  0  0  0  0  0  0  0  0  0  0  0
    1.7921    0.6120    0.0000 N   0  0  0  0  0  0  0  0  0  0  0  0
    1.7856    1.4397    0.0000 C   0  0  0  0  0  0  0  0  0  0  0  0
    1.0689    1.8522    0.0000 C   0  0  0  0  0  0  0  0  0  0  0  0
    2.4982    1.8564    0.0000 C   0  0  0  0  0  0  0  0  0  0  0  0
    3.2108   -1.0438    0.0000 O   0  0  0  0  0  0  0  0  0  0  0  0
   -1.0604    0.6105    0.0000 O   0  0  0  0  0  0  0  0  0  0  0  0
   -1.0604   -1.0355    0.0000 N   0  0  0  0  0  0  0  0  0  0  0  0
   -1.7772   -0.6230    0.0000 N   0  0  0  0  0  0  0  0  0  0  0  0
   -2.4939   -1.0313    0.0000 C   0  0  0  0  0  0  0  0  0  0  0  0
   -3.2108   -0.6188    0.0000 N   0  0  0  0  0  0  0  0  0  0  0  0
   -2.4982   -1.8564    0.0000 O   0  0  0  0  0  0  0  0  0  0  0  0
    0.3693   -2.0675    0.0000 H   0  0  0  0  0  0  0  0  0  0  0  0
    0.3682    1.6466    0.0000 H   0  0  0  0  0  0  0  0  0  0  0  0
    2.2217   -1.6660    0.0000 H   0  0  0  0  0  0  0  0  0  0  0  0
    3.4350    0.7206    0.0000 H   0  0  0  0  0  0  0  0  0  0  0  0
    2.5132    1.2618    0.0000 H   0  0  0  0  0  0  0  0  0  0  0  0
    1.7819    2.5097    0.0000 H   0  0  0  0  0  0  0  0  0  0  0  0
    1.0675    2.9222    0.0000 H   0  0  0  0  0  0  0  0  0  0  0  0
    0.1430    1.3160    0.0000 H   0  0  0  0  0  0  0  0  0  0  0  0
    0.1415    2.3860    0.0000 H   0  0  0  0  0  0  0  0  0  0  0  0
    3.4278    1.3265    0.0000 H   0  0  0  0  0  0  0  0  0  0  0  0
    2.4923    2.9264    0.0000 H   0  0  0  0  0  0  0  0  0  0  0  0
    3.4219    2.3965    0.0000 H   0  0  0  0  0  0  0  0  0  0  0  0
    3.2097   -2.0138    0.0000 H   0  0  0  0  0  0  0  0  0  0  0  0
   -1.7751    0.3615    0.0000 H   0  0  0  0  0  0  0  0  0  0  0  0
   -3.2122    0.3657    0.0000 H   0  0  0  0  0  0  0  0  0  0  0  0
   -4.0627   -1.1123    0.0000 H   0  0  0  0  0  0  0  0  0  0  0  0
  1  2  1  0  0  0  0
  1  4  1  0  0  0  0
  1 14  2  0  0  0  0
  2  3  1  0  0  0  0
  2 15  2  0  0  0  0
  3  6  2  0  0  0  0
  3 20  1  0  0  0  0
  4 21  1  0  0  0  0
  5  4  2  0  0  0  0
  5  6  1  0  0  0  0
  6  7  1  0  0  0  0
  7 13  1  0  0  0  0
  7  8  1  0  0  0  0
  7 22  1  0  0  0  0
  8  9  1  0  0  0  0
  8 23  1  0  0  0  0
  8 24  1  0  0  0  0
  9 10  1  0  0  0  0
  9  5  1  0  0  0  0
 10 11  1  0  0  0  0
 10 12  1  0  0  0  0
 10 25  1  0  0  0  0
 11 26  1  0  0  0  0
 11 27  1  0  0  0  0
 11 28  1  0  0  0  0
 12 29  1  0  0  0  0
 12 30  1  0  0  0  0
 12 31  1  0  0  0  0
 13 32  1  0  0  0  0
 15 16  1  0  0  0  0
 16 17  1  0  0  0  0
 16 33  1  0  0  0  0
 17 18  1  0  0  0  0
 17 19  2  0  0  0  0
 18 34  1  0  0  0  0
 18 35  1  0  0  0  0
M  END
>  <DRUGBANK_ID>
DB13541

>  <COMMON_NAME>
Iprazochrome

>  <CAS_NUMBER>
7248-21-7

>  <UNII>
903A9K181P

>  <SYNONYMS>
Iprazochrome; Iprazochromum; Iprazocromo

$$$$
