
 OpenBabel10282417072D

 38 38  0  0  0  0  0  0  0  0999 V2000
   -0.2567   -1.0903    0.0000 C   0  0  0  0  0  0  0  0  0  0  0  0
   -0.4867    0.3616    0.0000 C   0  0  0  0  0  0  0  0  0  0  0  0
   -2.0516   -1.0903    0.0000 C   0  0  0  0  0  0  0  0  0  0  0  0
    0.4143    0.4169    0.0000 C   0  0  0  0  0  0  0  0  0  0  0  0
   -1.5667   -0.4229    0.0000 C   0  0  2  0  0  0  0  0  0  0  0  0
    0.5637   -1.0041    0.0000 C   0  0  2  0  0  0  0  0  0  0  0  0
   -1.1542    0.8465    0.0000 C   0  0  2  0  0  0  0  0  0  0  0  0
    0.8992   -0.2504    0.0000 C   0  0  3  0  0  0  0  0  0  0  0  0
   -1.8216    0.3616    0.0000 C   0  0  2  0  0  0  0  0  0  0  0  0
   -0.7417   -0.4229    0.0000 N   0  0  0  0  0  0  0  0  0  0  0  0
   -2.8721   -1.0041    0.0000 O   0  0  0  0  0  0  0  0  0  0  0  0
    0.7498    1.1706    0.0000 O   0  0  0  0  0  0  0  0  0  0  0  0
    1.0486   -1.6715    0.0000 O   0  0  0  0  0  0  0  0  0  0  0  0
   -1.1542    1.6715    0.0000 O   0  0  0  0  0  0  0  0  0  0  0  0
   -2.6062    0.6166    0.0000 O   0  0  0  0  0  0  0  0  0  0  0  0
    2.6895   -1.4991    0.0000 O   0  5  0  0  0  0  0  0  0  0  0  0
    1.5372   -1.3166    0.0000 O   0  5  0  0  0  0  0  0  0  0  0  0
    2.8721   -0.3467    0.0000 O   0  5  0  0  0  0  0  0  0  0  0  0
    1.7197   -0.1642    0.0000 O   0  0  0  0  0  0  0  0  0  0  0  0
    2.2046   -0.8316    0.0000 S   0  0  0  0  0  0  0  0  0  0  0  0
   -2.3815   -0.2938    0.0000 H   0  0  0  0  0  0  0  0  0  0  0  0
    0.0787   -0.3367    0.0000 H   0  0  0  0  0  0  0  0  0  0  0  0
   -1.8892    1.2211    0.0000 H   0  0  0  0  0  0  0  0  0  0  0  0
    1.2348    0.5031    0.0000 H   0  0  0  0  0  0  0  0  0  0  0  0
   -1.0370    0.1067    0.0000 H   0  0  0  0  0  0  0  0  0  0  0  0
   -0.6919   -2.0678    0.0000 H   0  0  0  0  0  0  0  0  0  0  0  0
   -1.3208   -1.2022    0.0000 H   0  0  0  0  0  0  0  0  0  0  0  0
    0.5309    0.6922    0.0000 H   0  0  0  0  0  0  0  0  0  0  0  0
    0.2699   -0.3951    0.0000 H   0  0  0  0  0  0  0  0  0  0  0  0
   -1.6164   -2.0678    0.0000 H   0  0  0  0  0  0  0  0  0  0  0  0
   -2.6805   -1.9560    0.0000 H   0  0  0  0  0  0  0  0  0  0  0  0
   -0.6498    0.3050    0.0000 H   0  0  0  0  0  0  0  0  0  0  0  0
   -0.2147    1.2825    0.0000 H   0  0  0  0  0  0  0  0  0  0  0  0
   -3.2667   -0.1180    0.0000 H   0  0  0  0  0  0  0  0  0  0  0  0
    1.7145    1.2721    0.0000 H   0  0  0  0  0  0  0  0  0  0  0  0
    0.6541   -2.5576    0.0000 H   0  0  0  0  0  0  0  0  0  0  0  0
   -0.3142    2.1565    0.0000 H   0  0  0  0  0  0  0  0  0  0  0  0
   -2.8078    1.5654    0.0000 H   0  0  0  0  0  0  0  0  0  0  0  0
  1 26  1  0  0  0  0
  1 27  1  0  0  0  0
  2 28  1  0  0  0  0
  2 29  1  0  0  0  0
  3 30  1  0  0  0  0
  3 31  1  0  0  0  0
  4 32  1  0  0  0  0
  4 33  1  0  0  0  0
  5  3  1  0  0  0  0
  5 10  1  0  0  0  0
  5 21  1  1  0  0  0
  6  1  1  0  0  0  0
  6  8  1  0  0  0  0
  6 13  1  0  0  0  0
  6 22  1  1  0  0  0
  7  2  1  0  0  0  0
  7 14  1  0  0  0  0
  7 23  1  1  0  0  0
  8  4  1  0  0  0  0
  9  5  1  0  0  0  0
  9  7  1  0  0  0  0
  9 15  1  0  0  0  0
  9 25  1  6  0  0  0
 10  1  1  0  0  0  0
 10  2  1  0  0  0  0
 11  3  1  0  0  0  0
 11 34  1  0  0  0  0
 12  4  1  0  0  0  0
 12 35  1  0  0  0  0
 13 36  1  0  0  0  0
 14 37  1  0  0  0  0
 15 38  1  0  0  0  0
 19  8  1  0  0  0  0
 20 16  1  0  0  0  0
 20 17  1  0  0  0  0
 20 18  1  0  0  0  0
 20 19  1  0  0  0  0
 24  8  1  0  0  0  0
M  CHG  3  16  -1  17  -1  18  -1
M  END
>  <DRUGBANK_ID>
DB02492

>  <SECONDARY_ACCESSION_NUMBERS>
EXPT01590

>  <COMMON_NAME>
Ghavamiol

$$$$
