11N
 OpenBabel10282417072D

 50 53  0  0  0  0  0  0  0  0999 V2000
   -1.2543    0.5848    0.0000 C   0  0  0  0  0  0  0  0  0  0  0  0
   -2.0677    0.4469    0.0000 C   0  0  0  0  0  0  0  0  0  0  0  0
   -2.5938    1.0824    0.0000 C   0  0  0  0  0  0  0  0  0  0  0  0
   -0.2000    1.6621    0.0000 C   0  0  3  0  0  0  0  0  0  0  0  0
   -0.2521    2.4855    0.0000 C   0  0  0  0  0  0  0  0  0  0  0  0
    0.5310    2.0446    0.0000 C   0  0  0  0  0  0  0  0  0  0  0  0
    0.4624    0.3960    0.0000 C   0  0  0  0  0  0  0  0  0  0  0  0
   -2.3550   -0.3264    0.0000 C   0  0  0  0  0  0  0  0  0  0  0  0
    1.8901    0.3366    0.0000 C   0  0  0  0  0  0  0  0  0  0  0  0
    1.1249   -0.8701    0.0000 C   0  0  0  0  0  0  0  0  0  0  0  0
    0.3596   -2.0769    0.0000 C   0  0  0  0  0  0  0  0  0  0  0  0
    1.0221   -3.3430    0.0000 C   0  0  0  0  0  0  0  0  0  0  0  0
    1.7873   -2.1362    0.0000 C   0  0  0  0  0  0  0  0  0  0  0  0
   -2.3065    1.8558    0.0000 C   0  0  0  0  0  0  0  0  0  0  0  0
   -1.4931    1.9936    0.0000 C   0  0  0  0  0  0  0  0  0  0  0  0
   -0.9670    1.3581    0.0000 C   0  0  0  0  0  0  0  0  0  0  0  0
   -1.0513    2.6904    0.0000 O   0  0  0  0  0  0  0  0  0  0  0  0
    1.2277    1.6027    0.0000 C   0  0  0  0  0  0  0  0  0  0  0  0
    1.1934    0.7785    0.0000 N   0  0  0  0  0  0  0  0  0  0  0  0
   -0.2343    0.8378    0.0000 C   0  0  0  0  0  0  0  0  0  0  0  0
   -1.8289   -0.9619    0.0000 N   0  0  0  0  0  0  0  0  0  0  0  0
    2.6211    0.7191    0.0000 O   0  0  0  0  0  0  0  0  0  0  0  0
    1.8559   -0.4877    0.0000 C   0  0  0  0  0  0  0  0  0  0  0  0
    1.0906   -1.6944    0.0000 C   0  0  0  0  0  0  0  0  0  0  0  0
    0.3253   -2.9012    0.0000 C   0  0  0  0  0  0  0  0  0  0  0  0
    1.7531   -2.9605    0.0000 C   0  0  0  0  0  0  0  0  0  0  0  0
   -0.5962   -0.2101    0.0000 H   0  0  0  0  0  0  0  0  0  0  0  0
   -3.6113    0.9099    0.0000 H   0  0  0  0  0  0  0  0  0  0  0  0
    0.5721    3.1678    0.0000 H   0  0  0  0  0  0  0  0  0  0  0  0
   -0.4859    3.5296    0.0000 H   0  0  0  0  0  0  0  0  0  0  0  0
    0.5755    3.1137    0.0000 H   0  0  0  0  0  0  0  0  0  0  0  0
    1.4791    2.5406    0.0000 H   0  0  0  0  0  0  0  0  0  0  0  0
    0.4180   -0.6731    0.0000 H   0  0  0  0  0  0  0  0  0  0  0  0
   -0.4857   -0.1001    0.0000 H   0  0  0  0  0  0  0  0  0  0  0  0
   -3.4100   -0.5052    0.0000 H   0  0  0  0  0  0  0  0  0  0  0  0
   -2.7276   -1.3294    0.0000 H   0  0  0  0  0  0  0  0  0  0  0  0
    0.2534   -0.3174    0.0000 H   0  0  0  0  0  0  0  0  0  0  0  0
   -0.5119   -1.5242    0.0000 H   0  0  0  0  0  0  0  0  0  0  0  0
    0.9793   -4.3741    0.0000 H   0  0  0  0  0  0  0  0  0  0  0  0
    2.7017   -1.6577    0.0000 H   0  0  0  0  0  0  0  0  0  0  0  0
   -2.9646    2.6508    0.0000 H   0  0  0  0  0  0  0  0  0  0  0  0
    2.1758    2.0987    0.0000 H   0  0  0  0  0  0  0  0  0  0  0  0
    2.1313    1.0296    0.0000 H   0  0  0  0  0  0  0  0  0  0  0  0
   -1.1824    0.3418    0.0000 H   0  0  0  0  0  0  0  0  0  0  0  0
   -0.2787   -0.2313    0.0000 H   0  0  0  0  0  0  0  0  0  0  0  0
   -2.1841   -1.9180    0.0000 H   0  0  0  0  0  0  0  0  0  0  0  0
   -0.8232   -0.7914    0.0000 H   0  0  0  0  0  0  0  0  0  0  0  0
    2.7274   -1.0404    0.0000 H   0  0  0  0  0  0  0  0  0  0  0  0
   -0.5891   -3.3796    0.0000 H   0  0  0  0  0  0  0  0  0  0  0  0
    2.6247   -3.5131    0.0000 H   0  0  0  0  0  0  0  0  0  0  0  0
  1  2  2  0  0  0  0
  1 16  1  0  0  0  0
  1 27  1  0  0  0  0
  2  3  1  0  0  0  0
  2  8  1  0  0  0  0
  3 14  2  0  0  0  0
  3 28  1  0  0  0  0
  4  5  1  0  0  0  0
  4  6  1  0  0  0  0
  4 16  1  0  0  0  0
  4 20  1  0  0  0  0
  5 17  1  0  0  0  0
  5 29  1  0  0  0  0
  5 30  1  0  0  0  0
  6 18  1  0  0  0  0
  6 31  1  0  0  0  0
  6 32  1  0  0  0  0
  7 19  1  0  0  0  0
  7 20  1  0  0  0  0
  7 33  1  0  0  0  0
  7 34  1  0  0  0  0
  8 21  1  0  0  0  0
  8 35  1  0  0  0  0
  8 36  1  0  0  0  0
  9 19  1  0  0  0  0
  9 22  2  0  0  0  0
  9 23  1  0  0  0  0
 10 23  2  0  0  0  0
 10 24  1  0  0  0  0
 10 37  1  0  0  0  0
 11 24  2  0  0  0  0
 11 25  1  0  0  0  0
 11 38  1  0  0  0  0
 12 25  2  0  0  0  0
 12 26  1  0  0  0  0
 12 39  1  0  0  0  0
 13 24  1  0  0  0  0
 13 26  2  0  0  0  0
 13 40  1  0  0  0  0
 14 15  1  0  0  0  0
 14 41  1  0  0  0  0
 15 16  2  0  0  0  0
 15 17  1  0  0  0  0
 18 19  1  0  0  0  0
 18 42  1  0  0  0  0
 18 43  1  0  0  0  0
 20 44  1  0  0  0  0
 20 45  1  0  0  0  0
 21 46  1  0  0  0  0
 21 47  1  0  0  0  0
 23 48  1  0  0  0  0
 25 49  1  0  0  0  0
 26 50  1  0  0  0  0
M  END
>  <DRUGBANK_ID>
DB06849

>  <COMMON_NAME>
1-[1'-(3-phenylacryloyl)spiro[1-benzofuran-3,4'-piperidin]-5-yl]methanamine

$$$$
