
 OpenBabel10282417072D

 41 43  0  0  1  0  0  0  0  0999 V2000
    2.7845    0.6979    0.0000 N   0  0  0  0  0  0  0  0  0  0  0  0
    2.0701    1.1104    0.0000 C   0  0  0  0  0  0  0  0  0  0  0  0
    1.3556    0.6979    0.0000 N   0  0  0  0  0  0  0  0  0  0  0  0
    0.6411    1.1104    0.0000 C   0  0  0  0  0  0  0  0  0  0  0  0
   -0.1435    0.8555    0.0000 N   0  0  0  0  0  0  0  0  0  0  0  0
   -0.3984    0.0709    0.0000 C   0  0  2  0  0  0  0  0  0  0  0  0
    0.0865   -0.5966    0.0000 O   0  0  0  0  0  0  0  0  0  0  0  0
   -0.3984   -1.2640    0.0000 C   0  0  2  0  0  0  0  0  0  0  0  0
   -0.1435   -2.0486    0.0000 C   0  0  0  0  0  0  0  0  0  0  0  0
   -0.6955   -2.6617    0.0000 O   0  0  0  0  0  0  0  0  0  0  0  0
   -1.1831   -1.0091    0.0000 C   0  0  1  0  0  0  0  0  0  0  0  0
   -1.8505   -1.4940    0.0000 O   0  0  0  0  0  0  0  0  0  0  0  0
   -1.1831   -0.1841    0.0000 C   0  0  1  0  0  0  0  0  0  0  0  0
   -1.8505    0.3009    0.0000 O   0  0  0  0  0  0  0  0  0  0  0  0
   -0.6284    1.5229    0.0000 C   0  0  0  0  0  0  0  0  0  0  0  0
   -1.4534    1.5229    0.0000 O   0  0  0  0  0  0  0  0  0  0  0  0
   -0.1435    2.1904    0.0000 N   0  0  0  0  0  0  0  0  0  0  0  0
   -0.3984    2.9750    0.0000 C   0  0  0  0  0  0  0  0  0  0  0  0
    0.1536    3.5881    0.0000 C   0  0  0  0  0  0  0  0  0  0  0  0
   -0.1014    4.3727    0.0000 C   0  0  0  0  0  0  0  0  0  0  0  0
    0.6411    1.9354    0.0000 C   0  0  0  0  0  0  0  0  0  0  0  0
    1.3556    2.3479    0.0000 C   0  0  0  0  0  0  0  0  0  0  0  0
    1.3556    3.1729    0.0000 O   0  0  0  0  0  0  0  0  0  0  0  0
    2.0701    1.9354    0.0000 N   0  0  0  0  0  0  0  0  0  0  0  0
    2.7845   -0.2866    0.0000 H   0  0  0  0  0  0  0  0  0  0  0  0
    3.6371    1.1901    0.0000 H   0  0  0  0  0  0  0  0  0  0  0  0
    0.6584    0.2383    0.0000 H   0  0  0  0  0  0  0  0  0  0  0  0
    0.6584   -1.4314    0.0000 H   0  0  0  0  0  0  0  0  0  0  0  0
    0.9031   -2.2711    0.0000 H   0  0  0  0  0  0  0  0  0  0  0  0
    0.1872   -3.0662    0.0000 H   0  0  0  0  0  0  0  0  0  0  0  0
   -1.6443   -2.4601    0.0000 H   0  0  0  0  0  0  0  0  0  0  0  0
   -1.0157   -2.0659    0.0000 H   0  0  0  0  0  0  0  0  0  0  0  0
   -2.7366   -1.0995    0.0000 H   0  0  0  0  0  0  0  0  0  0  0  0
   -2.1365   -0.6698    0.0000 H   0  0  0  0  0  0  0  0  0  0  0  0
   -1.7490    1.2656    0.0000 H   0  0  0  0  0  0  0  0  0  0  0  0
   -1.4450    3.1975    0.0000 H   0  0  0  0  0  0  0  0  0  0  0  0
   -0.7291    3.9926    0.0000 H   0  0  0  0  0  0  0  0  0  0  0  0
    1.1631    3.3736    0.0000 H   0  0  0  0  0  0  0  0  0  0  0  0
    0.5891    5.1397    0.0000 H   0  0  0  0  0  0  0  0  0  0  0  0
   -1.1109    4.5872    0.0000 H   0  0  0  0  0  0  0  0  0  0  0  0
    2.9227    2.4277    0.0000 H   0  0  0  0  0  0  0  0  0  0  0  0
  1  2  1  0  0  0  0
  1 25  1  0  0  0  0
  1 26  1  0  0  0  0
  2  3  2  0  0  0  0
  2 24  1  0  0  0  0
  3  4  1  0  0  0  0
  4  5  1  0  0  0  0
  4 21  2  0  0  0  0
  5 15  1  0  0  0  0
  6  5  1  0  0  0  0
  6  7  1  0  0  0  0
  6 27  1  1  0  0  0
  8  7  1  0  0  0  0
  8  9  1  0  0  0  0
  8 28  1  1  0  0  0
  9 10  1  0  0  0  0
  9 29  1  0  0  0  0
  9 30  1  0  0  0  0
 10 31  1  0  0  0  0
 11  8  1  0  0  0  0
 11 12  1  0  0  0  0
 11 13  1  0  0  0  0
 11 32  1  6  0  0  0
 12 33  1  0  0  0  0
 13  6  1  0  0  0  0
 13 14  1  0  0  0  0
 13 34  1  6  0  0  0
 14 35  1  0  0  0  0
 15 16  2  0  0  0  0
 15 17  1  0  0  0  0
 17 18  1  0  0  0  0
 17 21  1  0  0  0  0
 18 19  1  0  0  0  0
 18 36  1  0  0  0  0
 18 37  1  0  0  0  0
 19 20  2  0  0  0  0
 19 38  1  0  0  0  0
 20 39  1  0  0  0  0
 20 40  1  0  0  0  0
 21 22  1  0  0  0  0
 22 23  2  0  0  0  0
 22 24  1  0  0  0  0
 24 41  1  0  0  0  0
M  END
>  <DRUGBANK_ID>
DB17589

>  <COMMON_NAME>
Loxoribine

>  <CAS_NUMBER>
121288-39-9

>  <UNII>
9CAS0V66OI

>  <SYNONYMS>
7-Allyl-7,8-dihydro-8-oxoguanosine

$$$$
