
 OpenBabel10282417072D

 76 80  0  0  0  0  0  0  0  0999 V2000
   -1.0976    0.2405    0.0000 C   0  0  0  0  0  0  0  0  0  0  0  0
   -0.3114    0.0361    0.0000 O   0  0  0  0  0  0  0  0  0  0  0  0
   -1.7041   -0.3280    0.0000 N   0  0  0  0  0  0  0  0  0  0  0  0
   -1.2757    1.0646    0.0000 N   0  0  0  0  0  0  0  0  0  0  0  0
   -3.1694   -0.5619    0.0000 N   0  0  0  0  0  0  0  0  0  0  0  0
   -3.8186   -0.0807    0.0000 N   0  0  0  0  0  0  0  0  0  0  0  0
   -2.7705    0.7037    0.0000 C   0  0  0  0  0  0  0  0  0  0  0  0
   -3.5633    0.7037    0.0000 C   0  0  0  0  0  0  0  0  0  0  0  0
   -2.4887   -0.0725    0.0000 C   0  0  0  0  0  0  0  0  0  0  0  0
   -4.0791    1.3597    0.0000 C   0  0  0  0  0  0  0  0  0  0  0  0
   -2.4425   -1.8130    0.0000 C   0  0  0  0  0  0  0  0  0  0  0  0
   -3.1447   -1.3812    0.0000 C   0  0  0  0  0  0  0  0  0  0  0  0
   -3.8748   -1.8179    0.0000 C   0  0  0  0  0  0  0  0  0  0  0  0
   -3.8501   -2.6370    0.0000 C   0  0  0  0  0  0  0  0  0  0  0  0
   -3.1216   -3.0441    0.0000 C   0  0  0  0  0  0  0  0  0  0  0  0
   -2.4179   -2.6321    0.0000 C   0  0  0  0  0  0  0  0  0  0  0  0
   -3.1232   -3.8880    0.0000 C   0  0  0  0  0  0  0  0  0  0  0  0
    0.0642    1.3794    0.0000 C   0  0  0  0  0  0  0  0  0  0  0  0
    0.6707    1.9480    0.0000 C   0  0  0  0  0  0  0  0  0  0  0  0
    0.2686    0.5801    0.0000 C   0  0  0  0  0  0  0  0  0  0  0  0
    1.4552    1.6926    0.0000 C   0  0  0  0  0  0  0  0  0  0  0  0
    0.5174    2.7458    0.0000 C   0  0  0  0  0  0  0  0  0  0  0  0
   -0.6956    1.6085    0.0000 C   0  0  0  0  0  0  0  0  0  0  0  0
   -0.8735    2.4326    0.0000 C   0  0  0  0  0  0  0  0  0  0  0  0
   -0.2422    2.9748    0.0000 C   0  0  0  0  0  0  0  0  0  0  0  0
    1.6596    0.8932    0.0000 C   0  0  0  0  0  0  0  0  0  0  0  0
    1.0531    0.3246    0.0000 C   0  0  0  0  0  0  0  0  0  0  0  0
    1.1487    3.2880    0.0000 O   0  0  0  0  0  0  0  0  0  0  0  0
    1.9333    3.0325    0.0000 C   0  0  0  0  0  0  0  0  0  0  0  0
    2.5134    3.5763    0.0000 C   0  0  0  0  0  0  0  0  0  0  0  0
    3.3243    3.3456    0.0000 N   0  0  0  0  0  0  0  0  0  0  0  0
    4.8934    2.8348    0.0000 O   0  0  0  0  0  0  0  0  0  0  0  0
    3.9555    3.8880    0.0000 C   0  0  0  0  0  0  0  0  0  0  0  0
    3.5024    2.5216    0.0000 C   0  0  0  0  0  0  0  0  0  0  0  0
    4.2868    2.2662    0.0000 C   0  0  0  0  0  0  0  0  0  0  0  0
    4.7136    3.6077    0.0000 C   0  0  0  0  0  0  0  0  0  0  0  0
   -3.7735    2.1233    0.0000 C   0  0  0  0  0  0  0  0  0  0  0  0
   -4.8934    1.2426    0.0000 C   0  0  0  0  0  0  0  0  0  0  0  0
   -4.6608    1.9413    0.0000 C   0  0  0  0  0  0  0  0  0  0  0  0
   -1.4901   -1.2890    0.0000 H   0  0  0  0  0  0  0  0  0  0  0  0
   -2.2155    1.3578    0.0000 H   0  0  0  0  0  0  0  0  0  0  0  0
   -2.1782    1.5488    0.0000 H   0  0  0  0  0  0  0  0  0  0  0  0
   -1.5494   -1.2960    0.0000 H   0  0  0  0  0  0  0  0  0  0  0  0
   -4.7801   -1.3224    0.0000 H   0  0  0  0  0  0  0  0  0  0  0  0
   -4.7322   -3.1726    0.0000 H   0  0  0  0  0  0  0  0  0  0  0  0
   -1.5150   -3.1319    0.0000 H   0  0  0  0  0  0  0  0  0  0  0  0
   -4.0509   -4.4212    0.0000 H   0  0  0  0  0  0  0  0  0  0  0  0
   -2.1976   -4.4248    0.0000 H   0  0  0  0  0  0  0  0  0  0  0  0
   -3.1252   -4.9580    0.0000 H   0  0  0  0  0  0  0  0  0  0  0  0
   -0.4843   -0.1257    0.0000 H   0  0  0  0  0  0  0  0  0  0  0  0
    2.2081    2.3985    0.0000 H   0  0  0  0  0  0  0  0  0  0  0  0
   -1.8517    2.7614    0.0000 H   0  0  0  0  0  0  0  0  0  0  0  0
   -0.4557    3.9845    0.0000 H   0  0  0  0  0  0  0  0  0  0  0  0
    2.6504    0.6044    0.0000 H   0  0  0  0  0  0  0  0  0  0  0  0
    1.2775   -0.6827    0.0000 H   0  0  0  0  0  0  0  0  0  0  0  0
    2.1659    1.9881    0.0000 H   0  0  0  0  0  0  0  0  0  0  0  0
    2.9557    2.7170    0.0000 H   0  0  0  0  0  0  0  0  0  0  0  0
    2.2612    4.6161    0.0000 H   0  0  0  0  0  0  0  0  0  0  0  0
    3.2847    4.3179    0.0000 H   0  0  0  0  0  0  0  0  0  0  0  0
    3.7662    4.9411    0.0000 H   0  0  0  0  0  0  0  0  0  0  0  0
    4.7758    4.5751    0.0000 H   0  0  0  0  0  0  0  0  0  0  0  0
    2.7082    1.8045    0.0000 H   0  0  0  0  0  0  0  0  0  0  0  0
    3.7253    1.4751    0.0000 H   0  0  0  0  0  0  0  0  0  0  0  0
    4.5194    1.2218    0.0000 H   0  0  0  0  0  0  0  0  0  0  0  0
    3.4949    1.5466    0.0000 H   0  0  0  0  0  0  0  0  0  0  0  0
    5.5162    4.3153    0.0000 H   0  0  0  0  0  0  0  0  0  0  0  0
    4.5176    4.6596    0.0000 H   0  0  0  0  0  0  0  0  0  0  0  0
   -2.7144    2.2757    0.0000 H   0  0  0  0  0  0  0  0  0  0  0  0
   -4.4350    2.9643    0.0000 H   0  0  0  0  0  0  0  0  0  0  0  0
   -3.3759    3.1167    0.0000 H   0  0  0  0  0  0  0  0  0  0  0  0
   -5.5549    2.0837    0.0000 H   0  0  0  0  0  0  0  0  0  0  0  0
   -5.2911    0.2492    0.0000 H   0  0  0  0  0  0  0  0  0  0  0  0
   -5.9525    1.0903    0.0000 H   0  0  0  0  0  0  0  0  0  0  0  0
   -4.3840    2.9749    0.0000 H   0  0  0  0  0  0  0  0  0  0  0  0
   -5.6943    1.6643    0.0000 H   0  0  0  0  0  0  0  0  0  0  0  0
   -5.4175    2.6978    0.0000 H   0  0  0  0  0  0  0  0  0  0  0  0
  2  1  2  0  0  0  0
  3  1  1  0  0  0  0
  3 40  1  0  0  0  0
  4  1  1  0  0  0  0
  4 41  1  0  0  0  0
  6  5  1  0  0  0  0
  7 42  1  0  0  0  0
  8  6  2  0  0  0  0
  8  7  1  0  0  0  0
  9  3  1  0  0  0  0
  9  5  1  0  0  0  0
  9  7  2  0  0  0  0
 10  8  1  0  0  0  0
 10 37  1  0  0  0  0
 10 38  1  0  0  0  0
 10 39  1  0  0  0  0
 11 43  1  0  0  0  0
 12  5  1  0  0  0  0
 12 11  1  0  0  0  0
 13 12  2  0  0  0  0
 13 44  1  0  0  0  0
 14 13  1  0  0  0  0
 14 45  1  0  0  0  0
 15 14  2  0  0  0  0
 16 11  2  0  0  0  0
 16 15  1  0  0  0  0
 16 46  1  0  0  0  0
 17 15  1  0  0  0  0
 17 47  1  0  0  0  0
 17 48  1  0  0  0  0
 17 49  1  0  0  0  0
 19 18  2  0  0  0  0
 20 18  1  0  0  0  0
 20 50  1  0  0  0  0
 21 19  1  0  0  0  0
 21 51  1  0  0  0  0
 22 19  1  0  0  0  0
 23  4  1  0  0  0  0
 23 18  1  0  0  0  0
 24 23  2  0  0  0  0
 24 52  1  0  0  0  0
 25 22  2  0  0  0  0
 25 24  1  0  0  0  0
 25 53  1  0  0  0  0
 26 21  2  0  0  0  0
 26 54  1  0  0  0  0
 27 20  2  0  0  0  0
 27 26  1  0  0  0  0
 27 55  1  0  0  0  0
 28 22  1  0  0  0  0
 29 28  1  0  0  0  0
 29 56  1  0  0  0  0
 29 57  1  0  0  0  0
 30 29  1  0  0  0  0
 30 58  1  0  0  0  0
 30 59  1  0  0  0  0
 31 30  1  0  0  0  0
 33 31  1  0  0  0  0
 33 60  1  0  0  0  0
 33 61  1  0  0  0  0
 34 31  1  0  0  0  0
 34 62  1  0  0  0  0
 34 63  1  0  0  0  0
 35 32  1  0  0  0  0
 35 34  1  0  0  0  0
 35 64  1  0  0  0  0
 35 65  1  0  0  0  0
 36 32  1  0  0  0  0
 36 33  1  0  0  0  0
 36 66  1  0  0  0  0
 36 67  1  0  0  0  0
 37 68  1  0  0  0  0
 37 69  1  0  0  0  0
 37 70  1  0  0  0  0
 38 71  1  0  0  0  0
 38 72  1  0  0  0  0
 38 73  1  0  0  0  0
 39 74  1  0  0  0  0
 39 75  1  0  0  0  0
 39 76  1  0  0  0  0
M  END
>  <DRUGBANK_ID>
DB03044

>  <SECONDARY_ACCESSION_NUMBERS>
EXPT00616

>  <COMMON_NAME>
Doramapimod

>  <CAS_NUMBER>
285983-48-4

>  <UNII>
HO1A8B3YVV

>  <SYNONYMS>
Doramapimod

$$$$
