
 OpenBabel10282417072D

 40 41  0  0  0  0  0  0  0  0999 V2000
    4.2866    1.8562    0.0000 C   0  0  0  0  0  0  0  0  0  0  0  0
    3.5721    1.4437    0.0000 C   0  0  0  0  0  0  0  0  0  0  0  0
    3.5721    0.6187    0.0000 C   0  0  0  0  0  0  0  0  0  0  0  0
    4.2866    0.2062    0.0000 C   0  0  0  0  0  0  0  0  0  0  0  0
    5.0011    0.6187    0.0000 C   0  0  0  0  0  0  0  0  0  0  0  0
    5.0011    1.4437    0.0000 C   0  0  0  0  0  0  0  0  0  0  0  0
    0.0000    0.2062    0.0000 C   0  0  0  0  0  0  0  0  0  0  0  0
   -0.7144    0.6186    0.0000 C   0  0  0  0  0  0  0  0  0  0  0  0
   -1.4289   -0.6187    0.0000 C   0  0  0  0  0  0  0  0  0  0  0  0
   -1.4289    0.2061    0.0000 C   0  0  0  0  0  0  0  0  0  0  0  0
   -0.7144   -1.0312    0.0000 C   0  0  0  0  0  0  0  0  0  0  0  0
    0.0000   -0.6187    0.0000 C   0  0  0  0  0  0  0  0  0  0  0  0
    2.8577    1.8562    0.0000 F   0  0  0  0  0  0  0  0  0  0  0  0
    4.2866   -0.6186    0.0000 F   0  0  0  0  0  0  0  0  0  0  0  0
    2.8578    0.2062    0.0000 C   0  0  0  0  0  0  0  0  0  0  0  0
    2.1433    0.6187    0.0000 N   0  0  0  0  0  0  0  0  0  0  0  0
    1.4288    0.2062    0.0000 C   0  0  0  0  0  0  0  0  0  0  0  0
    0.7143    0.6187    0.0000 N   0  0  0  0  0  0  0  0  0  0  0  0
   -0.7144   -1.8562    0.0000 Cl  0  0  0  0  0  0  0  0  0  0  0  0
   -2.1433   -1.0312    0.0000 O   0  0  0  0  0  0  0  0  0  0  0  0
   -3.5722   -1.0313    0.0000 C   0  0  3  0  0  0  0  0  0  0  0  0
   -2.8578    0.2061    0.0000 F   0  0  0  0  0  0  0  0  0  0  0  0
   -3.5722   -1.8562    0.0000 F   0  0  0  0  0  0  0  0  0  0  0  0
    2.8578   -0.6186    0.0000 O   0  0  0  0  0  0  0  0  0  0  0  0
    1.4288   -0.6187    0.0000 O   0  0  0  0  0  0  0  0  0  0  0  0
   -0.7144    1.4436    0.0000 Cl  0  0  0  0  0  0  0  0  0  0  0  0
   -4.2867    0.2061    0.0000 F   0  0  0  0  0  0  0  0  0  0  0  0
   -5.0011   -1.0313    0.0000 F   0  0  0  0  0  0  0  0  0  0  0  0
   -4.2867   -0.6188    0.0000 C   0  0  0  0  0  0  0  0  0  0  0  0
   -5.0011   -0.2063    0.0000 F   0  0  0  0  0  0  0  0  0  0  0  0
   -2.8577   -0.6188    0.0000 C   0  0  0  0  0  0  0  0  0  0  0  0
   -2.1433   -0.2063    0.0000 F   0  0  0  0  0  0  0  0  0  0  0  0
    4.2866    2.8882    0.0000 H   0  0  0  0  0  0  0  0  0  0  0  0
    5.8948    0.1027    0.0000 H   0  0  0  0  0  0  0  0  0  0  0  0
    5.8948    1.9597    0.0000 H   0  0  0  0  0  0  0  0  0  0  0  0
   -2.3226    0.7221    0.0000 H   0  0  0  0  0  0  0  0  0  0  0  0
    0.8937   -1.1347    0.0000 H   0  0  0  0  0  0  0  0  0  0  0  0
    2.1433    1.6032    0.0000 H   0  0  0  0  0  0  0  0  0  0  0  0
    0.7142    1.6032    0.0000 H   0  0  0  0  0  0  0  0  0  0  0  0
   -3.5722    0.0387    0.0000 H   0  0  0  0  0  0  0  0  0  0  0  0
  1  2  2  0  0  0  0
  1  6  1  0  0  0  0
  1 33  1  0  0  0  0
  2  3  1  0  0  0  0
  3  4  2  0  0  0  0
  4  5  1  0  0  0  0
  5  6  2  0  0  0  0
  5 34  1  0  0  0  0
  6 35  1  0  0  0  0
  7 18  1  0  0  0  0
  7  8  1  0  0  0  0
  8 10  2  0  0  0  0
 10  9  1  0  0  0  0
 10 36  1  0  0  0  0
 11  9  2  0  0  0  0
 11 12  1  0  0  0  0
 12  7  2  0  0  0  0
 12 37  1  0  0  0  0
 13  2  1  0  0  0  0
 14  4  1  0  0  0  0
 15  3  1  0  0  0  0
 16 15  1  0  0  0  0
 16 38  1  0  0  0  0
 17 16  1  0  0  0  0
 18 17  1  0  0  0  0
 18 39  1  0  0  0  0
 19 11  1  0  0  0  0
 20  9  1  0  0  0  0
 21 31  1  0  0  0  0
 21 40  1  0  0  0  0
 22 31  1  0  0  0  0
 23 21  1  0  0  0  0
 24 15  2  0  0  0  0
 25 17  2  0  0  0  0
 26  8  1  0  0  0  0
 27 29  1  0  0  0  0
 28 29  1  0  0  0  0
 29 21  1  0  0  0  0
 29 30  1  0  0  0  0
 31 20  1  0  0  0  0
 31 32  1  0  0  0  0
M  END
>  <DRUGBANK_ID>
DB11424

>  <COMMON_NAME>
Lufenuron

>  <CAS_NUMBER>
103055-07-8

>  <UNII>
1R754M4918

>  <SYNONYMS>
1-(2,5-dichloro-4-(1,1,2,3,3,3-hexafluoropropoxy)phenyl)-3-(2,6-difluorobenzoyl)urea; Fluphenacur; Lufenuron; Lufenurone; Lufenuronum; N-({[2,5-dichloro-4-(1,1,2,3,3,3-hexafluoropropoxy)phenyl]amino}carbonyl)-2,6-difluorobenzamide

$$$$
