157
 OpenBabel10282417072D

 38 38  0  0  0  0  0  0  0  0999 V2000
    0.0494    0.0187    0.0000 C   0  0  0  0  0  0  0  0  0  0  0  0
   -0.4907   -0.6049    0.0000 C   0  0  0  0  0  0  0  0  0  0  0  0
   -1.3008   -0.4490    0.0000 C   0  0  0  0  0  0  0  0  0  0  0  0
   -1.8409   -1.0726    0.0000 C   0  0  0  0  0  0  0  0  0  0  0  0
   -2.6510   -0.9167    0.0000 C   0  0  0  0  0  0  0  0  0  0  0  0
   -3.1911   -1.5404    0.0000 N   0  0  0  0  0  0  0  0  0  0  0  0
   -2.9211   -0.1372    0.0000 N   0  0  0  0  0  0  0  0  0  0  0  0
    0.5895   -1.5404    0.0000 O   0  0  0  0  0  0  0  0  0  0  0  0
    2.6479   -0.2903    0.0000 O   0  0  0  0  0  0  0  0  0  0  0  0
    1.3997    0.4865    0.0000 C   0  0  1  0  0  0  0  0  0  0  0  0
    1.9189    1.7162    0.0000 C   0  0  0  0  0  0  0  0  0  0  0  0
    1.2126    1.2900    0.0000 C   0  0  0  0  0  0  0  0  0  0  0  0
    2.2217    0.4161    0.0000 C   0  0  2  0  0  0  0  0  0  0  0  0
    2.5426    1.1761    0.0000 C   0  0  0  0  0  0  0  0  0  0  0  0
    0.8596   -0.1372    0.0000 C   0  0  2  0  0  0  0  0  0  0  0  0
    1.1296   -0.9167    0.0000 C   0  0  0  0  0  0  0  0  0  0  0  0
    0.8190    0.4244    0.0000 H   0  0  0  0  0  0  0  0  0  0  0  0
    1.9131   -0.0797    0.0000 H   0  0  0  0  0  0  0  0  0  0  0  0
    0.4912    0.3159    0.0000 H   0  0  0  0  0  0  0  0  0  0  0  0
   -0.3008    1.0298    0.0000 H   0  0  0  0  0  0  0  0  0  0  0  0
    0.7499    0.8276    0.0000 H   0  0  0  0  0  0  0  0  0  0  0  0
   -0.1405   -1.6160    0.0000 H   0  0  0  0  0  0  0  0  0  0  0  0
   -1.1912   -1.4137    0.0000 H   0  0  0  0  0  0  0  0  0  0  0  0
   -1.6510    0.5621    0.0000 H   0  0  0  0  0  0  0  0  0  0  0  0
   -2.3515   -0.2468    0.0000 H   0  0  0  0  0  0  0  0  0  0  0  0
   -1.4907   -2.0837    0.0000 H   0  0  0  0  0  0  0  0  0  0  0  0
   -2.5414   -1.8814    0.0000 H   0  0  0  0  0  0  0  0  0  0  0  0
   -4.1579   -1.3544    0.0000 H   0  0  0  0  0  0  0  0  0  0  0  0
   -2.8688   -2.4707    0.0000 H   0  0  0  0  0  0  0  0  0  0  0  0
   -2.2767    0.6071    0.0000 H   0  0  0  0  0  0  0  0  0  0  0  0
    2.1792   -1.1395    0.0000 H   0  0  0  0  0  0  0  0  0  0  0  0
    2.0101    2.7823    0.0000 H   0  0  0  0  0  0  0  0  0  0  0  0
    2.9102    2.1189    0.0000 H   0  0  0  0  0  0  0  0  0  0  0  0
    0.2269    1.7062    0.0000 H   0  0  0  0  0  0  0  0  0  0  0  0
    1.1359    2.3573    0.0000 H   0  0  0  0  0  0  0  0  0  0  0  0
    3.5847    1.4188    0.0000 H   0  0  0  0  0  0  0  0  0  0  0  0
    3.2319    0.3577    0.0000 H   0  0  0  0  0  0  0  0  0  0  0  0
    2.1430   -1.1117    0.0000 H   0  0  0  0  0  0  0  0  0  0  0  0
  1  2  1  0  0  0  0
  1 15  1  0  0  0  0
  1 20  1  0  0  0  0
  1 21  1  0  0  0  0
  2  3  1  0  0  0  0
  2 22  1  0  0  0  0
  2 23  1  0  0  0  0
  3  4  1  0  0  0  0
  3 24  1  0  0  0  0
  3 25  1  0  0  0  0
  4  5  1  0  0  0  0
  4 26  1  0  0  0  0
  4 27  1  0  0  0  0
  5  6  1  0  0  0  0
  5  7  2  0  0  0  0
  6 28  1  0  0  0  0
  6 29  1  0  0  0  0
  7 30  1  0  0  0  0
  8 16  2  0  0  0  0
  9 31  1  0  0  0  0
 10 12  1  0  0  0  0
 10 13  1  0  0  0  0
 10 15  1  0  0  0  0
 10 17  1  6  0  0  0
 11 12  1  0  0  0  0
 11 14  1  0  0  0  0
 11 32  1  0  0  0  0
 11 33  1  0  0  0  0
 12 34  1  0  0  0  0
 12 35  1  0  0  0  0
 13  9  1  0  0  0  0
 13 14  1  0  0  0  0
 13 18  1  1  0  0  0
 14 36  1  0  0  0  0
 14 37  1  0  0  0  0
 15 16  1  0  0  0  0
 15 19  1  1  0  0  0
 16 38  1  0  0  0  0
M  END
>  <DRUGBANK_ID>
DB06861

>  <COMMON_NAME>
6-(2-HYDROXY-CYCLOPENTYL)-7-OXO-HEPTANAMIDINE

$$$$
