KSM
 OpenBabel10282417072D

 52 56  0  0  0  0  0  0  0  0999 V2000
   -0.4519    2.0147    0.0000 Cl  0  0  0  0  0  0  0  0  0  0  0  0
   -0.8865    2.7159    0.0000 C   0  0  0  0  0  0  0  0  0  0  0  0
   -0.4965    3.4429    0.0000 C   0  0  0  0  0  0  0  0  0  0  0  0
   -0.9311    4.1442    0.0000 C   0  0  0  0  0  0  0  0  0  0  0  0
   -1.7557    4.1184    0.0000 C   0  0  0  0  0  0  0  0  0  0  0  0
   -2.1457    3.3914    0.0000 C   0  0  0  0  0  0  0  0  0  0  0  0
   -2.9703    3.3657    0.0000 C   0  0  0  0  0  0  0  0  0  0  0  0
   -1.7111    2.6902    0.0000 C   0  0  0  0  0  0  0  0  0  0  0  0
   -2.1011    1.9632    0.0000 N   0  0  0  0  0  0  0  0  0  0  0  0
   -1.6664    1.2619    0.0000 C   0  0  0  0  0  0  0  0  0  0  0  0
   -2.0564    0.5349    0.0000 C   0  0  0  0  0  0  0  0  0  0  0  0
   -2.8577    0.3383    0.0000 C   0  0  0  0  0  0  0  0  0  0  0  0
   -2.9182   -0.4845    0.0000 N   0  0  0  0  0  0  0  0  0  0  0  0
   -0.8418    1.2877    0.0000 N   0  0  0  0  0  0  0  0  0  0  0  0
   -0.4072    0.5864    0.0000 C   0  0  0  0  0  0  0  0  0  0  0  0
    0.4174    0.6122    0.0000 C   0  0  0  0  0  0  0  0  0  0  0  0
    0.8520   -0.0890    0.0000 C   0  0  0  0  0  0  0  0  0  0  0  0
    0.4620   -0.8160    0.0000 C   0  0  0  0  0  0  0  0  0  0  0  0
   -0.3626   -0.8418    0.0000 C   0  0  0  0  0  0  0  0  0  0  0  0
   -0.7972   -0.1406    0.0000 C   0  0  0  0  0  0  0  0  0  0  0  0
   -1.6218   -0.1663    0.0000 N   0  0  0  0  0  0  0  0  0  0  0  0
   -2.1544   -0.7964    0.0000 C   0  0  0  0  0  0  0  0  0  0  0  0
    0.8966   -1.5173    0.0000 N   0  0  0  0  0  0  0  0  0  0  0  0
    1.7212   -1.4915    0.0000 C   0  0  0  0  0  0  0  0  0  0  0  0
    2.1558   -2.1928    0.0000 C   0  0  0  0  0  0  0  0  0  0  0  0
    1.7658   -2.9198    0.0000 N   0  0  0  0  0  0  0  0  0  0  0  0
    0.9412   -2.9455    0.0000 C   0  0  1  0  0  0  0  0  0  0  0  0
    0.5512   -3.6725    0.0000 C   0  0  0  0  0  0  0  0  0  0  0  0
    0.5066   -2.2443    0.0000 C   0  0  0  0  0  0  0  0  0  0  0  0
    1.2488   -3.4419    0.0000 H   0  0  0  0  0  0  0  0  0  0  0  0
    0.5350    3.4751    0.0000 H   0  0  0  0  0  0  0  0  0  0  0  0
   -0.4433    5.0536    0.0000 H   0  0  0  0  0  0  0  0  0  0  0  0
   -2.2994    4.9956    0.0000 H   0  0  0  0  0  0  0  0  0  0  0  0
   -3.5339    4.2752    0.0000 H   0  0  0  0  0  0  0  0  0  0  0  0
   -3.4762    2.4228    0.0000 H   0  0  0  0  0  0  0  0  0  0  0  0
   -4.0398    3.3324    0.0000 H   0  0  0  0  0  0  0  0  0  0  0  0
   -3.0851    1.9324    0.0000 H   0  0  0  0  0  0  0  0  0  0  0  0
   -3.6458    1.0046    0.0000 H   0  0  0  0  0  0  0  0  0  0  0  0
    0.9052    1.5216    0.0000 H   0  0  0  0  0  0  0  0  0  0  0  0
    1.8835   -0.0568    0.0000 H   0  0  0  0  0  0  0  0  0  0  0  0
   -0.8504   -1.7512    0.0000 H   0  0  0  0  0  0  0  0  0  0  0  0
   -1.9084   -1.7987    0.0000 H   0  0  0  0  0  0  0  0  0  0  0  0
    2.2270   -0.5486    0.0000 H   0  0  0  0  0  0  0  0  0  0  0  0
    2.7907   -1.4581    0.0000 H   0  0  0  0  0  0  0  0  0  0  0  0
    3.2253   -2.1594    0.0000 H   0  0  0  0  0  0  0  0  0  0  0  0
    2.7195   -3.1023    0.0000 H   0  0  0  0  0  0  0  0  0  0  0  0
    2.3031   -3.7868    0.0000 H   0  0  0  0  0  0  0  0  0  0  0  0
   -0.5183   -3.7059    0.0000 H   0  0  0  0  0  0  0  0  0  0  0  0
    1.1149   -4.5820    0.0000 H   0  0  0  0  0  0  0  0  0  0  0  0
    0.0454   -4.6154    0.0000 H   0  0  0  0  0  0  0  0  0  0  0  0
   -0.5629   -2.2777    0.0000 H   0  0  0  0  0  0  0  0  0  0  0  0
    0.0008   -3.1872    0.0000 H   0  0  0  0  0  0  0  0  0  0  0  0
  1  2  1  0  0  0  0
  2  3  2  0  0  0  0
  2  8  1  0  0  0  0
  3  4  1  0  0  0  0
  3 31  1  0  0  0  0
  4  5  2  0  0  0  0
  4 32  1  0  0  0  0
  5  6  1  0  0  0  0
  5 33  1  0  0  0  0
  6  7  1  0  0  0  0
  6  8  2  0  0  0  0
  7 34  1  0  0  0  0
  7 35  1  0  0  0  0
  7 36  1  0  0  0  0
  8  9  1  0  0  0  0
  9 10  1  0  0  0  0
  9 37  1  0  0  0  0
 10 11  1  0  0  0  0
 10 14  2  0  0  0  0
 11 12  2  0  0  0  0
 11 21  1  0  0  0  0
 12 13  1  0  0  0  0
 12 38  1  0  0  0  0
 13 22  2  0  0  0  0
 14 15  1  0  0  0  0
 15 16  2  0  0  0  0
 15 20  1  0  0  0  0
 16 17  1  0  0  0  0
 16 39  1  0  0  0  0
 17 18  2  0  0  0  0
 17 40  1  0  0  0  0
 18 19  1  0  0  0  0
 18 23  1  0  0  0  0
 19 20  2  0  0  0  0
 19 41  1  0  0  0  0
 20 21  1  0  0  0  0
 21 22  1  0  0  0  0
 22 42  1  0  0  0  0
 23 24  1  0  0  0  0
 23 29  1  0  0  0  0
 24 25  1  0  0  0  0
 24 43  1  0  0  0  0
 24 44  1  0  0  0  0
 25 26  1  0  0  0  0
 25 45  1  0  0  0  0
 25 46  1  0  0  0  0
 26 27  1  0  0  0  0
 26 47  1  0  0  0  0
 27 28  1  0  0  0  0
 27 29  1  0  0  0  0
 27 30  1  6  0  0  0
 28 48  1  0  0  0  0
 28 49  1  0  0  0  0
 28 50  1  0  0  0  0
 29 51  1  0  0  0  0
 29 52  1  0  0  0  0
M  END
>  <DRUGBANK_ID>
DB08057

>  <COMMON_NAME>
N-(2-chloro-6-methylphenyl)-8-[(3S)-3-methylpiperazin-1-yl]imidazo[1,5-a]quinoxalin-4-amine

$$$$
