
 OpenBabel10282417072D

 29 31  0  0  0  0  0  0  0  0999 V2000
    1.7064    2.6812    0.0000 N   0  0  0  0  0  0  0  0  0  0  0  0
    0.9920    2.2687    0.0000 C   0  0  0  0  0  0  0  0  0  0  0  0
    0.9920    1.4437    0.0000 N   0  0  0  0  0  0  0  0  0  0  0  0
    0.2775    1.0312    0.0000 C   0  0  0  0  0  0  0  0  0  0  0  0
    0.2775    0.2062    0.0000 O   0  0  0  0  0  0  0  0  0  0  0  0
    0.9920   -0.2062    0.0000 C   0  0  0  0  0  0  0  0  0  0  0  0
    0.9920   -1.0312    0.0000 C   0  0  0  0  0  0  0  0  0  0  0  0
    1.7064   -1.4437    0.0000 C   0  0  0  0  0  0  0  0  0  0  0  0
    1.7064   -2.2687    0.0000 C   0  0  0  0  0  0  0  0  0  0  0  0
    0.9920   -2.6812    0.0000 C   0  0  0  0  0  0  0  0  0  0  0  0
    0.2775   -2.2687    0.0000 C   0  0  0  0  0  0  0  0  0  0  0  0
    0.2775   -1.4437    0.0000 C   0  0  0  0  0  0  0  0  0  0  0  0
   -0.4369    1.4437    0.0000 C   0  0  0  0  0  0  0  0  0  0  0  0
   -1.2215    1.1888    0.0000 N   0  0  0  0  0  0  0  0  0  0  0  0
   -1.7064    1.8562    0.0000 C   0  0  0  0  0  0  0  0  0  0  0  0
   -1.2215    2.5236    0.0000 N   0  0  0  0  0  0  0  0  0  0  0  0
   -0.4369    2.2687    0.0000 C   0  0  0  0  0  0  0  0  0  0  0  0
    0.2775    2.6812    0.0000 N   0  0  0  0  0  0  0  0  0  0  0  0
    2.5590    2.1890    0.0000 H   0  0  0  0  0  0  0  0  0  0  0  0
    1.7064    3.6657    0.0000 H   0  0  0  0  0  0  0  0  0  0  0  0
    1.9186    0.3289    0.0000 H   0  0  0  0  0  0  0  0  0  0  0  0
    1.9187   -0.7412    0.0000 H   0  0  0  0  0  0  0  0  0  0  0  0
    2.6001   -0.9277    0.0000 H   0  0  0  0  0  0  0  0  0  0  0  0
    2.6001   -2.7847    0.0000 H   0  0  0  0  0  0  0  0  0  0  0  0
    0.9920   -3.7132    0.0000 H   0  0  0  0  0  0  0  0  0  0  0  0
   -0.6162   -2.7847    0.0000 H   0  0  0  0  0  0  0  0  0  0  0  0
   -0.6162   -0.9277    0.0000 H   0  0  0  0  0  0  0  0  0  0  0  0
   -2.7384    1.8562    0.0000 H   0  0  0  0  0  0  0  0  0  0  0  0
   -1.5257    3.4599    0.0000 H   0  0  0  0  0  0  0  0  0  0  0  0
  1  2  1  0  0  0  0
  1 19  1  0  0  0  0
  1 20  1  0  0  0  0
  2  3  2  0  0  0  0
  2 18  1  0  0  0  0
  3  4  1  0  0  0  0
  4  5  1  0  0  0  0
  4 13  2  0  0  0  0
  5  6  1  0  0  0  0
  6  7  1  0  0  0  0
  6 21  1  0  0  0  0
  6 22  1  0  0  0  0
  7  8  2  0  0  0  0
  7 12  1  0  0  0  0
  8  9  1  0  0  0  0
  8 23  1  0  0  0  0
  9 10  2  0  0  0  0
  9 24  1  0  0  0  0
 10 11  1  0  0  0  0
 10 25  1  0  0  0  0
 11 12  2  0  0  0  0
 11 26  1  0  0  0  0
 12 27  1  0  0  0  0
 13 14  1  0  0  0  0
 13 17  1  0  0  0  0
 14 15  2  0  0  0  0
 15 16  1  0  0  0  0
 15 28  1  0  0  0  0
 16 17  1  0  0  0  0
 16 29  1  0  0  0  0
 17 18  2  0  0  0  0
M  END
>  <DRUGBANK_ID>
DB11919

>  <COMMON_NAME>
6-O-benzylguanine

>  <CAS_NUMBER>
19916-73-5

>  <UNII>
01KC87F8FE

>  <SYNONYMS>
O(6)-Benzylguanine; O6-benzylguanine

$$$$
