1566
 OpenBabel10282417072D

 32 33  0  0  1  0  0  0  0  0999 V2000
    7.4321    0.4081    0.0000 O   0  0  0  0  0  0  0  0  0  0  0  0
    7.4321   -0.9196    0.0000 O   0  0  0  0  0  0  0  0  0  0  0  0
    3.0791    0.5693    0.0000 N   0  0  0  0  0  0  0  0  0  0  0  0
    3.7935    0.1568    0.0000 C   0  0  3  0  0  0  0  0  0  0  0  0
    4.5080    0.5693    0.0000 C   0  0  0  0  0  0  0  0  0  0  0  0
    5.2224    0.1568    0.0000 C   0  0  0  0  0  0  0  0  0  0  0  0
    3.7935   -0.6683    0.0000 C   0  0  0  0  0  0  0  0  0  0  0  0
    5.9370    0.5693    0.0000 C   0  0  0  0  0  0  0  0  0  0  0  0
    2.3645    0.1568    0.0000 C   0  0  0  0  0  0  0  0  0  0  0  0
    5.2224   -0.6683    0.0000 C   0  0  0  0  0  0  0  0  0  0  0  0
    6.6515    0.1568    0.0000 C   0  0  0  0  0  0  0  0  0  0  0  0
    6.6515   -0.6683    0.0000 C   0  0  0  0  0  0  0  0  0  0  0  0
    5.9370   -1.0808    0.0000 C   0  0  0  0  0  0  0  0  0  0  0  0
    1.6500    0.5693    0.0000 C   0  0  0  0  0  0  0  0  0  0  0  0
    7.9136   -0.2558    0.0000 C   0  0  0  0  0  0  0  0  0  0  0  0
    3.0792    1.5893    0.0000 H   0  0  0  0  0  0  0  0  0  0  0  0
    3.7935    1.2268    0.0000 H   0  0  0  0  0  0  0  0  0  0  0  0
    4.5080    1.6393    0.0000 H   0  0  0  0  0  0  0  0  0  0  0  0
    5.4347    1.1043    0.0000 H   0  0  0  0  0  0  0  0  0  0  0  0
    2.8669   -1.2033    0.0000 H   0  0  0  0  0  0  0  0  0  0  0  0
    4.7201   -1.2033    0.0000 H   0  0  0  0  0  0  0  0  0  0  0  0
    3.7935   -1.7383    0.0000 H   0  0  0  0  0  0  0  0  0  0  0  0
    5.9370    1.6013    0.0000 H   0  0  0  0  0  0  0  0  0  0  0  0
    2.3645   -0.9132    0.0000 H   0  0  0  0  0  0  0  0  0  0  0  0
    1.4378   -0.3782    0.0000 H   0  0  0  0  0  0  0  0  0  0  0  0
    4.3287   -1.1843    0.0000 H   0  0  0  0  0  0  0  0  0  0  0  0
    5.9370   -2.1128    0.0000 H   0  0  0  0  0  0  0  0  0  0  0  0
    1.6500    1.6393    0.0000 H   0  0  0  0  0  0  0  0  0  0  0  0
    0.7234    0.0343    0.0000 H   0  0  0  0  0  0  0  0  0  0  0  0
    0.7233    1.1043    0.0000 H   0  0  0  0  0  0  0  0  0  0  0  0
    8.9836   -0.2558    0.0000 H   0  0  0  0  0  0  0  0  0  0  0  0
    8.3997   -1.2090    0.0000 H   0  0  0  0  0  0  0  0  0  0  0  0
  1 11  1  0  0  0  0
  1 15  1  0  0  0  0
  2 12  1  0  0  0  0
  2 15  1  0  0  0  0
  3  4  1  0  0  0  0
  3  9  1  0  0  0  0
  3 16  1  0  0  0  0
  4  5  1  0  0  0  0
  4  7  1  0  0  0  0
  4 17  1  0  0  0  0
  5  6  1  0  0  0  0
  5 18  1  0  0  0  0
  5 19  1  0  0  0  0
  6  8  2  0  0  0  0
  6 10  1  0  0  0  0
  7 20  1  0  0  0  0
  7 21  1  0  0  0  0
  7 22  1  0  0  0  0
  8 11  1  0  0  0  0
  8 23  1  0  0  0  0
  9 14  1  0  0  0  0
  9 24  1  0  0  0  0
  9 25  1  0  0  0  0
 10 13  2  0  0  0  0
 10 26  1  0  0  0  0
 11 12  2  0  0  0  0
 12 13  1  0  0  0  0
 13 27  1  0  0  0  0
 14 28  1  0  0  0  0
 14 29  1  0  0  0  0
 14 30  1  0  0  0  0
 15 31  1  0  0  0  0
 15 32  1  0  0  0  0
M  END
>  <DRUGBANK_ID>
DB01566

>  <COMMON_NAME>
Methylenedioxyethamphetamine

>  <CAS_NUMBER>
82801-81-8

>  <UNII>
ML1I4KK67B

>  <SYNONYMS>
(+/-)-MDE; 3,4-methylenedioxy-N-ethylamphetamine; MDE; n-ethyl MDA

$$$$
