
 OpenBabel10282417072D

 57 57  0  0  0  0  0  0  0  0999 V2000
   -0.3540   -1.0357    0.0000 C   0  0  0  0  0  0  0  0  0  0  0  0
   -1.7859   -0.9961    0.0000 C   0  0  0  0  0  0  0  0  0  0  0  0
   -1.0725   -2.2359    0.0000 C   0  0  0  0  0  0  0  0  0  0  0  0
   -0.3540   -1.8332    0.0000 C   0  0  0  0  0  0  0  0  0  0  0  0
   -1.0725   -0.6303    0.0000 C   0  0  0  0  0  0  0  0  0  0  0  0
   -1.7859   -1.8332    0.0000 C   0  0  0  0  0  0  0  0  0  0  0  0
    0.3539   -0.6067    0.0000 C   0  0  0  0  0  0  0  0  0  0  0  0
    1.6989    2.7703    0.0000 C   0  0  0  0  0  0  0  0  0  0  0  0
    2.5439    3.1493    0.0000 C   0  0  0  0  0  0  0  0  0  0  0  0
   -2.4860   -0.6067    0.0000 C   0  0  0  0  0  0  0  0  0  0  0  0
   -1.0725   -3.0493    0.0000 C   0  0  0  0  0  0  0  0  0  0  0  0
    1.0436    0.6382    0.0000 C   0  0  0  0  0  0  0  0  0  0  0  0
    1.7437    1.8464    0.0000 C   0  0  0  0  0  0  0  0  0  0  0  0
    0.3539    0.2356    0.0000 C   0  0  0  0  0  0  0  0  0  0  0  0
    1.0436    1.4542    0.0000 C   0  0  0  0  0  0  0  0  0  0  0  0
    3.1993    2.5571    0.0000 O   0  0  0  0  0  0  0  0  0  0  0  0
    2.6782    3.8863    0.0000 O   0  0  0  0  0  0  0  0  0  0  0  0
    1.2304   -0.9725    0.0000 C   0  0  0  0  0  0  0  0  0  0  0  0
   -2.9203   -1.2884    0.0000 C   0  0  0  0  0  0  0  0  0  0  0  0
   -3.1993   -0.1723    0.0000 C   0  0  0  0  0  0  0  0  0  0  0  0
   -1.0725   -3.8863    0.0000 C   0  0  0  0  0  0  0  0  0  0  0  0
   -0.2460   -3.0493    0.0000 C   0  0  0  0  0  0  0  0  0  0  0  0
   -1.8701   -3.0493    0.0000 C   0  0  0  0  0  0  0  0  0  0  0  0
   -2.0675    0.1250    0.0000 C   0  0  0  0  0  0  0  0  0  0  0  0
    2.6307    1.3674    0.0000 C   0  0  0  0  0  0  0  0  0  0  0  0
    0.5364   -2.3549    0.0000 H   0  0  0  0  0  0  0  0  0  0  0  0
   -1.0519    0.4015    0.0000 H   0  0  0  0  0  0  0  0  0  0  0  0
   -2.6771   -2.3535    0.0000 H   0  0  0  0  0  0  0  0  0  0  0  0
    0.8193    3.3100    0.0000 H   0  0  0  0  0  0  0  0  0  0  0  0
    1.9386    0.1243    0.0000 H   0  0  0  0  0  0  0  0  0  0  0  0
   -0.5411    0.7495    0.0000 H   0  0  0  0  0  0  0  0  0  0  0  0
    0.1532    1.9760    0.0000 H   0  0  0  0  0  0  0  0  0  0  0  0
    3.5605    4.2017    0.0000 H   0  0  0  0  0  0  0  0  0  0  0  0
    1.3672   -2.0337    0.0000 H   0  0  0  0  0  0  0  0  0  0  0  0
    2.0810   -0.3234    0.0000 H   0  0  0  0  0  0  0  0  0  0  0  0
    2.2179   -1.3846    0.0000 H   0  0  0  0  0  0  0  0  0  0  0  0
   -3.9893   -1.2417    0.0000 H   0  0  0  0  0  0  0  0  0  0  0  0
   -2.4262   -2.2375    0.0000 H   0  0  0  0  0  0  0  0  0  0  0  0
   -3.4952   -2.1908    0.0000 H   0  0  0  0  0  0  0  0  0  0  0  0
   -3.1743    0.8974    0.0000 H   0  0  0  0  0  0  0  0  0  0  0  0
   -4.1382   -0.6855    0.0000 H   0  0  0  0  0  0  0  0  0  0  0  0
   -4.1132    0.3842    0.0000 H   0  0  0  0  0  0  0  0  0  0  0  0
   -1.9991   -4.4213    0.0000 H   0  0  0  0  0  0  0  0  0  0  0  0
   -0.1459   -4.4213    0.0000 H   0  0  0  0  0  0  0  0  0  0  0  0
   -1.0725   -4.9563    0.0000 H   0  0  0  0  0  0  0  0  0  0  0  0
    0.2890   -3.9759    0.0000 H   0  0  0  0  0  0  0  0  0  0  0  0
    0.2890   -2.1227    0.0000 H   0  0  0  0  0  0  0  0  0  0  0  0
    0.8240   -3.0493    0.0000 H   0  0  0  0  0  0  0  0  0  0  0  0
   -2.4051   -2.1227    0.0000 H   0  0  0  0  0  0  0  0  0  0  0  0
   -2.4051   -3.9759    0.0000 H   0  0  0  0  0  0  0  0  0  0  0  0
   -2.9401   -3.0493    0.0000 H   0  0  0  0  0  0  0  0  0  0  0  0
   -0.9975    0.1293    0.0000 H   0  0  0  0  0  0  0  0  0  0  0  0
   -2.6063    1.0495    0.0000 H   0  0  0  0  0  0  0  0  0  0  0  0
   -1.5363    1.0538    0.0000 H   0  0  0  0  0  0  0  0  0  0  0  0
    2.6611    0.2978    0.0000 H   0  0  0  0  0  0  0  0  0  0  0  0
    3.5418    1.9285    0.0000 H   0  0  0  0  0  0  0  0  0  0  0  0
    3.5722    0.8590    0.0000 H   0  0  0  0  0  0  0  0  0  0  0  0
  2  5  2  0  0  0  0
  3  4  1  0  0  0  0
  4  1  2  0  0  0  0
  4 26  1  0  0  0  0
  5  1  1  0  0  0  0
  5 27  1  0  0  0  0
  6  2  1  0  0  0  0
  6  3  2  0  0  0  0
  6 28  1  0  0  0  0
  7  1  1  0  0  0  0
  8 13  2  0  0  0  0
  8 29  1  0  0  0  0
  9  8  1  0  0  0  0
 10  2  1  0  0  0  0
 11  3  1  0  0  0  0
 12 14  1  0  0  0  0
 12 30  1  0  0  0  0
 13 15  1  0  0  0  0
 14  7  2  0  0  0  0
 14 31  1  0  0  0  0
 15 12  2  0  0  0  0
 15 32  1  0  0  0  0
 16  9  2  0  0  0  0
 17  9  1  0  0  0  0
 17 33  1  0  0  0  0
 18  7  1  0  0  0  0
 18 34  1  0  0  0  0
 18 35  1  0  0  0  0
 18 36  1  0  0  0  0
 19 10  1  0  0  0  0
 19 37  1  0  0  0  0
 19 38  1  0  0  0  0
 19 39  1  0  0  0  0
 20 10  1  0  0  0  0
 20 40  1  0  0  0  0
 20 41  1  0  0  0  0
 20 42  1  0  0  0  0
 21 11  1  0  0  0  0
 21 43  1  0  0  0  0
 21 44  1  0  0  0  0
 21 45  1  0  0  0  0
 22 11  1  0  0  0  0
 22 46  1  0  0  0  0
 22 47  1  0  0  0  0
 22 48  1  0  0  0  0
 23 11  1  0  0  0  0
 23 49  1  0  0  0  0
 23 50  1  0  0  0  0
 23 51  1  0  0  0  0
 24 10  1  0  0  0  0
 24 52  1  0  0  0  0
 24 53  1  0  0  0  0
 24 54  1  0  0  0  0
 25 13  1  0  0  0  0
 25 55  1  0  0  0  0
 25 56  1  0  0  0  0
 25 57  1  0  0  0  0
M  END
>  <DRUGBANK_ID>
DB05785

>  <COMMON_NAME>
LGD-1550

>  <CAS_NUMBER>
178600-20-9

>  <UNII>
H62AOA2IYF

$$$$
