
 OpenBabel10282417072D

163168  0  0  0  0  0  0  0  0999 V2000
   -9.7813    6.3938    0.0000 O   0  0  0  0  0  0  0  0  0  0  0  0
    8.7953   -5.9813    0.0000 O   0  0  0  0  0  0  0  0  0  0  0  0
   -9.0668    7.6314    0.0000 O   0  0  0  0  0  0  0  0  0  0  0  0
  -11.9248    5.9813    0.0000 O   0  0  0  0  0  0  0  0  0  0  0  0
  -11.9248    7.6314    0.0000 O   0  0  0  0  0  0  0  0  0  0  0  0
   10.2242   -5.9813    0.0000 O   0  0  0  0  0  0  0  0  0  0  0  0
    7.3663   -7.6314    0.0000 O   0  0  0  0  0  0  0  0  0  0  0  0
    8.7953   -8.4564    0.0000 O   0  0  0  0  0  0  0  0  0  0  0  0
  -10.4957    8.4564    0.0000 O   0  0  0  0  0  0  0  0  0  0  0  0
   10.2242   -7.6314    0.0000 O   0  0  0  0  0  0  0  0  0  0  0  0
  -11.2102    4.7438    0.0000 O   0  0  0  0  0  0  0  0  0  0  0  0
    7.3663   -5.1563    0.0000 O   0  0  0  0  0  0  0  0  0  0  0  0
    3.0794    6.3938    0.0000 O   0  0  0  0  0  0  0  0  0  0  0  0
    5.2228    5.1563    0.0000 O   0  0  0  0  0  0  0  0  0  0  0  0
   -6.2089    8.4564    0.0000 O   0  0  0  0  0  0  0  0  0  0  0  0
    8.0808   -3.9188    0.0000 O   0  0  0  0  0  0  0  0  0  0  0  0
    2.3649    5.1563    0.0000 O   0  0  0  0  0  0  0  0  0  0  0  0
    6.6518    5.1563    0.0000 O   0  0  0  0  0  0  0  0  0  0  0  0
   -6.9233    4.7438    0.0000 O   0  5  0  0  0  0  0  0  0  0  0  0
   -8.3523    4.7438    0.0000 O   0  0  0  0  0  0  0  0  0  0  0  0
   11.6532   -2.6813    0.0000 O   0  5  0  0  0  0  0  0  0  0  0  0
   12.3677   -3.9188    0.0000 O   0  0  0  0  0  0  0  0  0  0  0  0
   -2.6364    7.2189    0.0000 N   0  0  0  0  0  0  0  0  0  0  0  0
    7.3663   -0.2062    0.0000 N   0  0  0  0  0  0  0  0  0  0  0  0
   -1.2074    6.3938    0.0000 N   0  0  0  0  0  0  0  0  0  0  0  0
    7.3663    1.4437    0.0000 N   0  0  0  0  0  0  0  0  0  0  0  0
   -5.4943    7.2189    0.0000 N   0  0  0  0  0  0  0  0  0  0  0  0
    8.7953   -2.6813    0.0000 N   0  0  0  0  0  0  0  0  0  0  0  0
    1.6504    6.3938    0.0000 N   0  0  0  0  0  0  0  0  0  0  0  0
    5.9374    3.9188    0.0000 N   0  0  0  0  0  0  0  0  0  0  0  0
   -7.6378    5.1563    0.0000 N   0  3  0  0  0  0  0  0  0  0  0  0
   11.6532   -3.5063    0.0000 N   0  3  0  0  0  0  0  0  0  0  0  0
    4.5083    7.2189    0.0000 N   0  0  0  0  0  0  0  0  0  0  0  0
   -2.6364    6.3938    0.0000 C   0  0  0  0  0  0  0  0  0  0  0  0
   -1.9219    7.6314    0.0000 C   0  0  0  0  0  0  0  0  0  0  0  0
    6.6518    0.2062    0.0000 C   0  0  0  0  0  0  0  0  0  0  0  0
    8.0808    0.2062    0.0000 C   0  0  0  0  0  0  0  0  0  0  0  0
   -1.9219    5.9813    0.0000 C   0  0  0  0  0  0  0  0  0  0  0  0
   -1.2074    7.2189    0.0000 C   0  0  0  0  0  0  0  0  0  0  0  0
    6.6518    1.0312    0.0000 C   0  0  0  0  0  0  0  0  0  0  0  0
    8.0808    1.0312    0.0000 C   0  0  0  0  0  0  0  0  0  0  0  0
  -11.2102    6.3938    0.0000 C   0  0  3  0  0  0  0  0  0  0  0  0
  -11.2102    7.2189    0.0000 C   0  0  3  0  0  0  0  0  0  0  0  0
   -3.3509    7.6314    0.0000 C   0  0  0  0  0  0  0  0  0  0  0  0
    7.3663   -1.0312    0.0000 C   0  0  0  0  0  0  0  0  0  0  0  0
    8.0808   -7.2189    0.0000 C   0  0  2  0  0  0  0  0  0  0  0  0
    8.7953   -7.6314    0.0000 C   0  0  1  0  0  0  0  0  0  0  0  0
   -0.4930    5.9813    0.0000 C   0  0  0  0  0  0  0  0  0  0  0  0
    7.3663    2.2687    0.0000 C   0  0  0  0  0  0  0  0  0  0  0  0
  -10.4957    5.9813    0.0000 C   0  0  3  0  0  0  0  0  0  0  0  0
  -10.4957    7.6314    0.0000 C   0  0  3  0  0  0  0  0  0  0  0  0
    8.0808   -6.3938    0.0000 C   0  0  1  0  0  0  0  0  0  0  0  0
    9.5098   -7.2189    0.0000 C   0  0  2  0  0  0  0  0  0  0  0  0
   -9.7813    7.2189    0.0000 C   0  0  3  0  0  0  0  0  0  0  0  0
    9.5098   -6.3938    0.0000 C   0  0  2  0  0  0  0  0  0  0  0  0
   -4.0654    7.2189    0.0000 C   0  0  0  0  0  0  0  0  0  0  0  0
    8.0808   -1.4437    0.0000 C   0  0  0  0  0  0  0  0  0  0  0  0
    0.2215    6.3938    0.0000 C   0  0  0  0  0  0  0  0  0  0  0  0
    6.6518    2.6813    0.0000 C   0  0  0  0  0  0  0  0  0  0  0  0
  -10.4957    5.1563    0.0000 C   0  0  0  0  0  0  0  0  0  0  0  0
    7.3663   -5.9813    0.0000 C   0  0  0  0  0  0  0  0  0  0  0  0
   -4.7799    7.6314    0.0000 C   0  0  0  0  0  0  0  0  0  0  0  0
    8.0808   -2.2687    0.0000 C   0  0  0  0  0  0  0  0  0  0  0  0
    0.9359    5.9813    0.0000 C   0  0  0  0  0  0  0  0  0  0  0  0
    6.6518    3.5063    0.0000 C   0  0  0  0  0  0  0  0  0  0  0  0
   -8.3523    7.2189    0.0000 C   0  0  0  0  0  0  0  0  0  0  0  0
   10.2242   -5.1563    0.0000 C   0  0  0  0  0  0  0  0  0  0  0  0
   -6.2089    7.6314    0.0000 C   0  0  0  0  0  0  0  0  0  0  0  0
    8.7953   -3.5063    0.0000 C   0  0  0  0  0  0  0  0  0  0  0  0
   -7.6378    7.6314    0.0000 C   0  0  0  0  0  0  0  0  0  0  0  0
   -6.9233    7.2189    0.0000 C   0  0  0  0  0  0  0  0  0  0  0  0
    9.5098   -4.7438    0.0000 C   0  0  0  0  0  0  0  0  0  0  0  0
    9.5098   -3.9188    0.0000 C   0  0  0  0  0  0  0  0  0  0  0  0
   -8.3523    6.3938    0.0000 C   0  0  0  0  0  0  0  0  0  0  0  0
   10.9387   -4.7438    0.0000 C   0  0  0  0  0  0  0  0  0  0  0  0
   -6.9233    6.3938    0.0000 C   0  0  0  0  0  0  0  0  0  0  0  0
   -7.6378    5.9813    0.0000 C   0  0  0  0  0  0  0  0  0  0  0  0
   10.2242   -3.5063    0.0000 C   0  0  0  0  0  0  0  0  0  0  0  0
   10.9387   -3.9188    0.0000 C   0  0  0  0  0  0  0  0  0  0  0  0
    2.3649    5.9813    0.0000 C   0  0  0  0  0  0  0  0  0  0  0  0
    5.9374    4.7438    0.0000 C   0  0  0  0  0  0  0  0  0  0  0  0
    4.5083    6.3938    0.0000 C   0  0  3  0  0  0  0  0  0  0  0  0
    3.7939    5.9813    0.0000 C   0  0  0  0  0  0  0  0  0  0  0  0
    5.2228    5.9813    0.0000 C   0  0  0  0  0  0  0  0  0  0  0  0
  -12.7648    6.4664    0.0000 H   0  0  0  0  0  0  0  0  0  0  0  0
  -11.9249    8.6014    0.0000 H   0  0  0  0  0  0  0  0  0  0  0  0
    6.5263   -7.1464    0.0000 H   0  0  0  0  0  0  0  0  0  0  0  0
    7.9553   -8.9414    0.0000 H   0  0  0  0  0  0  0  0  0  0  0  0
   -9.6557    8.9414    0.0000 H   0  0  0  0  0  0  0  0  0  0  0  0
   10.2242   -8.6014    0.0000 H   0  0  0  0  0  0  0  0  0  0  0  0
  -12.0502    5.2288    0.0000 H   0  0  0  0  0  0  0  0  0  0  0  0
    8.2063   -4.6713    0.0000 H   0  0  0  0  0  0  0  0  0  0  0  0
   -5.4942    6.2344    0.0000 H   0  0  0  0  0  0  0  0  0  0  0  0
    9.6479   -2.1891    0.0000 H   0  0  0  0  0  0  0  0  0  0  0  0
    1.6504    7.3783    0.0000 H   0  0  0  0  0  0  0  0  0  0  0  0
    5.0848    3.4266    0.0000 H   0  0  0  0  0  0  0  0  0  0  0  0
    5.3916    7.7289    0.0000 H   0  0  0  0  0  0  0  0  0  0  0  0
    3.6250    7.7289    0.0000 H   0  0  0  0  0  0  0  0  0  0  0  0
   -3.5630    5.8588    0.0000 H   0  0  0  0  0  0  0  0  0  0  0  0
   -2.6364    5.3238    0.0000 H   0  0  0  0  0  0  0  0  0  0  0  0
   -1.9219    8.7014    0.0000 H   0  0  0  0  0  0  0  0  0  0  0  0
   -0.9953    8.1664    0.0000 H   0  0  0  0  0  0  0  0  0  0  0  0
    5.7252   -0.3289    0.0000 H   0  0  0  0  0  0  0  0  0  0  0  0
    5.7251    0.7412    0.0000 H   0  0  0  0  0  0  0  0  0  0  0  0
    9.0074   -0.3289    0.0000 H   0  0  0  0  0  0  0  0  0  0  0  0
    9.0075    0.7412    0.0000 H   0  0  0  0  0  0  0  0  0  0  0  0
   -1.9219    4.9113    0.0000 H   0  0  0  0  0  0  0  0  0  0  0  0
   -2.8485    5.4463    0.0000 H   0  0  0  0  0  0  0  0  0  0  0  0
   -0.2808    7.7539    0.0000 H   0  0  0  0  0  0  0  0  0  0  0  0
   -1.2074    8.2889    0.0000 H   0  0  0  0  0  0  0  0  0  0  0  0
    5.7252    1.5662    0.0000 H   0  0  0  0  0  0  0  0  0  0  0  0
    5.7252    0.4962    0.0000 H   0  0  0  0  0  0  0  0  0  0  0  0
    9.0074    1.5662    0.0000 H   0  0  0  0  0  0  0  0  0  0  0  0
    9.0074    0.4962    0.0000 H   0  0  0  0  0  0  0  0  0  0  0  0
  -12.1368    6.9288    0.0000 H   0  0  0  0  0  0  0  0  0  0  0  0
  -12.1368    6.6839    0.0000 H   0  0  0  0  0  0  0  0  0  0  0  0
   -3.3509    8.7014    0.0000 H   0  0  0  0  0  0  0  0  0  0  0  0
   -4.2775    8.1664    0.0000 H   0  0  0  0  0  0  0  0  0  0  0  0
    6.4397   -1.5662    0.0000 H   0  0  0  0  0  0  0  0  0  0  0  0
    7.3663   -2.1012    0.0000 H   0  0  0  0  0  0  0  0  0  0  0  0
    8.0808   -8.2889    0.0000 H   0  0  0  0  0  0  0  0  0  0  0  0
    7.8687   -8.1664    0.0000 H   0  0  0  0  0  0  0  0  0  0  0  0
   -0.4930    4.9113    0.0000 H   0  0  0  0  0  0  0  0  0  0  0  0
    0.4336    5.4463    0.0000 H   0  0  0  0  0  0  0  0  0  0  0  0
    8.2930    2.8037    0.0000 H   0  0  0  0  0  0  0  0  0  0  0  0
    7.3664    3.3387    0.0000 H   0  0  0  0  0  0  0  0  0  0  0  0
  -10.4957    7.0513    0.0000 H   0  0  0  0  0  0  0  0  0  0  0  0
  -11.4223    8.1664    0.0000 H   0  0  0  0  0  0  0  0  0  0  0  0
    8.0808   -5.3238    0.0000 H   0  0  0  0  0  0  0  0  0  0  0  0
    9.5098   -8.2889    0.0000 H   0  0  0  0  0  0  0  0  0  0  0  0
   -8.8547    6.6839    0.0000 H   0  0  0  0  0  0  0  0  0  0  0  0
    9.5098   -5.3238    0.0000 H   0  0  0  0  0  0  0  0  0  0  0  0
   -4.0654    6.1489    0.0000 H   0  0  0  0  0  0  0  0  0  0  0  0
   -4.9920    6.6839    0.0000 H   0  0  0  0  0  0  0  0  0  0  0  0
    9.0074   -0.9087    0.0000 H   0  0  0  0  0  0  0  0  0  0  0  0
    9.0074   -1.9787    0.0000 H   0  0  0  0  0  0  0  0  0  0  0  0
    0.2215    7.4638    0.0000 H   0  0  0  0  0  0  0  0  0  0  0  0
    1.1482    6.9288    0.0000 H   0  0  0  0  0  0  0  0  0  0  0  0
    5.7251    2.1463    0.0000 H   0  0  0  0  0  0  0  0  0  0  0  0
    5.7252    3.2163    0.0000 H   0  0  0  0  0  0  0  0  0  0  0  0
   -9.5691    4.6213    0.0000 H   0  0  0  0  0  0  0  0  0  0  0  0
   -9.5691    5.6913    0.0000 H   0  0  0  0  0  0  0  0  0  0  0  0
    6.4397   -6.5163    0.0000 H   0  0  0  0  0  0  0  0  0  0  0  0
    7.3663   -7.0513    0.0000 H   0  0  0  0  0  0  0  0  0  0  0  0
   -4.7799    8.7014    0.0000 H   0  0  0  0  0  0  0  0  0  0  0  0
   -3.8533    8.1664    0.0000 H   0  0  0  0  0  0  0  0  0  0  0  0
    7.1541   -2.8037    0.0000 H   0  0  0  0  0  0  0  0  0  0  0  0
    7.1542   -1.7337    0.0000 H   0  0  0  0  0  0  0  0  0  0  0  0
    0.9359    4.9113    0.0000 H   0  0  0  0  0  0  0  0  0  0  0  0
    0.0092    5.4463    0.0000 H   0  0  0  0  0  0  0  0  0  0  0  0
    7.5785    4.0413    0.0000 H   0  0  0  0  0  0  0  0  0  0  0  0
    7.5784    2.9713    0.0000 H   0  0  0  0  0  0  0  0  0  0  0  0
   -7.6378    8.6634    0.0000 H   0  0  0  0  0  0  0  0  0  0  0  0
    8.6161   -5.2598    0.0000 H   0  0  0  0  0  0  0  0  0  0  0  0
   -9.2460    5.8778    0.0000 H   0  0  0  0  0  0  0  0  0  0  0  0
   11.8324   -5.2598    0.0000 H   0  0  0  0  0  0  0  0  0  0  0  0
   -6.0296    5.8778    0.0000 H   0  0  0  0  0  0  0  0  0  0  0  0
   10.2242   -2.4743    0.0000 H   0  0  0  0  0  0  0  0  0  0  0  0
    3.5816    6.9288    0.0000 H   0  0  0  0  0  0  0  0  0  0  0  0
    3.7939    4.9113    0.0000 H   0  0  0  0  0  0  0  0  0  0  0  0
    4.7206    5.4463    0.0000 H   0  0  0  0  0  0  0  0  0  0  0  0
    6.1494    6.5163    0.0000 H   0  0  0  0  0  0  0  0  0  0  0  0
    5.2228    7.0513    0.0000 H   0  0  0  0  0  0  0  0  0  0  0  0
  1 50  1  0  0  0  0
  1 54  1  0  0  0  0
  2 52  1  0  0  0  0
  2 55  1  0  0  0  0
  3 54  1  0  0  0  0
  3 66  1  0  0  0  0
  4 42  1  0  0  0  0
  4 85  1  0  0  0  0
  5 43  1  0  0  0  0
  5 86  1  0  0  0  0
  6 67  1  0  0  0  0
  7 87  1  0  0  0  0
  8 88  1  0  0  0  0
  9 51  1  0  0  0  0
  9 89  1  0  0  0  0
 10 90  1  0  0  0  0
 11 60  1  0  0  0  0
 11 91  1  0  0  0  0
 12 61  1  0  0  0  0
 12 92  1  0  0  0  0
 13 80  1  0  0  0  0
 13 83  1  0  0  0  0
 14 81  1  0  0  0  0
 14 84  1  0  0  0  0
 15 68  2  0  0  0  0
 16 69  2  0  0  0  0
 17 80  2  0  0  0  0
 18 81  2  0  0  0  0
 19 31  1  0  0  0  0
 20 31  2  0  0  0  0
 21 32  1  0  0  0  0
 22 32  2  0  0  0  0
 23 34  1  0  0  0  0
 23 35  1  0  0  0  0
 23 44  1  0  0  0  0
 24 36  1  0  0  0  0
 24 37  1  0  0  0  0
 24 45  1  0  0  0  0
 25 38  1  0  0  0  0
 25 39  1  0  0  0  0
 25 48  1  0  0  0  0
 26 40  1  0  0  0  0
 26 41  1  0  0  0  0
 26 49  1  0  0  0  0
 27 62  1  0  0  0  0
 27 68  1  0  0  0  0
 27 93  1  0  0  0  0
 28 63  1  0  0  0  0
 28 69  1  0  0  0  0
 28 94  1  0  0  0  0
 29 64  1  0  0  0  0
 29 80  1  0  0  0  0
 29 95  1  0  0  0  0
 30 65  1  0  0  0  0
 30 81  1  0  0  0  0
 30 96  1  0  0  0  0
 31 77  1  0  0  0  0
 32 79  1  0  0  0  0
 33 82  1  0  0  0  0
 33 97  1  0  0  0  0
 33 98  1  0  0  0  0
 34 38  1  0  0  0  0
 34 99  1  0  0  0  0
 34100  1  0  0  0  0
 35 39  1  0  0  0  0
 35101  1  0  0  0  0
 35102  1  0  0  0  0
 36 40  1  0  0  0  0
 36103  1  0  0  0  0
 36104  1  0  0  0  0
 37 41  1  0  0  0  0
 37105  1  0  0  0  0
 37106  1  0  0  0  0
 38107  1  0  0  0  0
 38108  1  0  0  0  0
 39109  1  0  0  0  0
 39110  1  0  0  0  0
 40111  1  0  0  0  0
 40112  1  0  0  0  0
 41113  1  0  0  0  0
 41114  1  0  0  0  0
 42 43  1  0  0  0  0
 42 50  1  0  0  0  0
 42115  1  0  0  0  0
 43 51  1  0  0  0  0
 43116  1  0  0  0  0
 44 56  1  0  0  0  0
 44117  1  0  0  0  0
 44118  1  0  0  0  0
 45 57  1  0  0  0  0
 45119  1  0  0  0  0
 45120  1  0  0  0  0
 46  7  1  0  0  0  0
 46 47  1  0  0  0  0
 46 52  1  0  0  0  0
 46121  1  6  0  0  0
 47  8  1  0  0  0  0
 47 53  1  0  0  0  0
 47122  1  6  0  0  0
 48 58  1  0  0  0  0
 48123  1  0  0  0  0
 48124  1  0  0  0  0
 49 59  1  0  0  0  0
 49125  1  0  0  0  0
 49126  1  0  0  0  0
 50 60  1  0  0  0  0
 50127  1  0  0  0  0
 51 54  1  0  0  0  0
 51128  1  0  0  0  0
 52 61  1  0  0  0  0
 52129  1  6  0  0  0
 53 10  1  0  0  0  0
 53 55  1  0  0  0  0
 53130  1  1  0  0  0
 54131  1  0  0  0  0
 55  6  1  0  0  0  0
 55132  1  1  0  0  0
 56 62  1  0  0  0  0
 56133  1  0  0  0  0
 56134  1  0  0  0  0
 57 63  1  0  0  0  0
 57135  1  0  0  0  0
 57136  1  0  0  0  0
 58 64  1  0  0  0  0
 58137  1  0  0  0  0
 58138  1  0  0  0  0
 59 65  1  0  0  0  0
 59139  1  0  0  0  0
 59140  1  0  0  0  0
 60141  1  0  0  0  0
 60142  1  0  0  0  0
 61143  1  0  0  0  0
 61144  1  0  0  0  0
 62145  1  0  0  0  0
 62146  1  0  0  0  0
 63147  1  0  0  0  0
 63148  1  0  0  0  0
 64149  1  0  0  0  0
 64150  1  0  0  0  0
 65151  1  0  0  0  0
 65152  1  0  0  0  0
 66 70  2  0  0  0  0
 66 74  1  0  0  0  0
 67 72  2  0  0  0  0
 67 75  1  0  0  0  0
 68 71  1  0  0  0  0
 69 73  1  0  0  0  0
 70 71  1  0  0  0  0
 70153  1  0  0  0  0
 71 76  2  0  0  0  0
 72 73  1  0  0  0  0
 72154  1  0  0  0  0
 73 78  2  0  0  0  0
 74 77  2  0  0  0  0
 74155  1  0  0  0  0
 75 79  2  0  0  0  0
 75156  1  0  0  0  0
 76 77  1  0  0  0  0
 76157  1  0  0  0  0
 78 79  1  0  0  0  0
 78158  1  0  0  0  0
 82 83  1  0  0  0  0
 82 84  1  0  0  0  0
 82159  1  0  0  0  0
 83160  1  0  0  0  0
 83161  1  0  0  0  0
 84162  1  0  0  0  0
 84163  1  0  0  0  0
M  CHG  4  19  -1  21  -1  31   1  32   1
M  END
>  <DRUGBANK_ID>
DB02574

>  <SECONDARY_ACCESSION_NUMBERS>
EXPT00780

>  <COMMON_NAME>
BV2

$$$$
