
 OpenBabel10282417072D

 76 79  0  0  1  0  0  0  0  0999 V2000
    7.8103    1.2375    0.0000 C   0  0  0  0  0  0  0  0  0  0  0  0
    6.9853    1.2375    0.0000 C   0  0  1  0  0  0  0  0  0  0  0  0
    6.5004    1.9049    0.0000 C   0  0  0  0  0  0  0  0  0  0  0  0
    5.7158    1.6500    0.0000 C   0  0  1  0  0  0  0  0  0  0  0  0
    5.7158    0.8250    0.0000 C   0  0  2  0  0  0  0  0  0  0  0  0
    6.5004    0.5701    0.0000 C   0  0  1  0  0  0  0  0  0  0  0  0
    6.7553   -0.2146    0.0000 O   0  0  0  0  0  0  0  0  0  0  0  0
    7.5623   -0.3861    0.0000 C   0  0  0  0  0  0  0  0  0  0  0  0
    8.1143    0.2270    0.0000 O   0  0  0  0  0  0  0  0  0  0  0  0
    7.8172   -1.1707    0.0000 C   0  0  0  0  0  0  0  0  0  0  0  0
    8.6242   -1.3422    0.0000 C   0  0  0  0  0  0  0  0  0  0  0  0
    8.8791   -2.1269    0.0000 C   0  0  0  0  0  0  0  0  0  0  0  0
    8.3271   -2.7400    0.0000 C   0  0  0  0  0  0  0  0  0  0  0  0
    7.5201   -2.5684    0.0000 C   0  0  0  0  0  0  0  0  0  0  0  0
    7.2652   -1.7838    0.0000 C   0  0  0  0  0  0  0  0  0  0  0  0
    4.9543    0.3401    0.0000 C   0  0  2  0  0  0  0  0  0  0  0  0
    4.6993   -0.4445    0.0000 C   0  0  0  0  0  0  0  0  0  0  0  0
    5.1843   -1.1120    0.0000 C   0  0  0  0  0  0  0  0  0  0  0  0
    3.8743   -0.4445    0.0000 C   0  0  0  0  0  0  0  0  0  0  0  0
    3.6194    0.3401    0.0000 C   0  0  0  0  0  0  0  0  0  0  0  0
    2.8579    0.8250    0.0000 C   0  0  1  0  0  0  0  0  0  0  0  0
    2.8579    1.6500    0.0000 C   0  0  2  0  0  0  0  0  0  0  0  0
    2.1434    1.2375    0.0000 C   0  0  0  0  0  0  0  0  0  0  0  0
    1.4676    1.7107    0.0000 C   0  0  0  0  0  0  0  0  0  0  0  0
    1.4676    0.7643    0.0000 C   0  0  0  0  0  0  0  0  0  0  0  0
    3.5724    2.0625    0.0000 C   0  0  0  0  0  0  0  0  0  0  0  0
    4.2868    1.6500    0.0000 C   0  0  0  0  0  0  0  0  0  0  0  0
    5.0013    2.0625    0.0000 C   0  0  0  0  0  0  0  0  0  0  0  0
    5.0013    2.8875    0.0000 O   0  0  0  0  0  0  0  0  0  0  0  0
    4.2868    0.8250    0.0000 C   0  0  0  0  0  0  0  0  0  0  0  0
    5.6065   -0.1651    0.0000 O   0  0  0  0  0  0  0  0  0  0  0  0
    5.4952   -0.9825    0.0000 C   0  0  0  0  0  0  0  0  0  0  0  0
    6.1475   -1.4877    0.0000 O   0  0  0  0  0  0  0  0  0  0  0  0
    5.0610   -1.6840    0.0000 C   0  0  0  0  0  0  0  0  0  0  0  0
    5.8020    2.4705    0.0000 O   0  0  0  0  0  0  0  0  0  0  0  0
    6.5557    2.8060    0.0000 C   0  0  0  0  0  0  0  0  0  0  0  0
    6.6419    3.6265    0.0000 O   0  0  0  0  0  0  0  0  0  0  0  0
    7.2231    2.3211    0.0000 C   0  0  0  0  0  0  0  0  0  0  0  0
    8.3453    0.3109    0.0000 H   0  0  0  0  0  0  0  0  0  0  0  0
    8.3453    2.1641    0.0000 H   0  0  0  0  0  0  0  0  0  0  0  0
    8.8803    1.2375    0.0000 H   0  0  0  0  0  0  0  0  0  0  0  0
    7.4711    2.1909    0.0000 H   0  0  0  0  0  0  0  0  0  0  0  0
    6.8311    2.9225    0.0000 H   0  0  0  0  0  0  0  0  0  0  0  0
    5.7438    2.6615    0.0000 H   0  0  0  0  0  0  0  0  0  0  0  0
    6.5814    1.4539    0.0000 H   0  0  0  0  0  0  0  0  0  0  0  0
    5.7438   -0.1865    0.0000 H   0  0  0  0  0  0  0  0  0  0  0  0
    9.3148   -0.5753    0.0000 H   0  0  0  0  0  0  0  0  0  0  0  0
    9.8885   -2.3415    0.0000 H   0  0  0  0  0  0  0  0  0  0  0  0
    8.6460   -3.7215    0.0000 H   0  0  0  0  0  0  0  0  0  0  0  0
    6.8295   -3.3353    0.0000 H   0  0  0  0  0  0  0  0  0  0  0  0
    6.2558   -1.5692    0.0000 H   0  0  0  0  0  0  0  0  0  0  0  0
    6.0232    0.2909    0.0000 H   0  0  0  0  0  0  0  0  0  0  0  0
    4.7646   -2.0548    0.0000 H   0  0  0  0  0  0  0  0  0  0  0  0
    6.2106   -1.0041    0.0000 H   0  0  0  0  0  0  0  0  0  0  0  0
    3.2454   -1.3101    0.0000 H   0  0  0  0  0  0  0  0  0  0  0  0
    2.8175   -0.2771    0.0000 H   0  0  0  0  0  0  0  0  0  0  0  0
    4.4654    0.9952    0.0000 H   0  0  0  0  0  0  0  0  0  0  0  0
    3.5702    1.4090    0.0000 H   0  0  0  0  0  0  0  0  0  0  0  0
    3.7959    1.3398    0.0000 H   0  0  0  0  0  0  0  0  0  0  0  0
    3.7845    1.1150    0.0000 H   0  0  0  0  0  0  0  0  0  0  0  0
    1.5609    2.7766    0.0000 H   0  0  0  0  0  0  0  0  0  0  0  0
    0.4979    1.2585    0.0000 H   0  0  0  0  0  0  0  0  0  0  0  0
    0.5911    2.3244    0.0000 H   0  0  0  0  0  0  0  0  0  0  0  0
    0.4979    1.2165    0.0000 H   0  0  0  0  0  0  0  0  0  0  0  0
    1.5609   -0.3016    0.0000 H   0  0  0  0  0  0  0  0  0  0  0  0
    0.5911    0.1506    0.0000 H   0  0  0  0  0  0  0  0  0  0  0  0
    3.5724    3.0945    0.0000 H   0  0  0  0  0  0  0  0  0  0  0  0
    3.3602    0.2900    0.0000 H   0  0  0  0  0  0  0  0  0  0  0  0
    5.2134    0.2900    0.0000 H   0  0  0  0  0  0  0  0  0  0  0  0
    4.2868   -0.2450    0.0000 H   0  0  0  0  0  0  0  0  0  0  0  0
    3.9915   -1.6512    0.0000 H   0  0  0  0  0  0  0  0  0  0  0  0
    5.5674   -2.6266    0.0000 H   0  0  0  0  0  0  0  0  0  0  0  0
    4.4979   -2.5938    0.0000 H   0  0  0  0  0  0  0  0  0  0  0  0
    7.1112    1.2570    0.0000 H   0  0  0  0  0  0  0  0  0  0  0  0
    8.2006    2.7563    0.0000 H   0  0  0  0  0  0  0  0  0  0  0  0
    8.0887    1.6922    0.0000 H   0  0  0  0  0  0  0  0  0  0  0  0
  1 39  1  0  0  0  0
  1 40  1  0  0  0  0
  1 41  1  0  0  0  0
  2  1  1  0  0  0  0
  2  3  1  0  0  0  0
  2  6  1  0  0  0  0
  2 42  1  1  0  0  0
  3  4  1  0  0  0  0
  3 43  1  0  0  0  0
  3 44  1  0  0  0  0
  4 28  1  0  0  0  0
  4 35  1  6  0  0  0
  5  4  1  0  0  0  0
  5  6  1  0  0  0  0
  5 16  1  0  0  0  0
  5 45  1  1  0  0  0
  6  7  1  0  0  0  0
  6 46  1  1  0  0  0
  7  8  1  0  0  0  0
  8  9  2  0  0  0  0
  8 10  1  0  0  0  0
 10 11  2  0  0  0  0
 10 15  1  0  0  0  0
 11 12  1  0  0  0  0
 11 47  1  0  0  0  0
 12 13  2  0  0  0  0
 12 48  1  0  0  0  0
 13 14  1  0  0  0  0
 13 49  1  0  0  0  0
 14 15  2  0  0  0  0
 14 50  1  0  0  0  0
 15 51  1  0  0  0  0
 16 17  1  0  0  0  0
 16 31  1  0  0  0  0
 16 52  1  6  0  0  0
 17 18  2  0  0  0  0
 17 19  1  0  0  0  0
 18 53  1  0  0  0  0
 18 54  1  0  0  0  0
 19 20  1  0  0  0  0
 19 55  1  0  0  0  0
 19 56  1  0  0  0  0
 20 57  1  0  0  0  0
 20 58  1  0  0  0  0
 21 20  1  0  0  0  0
 21 22  1  0  0  0  0
 21 23  1  0  0  0  0
 21 59  1  1  0  0  0
 22 23  1  0  0  0  0
 22 26  1  0  0  0  0
 22 60  1  1  0  0  0
 23 24  1  0  0  0  0
 23 25  1  0  0  0  0
 24 61  1  0  0  0  0
 24 62  1  0  0  0  0
 24 63  1  0  0  0  0
 25 64  1  0  0  0  0
 25 65  1  0  0  0  0
 25 66  1  0  0  0  0
 26 27  2  0  0  0  0
 26 67  1  0  0  0  0
 27 28  1  0  0  0  0
 27 30  1  0  0  0  0
 28 29  2  0  0  0  0
 30 68  1  0  0  0  0
 30 69  1  0  0  0  0
 30 70  1  0  0  0  0
 31 32  1  0  0  0  0
 32 33  2  0  0  0  0
 32 34  1  0  0  0  0
 34 71  1  0  0  0  0
 34 72  1  0  0  0  0
 34 73  1  0  0  0  0
 35 36  1  0  0  0  0
 36 37  2  0  0  0  0
 36 38  1  0  0  0  0
 38 74  1  0  0  0  0
 38 75  1  0  0  0  0
 38 76  1  0  0  0  0
M  END
>  <DRUGBANK_ID>
DB11260

>  <COMMON_NAME>
Diacetyl benzoyl lathyrol

>  <CAS_NUMBER>
218916-52-0

>  <UNII>
8986760I2S

$$$$
