NSC
 OpenBabel10282417072D

 48 51  0  0  0  0  0  0  0  0999 V2000
    1.1656   -0.8906    0.0000 C   0  0  0  0  0  0  0  0  0  0  0  0
    0.4512   -1.3031    0.0000 C   0  0  0  0  0  0  0  0  0  0  0  0
    0.4512   -2.1281    0.0000 C   0  0  0  0  0  0  0  0  0  0  0  0
    1.1656   -2.5406    0.0000 N   0  0  0  0  0  0  0  0  0  0  0  0
   -0.2633   -2.5406    0.0000 C   0  0  0  0  0  0  0  0  0  0  0  0
   -0.9778   -2.1281    0.0000 C   0  0  0  0  0  0  0  0  0  0  0  0
   -1.6923   -2.5406    0.0000 C   0  0  0  0  0  0  0  0  0  0  0  0
   -0.9778   -1.3031    0.0000 N   0  0  0  0  0  0  0  0  0  0  0  0
   -0.2633   -0.8906    0.0000 C   0  0  0  0  0  0  0  0  0  0  0  0
   -0.2633   -0.0656    0.0000 C   0  0  0  0  0  0  0  0  0  0  0  0
    0.4512    0.3469    0.0000 C   0  0  0  0  0  0  0  0  0  0  0  0
    1.1656   -0.0656    0.0000 C   0  0  0  0  0  0  0  0  0  0  0  0
    1.8801    0.3469    0.0000 N   0  0  0  0  0  0  0  0  0  0  0  0
    2.5946   -0.0656    0.0000 C   0  0  0  0  0  0  0  0  0  0  0  0
    2.5946   -0.8906    0.0000 O   0  0  0  0  0  0  0  0  0  0  0  0
    3.3090    0.3469    0.0000 N   0  0  0  0  0  0  0  0  0  0  0  0
    4.0235   -0.0656    0.0000 C   0  0  0  0  0  0  0  0  0  0  0  0
    4.7380    0.3469    0.0000 C   0  0  0  0  0  0  0  0  0  0  0  0
    5.4525   -0.0656    0.0000 C   0  0  0  0  0  0  0  0  0  0  0  0
    6.1669    0.3469    0.0000 C   0  0  0  0  0  0  0  0  0  0  0  0
    6.1669    1.1719    0.0000 N   0  0  0  0  0  0  0  0  0  0  0  0
    6.8814   -0.0656    0.0000 C   0  0  0  0  0  0  0  0  0  0  0  0
    6.8814   -0.8906    0.0000 C   0  0  0  0  0  0  0  0  0  0  0  0
    7.5959   -1.3031    0.0000 C   0  0  0  0  0  0  0  0  0  0  0  0
    6.1669   -1.3031    0.0000 N   0  0  0  0  0  0  0  0  0  0  0  0
    5.4525   -0.8906    0.0000 C   0  0  0  0  0  0  0  0  0  0  0  0
    4.7380   -1.3031    0.0000 C   0  0  0  0  0  0  0  0  0  0  0  0
    4.0235   -0.8906    0.0000 C   0  0  0  0  0  0  0  0  0  0  0  0
    2.0593   -1.4066    0.0000 H   0  0  0  0  0  0  0  0  0  0  0  0
    1.1656   -3.5251    0.0000 H   0  0  0  0  0  0  0  0  0  0  0  0
    2.0182   -2.0484    0.0000 H   0  0  0  0  0  0  0  0  0  0  0  0
   -0.2633   -3.5726    0.0000 H   0  0  0  0  0  0  0  0  0  0  0  0
   -2.6189   -2.0056    0.0000 H   0  0  0  0  0  0  0  0  0  0  0  0
   -1.6923   -3.6106    0.0000 H   0  0  0  0  0  0  0  0  0  0  0  0
   -2.6190   -3.0756    0.0000 H   0  0  0  0  0  0  0  0  0  0  0  0
   -1.1570    0.4504    0.0000 H   0  0  0  0  0  0  0  0  0  0  0  0
    0.4512    1.3789    0.0000 H   0  0  0  0  0  0  0  0  0  0  0  0
    1.8801    1.3314    0.0000 H   0  0  0  0  0  0  0  0  0  0  0  0
    3.3090    1.3314    0.0000 H   0  0  0  0  0  0  0  0  0  0  0  0
    4.7380    1.3789    0.0000 H   0  0  0  0  0  0  0  0  0  0  0  0
    7.0195    1.6642    0.0000 H   0  0  0  0  0  0  0  0  0  0  0  0
    5.3143    1.6642    0.0000 H   0  0  0  0  0  0  0  0  0  0  0  0
    7.7751    0.4504    0.0000 H   0  0  0  0  0  0  0  0  0  0  0  0
    7.5959   -2.3731    0.0000 H   0  0  0  0  0  0  0  0  0  0  0  0
    8.5225   -0.7681    0.0000 H   0  0  0  0  0  0  0  0  0  0  0  0
    8.5226   -1.8381    0.0000 H   0  0  0  0  0  0  0  0  0  0  0  0
    4.7380   -2.3351    0.0000 H   0  0  0  0  0  0  0  0  0  0  0  0
    3.1298   -1.4066    0.0000 H   0  0  0  0  0  0  0  0  0  0  0  0
  1  2  1  0  0  0  0
  1 12  2  0  0  0  0
  1 29  1  0  0  0  0
  2  3  1  0  0  0  0
  2  9  2  0  0  0  0
  3  4  1  0  0  0  0
  3  5  2  0  0  0  0
  4 30  1  0  0  0  0
  4 31  1  0  0  0  0
  5  6  1  0  0  0  0
  5 32  1  0  0  0  0
  6  7  1  0  0  0  0
  6  8  2  0  0  0  0
  7 33  1  0  0  0  0
  7 34  1  0  0  0  0
  7 35  1  0  0  0  0
  8  9  1  0  0  0  0
  9 10  1  0  0  0  0
 10 11  2  0  0  0  0
 10 36  1  0  0  0  0
 11 12  1  0  0  0  0
 11 37  1  0  0  0  0
 12 13  1  0  0  0  0
 13 14  1  0  0  0  0
 13 38  1  0  0  0  0
 14 15  2  0  0  0  0
 14 16  1  0  0  0  0
 16 17  1  0  0  0  0
 16 39  1  0  0  0  0
 17 18  1  0  0  0  0
 17 28  2  0  0  0  0
 18 19  2  0  0  0  0
 18 40  1  0  0  0  0
 19 20  1  0  0  0  0
 19 26  1  0  0  0  0
 20 21  1  0  0  0  0
 20 22  2  0  0  0  0
 21 41  1  0  0  0  0
 21 42  1  0  0  0  0
 22 23  1  0  0  0  0
 22 43  1  0  0  0  0
 23 24  1  0  0  0  0
 23 25  2  0  0  0  0
 24 44  1  0  0  0  0
 24 45  1  0  0  0  0
 24 46  1  0  0  0  0
 25 26  1  0  0  0  0
 26 27  2  0  0  0  0
 27 28  1  0  0  0  0
 27 47  1  0  0  0  0
 28 48  1  0  0  0  0
M  END
>  <DRUGBANK_ID>
DB04452

>  <SECONDARY_ACCESSION_NUMBERS>
EXPT02388

>  <COMMON_NAME>
Aminoquinuride

>  <CAS_NUMBER>
3811-56-1

>  <UNII>
08T7936572

>  <SYNONYMS>
Aminoquinuride

$$$$
