
 OpenBabel10282417072D

 28 29  0  0  1  0  0  0  0  0999 V2000
    1.9239    2.7489    0.0000 C   0  0  0  0  0  0  0  0  0  0  0  0
   -1.7605    4.4559    0.0000 C   0  0  0  0  0  0  0  0  0  0  0  0
    0.8439    1.9642    0.0000 C   0  0  0  0  0  0  0  0  0  0  0  0
   -1.2756    3.7884    0.0000 C   0  0  2  0  0  0  0  0  0  0  0  0
    1.2564    3.2338    0.0000 C   0  0  0  0  0  0  0  0  0  0  0  0
   -1.5305    3.0038    0.0000 C   0  0  2  0  0  0  0  0  0  0  0  0
   -0.8631    2.5189    0.0000 C   0  0  2  0  0  0  0  0  0  0  0  0
   -0.1956    3.0038    0.0000 C   0  0  2  0  0  0  0  0  0  0  0  0
    1.2564    4.0588    0.0000 N   0  0  0  0  0  0  0  0  0  0  0  0
    1.6689    1.9642    0.0000 N   0  0  0  0  0  0  0  0  0  0  0  0
    0.5890    2.7489    0.0000 N   0  0  0  0  0  0  0  0  0  0  0  0
   -2.5810    4.3696    0.0000 O   0  0  0  0  0  0  0  0  0  0  0  0
   -2.3151    2.7489    0.0000 O   0  0  0  0  0  0  0  0  0  0  0  0
   -0.8631    1.6939    0.0000 O   0  0  0  0  0  0  0  0  0  0  0  0
   -0.4506    3.7884    0.0000 O   0  0  0  0  0  0  0  0  0  0  0  0
   -1.9971    3.3885    0.0000 H   0  0  0  0  0  0  0  0  0  0  0  0
   -2.2782    3.3525    0.0000 H   0  0  0  0  0  0  0  0  0  0  0  0
   -1.5982    2.1443    0.0000 H   0  0  0  0  0  0  0  0  0  0  0  0
   -0.0666    2.1890    0.0000 H   0  0  0  0  0  0  0  0  0  0  0  0
    2.9054    3.0678    0.0000 H   0  0  0  0  0  0  0  0  0  0  0  0
   -1.3253    5.4334    0.0000 H   0  0  0  0  0  0  0  0  0  0  0  0
   -2.3895    5.3215    0.0000 H   0  0  0  0  0  0  0  0  0  0  0  0
    0.2373    1.1293    0.0000 H   0  0  0  0  0  0  0  0  0  0  0  0
    2.1090    4.5511    0.0000 H   0  0  0  0  0  0  0  0  0  0  0  0
    0.4038    4.5511    0.0000 H   0  0  0  0  0  0  0  0  0  0  0  0
   -3.1512    5.1543    0.0000 H   0  0  0  0  0  0  0  0  0  0  0  0
   -3.0359    3.3980    0.0000 H   0  0  0  0  0  0  0  0  0  0  0  0
   -1.7031    1.2089    0.0000 H   0  0  0  0  0  0  0  0  0  0  0  0
  1 20  1  0  0  0  0
  2 21  1  0  0  0  0
  2 22  1  0  0  0  0
  3 23  1  0  0  0  0
  4  2  1  0  0  0  0
  4 16  1  6  0  0  0
  5  1  2  0  0  0  0
  6  4  1  0  0  0  0
  6 13  1  0  0  0  0
  6 17  1  1  0  0  0
  7  6  1  0  0  0  0
  7 14  1  0  0  0  0
  7 18  1  1  0  0  0
  8  7  1  0  0  0  0
  8 11  1  0  0  0  0
  8 19  1  6  0  0  0
  9  5  1  0  0  0  0
  9 24  1  0  0  0  0
  9 25  1  0  0  0  0
 10  1  1  0  0  0  0
 10  3  2  0  0  0  0
 11  3  1  0  0  0  0
 11  5  1  0  0  0  0
 12  2  1  0  0  0  0
 12 26  1  0  0  0  0
 13 27  1  0  0  0  0
 14 28  1  0  0  0  0
 15  4  1  0  0  0  0
 15  8  1  0  0  0  0
M  END
>  <DRUGBANK_ID>
DB04568

>  <SECONDARY_ACCESSION_NUMBERS>
EXPT00477

>  <COMMON_NAME>
5-Aminoimidazole Ribonucleoside

$$$$
