
 OpenBabel10282417072D

 51 53  0  0  1  0  0  0  0  0999 V2000
   -1.7908   -1.6742    0.0000 C   0  0  0  0  0  0  0  0  0  0  0  0
   -1.0062   -1.9291    0.0000 N   0  0  0  0  0  0  0  0  0  0  0  0
   -0.3931   -1.3771    0.0000 C   0  0  0  0  0  0  0  0  0  0  0  0
   -0.5646   -0.5701    0.0000 O   0  0  0  0  0  0  0  0  0  0  0  0
    0.3915   -1.6320    0.0000 N   0  0  0  0  0  0  0  0  0  0  0  0
    1.0590   -1.1471    0.0000 C   0  0  2  0  0  0  0  0  0  0  0  0
    1.7264   -1.6320    0.0000 S   0  0  0  0  0  0  0  0  0  0  0  0
    1.4715   -2.4167    0.0000 C   0  0  0  0  0  0  0  0  0  0  0  0
    0.6465   -2.4167    0.0000 N   0  0  0  0  0  0  0  0  0  0  0  0
    1.9564   -3.0841    0.0000 C   0  0  0  0  0  0  0  0  0  0  0  0
    2.7769   -2.9979    0.0000 C   0  0  0  0  0  0  0  0  0  0  0  0
    3.2618   -3.6653    0.0000 C   0  0  0  0  0  0  0  0  0  0  0  0
    2.9262   -4.4190    0.0000 C   0  0  0  0  0  0  0  0  0  0  0  0
    2.1058   -4.5052    0.0000 C   0  0  0  0  0  0  0  0  0  0  0  0
    1.6208   -3.8378    0.0000 C   0  0  0  0  0  0  0  0  0  0  0  0
    0.8004   -3.9240    0.0000 F   0  0  0  0  0  0  0  0  0  0  0  0
    4.0823   -3.5791    0.0000 F   0  0  0  0  0  0  0  0  0  0  0  0
    0.6540   -0.4284    0.0000 C   0  0  0  0  0  0  0  0  0  0  0  0
   -0.1710   -0.4197    0.0000 C   0  0  0  0  0  0  0  0  0  0  0  0
   -0.5760    0.2990    0.0000 C   0  0  0  0  0  0  0  0  0  0  0  0
   -0.1560    1.0091    0.0000 N   0  0  0  0  0  0  0  0  0  0  0  0
    1.4640   -0.4284    0.0000 C   0  0  0  0  0  0  0  0  0  0  0  0
    1.0440    0.2817    0.0000 C   0  0  0  0  0  0  0  0  0  0  0  0
    1.4490    1.0005    0.0000 C   0  0  0  0  0  0  0  0  0  0  0  0
    2.2740    1.0091    0.0000 C   0  0  0  0  0  0  0  0  0  0  0  0
    2.6939    0.2990    0.0000 C   0  0  0  0  0  0  0  0  0  0  0  0
    2.2889   -0.4197    0.0000 C   0  0  0  0  0  0  0  0  0  0  0  0
   -0.8346   -2.7361    0.0000 O   0  0  0  0  0  0  0  0  0  0  0  0
   -1.4477   -3.2881    0.0000 C   0  0  0  0  0  0  0  0  0  0  0  0
   -2.0133   -0.6276    0.0000 H   0  0  0  0  0  0  0  0  0  0  0  0
   -2.5859   -2.3902    0.0000 H   0  0  0  0  0  0  0  0  0  0  0  0
   -2.8084   -1.3436    0.0000 H   0  0  0  0  0  0  0  0  0  0  0  0
    3.1967   -2.0551    0.0000 H   0  0  0  0  0  0  0  0  0  0  0  0
    3.5328   -5.2539    0.0000 H   0  0  0  0  0  0  0  0  0  0  0  0
    1.6861   -5.4480    0.0000 H   0  0  0  0  0  0  0  0  0  0  0  0
    1.1987    0.4926    0.0000 H   0  0  0  0  0  0  0  0  0  0  0  0
    0.1288    0.5038    0.0000 H   0  0  0  0  0  0  0  0  0  0  0  0
   -0.7157   -1.3407    0.0000 H   0  0  0  0  0  0  0  0  0  0  0  0
   -1.2409   -0.4085    0.0000 H   0  0  0  0  0  0  0  0  0  0  0  0
   -1.6459    0.3102    0.0000 H   0  0  0  0  0  0  0  0  0  0  0  0
   -1.1012    1.2312    0.0000 H   0  0  0  0  0  0  0  0  0  0  0  0
    0.8639    0.9984    0.0000 H   0  0  0  0  0  0  0  0  0  0  0  0
   -0.6567    1.8978    0.0000 H   0  0  0  0  0  0  0  0  0  0  0  0
    0.0121    0.2709    0.0000 H   0  0  0  0  0  0  0  0  0  0  0  0
    0.9237    1.8888    0.0000 H   0  0  0  0  0  0  0  0  0  0  0  0
    2.7807    1.9082    0.0000 H   0  0  0  0  0  0  0  0  0  0  0  0
    3.7258    0.3098    0.0000 H   0  0  0  0  0  0  0  0  0  0  0  0
    2.8142   -1.3080    0.0000 H   0  0  0  0  0  0  0  0  0  0  0  0
   -2.4653   -2.9574    0.0000 H   0  0  0  0  0  0  0  0  0  0  0  0
   -1.2253   -4.3347    0.0000 H   0  0  0  0  0  0  0  0  0  0  0  0
   -2.2429   -4.0040    0.0000 H   0  0  0  0  0  0  0  0  0  0  0  0
  1  2  1  0  0  0  0
  1 30  1  0  0  0  0
  1 31  1  0  0  0  0
  1 32  1  0  0  0  0
  2  3  1  0  0  0  0
  2 28  1  0  0  0  0
  3  4  2  0  0  0  0
  3  5  1  0  0  0  0
  5  6  1  0  0  0  0
  5  9  1  0  0  0  0
  6  7  1  0  0  0  0
  6 18  1  1  0  0  0
  6 22  1  0  0  0  0
  7  8  1  0  0  0  0
  8  9  2  0  0  0  0
  8 10  1  0  0  0  0
 10 11  2  0  0  0  0
 10 15  1  0  0  0  0
 11 12  1  0  0  0  0
 11 33  1  0  0  0  0
 12 13  2  0  0  0  0
 12 17  1  0  0  0  0
 13 14  1  0  0  0  0
 13 34  1  0  0  0  0
 14 15  2  0  0  0  0
 14 35  1  0  0  0  0
 15 16  1  0  0  0  0
 18 19  1  0  0  0  0
 18 36  1  0  0  0  0
 18 37  1  0  0  0  0
 19 20  1  0  0  0  0
 19 38  1  0  0  0  0
 19 39  1  0  0  0  0
 20 21  1  0  0  0  0
 20 40  1  0  0  0  0
 20 41  1  0  0  0  0
 21 42  1  0  0  0  0
 21 43  1  0  0  0  0
 22 23  2  0  0  0  0
 22 27  1  0  0  0  0
 23 24  1  0  0  0  0
 23 44  1  0  0  0  0
 24 25  2  0  0  0  0
 24 45  1  0  0  0  0
 25 26  1  0  0  0  0
 25 46  1  0  0  0  0
 26 27  2  0  0  0  0
 26 47  1  0  0  0  0
 27 48  1  0  0  0  0
 28 29  1  0  0  0  0
 29 49  1  0  0  0  0
 29 50  1  0  0  0  0
 29 51  1  0  0  0  0
M  END
>  <DRUGBANK_ID>
DB06040

>  <COMMON_NAME>
Filanesib

>  <CAS_NUMBER>
885060-09-3

>  <UNII>
8A49OSO368

>  <SYNONYMS>
Filanesib

$$$$
