
 OpenBabel10282417072D

 39 40  0  0  0  0  0  0  0  0999 V2000
   -1.4289    0.8250    0.0000 C   0  0  0  0  0  0  0  0  0  0  0  0
   -2.1434    0.4125    0.0000 C   0  0  0  0  0  0  0  0  0  0  0  0
    2.1434    0.4125    0.0000 C   0  0  0  0  0  0  0  0  0  0  0  0
    1.4289    1.6500    0.0000 C   0  0  0  0  0  0  0  0  0  0  0  0
    2.8578    0.8250    0.0000 C   0  0  0  0  0  0  0  0  0  0  0  0
    2.1434    2.0625    0.0000 C   0  0  0  0  0  0  0  0  0  0  0  0
    0.7144   -2.0625    0.0000 C   0  0  0  0  0  0  0  0  0  0  0  0
    1.4289   -1.6500    0.0000 C   0  0  0  0  0  0  0  0  0  0  0  0
   -0.7144    0.4125    0.0000 C   0  0  0  0  0  0  0  0  0  0  0  0
    0.0000   -0.8250    0.0000 C   0  0  0  0  0  0  0  0  0  0  0  0
    1.4289    0.8250    0.0000 C   0  0  0  0  0  0  0  0  0  0  0  0
    2.8578    1.6500    0.0000 C   0  0  0  0  0  0  0  0  0  0  0  0
    0.0000   -1.6500    0.0000 C   0  0  0  0  0  0  0  0  0  0  0  0
    0.7144   -0.4125    0.0000 C   0  0  0  0  0  0  0  0  0  0  0  0
    1.4289   -0.8250    0.0000 C   0  0  0  0  0  0  0  0  0  0  0  0
   -2.8578    0.8250    0.0000 C   0  0  0  0  0  0  0  0  0  0  0  0
    0.7144    0.4125    0.0000 C   0  0  0  0  0  0  0  0  0  0  0  0
    3.5723    2.0625    0.0000 Cl  0  0  0  0  0  0  0  0  0  0  0  0
   -0.7144   -2.0625    0.0000 F   0  0  0  0  0  0  0  0  0  0  0  0
   -3.5723    0.4125    0.0000 N   0  0  0  0  0  0  0  0  0  0  0  0
    0.0000    0.8250    0.0000 N   0  0  0  0  0  0  0  0  0  0  0  0
    2.1434   -0.4125    0.0000 O   0  0  0  0  0  0  0  0  0  0  0  0
   -2.8578    1.6500    0.0000 O   0  0  0  0  0  0  0  0  0  0  0  0
   -1.4289    1.8950    0.0000 H   0  0  0  0  0  0  0  0  0  0  0  0
   -0.5023    1.3600    0.0000 H   0  0  0  0  0  0  0  0  0  0  0  0
   -2.1434   -0.6575    0.0000 H   0  0  0  0  0  0  0  0  0  0  0  0
   -3.0701   -0.1225    0.0000 H   0  0  0  0  0  0  0  0  0  0  0  0
    2.1434   -0.6195    0.0000 H   0  0  0  0  0  0  0  0  0  0  0  0
    0.5352    2.1660    0.0000 H   0  0  0  0  0  0  0  0  0  0  0  0
    3.7515    0.3090    0.0000 H   0  0  0  0  0  0  0  0  0  0  0  0
    2.1434    3.0945    0.0000 H   0  0  0  0  0  0  0  0  0  0  0  0
    0.7144   -3.0945    0.0000 H   0  0  0  0  0  0  0  0  0  0  0  0
    2.3226   -2.1660    0.0000 H   0  0  0  0  0  0  0  0  0  0  0  0
   -0.7144   -0.6575    0.0000 H   0  0  0  0  0  0  0  0  0  0  0  0
    0.2123   -0.1225    0.0000 H   0  0  0  0  0  0  0  0  0  0  0  0
   -0.8937   -0.3090    0.0000 H   0  0  0  0  0  0  0  0  0  0  0  0
   -4.4249    0.9048    0.0000 H   0  0  0  0  0  0  0  0  0  0  0  0
    2.9549   -0.8810    0.0000 H   0  0  0  0  0  0  0  0  0  0  0  0
   -2.0463    2.1185    0.0000 H   0  0  0  0  0  0  0  0  0  0  0  0
  1 24  1  0  0  0  0
  1 25  1  0  0  0  0
  2  1  1  0  0  0  0
  2 26  1  0  0  0  0
  2 27  1  0  0  0  0
  3 28  1  0  0  0  0
  4 29  1  0  0  0  0
  5  3  1  0  0  0  0
  5 30  1  0  0  0  0
  6  4  2  0  0  0  0
  6 31  1  0  0  0  0
  7 32  1  0  0  0  0
  8  7  2  0  0  0  0
  8 33  1  0  0  0  0
  9  1  1  0  0  0  0
  9 34  1  0  0  0  0
  9 35  1  0  0  0  0
 10 36  1  0  0  0  0
 11  3  2  0  0  0  0
 11  4  1  0  0  0  0
 12  5  2  0  0  0  0
 12  6  1  0  0  0  0
 13  7  1  0  0  0  0
 13 10  2  0  0  0  0
 14 10  1  0  0  0  0
 15  8  1  0  0  0  0
 15 14  2  0  0  0  0
 16  2  1  0  0  0  0
 17 11  1  0  0  0  0
 17 14  1  0  0  0  0
 18 12  1  0  0  0  0
 19 13  1  0  0  0  0
 20 16  2  0  0  0  0
 20 37  1  0  0  0  0
 21  9  1  0  0  0  0
 21 17  2  3  0  0  0
 22 15  1  0  0  0  0
 22 38  1  0  0  0  0
 23 16  1  0  0  0  0
 23 39  1  0  0  0  0
M  END
>  <DRUGBANK_ID>
DB00837

>  <SECONDARY_ACCESSION_NUMBERS>
APRD00072

>  <COMMON_NAME>
Progabide

>  <CAS_NUMBER>
62666-20-0

>  <UNII>
38C836J57Z

>  <SYNONYMS>
Halogabide; Progabida; Progabide; Progabidum

$$$$
