376
 OpenBabel10282417072D

 53 55  0  0  1  0  0  0  0  0999 V2000
    1.9058    0.0000    0.0000 O   0  0  0  0  0  0  0  0  0  0  0  0
    4.7934   -0.7145    0.0000 N   0  0  0  0  0  0  0  0  0  0  0  0
    2.7308    0.8250    0.0000 C   0  0  0  0  0  0  0  0  0  0  0  0
    2.7308    0.0000    0.0000 C   0  0  3  0  0  0  0  0  0  0  0  0
    3.4453    1.2375    0.0000 C   0  0  0  0  0  0  0  0  0  0  0  0
    2.0163    1.2375    0.0000 C   0  0  0  0  0  0  0  0  0  0  0  0
    3.5558    0.0000    0.0000 C   0  0  0  0  0  0  0  0  0  0  0  0
    3.4453    2.0625    0.0000 C   0  0  0  0  0  0  0  0  0  0  0  0
    2.0163    2.0625    0.0000 C   0  0  0  0  0  0  0  0  0  0  0  0
    2.7308    2.4751    0.0000 C   0  0  0  0  0  0  0  0  0  0  0  0
    3.9683   -0.7145    0.0000 C   0  0  0  0  0  0  0  0  0  0  0  0
    2.7308   -0.8250    0.0000 C   0  0  0  0  0  0  0  0  0  0  0  0
    5.2059   -1.4290    0.0000 C   0  0  0  0  0  0  0  0  0  0  0  0
    5.2059    0.0000    0.0000 C   0  0  0  0  0  0  0  0  0  0  0  0
    6.0309   -1.4290    0.0000 C   0  0  0  0  0  0  0  0  0  0  0  0
    6.0309    0.0000    0.0000 C   0  0  0  0  0  0  0  0  0  0  0  0
    6.4434   -0.7145    0.0000 C   0  0  0  0  0  0  0  0  0  0  0  0
    3.4453   -1.2375    0.0000 C   0  0  0  0  0  0  0  0  0  0  0  0
    2.0163   -1.2375    0.0000 C   0  0  0  0  0  0  0  0  0  0  0  0
    3.4453   -2.0625    0.0000 C   0  0  0  0  0  0  0  0  0  0  0  0
    2.0163   -2.0625    0.0000 C   0  0  0  0  0  0  0  0  0  0  0  0
    2.7308   -2.4751    0.0000 C   0  0  0  0  0  0  0  0  0  0  0  0
    1.4208    0.8400    0.0000 H   0  0  0  0  0  0  0  0  0  0  0  0
    2.7308    1.8950    0.0000 H   0  0  0  0  0  0  0  0  0  0  0  0
    4.3719    0.7025    0.0000 H   0  0  0  0  0  0  0  0  0  0  0  0
    4.3719    1.7725    0.0000 H   0  0  0  0  0  0  0  0  0  0  0  0
    1.0897    0.7025    0.0000 H   0  0  0  0  0  0  0  0  0  0  0  0
    1.0897    1.7725    0.0000 H   0  0  0  0  0  0  0  0  0  0  0  0
    4.0908    0.9266    0.0000 H   0  0  0  0  0  0  0  0  0  0  0  0
    4.6258   -0.0000    0.0000 H   0  0  0  0  0  0  0  0  0  0  0  0
    4.3720    2.5975    0.0000 H   0  0  0  0  0  0  0  0  0  0  0  0
    3.4454    3.1325    0.0000 H   0  0  0  0  0  0  0  0  0  0  0  0
    1.0896    2.5975    0.0000 H   0  0  0  0  0  0  0  0  0  0  0  0
    2.0162    3.1325    0.0000 H   0  0  0  0  0  0  0  0  0  0  0  0
    2.7308    3.5451    0.0000 H   0  0  0  0  0  0  0  0  0  0  0  0
    1.8041    3.0101    0.0000 H   0  0  0  0  0  0  0  0  0  0  0  0
    3.4333   -1.6411    0.0000 H   0  0  0  0  0  0  0  0  0  0  0  0
    2.8983   -0.7145    0.0000 H   0  0  0  0  0  0  0  0  0  0  0  0
    4.6709   -2.3556    0.0000 H   0  0  0  0  0  0  0  0  0  0  0  0
    5.7409   -2.3556    0.0000 H   0  0  0  0  0  0  0  0  0  0  0  0
    4.6709    0.9266    0.0000 H   0  0  0  0  0  0  0  0  0  0  0  0
    5.7409    0.9266    0.0000 H   0  0  0  0  0  0  0  0  0  0  0  0
    6.5659   -2.3556    0.0000 H   0  0  0  0  0  0  0  0  0  0  0  0
    7.1009   -1.4290    0.0000 H   0  0  0  0  0  0  0  0  0  0  0  0
    6.5659    0.9266    0.0000 H   0  0  0  0  0  0  0  0  0  0  0  0
    7.1009   -0.0000    0.0000 H   0  0  0  0  0  0  0  0  0  0  0  0
    7.5134   -0.7145    0.0000 H   0  0  0  0  0  0  0  0  0  0  0  0
    6.9784    0.2121    0.0000 H   0  0  0  0  0  0  0  0  0  0  0  0
    4.3390   -0.7215    0.0000 H   0  0  0  0  0  0  0  0  0  0  0  0
    1.1226   -0.7215    0.0000 H   0  0  0  0  0  0  0  0  0  0  0  0
    4.3391   -2.5785    0.0000 H   0  0  0  0  0  0  0  0  0  0  0  0
    1.1225   -2.5785    0.0000 H   0  0  0  0  0  0  0  0  0  0  0  0
    2.7308   -3.5071    0.0000 H   0  0  0  0  0  0  0  0  0  0  0  0
  1  4  1  0  0  0  0
  1 23  1  0  0  0  0
  2 11  1  0  0  0  0
  2 13  1  0  0  0  0
  2 14  1  0  0  0  0
  3  4  1  0  0  0  0
  3  5  1  0  0  0  0
  3  6  1  0  0  0  0
  3 24  1  0  0  0  0
  4  7  1  0  0  0  0
  4 12  1  0  0  0  0
  5  8  1  0  0  0  0
  5 25  1  0  0  0  0
  5 26  1  0  0  0  0
  6  9  1  0  0  0  0
  6 27  1  0  0  0  0
  6 28  1  0  0  0  0
  7 11  1  0  0  0  0
  7 29  1  0  0  0  0
  7 30  1  0  0  0  0
  8 10  1  0  0  0  0
  8 31  1  0  0  0  0
  8 32  1  0  0  0  0
  9 10  1  0  0  0  0
  9 33  1  0  0  0  0
  9 34  1  0  0  0  0
 10 35  1  0  0  0  0
 10 36  1  0  0  0  0
 11 37  1  0  0  0  0
 11 38  1  0  0  0  0
 12 18  2  0  0  0  0
 12 19  1  0  0  0  0
 13 15  1  0  0  0  0
 13 39  1  0  0  0  0
 13 40  1  0  0  0  0
 14 16  1  0  0  0  0
 14 41  1  0  0  0  0
 14 42  1  0  0  0  0
 15 17  1  0  0  0  0
 15 43  1  0  0  0  0
 15 44  1  0  0  0  0
 16 17  1  0  0  0  0
 16 45  1  0  0  0  0
 16 46  1  0  0  0  0
 17 47  1  0  0  0  0
 17 48  1  0  0  0  0
 18 20  1  0  0  0  0
 18 49  1  0  0  0  0
 19 21  2  0  0  0  0
 19 50  1  0  0  0  0
 20 22  2  0  0  0  0
 20 51  1  0  0  0  0
 21 22  1  0  0  0  0
 21 52  1  0  0  0  0
 22 53  1  0  0  0  0
M  END
>  <DRUGBANK_ID>
DB00376

>  <SECONDARY_ACCESSION_NUMBERS>
APRD00070

>  <COMMON_NAME>
Trihexyphenidyl

>  <CAS_NUMBER>
144-11-6

>  <UNII>
6RC5V8B7PO

>  <SYNONYMS>
Trihexifenidilo; Trihexyphenidyl; Trihexyph√©nidyle; Trihexyphenidylum

$$$$
