
 OpenBabel10282417072D

 49 51  0  0  0  0  0  0  0  0999 V2000
    1.1270    4.4270    0.0000 C   0  0  0  0  0  0  0  0  0  0  0  0
    1.8414    4.0145    0.0000 C   0  0  0  0  0  0  0  0  0  0  0  0
    2.5559    4.4270    0.0000 C   0  0  0  0  0  0  0  0  0  0  0  0
    1.8414    3.1895    0.0000 C   0  0  0  0  0  0  0  0  0  0  0  0
    2.5559    2.7770    0.0000 C   0  0  0  0  0  0  0  0  0  0  0  0
    2.5559    1.9520    0.0000 N   0  0  0  0  0  0  0  0  0  0  0  0
    3.2704    1.5395    0.0000 C   0  0  0  0  0  0  0  0  0  0  0  0
    3.2704    0.7145    0.0000 C   0  0  0  0  0  0  0  0  0  0  0  0
    3.6829    0.0000    0.0000 C   0  0  0  0  0  0  0  0  0  0  0  0
    2.8579    0.0000    0.0000 C   0  0  0  0  0  0  0  0  0  0  0  0
    1.8414    1.5395    0.0000 C   0  0  0  0  0  0  0  0  0  0  0  0
    1.8414    0.7145    0.0000 O   0  0  0  0  0  0  0  0  0  0  0  0
    1.1270    1.9520    0.0000 N   0  0  0  0  0  0  0  0  0  0  0  0
    1.1270    2.7770    0.0000 C   0  0  0  0  0  0  0  0  0  0  0  0
    0.4125    3.1895    0.0000 O   0  0  0  0  0  0  0  0  0  0  0  0
    3.2704    3.1895    0.0000 C   0  0  0  0  0  0  0  0  0  0  0  0
    3.2704    4.0145    0.0000 O   0  0  0  0  0  0  0  0  0  0  0  0
    3.9849    2.7770    0.0000 C   0  0  0  0  0  0  0  0  0  0  0  0
    4.6993    3.1895    0.0000 C   0  0  0  0  0  0  0  0  0  0  0  0
    5.4138    2.7770    0.0000 C   0  0  0  0  0  0  0  0  0  0  0  0
    6.1283    3.1895    0.0000 C   0  0  0  0  0  0  0  0  0  0  0  0
    5.4138    1.9520    0.0000 C   0  0  0  0  0  0  0  0  0  0  0  0
    4.6993    1.5395    0.0000 C   0  0  0  0  0  0  0  0  0  0  0  0
    4.6993    0.7145    0.0000 C   0  0  0  0  0  0  0  0  0  0  0  0
    3.9849    1.9520    0.0000 C   0  0  0  0  0  0  0  0  0  0  0  0
    1.1270    5.4970    0.0000 H   0  0  0  0  0  0  0  0  0  0  0  0
    0.2003    3.8920    0.0000 H   0  0  0  0  0  0  0  0  0  0  0  0
    0.2004    4.9620    0.0000 H   0  0  0  0  0  0  0  0  0  0  0  0
    2.7680    3.4795    0.0000 H   0  0  0  0  0  0  0  0  0  0  0  0
    3.4825    3.8920    0.0000 H   0  0  0  0  0  0  0  0  0  0  0  0
    2.5559    5.4970    0.0000 H   0  0  0  0  0  0  0  0  0  0  0  0
    3.4826    4.9620    0.0000 H   0  0  0  0  0  0  0  0  0  0  0  0
    4.1970    2.0745    0.0000 H   0  0  0  0  0  0  0  0  0  0  0  0
    4.1970    1.0045    0.0000 H   0  0  0  0  0  0  0  0  0  0  0  0
    3.2704   -0.3555    0.0000 H   0  0  0  0  0  0  0  0  0  0  0  0
    4.6095   -0.5350    0.0000 H   0  0  0  0  0  0  0  0  0  0  0  0
    3.4060   -1.0335    0.0000 H   0  0  0  0  0  0  0  0  0  0  0  0
    1.9313   -0.5350    0.0000 H   0  0  0  0  0  0  0  0  0  0  0  0
    2.1013    0.7566    0.0000 H   0  0  0  0  0  0  0  0  0  0  0  0
    0.2744    1.4598    0.0000 H   0  0  0  0  0  0  0  0  0  0  0  0
    4.6993    4.2215    0.0000 H   0  0  0  0  0  0  0  0  0  0  0  0
    7.0549    2.6545    0.0000 H   0  0  0  0  0  0  0  0  0  0  0  0
    6.1283    4.2595    0.0000 H   0  0  0  0  0  0  0  0  0  0  0  0
    7.0550    3.7245    0.0000 H   0  0  0  0  0  0  0  0  0  0  0  0
    6.3075    1.4360    0.0000 H   0  0  0  0  0  0  0  0  0  0  0  0
    3.7727    0.1795    0.0000 H   0  0  0  0  0  0  0  0  0  0  0  0
    5.6259    0.1795    0.0000 H   0  0  0  0  0  0  0  0  0  0  0  0
    4.6993   -0.3555    0.0000 H   0  0  0  0  0  0  0  0  0  0  0  0
    3.0912    1.4360    0.0000 H   0  0  0  0  0  0  0  0  0  0  0  0
  1  2  1  0  0  0  0
  1 26  1  0  0  0  0
  1 27  1  0  0  0  0
  1 28  1  0  0  0  0
  2  3  1  0  0  0  0
  2  4  1  0  0  0  0
  2 29  1  0  0  0  0
  3 30  1  0  0  0  0
  3 31  1  0  0  0  0
  3 32  1  0  0  0  0
  4  5  2  0  0  0  0
  4 14  1  0  0  0  0
  5  6  1  0  0  0  0
  5 16  1  0  0  0  0
  6  7  1  0  0  0  0
  6 11  1  0  0  0  0
  7  8  1  0  0  0  0
  7 33  1  0  0  0  0
  7 34  1  0  0  0  0
  8  9  1  0  0  0  0
  8 10  1  0  0  0  0
  8 35  1  0  0  0  0
  9 10  1  0  0  0  0
  9 36  1  0  0  0  0
  9 37  1  0  0  0  0
 10 38  1  0  0  0  0
 10 39  1  0  0  0  0
 11 12  2  0  0  0  0
 11 13  1  0  0  0  0
 13 14  1  0  0  0  0
 13 40  1  0  0  0  0
 14 15  2  0  0  0  0
 16 17  2  0  0  0  0
 16 18  1  0  0  0  0
 18 19  2  0  0  0  0
 18 25  1  0  0  0  0
 19 20  1  0  0  0  0
 19 41  1  0  0  0  0
 20 21  1  0  0  0  0
 20 22  2  0  0  0  0
 21 42  1  0  0  0  0
 21 43  1  0  0  0  0
 21 44  1  0  0  0  0
 22 23  1  0  0  0  0
 22 45  1  0  0  0  0
 23 24  1  0  0  0  0
 23 25  2  0  0  0  0
 24 46  1  0  0  0  0
 24 47  1  0  0  0  0
 24 48  1  0  0  0  0
 25 49  1  0  0  0  0
M  END
>  <DRUGBANK_ID>
DB14888

>  <COMMON_NAME>
IQP-0528

>  <CAS_NUMBER>
301297-45-0

>  <UNII>
1Y42TZL33O

$$$$
