
 OpenBabel10282417072D

 45 48  0  0  0  0  0  0  0  0999 V2000
    2.8478   -1.9193    0.0000 F   0  0  0  0  0  0  0  0  0  0  0  0
   -0.6322   -0.4556    0.0000 N   0  0  0  0  0  0  0  0  0  0  0  0
   -0.6322    0.8770    0.0000 N   0  0  0  0  0  0  0  0  0  0  0  0
    0.6834    0.2107    0.0000 N   0  0  0  0  0  0  0  0  0  0  0  0
    1.9194    2.3579    0.0000 N   0  0  0  0  0  0  0  0  0  0  0  0
   -1.4182   -0.1993    0.0000 C   0  0  0  0  0  0  0  0  0  0  0  0
   -0.1480    0.2107    0.0000 C   0  0  0  0  0  0  0  0  0  0  0  0
   -1.4182    0.6264    0.0000 C   0  0  0  0  0  0  0  0  0  0  0  0
   -0.3815   -1.2302    0.0000 C   0  0  0  0  0  0  0  0  0  0  0  0
   -2.1358   -0.6151    0.0000 C   0  0  0  0  0  0  0  0  0  0  0  0
   -2.1358    1.0365    0.0000 C   0  0  0  0  0  0  0  0  0  0  0  0
    0.4214   -1.4011    0.0000 C   0  0  0  0  0  0  0  0  0  0  0  0
    1.0992    0.9283    0.0000 C   0  0  0  0  0  0  0  0  0  0  0  0
   -2.8478   -0.1993    0.0000 C   0  0  0  0  0  0  0  0  0  0  0  0
   -2.8478    0.6264    0.0000 C   0  0  0  0  0  0  0  0  0  0  0  0
    0.6721   -2.1871    0.0000 C   0  0  0  0  0  0  0  0  0  0  0  0
    0.9682   -0.7917    0.0000 C   0  0  0  0  0  0  0  0  0  0  0  0
    1.9194    0.9283    0.0000 C   0  0  0  0  0  0  0  0  0  0  0  0
    0.6834    1.6403    0.0000 C   0  0  0  0  0  0  0  0  0  0  0  0
    2.0333   -1.7428    0.0000 C   0  0  0  0  0  0  0  0  0  0  0  0
    1.4808   -2.3579    0.0000 C   0  0  0  0  0  0  0  0  0  0  0  0
    1.7770   -0.9625    0.0000 C   0  0  0  0  0  0  0  0  0  0  0  0
    2.3351    1.6403    0.0000 C   0  0  0  0  0  0  0  0  0  0  0  0
    1.0992    2.3579    0.0000 C   0  0  0  0  0  0  0  0  0  0  0  0
    1.1750   -0.6423    0.0000 H   0  0  0  0  0  0  0  0  0  0  0  0
    2.4288    3.2416    0.0000 H   0  0  0  0  0  0  0  0  0  0  0  0
   -1.0980   -2.0249    0.0000 H   0  0  0  0  0  0  0  0  0  0  0  0
   -0.0514   -2.2480    0.0000 H   0  0  0  0  0  0  0  0  0  0  0  0
   -2.1376   -1.6471    0.0000 H   0  0  0  0  0  0  0  0  0  0  0  0
   -2.1375    2.0685    0.0000 H   0  0  0  0  0  0  0  0  0  0  0  0
    1.6319    1.8563    0.0000 H   0  0  0  0  0  0  0  0  0  0  0  0
   -3.7428   -0.7131    0.0000 H   0  0  0  0  0  0  0  0  0  0  0  0
   -3.7413    1.1429    0.0000 H   0  0  0  0  0  0  0  0  0  0  0  0
   -0.0200   -2.9526    0.0000 H   0  0  0  0  0  0  0  0  0  0  0  0
    0.6478    0.1893    0.0000 H   0  0  0  0  0  0  0  0  0  0  0  0
    2.4521    0.0004    0.0000 H   0  0  0  0  0  0  0  0  0  0  0  0
    2.9894    0.9244    0.0000 H   0  0  0  0  0  0  0  0  0  0  0  0
   -0.3866    1.6385    0.0000 H   0  0  0  0  0  0  0  0  0  0  0  0
    0.1483    2.5669    0.0000 H   0  0  0  0  0  0  0  0  0  0  0  0
    1.8009   -3.3390    0.0000 H   0  0  0  0  0  0  0  0  0  0  0  0
    2.4658   -0.1940    0.0000 H   0  0  0  0  0  0  0  0  0  0  0  0
    3.4051    1.6385    0.0000 H   0  0  0  0  0  0  0  0  0  0  0  0
    2.8671    0.7119    0.0000 H   0  0  0  0  0  0  0  0  0  0  0  0
    0.5649    3.2850    0.0000 H   0  0  0  0  0  0  0  0  0  0  0  0
    0.0292    2.3592    0.0000 H   0  0  0  0  0  0  0  0  0  0  0  0
  1 20  1  0  0  0  0
  2  6  1  0  0  0  0
  2  7  1  0  0  0  0
  2  9  1  0  0  0  0
  3  7  2  0  0  0  0
  3  8  1  0  0  0  0
  4  7  1  0  0  0  0
  4 13  1  0  0  0  0
  4 25  1  0  0  0  0
  5 23  1  0  0  0  0
  5 24  1  0  0  0  0
  5 26  1  0  0  0  0
  6  8  1  0  0  0  0
  6 10  2  0  0  0  0
  8 11  2  0  0  0  0
  9 12  1  0  0  0  0
  9 27  1  0  0  0  0
  9 28  1  0  0  0  0
 10 14  1  0  0  0  0
 10 29  1  0  0  0  0
 11 15  1  0  0  0  0
 11 30  1  0  0  0  0
 12 16  2  0  0  0  0
 12 17  1  0  0  0  0
 13 18  1  0  0  0  0
 13 19  1  0  0  0  0
 13 31  1  0  0  0  0
 14 15  2  0  0  0  0
 14 32  1  0  0  0  0
 15 33  1  0  0  0  0
 16 21  1  0  0  0  0
 16 34  1  0  0  0  0
 17 22  2  0  0  0  0
 17 35  1  0  0  0  0
 18 23  1  0  0  0  0
 18 36  1  0  0  0  0
 18 37  1  0  0  0  0
 19 24  1  0  0  0  0
 19 38  1  0  0  0  0
 19 39  1  0  0  0  0
 20 21  2  0  0  0  0
 20 22  1  0  0  0  0
 21 40  1  0  0  0  0
 22 41  1  0  0  0  0
 23 42  1  0  0  0  0
 23 43  1  0  0  0  0
 24 44  1  0  0  0  0
 24 45  1  0  0  0  0
M  END
>  <DRUGBANK_ID>
DB06457

>  <COMMON_NAME>
Tecastemizole

>  <CAS_NUMBER>
75970-99-9

>  <UNII>
W5DCO14M05

>  <SYNONYMS>
Norastemizole; Tecastemizole

$$$$
