1101
 OpenBabel10282417072D

 47 48  0  0  1  0  0  0  0  0999 V2000
    5.9370   -0.0354    0.0000 F   0  0  0  0  0  0  0  0  0  0  0  0
    5.1754   -2.9954    0.0000 O   0  0  0  0  0  0  0  0  0  0  0  0
    3.0559   -2.7404    0.0000 O   0  0  0  0  0  0  0  0  0  0  0  0
    3.6105   -4.4474    0.0000 O   0  0  0  0  0  0  0  0  0  0  0  0
    3.0791   -1.6854    0.0000 O   0  0  0  0  0  0  0  0  0  0  0  0
    3.7935    2.0272    0.0000 O   0  0  0  0  0  0  0  0  0  0  0  0
    3.0791    0.7896    0.0000 O   0  0  0  0  0  0  0  0  0  0  0  0
    4.5080   -1.6854    0.0000 N   0  0  0  0  0  0  0  0  0  0  0  0
    3.7935   -0.4479    0.0000 N   0  0  0  0  0  0  0  0  0  0  0  0
    4.5080    0.7896    0.0000 N   0  0  0  0  0  0  0  0  0  0  0  0
    3.8405   -2.9954    0.0000 C   0  0  2  0  0  0  0  0  0  0  0  0
    4.0955   -3.7800    0.0000 C   0  0  1  0  0  0  0  0  0  0  0  0
    4.5080   -2.5104    0.0000 C   0  0  1  0  0  0  0  0  0  0  0  0
    4.9205   -3.7800    0.0000 C   0  0  1  0  0  0  0  0  0  0  0  0
    5.4054   -4.4474    0.0000 C   0  0  0  0  0  0  0  0  0  0  0  0
    5.2224   -1.2729    0.0000 C   0  0  0  0  0  0  0  0  0  0  0  0
    3.7935   -1.2729    0.0000 C   0  0  0  0  0  0  0  0  0  0  0  0
    5.2224   -0.4479    0.0000 C   0  0  0  0  0  0  0  0  0  0  0  0
    4.5080   -0.0354    0.0000 C   0  0  0  0  0  0  0  0  0  0  0  0
    2.3645    3.6772    0.0000 C   0  0  0  0  0  0  0  0  0  0  0  0
    3.0791    3.2647    0.0000 C   0  0  0  0  0  0  0  0  0  0  0  0
    2.3645    4.5022    0.0000 C   0  0  0  0  0  0  0  0  0  0  0  0
    3.0791    2.4397    0.0000 C   0  0  0  0  0  0  0  0  0  0  0  0
    3.7935    1.2021    0.0000 C   0  0  0  0  0  0  0  0  0  0  0  0
    1.6500    4.9147    0.0000 C   0  0  0  0  0  0  0  0  0  0  0  0
    2.8543   -1.7916    0.0000 H   0  0  0  0  0  0  0  0  0  0  0  0
    2.6458   -4.3459    0.0000 H   0  0  0  0  0  0  0  0  0  0  0  0
    5.3606    1.2819    0.0000 H   0  0  0  0  0  0  0  0  0  0  0  0
    3.0839   -3.7520    0.0000 H   0  0  0  0  0  0  0  0  0  0  0  0
    3.0387   -3.6126    0.0000 H   0  0  0  0  0  0  0  0  0  0  0  0
    5.4614   -2.0247    0.0000 H   0  0  0  0  0  0  0  0  0  0  0  0
    5.9773   -3.6126    0.0000 H   0  0  0  0  0  0  0  0  0  0  0  0
    4.9702   -5.4249    0.0000 H   0  0  0  0  0  0  0  0  0  0  0  0
    6.4695   -4.3355    0.0000 H   0  0  0  0  0  0  0  0  0  0  0  0
    6.0343   -5.3130    0.0000 H   0  0  0  0  0  0  0  0  0  0  0  0
    6.1161   -1.7889    0.0000 H   0  0  0  0  0  0  0  0  0  0  0  0
    1.4379    3.1422    0.0000 H   0  0  0  0  0  0  0  0  0  0  0  0
    1.4378    4.2122    0.0000 H   0  0  0  0  0  0  0  0  0  0  0  0
    4.0057    3.7997    0.0000 H   0  0  0  0  0  0  0  0  0  0  0  0
    4.0058    2.7297    0.0000 H   0  0  0  0  0  0  0  0  0  0  0  0
    3.2911    5.0372    0.0000 H   0  0  0  0  0  0  0  0  0  0  0  0
    2.3645    5.5722    0.0000 H   0  0  0  0  0  0  0  0  0  0  0  0
    2.1524    1.9047    0.0000 H   0  0  0  0  0  0  0  0  0  0  0  0
    2.1525    2.9747    0.0000 H   0  0  0  0  0  0  0  0  0  0  0  0
    1.6500    5.9847    0.0000 H   0  0  0  0  0  0  0  0  0  0  0  0
    0.7234    4.3797    0.0000 H   0  0  0  0  0  0  0  0  0  0  0  0
    0.7233    5.4497    0.0000 H   0  0  0  0  0  0  0  0  0  0  0  0
  1 18  1  0  0  0  0
  2 13  1  0  0  0  0
  2 14  1  0  0  0  0
  3 26  1  0  0  0  0
  4 27  1  0  0  0  0
  5 17  2  0  0  0  0
  6 23  1  0  0  0  0
  6 24  1  0  0  0  0
  7 24  2  0  0  0  0
  8 16  1  0  0  0  0
  8 17  1  0  0  0  0
  9 17  1  0  0  0  0
  9 19  2  0  0  0  0
 10 19  1  0  0  0  0
 10 24  1  0  0  0  0
 10 28  1  0  0  0  0
 11  3  1  0  0  0  0
 11 12  1  0  0  0  0
 11 13  1  0  0  0  0
 11 29  1  6  0  0  0
 12  4  1  0  0  0  0
 12 14  1  0  0  0  0
 12 30  1  6  0  0  0
 13  8  1  0  0  0  0
 13 31  1  1  0  0  0
 14 15  1  0  0  0  0
 14 32  1  1  0  0  0
 15 33  1  0  0  0  0
 15 34  1  0  0  0  0
 15 35  1  0  0  0  0
 16 18  2  0  0  0  0
 16 36  1  0  0  0  0
 18 19  1  0  0  0  0
 20 21  1  0  0  0  0
 20 22  1  0  0  0  0
 20 37  1  0  0  0  0
 20 38  1  0  0  0  0
 21 23  1  0  0  0  0
 21 39  1  0  0  0  0
 21 40  1  0  0  0  0
 22 25  1  0  0  0  0
 22 41  1  0  0  0  0
 22 42  1  0  0  0  0
 23 43  1  0  0  0  0
 23 44  1  0  0  0  0
 25 45  1  0  0  0  0
 25 46  1  0  0  0  0
 25 47  1  0  0  0  0
M  END
>  <DRUGBANK_ID>
DB01101

>  <SECONDARY_ACCESSION_NUMBERS>
APRD00203

>  <COMMON_NAME>
Capecitabine

>  <CAS_NUMBER>
154361-50-9

>  <UNII>
6804DJ8Z9U

>  <SYNONYMS>
(1-(5-Deoxy-beta-D-ribofuranosyl)-5-fluoro-1,2-dihydro-2-oxo-4-pyrimidinyl)-carbamic acid pentyl ester; Capecitabin; Capecitabina; Capecitabine; Capécitabine; Capecitabinum; Pentyl [1-(5-deoxy-β-D-ribofuranosyl)-5-fluoro-2-oxo-1,2-dihydropyrimidin-4-yl]carbamate; pentyl 1-(5-deoxy-β-D-ribofuranosyl)-5-fluoro-1,2-dihydro-2-oxo-4-pyrimidinecarbamate

$$$$
