
 OpenBabel10282417072D

 40 42  0  0  0  0  0  0  0  0999 V2000
    4.7593   -0.4259    0.0000 S   0  0  0  0  0  0  0  0  0  0  0  0
    2.8876    0.4678    0.0000 N   0  0  0  0  0  0  0  0  0  0  0  0
    3.3001   -0.2467    0.0000 C   0  0  0  0  0  0  0  0  0  0  0  0
    4.0145   -0.6592    0.0000 C   0  0  0  0  0  0  0  0  0  0  0  0
    2.5856   -0.6592    0.0000 C   0  0  0  0  0  0  0  0  0  0  0  0
    4.0145   -1.4842    0.0000 C   0  0  0  0  0  0  0  0  0  0  0  0
    2.5856   -1.4842    0.0000 C   0  0  0  0  0  0  0  0  0  0  0  0
    2.0625    0.4678    0.0000 C   0  0  0  0  0  0  0  0  0  0  0  0
    3.3001    1.1823    0.0000 C   0  0  0  0  0  0  0  0  0  0  0  0
    3.3001   -1.8967    0.0000 C   0  0  0  0  0  0  0  0  0  0  0  0
    4.0753    0.0355    0.0000 C   0  0  0  0  0  0  0  0  0  0  0  0
    1.6500    1.1823    0.0000 C   0  0  0  0  0  0  0  0  0  0  0  0
    2.8876    1.8967    0.0000 C   0  0  0  0  0  0  0  0  0  0  0  0
    2.0625    1.8967    0.0000 C   0  0  0  0  0  0  0  0  0  0  0  0
    4.3027    0.8285    0.0000 C   0  0  0  0  0  0  0  0  0  0  0  0
    5.1272    0.8573    0.0000 C   0  0  0  0  0  0  0  0  0  0  0  0
    5.4094    0.0821    0.0000 C   0  0  0  0  0  0  0  0  0  0  0  0
    4.9412   -0.1242    0.0000 H   0  0  0  0  0  0  0  0  0  0  0  0
    4.9411   -1.1942    0.0000 H   0  0  0  0  0  0  0  0  0  0  0  0
    1.6590   -0.1242    0.0000 H   0  0  0  0  0  0  0  0  0  0  0  0
    1.6590   -1.1942    0.0000 H   0  0  0  0  0  0  0  0  0  0  0  0
    4.9412   -2.0192    0.0000 H   0  0  0  0  0  0  0  0  0  0  0  0
    4.0145   -2.5542    0.0000 H   0  0  0  0  0  0  0  0  0  0  0  0
    1.6590   -2.0192    0.0000 H   0  0  0  0  0  0  0  0  0  0  0  0
    2.5856   -2.5542    0.0000 H   0  0  0  0  0  0  0  0  0  0  0  0
    1.5275   -0.4588    0.0000 H   0  0  0  0  0  0  0  0  0  0  0  0
    0.9925    0.4678    0.0000 H   0  0  0  0  0  0  0  0  0  0  0  0
    4.3701    1.1823    0.0000 H   0  0  0  0  0  0  0  0  0  0  0  0
    3.8351    2.1090    0.0000 H   0  0  0  0  0  0  0  0  0  0  0  0
    3.3001   -2.9667    0.0000 H   0  0  0  0  0  0  0  0  0  0  0  0
    2.3735   -2.4317    0.0000 H   0  0  0  0  0  0  0  0  0  0  0  0
    0.5800    1.1823    0.0000 H   0  0  0  0  0  0  0  0  0  0  0  0
    1.1150    2.1090    0.0000 H   0  0  0  0  0  0  0  0  0  0  0  0
    3.4226    2.8234    0.0000 H   0  0  0  0  0  0  0  0  0  0  0  0
    2.3526    2.8233    0.0000 H   0  0  0  0  0  0  0  0  0  0  0  0
    1.5275    2.8234    0.0000 H   0  0  0  0  0  0  0  0  0  0  0  0
    2.5975    2.8233    0.0000 H   0  0  0  0  0  0  0  0  0  0  0  0
    3.6673    1.6417    0.0000 H   0  0  0  0  0  0  0  0  0  0  0  0
    5.7043    1.7129    0.0000 H   0  0  0  0  0  0  0  0  0  0  0  0
    6.4014   -0.2023    0.0000 H   0  0  0  0  0  0  0  0  0  0  0  0
  1 11  1  0  0  0  0
  1 17  1  0  0  0  0
  2  3  1  0  0  0  0
  2  8  1  0  0  0  0
  2  9  1  0  0  0  0
  3  4  1  0  0  0  0
  3  5  1  0  0  0  0
  3 11  1  0  0  0  0
  4  6  1  0  0  0  0
  4 18  1  0  0  0  0
  4 19  1  0  0  0  0
  5  7  1  0  0  0  0
  5 20  1  0  0  0  0
  5 21  1  0  0  0  0
  6 10  1  0  0  0  0
  6 22  1  0  0  0  0
  6 23  1  0  0  0  0
  7 10  1  0  0  0  0
  7 24  1  0  0  0  0
  7 25  1  0  0  0  0
  8 12  1  0  0  0  0
  8 26  1  0  0  0  0
  8 27  1  0  0  0  0
  9 13  1  0  0  0  0
  9 28  1  0  0  0  0
  9 29  1  0  0  0  0
 10 30  1  0  0  0  0
 10 31  1  0  0  0  0
 11 15  2  0  0  0  0
 12 14  1  0  0  0  0
 12 32  1  0  0  0  0
 12 33  1  0  0  0  0
 13 14  1  0  0  0  0
 13 34  1  0  0  0  0
 13 35  1  0  0  0  0
 14 36  1  0  0  0  0
 14 37  1  0  0  0  0
 15 16  1  0  0  0  0
 15 38  1  0  0  0  0
 16 17  2  0  0  0  0
 16 39  1  0  0  0  0
 17 40  1  0  0  0  0
M  END
>  <DRUGBANK_ID>
DB01520

>  <COMMON_NAME>
Tenocyclidine

>  <CAS_NUMBER>
21500-98-1

>  <UNII>
8BQ45Q6VCL

>  <SYNONYMS>
1-[1-(thiophen-2-yl)cyclohexyl]piperidine; TCP; Tenociclidina; Tenocyclidine; Tenocyclidinum; Thienyl cyclohexylpiperidine

$$$$
