
 OpenBabel10282417072D

119127  0  0  0  0  0  0  0  0999 V2000
    5.2265    0.0323    0.0000 C   0  0  0  0  0  0  0  0  0  0  0  0
    5.8394   -0.5197    0.0000 N   0  0  0  0  0  0  0  0  0  0  0  0
    6.6465   -0.3485    0.0000 C   0  0  1  0  0  0  0  0  0  0  0  0
    6.9823    0.4048    0.0000 C   0  0  0  0  0  0  0  0  0  0  0  0
    7.0588   -1.0631    0.0000 C   0  0  0  0  0  0  0  0  0  0  0  0
    6.5064   -1.6761    0.0000 C   0  0  0  0  0  0  0  0  0  0  0  0
    5.7528   -1.3401    0.0000 C   0  0  1  0  0  0  0  0  0  0  0  0
    5.0382   -1.7526    0.0000 C   0  0  0  0  0  0  0  0  0  0  0  0
    4.9521   -2.5731    0.0000 N   0  0  0  0  0  0  0  0  0  0  0  0
    4.1452   -2.7447    0.0000 C   0  0  0  0  0  0  0  0  0  0  0  0
    3.7325   -3.4591    0.0000 C   0  0  0  0  0  0  0  0  0  0  0  0
    2.9075   -3.4591    0.0000 C   0  0  0  0  0  0  0  0  0  0  0  0
    2.4950   -2.7446    0.0000 C   0  0  0  0  0  0  0  0  0  0  0  0
    1.6700   -2.7446    0.0000 C   0  0  0  0  0  0  0  0  0  0  0  0
    1.2575   -2.0301    0.0000 C   0  0  0  0  0  0  0  0  0  0  0  0
    0.4324   -2.0301    0.0000 C   0  0  0  0  0  0  0  0  0  0  0  0
    0.0201   -2.7446    0.0000 C   0  0  0  0  0  0  0  0  0  0  0  0
   -0.8049   -2.7445    0.0000 C   0  0  0  0  0  0  0  0  0  0  0  0
   -1.2175   -2.0301    0.0000 C   0  0  0  0  0  0  0  0  0  0  0  0
   -2.0425   -2.0301    0.0000 C   0  0  0  0  0  0  0  0  0  0  0  0
   -2.5274   -2.6976    0.0000 C   0  0  0  0  0  0  0  0  0  0  0  0
   -3.3120   -2.4425    0.0000 N   0  0  0  0  0  0  0  0  0  0  0  0
   -3.3120   -1.6176    0.0000 C   0  0  0  0  0  0  0  0  0  0  0  0
   -3.9794   -1.1325    0.0000 C   0  0  2  0  0  0  0  0  0  0  0  0
   -4.7641   -1.3873    0.0000 C   0  0  0  0  0  0  0  0  0  0  0  0
   -5.2490   -0.7199    0.0000 C   0  0  2  0  0  0  0  0  0  0  0  0
   -6.0740   -0.7199    0.0000 C   0  0  0  0  0  0  0  0  0  0  0  0
   -6.4863   -0.0054    0.0000 O   0  0  0  0  0  0  0  0  0  0  0  0
   -7.3114   -0.0053    0.0000 C   0  0  0  0  0  0  0  0  0  0  0  0
   -4.7641   -0.0526    0.0000 C   0  0  0  0  0  0  0  0  0  0  0  0
   -3.9792   -0.3075    0.0000 N   0  0  0  0  0  0  0  0  0  0  0  0
   -3.3119    0.1774    0.0000 C   0  0  0  0  0  0  0  0  0  0  0  0
   -2.5583   -0.1582    0.0000 O   0  0  0  0  0  0  0  0  0  0  0  0
   -3.3980    0.9977    0.0000 C   0  0  1  0  0  0  0  0  0  0  0  0
   -4.1516    1.3334    0.0000 C   0  0  0  0  0  0  0  0  0  0  0  0
   -4.2379    2.1539    0.0000 C   0  0  0  0  0  0  0  0  0  0  0  0
   -4.9915    2.4894    0.0000 C   0  0  0  0  0  0  0  0  0  0  0  0
   -5.6590    2.0046    0.0000 C   0  0  0  0  0  0  0  0  0  0  0  0
   -5.5729    1.1840    0.0000 C   0  0  0  0  0  0  0  0  0  0  0  0
   -4.8192    0.8484    0.0000 C   0  0  0  0  0  0  0  0  0  0  0  0
   -2.7306    1.4827    0.0000 N   0  0  0  0  0  0  0  0  0  0  0  0
   -2.8167    2.3031    0.0000 C   0  0  0  0  0  0  0  0  0  0  0  0
   -2.1492    2.7880    0.0000 O   0  0  0  0  0  0  0  0  0  0  0  0
   -3.5704    2.6388    0.0000 O   0  0  0  0  0  0  0  0  0  0  0  0
   -3.6566    3.4591    0.0000 C   0  0  0  0  0  0  0  0  0  0  0  0
   -2.5273   -1.3626    0.0000 N   0  0  0  0  0  0  0  0  0  0  0  0
   -0.8048   -1.3155    0.0000 C   0  0  0  0  0  0  0  0  0  0  0  0
    0.0200   -1.3156    0.0000 C   0  0  0  0  0  0  0  0  0  0  0  0
    0.4325   -0.6012    0.0000 C   0  0  0  0  0  0  0  0  0  0  0  0
    1.2575   -0.6011    0.0000 O   0  0  0  0  0  0  0  0  0  0  0  0
    1.6700   -1.3156    0.0000 C   0  0  0  0  0  0  0  0  0  0  0  0
    2.4950   -1.3156    0.0000 C   0  0  0  0  0  0  0  0  0  0  0  0
    2.9075   -2.0301    0.0000 C   0  0  0  0  0  0  0  0  0  0  0  0
    3.7325   -2.0301    0.0000 C   0  0  0  0  0  0  0  0  0  0  0  0
    4.2846   -1.4170    0.0000 N   0  0  0  0  0  0  0  0  0  0  0  0
    4.4418   -0.2222    0.0000 O   0  0  0  0  0  0  0  0  0  0  0  0
    5.3982    0.8393    0.0000 C   0  0  2  0  0  0  0  0  0  0  0  0
    4.7855    1.3915    0.0000 C   0  0  0  0  0  0  0  0  0  0  0  0
    4.0006    1.1368    0.0000 C   0  0  0  0  0  0  0  0  0  0  0  0
    4.9573    2.1984    0.0000 C   0  0  0  0  0  0  0  0  0  0  0  0
    6.1831    1.0939    0.0000 N   0  0  0  0  0  0  0  0  0  0  0  0
    6.3549    1.9008    0.0000 C   0  0  0  0  0  0  0  0  0  0  0  0
    5.7418    2.4531    0.0000 O   0  0  0  0  0  0  0  0  0  0  0  0
    7.1395    2.1556    0.0000 O   0  0  0  0  0  0  0  0  0  0  0  0
    7.3114    2.9625    0.0000 C   0  0  0  0  0  0  0  0  0  0  0  0
    5.9735    0.4833    0.0000 H   0  0  0  0  0  0  0  0  0  0  0  0
    8.0465    0.5162    0.0000 H   0  0  0  0  0  0  0  0  0  0  0  0
    6.3538    1.2707    0.0000 H   0  0  0  0  0  0  0  0  0  0  0  0
    7.4180    1.3821    0.0000 H   0  0  0  0  0  0  0  0  0  0  0  0
    8.1229   -1.1753    0.0000 H   0  0  0  0  0  0  0  0  0  0  0  0
    7.4419   -2.0622    0.0000 H   0  0  0  0  0  0  0  0  0  0  0  0
    6.7284   -2.7228    0.0000 H   0  0  0  0  0  0  0  0  0  0  0  0
    5.6745   -2.3491    0.0000 H   0  0  0  0  0  0  0  0  0  0  0  0
    5.8085   -2.4087    0.0000 H   0  0  0  0  0  0  0  0  0  0  0  0
    4.2484   -4.3529    0.0000 H   0  0  0  0  0  0  0  0  0  0  0  0
    2.3915   -4.3528    0.0000 H   0  0  0  0  0  0  0  0  0  0  0  0
    1.1540   -3.6383    0.0000 H   0  0  0  0  0  0  0  0  0  0  0  0
    0.5361   -3.6383    0.0000 H   0  0  0  0  0  0  0  0  0  0  0  0
   -1.3209   -3.6382    0.0000 H   0  0  0  0  0  0  0  0  0  0  0  0
   -2.2086   -3.6791    0.0000 H   0  0  0  0  0  0  0  0  0  0  0  0
   -4.1470   -2.1893    0.0000 H   0  0  0  0  0  0  0  0  0  0  0  0
   -5.0948   -2.4049    0.0000 H   0  0  0  0  0  0  0  0  0  0  0  0
   -5.8209   -1.5546    0.0000 H   0  0  0  0  0  0  0  0  0  0  0  0
   -5.7348   -1.6733    0.0000 H   0  0  0  0  0  0  0  0  0  0  0  0
   -6.6091   -1.6465    0.0000 H   0  0  0  0  0  0  0  0  0  0  0  0
   -7.1440   -0.7197    0.0000 H   0  0  0  0  0  0  0  0  0  0  0  0
   -7.8463    0.9214    0.0000 H   0  0  0  0  0  0  0  0  0  0  0  0
   -7.8465   -0.9319    0.0000 H   0  0  0  0  0  0  0  0  0  0  0  0
   -8.3814   -0.0052    0.0000 H   0  0  0  0  0  0  0  0  0  0  0  0
   -5.0948    0.9650    0.0000 H   0  0  0  0  0  0  0  0  0  0  0  0
   -4.0076    0.7041    0.0000 H   0  0  0  0  0  0  0  0  0  0  0  0
   -2.4205    0.5625    0.0000 H   0  0  0  0  0  0  0  0  0  0  0  0
   -3.4030    2.7605    0.0000 H   0  0  0  0  0  0  0  0  0  0  0  0
   -5.0993    3.5158    0.0000 H   0  0  0  0  0  0  0  0  0  0  0  0
   -6.6017    2.4245    0.0000 H   0  0  0  0  0  0  0  0  0  0  0  0
   -6.4079    0.5775    0.0000 H   0  0  0  0  0  0  0  0  0  0  0  0
   -4.7114   -0.1780    0.0000 H   0  0  0  0  0  0  0  0  0  0  0  0
   -1.8312    1.0822    0.0000 H   0  0  0  0  0  0  0  0  0  0  0  0
   -2.7909    4.0880    0.0000 H   0  0  0  0  0  0  0  0  0  0  0  0
   -4.6341    3.8943    0.0000 H   0  0  0  0  0  0  0  0  0  0  0  0
   -3.7684    4.5232    0.0000 H   0  0  0  0  0  0  0  0  0  0  0  0
   -2.2230   -0.4263    0.0000 H   0  0  0  0  0  0  0  0  0  0  0  0
   -1.3207   -0.4217    0.0000 H   0  0  0  0  0  0  0  0  0  0  0  0
   -0.1025    0.3254    0.0000 H   0  0  0  0  0  0  0  0  0  0  0  0
    0.9674    0.3255    0.0000 H   0  0  0  0  0  0  0  0  0  0  0  0
    3.0110   -0.4219    0.0000 H   0  0  0  0  0  0  0  0  0  0  0  0
    4.0800   -0.4540    0.0000 H   0  0  0  0  0  0  0  0  0  0  0  0
    6.1931    0.1231    0.0000 H   0  0  0  0  0  0  0  0  0  0  0  0
    3.9906    2.1078    0.0000 H   0  0  0  0  0  0  0  0  0  0  0  0
    3.2057    1.8531    0.0000 H   0  0  0  0  0  0  0  0  0  0  0  0
    3.7777    0.0903    0.0000 H   0  0  0  0  0  0  0  0  0  0  0  0
    2.9828    0.8065    0.0000 H   0  0  0  0  0  0  0  0  0  0  0  0
    5.9750    2.5287    0.0000 H   0  0  0  0  0  0  0  0  0  0  0  0
    4.1624    2.9146    0.0000 H   0  0  0  0  0  0  0  0  0  0  0  0
    5.1801    3.2449    0.0000 H   0  0  0  0  0  0  0  0  0  0  0  0
    6.9145    0.4348    0.0000 H   0  0  0  0  0  0  0  0  0  0  0  0
    8.3292    3.2927    0.0000 H   0  0  0  0  0  0  0  0  0  0  0  0
    6.5166    3.6788    0.0000 H   0  0  0  0  0  0  0  0  0  0  0  0
    7.5343    4.0090    0.0000 H   0  0  0  0  0  0  0  0  0  0  0  0
  1  2  1  0  0  0  0
  1 56  2  0  0  0  0
  1 57  1  0  0  0  0
  2  3  1  0  0  0  0
  2  7  1  0  0  0  0
  3  4  1  0  0  0  0
  3  5  1  0  0  0  0
  3 66  1  6  0  0  0
  4 67  1  0  0  0  0
  4 68  1  0  0  0  0
  4 69  1  0  0  0  0
  5 70  1  0  0  0  0
  5 71  1  0  0  0  0
  6  5  1  0  0  0  0
  6 72  1  0  0  0  0
  6 73  1  0  0  0  0
  7  6  1  0  0  0  0
  7  8  1  0  0  0  0
  7 74  1  6  0  0  0
  8  9  2  0  0  0  0
  8 55  1  0  0  0  0
  9 10  1  0  0  0  0
 10 11  1  0  0  0  0
 11 12  2  0  0  0  0
 11 75  1  0  0  0  0
 12 76  1  0  0  0  0
 13 12  1  0  0  0  0
 13 14  1  0  0  0  0
 14 15  2  0  0  0  0
 14 77  1  0  0  0  0
 15 16  1  0  0  0  0
 16 17  2  0  0  0  0
 16 48  1  0  0  0  0
 17 18  1  0  0  0  0
 17 78  1  0  0  0  0
 18 19  2  0  0  0  0
 18 79  1  0  0  0  0
 19 20  1  0  0  0  0
 20 21  2  0  0  0  0
 20 46  1  0  0  0  0
 21 22  1  0  0  0  0
 21 80  1  0  0  0  0
 23 22  2  0  0  0  0
 24 23  1  0  0  0  0
 24 25  1  0  0  0  0
 24 31  1  0  0  0  0
 24 81  1  1  0  0  0
 25 26  1  0  0  0  0
 25 82  1  0  0  0  0
 25 83  1  0  0  0  0
 26 27  1  0  0  0  0
 26 84  1  1  0  0  0
 27 28  1  0  0  0  0
 27 85  1  0  0  0  0
 27 86  1  0  0  0  0
 28 29  1  0  0  0  0
 29 87  1  0  0  0  0
 29 88  1  0  0  0  0
 29 89  1  0  0  0  0
 30 26  1  0  0  0  0
 30 90  1  0  0  0  0
 30 91  1  0  0  0  0
 31 30  1  0  0  0  0
 31 32  1  0  0  0  0
 32 33  2  0  0  0  0
 32 34  1  0  0  0  0
 34 35  1  0  0  0  0
 34 41  1  0  0  0  0
 34 92  1  6  0  0  0
 35 36  1  0  0  0  0
 35 40  2  0  0  0  0
 36 37  2  0  0  0  0
 36 93  1  0  0  0  0
 37 38  1  0  0  0  0
 37 94  1  0  0  0  0
 38 95  1  0  0  0  0
 39 38  2  0  0  0  0
 39 96  1  0  0  0  0
 40 39  1  0  0  0  0
 40 97  1  0  0  0  0
 41 42  1  0  0  0  0
 41 98  1  0  0  0  0
 42 43  2  0  0  0  0
 42 44  1  0  0  0  0
 44 45  1  0  0  0  0
 45 99  1  0  0  0  0
 45100  1  0  0  0  0
 45101  1  0  0  0  0
 46 23  1  0  0  0  0
 46102  1  0  0  0  0
 47 19  1  0  0  0  0
 47103  1  0  0  0  0
 48 47  2  0  0  0  0
 49 48  1  0  0  0  0
 49104  1  0  0  0  0
 49105  1  0  0  0  0
 50 49  1  0  0  0  0
 51 50  1  0  0  0  0
 51 15  1  0  0  0  0
 52 51  2  0  0  0  0
 52106  1  0  0  0  0
 53 52  1  0  0  0  0
 53 13  2  0  0  0  0
 54 53  1  0  0  0  0
 54 10  2  0  0  0  0
 55 54  1  0  0  0  0
 55107  1  0  0  0  0
 57 58  1  0  0  0  0
 57 61  1  0  0  0  0
 57108  1  1  0  0  0
 58 59  1  0  0  0  0
 58 60  1  0  0  0  0
 58109  1  0  0  0  0
 59110  1  0  0  0  0
 59111  1  0  0  0  0
 59112  1  0  0  0  0
 60113  1  0  0  0  0
 60114  1  0  0  0  0
 60115  1  0  0  0  0
 61 62  1  0  0  0  0
 61116  1  0  0  0  0
 62 63  2  0  0  0  0
 62 64  1  0  0  0  0
 64 65  1  0  0  0  0
 65117  1  0  0  0  0
 65118  1  0  0  0  0
 65119  1  0  0  0  0
M  END
>  <DRUGBANK_ID>
DB11613

>  <COMMON_NAME>
Velpatasvir

>  <CAS_NUMBER>
1377049-84-7

>  <UNII>
KCU0C7RS7Z

>  <SYNONYMS>
Velpatasvir; Velpatasvirum

$$$$
