
 OpenBabel10282417072D

 47 50  0  0  1  0  0  0  0  0999 V2000
   -2.0473    4.3709    0.0000 F   0  0  0  0  0  0  0  0  0  0  0  0
   -2.0473    3.5459    0.0000 C   0  0  0  0  0  0  0  0  0  0  0  0
   -1.3328    3.1334    0.0000 C   0  0  0  0  0  0  0  0  0  0  0  0
   -1.3328    2.3084    0.0000 C   0  0  0  0  0  0  0  0  0  0  0  0
   -2.0473    1.8959    0.0000 C   0  0  0  0  0  0  0  0  0  0  0  0
   -2.7617    2.3084    0.0000 C   0  0  0  0  0  0  0  0  0  0  0  0
   -3.4762    1.8959    0.0000 F   0  0  0  0  0  0  0  0  0  0  0  0
   -2.7617    3.1334    0.0000 C   0  0  0  0  0  0  0  0  0  0  0  0
   -0.6183    1.8959    0.0000 C   0  0  0  0  0  0  0  0  0  0  0  0
    0.0962    2.3084    0.0000 O   0  0  0  0  0  0  0  0  0  0  0  0
   -0.6183    1.0709    0.0000 N   0  0  0  0  0  0  0  0  0  0  0  0
    0.0962    0.6584    0.0000 C   0  0  2  0  0  0  0  0  0  0  0  0
    0.8106    1.0709    0.0000 C   0  0  3  0  0  0  0  0  0  0  0  0
    1.5251    0.6584    0.0000 C   0  0  0  0  0  0  0  0  0  0  0  0
    1.5251   -0.1666    0.0000 C   0  0  0  0  0  0  0  0  0  0  0  0
    0.8106   -0.5791    0.0000 N   0  0  3  0  0  0  0  0  0  0  0  0
    0.9481   -0.0291    0.0000 C   0  0  0  0  0  0  0  0  0  0  0  0
    0.9481    0.5209    0.0000 C   0  0  0  0  0  0  0  0  0  0  0  0
    0.0962   -0.1666    0.0000 C   0  0  1  0  0  0  0  0  0  0  0  0
   -0.6183   -0.5791    0.0000 C   0  0  0  0  0  0  0  0  0  0  0  0
   -1.3328   -0.1666    0.0000 C   0  0  0  0  0  0  0  0  0  0  0  0
   -2.0473   -0.5791    0.0000 C   0  0  0  0  0  0  0  0  0  0  0  0
   -2.7617   -0.1666    0.0000 N   0  0  0  0  0  0  0  0  0  0  0  0
   -2.7617    0.6584    0.0000 C   0  0  0  0  0  0  0  0  0  0  0  0
   -2.0473    1.0709    0.0000 C   0  0  0  0  0  0  0  0  0  0  0  0
   -1.3328    0.6584    0.0000 C   0  0  0  0  0  0  0  0  0  0  0  0
   -0.4391    3.6494    0.0000 H   0  0  0  0  0  0  0  0  0  0  0  0
   -2.0473    0.8639    0.0000 H   0  0  0  0  0  0  0  0  0  0  0  0
   -3.6554    3.6494    0.0000 H   0  0  0  0  0  0  0  0  0  0  0  0
   -1.4709    0.5786    0.0000 H   0  0  0  0  0  0  0  0  0  0  0  0
    0.0962    1.7284    0.0000 H   0  0  0  0  0  0  0  0  0  0  0  0
    0.8106    0.0009    0.0000 H   0  0  0  0  0  0  0  0  0  0  0  0
    2.4517    1.1934    0.0000 H   0  0  0  0  0  0  0  0  0  0  0  0
    2.4517    0.1234    0.0000 H   0  0  0  0  0  0  0  0  0  0  0  0
    2.4517   -0.7016    0.0000 H   0  0  0  0  0  0  0  0  0  0  0  0
    1.5251   -1.2366    0.0000 H   0  0  0  0  0  0  0  0  0  0  0  0
    2.0101   -0.1598    0.0000 H   0  0  0  0  0  0  0  0  0  0  0  0
    1.7496    0.6798    0.0000 H   0  0  0  0  0  0  0  0  0  0  0  0
    2.0101    0.6516    0.0000 H   0  0  0  0  0  0  0  0  0  0  0  0
    1.5537    1.4030    0.0000 H   0  0  0  0  0  0  0  0  0  0  0  0
    0.0962   -1.2366    0.0000 H   0  0  0  0  0  0  0  0  0  0  0  0
   -0.6183   -1.6491    0.0000 H   0  0  0  0  0  0  0  0  0  0  0  0
   -1.5449   -1.1141    0.0000 H   0  0  0  0  0  0  0  0  0  0  0  0
   -2.0473   -1.6111    0.0000 H   0  0  0  0  0  0  0  0  0  0  0  0
   -3.6554    1.1744    0.0000 H   0  0  0  0  0  0  0  0  0  0  0  0
   -2.0473    2.1029    0.0000 H   0  0  0  0  0  0  0  0  0  0  0  0
   -0.4391    1.1744    0.0000 H   0  0  0  0  0  0  0  0  0  0  0  0
  1  2  1  0  0  0  0
  2  3  2  0  0  0  0
  2  8  1  0  0  0  0
  3  4  1  0  0  0  0
  3 27  1  0  0  0  0
  4  5  2  0  0  0  0
  4  9  1  0  0  0  0
  5  6  1  0  0  0  0
  5 28  1  0  0  0  0
  6  7  1  0  0  0  0
  6  8  2  0  0  0  0
  8 29  1  0  0  0  0
  9 10  2  0  0  0  0
  9 11  1  0  0  0  0
 11 30  1  0  0  0  0
 12 11  1  0  0  0  0
 12 13  1  0  0  0  0
 12 19  1  0  0  0  0
 12 31  1  1  0  0  0
 13 14  1  0  0  0  0
 13 18  1  0  0  0  0
 13 32  1  0  0  0  0
 14 15  1  0  0  0  0
 14 33  1  0  0  0  0
 14 34  1  0  0  0  0
 15 16  1  0  0  0  0
 15 35  1  0  0  0  0
 15 36  1  0  0  0  0
 16 17  1  0  0  0  0
 17 18  1  0  0  0  0
 17 37  1  0  0  0  0
 17 38  1  0  0  0  0
 18 39  1  0  0  0  0
 18 40  1  0  0  0  0
 19 16  1  0  0  0  0
 19 20  1  0  0  0  0
 19 41  1  6  0  0  0
 20 21  1  0  0  0  0
 20 42  1  0  0  0  0
 20 43  1  0  0  0  0
 21 22  2  0  0  0  0
 21 26  1  0  0  0  0
 22 23  1  0  0  0  0
 22 44  1  0  0  0  0
 23 24  2  0  0  0  0
 24 25  1  0  0  0  0
 24 45  1  0  0  0  0
 25 26  2  0  0  0  0
 25 46  1  0  0  0  0
 26 47  1  0  0  0  0
M  END
>  <DRUGBANK_ID>
DB14854

>  <COMMON_NAME>
TC-6987

>  <CAS_NUMBER>
1196701-27-5

>  <UNII>
Q2U4R164OG

$$$$
