
 OpenBabel10282417072D

 57 58  0  0  0  0  0  0  0  0999 V2000
   -2.0730    0.5407    0.0000 O   0  0  0  0  0  0  0  0  0  0  0  0
   -1.4051    1.0249    0.0000 C   0  0  0  0  0  0  0  0  0  0  0  0
   -1.8188   -0.2441    0.0000 C   0  0  2  0  0  0  0  0  0  0  0  0
   -0.7382    0.5395    0.0000 C   0  0  0  0  0  0  0  0  0  0  0  0
   -0.9937   -0.2449    0.0000 C   0  0  2  0  0  0  0  0  0  0  0  0
   -2.0744   -1.0287    0.0000 C   0  0  0  0  0  0  0  0  0  0  0  0
   -1.4073   -1.5142    0.0000 C   0  0  2  0  0  0  0  0  0  0  0  0
   -0.7393   -1.0298    0.0000 C   0  0  2  0  0  0  0  0  0  0  0  0
   -1.4045    1.8500    0.0000 C   0  0  0  0  0  0  0  0  0  0  0  0
   -2.1186    2.2631    0.0000 C   0  0  0  0  0  0  0  0  0  0  0  0
   -2.8334    1.8513    0.0000 C   0  0  0  0  0  0  0  0  0  0  0  0
   -3.5475    2.2644    0.0000 C   0  0  0  0  0  0  0  0  0  0  0  0
   -4.2624    1.8526    0.0000 C   0  0  0  0  0  0  0  0  0  0  0  0
   -4.9765    2.2657    0.0000 O   0  0  0  0  0  0  0  0  0  0  0  0
   -4.2631    1.0275    0.0000 O   0  0  0  0  0  0  0  0  0  0  0  0
   -0.0250   -1.4427    0.0000 C   0  0  0  0  0  0  0  0  0  0  0  0
    0.6895   -1.0305    0.0000 C   0  0  0  0  0  0  0  0  0  0  0  0
    1.4038   -1.4433    0.0000 C   0  0  2  0  0  0  0  0  0  0  0  0
    2.1185   -1.0311    0.0000 C   0  0  0  0  0  0  0  0  0  0  0  0
    2.8329   -1.4440    0.0000 C   0  0  0  0  0  0  0  0  0  0  0  0
    3.5475   -1.0318    0.0000 C   0  0  0  0  0  0  0  0  0  0  0  0
    4.2618   -1.4446    0.0000 C   0  0  0  0  0  0  0  0  0  0  0  0
    4.9765   -1.0324    0.0000 C   0  0  0  0  0  0  0  0  0  0  0  0
    1.4151   -2.1871    0.0000 O   0  0  0  0  0  0  0  0  0  0  0  0
   -1.4056   -2.2657    0.0000 O   0  0  0  0  0  0  0  0  0  0  0  0
   -2.5842   -0.2464    0.0000 H   0  0  0  0  0  0  0  0  0  0  0  0
   -0.2034   -0.2464    0.0000 H   0  0  0  0  0  0  0  0  0  0  0  0
    0.2797    0.8693    0.0000 H   0  0  0  0  0  0  0  0  0  0  0  0
    0.0178   -0.2177    0.0000 H   0  0  0  0  0  0  0  0  0  0  0  0
   -3.0923   -1.3585    0.0000 H   0  0  0  0  0  0  0  0  0  0  0  0
   -2.2426   -2.0854    0.0000 H   0  0  0  0  0  0  0  0  0  0  0  0
   -2.3603   -2.0007    0.0000 H   0  0  0  0  0  0  0  0  0  0  0  0
    0.0927   -0.3569    0.0000 H   0  0  0  0  0  0  0  0  0  0  0  0
   -0.5104    2.3653    0.0000 H   0  0  0  0  0  0  0  0  0  0  0  0
   -2.1176    3.3331    0.0000 H   0  0  0  0  0  0  0  0  0  0  0  0
   -3.0448    2.7989    0.0000 H   0  0  0  0  0  0  0  0  0  0  0  0
   -2.8344    0.7813    0.0000 H   0  0  0  0  0  0  0  0  0  0  0  0
   -3.7605    1.3171    0.0000 H   0  0  0  0  0  0  0  0  0  0  0  0
   -3.5465    3.3344    0.0000 H   0  0  0  0  0  0  0  0  0  0  0  0
   -4.4736    2.8003    0.0000 H   0  0  0  0  0  0  0  0  0  0  0  0
   -4.9757    3.2027    0.0000 H   0  0  0  0  0  0  0  0  0  0  0  0
   -0.0254   -2.4747    0.0000 H   0  0  0  0  0  0  0  0  0  0  0  0
    0.6899    0.0015    0.0000 H   0  0  0  0  0  0  0  0  0  0  0  0
    0.4811   -1.9851    0.0000 H   0  0  0  0  0  0  0  0  0  0  0  0
    2.1190    0.0389    0.0000 H   0  0  0  0  0  0  0  0  0  0  0  0
    3.0454   -0.4965    0.0000 H   0  0  0  0  0  0  0  0  0  0  0  0
    2.8324   -2.5140    0.0000 H   0  0  0  0  0  0  0  0  0  0  0  0
    3.7593   -1.9794    0.0000 H   0  0  0  0  0  0  0  0  0  0  0  0
    3.5479    0.0382    0.0000 H   0  0  0  0  0  0  0  0  0  0  0  0
    4.4744   -0.4972    0.0000 H   0  0  0  0  0  0  0  0  0  0  0  0
    4.2613   -2.5146    0.0000 H   0  0  0  0  0  0  0  0  0  0  0  0
    5.1882   -1.9800    0.0000 H   0  0  0  0  0  0  0  0  0  0  0  0
    5.9029   -1.5678    0.0000 H   0  0  0  0  0  0  0  0  0  0  0  0
    4.9770    0.0376    0.0000 H   0  0  0  0  0  0  0  0  0  0  0  0
    5.9034   -0.4978    0.0000 H   0  0  0  0  0  0  0  0  0  0  0  0
    0.5825   -2.6848    0.0000 H   0  0  0  0  0  0  0  0  0  0  0  0
   -2.2445   -2.7526    0.0000 H   0  0  0  0  0  0  0  0  0  0  0  0
  2  1  1  0  0  0  0
  3  1  1  0  0  0  0
  3 26  1  1  0  0  0
  4  2  1  0  0  0  0
  4 28  1  0  0  0  0
  4 29  1  0  0  0  0
  5  4  1  0  0  0  0
  5  3  1  0  0  0  0
  5 27  1  1  0  0  0
  6  3  1  0  0  0  0
  6 30  1  0  0  0  0
  6 31  1  0  0  0  0
  7  6  1  0  0  0  0
  7 25  1  0  0  0  0
  7 32  1  1  0  0  0
  8  5  1  0  0  0  0
  8  7  1  0  0  0  0
  8 16  1  0  0  0  0
  8 33  1  6  0  0  0
  9  2  2  0  0  0  0
  9 34  1  0  0  0  0
 10  9  1  0  0  0  0
 10 35  1  0  0  0  0
 10 36  1  0  0  0  0
 11 10  1  0  0  0  0
 11 37  1  0  0  0  0
 11 38  1  0  0  0  0
 12 11  1  0  0  0  0
 12 39  1  0  0  0  0
 12 40  1  0  0  0  0
 13 12  1  0  0  0  0
 14 13  1  0  0  0  0
 14 41  1  0  0  0  0
 15 13  2  0  0  0  0
 16 42  1  0  0  0  0
 17 16  2  0  0  0  0
 17 43  1  0  0  0  0
 18 17  1  0  0  0  0
 18 24  1  0  0  0  0
 18 44  1  1  0  0  0
 19 18  1  0  0  0  0
 19 45  1  0  0  0  0
 19 46  1  0  0  0  0
 20 19  1  0  0  0  0
 20 47  1  0  0  0  0
 20 48  1  0  0  0  0
 21 20  1  0  0  0  0
 21 49  1  0  0  0  0
 21 50  1  0  0  0  0
 22 21  1  0  0  0  0
 22 51  1  0  0  0  0
 22 52  1  0  0  0  0
 23 22  1  0  0  0  0
 23 53  1  0  0  0  0
 23 54  1  0  0  0  0
 23 55  1  0  0  0  0
 24 56  1  0  0  0  0
 25 57  1  0  0  0  0
M  END
>  <DRUGBANK_ID>
DB01240

>  <SECONDARY_ACCESSION_NUMBERS>
APRD00949

>  <COMMON_NAME>
Epoprostenol

>  <CAS_NUMBER>
35121-78-9

>  <UNII>
DCR9Z582X0

>  <SYNONYMS>
(5Z,13E)-(15S)-6,9alpha-Epoxy-11alpha,15-dihydroxyprosta-5,13-dienoate; (5Z,9α,11α,13E,15S)-6,9-epoxy-11,15-dihydroxyprosta-5,13-dien-1-oic acid; Epoprostenol; PGI2; PGX; Prostacyclin; Prostaglandin I2; Prostaglandin X; Vasocyclin

$$$$
