
 OpenBabel10282417072D

 35 36  0  0  0  0  0  0  0  0999 V2000
    2.6127   -1.6228    0.0000 O   0  0  0  0  0  0  0  0  0  0  0  0
    2.6126   -0.7978    0.0000 C   0  0  0  0  0  0  0  0  0  0  0  0
    3.3271   -0.3853    0.0000 O   0  0  0  0  0  0  0  0  0  0  0  0
    1.8982   -0.3854    0.0000 C   0  0  1  0  0  0  0  0  0  0  0  0
    1.1837   -0.7979    0.0000 N   0  0  0  0  0  0  0  0  0  0  0  0
    1.8982    0.4395    0.0000 C   0  0  0  0  0  0  0  0  0  0  0  0
    2.6127    0.8520    0.0000 C   0  0  0  0  0  0  0  0  0  0  0  0
    2.6126    1.6770    0.0000 O   0  0  0  0  0  0  0  0  0  0  0  0
    3.3272    0.4396    0.0000 O   0  0  0  0  0  0  0  0  0  0  0  0
   -2.7752   -1.6770    0.0000 C   0  0  0  0  0  0  0  0  0  0  0  0
   -3.3272   -1.0640    0.0000 C   0  0  0  0  0  0  0  0  0  0  0  0
   -1.9682   -1.5055    0.0000 C   0  0  0  0  0  0  0  0  0  0  0  0
   -3.0722   -0.2793    0.0000 C   0  0  0  0  0  0  0  0  0  0  0  0
   -0.2451   -0.7979    0.0000 C   0  0  0  0  0  0  0  0  0  0  0  0
   -1.0458    0.4351    0.0000 C   0  0  0  0  0  0  0  0  0  0  0  0
   -0.9595   -0.3852    0.0000 C   0  0  0  0  0  0  0  0  0  0  0  0
   -1.7132   -0.7209    0.0000 C   0  0  0  0  0  0  0  0  0  0  0  0
   -2.2653   -0.1078    0.0000 C   0  0  0  0  0  0  0  0  0  0  0  0
    0.4693   -0.3854    0.0000 C   0  0  0  0  0  0  0  0  0  0  0  0
   -1.8528    0.6066    0.0000 N   0  0  0  0  0  0  0  0  0  0  0  0
    0.4693    0.4396    0.0000 O   0  0  0  0  0  0  0  0  0  0  0  0
    4.1386   -0.8538    0.0000 H   0  0  0  0  0  0  0  0  0  0  0  0
    1.8982   -1.4554    0.0000 H   0  0  0  0  0  0  0  0  0  0  0  0
    1.1837   -1.7824    0.0000 H   0  0  0  0  0  0  0  0  0  0  0  0
    0.9716    0.9745    0.0000 H   0  0  0  0  0  0  0  0  0  0  0  0
    1.8982    1.5095    0.0000 H   0  0  0  0  0  0  0  0  0  0  0  0
    3.3273   -0.4974    0.0000 H   0  0  0  0  0  0  0  0  0  0  0  0
   -3.0941   -2.6585    0.0000 H   0  0  0  0  0  0  0  0  0  0  0  0
   -4.3366   -1.2786    0.0000 H   0  0  0  0  0  0  0  0  0  0  0  0
   -1.2777   -2.2725    0.0000 H   0  0  0  0  0  0  0  0  0  0  0  0
   -3.7627    0.4876    0.0000 H   0  0  0  0  0  0  0  0  0  0  0  0
   -0.2452   -1.8679    0.0000 H   0  0  0  0  0  0  0  0  0  0  0  0
    0.6815   -1.3329    0.0000 H   0  0  0  0  0  0  0  0  0  0  0  0
   -0.2789    1.1257    0.0000 H   0  0  0  0  0  0  0  0  0  0  0  0
   -2.2532    1.5060    0.0000 H   0  0  0  0  0  0  0  0  0  0  0  0
  2  1  2  0  0  0  0
  3  2  1  0  0  0  0
  3 22  1  0  0  0  0
  4  2  1  0  0  0  0
  4  5  1  0  0  0  0
  4 23  1  6  0  0  0
  5 24  1  0  0  0  0
  6  4  1  0  0  0  0
  6 25  1  0  0  0  0
  6 26  1  0  0  0  0
  7  6  1  0  0  0  0
  8  7  2  0  0  0  0
  9  7  1  0  0  0  0
  9 27  1  0  0  0  0
 10 11  2  0  0  0  0
 10 12  1  0  0  0  0
 10 28  1  0  0  0  0
 11 13  1  0  0  0  0
 11 29  1  0  0  0  0
 12 17  2  0  0  0  0
 12 30  1  0  0  0  0
 13 18  2  0  0  0  0
 13 31  1  0  0  0  0
 14 16  1  0  0  0  0
 14 19  1  0  0  0  0
 14 32  1  0  0  0  0
 14 33  1  0  0  0  0
 15 16  2  0  0  0  0
 15 20  1  0  0  0  0
 15 34  1  0  0  0  0
 16 17  1  0  0  0  0
 17 18  1  0  0  0  0
 18 20  1  0  0  0  0
 19  5  1  0  0  0  0
 19 21  2  0  0  0  0
 20 35  1  0  0  0  0
M  END
>  <DRUGBANK_ID>
DB07951

>  <COMMON_NAME>
N-(indole-3-acetyl)-L-aspartic acid

>  <CAS_NUMBER>
2456-73-7

>  <UNII>
5V1L30W0M7

>  <SYNONYMS>
IAASP; N-(indol-3-ylacetyl)-L-aspartic acid; N-(indol-3-ylacetyl)aspartic acid; N-(indole-3-acetyl)aspartic acid

$$$$
