1231
 OpenBabel10282417072D

 50 52  0  0  0  0  0  0  0  0999 V2000
    1.9058    0.1915    0.0000 O   0  0  0  0  0  0  0  0  0  0  0  0
    5.2059   -1.2375    0.0000 N   0  0  0  0  0  0  0  0  0  0  0  0
    6.0309   -1.2375    0.0000 C   0  0  0  0  0  0  0  0  0  0  0  0
    4.7934   -1.9520    0.0000 C   0  0  0  0  0  0  0  0  0  0  0  0
    4.7934   -0.5231    0.0000 C   0  0  0  0  0  0  0  0  0  0  0  0
    6.4434   -1.9520    0.0000 C   0  0  0  0  0  0  0  0  0  0  0  0
    5.2059   -2.6665    0.0000 C   0  0  0  0  0  0  0  0  0  0  0  0
    6.0309   -2.6665    0.0000 C   0  0  0  0  0  0  0  0  0  0  0  0
    3.9683   -0.5231    0.0000 C   0  0  0  0  0  0  0  0  0  0  0  0
    3.5558    0.1915    0.0000 C   0  0  0  0  0  0  0  0  0  0  0  0
    2.7308    0.1915    0.0000 C   0  0  0  0  0  0  0  0  0  0  0  0
    2.7308    1.0165    0.0000 C   0  0  0  0  0  0  0  0  0  0  0  0
    2.7308   -0.6335    0.0000 C   0  0  0  0  0  0  0  0  0  0  0  0
    2.0163    1.4290    0.0000 C   0  0  0  0  0  0  0  0  0  0  0  0
    3.4453   -1.0460    0.0000 C   0  0  0  0  0  0  0  0  0  0  0  0
    3.4453    1.4290    0.0000 C   0  0  0  0  0  0  0  0  0  0  0  0
    2.0163   -1.0460    0.0000 C   0  0  0  0  0  0  0  0  0  0  0  0
    2.0163    2.2540    0.0000 C   0  0  0  0  0  0  0  0  0  0  0  0
    3.4453   -1.8711    0.0000 C   0  0  0  0  0  0  0  0  0  0  0  0
    3.4453    2.2540    0.0000 C   0  0  0  0  0  0  0  0  0  0  0  0
    2.0163   -1.8711    0.0000 C   0  0  0  0  0  0  0  0  0  0  0  0
    2.7308    2.6665    0.0000 C   0  0  0  0  0  0  0  0  0  0  0  0
    2.7308   -2.2836    0.0000 C   0  0  0  0  0  0  0  0  0  0  0  0
    1.4208    1.0315    0.0000 H   0  0  0  0  0  0  0  0  0  0  0  0
    6.5659   -0.3109    0.0000 H   0  0  0  0  0  0  0  0  0  0  0  0
    7.1009   -1.2375    0.0000 H   0  0  0  0  0  0  0  0  0  0  0  0
    3.7234   -1.9520    0.0000 H   0  0  0  0  0  0  0  0  0  0  0  0
    4.2584   -2.8786    0.0000 H   0  0  0  0  0  0  0  0  0  0  0  0
    5.3284    0.4036    0.0000 H   0  0  0  0  0  0  0  0  0  0  0  0
    4.2584    0.4035    0.0000 H   0  0  0  0  0  0  0  0  0  0  0  0
    7.5134   -1.9520    0.0000 H   0  0  0  0  0  0  0  0  0  0  0  0
    6.9784   -2.8786    0.0000 H   0  0  0  0  0  0  0  0  0  0  0  0
    4.6709   -3.5931    0.0000 H   0  0  0  0  0  0  0  0  0  0  0  0
    5.7409   -3.5931    0.0000 H   0  0  0  0  0  0  0  0  0  0  0  0
    6.5659   -3.5931    0.0000 H   0  0  0  0  0  0  0  0  0  0  0  0
    5.4959   -3.5931    0.0000 H   0  0  0  0  0  0  0  0  0  0  0  0
    3.4333   -1.4497    0.0000 H   0  0  0  0  0  0  0  0  0  0  0  0
    2.8983   -0.5230    0.0000 H   0  0  0  0  0  0  0  0  0  0  0  0
    4.0908    1.1181    0.0000 H   0  0  0  0  0  0  0  0  0  0  0  0
    3.0208    1.1182    0.0000 H   0  0  0  0  0  0  0  0  0  0  0  0
    1.1226    0.9130    0.0000 H   0  0  0  0  0  0  0  0  0  0  0  0
    4.3390   -0.5300    0.0000 H   0  0  0  0  0  0  0  0  0  0  0  0
    4.3390    0.9130    0.0000 H   0  0  0  0  0  0  0  0  0  0  0  0
    1.1226   -0.5300    0.0000 H   0  0  0  0  0  0  0  0  0  0  0  0
    1.1226    2.7700    0.0000 H   0  0  0  0  0  0  0  0  0  0  0  0
    4.3390   -2.3871    0.0000 H   0  0  0  0  0  0  0  0  0  0  0  0
    4.3390    2.7700    0.0000 H   0  0  0  0  0  0  0  0  0  0  0  0
    1.1226   -2.3871    0.0000 H   0  0  0  0  0  0  0  0  0  0  0  0
    2.7308    3.6985    0.0000 H   0  0  0  0  0  0  0  0  0  0  0  0
    2.7308   -3.3156    0.0000 H   0  0  0  0  0  0  0  0  0  0  0  0
  1 11  1  0  0  0  0
  1 24  1  0  0  0  0
  2  3  1  0  0  0  0
  2  4  1  0  0  0  0
  2  5  1  0  0  0  0
  3  6  1  0  0  0  0
  3 25  1  0  0  0  0
  3 26  1  0  0  0  0
  4  7  1  0  0  0  0
  4 27  1  0  0  0  0
  4 28  1  0  0  0  0
  5  9  1  0  0  0  0
  5 29  1  0  0  0  0
  5 30  1  0  0  0  0
  6  8  1  0  0  0  0
  6 31  1  0  0  0  0
  6 32  1  0  0  0  0
  7  8  1  0  0  0  0
  7 33  1  0  0  0  0
  7 34  1  0  0  0  0
  8 35  1  0  0  0  0
  8 36  1  0  0  0  0
  9 10  1  0  0  0  0
  9 37  1  0  0  0  0
  9 38  1  0  0  0  0
 10 11  1  0  0  0  0
 10 39  1  0  0  0  0
 10 40  1  0  0  0  0
 11 12  1  0  0  0  0
 11 13  1  0  0  0  0
 12 14  2  0  0  0  0
 12 16  1  0  0  0  0
 13 15  2  0  0  0  0
 13 17  1  0  0  0  0
 14 18  1  0  0  0  0
 14 41  1  0  0  0  0
 15 19  1  0  0  0  0
 15 42  1  0  0  0  0
 16 20  2  0  0  0  0
 16 43  1  0  0  0  0
 17 21  2  0  0  0  0
 17 44  1  0  0  0  0
 18 22  2  0  0  0  0
 18 45  1  0  0  0  0
 19 23  2  0  0  0  0
 19 46  1  0  0  0  0
 20 22  1  0  0  0  0
 20 47  1  0  0  0  0
 21 23  1  0  0  0  0
 21 48  1  0  0  0  0
 22 49  1  0  0  0  0
 23 50  1  0  0  0  0
M  END
>  <DRUGBANK_ID>
DB01231

>  <SECONDARY_ACCESSION_NUMBERS>
APRD00929

>  <COMMON_NAME>
Diphenidol

>  <CAS_NUMBER>
972-02-1

>  <UNII>
NQO8R319LY

>  <SYNONYMS>
alpha,alpha-Diphenyl-1-piperidinebutanol; Difenidol; Dif√©nidol; Difenidolo; Difenidolum; Diphenidol; Diphenyl(3-(1-piperidyl)propyl)carbinol

$$$$
