
 OpenBabel10282417072D

 47 52  0  0  1  0  0  0  0  0999 V2000
    0.5281   -3.8937    0.0000 C   0  0  0  0  0  0  0  0  0  0  0  0
   -0.2969   -3.8937    0.0000 C   0  0  0  0  0  0  0  0  0  0  0  0
   -0.7094   -3.1792    0.0000 C   0  0  0  0  0  0  0  0  0  0  0  0
   -0.2969   -2.4648    0.0000 C   0  0  0  0  0  0  0  0  0  0  0  0
    0.5281   -2.4648    0.0000 C   0  0  0  0  0  0  0  0  0  0  0  0
    0.9406   -3.1792    0.0000 C   0  0  0  0  0  0  0  0  0  0  0  0
    0.7831   -1.6801    0.0000 C   0  0  0  0  0  0  0  0  0  0  0  0
    0.1156   -1.1952    0.0000 C   0  0  0  0  0  0  0  0  0  0  0  0
   -0.5518   -1.6801    0.0000 N   0  0  0  0  0  0  0  0  0  0  0  0
    1.5677   -1.4252    0.0000 C   0  0  1  0  0  0  0  0  0  0  0  0
    1.8226   -0.6406    0.0000 C   0  0  1  0  0  0  0  0  0  0  0  0
    2.6476   -0.6406    0.0000 C   0  0  0  0  0  0  0  0  0  0  0  0
    3.1325    0.0269    0.0000 O   0  0  0  0  0  0  0  0  0  0  0  0
    2.9026   -1.4252    0.0000 N   0  0  0  0  0  0  0  0  0  0  0  0
    2.2351   -1.9101    0.0000 C   0  0  0  0  0  0  0  0  0  0  0  0
    2.2351   -2.7351    0.0000 O   0  0  0  0  0  0  0  0  0  0  0  0
    1.3377    0.0269    0.0000 C   0  0  0  0  0  0  0  0  0  0  0  0
    0.5127    0.0269    0.0000 C   0  0  0  0  0  0  0  0  0  0  0  0
    0.2578    0.8115    0.0000 N   0  0  0  0  0  0  0  0  0  0  0  0
    0.9252    1.2964    0.0000 C   0  0  0  0  0  0  0  0  0  0  0  0
    1.5926    0.8115    0.0000 C   0  0  0  0  0  0  0  0  0  0  0  0
    2.3463    1.1470    0.0000 C   0  0  0  0  0  0  0  0  0  0  0  0
    2.4326    1.9675    0.0000 C   0  0  0  0  0  0  0  0  0  0  0  0
    1.7651    2.4525    0.0000 C   0  0  0  0  0  0  0  0  0  0  0  0
    0.8390    2.1169    0.0000 C   0  0  0  0  0  0  0  0  0  0  0  0
    0.0853    2.4525    0.0000 C   0  0  0  0  0  0  0  0  0  0  0  0
   -0.5821    1.9675    0.0000 C   0  0  0  0  0  0  0  0  0  0  0  0
   -0.4959    1.1470    0.0000 C   0  0  0  0  0  0  0  0  0  0  0  0
    1.0441   -4.7874    0.0000 H   0  0  0  0  0  0  0  0  0  0  0  0
   -0.8129   -4.7874    0.0000 H   0  0  0  0  0  0  0  0  0  0  0  0
   -1.7414   -3.1792    0.0000 H   0  0  0  0  0  0  0  0  0  0  0  0
    1.9726   -3.1792    0.0000 H   0  0  0  0  0  0  0  0  0  0  0  0
    0.1156   -0.1632    0.0000 H   0  0  0  0  0  0  0  0  0  0  0  0
   -1.4881   -1.3758    0.0000 H   0  0  0  0  0  0  0  0  0  0  0  0
    0.8111   -0.6686    0.0000 H   0  0  0  0  0  0  0  0  0  0  0  0
    0.7658   -0.8080    0.0000 H   0  0  0  0  0  0  0  0  0  0  0  0
    3.8389   -1.7294    0.0000 H   0  0  0  0  0  0  0  0  0  0  0  0
   -0.0939   -0.8080    0.0000 H   0  0  0  0  0  0  0  0  0  0  0  0
    3.1812    0.5403    0.0000 H   0  0  0  0  0  0  0  0  0  0  0  0
    3.3754    2.3872    0.0000 H   0  0  0  0  0  0  0  0  0  0  0  0
    1.9095    3.4744    0.0000 H   0  0  0  0  0  0  0  0  0  0  0  0
   -0.0266    3.5166    0.0000 H   0  0  0  0  0  0  0  0  0  0  0  0
   -0.8922    2.8876    0.0000 H   0  0  0  0  0  0  0  0  0  0  0  0
   -1.5596    2.4027    0.0000 H   0  0  0  0  0  0  0  0  0  0  0  0
   -1.4478    1.3386    0.0000 H   0  0  0  0  0  0  0  0  0  0  0  0
   -1.3615    0.5181    0.0000 H   0  0  0  0  0  0  0  0  0  0  0  0
   -0.3840    0.0829    0.0000 H   0  0  0  0  0  0  0  0  0  0  0  0
  1  2  2  0  0  0  0
  1  6  1  0  0  0  0
  1 29  1  0  0  0  0
  2  3  1  0  0  0  0
  2 30  1  0  0  0  0
  3  4  2  0  0  0  0
  3 31  1  0  0  0  0
  4  5  1  0  0  0  0
  4  9  1  0  0  0  0
  5  6  2  0  0  0  0
  5  7  1  0  0  0  0
  6 32  1  0  0  0  0
  7  8  2  0  0  0  0
  8  9  1  0  0  0  0
  8 33  1  0  0  0  0
  9 34  1  0  0  0  0
 10  7  1  0  0  0  0
 10 11  1  0  0  0  0
 10 15  1  0  0  0  0
 10 35  1  6  0  0  0
 11 12  1  0  0  0  0
 11 17  1  0  0  0  0
 11 36  1  1  0  0  0
 12 13  2  0  0  0  0
 12 14  1  0  0  0  0
 14 15  1  0  0  0  0
 14 37  1  0  0  0  0
 15 16  2  0  0  0  0
 17 18  2  0  0  0  0
 17 21  1  0  0  0  0
 18 19  1  0  0  0  0
 18 38  1  0  0  0  0
 19 20  1  0  0  0  0
 19 28  1  0  0  0  0
 20 21  1  0  0  0  0
 20 25  2  0  0  0  0
 21 22  2  0  0  0  0
 22 23  1  0  0  0  0
 22 39  1  0  0  0  0
 23 24  2  0  0  0  0
 23 40  1  0  0  0  0
 24 25  1  0  0  0  0
 24 41  1  0  0  0  0
 25 26  1  0  0  0  0
 26 27  1  0  0  0  0
 26 42  1  0  0  0  0
 26 43  1  0  0  0  0
 27 28  1  0  0  0  0
 27 44  1  0  0  0  0
 27 45  1  0  0  0  0
 28 46  1  0  0  0  0
 28 47  1  0  0  0  0
M  END
>  <DRUGBANK_ID>
DB12200

>  <SECONDARY_ACCESSION_NUMBERS>
DB06026

>  <COMMON_NAME>
Tivantinib

>  <CAS_NUMBER>
905854-02-6

>  <UNII>
PJ4H73IL17

>  <SYNONYMS>
Tivantinib

$$$$
