
 OpenBabel10282417072D

 47 51  0  0  0  0  0  0  0  0999 V2000
   -2.5797   -0.8139    0.0000 C   0  0  0  0  0  0  0  0  0  0  0  0
   -2.4082   -0.0069    0.0000 C   0  0  0  0  0  0  0  0  0  0  0  0
   -3.0213    0.5451    0.0000 C   0  0  0  0  0  0  0  0  0  0  0  0
   -2.8498    1.3521    0.0000 C   0  0  0  0  0  0  0  0  0  0  0  0
   -2.0652    1.6070    0.0000 C   0  0  0  0  0  0  0  0  0  0  0  0
   -1.4521    1.0550    0.0000 C   0  0  0  0  0  0  0  0  0  0  0  0
   -1.6236    0.2480    0.0000 N   0  0  0  0  0  0  0  0  0  0  0  0
   -0.6674    1.3099    0.0000 C   0  0  0  0  0  0  0  0  0  0  0  0
    0.0000    0.8250    0.0000 C   0  0  0  0  0  0  0  0  0  0  0  0
    0.6674    1.3099    0.0000 C   0  0  0  0  0  0  0  0  0  0  0  0
    0.4125    2.0945    0.0000 N   0  0  0  0  0  0  0  0  0  0  0  0
   -0.4125    2.0945    0.0000 N   0  0  0  0  0  0  0  0  0  0  0  0
    1.0799    2.5795    0.0000 C   0  0  0  0  0  0  0  0  0  0  0  0
    1.7474    2.0945    0.0000 C   0  0  0  0  0  0  0  0  0  0  0  0
    1.4924    1.3099    0.0000 C   0  0  0  0  0  0  0  0  0  0  0  0
    0.0000   -0.0000    0.0000 C   0  0  0  0  0  0  0  0  0  0  0  0
   -0.7145   -0.4125    0.0000 C   0  0  0  0  0  0  0  0  0  0  0  0
   -0.7145   -1.2375    0.0000 C   0  0  0  0  0  0  0  0  0  0  0  0
    0.0000   -1.6500    0.0000 N   0  0  0  0  0  0  0  0  0  0  0  0
    0.7145   -1.2375    0.0000 C   0  0  0  0  0  0  0  0  0  0  0  0
    0.7145   -0.4125    0.0000 C   0  0  0  0  0  0  0  0  0  0  0  0
    1.4289   -0.0000    0.0000 C   0  0  0  0  0  0  0  0  0  0  0  0
    2.1434   -0.4125    0.0000 C   0  0  0  0  0  0  0  0  0  0  0  0
    2.1434   -1.2375    0.0000 C   0  0  0  0  0  0  0  0  0  0  0  0
    1.4289   -1.6500    0.0000 C   0  0  0  0  0  0  0  0  0  0  0  0
    2.8579   -0.0000    0.0000 C   0  0  0  0  0  0  0  0  0  0  0  0
    2.8579    0.8250    0.0000 O   0  0  0  0  0  0  0  0  0  0  0  0
    3.5724   -0.4125    0.0000 N   0  0  0  0  0  0  0  0  0  0  0  0
   -3.5973   -1.1446    0.0000 H   0  0  0  0  0  0  0  0  0  0  0  0
   -1.7845   -1.5298    0.0000 H   0  0  0  0  0  0  0  0  0  0  0  0
   -2.8021   -1.8605    0.0000 H   0  0  0  0  0  0  0  0  0  0  0  0
   -4.0028    0.2262    0.0000 H   0  0  0  0  0  0  0  0  0  0  0  0
   -3.6167    2.0426    0.0000 H   0  0  0  0  0  0  0  0  0  0  0  0
   -1.8506    2.6164    0.0000 H   0  0  0  0  0  0  0  0  0  0  0  0
    1.0799    3.6495    0.0000 H   0  0  0  0  0  0  0  0  0  0  0  0
    2.0333    3.0653    0.0000 H   0  0  0  0  0  0  0  0  0  0  0  0
    2.7650    2.4251    0.0000 H   0  0  0  0  0  0  0  0  0  0  0  0
    2.5040    1.3378    0.0000 H   0  0  0  0  0  0  0  0  0  0  0  0
    2.1213    0.4442    0.0000 H   0  0  0  0  0  0  0  0  0  0  0  0
    1.0066    0.3565    0.0000 H   0  0  0  0  0  0  0  0  0  0  0  0
   -1.6082    0.1035    0.0000 H   0  0  0  0  0  0  0  0  0  0  0  0
   -1.6082   -1.7535    0.0000 H   0  0  0  0  0  0  0  0  0  0  0  0
    1.4289    1.0320    0.0000 H   0  0  0  0  0  0  0  0  0  0  0  0
    3.0371   -1.7535    0.0000 H   0  0  0  0  0  0  0  0  0  0  0  0
    1.4289   -2.6820    0.0000 H   0  0  0  0  0  0  0  0  0  0  0  0
    3.5724   -1.3970    0.0000 H   0  0  0  0  0  0  0  0  0  0  0  0
    4.4250    0.0798    0.0000 H   0  0  0  0  0  0  0  0  0  0  0  0
  1  2  1  0  0  0  0
  1 29  1  0  0  0  0
  1 30  1  0  0  0  0
  1 31  1  0  0  0  0
  2  3  2  0  0  0  0
  2  7  1  0  0  0  0
  3  4  1  0  0  0  0
  3 32  1  0  0  0  0
  4  5  2  0  0  0  0
  4 33  1  0  0  0  0
  5  6  1  0  0  0  0
  5 34  1  0  0  0  0
  6  7  2  0  0  0  0
  6  8  1  0  0  0  0
  8  9  1  0  0  0  0
  8 12  2  0  0  0  0
  9 10  2  0  0  0  0
  9 16  1  0  0  0  0
 10 11  1  0  0  0  0
 10 15  1  0  0  0  0
 11 12  1  0  0  0  0
 11 13  1  0  0  0  0
 13 14  1  0  0  0  0
 13 35  1  0  0  0  0
 13 36  1  0  0  0  0
 14 15  1  0  0  0  0
 14 37  1  0  0  0  0
 14 38  1  0  0  0  0
 15 39  1  0  0  0  0
 15 40  1  0  0  0  0
 16 17  1  0  0  0  0
 16 21  2  0  0  0  0
 17 18  2  0  0  0  0
 17 41  1  0  0  0  0
 18 19  1  0  0  0  0
 18 42  1  0  0  0  0
 19 20  2  0  0  0  0
 20 21  1  0  0  0  0
 20 25  1  0  0  0  0
 21 22  1  0  0  0  0
 22 23  2  0  0  0  0
 22 43  1  0  0  0  0
 23 24  1  0  0  0  0
 23 26  1  0  0  0  0
 24 25  2  0  0  0  0
 24 44  1  0  0  0  0
 25 45  1  0  0  0  0
 26 27  2  0  0  0  0
 26 28  1  0  0  0  0
 28 46  1  0  0  0  0
 28 47  1  0  0  0  0
M  END
>  <DRUGBANK_ID>
DB11911

>  <COMMON_NAME>
Galunisertib

>  <CAS_NUMBER>
700874-72-2

>  <UNII>
3OKH1W5LZE

>  <SYNONYMS>
Galunisertib; Galunisertibum

$$$$
