665
 OpenBabel10282417072D

 43 45  0  0  0  0  0  0  0  0999 V2000
    1.9817   -0.2904    0.0000 C   0  0  0  0  0  0  0  0  0  0  0  0
    1.1971   -0.5453    0.0000 C   0  0  0  0  0  0  0  0  0  0  0  0
    0.5840    0.0067    0.0000 C   0  0  0  0  0  0  0  0  0  0  0  0
    0.7555    0.8137    0.0000 C   0  0  0  0  0  0  0  0  0  0  0  0
    1.5401    1.0686    0.0000 C   0  0  0  0  0  0  0  0  0  0  0  0
    2.1532    0.5166    0.0000 C   0  0  0  0  0  0  0  0  0  0  0  0
   -0.4556   -1.0329    0.0000 C   0  0  0  0  0  0  0  0  0  0  0  0
   -1.2806   -1.0329    0.0000 C   0  0  0  0  0  0  0  0  0  0  0  0
   -1.5355   -0.2482    0.0000 C   0  0  1  0  0  0  0  0  0  0  0  0
   -0.8681    0.2367    0.0000 C   0  0  0  0  0  0  0  0  0  0  0  0
   -0.2006   -0.2482    0.0000 N   0  0  0  0  0  0  0  0  0  0  0  0
   -2.3201    0.0067    0.0000 C   0  0  0  0  0  0  0  0  0  0  0  0
   -2.9332   -0.5453    0.0000 N   0  0  0  0  0  0  0  0  0  0  0  0
   -2.4917    0.8137    0.0000 O   0  0  0  0  0  0  0  0  0  0  0  0
    0.0293   -1.7003    0.0000 O   0  0  0  0  0  0  0  0  0  0  0  0
   -5.7287   -1.1395    0.0000 Br  0  0  0  0  0  0  0  0  0  0  0  0
   -4.3310   -0.8424    0.0000 C   0  0  0  0  0  0  0  0  0  0  0  0
   -5.1156   -0.5875    0.0000 C   0  0  0  0  0  0  0  0  0  0  0  0
   -5.2871    0.2195    0.0000 C   0  0  0  0  0  0  0  0  0  0  0  0
   -4.6740    0.7715    0.0000 C   0  0  0  0  0  0  0  0  0  0  0  0
   -3.8894    0.5166    0.0000 C   0  0  0  0  0  0  0  0  0  0  0  0
   -3.7179   -0.2904    0.0000 C   0  0  0  0  0  0  0  0  0  0  0  0
   -1.9484   -0.6611    0.0000 H   0  0  0  0  0  0  0  0  0  0  0  0
    2.7769   -1.0064    0.0000 H   0  0  0  0  0  0  0  0  0  0  0  0
    2.9993    0.0403    0.0000 H   0  0  0  0  0  0  0  0  0  0  0  0
    0.9746   -1.5919    0.0000 H   0  0  0  0  0  0  0  0  0  0  0  0
    0.1795   -0.8760    0.0000 H   0  0  0  0  0  0  0  0  0  0  0  0
   -0.2112    0.7227    0.0000 H   0  0  0  0  0  0  0  0  0  0  0  0
   -0.0397    1.5297    0.0000 H   0  0  0  0  0  0  0  0  0  0  0  0
    0.9780    1.8603    0.0000 H   0  0  0  0  0  0  0  0  0  0  0  0
    1.7626    2.1152    0.0000 H   0  0  0  0  0  0  0  0  0  0  0  0
    2.5577    1.3993    0.0000 H   0  0  0  0  0  0  0  0  0  0  0  0
    3.1708    0.8473    0.0000 H   0  0  0  0  0  0  0  0  0  0  0  0
    2.3756    1.5632    0.0000 H   0  0  0  0  0  0  0  0  0  0  0  0
   -1.9096   -1.8985    0.0000 H   0  0  0  0  0  0  0  0  0  0  0  0
   -2.3374   -0.8655    0.0000 H   0  0  0  0  0  0  0  0  0  0  0  0
   -0.8681    1.3067    0.0000 H   0  0  0  0  0  0  0  0  0  0  0  0
    0.0853    0.7225    0.0000 H   0  0  0  0  0  0  0  0  0  0  0  0
   -2.7285   -1.5083    0.0000 H   0  0  0  0  0  0  0  0  0  0  0  0
   -4.1164   -1.8518    0.0000 H   0  0  0  0  0  0  0  0  0  0  0  0
   -6.2686    0.5384    0.0000 H   0  0  0  0  0  0  0  0  0  0  0  0
   -4.8886    1.7809    0.0000 H   0  0  0  0  0  0  0  0  0  0  0  0
   -3.1225    1.2071    0.0000 H   0  0  0  0  0  0  0  0  0  0  0  0
  1  2  1  0  0  0  0
  1  6  1  0  0  0  0
  1 24  1  0  0  0  0
  1 25  1  0  0  0  0
  2  3  1  0  0  0  0
  2 26  1  0  0  0  0
  2 27  1  0  0  0  0
  3  4  1  0  0  0  0
  3 11  1  0  0  0  0
  3 28  1  0  0  0  0
  4  5  1  0  0  0  0
  4 29  1  0  0  0  0
  4 30  1  0  0  0  0
  5  6  1  0  0  0  0
  5 31  1  0  0  0  0
  5 32  1  0  0  0  0
  6 33  1  0  0  0  0
  6 34  1  0  0  0  0
  7  8  1  0  0  0  0
  7 11  1  0  0  0  0
  7 15  2  0  0  0  0
  8  9  1  0  0  0  0
  8 35  1  0  0  0  0
  8 36  1  0  0  0  0
  9 10  1  0  0  0  0
  9 12  1  0  0  0  0
  9 23  1  1  0  0  0
 10 11  1  0  0  0  0
 10 37  1  0  0  0  0
 10 38  1  0  0  0  0
 12 13  1  0  0  0  0
 12 14  2  0  0  0  0
 13 22  1  0  0  0  0
 13 39  1  0  0  0  0
 16 18  1  0  0  0  0
 17 18  2  0  0  0  0
 17 22  1  0  0  0  0
 17 40  1  0  0  0  0
 18 19  1  0  0  0  0
 19 20  2  0  0  0  0
 19 41  1  0  0  0  0
 20 21  1  0  0  0  0
 20 42  1  0  0  0  0
 21 22  2  0  0  0  0
 21 43  1  0  0  0  0
M  END
>  <DRUGBANK_ID>
DB07192

>  <COMMON_NAME>
(3S)-N-(3-BROMOPHENYL)-1-CYCLOHEXYL-5-OXOPYRROLIDINE-3-CARBOXAMIDE

$$$$
