HHO
 OpenBabel10282417072D

 33 32  0  0  0  0  0  0  0  0999 V2000
   -2.5536   -0.2457    0.0000 N   0  0  0  0  0  0  0  0  0  0  0  0
   -3.2681    0.1668    0.0000 C   0  0  0  0  0  0  0  0  0  0  0  0
   -3.9827   -0.2457    0.0000 O   0  0  0  0  0  0  0  0  0  0  0  0
   -1.8391    0.1668    0.0000 C   0  0  0  0  0  0  0  0  0  0  0  0
   -1.1246   -0.2457    0.0000 C   0  0  0  0  0  0  0  0  0  0  0  0
   -0.4100    0.1668    0.0000 C   0  0  0  0  0  0  0  0  0  0  0  0
    0.3045   -0.2457    0.0000 C   0  0  0  0  0  0  0  0  0  0  0  0
    1.0190    0.1668    0.0000 C   0  0  0  0  0  0  0  0  0  0  0  0
    1.7335   -0.2457    0.0000 C   0  0  0  0  0  0  0  0  0  0  0  0
    2.4481    0.1668    0.0000 C   0  0  0  0  0  0  0  0  0  0  0  0
    3.1625   -0.2457    0.0000 C   0  0  0  0  0  0  0  0  0  0  0  0
    3.8771    0.1668    0.0000 O   0  0  0  0  0  0  0  0  0  0  0  0
   -2.5536   -1.2657    0.0000 H   0  0  0  0  0  0  0  0  0  0  0  0
   -3.2681    1.2368    0.0000 H   0  0  0  0  0  0  0  0  0  0  0  0
   -4.1947    0.7019    0.0000 H   0  0  0  0  0  0  0  0  0  0  0  0
   -4.8227    0.2394    0.0000 H   0  0  0  0  0  0  0  0  0  0  0  0
   -1.8391    1.2368    0.0000 H   0  0  0  0  0  0  0  0  0  0  0  0
   -0.9125    0.7018    0.0000 H   0  0  0  0  0  0  0  0  0  0  0  0
   -1.1246   -1.3157    0.0000 H   0  0  0  0  0  0  0  0  0  0  0  0
   -0.1980   -0.7808    0.0000 H   0  0  0  0  0  0  0  0  0  0  0  0
   -0.4100    1.2368    0.0000 H   0  0  0  0  0  0  0  0  0  0  0  0
    0.5167    0.7018    0.0000 H   0  0  0  0  0  0  0  0  0  0  0  0
    0.3045   -1.3157    0.0000 H   0  0  0  0  0  0  0  0  0  0  0  0
    1.2311   -0.7807    0.0000 H   0  0  0  0  0  0  0  0  0  0  0  0
    1.0190    1.2368    0.0000 H   0  0  0  0  0  0  0  0  0  0  0  0
    1.9456    0.7018    0.0000 H   0  0  0  0  0  0  0  0  0  0  0  0
    1.7335   -1.3157    0.0000 H   0  0  0  0  0  0  0  0  0  0  0  0
    2.6601   -0.7808    0.0000 H   0  0  0  0  0  0  0  0  0  0  0  0
    2.4482    1.2368    0.0000 H   0  0  0  0  0  0  0  0  0  0  0  0
    3.3748    0.7018    0.0000 H   0  0  0  0  0  0  0  0  0  0  0  0
    3.1624   -1.3157    0.0000 H   0  0  0  0  0  0  0  0  0  0  0  0
    4.0891   -0.7808    0.0000 H   0  0  0  0  0  0  0  0  0  0  0  0
    4.7171   -0.3183    0.0000 H   0  0  0  0  0  0  0  0  0  0  0  0
  1  2  1  0  0  0  0
  1  4  1  0  0  0  0
  1 13  1  0  0  0  0
  2  3  1  0  0  0  0
  2 14  1  0  0  0  0
  2 15  1  0  0  0  0
  3 16  1  0  0  0  0
  4  5  1  0  0  0  0
  4 17  1  0  0  0  0
  4 18  1  0  0  0  0
  5  6  1  0  0  0  0
  5 19  1  0  0  0  0
  5 20  1  0  0  0  0
  6  7  1  0  0  0  0
  6 21  1  0  0  0  0
  6 22  1  0  0  0  0
  7  8  1  0  0  0  0
  7 23  1  0  0  0  0
  7 24  1  0  0  0  0
  8  9  1  0  0  0  0
  8 25  1  0  0  0  0
  8 26  1  0  0  0  0
  9 10  1  0  0  0  0
  9 27  1  0  0  0  0
  9 28  1  0  0  0  0
 10 11  1  0  0  0  0
 10 29  1  0  0  0  0
 10 30  1  0  0  0  0
 11 12  1  0  0  0  0
 11 31  1  0  0  0  0
 11 32  1  0  0  0  0
 12 33  1  0  0  0  0
M  END
>  <DRUGBANK_ID>
DB07897

>  <COMMON_NAME>
1-(HYDROXYMETHYLENEAMINO)-8-HYDROXY-OCTANE

$$$$
