BPS
 OpenBabel10282417072D

 25 26  0  0  0  0  0  0  0  0999 V2000
   -1.0835    0.2347    0.0000 C   0  0  0  0  0  0  0  0  0  0  0  0
   -0.3691   -0.1778    0.0000 C   0  0  0  0  0  0  0  0  0  0  0  0
   -0.3691   -1.0028    0.0000 C   0  0  0  0  0  0  0  0  0  0  0  0
   -1.0835   -1.4153    0.0000 C   0  0  0  0  0  0  0  0  0  0  0  0
   -1.7980   -1.0028    0.0000 C   0  0  0  0  0  0  0  0  0  0  0  0
   -1.7980   -0.1778    0.0000 C   0  0  0  0  0  0  0  0  0  0  0  0
    0.3454    0.2347    0.0000 C   0  0  0  0  0  0  0  0  0  0  0  0
    0.3454    1.0597    0.0000 C   0  0  0  0  0  0  0  0  0  0  0  0
    1.0599    1.4722    0.0000 C   0  0  0  0  0  0  0  0  0  0  0  0
    1.7743    1.0597    0.0000 C   0  0  0  0  0  0  0  0  0  0  0  0
    1.7743    0.2347    0.0000 C   0  0  0  0  0  0  0  0  0  0  0  0
    1.0599   -0.1778    0.0000 C   0  0  0  0  0  0  0  0  0  0  0  0
    0.3454   -1.4153    0.0000 S   0  0  1  0  0  0  0  0  0  0  0  0
    0.3454   -2.2403    0.0000 O   0  0  0  0  0  0  0  0  0  0  0  0
    1.0599   -1.0028    0.0000 O   0  0  0  0  0  0  0  0  0  0  0  0
   -1.0835    1.2667    0.0000 H   0  0  0  0  0  0  0  0  0  0  0  0
   -1.0835   -2.4473    0.0000 H   0  0  0  0  0  0  0  0  0  0  0  0
   -2.6917   -1.5188    0.0000 H   0  0  0  0  0  0  0  0  0  0  0  0
   -2.6917    0.3382    0.0000 H   0  0  0  0  0  0  0  0  0  0  0  0
   -0.5483    1.5757    0.0000 H   0  0  0  0  0  0  0  0  0  0  0  0
    1.0599    2.5042    0.0000 H   0  0  0  0  0  0  0  0  0  0  0  0
    2.6680    1.5757    0.0000 H   0  0  0  0  0  0  0  0  0  0  0  0
    2.6680   -0.2813    0.0000 H   0  0  0  0  0  0  0  0  0  0  0  0
    1.0599   -1.2098    0.0000 H   0  0  0  0  0  0  0  0  0  0  0  0
   -0.4946   -2.7253    0.0000 H   0  0  0  0  0  0  0  0  0  0  0  0
  1  2  2  0  0  0  0
  1  6  1  0  0  0  0
  1 16  1  0  0  0  0
  2  3  1  0  0  0  0
  2  7  1  0  0  0  0
  3  4  2  0  0  0  0
  3 13  1  0  0  0  0
  4  5  1  0  0  0  0
  4 17  1  0  0  0  0
  5  6  2  0  0  0  0
  5 18  1  0  0  0  0
  6 19  1  0  0  0  0
  7  8  1  0  0  0  0
  7 12  2  0  0  0  0
  8  9  2  0  0  0  0
  8 20  1  0  0  0  0
  9 10  1  0  0  0  0
  9 21  1  0  0  0  0
 10 11  2  0  0  0  0
 10 22  1  0  0  0  0
 11 12  1  0  0  0  0
 11 23  1  0  0  0  0
 12 24  1  0  0  0  0
 13 14  1  0  0  0  0
 13 15  2  6  0  0  0
 14 25  1  0  0  0  0
M  END
>  <DRUGBANK_ID>
DB07483

>  <COMMON_NAME>
1,1'-BIPHENYL-2-SULFINIC ACID

$$$$
