
 OpenBabel10282417072D

 15 13  0  0  0  0  0  0  0  0999 V2000
    2.1434    0.4125    0.0000 C   0  0  0  0  0  0  0  0  0  0  0  0
    1.4289    0.0000    0.0000 C   0  0  0  0  0  0  0  0  0  0  0  0
    2.8579    0.0000    0.0000 C   0  0  0  0  0  0  0  0  0  0  0  0
    0.7145    0.4125    0.0000 C   0  0  0  0  0  0  0  0  0  0  0  0
    3.5724    0.4125    0.0000 O   0  0  0  0  0  0  0  0  0  0  0  0
    0.7145    1.2375    0.0000 O   0  0  0  0  0  0  0  0  0  0  0  0
    0.0000    0.0000    0.0000 O   0  5  0  0  0  0  0  0  0  0  0  0
   -0.7145   -0.4125    0.0000 Na  0  3  0  0  0  0  0  0  0  0  0  0
    2.1434    1.4825    0.0000 H   0  0  0  0  0  0  0  0  0  0  0  0
    3.0700    0.9475    0.0000 H   0  0  0  0  0  0  0  0  0  0  0  0
    1.4289   -1.0700    0.0000 H   0  0  0  0  0  0  0  0  0  0  0  0
    0.5022   -0.5350    0.0000 H   0  0  0  0  0  0  0  0  0  0  0  0
    2.8579   -1.0700    0.0000 H   0  0  0  0  0  0  0  0  0  0  0  0
    3.7845   -0.5350    0.0000 H   0  0  0  0  0  0  0  0  0  0  0  0
    4.4124   -0.0725    0.0000 H   0  0  0  0  0  0  0  0  0  0  0  0
  1  9  1  0  0  0  0
  1 10  1  0  0  0  0
  2  1  1  0  0  0  0
  2 11  1  0  0  0  0
  2 12  1  0  0  0  0
  3  1  1  0  0  0  0
  3 13  1  0  0  0  0
  3 14  1  0  0  0  0
  4  2  1  0  0  0  0
  5  3  1  0  0  0  0
  5 15  1  0  0  0  0
  6  4  2  0  0  0  0
  7  4  1  0  0  0  0
M  CHG  2   7  -1   8   1
M  END
>  <DRUGBANK_ID>
DB09072

>  <COMMON_NAME>
Sodium oxybate

>  <CAS_NUMBER>
502-85-2

>  <UNII>
7G33012534

>  <SYNONYMS>
Oxybate sodium; Sodium oxybate

$$$$
