
 OpenBabel10282417072D

412411  0  0  0  0  0  0  0  0999 V2000
   -4.1261  -10.0232    0.0000 C   0  0  0  0  0  0  0  0  0  0  0  0
   -5.3636   -9.3088    0.0000 N   0  0  0  0  0  0  0  0  0  0  0  0
   -4.9511  -10.0232    0.0000 C   0  0  1  0  0  0  0  0  0  0  0  0
   -5.3636  -10.7378    0.0000 C   0  0  0  0  0  0  0  0  0  0  0  0
   -4.9511  -11.4522    0.0000 C   0  0  0  0  0  0  0  0  0  0  0  0
   -4.1261  -11.4522    0.0000 C   0  0  0  0  0  0  0  0  0  0  0  0
   -3.7136  -12.1667    0.0000 C   0  0  0  0  0  0  0  0  0  0  0  0
   -2.8886  -12.1667    0.0000 N   0  0  0  0  0  0  0  0  0  0  0  0
   -3.7136   -9.3088    0.0000 O   0  0  0  0  0  0  0  0  0  0  0  0
   -3.7136  -10.7378    0.0000 O   0  0  0  0  0  0  0  0  0  0  0  0
   -6.1886   -9.3088    0.0000 C   0  0  0  0  0  0  0  0  0  0  0  0
   -6.1886   -7.8798    0.0000 N   0  0  0  0  0  0  0  0  0  0  0  0
   -6.6012   -8.5943    0.0000 C   0  0  1  0  0  0  0  0  0  0  0  0
   -7.4241   -8.5943    0.0000 C   0  0  0  0  0  0  0  0  0  0  0  0
   -7.8366   -9.3088    0.0000 C   0  0  0  0  0  0  0  0  0  0  0  0
   -7.4241  -10.0232    0.0000 C   0  0  0  0  0  0  0  0  0  0  0  0
   -8.6616   -9.3088    0.0000 C   0  0  0  0  0  0  0  0  0  0  0  0
   -6.6012  -10.0232    0.0000 O   0  0  0  0  0  0  0  0  0  0  0  0
   -6.6012   -7.1653    0.0000 C   0  0  0  0  0  0  0  0  0  0  0  0
   -6.6012   -5.7363    0.0000 N   0  0  0  0  0  0  0  0  0  0  0  0
   -6.1886   -6.4508    0.0000 C   0  0  1  0  0  0  0  0  0  0  0  0
   -5.0143   -6.4508    0.0000 C   0  0  0  0  0  0  0  0  0  0  0  0
   -4.6018   -7.1653    0.0000 C   0  0  0  0  0  0  0  0  0  0  0  0
   -3.7768   -7.1653    0.0000 C   0  0  0  0  0  0  0  0  0  0  0  0
   -5.0143   -7.8798    0.0000 C   0  0  0  0  0  0  0  0  0  0  0  0
   -7.4241   -7.1653    0.0000 O   0  0  0  0  0  0  0  0  0  0  0  0
   -6.1886   -5.0218    0.0000 C   0  0  0  0  0  0  0  0  0  0  0  0
   -4.9511   -5.7363    0.0000 N   0  0  0  0  0  0  0  0  0  0  0  0
   -5.3636   -5.0218    0.0000 C   0  0  1  0  0  0  0  0  0  0  0  0
   -4.9511   -4.3074    0.0000 C   0  0  0  0  0  0  0  0  0  0  0  0
   -5.3636   -3.5928    0.0000 C   0  0  0  0  0  0  0  0  0  0  0  0
   -6.1886   -3.5928    0.0000 C   0  0  0  0  0  0  0  0  0  0  0  0
   -4.9511   -2.8736    0.0000 C   0  0  0  0  0  0  0  0  0  0  0  0
   -6.6012   -4.3074    0.0000 O   0  0  0  0  0  0  0  0  0  0  0  0
   -4.1261   -5.7363    0.0000 C   0  0  0  0  0  0  0  0  0  0  0  0
   -4.1261   -4.3074    0.0000 N   0  0  0  0  0  0  0  0  0  0  0  0
   -3.7136   -5.0218    0.0000 C   0  0  1  0  0  0  0  0  0  0  0  0
   -2.8886   -5.0218    0.0000 C   0  0  0  0  0  0  0  0  0  0  0  0
   -2.2918   -6.0059    0.0000 C   0  0  0  0  0  0  0  0  0  0  0  0
   -2.7043   -6.7203    0.0000 C   0  0  0  0  0  0  0  0  0  0  0  0
   -1.4668   -6.0059    0.0000 C   0  0  0  0  0  0  0  0  0  0  0  0
   -3.7136   -6.4508    0.0000 O   0  0  0  0  0  0  0  0  0  0  0  0
   -3.7136   -3.5928    0.0000 C   0  0  0  0  0  0  0  0  0  0  0  0
   -2.4761   -4.3074    0.0000 N   0  0  0  0  0  0  0  0  0  0  0  0
   -2.8886   -3.5928    0.0000 C   0  0  1  0  0  0  0  0  0  0  0  0
   -2.4761   -2.8736    0.0000 C   0  0  0  0  0  0  0  0  0  0  0  0
   -2.8886   -2.1636    0.0000 C   0  0  0  0  0  0  0  0  0  0  0  0
   -3.7136   -2.1636    0.0000 C   0  0  0  0  0  0  0  0  0  0  0  0
   -4.1261   -1.4481    0.0000 C   0  0  0  0  0  0  0  0  0  0  0  0
   -4.9511   -1.4481    0.0000 N   0  0  0  0  0  0  0  0  0  0  0  0
   -4.1261   -2.8736    0.0000 O   0  0  0  0  0  0  0  0  0  0  0  0
   -1.6510   -4.3074    0.0000 C   0  0  0  0  0  0  0  0  0  0  0  0
   -0.4135   -3.5928    0.0000 N   0  0  0  0  0  0  0  0  0  0  0  0
   -1.2385   -3.5928    0.0000 C   0  0  1  0  0  0  0  0  0  0  0  0
   -2.1020   -1.8836    0.0000 C   0  0  0  0  0  0  0  0  0  0  0  0
   -1.6895   -1.1736    0.0000 C   0  0  0  0  0  0  0  0  0  0  0  0
   -0.8645   -1.1736    0.0000 C   0  0  0  0  0  0  0  0  0  0  0  0
   -2.1020   -0.4580    0.0000 C   0  0  0  0  0  0  0  0  0  0  0  0
   -1.2385   -5.0218    0.0000 O   0  0  0  0  0  0  0  0  0  0  0  0
   -0.0010   -2.8736    0.0000 C   0  0  0  0  0  0  0  0  0  0  0  0
    1.2364   -2.1636    0.0000 N   0  0  0  0  0  0  0  0  0  0  0  0
    0.8239   -2.8736    0.0000 C   0  0  1  0  0  0  0  0  0  0  0  0
    1.2364   -3.5928    0.0000 C   0  0  0  0  0  0  0  0  0  0  0  0
    0.8239   -4.3074    0.0000 C   0  0  0  0  0  0  0  0  0  0  0  0
   -0.0010   -4.3074    0.0000 C   0  0  0  0  0  0  0  0  0  0  0  0
    1.2364   -5.0218    0.0000 C   0  0  0  0  0  0  0  0  0  0  0  0
   -0.4135   -2.1636    0.0000 O   0  0  0  0  0  0  0  0  0  0  0  0
    2.0614   -2.1636    0.0000 C   0  0  0  0  0  0  0  0  0  0  0  0
    3.2990   -1.4481    0.0000 N   0  0  0  0  0  0  0  0  0  0  0  0
    2.4739   -1.4481    0.0000 C   0  0  1  0  0  0  0  0  0  0  0  0
    2.0614   -0.7325    0.0000 C   0  0  0  0  0  0  0  0  0  0  0  0
    1.2364   -0.7325    0.0000 C   0  0  0  0  0  0  0  0  0  0  0  0
    0.8239   -1.4481    0.0000 C   0  0  0  0  0  0  0  0  0  0  0  0
    0.8239   -0.0169    0.0000 C   0  0  0  0  0  0  0  0  0  0  0  0
    2.4739   -2.8736    0.0000 O   0  0  0  0  0  0  0  0  0  0  0  0
    3.7115   -2.1636    0.0000 C   0  0  0  0  0  0  0  0  0  0  0  0
    4.9490   -1.4481    0.0000 N   0  0  0  0  0  0  0  0  0  0  0  0
    4.5365   -2.1636    0.0000 C   0  0  1  0  0  0  0  0  0  0  0  0
    4.9490   -2.8736    0.0000 C   0  0  0  0  0  0  0  0  0  0  0  0
    4.5365   -3.5928    0.0000 C   0  0  0  0  0  0  0  0  0  0  0  0
    3.7115   -3.5928    0.0000 C   0  0  0  0  0  0  0  0  0  0  0  0
    4.9490   -4.3074    0.0000 C   0  0  0  0  0  0  0  0  0  0  0  0
    3.2990   -2.8736    0.0000 O   0  0  0  0  0  0  0  0  0  0  0  0
    5.7740   -1.4481    0.0000 C   0  0  0  0  0  0  0  0  0  0  0  0
    5.7740   -0.0169    0.0000 N   0  0  0  0  0  0  0  0  0  0  0  0
    6.1865   -0.7325    0.0000 C   0  0  1  0  0  0  0  0  0  0  0  0
    7.0115   -0.7325    0.0000 C   0  0  0  0  0  0  0  0  0  0  0  0
    7.4241   -1.4481    0.0000 C   0  0  0  0  0  0  0  0  0  0  0  0
    8.2491   -1.4481    0.0000 C   0  0  0  0  0  0  0  0  0  0  0  0
    8.6616   -2.1636    0.0000 C   0  0  0  0  0  0  0  0  0  0  0  0
    8.2491   -2.8736    0.0000 N   0  0  0  0  0  0  0  0  0  0  0  0
    6.1865   -2.1636    0.0000 O   0  0  0  0  0  0  0  0  0  0  0  0
    4.9490   -0.0169    0.0000 C   0  0  0  0  0  0  0  0  0  0  0  0
    4.9490    1.4086    0.0000 N   0  0  0  0  0  0  0  0  0  0  0  0
    4.5365    0.6985    0.0000 C   0  0  1  0  0  0  0  0  0  0  0  0
    3.7115    0.6985    0.0000 C   0  0  0  0  0  0  0  0  0  0  0  0
    3.2990   -0.0169    0.0000 C   0  0  0  0  0  0  0  0  0  0  0  0
    3.7115   -0.7325    0.0000 C   0  0  0  0  0  0  0  0  0  0  0  0
    2.4739   -0.0169    0.0000 C   0  0  0  0  0  0  0  0  0  0  0  0
    4.5365   -0.7325    0.0000 O   0  0  0  0  0  0  0  0  0  0  0  0
    5.7740    1.4086    0.0000 C   0  0  0  0  0  0  0  0  0  0  0  0
    5.7740    2.8396    0.0000 N   0  0  0  0  0  0  0  0  0  0  0  0
    6.1865    2.1241    0.0000 C   0  0  1  0  0  0  0  0  0  0  0  0
    7.0115    2.1241    0.0000 C   0  0  0  0  0  0  0  0  0  0  0  0
    7.4241    1.4086    0.0000 C   0  0  0  0  0  0  0  0  0  0  0  0
    7.0115    0.6985    0.0000 C   0  0  0  0  0  0  0  0  0  0  0  0
    8.2491    1.4086    0.0000 C   0  0  0  0  0  0  0  0  0  0  0  0
    6.1865    0.6985    0.0000 O   0  0  0  0  0  0  0  0  0  0  0  0
    6.1865    3.5519    0.0000 C   0  0  0  0  0  0  0  0  0  0  0  0
    4.9490    4.2664    0.0000 N   0  0  0  0  0  0  0  0  0  0  0  0
    5.7740    4.2664    0.0000 C   0  0  1  0  0  0  0  0  0  0  0  0
    6.1865    4.9808    0.0000 C   0  0  0  0  0  0  0  0  0  0  0  0
    7.0115    4.9808    0.0000 C   0  0  0  0  0  0  0  0  0  0  0  0
    7.4241    4.2664    0.0000 C   0  0  0  0  0  0  0  0  0  0  0  0
    7.4241    5.6954    0.0000 C   0  0  0  0  0  0  0  0  0  0  0  0
    7.0115    3.5519    0.0000 O   0  0  0  0  0  0  0  0  0  0  0  0
    4.5365    4.9808    0.0000 C   0  0  0  0  0  0  0  0  0  0  0  0
    3.2990    4.2664    0.0000 N   0  0  0  0  0  0  0  0  0  0  0  0
    3.7115    4.9808    0.0000 C   0  0  1  0  0  0  0  0  0  0  0  0
    3.2990    5.6954    0.0000 C   0  0  0  0  0  0  0  0  0  0  0  0
    3.7115    6.4098    0.0000 C   0  0  0  0  0  0  0  0  0  0  0  0
    3.2990    7.1243    0.0000 C   0  0  0  0  0  0  0  0  0  0  0  0
    4.5365    6.4098    0.0000 C   0  0  0  0  0  0  0  0  0  0  0  0
    4.9490    5.6954    0.0000 O   0  0  0  0  0  0  0  0  0  0  0  0
    2.4739    4.2664    0.0000 C   0  0  0  0  0  0  0  0  0  0  0  0
    1.0052    3.3657    0.0000 N   0  0  0  0  0  0  0  0  0  0  0  0
    2.0614    3.5519    0.0000 C   0  0  1  0  0  0  0  0  0  0  0  0
    2.5619    2.4422    0.0000 C   0  0  0  0  0  0  0  0  0  0  0  0
    3.3867    2.4227    0.0000 C   0  0  0  0  0  0  0  0  0  0  0  0
    3.8152    3.1243    0.0000 C   0  0  0  0  0  0  0  0  0  0  0  0
    4.6399    3.1001    0.0000 C   0  0  0  0  0  0  0  0  0  0  0  0
    5.0363    2.3844    0.0000 N   0  0  0  0  0  0  0  0  0  0  0  0
    2.0614    4.9808    0.0000 O   0  0  0  0  0  0  0  0  0  0  0  0
    0.1836    4.0550    0.0000 C   0  0  0  0  0  0  0  0  0  0  0  0
    0.8981    5.2926    0.0000 N   0  0  0  0  0  0  0  0  0  0  0  0
    0.1836    4.8801    0.0000 C   0  0  1  0  0  0  0  0  0  0  0  0
   -0.5308    5.2926    0.0000 C   0  0  0  0  0  0  0  0  0  0  0  0
   -1.2453    4.8801    0.0000 C   0  0  0  0  0  0  0  0  0  0  0  0
   -1.9597    5.2926    0.0000 C   0  0  0  0  0  0  0  0  0  0  0  0
   -1.2453    4.0550    0.0000 C   0  0  0  0  0  0  0  0  0  0  0  0
   -0.5640    3.7064    0.0000 O   0  0  0  0  0  0  0  0  0  0  0  0
    0.8981    6.1176    0.0000 C   0  0  0  0  0  0  0  0  0  0  0  0
   -0.5308    6.1176    0.0000 N   0  0  0  0  0  0  0  0  0  0  0  0
    0.1836    6.5301    0.0000 C   0  0  1  0  0  0  0  0  0  0  0  0
    0.1836    7.3551    0.0000 C   0  0  0  0  0  0  0  0  0  0  0  0
    0.8981    7.7676    0.0000 C   0  0  0  0  0  0  0  0  0  0  0  0
    1.6126    7.3551    0.0000 C   0  0  0  0  0  0  0  0  0  0  0  0
    0.8981    8.5926    0.0000 C   0  0  0  0  0  0  0  0  0  0  0  0
    1.6126    6.5301    0.0000 O   0  0  0  0  0  0  0  0  0  0  0  0
   -1.2453    6.5301    0.0000 C   0  0  0  0  0  0  0  0  0  0  0  0
   -0.3603    7.8666    0.0000 N   0  0  0  0  0  0  0  0  0  0  0  0
   -1.2453    7.3551    0.0000 C   0  0  1  0  0  0  0  0  0  0  0  0
   -1.9597    7.7676    0.0000 C   0  0  0  0  0  0  0  0  0  0  0  0
   -1.9597    8.5926    0.0000 C   0  0  0  0  0  0  0  0  0  0  0  0
   -2.6743    9.0052    0.0000 C   0  0  0  0  0  0  0  0  0  0  0  0
   -1.2453    9.0052    0.0000 C   0  0  0  0  0  0  0  0  0  0  0  0
   -1.9597    6.1176    0.0000 O   0  0  0  0  0  0  0  0  0  0  0  0
   -0.3713    9.6872    0.0000 C   0  0  0  0  0  0  0  0  0  0  0  0
   -1.8993    9.6295    0.0000 N   0  0  0  0  0  0  0  0  0  0  0  0
   -1.0857   10.0997    0.0000 C   0  0  1  0  0  0  0  0  0  0  0  0
   -1.0873   10.9291    0.0000 C   0  0  0  0  0  0  0  0  0  0  0  0
   -0.3728   11.3417    0.0000 C   0  0  0  0  0  0  0  0  0  0  0  0
    0.3416   10.9238    0.0000 C   0  0  0  0  0  0  0  0  0  0  0  0
    0.3431   10.0997    0.0000 O   0  0  0  0  0  0  0  0  0  0  0  0
   -2.7127   10.0997    0.0000 C   0  0  0  0  0  0  0  0  0  0  0  0
   -4.2407   10.0420    0.0000 N   0  0  0  0  0  0  0  0  0  0  0  0
   -3.5262    9.6295    0.0000 C   0  0  1  0  0  0  0  0  0  0  0  0
   -3.5262    8.8044    0.0000 C   0  0  0  0  0  0  0  0  0  0  0  0
   -4.2407    8.3919    0.0000 C   0  0  0  0  0  0  0  0  0  0  0  0
   -4.9552    8.8044    0.0000 C   0  0  0  0  0  0  0  0  0  0  0  0
   -5.6697    8.3919    0.0000 C   0  0  0  0  0  0  0  0  0  0  0  0
   -6.3842    8.8044    0.0000 N   0  0  0  0  0  0  0  0  0  0  0  0
   -2.7127   10.9247    0.0000 O   0  0  0  0  0  0  0  0  0  0  0  0
   -0.3727   12.1667    0.0000 C   0  0  0  0  0  0  0  0  0  0  0  0
   -4.8714   -8.4562    0.0000 H   0  0  0  0  0  0  0  0  0  0  0  0
   -4.4161   -9.0965    0.0000 H   0  0  0  0  0  0  0  0  0  0  0  0
   -6.4336  -10.7379    0.0000 H   0  0  0  0  0  0  0  0  0  0  0  0
   -5.8986  -11.6645    0.0000 H   0  0  0  0  0  0  0  0  0  0  0  0
   -5.4861  -12.3789    0.0000 H   0  0  0  0  0  0  0  0  0  0  0  0
   -4.4161  -12.3788    0.0000 H   0  0  0  0  0  0  0  0  0  0  0  0
   -3.5911  -10.5256    0.0000 H   0  0  0  0  0  0  0  0  0  0  0  0
   -3.0561  -11.4522    0.0000 H   0  0  0  0  0  0  0  0  0  0  0  0
   -4.2486  -13.0933    0.0000 H   0  0  0  0  0  0  0  0  0  0  0  0
   -3.1786  -13.0933    0.0000 H   0  0  0  0  0  0  0  0  0  0  0  0
   -2.3786  -13.0500    0.0000 H   0  0  0  0  0  0  0  0  0  0  0  0
   -2.3786  -11.2834    0.0000 H   0  0  0  0  0  0  0  0  0  0  0  0
   -4.1822  -11.5492    0.0000 H   0  0  0  0  0  0  0  0  0  0  0  0
   -5.2041   -7.8798    0.0000 H   0  0  0  0  0  0  0  0  0  0  0  0
   -5.5312   -8.5943    0.0000 H   0  0  0  0  0  0  0  0  0  0  0  0
   -7.9591   -7.6677    0.0000 H   0  0  0  0  0  0  0  0  0  0  0  0
   -8.4941   -8.5943    0.0000 H   0  0  0  0  0  0  0  0  0  0  0  0
   -8.3716  -10.2355    0.0000 H   0  0  0  0  0  0  0  0  0  0  0  0
   -7.9591  -10.9499    0.0000 H   0  0  0  0  0  0  0  0  0  0  0  0
   -6.3541  -10.0232    0.0000 H   0  0  0  0  0  0  0  0  0  0  0  0
   -6.8891  -10.9498    0.0000 H   0  0  0  0  0  0  0  0  0  0  0  0
   -9.1966   -8.3822    0.0000 H   0  0  0  0  0  0  0  0  0  0  0  0
   -9.1966  -10.2354    0.0000 H   0  0  0  0  0  0  0  0  0  0  0  0
   -9.7316   -9.3088    0.0000 H   0  0  0  0  0  0  0  0  0  0  0  0
   -7.5857   -5.7363    0.0000 H   0  0  0  0  0  0  0  0  0  0  0  0
   -7.2586   -6.4508    0.0000 H   0  0  0  0  0  0  0  0  0  0  0  0
   -4.4793   -5.5242    0.0000 H   0  0  0  0  0  0  0  0  0  0  0  0
   -3.9443   -6.4508    0.0000 H   0  0  0  0  0  0  0  0  0  0  0  0
   -4.0668   -8.0919    0.0000 H   0  0  0  0  0  0  0  0  0  0  0  0
   -3.2418   -8.0919    0.0000 H   0  0  0  0  0  0  0  0  0  0  0  0
   -3.2418   -6.2387    0.0000 H   0  0  0  0  0  0  0  0  0  0  0  0
   -2.7068   -7.1653    0.0000 H   0  0  0  0  0  0  0  0  0  0  0  0
   -6.0843   -7.8798    0.0000 H   0  0  0  0  0  0  0  0  0  0  0  0
   -4.4793   -8.8064    0.0000 H   0  0  0  0  0  0  0  0  0  0  0  0
   -5.5493   -8.8065    0.0000 H   0  0  0  0  0  0  0  0  0  0  0  0
   -5.4434   -6.5889    0.0000 H   0  0  0  0  0  0  0  0  0  0  0  0
   -5.8986   -5.9484    0.0000 H   0  0  0  0  0  0  0  0  0  0  0  0
   -3.8811   -4.3075    0.0000 H   0  0  0  0  0  0  0  0  0  0  0  0
   -4.4160   -3.3808    0.0000 H   0  0  0  0  0  0  0  0  0  0  0  0
   -5.8999   -2.6669    0.0000 H   0  0  0  0  0  0  0  0  0  0  0  0
   -6.7236   -2.6662    0.0000 H   0  0  0  0  0  0  0  0  0  0  0  0
   -6.7236   -4.5194    0.0000 H   0  0  0  0  0  0  0  0  0  0  0  0
   -7.2586   -3.5928    0.0000 H   0  0  0  0  0  0  0  0  0  0  0  0
   -3.8811   -2.8705    0.0000 H   0  0  0  0  0  0  0  0  0  0  0  0
   -5.4887   -1.9485    0.0000 H   0  0  0  0  0  0  0  0  0  0  0  0
   -4.4187   -1.9454    0.0000 H   0  0  0  0  0  0  0  0  0  0  0  0
   -5.1106   -4.3075    0.0000 H   0  0  0  0  0  0  0  0  0  0  0  0
   -4.7836   -5.0218    0.0000 H   0  0  0  0  0  0  0  0  0  0  0  0
   -2.3636   -4.0894    0.0000 H   0  0  0  0  0  0  0  0  0  0  0  0
   -1.8187   -5.0045    0.0000 H   0  0  0  0  0  0  0  0  0  0  0  0
   -1.7568   -6.9326    0.0000 H   0  0  0  0  0  0  0  0  0  0  0  0
   -3.7743   -6.7203    0.0000 H   0  0  0  0  0  0  0  0  0  0  0  0
   -2.1693   -7.6470    0.0000 H   0  0  0  0  0  0  0  0  0  0  0  0
   -3.2393   -7.6469    0.0000 H   0  0  0  0  0  0  0  0  0  0  0  0
   -0.9318   -6.9325    0.0000 H   0  0  0  0  0  0  0  0  0  0  0  0
   -0.9318   -5.0793    0.0000 H   0  0  0  0  0  0  0  0  0  0  0  0
   -0.3968   -6.0059    0.0000 H   0  0  0  0  0  0  0  0  0  0  0  0
   -2.9684   -5.1600    0.0000 H   0  0  0  0  0  0  0  0  0  0  0  0
   -3.4236   -4.5194    0.0000 H   0  0  0  0  0  0  0  0  0  0  0  0
   -1.4061   -2.8706    0.0000 H   0  0  0  0  0  0  0  0  0  0  0  0
   -1.9437   -1.9455    0.0000 H   0  0  0  0  0  0  0  0  0  0  0  0
   -2.3549   -1.2362    0.0000 H   0  0  0  0  0  0  0  0  0  0  0  0
   -3.4242   -1.2373    0.0000 H   0  0  0  0  0  0  0  0  0  0  0  0
   -4.2489   -3.0901    0.0000 H   0  0  0  0  0  0  0  0  0  0  0  0
   -4.7836   -2.1631    0.0000 H   0  0  0  0  0  0  0  0  0  0  0  0
   -3.5908   -0.5216    0.0000 H   0  0  0  0  0  0  0  0  0  0  0  0
   -4.6610   -0.5214    0.0000 H   0  0  0  0  0  0  0  0  0  0  0  0
   -5.4611   -0.5648    0.0000 H   0  0  0  0  0  0  0  0  0  0  0  0
   -5.4611   -2.3314    0.0000 H   0  0  0  0  0  0  0  0  0  0  0  0
    0.0800   -4.4447    0.0000 H   0  0  0  0  0  0  0  0  0  0  0  0
   -0.7035   -4.5194    0.0000 H   0  0  0  0  0  0  0  0  0  0  0  0
   -3.1715   -1.8523    0.0000 H   0  0  0  0  0  0  0  0  0  0  0  0
   -2.6221   -0.9485    0.0000 H   0  0  0  0  0  0  0  0  0  0  0  0
   -1.1542   -0.2471    0.0000 H   0  0  0  0  0  0  0  0  0  0  0  0
   -0.3295   -2.1002    0.0000 H   0  0  0  0  0  0  0  0  0  0  0  0
   -0.3295   -0.2470    0.0000 H   0  0  0  0  0  0  0  0  0  0  0  0
    0.2055   -1.1736    0.0000 H   0  0  0  0  0  0  0  0  0  0  0  0
   -1.5664    0.4683    0.0000 H   0  0  0  0  0  0  0  0  0  0  0  0
   -3.1720   -0.4573    0.0000 H   0  0  0  0  0  0  0  0  0  0  0  0
   -2.6364    0.4690    0.0000 H   0  0  0  0  0  0  0  0  0  0  0  0
    0.7453   -1.3103    0.0000 H   0  0  0  0  0  0  0  0  0  0  0  0
    0.2902   -1.9462    0.0000 H   0  0  0  0  0  0  0  0  0  0  0  0
    2.3064   -3.5943    0.0000 H   0  0  0  0  0  0  0  0  0  0  0  0
    1.7708   -4.5198    0.0000 H   0  0  0  0  0  0  0  0  0  0  0  0
    0.2889   -5.2341    0.0000 H   0  0  0  0  0  0  0  0  0  0  0  0
   -0.5360   -3.3808    0.0000 H   0  0  0  0  0  0  0  0  0  0  0  0
   -0.5360   -5.2340    0.0000 H   0  0  0  0  0  0  0  0  0  0  0  0
   -1.0710   -4.3074    0.0000 H   0  0  0  0  0  0  0  0  0  0  0  0
    0.7014   -5.9485    0.0000 H   0  0  0  0  0  0  0  0  0  0  0  0
    2.3064   -5.0218    0.0000 H   0  0  0  0  0  0  0  0  0  0  0  0
    1.7714   -5.9484    0.0000 H   0  0  0  0  0  0  0  0  0  0  0  0
    3.7915   -0.5957    0.0000 H   0  0  0  0  0  0  0  0  0  0  0  0
    3.0092   -2.3746    0.0000 H   0  0  0  0  0  0  0  0  0  0  0  0
    2.5967    0.1940    0.0000 H   0  0  0  0  0  0  0  0  0  0  0  0
    1.5266    0.1942    0.0000 H   0  0  0  0  0  0  0  0  0  0  0  0
    0.1664   -0.7325    0.0000 H   0  0  0  0  0  0  0  0  0  0  0  0
   -0.2461   -1.4488    0.0000 H   0  0  0  0  0  0  0  0  0  0  0  0
    1.3595   -2.3744    0.0000 H   0  0  0  0  0  0  0  0  0  0  0  0
    0.2895   -2.3751    0.0000 H   0  0  0  0  0  0  0  0  0  0  0  0
    1.3595    0.9094    0.0000 H   0  0  0  0  0  0  0  0  0  0  0  0
   -0.2461   -0.0162    0.0000 H   0  0  0  0  0  0  0  0  0  0  0  0
    0.2895    0.9101    0.0000 H   0  0  0  0  0  0  0  0  0  0  0  0
    4.4565   -0.5957    0.0000 H   0  0  0  0  0  0  0  0  0  0  0  0
    4.0012   -1.2371    0.0000 H   0  0  0  0  0  0  0  0  0  0  0  0
    6.0190   -2.8706    0.0000 H   0  0  0  0  0  0  0  0  0  0  0  0
    5.4866   -3.7987    0.0000 H   0  0  0  0  0  0  0  0  0  0  0  0
    4.0015   -4.5194    0.0000 H   0  0  0  0  0  0  0  0  0  0  0  0
    3.1765   -2.6662    0.0000 H   0  0  0  0  0  0  0  0  0  0  0  0
    3.1765   -4.5194    0.0000 H   0  0  0  0  0  0  0  0  0  0  0  0
    2.6415   -3.5928    0.0000 H   0  0  0  0  0  0  0  0  0  0  0  0
    4.4139   -5.2340    0.0000 H   0  0  0  0  0  0  0  0  0  0  0  0
    6.0190   -4.3075    0.0000 H   0  0  0  0  0  0  0  0  0  0  0  0
    5.4839   -5.2341    0.0000 H   0  0  0  0  0  0  0  0  0  0  0  0
    6.2665    0.8355    0.0000 H   0  0  0  0  0  0  0  0  0  0  0  0
    5.1165   -0.7325    0.0000 H   0  0  0  0  0  0  0  0  0  0  0  0
    7.5468    0.1940    0.0000 H   0  0  0  0  0  0  0  0  0  0  0  0
    8.0815   -0.7330    0.0000 H   0  0  0  0  0  0  0  0  0  0  0  0
    6.8888   -2.3746    0.0000 H   0  0  0  0  0  0  0  0  0  0  0  0
    7.9590   -2.3748    0.0000 H   0  0  0  0  0  0  0  0  0  0  0  0
    8.7844   -0.5216    0.0000 H   0  0  0  0  0  0  0  0  0  0  0  0
    9.3191   -1.4486    0.0000 H   0  0  0  0  0  0  0  0  0  0  0  0
    9.7316   -2.1654    0.0000 H   0  0  0  0  0  0  0  0  0  0  0  0
    9.1946   -3.0914    0.0000 H   0  0  0  0  0  0  0  0  0  0  0  0
    7.2291   -2.8708    0.0000 H   0  0  0  0  0  0  0  0  0  0  0  0
    8.7567   -3.7583    0.0000 H   0  0  0  0  0  0  0  0  0  0  0  0
    4.4579    2.2619    0.0000 H   0  0  0  0  0  0  0  0  0  0  0  0
    5.6065    0.6968    0.0000 H   0  0  0  0  0  0  0  0  0  0  0  0
    3.1762    1.6250    0.0000 H   0  0  0  0  0  0  0  0  0  0  0  0
    2.6415    0.6980    0.0000 H   0  0  0  0  0  0  0  0  0  0  0  0
    2.7637   -0.9434    0.0000 H   0  0  0  0  0  0  0  0  0  0  0  0
    3.1759   -1.6588    0.0000 H   0  0  0  0  0  0  0  0  0  0  0  0
    4.7815   -0.7332    0.0000 H   0  0  0  0  0  0  0  0  0  0  0  0
    4.2459   -1.6595    0.0000 H   0  0  0  0  0  0  0  0  0  0  0  0
    1.9389    0.9097    0.0000 H   0  0  0  0  0  0  0  0  0  0  0  0
    1.9389   -0.9435    0.0000 H   0  0  0  0  0  0  0  0  0  0  0  0
    1.4039   -0.0169    0.0000 H   0  0  0  0  0  0  0  0  0  0  0  0
    4.7895    2.8406    0.0000 H   0  0  0  0  0  0  0  0  0  0  0  0
    5.1165    2.1241    0.0000 H   0  0  0  0  0  0  0  0  0  0  0  0
    7.5467    3.0506    0.0000 H   0  0  0  0  0  0  0  0  0  0  0  0
    8.0815    2.1237    0.0000 H   0  0  0  0  0  0  0  0  0  0  0  0
    7.9578    0.4812    0.0000 H   0  0  0  0  0  0  0  0  0  0  0  0
    5.9415    0.7015    0.0000 H   0  0  0  0  0  0  0  0  0  0  0  0
    7.5439   -0.2296    0.0000 H   0  0  0  0  0  0  0  0  0  0  0  0
    6.4739   -0.2267    0.0000 H   0  0  0  0  0  0  0  0  0  0  0  0
    8.7841    0.4820    0.0000 H   0  0  0  0  0  0  0  0  0  0  0  0
    8.7841    2.3352    0.0000 H   0  0  0  0  0  0  0  0  0  0  0  0
    9.3191    1.4086    0.0000 H   0  0  0  0  0  0  0  0  0  0  0  0
    4.4568    3.4138    0.0000 H   0  0  0  0  0  0  0  0  0  0  0  0
    5.2390    3.3398    0.0000 H   0  0  0  0  0  0  0  0  0  0  0  0
    5.6515    5.9075    0.0000 H   0  0  0  0  0  0  0  0  0  0  0  0
    6.7215    5.9074    0.0000 H   0  0  0  0  0  0  0  0  0  0  0  0
    8.0815    4.9809    0.0000 H   0  0  0  0  0  0  0  0  0  0  0  0
    6.8892    3.3397    0.0000 H   0  0  0  0  0  0  0  0  0  0  0  0
    8.4941    4.2666    0.0000 H   0  0  0  0  0  0  0  0  0  0  0  0
    7.9592    3.3398    0.0000 H   0  0  0  0  0  0  0  0  0  0  0  0
    8.4941    5.6954    0.0000 H   0  0  0  0  0  0  0  0  0  0  0  0
    6.8891    6.6221    0.0000 H   0  0  0  0  0  0  0  0  0  0  0  0
    7.9591    6.6220    0.0000 H   0  0  0  0  0  0  0  0  0  0  0  0
    3.7912    3.4138    0.0000 H   0  0  0  0  0  0  0  0  0  0  0  0
    4.2465    4.0541    0.0000 H   0  0  0  0  0  0  0  0  0  0  0  0
    2.2290    5.6955    0.0000 H   0  0  0  0  0  0  0  0  0  0  0  0
    2.7640    6.6221    0.0000 H   0  0  0  0  0  0  0  0  0  0  0  0
    4.2465    7.3364    0.0000 H   0  0  0  0  0  0  0  0  0  0  0  0
    3.8340    8.0509    0.0000 H   0  0  0  0  0  0  0  0  0  0  0  0
    2.2290    7.1243    0.0000 H   0  0  0  0  0  0  0  0  0  0  0  0
    2.7640    8.0510    0.0000 H   0  0  0  0  0  0  0  0  0  0  0  0
    5.0715    5.4832    0.0000 H   0  0  0  0  0  0  0  0  0  0  0  0
    5.0715    7.3364    0.0000 H   0  0  0  0  0  0  0  0  0  0  0  0
    5.6065    6.4098    0.0000 H   0  0  0  0  0  0  0  0  0  0  0  0
    0.7504    2.4147    0.0000 H   0  0  0  0  0  0  0  0  0  0  0  0
    1.4477    4.4284    0.0000 H   0  0  0  0  0  0  0  0  0  0  0  0
    1.9707    1.5503    0.0000 H   0  0  0  0  0  0  0  0  0  0  0  0
    3.0569    1.4936    0.0000 H   0  0  0  0  0  0  0  0  0  0  0  0
    3.8992    1.4834    0.0000 H   0  0  0  0  0  0  0  0  0  0  0  0
    4.4564    2.3966    0.0000 H   0  0  0  0  0  0  0  0  0  0  0  0
    3.3054    4.0651    0.0000 H   0  0  0  0  0  0  0  0  0  0  0  0
    4.3761    4.0355    0.0000 H   0  0  0  0  0  0  0  0  0  0  0  0
    5.1966    4.0139    0.0000 H   0  0  0  0  0  0  0  0  0  0  0  0
    5.7097    3.0780    0.0000 H   0  0  0  0  0  0  0  0  0  0  0  0
    4.5107    1.5103    0.0000 H   0  0  0  0  0  0  0  0  0  0  0  0
    6.0561    2.3663    0.0000 H   0  0  0  0  0  0  0  0  0  0  0  0
    1.7507    4.8003    0.0000 H   0  0  0  0  0  0  0  0  0  0  0  0
    1.1102    4.3451    0.0000 H   0  0  0  0  0  0  0  0  0  0  0  0
   -0.5308    6.3626    0.0000 H   0  0  0  0  0  0  0  0  0  0  0  0
   -1.4574    5.8276    0.0000 H   0  0  0  0  0  0  0  0  0  0  0  0
   -2.1720    4.3451    0.0000 H   0  0  0  0  0  0  0  0  0  0  0  0
   -1.9597    6.3626    0.0000 H   0  0  0  0  0  0  0  0  0  0  0  0
   -2.8864    4.7576    0.0000 H   0  0  0  0  0  0  0  0  0  0  0  0
   -2.8863    5.8276    0.0000 H   0  0  0  0  0  0  0  0  0  0  0  0
   -2.1719    3.5200    0.0000 H   0  0  0  0  0  0  0  0  0  0  0  0
   -0.3187    3.5200    0.0000 H   0  0  0  0  0  0  0  0  0  0  0  0
   -1.2453    2.9850    0.0000 H   0  0  0  0  0  0  0  0  0  0  0  0
   -0.5308    5.1331    0.0000 H   0  0  0  0  0  0  0  0  0  0  0  0
    0.1836    5.4601    0.0000 H   0  0  0  0  0  0  0  0  0  0  0  0
   -0.7430    7.8901    0.0000 H   0  0  0  0  0  0  0  0  0  0  0  0
    0.1836    8.4251    0.0000 H   0  0  0  0  0  0  0  0  0  0  0  0
    1.8247    8.3026    0.0000 H   0  0  0  0  0  0  0  0  0  0  0  0
    1.6126    6.2851    0.0000 H   0  0  0  0  0  0  0  0  0  0  0  0
    2.5392    7.8901    0.0000 H   0  0  0  0  0  0  0  0  0  0  0  0
    2.5393    6.8201    0.0000 H   0  0  0  0  0  0  0  0  0  0  0  0
    1.8247    9.1276    0.0000 H   0  0  0  0  0  0  0  0  0  0  0  0
   -0.0285    9.1276    0.0000 H   0  0  0  0  0  0  0  0  0  0  0  0
    0.8981    9.6626    0.0000 H   0  0  0  0  0  0  0  0  0  0  0  0
    0.4939    7.3771    0.0000 H   0  0  0  0  0  0  0  0  0  0  0  0
   -0.3185    6.8203    0.0000 H   0  0  0  0  0  0  0  0  0  0  0  0
   -2.8864    7.2326    0.0000 H   0  0  0  0  0  0  0  0  0  0  0  0
   -2.8863    8.3026    0.0000 H   0  0  0  0  0  0  0  0  0  0  0  0
   -1.9598    9.6626    0.0000 H   0  0  0  0  0  0  0  0  0  0  0  0
   -2.6743   10.0752    0.0000 H   0  0  0  0  0  0  0  0  0  0  0  0
   -3.6010    8.4702    0.0000 H   0  0  0  0  0  0  0  0  0  0  0  0
   -3.6009    9.5402    0.0000 H   0  0  0  0  0  0  0  0  0  0  0  0
   -0.3186    8.4703    0.0000 H   0  0  0  0  0  0  0  0  0  0  0  0
   -1.2455   10.0752    0.0000 H   0  0  0  0  0  0  0  0  0  0  0  0
   -0.3187    9.5403    0.0000 H   0  0  0  0  0  0  0  0  0  0  0  0
   -1.8994    8.6450    0.0000 H   0  0  0  0  0  0  0  0  0  0  0  0
   -1.0855    9.0297    0.0000 H   0  0  0  0  0  0  0  0  0  0  0  0
   -2.0145   11.4632    0.0000 H   0  0  0  0  0  0  0  0  0  0  0  0
   -1.0879   11.9991    0.0000 H   0  0  0  0  0  0  0  0  0  0  0  0
    0.5554   11.8740    0.0000 H   0  0  0  0  0  0  0  0  0  0  0  0
    0.3355    9.8538    0.0000 H   0  0  0  0  0  0  0  0  0  0  0  0
    1.2713   11.4535    0.0000 H   0  0  0  0  0  0  0  0  0  0  0  0
    1.2652   10.3835    0.0000 H   0  0  0  0  0  0  0  0  0  0  0  0
   -4.2407   11.0620    0.0000 H   0  0  0  0  0  0  0  0  0  0  0  0
   -5.1240    9.5320    0.0000 H   0  0  0  0  0  0  0  0  0  0  0  0
   -3.5265   10.6995    0.0000 H   0  0  0  0  0  0  0  0  0  0  0  0
   -2.5996    8.2694    0.0000 H   0  0  0  0  0  0  0  0  0  0  0  0
   -3.5262    7.7344    0.0000 H   0  0  0  0  0  0  0  0  0  0  0  0
   -4.2407    7.3219    0.0000 H   0  0  0  0  0  0  0  0  0  0  0  0
   -5.1673    7.8569    0.0000 H   0  0  0  0  0  0  0  0  0  0  0  0
   -4.9552    9.8744    0.0000 H   0  0  0  0  0  0  0  0  0  0  0  0
   -5.8818    9.3394    0.0000 H   0  0  0  0  0  0  0  0  0  0  0  0
   -5.6697    7.3219    0.0000 H   0  0  0  0  0  0  0  0  0  0  0  0
   -6.5963    7.8569    0.0000 H   0  0  0  0  0  0  0  0  0  0  0  0
   -6.3842    9.8244    0.0000 H   0  0  0  0  0  0  0  0  0  0  0  0
   -7.2675    8.2944    0.0000 H   0  0  0  0  0  0  0  0  0  0  0  0
    0.5540   12.7016    0.0000 H   0  0  0  0  0  0  0  0  0  0  0  0
   -1.2993   12.7018    0.0000 H   0  0  0  0  0  0  0  0  0  0  0  0
   -0.3726   13.2367    0.0000 H   0  0  0  0  0  0  0  0  0  0  0  0
  1  3  1  0  0  0  0
  1  9  2  0  0  0  0
  1 10  1  0  0  0  0
  2 11  1  0  0  0  0
  2175  1  0  0  0  0
  3  2  1  0  0  0  0
  3  4  1  0  0  0  0
  3176  1  1  0  0  0
  4  5  1  0  0  0  0
  4177  1  0  0  0  0
  4178  1  0  0  0  0
  5  6  1  0  0  0  0
  5179  1  0  0  0  0
  5180  1  0  0  0  0
  6  7  1  0  0  0  0
  6181  1  0  0  0  0
  6182  1  0  0  0  0
  7  8  1  0  0  0  0
  7183  1  0  0  0  0
  7184  1  0  0  0  0
  8185  1  0  0  0  0
  8186  1  0  0  0  0
 10187  1  0  0  0  0
 11 13  1  0  0  0  0
 11 18  2  0  0  0  0
 12 19  1  0  0  0  0
 12188  1  0  0  0  0
 13 12  1  0  0  0  0
 13 14  1  0  0  0  0
 13189  1  1  0  0  0
 14 15  1  0  0  0  0
 14190  1  0  0  0  0
 14191  1  0  0  0  0
 15 16  1  0  0  0  0
 15 17  1  0  0  0  0
 15192  1  0  0  0  0
 16193  1  0  0  0  0
 16194  1  0  0  0  0
 16195  1  0  0  0  0
 17196  1  0  0  0  0
 17197  1  0  0  0  0
 17198  1  0  0  0  0
 19 21  1  0  0  0  0
 19 26  2  0  0  0  0
 20 27  1  0  0  0  0
 20199  1  0  0  0  0
 21 20  1  0  0  0  0
 21 22  1  0  0  0  0
 21200  1  6  0  0  0
 22 23  1  0  0  0  0
 22201  1  0  0  0  0
 22202  1  0  0  0  0
 23 24  1  0  0  0  0
 23 25  1  0  0  0  0
 23203  1  0  0  0  0
 24204  1  0  0  0  0
 24205  1  0  0  0  0
 24206  1  0  0  0  0
 25207  1  0  0  0  0
 25208  1  0  0  0  0
 25209  1  0  0  0  0
 27 29  1  0  0  0  0
 27 34  2  0  0  0  0
 28 35  1  0  0  0  0
 28210  1  0  0  0  0
 29 28  1  0  0  0  0
 29 30  1  0  0  0  0
 29211  1  1  0  0  0
 30 31  1  0  0  0  0
 30212  1  0  0  0  0
 30213  1  0  0  0  0
 31 32  1  0  0  0  0
 31 33  1  0  0  0  0
 31214  1  0  0  0  0
 32215  1  0  0  0  0
 32216  1  0  0  0  0
 32217  1  0  0  0  0
 33218  1  0  0  0  0
 33219  1  0  0  0  0
 33220  1  0  0  0  0
 35 37  1  0  0  0  0
 35 42  2  0  0  0  0
 36 43  1  0  0  0  0
 36221  1  0  0  0  0
 37 36  1  0  0  0  0
 37 38  1  0  0  0  0
 37222  1  6  0  0  0
 38 39  1  0  0  0  0
 38223  1  0  0  0  0
 38224  1  0  0  0  0
 39 40  1  0  0  0  0
 39 41  1  0  0  0  0
 39225  1  0  0  0  0
 40226  1  0  0  0  0
 40227  1  0  0  0  0
 40228  1  0  0  0  0
 41229  1  0  0  0  0
 41230  1  0  0  0  0
 41231  1  0  0  0  0
 43 45  1  0  0  0  0
 43 51  2  0  0  0  0
 44 52  1  0  0  0  0
 44232  1  0  0  0  0
 45 44  1  0  0  0  0
 45 46  1  0  0  0  0
 45233  1  1  0  0  0
 46 47  1  0  0  0  0
 46234  1  0  0  0  0
 46235  1  0  0  0  0
 47 48  1  0  0  0  0
 47236  1  0  0  0  0
 47237  1  0  0  0  0
 48 49  1  0  0  0  0
 48238  1  0  0  0  0
 48239  1  0  0  0  0
 49 50  1  0  0  0  0
 49240  1  0  0  0  0
 49241  1  0  0  0  0
 50242  1  0  0  0  0
 50243  1  0  0  0  0
 52 54  1  0  0  0  0
 52 59  2  0  0  0  0
 53 60  1  0  0  0  0
 53244  1  0  0  0  0
 54 53  1  0  0  0  0
 54 55  1  0  0  0  0
 54245  1  1  0  0  0
 55 56  1  0  0  0  0
 55246  1  0  0  0  0
 55247  1  0  0  0  0
 56 57  1  0  0  0  0
 56 58  1  0  0  0  0
 56248  1  0  0  0  0
 57249  1  0  0  0  0
 57250  1  0  0  0  0
 57251  1  0  0  0  0
 58252  1  0  0  0  0
 58253  1  0  0  0  0
 58254  1  0  0  0  0
 60 62  1  0  0  0  0
 60 67  2  0  0  0  0
 61 68  1  0  0  0  0
 61255  1  0  0  0  0
 62 61  1  0  0  0  0
 62 63  1  0  0  0  0
 62256  1  6  0  0  0
 63 64  1  0  0  0  0
 63257  1  0  0  0  0
 63258  1  0  0  0  0
 64 65  1  0  0  0  0
 64 66  1  0  0  0  0
 64259  1  0  0  0  0
 65260  1  0  0  0  0
 65261  1  0  0  0  0
 65262  1  0  0  0  0
 66263  1  0  0  0  0
 66264  1  0  0  0  0
 66265  1  0  0  0  0
 68 70  1  0  0  0  0
 68 75  2  0  0  0  0
 69 76  1  0  0  0  0
 69266  1  0  0  0  0
 70 69  1  0  0  0  0
 70 71  1  0  0  0  0
 70267  1  1  0  0  0
 71 72  1  0  0  0  0
 71268  1  0  0  0  0
 71269  1  0  0  0  0
 72 73  1  0  0  0  0
 72 74  1  0  0  0  0
 72270  1  0  0  0  0
 73271  1  0  0  0  0
 73272  1  0  0  0  0
 73273  1  0  0  0  0
 74274  1  0  0  0  0
 74275  1  0  0  0  0
 74276  1  0  0  0  0
 76 78  1  0  0  0  0
 76 83  2  0  0  0  0
 77 84  1  0  0  0  0
 77277  1  0  0  0  0
 78 77  1  0  0  0  0
 78 79  1  0  0  0  0
 78278  1  6  0  0  0
 79 80  1  0  0  0  0
 79279  1  0  0  0  0
 79280  1  0  0  0  0
 80 81  1  0  0  0  0
 80 82  1  0  0  0  0
 80281  1  0  0  0  0
 81282  1  0  0  0  0
 81283  1  0  0  0  0
 81284  1  0  0  0  0
 82285  1  0  0  0  0
 82286  1  0  0  0  0
 82287  1  0  0  0  0
 84 86  1  0  0  0  0
 84 92  2  0  0  0  0
 85 93  1  0  0  0  0
 85288  1  0  0  0  0
 86 85  1  0  0  0  0
 86 87  1  0  0  0  0
 86289  1  6  0  0  0
 87 88  1  0  0  0  0
 87290  1  0  0  0  0
 87291  1  0  0  0  0
 88 89  1  0  0  0  0
 88292  1  0  0  0  0
 88293  1  0  0  0  0
 89 90  1  0  0  0  0
 89294  1  0  0  0  0
 89295  1  0  0  0  0
 90 91  1  0  0  0  0
 90296  1  0  0  0  0
 90297  1  0  0  0  0
 91298  1  0  0  0  0
 91299  1  0  0  0  0
 93 95  1  0  0  0  0
 93100  2  0  0  0  0
 94101  1  0  0  0  0
 94300  1  0  0  0  0
 95 94  1  0  0  0  0
 95 96  1  0  0  0  0
 95301  1  1  0  0  0
 96 97  1  0  0  0  0
 96302  1  0  0  0  0
 96303  1  0  0  0  0
 97 98  1  0  0  0  0
 97 99  1  0  0  0  0
 97304  1  0  0  0  0
 98305  1  0  0  0  0
 98306  1  0  0  0  0
 98307  1  0  0  0  0
 99308  1  0  0  0  0
 99309  1  0  0  0  0
 99310  1  0  0  0  0
101103  1  0  0  0  0
101108  2  0  0  0  0
102109  1  0  0  0  0
102311  1  0  0  0  0
103102  1  0  0  0  0
103104  1  0  0  0  0
103312  1  6  0  0  0
104105  1  0  0  0  0
104313  1  0  0  0  0
104314  1  0  0  0  0
105106  1  0  0  0  0
105107  1  0  0  0  0
105315  1  0  0  0  0
106316  1  0  0  0  0
106317  1  0  0  0  0
106318  1  0  0  0  0
107319  1  0  0  0  0
107320  1  0  0  0  0
107321  1  0  0  0  0
109111  1  0  0  0  0
109116  2  0  0  0  0
110117  1  0  0  0  0
110322  1  0  0  0  0
111110  1  0  0  0  0
111112  1  0  0  0  0
111323  1  6  0  0  0
112113  1  0  0  0  0
112324  1  0  0  0  0
112325  1  0  0  0  0
113114  1  0  0  0  0
113115  1  0  0  0  0
113326  1  0  0  0  0
114327  1  0  0  0  0
114328  1  0  0  0  0
114329  1  0  0  0  0
115330  1  0  0  0  0
115331  1  0  0  0  0
115332  1  0  0  0  0
117119  1  0  0  0  0
117124  2  0  0  0  0
118125  1  0  0  0  0
118333  1  0  0  0  0
119118  1  0  0  0  0
119120  1  0  0  0  0
119334  1  6  0  0  0
120121  1  0  0  0  0
120335  1  0  0  0  0
120336  1  0  0  0  0
121122  1  0  0  0  0
121123  1  0  0  0  0
121337  1  0  0  0  0
122338  1  0  0  0  0
122339  1  0  0  0  0
122340  1  0  0  0  0
123341  1  0  0  0  0
123342  1  0  0  0  0
123343  1  0  0  0  0
125127  1  0  0  0  0
125133  2  0  0  0  0
126134  1  0  0  0  0
126344  1  0  0  0  0
127126  1  0  0  0  0
127128  1  0  0  0  0
127345  1  1  0  0  0
128129  1  0  0  0  0
128346  1  0  0  0  0
128347  1  0  0  0  0
129130  1  0  0  0  0
129348  1  0  0  0  0
129349  1  0  0  0  0
130131  1  0  0  0  0
130350  1  0  0  0  0
130351  1  0  0  0  0
131132  1  0  0  0  0
131352  1  0  0  0  0
131353  1  0  0  0  0
132354  1  0  0  0  0
132355  1  0  0  0  0
134136  1  0  0  0  0
134141  2  0  0  0  0
135142  1  0  0  0  0
135356  1  0  0  0  0
136135  1  0  0  0  0
136137  1  0  0  0  0
136357  1  1  0  0  0
137138  1  0  0  0  0
137358  1  0  0  0  0
137359  1  0  0  0  0
138139  1  0  0  0  0
138140  1  0  0  0  0
138360  1  0  0  0  0
139361  1  0  0  0  0
139362  1  0  0  0  0
139363  1  0  0  0  0
140364  1  0  0  0  0
140365  1  0  0  0  0
140366  1  0  0  0  0
142144  1  0  0  0  0
142149  2  0  0  0  0
143150  1  0  0  0  0
143367  1  0  0  0  0
144143  1  0  0  0  0
144145  1  0  0  0  0
144368  1  6  0  0  0
145146  1  0  0  0  0
145369  1  0  0  0  0
145370  1  0  0  0  0
146147  1  0  0  0  0
146148  1  0  0  0  0
146371  1  0  0  0  0
147372  1  0  0  0  0
147373  1  0  0  0  0
147374  1  0  0  0  0
148375  1  0  0  0  0
148376  1  0  0  0  0
148377  1  0  0  0  0
150152  1  0  0  0  0
150157  2  0  0  0  0
151158  1  0  0  0  0
151378  1  0  0  0  0
152151  1  0  0  0  0
152153  1  0  0  0  0
152379  1  1  0  0  0
153154  1  0  0  0  0
153380  1  0  0  0  0
153381  1  0  0  0  0
154155  1  0  0  0  0
154156  1  0  0  0  0
154382  1  0  0  0  0
155383  1  0  0  0  0
155384  1  0  0  0  0
155385  1  0  0  0  0
156386  1  0  0  0  0
156387  1  0  0  0  0
156388  1  0  0  0  0
158160  1  0  0  0  0
158164  2  0  0  0  0
159165  1  0  0  0  0
159389  1  0  0  0  0
160159  1  0  0  0  0
160161  1  0  0  0  0
160390  1  6  0  0  0
161162  1  0  0  0  0
161391  1  0  0  0  0
161392  1  0  0  0  0
162163  1  0  0  0  0
162174  1  0  0  0  0
162393  1  0  0  0  0
163394  1  0  0  0  0
163395  1  0  0  0  0
163396  1  0  0  0  0
165167  1  0  0  0  0
165173  2  0  0  0  0
166397  1  0  0  0  0
166398  1  0  0  0  0
167166  1  0  0  0  0
167168  1  0  0  0  0
167399  1  1  0  0  0
168169  1  0  0  0  0
168400  1  0  0  0  0
168401  1  0  0  0  0
169170  1  0  0  0  0
169402  1  0  0  0  0
169403  1  0  0  0  0
170171  1  0  0  0  0
170404  1  0  0  0  0
170405  1  0  0  0  0
171172  1  0  0  0  0
171406  1  0  0  0  0
171407  1  0  0  0  0
172408  1  0  0  0  0
172409  1  0  0  0  0
174410  1  0  0  0  0
174411  1  0  0  0  0
174412  1  0  0  0  0
M  END
>  <DRUGBANK_ID>
DB11332

>  <SECONDARY_ACCESSION_NUMBERS>
DB05534

>  <COMMON_NAME>
Sinapultide

>  <CAS_NUMBER>
138531-07-4

>  <UNII>
040X3AX99T

>  <SYNONYMS>
Sinapultida; Sinapultide; Sinapultidum

$$$$
