
 OpenBabel10282417072D

 73 77  0  0  0  0  0  0  0  0999 V2000
    1.1120   -1.0141    0.0000 C   0  0  2  0  0  0  0  0  0  0  0  0
    1.8265   -1.4266    0.0000 C   0  0  0  0  0  0  0  0  0  0  0  0
    1.8265   -2.2516    0.0000 C   0  0  0  0  0  0  0  0  0  0  0  0
    2.5409   -2.6641    0.0000 C   0  0  0  0  0  0  0  0  0  0  0  0
    2.5409   -3.4891    0.0000 C   0  0  0  0  0  0  0  0  0  0  0  0
    1.8265   -3.9016    0.0000 C   0  0  0  0  0  0  0  0  0  0  0  0
    1.1120   -3.4891    0.0000 C   0  0  0  0  0  0  0  0  0  0  0  0
    1.1120   -2.6641    0.0000 C   0  0  0  0  0  0  0  0  0  0  0  0
    0.4304   -1.4788    0.0000 C   0  0  2  0  0  0  0  0  0  0  0  0
    0.5533   -2.2946    0.0000 O   0  0  0  0  0  0  0  0  0  0  0  0
   -0.3579   -1.2357    0.0000 C   0  0  0  0  0  0  0  0  0  0  0  0
   -0.6593   -0.4677    0.0000 N   0  0  0  0  0  0  0  0  0  0  0  0
   -1.4820   -0.4060    0.0000 S   0  0  0  0  0  0  0  0  0  0  0  0
   -1.4203    0.4166    0.0000 O   0  0  0  0  0  0  0  0  0  0  0  0
   -0.2468    0.2467    0.0000 N   0  0  0  0  0  0  0  0  0  0  0  0
    1.1737   -0.1914    0.0000 N   0  0  0  0  0  0  0  0  0  0  0  0
    0.5689    0.3696    0.0000 C   0  0  0  0  0  0  0  0  0  0  0  0
    0.8121    1.1580    0.0000 O   0  0  0  0  0  0  0  0  0  0  0  0
    1.9416    0.1099    0.0000 C   0  0  0  0  0  0  0  0  0  0  0  0
   -0.7115    0.9283    0.0000 C   0  0  0  0  0  0  0  0  0  0  0  0
   -2.3047   -0.3444    0.0000 C   0  0  0  0  0  0  0  0  0  0  0  0
    3.3546   -0.1030    0.0000 C   0  0  0  0  0  0  0  0  0  0  0  0
    3.9996   -0.6173    0.0000 C   0  0  0  0  0  0  0  0  0  0  0  0
    3.8767   -1.4331    0.0000 C   0  0  0  0  0  0  0  0  0  0  0  0
    3.1087   -1.7345    0.0000 C   0  0  0  0  0  0  0  0  0  0  0  0
    2.4637   -1.2202    0.0000 C   0  0  0  0  0  0  0  0  0  0  0  0
    2.5866   -0.4044    0.0000 C   0  0  0  0  0  0  0  0  0  0  0  0
   -0.8183    2.3533    0.0000 C   0  0  0  0  0  0  0  0  0  0  0  0
   -0.4604    3.0966    0.0000 C   0  0  0  0  0  0  0  0  0  0  0  0
    0.3622    3.1582    0.0000 C   0  0  0  0  0  0  0  0  0  0  0  0
    0.8270    2.4767    0.0000 C   0  0  0  0  0  0  0  0  0  0  0  0
    0.4690    1.7333    0.0000 C   0  0  0  0  0  0  0  0  0  0  0  0
   -0.3536    1.6716    0.0000 C   0  0  0  0  0  0  0  0  0  0  0  0
    4.5217   -1.9475    0.0000 O   0  0  0  0  0  0  0  0  0  0  0  0
    0.7202    3.9016    0.0000 O   0  0  0  0  0  0  0  0  0  0  0  0
   -2.7694   -1.0260    0.0000 C   0  0  0  0  0  0  0  0  0  0  0  0
   -2.6626    0.3988    0.0000 C   0  0  0  0  0  0  0  0  0  0  0  0
   -1.5436   -1.2287    0.0000 O   0  0  0  0  0  0  0  0  0  0  0  0
   -3.5921   -0.9644    0.0000 C   0  0  0  0  0  0  0  0  0  0  0  0
   -3.4854    0.4605    0.0000 C   0  0  0  0  0  0  0  0  0  0  0  0
   -3.9501   -0.2211    0.0000 C   0  0  0  0  0  0  0  0  0  0  0  0
   -4.0569   -1.6460    0.0000 C   0  0  0  0  0  0  0  0  0  0  0  0
   -4.5216   -2.3277    0.0000 N   0  0  0  0  0  0  0  0  0  0  0  0
    1.1520   -2.0834    0.0000 H   0  0  0  0  0  0  0  0  0  0  0  0
    2.7531   -0.8916    0.0000 H   0  0  0  0  0  0  0  0  0  0  0  0
    2.7531   -1.9616    0.0000 H   0  0  0  0  0  0  0  0  0  0  0  0
    3.4346   -2.1481    0.0000 H   0  0  0  0  0  0  0  0  0  0  0  0
    3.4346   -4.0051    0.0000 H   0  0  0  0  0  0  0  0  0  0  0  0
    1.8265   -4.9336    0.0000 H   0  0  0  0  0  0  0  0  0  0  0  0
    0.2183   -4.0051    0.0000 H   0  0  0  0  0  0  0  0  0  0  0  0
    0.2183   -2.1481    0.0000 H   0  0  0  0  0  0  0  0  0  0  0  0
    1.4111   -1.9067    0.0000 H   0  0  0  0  0  0  0  0  0  0  0  0
   -0.2051   -2.8993    0.0000 H   0  0  0  0  0  0  0  0  0  0  0  0
   -1.0857   -2.0201    0.0000 H   0  0  0  0  0  0  0  0  0  0  0  0
   -1.4092   -1.0368    0.0000 H   0  0  0  0  0  0  0  0  0  0  0  0
    2.1011    1.1679    0.0000 H   0  0  0  0  0  0  0  0  0  0  0  0
    2.9376    0.5008    0.0000 H   0  0  0  0  0  0  0  0  0  0  0  0
   -1.7785    0.8483    0.0000 H   0  0  0  0  0  0  0  0  0  0  0  0
   -1.3143    1.8123    0.0000 H   0  0  0  0  0  0  0  0  0  0  0  0
    3.5084    0.9175    0.0000 H   0  0  0  0  0  0  0  0  0  0  0  0
    4.9602   -0.2402    0.0000 H   0  0  0  0  0  0  0  0  0  0  0  0
    2.9549   -2.7550    0.0000 H   0  0  0  0  0  0  0  0  0  0  0  0
    1.5031   -1.5973    0.0000 H   0  0  0  0  0  0  0  0  0  0  0  0
   -1.8474    2.2762    0.0000 H   0  0  0  0  0  0  0  0  0  0  0  0
   -1.0417    3.9493    0.0000 H   0  0  0  0  0  0  0  0  0  0  0  0
    1.8561    2.5539    0.0000 H   0  0  0  0  0  0  0  0  0  0  0  0
    1.0504    0.8806    0.0000 H   0  0  0  0  0  0  0  0  0  0  0  0
    4.3820   -2.8740    0.0000 H   0  0  0  0  0  0  0  0  0  0  0  0
    1.6546    3.9716    0.0000 H   0  0  0  0  0  0  0  0  0  0  0  0
   -2.3216   -1.9558    0.0000 H   0  0  0  0  0  0  0  0  0  0  0  0
   -2.0812    1.2515    0.0000 H   0  0  0  0  0  0  0  0  0  0  0  0
   -3.9331    1.3903    0.0000 H   0  0  0  0  0  0  0  0  0  0  0  0
   -4.9792   -0.1440    0.0000 H   0  0  0  0  0  0  0  0  0  0  0  0
  1  2  1  0  0  0  0
  1  9  1  0  0  0  0
  1 16  1  0  0  0  0
  1 44  1  1  0  0  0
  2  3  1  0  0  0  0
  2 45  1  0  0  0  0
  2 46  1  0  0  0  0
  3  4  2  0  0  0  0
  3  8  1  0  0  0  0
  4  5  1  0  0  0  0
  4 47  1  0  0  0  0
  5  6  2  0  0  0  0
  5 48  1  0  0  0  0
  6  7  1  0  0  0  0
  6 49  1  0  0  0  0
  7  8  2  0  0  0  0
  7 50  1  0  0  0  0
  8 51  1  0  0  0  0
  9 10  1  0  0  0  0
  9 52  1  1  0  0  0
 10 53  1  0  0  0  0
 11  9  1  0  0  0  0
 11 12  1  0  0  0  0
 11 54  1  0  0  0  0
 11 55  1  0  0  0  0
 12 13  1  0  0  0  0
 12 15  1  0  0  0  0
 14 13  2  0  0  0  0
 17 15  1  0  0  0  0
 17 16  1  0  0  0  0
 17 18  2  0  0  0  0
 19 16  1  0  0  0  0
 19 27  1  0  0  0  0
 19 56  1  0  0  0  0
 19 57  1  0  0  0  0
 20 15  1  0  0  0  0
 20 33  1  0  0  0  0
 20 58  1  0  0  0  0
 20 59  1  0  0  0  0
 21 13  1  0  0  0  0
 21 36  2  0  0  0  0
 21 37  1  0  0  0  0
 22 23  2  0  0  0  0
 22 27  1  0  0  0  0
 22 60  1  0  0  0  0
 23 24  1  0  0  0  0
 23 61  1  0  0  0  0
 24 25  2  0  0  0  0
 24 34  1  0  0  0  0
 25 26  1  0  0  0  0
 25 62  1  0  0  0  0
 26 27  2  0  0  0  0
 26 63  1  0  0  0  0
 28 29  2  0  0  0  0
 28 33  1  0  0  0  0
 28 64  1  0  0  0  0
 29 30  1  0  0  0  0
 29 65  1  0  0  0  0
 30 31  2  0  0  0  0
 30 35  1  0  0  0  0
 31 32  1  0  0  0  0
 31 66  1  0  0  0  0
 32 33  2  0  0  0  0
 32 67  1  0  0  0  0
 34 68  1  0  0  0  0
 35 69  1  0  0  0  0
 36 39  1  0  0  0  0
 36 70  1  0  0  0  0
 37 40  2  0  0  0  0
 37 71  1  0  0  0  0
 38 13  2  0  0  0  0
 40 72  1  0  0  0  0
 41 39  2  0  0  0  0
 41 40  1  0  0  0  0
 41 73  1  0  0  0  0
 42 39  1  0  0  0  0
 42 43  3  0  0  0  0
M  END
>  <DRUGBANK_ID>
DB03141

>  <SECONDARY_ACCESSION_NUMBERS>
EXPT00690

>  <COMMON_NAME>
3-{[(5R,6R)-5-Benzyl-6-hydroxy-2,4-bis(4-hydroxybenzyl)-3-oxo-1,2,4-triazepan-1-yl]sulfonyl}benzonitril

$$$$
