
 OpenBabel10282417072D

 53 55  0  0  0  0  0  0  0  0999 V2000
    4.8574    0.8485    0.0000 O   0  0  0  0  0  0  0  0  0  0  0  0
    5.2699    0.1341    0.0000 C   0  0  0  0  0  0  0  0  0  0  0  0
    6.0949    0.1341    0.0000 C   0  0  0  0  0  0  0  0  0  0  0  0
    6.5074   -0.5804    0.0000 N   0  0  0  0  0  0  0  0  0  0  0  0
    7.3324   -0.5804    0.0000 C   0  0  0  0  0  0  0  0  0  0  0  0
    7.7449    0.1341    0.0000 C   0  0  0  0  0  0  0  0  0  0  0  0
    8.5699    0.1341    0.0000 C   0  0  0  0  0  0  0  0  0  0  0  0
    9.0548    0.8015    0.0000 C   0  0  0  0  0  0  0  0  0  0  0  0
    9.8395    0.5466    0.0000 N   0  0  0  0  0  0  0  0  0  0  0  0
    9.8395   -0.2784    0.0000 C   0  0  0  0  0  0  0  0  0  0  0  0
   10.4526   -0.8305    0.0000 C   0  0  0  0  0  0  0  0  0  0  0  0
   10.2810   -1.6374    0.0000 C   0  0  0  0  0  0  0  0  0  0  0  0
    9.4964   -1.8924    0.0000 C   0  0  0  0  0  0  0  0  0  0  0  0
    8.8833   -1.3403    0.0000 C   0  0  0  0  0  0  0  0  0  0  0  0
    9.0548   -0.5334    0.0000 C   0  0  0  0  0  0  0  0  0  0  0  0
    6.0949   -1.2949    0.0000 C   0  0  0  0  0  0  0  0  0  0  0  0
    5.2699   -1.2949    0.0000 C   0  0  0  0  0  0  0  0  0  0  0  0
    4.8574   -2.0093    0.0000 C   0  0  0  0  0  0  0  0  0  0  0  0
    4.0324   -2.0093    0.0000 C   0  0  0  0  0  0  0  0  0  0  0  0
    3.6199   -1.2949    0.0000 C   0  0  0  0  0  0  0  0  0  0  0  0
    2.7949   -1.2949    0.0000 C   0  0  0  0  0  0  0  0  0  0  0  0
    2.3824   -0.5804    0.0000 C   0  0  0  0  0  0  0  0  0  0  0  0
    1.5574   -0.5804    0.0000 C   0  0  0  0  0  0  0  0  0  0  0  0
    1.1449   -1.2949    0.0000 O   0  0  0  0  0  0  0  0  0  0  0  0
    1.1449    0.1341    0.0000 N   0  0  0  0  0  0  0  0  0  0  0  0
    0.3199    0.1341    0.0000 O   0  0  0  0  0  0  0  0  0  0  0  0
    4.0324   -0.5804    0.0000 C   0  0  0  0  0  0  0  0  0  0  0  0
    4.8574   -0.5804    0.0000 C   0  0  0  0  0  0  0  0  0  0  0  0
    5.3424    1.6886    0.0000 H   0  0  0  0  0  0  0  0  0  0  0  0
    4.7349   -0.7926    0.0000 H   0  0  0  0  0  0  0  0  0  0  0  0
    5.8049   -0.7925    0.0000 H   0  0  0  0  0  0  0  0  0  0  0  0
    6.6299    1.0607    0.0000 H   0  0  0  0  0  0  0  0  0  0  0  0
    7.1649    0.1341    0.0000 H   0  0  0  0  0  0  0  0  0  0  0  0
    7.8674   -1.5070    0.0000 H   0  0  0  0  0  0  0  0  0  0  0  0
    8.4024   -0.5804    0.0000 H   0  0  0  0  0  0  0  0  0  0  0  0
    7.2099    1.0607    0.0000 H   0  0  0  0  0  0  0  0  0  0  0  0
    8.2799    1.0607    0.0000 H   0  0  0  0  0  0  0  0  0  0  0  0
    8.7359    1.7830    0.0000 H   0  0  0  0  0  0  0  0  0  0  0  0
   10.6360    1.1253    0.0000 H   0  0  0  0  0  0  0  0  0  0  0  0
   11.4341   -0.5117    0.0000 H   0  0  0  0  0  0  0  0  0  0  0  0
   11.0479   -2.3280    0.0000 H   0  0  0  0  0  0  0  0  0  0  0  0
    9.2818   -2.9019    0.0000 H   0  0  0  0  0  0  0  0  0  0  0  0
    7.9018   -1.6592    0.0000 H   0  0  0  0  0  0  0  0  0  0  0  0
    6.6299   -2.2215    0.0000 H   0  0  0  0  0  0  0  0  0  0  0  0
    5.5599   -2.2215    0.0000 H   0  0  0  0  0  0  0  0  0  0  0  0
    5.3734   -2.9030    0.0000 H   0  0  0  0  0  0  0  0  0  0  0  0
    3.5164   -2.9030    0.0000 H   0  0  0  0  0  0  0  0  0  0  0  0
    2.2789   -2.1886    0.0000 H   0  0  0  0  0  0  0  0  0  0  0  0
    2.8984    0.3133    0.0000 H   0  0  0  0  0  0  0  0  0  0  0  0
    1.6372    0.9867    0.0000 H   0  0  0  0  0  0  0  0  0  0  0  0
   -0.1651    0.9741    0.0000 H   0  0  0  0  0  0  0  0  0  0  0  0
    3.5164    0.3133    0.0000 H   0  0  0  0  0  0  0  0  0  0  0  0
    5.3734    0.3133    0.0000 H   0  0  0  0  0  0  0  0  0  0  0  0
  1  2  1  0  0  0  0
  1 29  1  0  0  0  0
  2  3  1  0  0  0  0
  2 30  1  0  0  0  0
  2 31  1  0  0  0  0
  3  4  1  0  0  0  0
  3 32  1  0  0  0  0
  3 33  1  0  0  0  0
  4  5  1  0  0  0  0
  4 16  1  0  0  0  0
  5  6  1  0  0  0  0
  5 34  1  0  0  0  0
  5 35  1  0  0  0  0
  6  7  1  0  0  0  0
  6 36  1  0  0  0  0
  6 37  1  0  0  0  0
  7  8  2  0  0  0  0
  7 15  1  0  0  0  0
  8  9  1  0  0  0  0
  8 38  1  0  0  0  0
  9 10  1  0  0  0  0
  9 39  1  0  0  0  0
 10 11  2  0  0  0  0
 10 15  1  0  0  0  0
 11 12  1  0  0  0  0
 11 40  1  0  0  0  0
 12 13  2  0  0  0  0
 12 41  1  0  0  0  0
 13 14  1  0  0  0  0
 13 42  1  0  0  0  0
 14 15  2  0  0  0  0
 14 43  1  0  0  0  0
 16 17  1  0  0  0  0
 16 44  1  0  0  0  0
 16 45  1  0  0  0  0
 17 18  2  0  0  0  0
 17 28  1  0  0  0  0
 18 19  1  0  0  0  0
 18 46  1  0  0  0  0
 19 20  2  0  0  0  0
 19 47  1  0  0  0  0
 20 21  1  0  0  0  0
 20 27  1  0  0  0  0
 21 22  2  0  0  0  0
 21 48  1  0  0  0  0
 22 23  1  0  0  0  0
 22 49  1  0  0  0  0
 23 24  2  0  0  0  0
 23 25  1  0  0  0  0
 25 26  1  0  0  0  0
 25 50  1  0  0  0  0
 26 51  1  0  0  0  0
 27 28  2  0  0  0  0
 27 52  1  0  0  0  0
 28 53  1  0  0  0  0
M  END
>  <DRUGBANK_ID>
DB17034

>  <COMMON_NAME>
Dacinostat

>  <CAS_NUMBER>
404951-53-7

>  <UNII>
V10P524501

>  <SYNONYMS>
(2e)-n-hydroxy-3-(4-(((2-hydroxyethyl)(2-(1h-indol-3-yl)ethyl)amino)methyl)phenyl)propenamide

$$$$
