
 OpenBabel10282417072D

 41 35  0  0  0  0  0  0  0  0999 V2000
    2.5864    4.8919    0.0000 Pt  0  0  0  0  0  0  0  0  0  0  0  0
    2.1739    5.6063    0.0000 Cl  0  5  0  0  0  0  0  0  0  0  0  0
    2.9989    4.1774    0.0000 Cl  0  5  0  0  0  0  0  0  0  0  0  0
    3.3009    5.3044    0.0000 O   0  5  0  0  0  0  0  0  0  0  0  0
    1.8720    4.4794    0.0000 O   0  5  0  0  0  0  0  0  0  0  0  0
    4.0154    4.0668    0.0000 O   0  0  0  0  0  0  0  0  0  0  0  0
    1.1575    5.7169    0.0000 O   0  0  0  0  0  0  0  0  0  0  0  0
    8.0411   11.5905    0.0000 N   0  0  0  0  0  0  0  0  0  0  0  0
   11.3524    6.0510    0.0000 N   0  0  0  0  0  0  0  0  0  0  0  0
    8.0411   10.7655    0.0000 C   0  0  0  0  0  0  0  0  0  0  0  0
    8.7557   10.3530    0.0000 C   0  0  0  0  0  0  0  0  0  0  0  0
    7.3267   10.3530    0.0000 C   0  0  0  0  0  0  0  0  0  0  0  0
    8.7557    9.5280    0.0000 C   0  0  0  0  0  0  0  0  0  0  0  0
    7.3267    9.5280    0.0000 C   0  0  0  0  0  0  0  0  0  0  0  0
    8.0411    9.1155    0.0000 C   0  0  0  0  0  0  0  0  0  0  0  0
    4.7299    5.3044    0.0000 C   0  0  0  0  0  0  0  0  0  0  0  0
    0.4430    4.4794    0.0000 C   0  0  0  0  0  0  0  0  0  0  0  0
    4.0154    4.8919    0.0000 C   0  0  0  0  0  0  0  0  0  0  0  0
    1.1575    4.8919    0.0000 C   0  0  0  0  0  0  0  0  0  0  0  0
    8.9244   12.1005    0.0000 H   0  0  0  0  0  0  0  0  0  0  0  0
    7.1578   12.1005    0.0000 H   0  0  0  0  0  0  0  0  0  0  0  0
   12.3724    6.0510    0.0000 H   0  0  0  0  0  0  0  0  0  0  0  0
   10.8424    6.9343    0.0000 H   0  0  0  0  0  0  0  0  0  0  0  0
   10.8424    5.1677    0.0000 H   0  0  0  0  0  0  0  0  0  0  0  0
    8.0412    9.6955    0.0000 H   0  0  0  0  0  0  0  0  0  0  0  0
    9.6823   10.8880    0.0000 H   0  0  0  0  0  0  0  0  0  0  0  0
    9.6824    9.8180    0.0000 H   0  0  0  0  0  0  0  0  0  0  0  0
    6.4000   10.8880    0.0000 H   0  0  0  0  0  0  0  0  0  0  0  0
    6.4001    9.8180    0.0000 H   0  0  0  0  0  0  0  0  0  0  0  0
    9.6823    8.9930    0.0000 H   0  0  0  0  0  0  0  0  0  0  0  0
    8.7556    8.4580    0.0000 H   0  0  0  0  0  0  0  0  0  0  0  0
    6.4000    8.9930    0.0000 H   0  0  0  0  0  0  0  0  0  0  0  0
    7.3267    8.4580    0.0000 H   0  0  0  0  0  0  0  0  0  0  0  0
    8.0410    8.0455    0.0000 H   0  0  0  0  0  0  0  0  0  0  0  0
    7.1144    8.5805    0.0000 H   0  0  0  0  0  0  0  0  0  0  0  0
    5.6565    4.7694    0.0000 H   0  0  0  0  0  0  0  0  0  0  0  0
    4.7299    6.3744    0.0000 H   0  0  0  0  0  0  0  0  0  0  0  0
    5.6566    5.8394    0.0000 H   0  0  0  0  0  0  0  0  0  0  0  0
   -0.4836    5.0144    0.0000 H   0  0  0  0  0  0  0  0  0  0  0  0
    0.4430    3.4094    0.0000 H   0  0  0  0  0  0  0  0  0  0  0  0
   -0.4837    3.9444    0.0000 H   0  0  0  0  0  0  0  0  0  0  0  0
  4 18  1  0  0  0  0
  5 19  1  0  0  0  0
  6 18  2  0  0  0  0
  7 19  2  0  0  0  0
  8 10  1  0  0  0  0
  8 20  1  0  0  0  0
  8 21  1  0  0  0  0
  9 22  1  0  0  0  0
  9 23  1  0  0  0  0
  9 24  1  0  0  0  0
 10 11  1  0  0  0  0
 10 12  1  0  0  0  0
 10 25  1  0  0  0  0
 11 13  1  0  0  0  0
 11 26  1  0  0  0  0
 11 27  1  0  0  0  0
 12 14  1  0  0  0  0
 12 28  1  0  0  0  0
 12 29  1  0  0  0  0
 13 15  1  0  0  0  0
 13 30  1  0  0  0  0
 13 31  1  0  0  0  0
 14 15  1  0  0  0  0
 14 32  1  0  0  0  0
 14 33  1  0  0  0  0
 15 34  1  0  0  0  0
 15 35  1  0  0  0  0
 16 18  1  0  0  0  0
 16 36  1  0  0  0  0
 16 37  1  0  0  0  0
 16 38  1  0  0  0  0
 17 19  1  0  0  0  0
 17 39  1  0  0  0  0
 17 40  1  0  0  0  0
 17 41  1  0  0  0  0
M  CHG  5   1   4   2  -1   3  -1   4  -1   5  -1
M  END
>  <DRUGBANK_ID>
DB04996

>  <COMMON_NAME>
Satraplatin

>  <CAS_NUMBER>
129580-63-8

>  <UNII>
8D7B37T28G

>  <SYNONYMS>
Satraplatin

$$$$
