WST
 OpenBabel10282417072D

 39 42  0  0  0  0  0  0  0  0999 V2000
    0.9841   -1.0938    0.0000 C   0  0  0  0  0  0  0  0  0  0  0  0
    1.4187   -1.7950    0.0000 C   0  0  0  0  0  0  0  0  0  0  0  0
    1.0287   -2.5220    0.0000 O   0  0  0  0  0  0  0  0  0  0  0  0
    2.2433   -1.7693    0.0000 C   0  0  0  0  0  0  0  0  0  0  0  0
    2.6333   -1.0423    0.0000 C   0  0  0  0  0  0  0  0  0  0  0  0
    2.1987   -0.3410    0.0000 C   0  0  0  0  0  0  0  0  0  0  0  0
    1.3741   -0.3668    0.0000 C   0  0  0  0  0  0  0  0  0  0  0  0
    0.9395    0.3345    0.0000 O   0  0  0  0  0  0  0  0  0  0  0  0
    0.1149    0.3087    0.0000 C   0  0  2  0  0  0  0  0  0  0  0  0
   -0.2751   -0.4183    0.0000 C   0  0  2  0  0  0  0  0  0  0  0  0
    0.1595   -1.1196    0.0000 C   0  0  1  0  0  0  0  0  0  0  0  0
   -0.3731   -1.7496    0.0000 C   0  0  0  0  0  0  0  0  0  0  0  0
   -1.1369   -1.4377    0.0000 C   0  0  0  0  0  0  0  0  0  0  0  0
   -1.0763   -0.6150    0.0000 C   0  0  0  0  0  0  0  0  0  0  0  0
   -0.3197    1.0099    0.0000 C   0  0  0  0  0  0  0  0  0  0  0  0
    0.0703    1.7369    0.0000 C   0  0  0  0  0  0  0  0  0  0  0  0
   -0.3643    2.4382    0.0000 C   0  0  0  0  0  0  0  0  0  0  0  0
   -1.1889    2.4124    0.0000 C   0  0  0  0  0  0  0  0  0  0  0  0
   -1.6235    3.1137    0.0000 O   0  0  0  0  0  0  0  0  0  0  0  0
   -1.5789    1.6854    0.0000 C   0  0  0  0  0  0  0  0  0  0  0  0
   -1.1443    0.9842    0.0000 C   0  0  0  0  0  0  0  0  0  0  0  0
    0.3909    0.8233    0.0000 H   0  0  0  0  0  0  0  0  0  0  0  0
   -0.6329    0.0431    0.0000 H   0  0  0  0  0  0  0  0  0  0  0  0
    0.4136   -1.6453    0.0000 H   0  0  0  0  0  0  0  0  0  0  0  0
    0.0922   -2.5512    0.0000 H   0  0  0  0  0  0  0  0  0  0  0  0
    2.7869   -2.6465    0.0000 H   0  0  0  0  0  0  0  0  0  0  0  0
    3.6648   -1.0101    0.0000 H   0  0  0  0  0  0  0  0  0  0  0  0
    2.6865    0.5684    0.0000 H   0  0  0  0  0  0  0  0  0  0  0  0
   -0.1181   -2.7888    0.0000 H   0  0  0  0  0  0  0  0  0  0  0  0
   -1.1832   -2.4486    0.0000 H   0  0  0  0  0  0  0  0  0  0  0  0
   -2.0464   -2.0013    0.0000 H   0  0  0  0  0  0  0  0  0  0  0  0
   -2.0520   -0.8832    0.0000 H   0  0  0  0  0  0  0  0  0  0  0  0
   -1.8934    0.0758    0.0000 H   0  0  0  0  0  0  0  0  0  0  0  0
   -2.0628   -1.0294    0.0000 H   0  0  0  0  0  0  0  0  0  0  0  0
    1.1018    1.7691    0.0000 H   0  0  0  0  0  0  0  0  0  0  0  0
    0.1235    3.3476    0.0000 H   0  0  0  0  0  0  0  0  0  0  0  0
   -1.1805    3.9394    0.0000 H   0  0  0  0  0  0  0  0  0  0  0  0
   -2.6104    1.6532    0.0000 H   0  0  0  0  0  0  0  0  0  0  0  0
   -1.6322    0.0748    0.0000 H   0  0  0  0  0  0  0  0  0  0  0  0
  1 11  1  0  0  0  0
  1  2  2  0  0  0  0
  1  7  1  0  0  0  0
  2  3  1  0  0  0  0
  2  4  1  0  0  0  0
  3 25  1  0  0  0  0
  4  5  2  0  0  0  0
  4 26  1  0  0  0  0
  5  6  1  0  0  0  0
  5 27  1  0  0  0  0
  6  7  2  0  0  0  0
  6 28  1  0  0  0  0
  7  8  1  0  0  0  0
  8  9  1  0  0  0  0
  9 10  1  0  0  0  0
  9 15  1  0  0  0  0
  9 22  1  1  0  0  0
 10 14  1  0  0  0  0
 10 11  1  0  0  0  0
 10 23  1  1  0  0  0
 11 12  1  0  0  0  0
 11 24  1  1  0  0  0
 12 13  1  0  0  0  0
 12 29  1  0  0  0  0
 12 30  1  0  0  0  0
 13 14  1  0  0  0  0
 13 31  1  0  0  0  0
 13 32  1  0  0  0  0
 14 33  1  0  0  0  0
 14 34  1  0  0  0  0
 15 21  2  0  0  0  0
 15 16  1  0  0  0  0
 16 17  2  0  0  0  0
 16 35  1  0  0  0  0
 17 18  1  0  0  0  0
 17 36  1  0  0  0  0
 18 19  1  0  0  0  0
 18 20  2  0  0  0  0
 19 37  1  0  0  0  0
 20 21  1  0  0  0  0
 20 38  1  0  0  0  0
 21 39  1  0  0  0  0
M  END
>  <DRUGBANK_ID>
DB08737

>  <COMMON_NAME>
(3AS,4R,9BR)-4-(4-HYDROXYPHENYL)-1,2,3,3A,4,9B-HEXAHYDROCYCLOPENTA[C]CHROMEN-9-OL

$$$$
