
 OpenBabel10282417072D

 26 25  0  0  0  0  0  0  0  0999 V2000
    0.7144   -1.0312    0.0000 O   0  0  0  0  0  0  0  0  0  0  0  0
    1.4289    1.0312    0.0000 O   0  0  0  0  0  0  0  0  0  0  0  0
    0.0000    1.0312    0.0000 O   0  0  0  0  0  0  0  0  0  0  0  0
    2.8578    0.2062    0.0000 O   0  0  0  0  0  0  0  0  0  0  0  0
    2.1434   -1.0312    0.0000 O   0  0  0  0  0  0  0  0  0  0  0  0
   -0.7144   -0.2062    0.0000 N   0  0  0  0  0  0  0  0  0  0  0  0
    0.7144   -0.2062    0.0000 C   0  0  2  0  0  0  0  0  0  0  0  0
    1.4289    0.2062    0.0000 C   0  0  2  0  0  0  0  0  0  0  0  0
   -1.4289    0.2062    0.0000 C   0  0  0  0  0  0  0  0  0  0  0  0
    0.0000    0.2062    0.0000 C   0  0  0  0  0  0  0  0  0  0  0  0
   -2.1434   -0.2062    0.0000 C   0  0  0  0  0  0  0  0  0  0  0  0
   -2.8578    0.2062    0.0000 C   0  0  0  0  0  0  0  0  0  0  0  0
    2.1434   -0.2062    0.0000 C   0  0  0  0  0  0  0  0  0  0  0  0
   -0.7144   -0.7177    0.0000 H   0  0  0  0  0  0  0  0  0  0  0  0
   -0.1256   -1.5162    0.0000 H   0  0  0  0  0  0  0  0  0  0  0  0
    2.2689    1.5162    0.0000 H   0  0  0  0  0  0  0  0  0  0  0  0
    3.6692   -0.2624    0.0000 H   0  0  0  0  0  0  0  0  0  0  0  0
    1.6410   -0.7413    0.0000 H   0  0  0  0  0  0  0  0  0  0  0  0
    0.5023    0.7413    0.0000 H   0  0  0  0  0  0  0  0  0  0  0  0
   -1.4289    1.2762    0.0000 H   0  0  0  0  0  0  0  0  0  0  0  0
   -2.3555    0.7413    0.0000 H   0  0  0  0  0  0  0  0  0  0  0  0
   -2.1434   -1.2762    0.0000 H   0  0  0  0  0  0  0  0  0  0  0  0
   -3.0700   -0.7412    0.0000 H   0  0  0  0  0  0  0  0  0  0  0  0
   -2.8579    1.2762    0.0000 H   0  0  0  0  0  0  0  0  0  0  0  0
   -3.7844   -0.3289    0.0000 H   0  0  0  0  0  0  0  0  0  0  0  0
   -3.7845    0.7411    0.0000 H   0  0  0  0  0  0  0  0  0  0  0  0
  1 15  1  0  0  0  0
  2 16  1  0  0  0  0
  3 10  2  0  0  0  0
  4 13  1  0  0  0  0
  4 17  1  0  0  0  0
  5 13  2  0  0  0  0
  6  9  1  0  0  0  0
  6 10  1  0  0  0  0
  6 14  1  0  0  0  0
  7  1  1  0  0  0  0
  7  8  1  0  0  0  0
  7 10  1  0  0  0  0
  7 18  1  6  0  0  0
  8  2  1  0  0  0  0
  8 13  1  0  0  0  0
  8 19  1  6  0  0  0
  9 11  1  0  0  0  0
  9 20  1  0  0  0  0
  9 21  1  0  0  0  0
 11 12  1  0  0  0  0
 11 22  1  0  0  0  0
 11 23  1  0  0  0  0
 12 24  1  0  0  0  0
 12 25  1  0  0  0  0
 12 26  1  0  0  0  0
M  END
>  <DRUGBANK_ID>
DB03390

>  <SECONDARY_ACCESSION_NUMBERS>
EXPT02679

>  <COMMON_NAME>
(2R,3R)-2,3-Dihydroxy-4-oxo-4-(propylamino)butanoic acid

>  <SYNONYMS>
N-Propyl-L-tartramate; N-Propyl-tartramic acid

$$$$
