
 OpenBabel10282417072D

 53 55  0  0  0  0  0  0  0  0999 V2000
    2.1434   -4.5375    0.0000 C   0  0  0  0  0  0  0  0  0  0  0  0
    2.1434   -5.3625    0.0000 N   0  0  0  0  0  0  0  0  0  0  0  0
    2.8579   -5.7750    0.0000 C   0  0  0  0  0  0  0  0  0  0  0  0
    2.8579   -6.6000    0.0000 C   0  0  0  0  0  0  0  0  0  0  0  0
    2.1434   -7.0125    0.0000 N   0  0  0  0  0  0  0  0  0  0  0  0
    1.4289   -6.6000    0.0000 C   0  0  0  0  0  0  0  0  0  0  0  0
    1.4289   -5.7750    0.0000 C   0  0  0  0  0  0  0  0  0  0  0  0
    2.1434   -7.8375    0.0000 S   0  0  0  0  0  0  0  0  0  0  0  0
    1.3184   -7.8375    0.0000 O   0  0  0  0  0  0  0  0  0  0  0  0
    2.9684   -7.8375    0.0000 O   0  0  0  0  0  0  0  0  0  0  0  0
    2.1434   -8.6625    0.0000 C   0  0  0  0  0  0  0  0  0  0  0  0
    2.8579   -9.0750    0.0000 C   0  0  0  0  0  0  0  0  0  0  0  0
    2.8579   -9.9000    0.0000 C   0  0  0  0  0  0  0  0  0  0  0  0
    2.1434  -10.3125    0.0000 C   0  0  0  0  0  0  0  0  0  0  0  0
    1.4289   -9.9000    0.0000 C   0  0  0  0  0  0  0  0  0  0  0  0
    1.4289   -9.0750    0.0000 C   0  0  0  0  0  0  0  0  0  0  0  0
    0.7145  -10.3125    0.0000 C   0  0  0  0  0  0  0  0  0  0  0  0
    0.7145  -11.1375    0.0000 O   0  0  0  0  0  0  0  0  0  0  0  0
    0.0000   -9.9000    0.0000 N   0  0  0  0  0  0  0  0  0  0  0  0
   -0.7145  -10.3125    0.0000 N   0  0  0  0  0  0  0  0  0  0  0  0
   -1.4289   -9.9000    0.0000 C   0  0  0  0  0  0  0  0  0  0  0  0
   -1.4289   -9.0750    0.0000 C   0  0  0  0  0  0  0  0  0  0  0  0
   -2.1434  -10.3125    0.0000 C   0  0  0  0  0  0  0  0  0  0  0  0
   -2.1434  -11.1375    0.0000 C   0  0  0  0  0  0  0  0  0  0  0  0
   -1.4289  -11.5500    0.0000 O   0  0  0  0  0  0  0  0  0  0  0  0
   -2.8579  -11.5500    0.0000 C   0  0  0  0  0  0  0  0  0  0  0  0
   -3.5724  -11.1375    0.0000 C   0  0  0  0  0  0  0  0  0  0  0  0
   -3.5724  -10.3125    0.0000 C   0  0  0  0  0  0  0  0  0  0  0  0
   -4.2868   -9.9000    0.0000 Cl  0  0  0  0  0  0  0  0  0  0  0  0
   -2.8579   -9.9000    0.0000 C   0  0  0  0  0  0  0  0  0  0  0  0
    3.0700   -4.0025    0.0000 H   0  0  0  0  0  0  0  0  0  0  0  0
    1.2168   -4.0025    0.0000 H   0  0  0  0  0  0  0  0  0  0  0  0
    2.1434   -3.4675    0.0000 H   0  0  0  0  0  0  0  0  0  0  0  0
    3.7845   -5.2400    0.0000 H   0  0  0  0  0  0  0  0  0  0  0  0
    3.7845   -6.3100    0.0000 H   0  0  0  0  0  0  0  0  0  0  0  0
    3.7845   -7.1350    0.0000 H   0  0  0  0  0  0  0  0  0  0  0  0
    2.8579   -7.6700    0.0000 H   0  0  0  0  0  0  0  0  0  0  0  0
    0.5023   -7.1350    0.0000 H   0  0  0  0  0  0  0  0  0  0  0  0
    0.5023   -6.0650    0.0000 H   0  0  0  0  0  0  0  0  0  0  0  0
    0.5023   -5.2400    0.0000 H   0  0  0  0  0  0  0  0  0  0  0  0
    1.4289   -4.7050    0.0000 H   0  0  0  0  0  0  0  0  0  0  0  0
    3.7516   -8.5590    0.0000 H   0  0  0  0  0  0  0  0  0  0  0  0
    3.7516  -10.4160    0.0000 H   0  0  0  0  0  0  0  0  0  0  0  0
    2.1434  -11.3445    0.0000 H   0  0  0  0  0  0  0  0  0  0  0  0
    0.5352   -8.5590    0.0000 H   0  0  0  0  0  0  0  0  0  0  0  0
    0.0000   -8.9155    0.0000 H   0  0  0  0  0  0  0  0  0  0  0  0
   -0.5023   -8.5400    0.0000 H   0  0  0  0  0  0  0  0  0  0  0  0
   -2.3555   -8.5400    0.0000 H   0  0  0  0  0  0  0  0  0  0  0  0
   -1.4289   -8.0050    0.0000 H   0  0  0  0  0  0  0  0  0  0  0  0
   -1.4289  -12.4870    0.0000 H   0  0  0  0  0  0  0  0  0  0  0  0
   -2.8579  -12.5820    0.0000 H   0  0  0  0  0  0  0  0  0  0  0  0
   -4.4661  -11.6535    0.0000 H   0  0  0  0  0  0  0  0  0  0  0  0
   -2.8579   -8.8680    0.0000 H   0  0  0  0  0  0  0  0  0  0  0  0
  1  2  1  0  0  0  0
  1 31  1  0  0  0  0
  1 32  1  0  0  0  0
  1 33  1  0  0  0  0
  2  3  1  0  0  0  0
  2  7  1  0  0  0  0
  3  4  1  0  0  0  0
  3 34  1  0  0  0  0
  3 35  1  0  0  0  0
  4  5  1  0  0  0  0
  4 36  1  0  0  0  0
  4 37  1  0  0  0  0
  5  6  1  0  0  0  0
  5  8  1  0  0  0  0
  6  7  1  0  0  0  0
  6 38  1  0  0  0  0
  6 39  1  0  0  0  0
  7 40  1  0  0  0  0
  7 41  1  0  0  0  0
  8  9  2  0  0  0  0
  8 10  2  0  0  0  0
  8 11  1  0  0  0  0
 11 12  2  0  0  0  0
 11 16  1  0  0  0  0
 12 13  1  0  0  0  0
 12 42  1  0  0  0  0
 13 14  2  0  0  0  0
 13 43  1  0  0  0  0
 14 15  1  0  0  0  0
 14 44  1  0  0  0  0
 15 16  2  0  0  0  0
 15 17  1  0  0  0  0
 16 45  1  0  0  0  0
 17 18  2  0  0  0  0
 17 19  1  0  0  0  0
 19 20  1  0  0  0  0
 19 46  1  0  0  0  0
 20 21  2  0  0  0  0
 21 22  1  0  0  0  0
 21 23  1  0  0  0  0
 22 47  1  0  0  0  0
 22 48  1  0  0  0  0
 22 49  1  0  0  0  0
 23 24  2  0  0  0  0
 23 30  1  0  0  0  0
 24 25  1  0  0  0  0
 24 26  1  0  0  0  0
 25 50  1  0  0  0  0
 26 27  2  0  0  0  0
 26 51  1  0  0  0  0
 27 28  1  0  0  0  0
 27 52  1  0  0  0  0
 28 29  1  0  0  0  0
 28 30  2  0  0  0  0
 30 53  1  0  0  0  0
M  END
>  <DRUGBANK_ID>
DB17117

>  <COMMON_NAME>
Seclidemstat

>  <CAS_NUMBER>
1423715-37-0

>  <UNII>
TYH386V3WJ

>  <SYNONYMS>
Benzoic acid, 3-((4-methyl-1-piperazinyl)sulfonyl)-, (2e)-2-(1-(5-chloro-2-hydroxyphenyl)ethylidene)hydrazide; N'-[(1E)-1-(5-chloro-2-hydroxyphenyl)ethylidene]- 3-(4-methylpiperazine-1-sulfonyl)benzohydrazide

$$$$
