1012
 OpenBabel10282417072D

 48 50  0  0  1  0  0  0  0  0999 V2000
    3.3001   -3.3143    0.0000 F   0  0  0  0  0  0  0  0  0  0  0  0
    1.6500   -3.3143    0.0000 F   0  0  0  0  0  0  0  0  0  0  0  0
    2.4751   -4.1394    0.0000 F   0  0  0  0  0  0  0  0  0  0  0  0
    4.6185    1.2233    0.0000 N   0  0  0  0  0  0  0  0  0  0  0  0
    5.3330    1.6358    0.0000 C   0  0  1  0  0  0  0  0  0  0  0  0
    4.6185    0.3982    0.0000 C   0  0  0  0  0  0  0  0  0  0  0  0
    5.3330    2.4608    0.0000 C   0  0  0  0  0  0  0  0  0  0  0  0
    3.9041   -0.0143    0.0000 C   0  0  0  0  0  0  0  0  0  0  0  0
    3.9041   -0.8393    0.0000 C   0  0  0  0  0  0  0  0  0  0  0  0
    6.0475    2.8733    0.0000 C   0  0  0  0  0  0  0  0  0  0  0  0
    6.0475    1.2233    0.0000 C   0  0  0  0  0  0  0  0  0  0  0  0
    6.0475    3.6983    0.0000 C   0  0  0  0  0  0  0  0  0  0  0  0
    3.1895   -1.2518    0.0000 C   0  0  0  0  0  0  0  0  0  0  0  0
    4.6185    2.8733    0.0000 C   0  0  0  0  0  0  0  0  0  0  0  0
    6.7850    2.4322    0.0000 C   0  0  0  0  0  0  0  0  0  0  0  0
    5.3330    4.1108    0.0000 C   0  0  0  0  0  0  0  0  0  0  0  0
    4.6185    3.6983    0.0000 C   0  0  0  0  0  0  0  0  0  0  0  0
    3.1895   -2.0768    0.0000 C   0  0  0  0  0  0  0  0  0  0  0  0
    6.7850    4.1394    0.0000 C   0  0  0  0  0  0  0  0  0  0  0  0
    2.4751   -0.8393    0.0000 C   0  0  0  0  0  0  0  0  0  0  0  0
    2.4751   -2.4893    0.0000 C   0  0  0  0  0  0  0  0  0  0  0  0
    7.5325    2.8561    0.0000 C   0  0  0  0  0  0  0  0  0  0  0  0
    7.5325    3.7155    0.0000 C   0  0  0  0  0  0  0  0  0  0  0  0
    1.7606   -1.2518    0.0000 C   0  0  0  0  0  0  0  0  0  0  0  0
    1.7606   -2.0768    0.0000 C   0  0  0  0  0  0  0  0  0  0  0  0
    2.4751   -3.3143    0.0000 C   0  0  0  0  0  0  0  0  0  0  0  0
    3.7352    1.7333    0.0000 H   0  0  0  0  0  0  0  0  0  0  0  0
    4.4064    2.1708    0.0000 H   0  0  0  0  0  0  0  0  0  0  0  0
    5.5452   -0.1368    0.0000 H   0  0  0  0  0  0  0  0  0  0  0  0
    4.6185   -0.6718    0.0000 H   0  0  0  0  0  0  0  0  0  0  0  0
    2.9774    0.5207    0.0000 H   0  0  0  0  0  0  0  0  0  0  0  0
    2.9775   -0.5493    0.0000 H   0  0  0  0  0  0  0  0  0  0  0  0
    4.8307   -1.3743    0.0000 H   0  0  0  0  0  0  0  0  0  0  0  0
    3.9040   -1.9093    0.0000 H   0  0  0  0  0  0  0  0  0  0  0  0
    6.0475    0.1533    0.0000 H   0  0  0  0  0  0  0  0  0  0  0  0
    6.9741    1.7583    0.0000 H   0  0  0  0  0  0  0  0  0  0  0  0
    6.9742    0.6883    0.0000 H   0  0  0  0  0  0  0  0  0  0  0  0
    3.7248    2.3573    0.0000 H   0  0  0  0  0  0  0  0  0  0  0  0
    6.7731    1.4003    0.0000 H   0  0  0  0  0  0  0  0  0  0  0  0
    5.3330    5.1428    0.0000 H   0  0  0  0  0  0  0  0  0  0  0  0
    3.7248    4.2143    0.0000 H   0  0  0  0  0  0  0  0  0  0  0  0
    4.0832   -2.5928    0.0000 H   0  0  0  0  0  0  0  0  0  0  0  0
    6.7731    5.1713    0.0000 H   0  0  0  0  0  0  0  0  0  0  0  0
    2.4751    0.1927    0.0000 H   0  0  0  0  0  0  0  0  0  0  0  0
    8.4242    2.3366    0.0000 H   0  0  0  0  0  0  0  0  0  0  0  0
    8.4242    4.2350    0.0000 H   0  0  0  0  0  0  0  0  0  0  0  0
    0.8669   -0.7358    0.0000 H   0  0  0  0  0  0  0  0  0  0  0  0
    0.8669   -2.5928    0.0000 H   0  0  0  0  0  0  0  0  0  0  0  0
  1 26  1  0  0  0  0
  2 26  1  0  0  0  0
  3 26  1  0  0  0  0
  4  6  1  0  0  0  0
  4 27  1  0  0  0  0
  5  4  1  0  0  0  0
  5  7  1  0  0  0  0
  5 11  1  0  0  0  0
  5 28  1  6  0  0  0
  6  8  1  0  0  0  0
  6 29  1  0  0  0  0
  6 30  1  0  0  0  0
  7 10  1  0  0  0  0
  7 14  2  0  0  0  0
  8  9  1  0  0  0  0
  8 31  1  0  0  0  0
  8 32  1  0  0  0  0
  9 13  1  0  0  0  0
  9 33  1  0  0  0  0
  9 34  1  0  0  0  0
 10 12  1  0  0  0  0
 10 15  2  0  0  0  0
 11 35  1  0  0  0  0
 11 36  1  0  0  0  0
 11 37  1  0  0  0  0
 12 16  1  0  0  0  0
 12 19  2  0  0  0  0
 13 18  2  0  0  0  0
 13 20  1  0  0  0  0
 14 17  1  0  0  0  0
 14 38  1  0  0  0  0
 15 22  1  0  0  0  0
 15 39  1  0  0  0  0
 16 17  2  0  0  0  0
 16 40  1  0  0  0  0
 17 41  1  0  0  0  0
 18 21  1  0  0  0  0
 18 42  1  0  0  0  0
 19 23  1  0  0  0  0
 19 43  1  0  0  0  0
 20 24  2  0  0  0  0
 20 44  1  0  0  0  0
 21 25  2  0  0  0  0
 21 26  1  0  0  0  0
 22 23  2  0  0  0  0
 22 45  1  0  0  0  0
 23 46  1  0  0  0  0
 24 25  1  0  0  0  0
 24 47  1  0  0  0  0
 25 48  1  0  0  0  0
M  END
>  <DRUGBANK_ID>
DB01012

>  <SECONDARY_ACCESSION_NUMBERS>
APRD00872

>  <COMMON_NAME>
Cinacalcet

>  <CAS_NUMBER>
226256-56-0

>  <UNII>
UAZ6V7728S

>  <SYNONYMS>
(R)-Î±-methyl-N-[3-[3-(trifluoromethyl)phenyl]propyl]-1-naphthalenemethane amine; Cinacalcet; CNC; N-((1R)-1-(Naphthalen-1-yl)ethyl)-3-(3-(trifluoromethyl)phenyl)propan-1-amine

$$$$
