SK2
 OpenBabel10282417072D

 50 52  0  0  0  0  0  0  0  0999 V2000
   -4.6808    0.0323    0.0000 O   0  0  0  0  0  0  0  0  0  0  0  0
   -3.9664    0.4448    0.0000 S   0  0  0  0  0  0  0  0  0  0  0  0
   -3.5539   -0.2697    0.0000 O   0  0  0  0  0  0  0  0  0  0  0  0
   -4.3789    1.1592    0.0000 O   0  0  0  0  0  0  0  0  0  0  0  0
   -3.2519    0.8573    0.0000 N   0  0  0  0  0  0  0  0  0  0  0  0
   -2.5374    0.4448    0.0000 C   0  0  0  0  0  0  0  0  0  0  0  0
   -2.5374   -0.3802    0.0000 C   0  0  0  0  0  0  0  0  0  0  0  0
   -1.8229    0.8573    0.0000 C   0  0  0  0  0  0  0  0  0  0  0  0
   -1.1085    0.4448    0.0000 C   0  0  0  0  0  0  0  0  0  0  0  0
   -0.3940    0.8573    0.0000 C   0  0  0  0  0  0  0  0  0  0  0  0
    0.3205    0.4448    0.0000 N   0  0  0  0  0  0  0  0  0  0  0  0
    0.3205   -0.3802    0.0000 C   0  0  2  0  0  0  0  0  0  0  0  0
    1.0349   -0.7927    0.0000 C   0  0  0  0  0  0  0  0  0  0  0  0
    1.0349   -1.6177    0.0000 O   0  0  0  0  0  0  0  0  0  0  0  0
    1.7494   -0.3802    0.0000 N   0  0  0  0  0  0  0  0  0  0  0  0
    2.4639   -0.7927    0.0000 C   0  0  0  0  0  0  0  0  0  0  0  0
   -0.3940   -0.7927    0.0000 C   0  0  0  0  0  0  0  0  0  0  0  0
   -1.1085   -0.3802    0.0000 C   0  0  0  0  0  0  0  0  0  0  0  0
   -1.8229   -0.7927    0.0000 C   0  0  0  0  0  0  0  0  0  0  0  0
    1.0349    0.8573    0.0000 C   0  0  0  0  0  0  0  0  0  0  0  0
    1.0349    1.6823    0.0000 O   0  0  0  0  0  0  0  0  0  0  0  0
    1.7494    0.4448    0.0000 O   0  0  0  0  0  0  0  0  0  0  0  0
    2.4639    0.8573    0.0000 C   0  0  0  0  0  0  0  0  0  0  0  0
    3.1784    0.4448    0.0000 C   0  0  0  0  0  0  0  0  0  0  0  0
    3.8928    0.8573    0.0000 C   0  0  0  0  0  0  0  0  0  0  0  0
    4.6073    0.4448    0.0000 C   0  0  0  0  0  0  0  0  0  0  0  0
    3.1784   -0.3802    0.0000 C   0  0  0  0  0  0  0  0  0  0  0  0
    3.8928   -0.7927    0.0000 C   0  0  0  0  0  0  0  0  0  0  0  0
    4.6073   -0.3802    0.0000 C   0  0  0  0  0  0  0  0  0  0  0  0
    0.8262   -0.0883    0.0000 H   0  0  0  0  0  0  0  0  0  0  0  0
   -5.5209    0.5173    0.0000 H   0  0  0  0  0  0  0  0  0  0  0  0
   -3.2519    1.8418    0.0000 H   0  0  0  0  0  0  0  0  0  0  0  0
   -3.4311   -0.8962    0.0000 H   0  0  0  0  0  0  0  0  0  0  0  0
   -1.8229    1.8893    0.0000 H   0  0  0  0  0  0  0  0  0  0  0  0
   -0.3940    1.9273    0.0000 H   0  0  0  0  0  0  0  0  0  0  0  0
    0.5326    1.3923    0.0000 H   0  0  0  0  0  0  0  0  0  0  0  0
    1.7494    0.6043    0.0000 H   0  0  0  0  0  0  0  0  0  0  0  0
    2.4639   -1.8627    0.0000 H   0  0  0  0  0  0  0  0  0  0  0  0
    3.3905   -0.2577    0.0000 H   0  0  0  0  0  0  0  0  0  0  0  0
    3.3906   -1.3277    0.0000 H   0  0  0  0  0  0  0  0  0  0  0  0
   -0.3940   -1.8627    0.0000 H   0  0  0  0  0  0  0  0  0  0  0  0
   -1.3206   -1.3277    0.0000 H   0  0  0  0  0  0  0  0  0  0  0  0
   -1.8229   -1.8247    0.0000 H   0  0  0  0  0  0  0  0  0  0  0  0
    2.4639    1.9273    0.0000 H   0  0  0  0  0  0  0  0  0  0  0  0
    3.3905    1.3923    0.0000 H   0  0  0  0  0  0  0  0  0  0  0  0
    3.8928    1.8893    0.0000 H   0  0  0  0  0  0  0  0  0  0  0  0
    5.5010    0.9608    0.0000 H   0  0  0  0  0  0  0  0  0  0  0  0
    2.2847   -0.8962    0.0000 H   0  0  0  0  0  0  0  0  0  0  0  0
    3.8928   -1.8247    0.0000 H   0  0  0  0  0  0  0  0  0  0  0  0
    5.5010   -0.8962    0.0000 H   0  0  0  0  0  0  0  0  0  0  0  0
  1  2  1  0  0  0  0
  1 31  1  0  0  0  0
  2  3  2  0  0  0  0
  2  4  2  0  0  0  0
  2  5  1  0  0  0  0
  5  6  1  0  0  0  0
  5 32  1  0  0  0  0
  6  7  1  0  0  0  0
  6  8  2  0  0  0  0
  7 19  2  0  0  0  0
  7 33  1  0  0  0  0
  8  9  1  0  0  0  0
  8 34  1  0  0  0  0
  9 10  1  0  0  0  0
  9 18  2  0  0  0  0
 10 11  1  0  0  0  0
 10 35  1  0  0  0  0
 10 36  1  0  0  0  0
 11 12  1  0  0  0  0
 11 20  1  0  0  0  0
 12 13  1  0  0  0  0
 12 17  1  0  0  0  0
 12 30  1  1  0  0  0
 13 14  2  0  0  0  0
 13 15  1  0  0  0  0
 15 16  1  0  0  0  0
 15 37  1  0  0  0  0
 16 38  1  0  0  0  0
 16 39  1  0  0  0  0
 16 40  1  0  0  0  0
 17 18  1  0  0  0  0
 17 41  1  0  0  0  0
 17 42  1  0  0  0  0
 18 19  1  0  0  0  0
 19 43  1  0  0  0  0
 20 21  2  0  0  0  0
 20 22  1  0  0  0  0
 22 23  1  0  0  0  0
 23 24  1  0  0  0  0
 23 44  1  0  0  0  0
 23 45  1  0  0  0  0
 24 25  1  0  0  0  0
 24 27  2  0  0  0  0
 25 26  2  0  0  0  0
 25 46  1  0  0  0  0
 26 29  1  0  0  0  0
 26 47  1  0  0  0  0
 27 28  1  0  0  0  0
 27 48  1  0  0  0  0
 28 29  2  0  0  0  0
 28 49  1  0  0  0  0
 29 50  1  0  0  0  0
M  END
>  <DRUGBANK_ID>
DB08549

>  <COMMON_NAME>
(3R)-METHYLCARBAMOYL-7-SULFOAMINO-3,4-DIHYDRO-1H-ISOQUINOLINE-2-CARBOXYLIC ACID BENZYL ESTER

$$$$
