
 OpenBabel10282417072D

 50 54  0  0  0  0  0  0  0  0999 V2000
   10.4970    4.4104    0.0000 F   0  0  0  0  0  0  0  0  0  0  0  0
   10.4970    3.5854    0.0000 C   0  0  0  0  0  0  0  0  0  0  0  0
   11.2115    3.1729    0.0000 C   0  0  0  0  0  0  0  0  0  0  0  0
   11.2115    2.3479    0.0000 C   0  0  0  0  0  0  0  0  0  0  0  0
   10.4970    1.9354    0.0000 C   0  0  0  0  0  0  0  0  0  0  0  0
   10.4970    1.1104    0.0000 C   0  0  0  0  0  0  0  0  0  0  0  0
   11.2115    0.6979    0.0000 C   0  0  0  0  0  0  0  0  0  0  0  0
   11.9259    1.1104    0.0000 N   0  0  0  0  0  0  0  0  0  0  0  0
   12.6404    0.6979    0.0000 N   0  0  0  0  0  0  0  0  0  0  0  0
   12.6404   -0.1271    0.0000 C   0  0  0  0  0  0  0  0  0  0  0  0
   13.3549   -0.5396    0.0000 O   0  0  0  0  0  0  0  0  0  0  0  0
   11.9259   -0.5396    0.0000 C   0  0  0  0  0  0  0  0  0  0  0  0
   11.9259   -1.3646    0.0000 C   0  0  0  0  0  0  0  0  0  0  0  0
   11.2115   -1.7771    0.0000 C   0  0  0  0  0  0  0  0  0  0  0  0
   10.4970   -1.3646    0.0000 C   0  0  0  0  0  0  0  0  0  0  0  0
   10.4970   -0.5396    0.0000 C   0  0  0  0  0  0  0  0  0  0  0  0
   11.2115   -0.1271    0.0000 C   0  0  0  0  0  0  0  0  0  0  0  0
    9.7825    2.3479    0.0000 C   0  0  0  0  0  0  0  0  0  0  0  0
    9.7825    3.1729    0.0000 C   0  0  0  0  0  0  0  0  0  0  0  0
    9.0681    3.5854    0.0000 C   0  0  0  0  0  0  0  0  0  0  0  0
    9.0681    4.4104    0.0000 O   0  0  0  0  0  0  0  0  0  0  0  0
    8.3536    3.1729    0.0000 N   0  0  0  0  0  0  0  0  0  0  0  0
    8.3536    2.3479    0.0000 C   0  0  0  0  0  0  0  0  0  0  0  0
    7.6391    1.9354    0.0000 C   0  0  0  0  0  0  0  0  0  0  0  0
    6.9246    2.3479    0.0000 N   0  0  0  0  0  0  0  0  0  0  0  0
    6.1400    2.0930    0.0000 N   0  0  0  0  0  0  0  0  0  0  0  0
    5.6551    2.7604    0.0000 C   0  0  0  0  0  0  0  0  0  0  0  0
    6.1400    3.4279    0.0000 N   0  0  0  0  0  0  0  0  0  0  0  0
    6.9246    3.1729    0.0000 C   0  0  0  0  0  0  0  0  0  0  0  0
    7.6391    3.5854    0.0000 C   0  0  0  0  0  0  0  0  0  0  0  0
    4.8301    2.7604    0.0000 C   0  0  0  0  0  0  0  0  0  0  0  0
    4.0051    2.7604    0.0000 F   0  0  0  0  0  0  0  0  0  0  0  0
    4.8301    3.5854    0.0000 F   0  0  0  0  0  0  0  0  0  0  0  0
    4.8301    1.9354    0.0000 F   0  0  0  0  0  0  0  0  0  0  0  0
   12.1052    3.6889    0.0000 H   0  0  0  0  0  0  0  0  0  0  0  0
   12.1052    1.8319    0.0000 H   0  0  0  0  0  0  0  0  0  0  0  0
    9.5704    0.5754    0.0000 H   0  0  0  0  0  0  0  0  0  0  0  0
   10.4970    0.0404    0.0000 H   0  0  0  0  0  0  0  0  0  0  0  0
   13.4930    1.1902    0.0000 H   0  0  0  0  0  0  0  0  0  0  0  0
   12.8196   -1.8806    0.0000 H   0  0  0  0  0  0  0  0  0  0  0  0
   11.2115   -2.8091    0.0000 H   0  0  0  0  0  0  0  0  0  0  0  0
    9.6033   -1.8806    0.0000 H   0  0  0  0  0  0  0  0  0  0  0  0
    9.6033   -0.0236    0.0000 H   0  0  0  0  0  0  0  0  0  0  0  0
    8.8888    1.8319    0.0000 H   0  0  0  0  0  0  0  0  0  0  0  0
    9.2802    1.8129    0.0000 H   0  0  0  0  0  0  0  0  0  0  0  0
    8.3536    1.2779    0.0000 H   0  0  0  0  0  0  0  0  0  0  0  0
    7.6391    0.8654    0.0000 H   0  0  0  0  0  0  0  0  0  0  0  0
    6.7125    1.4004    0.0000 H   0  0  0  0  0  0  0  0  0  0  0  0
    7.6391    4.6554    0.0000 H   0  0  0  0  0  0  0  0  0  0  0  0
    8.5657    4.1204    0.0000 H   0  0  0  0  0  0  0  0  0  0  0  0
  1  2  1  0  0  0  0
  2  3  2  0  0  0  0
  2 19  1  0  0  0  0
  3  4  1  0  0  0  0
  3 35  1  0  0  0  0
  4  5  2  0  0  0  0
  4 36  1  0  0  0  0
  5  6  1  0  0  0  0
  5 18  1  0  0  0  0
  6  7  1  0  0  0  0
  6 37  1  0  0  0  0
  6 38  1  0  0  0  0
  7  8  2  0  0  0  0
  7 17  1  0  0  0  0
  8  9  1  0  0  0  0
  9 10  1  0  0  0  0
  9 39  1  0  0  0  0
 10 11  2  0  0  0  0
 10 12  1  0  0  0  0
 12 13  2  0  0  0  0
 12 17  1  0  0  0  0
 13 14  1  0  0  0  0
 13 40  1  0  0  0  0
 14 15  2  0  0  0  0
 14 41  1  0  0  0  0
 15 16  1  0  0  0  0
 15 42  1  0  0  0  0
 16 17  2  0  0  0  0
 16 43  1  0  0  0  0
 18 19  2  0  0  0  0
 18 44  1  0  0  0  0
 19 20  1  0  0  0  0
 20 21  2  0  0  0  0
 20 22  1  0  0  0  0
 22 23  1  0  0  0  0
 22 30  1  0  0  0  0
 23 24  1  0  0  0  0
 23 45  1  0  0  0  0
 23 46  1  0  0  0  0
 24 25  1  0  0  0  0
 24 47  1  0  0  0  0
 24 48  1  0  0  0  0
 25 26  1  0  0  0  0
 25 29  1  0  0  0  0
 26 27  2  0  0  0  0
 27 28  1  0  0  0  0
 27 31  1  0  0  0  0
 28 29  2  0  0  0  0
 29 30  1  0  0  0  0
 30 49  1  0  0  0  0
 30 50  1  0  0  0  0
 31 32  1  0  0  0  0
 31 33  1  0  0  0  0
 31 34  1  0  0  0  0
M  END
>  <DRUGBANK_ID>
DB15637

>  <COMMON_NAME>
Fluzoparib

>  <CAS_NUMBER>
1358715-18-0

>  <UNII>
TWF0ML1CK8

$$$$
