TFG
 OpenBabel10282417072D

 45 48  0  0  0  0  0  0  0  0999 V2000
    8.3367   39.7476    0.0000 C   0  0  0  0  0  0  0  0  0  0  0  0
    8.0818   38.9630    0.0000 C   0  0  0  0  0  0  0  0  0  0  0  0
    7.2748   38.7914    0.0000 C   0  0  0  0  0  0  0  0  0  0  0  0
    6.7228   39.4045    0.0000 C   0  0  0  0  0  0  0  0  0  0  0  0
    6.9777   40.1892    0.0000 C   0  0  0  0  0  0  0  0  0  0  0  0
    7.7847   40.3607    0.0000 C   0  0  0  0  0  0  0  0  0  0  0  0
    8.0396   41.1453    0.0000 C   0  0  0  0  0  0  0  0  0  0  0  0
    7.5547   41.8127    0.0000 C   0  0  0  0  0  0  0  0  0  0  0  0
    8.0396   42.4802    0.0000 N   0  0  0  0  0  0  0  0  0  0  0  0
    8.8243   42.2252    0.0000 C   0  0  0  0  0  0  0  0  0  0  0  0
    9.5387   42.6377    0.0000 C   0  0  0  0  0  0  0  0  0  0  0  0
    8.8243   41.4002    0.0000 N   0  0  0  0  0  0  0  0  0  0  0  0
    9.5387   40.9877    0.0000 C   0  0  0  0  0  0  0  0  0  0  0  0
   10.2532   41.4002    0.0000 C   0  0  0  0  0  0  0  0  0  0  0  0
   10.2532   42.2252    0.0000 N   0  0  0  0  0  0  0  0  0  0  0  0
   10.9677   42.6377    0.0000 C   0  0  0  0  0  0  0  0  0  0  0  0
   10.9677   43.4627    0.0000 O   0  0  0  0  0  0  0  0  0  0  0  0
   11.6821   42.2252    0.0000 C   0  0  0  0  0  0  0  0  0  0  0  0
   12.4358   42.5608    0.0000 S   0  0  0  0  0  0  0  0  0  0  0  0
   11.7684   41.4048    0.0000 C   0  0  0  0  0  0  0  0  0  0  0  0
   12.5754   41.2332    0.0000 C   0  0  0  0  0  0  0  0  0  0  0  0
   12.9879   41.9477    0.0000 C   0  0  0  0  0  0  0  0  0  0  0  0
   13.8083   42.0339    0.0000 C   0  0  0  0  0  0  0  0  0  0  0  0
   14.6288   42.1202    0.0000 C   0  0  0  0  0  0  0  0  0  0  0  0
   15.4493   42.2064    0.0000 F   0  0  0  0  0  0  0  0  0  0  0  0
   14.7151   41.2997    0.0000 F   0  0  0  0  0  0  0  0  0  0  0  0
   14.5426   42.9407    0.0000 F   0  0  0  0  0  0  0  0  0  0  0  0
   13.8946   41.2135    0.0000 O   0  0  0  0  0  0  0  0  0  0  0  0
   13.7221   42.8544    0.0000 O   0  0  0  0  0  0  0  0  0  0  0  0
    9.3461   39.9622    0.0000 H   0  0  0  0  0  0  0  0  0  0  0  0
    8.7724   38.1961    0.0000 H   0  0  0  0  0  0  0  0  0  0  0  0
    6.9559   37.8099    0.0000 H   0  0  0  0  0  0  0  0  0  0  0  0
    5.7134   39.1899    0.0000 H   0  0  0  0  0  0  0  0  0  0  0  0
    6.2871   40.9561    0.0000 H   0  0  0  0  0  0  0  0  0  0  0  0
    6.5227   41.8127    0.0000 H   0  0  0  0  0  0  0  0  0  0  0  0
    9.5387   43.7077    0.0000 H   0  0  0  0  0  0  0  0  0  0  0  0
   10.4653   43.1727    0.0000 H   0  0  0  0  0  0  0  0  0  0  0  0
    9.5387   39.9177    0.0000 H   0  0  0  0  0  0  0  0  0  0  0  0
   10.4653   40.4527    0.0000 H   0  0  0  0  0  0  0  0  0  0  0  0
   11.1798   40.8652    0.0000 H   0  0  0  0  0  0  0  0  0  0  0  0
   11.1798   41.9352    0.0000 H   0  0  0  0  0  0  0  0  0  0  0  0
   11.0015   40.7143    0.0000 H   0  0  0  0  0  0  0  0  0  0  0  0
   12.9951   40.2904    0.0000 H   0  0  0  0  0  0  0  0  0  0  0  0
   13.1366   40.6627    0.0000 H   0  0  0  0  0  0  0  0  0  0  0  0
   14.4802   43.4051    0.0000 H   0  0  0  0  0  0  0  0  0  0  0  0
  1  2  1  0  0  0  0
  1  6  2  0  0  0  0
  1 30  1  0  0  0  0
  2  3  2  0  0  0  0
  2 31  1  0  0  0  0
  3  4  1  0  0  0  0
  3 32  1  0  0  0  0
  4  5  2  0  0  0  0
  4 33  1  0  0  0  0
  5  6  1  0  0  0  0
  5 34  1  0  0  0  0
  6  7  1  0  0  0  0
  7  8  2  0  0  0  0
  7 12  1  0  0  0  0
  8  9  1  0  0  0  0
  8 35  1  0  0  0  0
  9 10  2  0  0  0  0
 10 11  1  0  0  0  0
 10 12  1  0  0  0  0
 11 15  1  0  0  0  0
 11 36  1  0  0  0  0
 11 37  1  0  0  0  0
 12 13  1  0  0  0  0
 13 14  1  0  0  0  0
 13 38  1  0  0  0  0
 13 39  1  0  0  0  0
 14 15  1  0  0  0  0
 14 40  1  0  0  0  0
 14 41  1  0  0  0  0
 15 16  1  0  0  0  0
 16 17  2  0  0  0  0
 16 18  1  0  0  0  0
 18 19  1  0  0  0  0
 18 20  2  0  0  0  0
 19 22  1  0  0  0  0
 20 21  1  0  0  0  0
 20 42  1  0  0  0  0
 21 22  2  0  0  0  0
 21 43  1  0  0  0  0
 22 23  1  0  0  0  0
 23 24  1  0  0  0  0
 23 28  1  0  0  0  0
 23 29  1  0  0  0  0
 24 25  1  0  0  0  0
 24 26  1  0  0  0  0
 24 27  1  0  0  0  0
 28 44  1  0  0  0  0
 29 45  1  0  0  0  0
M  END
>  <DRUGBANK_ID>
DB08613

>  <COMMON_NAME>
2,2,2-TRIFLUORO-1-{5-[(3-PHENYL-5,6-DIHYDROIMIDAZO[1,2-A]PYRAZIN-7(8H)-YL)CARBONYL]THIOPHEN-2-YL}ETHANE-1,1-DIOL

$$$$
