
 OpenBabel10282417072D

 53 55  0  0  0  0  0  0  0  0999 V2000
    0.3572   -2.0625    0.0000 C   0  0  0  0  0  0  0  0  0  0  0  0
   -0.3572   -0.8250    0.0000 C   0  0  0  0  0  0  0  0  0  0  0  0
    1.0717   -1.6500    0.0000 C   0  0  0  0  0  0  0  0  0  0  0  0
    0.3572   -0.4125    0.0000 C   0  0  0  0  0  0  0  0  0  0  0  0
   -3.2151   -1.6500    0.0000 C   0  0  0  0  0  0  0  0  0  0  0  0
   -3.9295   -2.0625    0.0000 C   0  0  0  0  0  0  0  0  0  0  0  0
    1.7861    0.4125    0.0000 C   0  0  0  0  0  0  0  0  0  0  0  0
    3.2151    0.4125    0.0000 C   0  0  0  0  0  0  0  0  0  0  0  0
   -0.3572   -1.6500    0.0000 C   0  0  0  0  0  0  0  0  0  0  0  0
    1.0717   -0.8250    0.0000 C   0  0  0  0  0  0  0  0  0  0  0  0
    2.5006    0.8250    0.0000 C   0  0  0  0  0  0  0  0  0  0  0  0
   -2.5006   -2.0625    0.0000 C   0  0  1  0  0  0  0  0  0  0  0  0
   -4.6440   -1.6500    0.0000 C   0  0  0  0  0  0  0  0  0  0  0  0
    3.2151    2.0625    0.0000 C   0  0  0  0  0  0  0  0  0  0  0  0
    3.9295    1.6500    0.0000 C   0  0  0  0  0  0  0  0  0  0  0  0
   -1.0717   -2.0625    0.0000 C   0  0  0  0  0  0  0  0  0  0  0  0
    3.2151    2.8875    0.0000 C   0  0  0  0  0  0  0  0  0  0  0  0
   -2.5006   -2.8875    0.0000 C   0  0  0  0  0  0  0  0  0  0  0  0
    4.6440    2.8875    0.0000 C   0  0  0  0  0  0  0  0  0  0  0  0
    5.3585    3.3000    0.0000 N   0  0  0  0  0  0  0  0  0  0  0  0
    1.7861   -0.4125    0.0000 N   0  0  0  0  0  0  0  0  0  0  0  0
    3.9295    0.8250    0.0000 N   0  0  0  0  0  0  0  0  0  0  0  0
    2.5006    1.6500    0.0000 N   0  0  0  0  0  0  0  0  0  0  0  0
   -1.7861   -1.6500    0.0000 N   0  0  0  0  0  0  0  0  0  0  0  0
    4.6440    2.0625    0.0000 N   0  0  0  0  0  0  0  0  0  0  0  0
    3.9295    3.3000    0.0000 N   0  0  0  0  0  0  0  0  0  0  0  0
   -5.3585   -2.0625    0.0000 O   0  0  0  0  0  0  0  0  0  0  0  0
   -4.6440   -0.8250    0.0000 O   0  0  0  0  0  0  0  0  0  0  0  0
   -1.0717   -2.8875    0.0000 O   0  0  0  0  0  0  0  0  0  0  0  0
    2.5006    3.3000    0.0000 O   0  0  0  0  0  0  0  0  0  0  0  0
   -1.7861   -3.3000    0.0000 O   0  0  0  0  0  0  0  0  0  0  0  0
   -3.2151   -3.3000    0.0000 O   0  0  0  0  0  0  0  0  0  0  0  0
   -3.2151   -2.4750    0.0000 H   0  0  0  0  0  0  0  0  0  0  0  0
    0.3572   -3.0945    0.0000 H   0  0  0  0  0  0  0  0  0  0  0  0
   -1.2509   -0.3090    0.0000 H   0  0  0  0  0  0  0  0  0  0  0  0
    1.9654   -2.1660    0.0000 H   0  0  0  0  0  0  0  0  0  0  0  0
    0.3572    0.6195    0.0000 H   0  0  0  0  0  0  0  0  0  0  0  0
   -3.2151   -0.5800    0.0000 H   0  0  0  0  0  0  0  0  0  0  0  0
   -2.2885   -1.1150    0.0000 H   0  0  0  0  0  0  0  0  0  0  0  0
   -3.9295   -3.1325    0.0000 H   0  0  0  0  0  0  0  0  0  0  0  0
   -4.8561   -2.5975    0.0000 H   0  0  0  0  0  0  0  0  0  0  0  0
    0.8595    0.9475    0.0000 H   0  0  0  0  0  0  0  0  0  0  0  0
    0.8595   -0.1225    0.0000 H   0  0  0  0  0  0  0  0  0  0  0  0
    3.2151   -0.6575    0.0000 H   0  0  0  0  0  0  0  0  0  0  0  0
    4.1418   -0.1225    0.0000 H   0  0  0  0  0  0  0  0  0  0  0  0
    6.2111    2.8077    0.0000 H   0  0  0  0  0  0  0  0  0  0  0  0
    2.6387   -0.9047    0.0000 H   0  0  0  0  0  0  0  0  0  0  0  0
    4.7821    0.3328    0.0000 H   0  0  0  0  0  0  0  0  0  0  0  0
   -1.7861   -0.6655    0.0000 H   0  0  0  0  0  0  0  0  0  0  0  0
    5.4966    1.5702    0.0000 H   0  0  0  0  0  0  0  0  0  0  0  0
   -3.8325   -0.3565    0.0000 H   0  0  0  0  0  0  0  0  0  0  0  0
    2.5006    4.2370    0.0000 H   0  0  0  0  0  0  0  0  0  0  0  0
   -4.0266   -2.8315    0.0000 H   0  0  0  0  0  0  0  0  0  0  0  0
  1 34  1  0  0  0  0
  2 35  1  0  0  0  0
  3  1  1  0  0  0  0
  3 36  1  0  0  0  0
  4  2  2  0  0  0  0
  4 37  1  0  0  0  0
  5 38  1  0  0  0  0
  5 39  1  0  0  0  0
  6  5  1  0  0  0  0
  6 40  1  0  0  0  0
  6 41  1  0  0  0  0
  7 42  1  0  0  0  0
  7 43  1  0  0  0  0
  8 44  1  0  0  0  0
  8 45  1  0  0  0  0
  9  1  2  0  0  0  0
  9  2  1  0  0  0  0
 10  3  2  0  0  0  0
 10  4  1  0  0  0  0
 11  7  1  0  0  0  0
 11  8  1  0  0  0  0
 12  5  1  0  0  0  0
 12 18  1  0  0  0  0
 12 24  1  0  0  0  0
 12 33  1  1  0  0  0
 13  6  1  0  0  0  0
 15 14  2  0  0  0  0
 16  9  1  0  0  0  0
 17 14  1  0  0  0  0
 20 19  2  0  0  0  0
 20 46  1  0  0  0  0
 21  7  1  0  0  0  0
 21 10  1  0  0  0  0
 21 47  1  0  0  0  0
 22  8  1  0  0  0  0
 22 15  1  0  0  0  0
 22 48  1  0  0  0  0
 23 11  2  0  0  0  0
 23 14  1  0  0  0  0
 24 16  1  0  0  0  0
 24 49  1  0  0  0  0
 25 15  1  0  0  0  0
 25 19  1  0  0  0  0
 25 50  1  0  0  0  0
 26 17  2  0  0  0  0
 26 19  1  0  0  0  0
 27 13  2  0  0  0  0
 28 13  1  0  0  0  0
 28 51  1  0  0  0  0
 29 16  2  0  0  0  0
 30 17  1  0  0  0  0
 30 52  1  0  0  0  0
 31 18  2  0  0  0  0
 32 18  1  0  0  0  0
 32 53  1  0  0  0  0
M  END
>  <DRUGBANK_ID>
DB02015

>  <SECONDARY_ACCESSION_NUMBERS>
EXPT01190

>  <COMMON_NAME>
Dihydrofolic Acid

>  <CAS_NUMBER>
4033-27-6

>  <UNII>
KXP0KNM559

$$$$
