
 OpenBabel10282417072D

126128  0  0  0  0  0  0  0  0999 V2000
   -1.7539    1.5509    0.0000 C   0  0  0  0  0  0  0  0  0  0  0  0
   -2.4684    1.1384    0.0000 C   0  0  0  0  0  0  0  0  0  0  0  0
   -2.4684    0.3134    0.0000 C   0  0  0  0  0  0  0  0  0  0  0  0
   -1.7539   -0.0990    0.0000 C   0  0  0  0  0  0  0  0  0  0  0  0
   -1.0394    0.3134    0.0000 C   0  0  0  0  0  0  0  0  0  0  0  0
   -1.0394    1.1384    0.0000 C   0  0  0  0  0  0  0  0  0  0  0  0
   -0.2548    0.0585    0.0000 C   0  0  0  0  0  0  0  0  0  0  0  0
    0.2300    0.7259    0.0000 C   0  0  0  0  0  0  0  0  0  0  0  0
   -0.2548    1.3934    0.0000 N   0  0  0  0  0  0  0  0  0  0  0  0
   -1.7538    2.3760    0.0000 C   0  0  0  0  0  0  0  0  0  0  0  0
   -0.9288    2.3760    0.0000 C   0  0  0  0  0  0  0  0  0  0  0  0
   -1.7538    3.2010    0.0000 C   0  0  0  0  0  0  0  0  0  0  0  0
   -2.5789    2.3760    0.0000 C   0  0  0  0  0  0  0  0  0  0  0  0
    1.0550    0.7259    0.0000 C   0  0  0  0  0  0  0  0  0  0  0  0
    1.0550    1.5509    0.0000 C   0  0  0  0  0  0  0  0  0  0  0  0
    1.8800    0.7259    0.0000 C   0  0  0  0  0  0  0  0  0  0  0  0
    1.0550   -0.0990    0.0000 C   0  0  0  0  0  0  0  0  0  0  0  0
    0.0000   -0.7260    0.0000 C   0  0  0  0  0  0  0  0  0  0  0  0
    0.0000   -1.5510    0.0000 C   0  0  1  0  0  0  0  0  0  0  0  0
    0.7145   -1.9635    0.0000 C   0  0  0  0  0  0  0  0  0  0  0  0
    0.7145   -2.7885    0.0000 O   0  0  0  0  0  0  0  0  0  0  0  0
    1.4290   -1.5510    0.0000 N   0  0  0  0  0  0  0  0  0  0  0  0
    2.1434   -1.9635    0.0000 C   0  0  2  0  0  0  0  0  0  0  0  0
    2.1434   -2.7885    0.0000 C   0  0  0  0  0  0  0  0  0  0  0  0
    2.8579   -1.5510    0.0000 C   0  0  0  0  0  0  0  0  0  0  0  0
    2.8579   -3.2010    0.0000 N   0  0  0  0  0  0  0  0  0  0  0  0
    1.4290   -3.2010    0.0000 O   0  0  0  0  0  0  0  0  0  0  0  0
    3.5724   -2.7885    0.0000 C   0  0  0  0  0  0  0  0  0  0  0  0
    4.2867   -3.2010    0.0000 C   0  0  0  0  0  0  0  0  0  0  0  0
    5.0012   -2.7885    0.0000 C   0  0  0  0  0  0  0  0  0  0  0  0
    5.7158   -1.5510    0.0000 C   0  0  0  0  0  0  0  0  0  0  0  0
    5.0012   -1.9635    0.0000 C   0  0  0  0  0  0  0  0  0  0  0  0
    5.7158   -3.2010    0.0000 C   0  0  0  0  0  0  0  0  0  0  0  0
    6.4302   -2.7885    0.0000 C   0  0  0  0  0  0  0  0  0  0  0  0
    6.4302   -1.9635    0.0000 C   0  0  0  0  0  0  0  0  0  0  0  0
    2.8579   -0.7260    0.0000 C   0  0  0  0  0  0  0  0  0  0  0  0
    3.5724   -0.3135    0.0000 C   0  0  0  0  0  0  0  0  0  0  0  0
    3.5724    0.5114    0.0000 N   0  0  0  0  0  0  0  0  0  0  0  0
    4.2867    0.9239    0.0000 C   0  0  0  0  0  0  0  0  0  0  0  0
    4.2867    1.7489    0.0000 N   0  0  0  0  0  0  0  0  0  0  0  0
    5.0012    0.5114    0.0000 N   0  0  0  0  0  0  0  0  0  0  0  0
   -0.7144   -1.9635    0.0000 N   0  0  0  0  0  0  0  0  0  0  0  0
   -1.4288   -1.5510    0.0000 C   0  0  0  0  0  0  0  0  0  0  0  0
   -2.1433   -1.9635    0.0000 C   0  0  2  0  0  0  0  0  0  0  0  0
   -2.8579   -1.5510    0.0000 C   0  0  0  0  0  0  0  0  0  0  0  0
   -3.5723   -1.9635    0.0000 C   0  0  0  0  0  0  0  0  0  0  0  0
   -4.2867   -1.5510    0.0000 C   0  0  0  0  0  0  0  0  0  0  0  0
   -5.0012   -1.9635    0.0000 N   0  0  0  0  0  0  0  0  0  0  0  0
   -5.7158   -1.5510    0.0000 C   0  0  0  0  0  0  0  0  0  0  0  0
   -6.4302   -1.9635    0.0000 N   0  0  0  0  0  0  0  0  0  0  0  0
   -5.7158   -0.7260    0.0000 N   0  0  0  0  0  0  0  0  0  0  0  0
   -1.4288   -0.7260    0.0000 O   0  0  0  0  0  0  0  0  0  0  0  0
   -2.1433   -2.7885    0.0000 N   0  0  0  0  0  0  0  0  0  0  0  0
   -3.1828   -0.0990    0.0000 C   0  0  0  0  0  0  0  0  0  0  0  0
   -3.5954    0.6154    0.0000 C   0  0  0  0  0  0  0  0  0  0  0  0
   -3.8974   -0.5115    0.0000 C   0  0  0  0  0  0  0  0  0  0  0  0
   -2.7704   -0.8134    0.0000 C   0  0  0  0  0  0  0  0  0  0  0  0
   -3.3621    1.6544    0.0000 H   0  0  0  0  0  0  0  0  0  0  0  0
   -1.7539   -1.1310    0.0000 H   0  0  0  0  0  0  0  0  0  0  0  0
    0.0495    2.3297    0.0000 H   0  0  0  0  0  0  0  0  0  0  0  0
   -0.3938    1.4494    0.0000 H   0  0  0  0  0  0  0  0  0  0  0  0
   -0.3938    3.3026    0.0000 H   0  0  0  0  0  0  0  0  0  0  0  0
    0.1412    2.3760    0.0000 H   0  0  0  0  0  0  0  0  0  0  0  0
   -0.8272    3.7360    0.0000 H   0  0  0  0  0  0  0  0  0  0  0  0
   -2.6804    3.7360    0.0000 H   0  0  0  0  0  0  0  0  0  0  0  0
   -1.7538    4.2710    0.0000 H   0  0  0  0  0  0  0  0  0  0  0  0
   -3.1139    3.3026    0.0000 H   0  0  0  0  0  0  0  0  0  0  0  0
   -3.1139    1.4494    0.0000 H   0  0  0  0  0  0  0  0  0  0  0  0
   -3.6489    2.3760    0.0000 H   0  0  0  0  0  0  0  0  0  0  0  0
    1.9816    2.0859    0.0000 H   0  0  0  0  0  0  0  0  0  0  0  0
    0.1284    2.0859    0.0000 H   0  0  0  0  0  0  0  0  0  0  0  0
    1.0550    2.6209    0.0000 H   0  0  0  0  0  0  0  0  0  0  0  0
    2.4150   -0.2007    0.0000 H   0  0  0  0  0  0  0  0  0  0  0  0
    2.4150    1.6525    0.0000 H   0  0  0  0  0  0  0  0  0  0  0  0
    2.9500    0.7259    0.0000 H   0  0  0  0  0  0  0  0  0  0  0  0
    0.1284   -0.6340    0.0000 H   0  0  0  0  0  0  0  0  0  0  0  0
    1.9816   -0.6340    0.0000 H   0  0  0  0  0  0  0  0  0  0  0  0
    1.0550   -1.1690    0.0000 H   0  0  0  0  0  0  0  0  0  0  0  0
    1.0568   -0.5587    0.0000 H   0  0  0  0  0  0  0  0  0  0  0  0
    0.8136   -1.4209    0.0000 H   0  0  0  0  0  0  0  0  0  0  0  0
    0.9266   -1.0160    0.0000 H   0  0  0  0  0  0  0  0  0  0  0  0
    1.4290   -0.5665    0.0000 H   0  0  0  0  0  0  0  0  0  0  0  0
    1.2167   -2.4985    0.0000 H   0  0  0  0  0  0  0  0  0  0  0  0
    3.7845   -2.0860    0.0000 H   0  0  0  0  0  0  0  0  0  0  0  0
    3.7845   -1.0160    0.0000 H   0  0  0  0  0  0  0  0  0  0  0  0
    2.8579   -4.1855    0.0000 H   0  0  0  0  0  0  0  0  0  0  0  0
    3.5725   -1.7185    0.0000 H   0  0  0  0  0  0  0  0  0  0  0  0
    4.4991   -2.2536    0.0000 H   0  0  0  0  0  0  0  0  0  0  0  0
    4.2866   -4.2710    0.0000 H   0  0  0  0  0  0  0  0  0  0  0  0
    5.2133   -3.7360    0.0000 H   0  0  0  0  0  0  0  0  0  0  0  0
    5.7159   -0.5190    0.0000 H   0  0  0  0  0  0  0  0  0  0  0  0
    4.1075   -1.4475    0.0000 H   0  0  0  0  0  0  0  0  0  0  0  0
    5.7159   -4.2330    0.0000 H   0  0  0  0  0  0  0  0  0  0  0  0
    7.3239   -3.3045    0.0000 H   0  0  0  0  0  0  0  0  0  0  0  0
    7.3239   -1.4475    0.0000 H   0  0  0  0  0  0  0  0  0  0  0  0
    1.9313   -0.1910    0.0000 H   0  0  0  0  0  0  0  0  0  0  0  0
    2.8579    0.3440    0.0000 H   0  0  0  0  0  0  0  0  0  0  0  0
    4.4990   -0.8485    0.0000 H   0  0  0  0  0  0  0  0  0  0  0  0
    4.4990    0.2215    0.0000 H   0  0  0  0  0  0  0  0  0  0  0  0
    2.7198    1.0036    0.0000 H   0  0  0  0  0  0  0  0  0  0  0  0
    5.1393    2.2412    0.0000 H   0  0  0  0  0  0  0  0  0  0  0  0
    5.0012   -0.4731    0.0000 H   0  0  0  0  0  0  0  0  0  0  0  0
    5.8538    1.0037    0.0000 H   0  0  0  0  0  0  0  0  0  0  0  0
   -0.7144   -2.9480    0.0000 H   0  0  0  0  0  0  0  0  0  0  0  0
   -1.2167   -2.4985    0.0000 H   0  0  0  0  0  0  0  0  0  0  0  0
   -2.8580   -0.4810    0.0000 H   0  0  0  0  0  0  0  0  0  0  0  0
   -3.7846   -1.0160    0.0000 H   0  0  0  0  0  0  0  0  0  0  0  0
   -3.5723   -3.0335    0.0000 H   0  0  0  0  0  0  0  0  0  0  0  0
   -4.4990   -2.4985    0.0000 H   0  0  0  0  0  0  0  0  0  0  0  0
   -4.2867   -0.4810    0.0000 H   0  0  0  0  0  0  0  0  0  0  0  0
   -5.2133   -1.0160    0.0000 H   0  0  0  0  0  0  0  0  0  0  0  0
   -5.0012   -2.9480    0.0000 H   0  0  0  0  0  0  0  0  0  0  0  0
   -7.2828   -1.4713    0.0000 H   0  0  0  0  0  0  0  0  0  0  0  0
   -6.4302   -2.9480    0.0000 H   0  0  0  0  0  0  0  0  0  0  0  0
   -4.8632   -0.2337    0.0000 H   0  0  0  0  0  0  0  0  0  0  0  0
   -3.0266   -3.2985    0.0000 H   0  0  0  0  0  0  0  0  0  0  0  0
   -1.2600   -3.2985    0.0000 H   0  0  0  0  0  0  0  0  0  0  0  0
   -3.0605    1.5421    0.0000 H   0  0  0  0  0  0  0  0  0  0  0  0
   -4.6654    0.6152    0.0000 H   0  0  0  0  0  0  0  0  0  0  0  0
   -4.1305    1.5420    0.0000 H   0  0  0  0  0  0  0  0  0  0  0  0
   -4.8240    0.0236    0.0000 H   0  0  0  0  0  0  0  0  0  0  0  0
   -3.8975   -1.5815    0.0000 H   0  0  0  0  0  0  0  0  0  0  0  0
   -4.8241   -1.0464    0.0000 H   0  0  0  0  0  0  0  0  0  0  0  0
   -3.3055   -1.7400    0.0000 H   0  0  0  0  0  0  0  0  0  0  0  0
   -1.7004   -0.8135    0.0000 H   0  0  0  0  0  0  0  0  0  0  0  0
   -2.2355   -1.7401    0.0000 H   0  0  0  0  0  0  0  0  0  0  0  0
  1  2  2  0  0  0  0
  1  6  1  0  0  0  0
  1 10  1  0  0  0  0
  2  3  1  0  0  0  0
  2 58  1  0  0  0  0
  3  4  2  0  0  0  0
  3 54  1  0  0  0  0
  4  5  1  0  0  0  0
  4 59  1  0  0  0  0
  5  7  1  0  0  0  0
  6  5  2  0  0  0  0
  6  9  1  0  0  0  0
  7  8  2  0  0  0  0
  7 18  1  0  0  0  0
  8  9  1  0  0  0  0
  8 14  1  0  0  0  0
  9 60  1  0  0  0  0
 10 11  1  0  0  0  0
 10 12  1  0  0  0  0
 10 13  1  0  0  0  0
 11 61  1  0  0  0  0
 11 62  1  0  0  0  0
 11 63  1  0  0  0  0
 12 64  1  0  0  0  0
 12 65  1  0  0  0  0
 12 66  1  0  0  0  0
 13 67  1  0  0  0  0
 13 68  1  0  0  0  0
 13 69  1  0  0  0  0
 14 15  1  0  0  0  0
 14 16  1  0  0  0  0
 14 17  1  0  0  0  0
 15 70  1  0  0  0  0
 15 71  1  0  0  0  0
 15 72  1  0  0  0  0
 16 73  1  0  0  0  0
 16 74  1  0  0  0  0
 16 75  1  0  0  0  0
 17 76  1  0  0  0  0
 17 77  1  0  0  0  0
 17 78  1  0  0  0  0
 18 79  1  0  0  0  0
 18 80  1  0  0  0  0
 19 18  1  0  0  0  0
 19 20  1  0  0  0  0
 19 42  1  0  0  0  0
 19 81  1  6  0  0  0
 20 21  2  0  0  0  0
 20 22  1  0  0  0  0
 22 23  1  0  0  0  0
 22 82  1  0  0  0  0
 23 24  1  0  0  0  0
 23 25  1  0  0  0  0
 23 83  1  6  0  0  0
 24 26  1  0  0  0  0
 24 27  2  0  0  0  0
 25 36  1  0  0  0  0
 25 84  1  0  0  0  0
 25 85  1  0  0  0  0
 26 28  1  0  0  0  0
 26 86  1  0  0  0  0
 28 29  1  0  0  0  0
 28 87  1  0  0  0  0
 28 88  1  0  0  0  0
 29 30  1  0  0  0  0
 29 89  1  0  0  0  0
 29 90  1  0  0  0  0
 30 33  1  0  0  0  0
 31 32  1  0  0  0  0
 31 35  2  0  0  0  0
 31 91  1  0  0  0  0
 32 30  2  0  0  0  0
 32 92  1  0  0  0  0
 33 34  2  0  0  0  0
 33 93  1  0  0  0  0
 34 35  1  0  0  0  0
 34 94  1  0  0  0  0
 35 95  1  0  0  0  0
 36 37  1  0  0  0  0
 36 96  1  0  0  0  0
 36 97  1  0  0  0  0
 37 38  1  0  0  0  0
 37 98  1  0  0  0  0
 37 99  1  0  0  0  0
 38 39  1  0  0  0  0
 38100  1  0  0  0  0
 39 40  2  0  0  0  0
 39 41  1  0  0  0  0
 40101  1  0  0  0  0
 41102  1  0  0  0  0
 41103  1  0  0  0  0
 42 43  1  0  0  0  0
 42104  1  0  0  0  0
 43 44  1  0  0  0  0
 43 52  2  0  0  0  0
 44 45  1  0  0  0  0
 44 53  1  0  0  0  0
 44105  1  6  0  0  0
 45 46  1  0  0  0  0
 45106  1  0  0  0  0
 45107  1  0  0  0  0
 46 47  1  0  0  0  0
 46108  1  0  0  0  0
 46109  1  0  0  0  0
 47 48  1  0  0  0  0
 47110  1  0  0  0  0
 47111  1  0  0  0  0
 48 49  1  0  0  0  0
 48112  1  0  0  0  0
 49 50  1  0  0  0  0
 49 51  2  0  0  0  0
 50113  1  0  0  0  0
 50114  1  0  0  0  0
 51115  1  0  0  0  0
 53116  1  0  0  0  0
 53117  1  0  0  0  0
 54 55  1  0  0  0  0
 54 56  1  0  0  0  0
 54 57  1  0  0  0  0
 55118  1  0  0  0  0
 55119  1  0  0  0  0
 55120  1  0  0  0  0
 56121  1  0  0  0  0
 56122  1  0  0  0  0
 56123  1  0  0  0  0
 57124  1  0  0  0  0
 57125  1  0  0  0  0
 57126  1  0  0  0  0
M  END
>  <DRUGBANK_ID>
DB12711

>  <COMMON_NAME>
LTX-109

>  <CAS_NUMBER>
1166254-80-3

>  <UNII>
HO813QDF65

$$$$
