265
 OpenBabel10282417072D

 32 32  0  0  0  0  0  0  0  0999 V2000
    4.5080    0.0000    0.0000 O   0  0  0  0  0  0  0  0  0  0  0  0
    3.0791    0.0000    0.0000 N   0  0  0  0  0  0  0  0  0  0  0  0
    3.0791   -0.8250    0.0000 C   0  0  0  0  0  0  0  0  0  0  0  0
    2.3645    0.4125    0.0000 C   0  0  0  0  0  0  0  0  0  0  0  0
    2.3645   -1.2375    0.0000 C   0  0  0  0  0  0  0  0  0  0  0  0
    3.7935   -1.2375    0.0000 C   0  0  0  0  0  0  0  0  0  0  0  0
    3.7935    0.4125    0.0000 C   0  0  0  0  0  0  0  0  0  0  0  0
    2.3645   -2.0625    0.0000 C   0  0  0  0  0  0  0  0  0  0  0  0
    2.3645    1.2375    0.0000 C   0  0  0  0  0  0  0  0  0  0  0  0
    1.6500   -0.8250    0.0000 C   0  0  0  0  0  0  0  0  0  0  0  0
    3.7935   -2.0625    0.0000 C   0  0  0  0  0  0  0  0  0  0  0  0
    3.0791   -2.4751    0.0000 C   0  0  0  0  0  0  0  0  0  0  0  0
    3.7935    1.2375    0.0000 C   0  0  0  0  0  0  0  0  0  0  0  0
    4.5080    1.6500    0.0000 C   0  0  0  0  0  0  0  0  0  0  0  0
    4.5080    2.4751    0.0000 C   0  0  0  0  0  0  0  0  0  0  0  0
    1.4379   -0.1225    0.0000 H   0  0  0  0  0  0  0  0  0  0  0  0
    1.4378    0.9475    0.0000 H   0  0  0  0  0  0  0  0  0  0  0  0
    4.6872   -0.7215    0.0000 H   0  0  0  0  0  0  0  0  0  0  0  0
    1.4708   -2.5785    0.0000 H   0  0  0  0  0  0  0  0  0  0  0  0
    3.2911    1.7725    0.0000 H   0  0  0  0  0  0  0  0  0  0  0  0
    1.4379    1.7725    0.0000 H   0  0  0  0  0  0  0  0  0  0  0  0
    2.3645    2.3075    0.0000 H   0  0  0  0  0  0  0  0  0  0  0  0
    1.6500    0.2450    0.0000 H   0  0  0  0  0  0  0  0  0  0  0  0
    0.7234   -1.3600    0.0000 H   0  0  0  0  0  0  0  0  0  0  0  0
    0.7233   -0.2900    0.0000 H   0  0  0  0  0  0  0  0  0  0  0  0
    4.6873   -2.5784    0.0000 H   0  0  0  0  0  0  0  0  0  0  0  0
    3.0792   -3.5071    0.0000 H   0  0  0  0  0  0  0  0  0  0  0  0
    2.8998    1.7535    0.0000 H   0  0  0  0  0  0  0  0  0  0  0  0
    5.4017    1.1340    0.0000 H   0  0  0  0  0  0  0  0  0  0  0  0
    5.4346    3.0101    0.0000 H   0  0  0  0  0  0  0  0  0  0  0  0
    3.5814    3.0101    0.0000 H   0  0  0  0  0  0  0  0  0  0  0  0
    4.5080    3.5451    0.0000 H   0  0  0  0  0  0  0  0  0  0  0  0
  1  7  2  0  0  0  0
  2  3  1  0  0  0  0
  2  4  1  0  0  0  0
  2  7  1  0  0  0  0
  3  5  1  0  0  0  0
  3  6  2  0  0  0  0
  4  9  1  0  0  0  0
  4 16  1  0  0  0  0
  4 17  1  0  0  0  0
  5  8  2  0  0  0  0
  5 10  1  0  0  0  0
  6 11  1  0  0  0  0
  6 18  1  0  0  0  0
  7 13  1  0  0  0  0
  8 12  1  0  0  0  0
  8 19  1  0  0  0  0
  9 20  1  0  0  0  0
  9 21  1  0  0  0  0
  9 22  1  0  0  0  0
 10 23  1  0  0  0  0
 10 24  1  0  0  0  0
 10 25  1  0  0  0  0
 11 12  2  0  0  0  0
 11 26  1  0  0  0  0
 12 27  1  0  0  0  0
 13 14  2  3  0  0  0
 13 28  1  0  0  0  0
 14 15  1  0  0  0  0
 14 29  1  0  0  0  0
 15 30  1  0  0  0  0
 15 31  1  0  0  0  0
 15 32  1  0  0  0  0
M  END
>  <DRUGBANK_ID>
DB00265

>  <SECONDARY_ACCESSION_NUMBERS>
APRD00211

>  <COMMON_NAME>
Crotamiton

>  <CAS_NUMBER>
483-63-6

>  <UNII>
2EEH27851Y

>  <SYNONYMS>
Crotamiton

$$$$
