
 OpenBabel10282417072D

 68 71  0  0  0  0  0  0  0  0999 V2000
    1.7074    1.2451    0.0000 O   0  0  0  0  0  0  0  0  0  0  0  0
   -3.3744   -2.3249    0.0000 O   0  0  0  0  0  0  0  0  0  0  0  0
    1.0799    2.3249    0.0000 O   0  0  0  0  0  0  0  0  0  0  0  0
    0.9179   -0.6580    0.0000 C   0  0  1  0  0  0  0  0  0  0  0  0
    0.2497   -1.0697    0.0000 C   0  0  1  0  0  0  0  0  0  0  0  0
    0.9179    0.1585    0.0000 C   0  0  1  0  0  0  0  0  0  0  0  0
   -0.4994   -0.6580    0.0000 C   0  0  1  0  0  0  0  0  0  0  0  0
    1.7074    0.4083    0.0000 C   0  0  2  0  0  0  0  0  0  0  0  0
   -1.1945   -1.0697    0.0000 C   0  0  2  0  0  0  0  0  0  0  0  0
    1.7074   -0.9077    0.0000 C   0  0  0  0  0  0  0  0  0  0  0  0
    0.2497    0.5837    0.0000 C   0  0  0  0  0  0  0  0  0  0  0  0
   -0.4994    0.1585    0.0000 C   0  0  0  0  0  0  0  0  0  0  0  0
    0.2497   -1.8998    0.0000 C   0  0  0  0  0  0  0  0  0  0  0  0
    2.1866   -0.2329    0.0000 C   0  0  0  0  0  0  0  0  0  0  0  0
   -1.1945   -1.8998    0.0000 C   0  0  0  0  0  0  0  0  0  0  0  0
    0.9179    0.9954    0.0000 C   0  0  0  0  0  0  0  0  0  0  0  0
   -0.4994   -2.2980    0.0000 C   0  0  0  0  0  0  0  0  0  0  0  0
   -1.9167   -0.6580    0.0000 C   0  0  0  0  0  0  0  0  0  0  0  0
    2.5375    0.4083    0.0000 C   0  0  0  0  0  0  0  0  0  0  0  0
   -1.9167   -2.2980    0.0000 C   0  0  0  0  0  0  0  0  0  0  0  0
   -2.6320   -1.0697    0.0000 C   0  0  0  0  0  0  0  0  0  0  0  0
   -2.6320   -1.8998    0.0000 C   0  0  0  0  0  0  0  0  0  0  0  0
    1.0799    1.6163    0.0000 C   0  0  0  0  0  0  0  0  0  0  0  0
    3.3744    0.4083    0.0000 C   0  0  0  0  0  0  0  0  0  0  0  0
    0.4791    1.2451    0.0000 C   0  0  0  0  0  0  0  0  0  0  0  0
   -0.1484    1.6163    0.0000 C   0  0  0  0  0  0  0  0  0  0  0  0
   -0.7491    1.2451    0.0000 C   0  0  0  0  0  0  0  0  0  0  0  0
   -1.3498    1.6163    0.0000 C   0  0  0  0  0  0  0  0  0  0  0  0
   -1.9841    1.2451    0.0000 C   0  0  0  0  0  0  0  0  0  0  0  0
   -2.6118    1.6163    0.0000 C   0  0  0  0  0  0  0  0  0  0  0  0
    0.9179   -1.4881    0.0000 H   0  0  0  0  0  0  0  0  0  0  0  0
    0.2497   -0.2329    0.0000 H   0  0  0  0  0  0  0  0  0  0  0  0
   -0.4994   -1.4881    0.0000 H   0  0  0  0  0  0  0  0  0  0  0  0
   -1.1945   -0.2329    0.0000 H   0  0  0  0  0  0  0  0  0  0  0  0
    2.0475   -1.9222    0.0000 H   0  0  0  0  0  0  0  0  0  0  0  0
    2.7659   -1.0644    0.0000 H   0  0  0  0  0  0  0  0  0  0  0  0
    0.2767    1.6534    0.0000 H   0  0  0  0  0  0  0  0  0  0  0  0
   -0.6681    1.1337    0.0000 H   0  0  0  0  0  0  0  0  0  0  0  0
   -1.4241    0.6969    0.0000 H   0  0  0  0  0  0  0  0  0  0  0  0
   -0.4935    1.2285    0.0000 H   0  0  0  0  0  0  0  0  0  0  0  0
    1.1668   -2.4509    0.0000 H   0  0  0  0  0  0  0  0  0  0  0  0
    0.2216   -2.9694    0.0000 H   0  0  0  0  0  0  0  0  0  0  0  0
    3.2565   -0.2199    0.0000 H   0  0  0  0  0  0  0  0  0  0  0  0
    2.6833   -1.1806    0.0000 H   0  0  0  0  0  0  0  0  0  0  0  0
    1.8445    1.5304    0.0000 H   0  0  0  0  0  0  0  0  0  0  0  0
   -0.0087    1.5304    0.0000 H   0  0  0  0  0  0  0  0  0  0  0  0
    0.9179    2.0654    0.0000 H   0  0  0  0  0  0  0  0  0  0  0  0
   -0.5163   -3.3679    0.0000 H   0  0  0  0  0  0  0  0  0  0  0  0
   -1.4294   -2.8272    0.0000 H   0  0  0  0  0  0  0  0  0  0  0  0
   -1.9189    0.4120    0.0000 H   0  0  0  0  0  0  0  0  0  0  0  0
   -2.8435   -0.1233    0.0000 H   0  0  0  0  0  0  0  0  0  0  0  0
   -1.9188   -3.3300    0.0000 H   0  0  0  0  0  0  0  0  0  0  0  0
   -3.5583   -0.5341    0.0000 H   0  0  0  0  0  0  0  0  0  0  0  0
   -3.5588   -1.6044    0.0000 H   0  0  0  0  0  0  0  0  0  0  0  0
    4.3684    0.4083    0.0000 H   0  0  0  0  0  0  0  0  0  0  0  0
    0.4894    0.1751    0.0000 H   0  0  0  0  0  0  0  0  0  0  0  0
   -0.4478    0.7105    0.0000 H   0  0  0  0  0  0  0  0  0  0  0  0
   -0.1587    2.6863    0.0000 H   0  0  0  0  0  0  0  0  0  0  0  0
   -1.0855    2.1329    0.0000 H   0  0  0  0  0  0  0  0  0  0  0  0
   -0.7491    0.1751    0.0000 H   0  0  0  0  0  0  0  0  0  0  0  0
   -1.6836    0.7240    0.0000 H   0  0  0  0  0  0  0  0  0  0  0  0
   -1.3369    2.6862    0.0000 H   0  0  0  0  0  0  0  0  0  0  0  0
   -2.2748    2.1541    0.0000 H   0  0  0  0  0  0  0  0  0  0  0  0
   -1.9865    0.1751    0.0000 H   0  0  0  0  0  0  0  0  0  0  0  0
   -2.9141    0.7160    0.0000 H   0  0  0  0  0  0  0  0  0  0  0  0
   -2.6006    2.6862    0.0000 H   0  0  0  0  0  0  0  0  0  0  0  0
   -3.5440    1.0910    0.0000 H   0  0  0  0  0  0  0  0  0  0  0  0
   -3.5328    2.1610    0.0000 H   0  0  0  0  0  0  0  0  0  0  0  0
  1 23  1  0  0  0  0
  2 22  2  0  0  0  0
  3 23  2  0  0  0  0
  4  5  1  0  0  0  0
  4  6  1  0  0  0  0
  4 10  1  0  0  0  0
  4 31  1  6  0  0  0
  5  7  1  0  0  0  0
  5 13  1  0  0  0  0
  5 32  1  1  0  0  0
  6  8  1  0  0  0  0
  6 11  1  0  0  0  0
  6 16  1  1  0  0  0
  7  9  1  0  0  0  0
  7 12  1  0  0  0  0
  7 33  1  6  0  0  0
  8  1  1  0  0  0  0
  8 14  1  0  0  0  0
  8 19  1  6  0  0  0
  9 15  1  0  0  0  0
  9 18  1  0  0  0  0
  9 34  1  1  0  0  0
 10 14  1  0  0  0  0
 10 35  1  0  0  0  0
 10 36  1  0  0  0  0
 11 12  1  0  0  0  0
 11 37  1  0  0  0  0
 11 38  1  0  0  0  0
 12 39  1  0  0  0  0
 12 40  1  0  0  0  0
 13 17  1  0  0  0  0
 13 41  1  0  0  0  0
 13 42  1  0  0  0  0
 14 43  1  0  0  0  0
 14 44  1  0  0  0  0
 15 17  1  0  0  0  0
 15 20  2  0  0  0  0
 16 45  1  0  0  0  0
 16 46  1  0  0  0  0
 16 47  1  0  0  0  0
 17 48  1  0  0  0  0
 17 49  1  0  0  0  0
 18 21  1  0  0  0  0
 18 50  1  0  0  0  0
 18 51  1  0  0  0  0
 19 24  3  0  0  0  0
 20 22  1  0  0  0  0
 20 52  1  0  0  0  0
 21 22  1  0  0  0  0
 21 53  1  0  0  0  0
 21 54  1  0  0  0  0
 23 25  1  0  0  0  0
 24 55  1  0  0  0  0
 25 26  1  0  0  0  0
 25 56  1  0  0  0  0
 25 57  1  0  0  0  0
 26 27  1  0  0  0  0
 26 58  1  0  0  0  0
 26 59  1  0  0  0  0
 27 28  1  0  0  0  0
 27 60  1  0  0  0  0
 27 61  1  0  0  0  0
 28 29  1  0  0  0  0
 28 62  1  0  0  0  0
 28 63  1  0  0  0  0
 29 30  1  0  0  0  0
 29 64  1  0  0  0  0
 29 65  1  0  0  0  0
 30 66  1  0  0  0  0
 30 67  1  0  0  0  0
 30 68  1  0  0  0  0
M  END
>  <DRUGBANK_ID>
DB14678

>  <COMMON_NAME>
Norethindrone enanthate

>  <CAS_NUMBER>
3836-23-5

>  <UNII>
HY3S2K0J0F

>  <SYNONYMS>
Norethisterone enanthate; Norethisterone oenanthate

$$$$
