
 OpenBabel10282417072D

 88 94  0  0  0  0  0  0  0  0999 V2000
    0.3589    2.3805    0.0000 C   0  0  0  0  0  0  0  0  0  0  0  0
    1.0735    1.9667    0.0000 C   0  0  0  0  0  0  0  0  0  0  0  0
   -0.3554    1.9703    0.0000 C   0  0  2  0  0  0  0  0  0  0  0  0
    0.3625    3.2047    0.0000 C   0  0  0  0  0  0  0  0  0  0  0  0
    1.7916    2.3805    0.0000 C   0  0  0  0  0  0  0  0  0  0  0  0
    0.2423   -0.0353    0.0000 O   0  0  0  0  0  0  0  0  0  0  0  0
   -0.3590    1.1461    0.0000 C   0  0  0  0  0  0  0  0  0  0  0  0
   -1.0701    2.3876    0.0000 N   0  0  0  0  0  0  0  0  0  0  0  0
    1.0735    3.6186    0.0000 C   0  0  0  0  0  0  0  0  0  0  0  0
   -0.3483    3.6221    0.0000 C   0  0  0  0  0  0  0  0  0  0  0  0
    1.7916    3.2047    0.0000 C   0  0  0  0  0  0  0  0  0  0  0  0
    2.5062    1.9667    0.0000 O   0  0  0  0  0  0  0  0  0  0  0  0
    0.9780   -0.4102    0.0000 C   0  0  0  0  0  0  0  0  0  0  0  0
   -1.0735    0.7392    0.0000 C   0  0  0  0  0  0  0  0  0  0  0  0
   -1.0523    3.2047    0.0000 C   0  0  0  0  0  0  0  0  0  0  0  0
   -1.7845    1.9879    0.0000 C   0  0  0  0  0  0  0  0  0  0  0  0
    2.5062    3.6186    0.0000 O   0  0  0  0  0  0  0  0  0  0  0  0
    3.2101    2.3805    0.0000 C   0  0  0  0  0  0  0  0  0  0  0  0
    1.0204   -1.2344    0.0000 C   0  0  0  0  0  0  0  0  0  0  0  0
    1.6713    0.0423    0.0000 C   0  0  0  0  0  0  0  0  0  0  0  0
   -1.0735   -0.0849    0.0000 C   0  0  0  0  0  0  0  0  0  0  0  0
   -1.7845    1.1567    0.0000 C   0  0  0  0  0  0  0  0  0  0  0  0
    3.2172    3.2119    0.0000 C   0  0  0  0  0  0  0  0  0  0  0  0
    1.7562   -1.6094    0.0000 C   0  0  0  0  0  0  0  0  0  0  0  0
    2.4106   -0.3395    0.0000 C   0  0  0  0  0  0  0  0  0  0  0  0
    1.6289    0.8666    0.0000 O   0  0  0  0  0  0  0  0  0  0  0  0
   -1.7916   -0.4952    0.0000 C   0  0  0  0  0  0  0  0  0  0  0  0
   -2.5026    0.7463    0.0000 C   0  0  0  0  0  0  0  0  0  0  0  0
    2.4459   -1.1602    0.0000 C   0  0  0  0  0  0  0  0  0  0  0  0
    1.7987   -2.4336    0.0000 C   0  0  2  0  0  0  0  0  0  0  0  0
    2.3221    1.3123    0.0000 C   0  0  0  0  0  0  0  0  0  0  0  0
   -2.5062   -0.0814    0.0000 C   0  0  0  0  0  0  0  0  0  0  0  0
   -1.7951   -1.3229    0.0000 O   0  0  0  0  0  0  0  0  0  0  0  0
    3.1818   -1.5246    0.0000 C   0  0  0  0  0  0  0  0  0  0  0  0
    1.1053   -2.8828    0.0000 C   0  0  0  0  0  0  0  0  0  0  0  0
    2.5380   -2.8015    0.0000 N   0  0  0  0  0  0  0  0  0  0  0  0
   -3.2172   -0.4846    0.0000 O   0  0  0  0  0  0  0  0  0  0  0  0
   -1.0735   -1.7191    0.0000 C   0  0  0  0  0  0  0  0  0  0  0  0
    3.2172   -2.3453    0.0000 C   0  0  0  0  0  0  0  0  0  0  0  0
    0.3730   -2.5114    0.0000 C   0  0  0  0  0  0  0  0  0  0  0  0
    2.5840   -3.6221    0.0000 C   0  0  0  0  0  0  0  0  0  0  0  0
   -3.2172   -1.3123    0.0000 C   0  0  0  0  0  0  0  0  0  0  0  0
   -0.3661   -1.2875    0.0000 C   0  0  0  0  0  0  0  0  0  0  0  0
   -1.0559   -2.5468    0.0000 C   0  0  0  0  0  0  0  0  0  0  0  0
    0.3589   -1.6836    0.0000 C   0  0  0  0  0  0  0  0  0  0  0  0
   -0.3307   -2.9395    0.0000 C   0  0  0  0  0  0  0  0  0  0  0  0
    0.5695    1.4322    0.0000 H   0  0  0  0  0  0  0  0  0  0  0  0
    0.5649    0.6063    0.0000 H   0  0  0  0  0  0  0  0  0  0  0  0
   -0.3649    0.0761    0.0000 H   0  0  0  0  0  0  0  0  0  0  0  0
    1.0713    4.6506    0.0000 H   0  0  0  0  0  0  0  0  0  0  0  0
   -0.3506    4.6921    0.0000 H   0  0  0  0  0  0  0  0  0  0  0  0
   -1.2786    4.1507    0.0000 H   0  0  0  0  0  0  0  0  0  0  0  0
   -1.9762    3.7444    0.0000 H   0  0  0  0  0  0  0  0  0  0  0  0
   -1.0558    4.2747    0.0000 H   0  0  0  0  0  0  0  0  0  0  0  0
   -2.7038    2.5354    0.0000 H   0  0  0  0  0  0  0  0  0  0  0  0
   -1.7989    0.9180    0.0000 H   0  0  0  0  0  0  0  0  0  0  0  0
   -2.7183    1.4655    0.0000 H   0  0  0  0  0  0  0  0  0  0  0  0
    4.1409    1.8528    0.0000 H   0  0  0  0  0  0  0  0  0  0  0  0
    3.2017    3.4505    0.0000 H   0  0  0  0  0  0  0  0  0  0  0  0
    4.1325    2.9228    0.0000 H   0  0  0  0  0  0  0  0  0  0  0  0
    0.1546   -1.7960    0.0000 H   0  0  0  0  0  0  0  0  0  0  0  0
   -0.1809   -0.6029    0.0000 H   0  0  0  0  0  0  0  0  0  0  0  0
   -1.7784    2.1887    0.0000 H   0  0  0  0  0  0  0  0  0  0  0  0
    3.2215    2.1419    0.0000 H   0  0  0  0  0  0  0  0  0  0  0  0
    4.1417    3.7506    0.0000 H   0  0  0  0  0  0  0  0  0  0  0  0
    4.1460    2.6806    0.0000 H   0  0  0  0  0  0  0  0  0  0  0  0
    3.2803    0.2161    0.0000 H   0  0  0  0  0  0  0  0  0  0  0  0
   -3.3941    1.2662    0.0000 H   0  0  0  0  0  0  0  0  0  0  0  0
    0.8458   -1.9469    0.0000 H   0  0  0  0  0  0  0  0  0  0  0  0
    3.2733    0.8222    0.0000 H   0  0  0  0  0  0  0  0  0  0  0  0
    2.2710    2.3811    0.0000 H   0  0  0  0  0  0  0  0  0  0  0  0
    3.2221    1.8910    0.0000 H   0  0  0  0  0  0  0  0  0  0  0  0
    4.0785   -0.9408    0.0000 H   0  0  0  0  0  0  0  0  0  0  0  0
    4.1332   -2.0143    0.0000 H   0  0  0  0  0  0  0  0  0  0  0  0
    1.1617   -3.9513    0.0000 H   0  0  0  0  0  0  0  0  0  0  0  0
    0.2086   -3.4666    0.0000 H   0  0  0  0  0  0  0  0  0  0  0  0
    4.1721   -2.8281    0.0000 H   0  0  0  0  0  0  0  0  0  0  0  0
    3.2831   -3.4133    0.0000 H   0  0  0  0  0  0  0  0  0  0  0  0
    1.6887   -4.2081    0.0000 H   0  0  0  0  0  0  0  0  0  0  0  0
    3.5391   -4.1044    0.0000 H   0  0  0  0  0  0  0  0  0  0  0  0
    2.6439   -4.6904    0.0000 H   0  0  0  0  0  0  0  0  0  0  0  0
   -4.1438   -1.8473    0.0000 H   0  0  0  0  0  0  0  0  0  0  0  0
   -2.2906   -1.8473    0.0000 H   0  0  0  0  0  0  0  0  0  0  0  0
   -3.2172   -2.3823    0.0000 H   0  0  0  0  0  0  0  0  0  0  0  0
   -0.3908   -0.2558    0.0000 H   0  0  0  0  0  0  0  0  0  0  0  0
   -1.9368   -3.0843    0.0000 H   0  0  0  0  0  0  0  0  0  0  0  0
    1.2420   -1.1496    0.0000 H   0  0  0  0  0  0  0  0  0  0  0  0
   -0.3048   -3.9712    0.0000 H   0  0  0  0  0  0  0  0  0  0  0  0
  1  2  1  0  0  0  0
  1  3  1  0  0  0  0
  1  4  2  0  0  0  0
  2  5  2  0  0  0  0
  2  6  1  0  0  0  0
  3  7  1  0  0  0  0
  3  8  1  0  0  0  0
  3 47  1  1  0  0  0
  4  9  1  0  0  0  0
  4 10  1  0  0  0  0
  5 11  1  0  0  0  0
  5 12  1  0  0  0  0
  6 13  1  0  0  0  0
  7 14  1  0  0  0  0
  7 48  1  0  0  0  0
  7 49  1  0  0  0  0
  8 15  1  0  0  0  0
  8 16  1  0  0  0  0
  9 11  2  0  0  0  0
  9 50  1  0  0  0  0
 10 15  1  0  0  0  0
 10 51  1  0  0  0  0
 10 52  1  0  0  0  0
 11 17  1  0  0  0  0
 12 18  1  0  0  0  0
 13 19  2  0  0  0  0
 13 20  1  0  0  0  0
 14 21  1  0  0  0  0
 14 22  2  0  0  0  0
 15 53  1  0  0  0  0
 15 54  1  0  0  0  0
 16 55  1  0  0  0  0
 16 56  1  0  0  0  0
 16 57  1  0  0  0  0
 17 23  1  0  0  0  0
 18 58  1  0  0  0  0
 18 59  1  0  0  0  0
 18 60  1  0  0  0  0
 19 24  1  0  0  0  0
 19 61  1  0  0  0  0
 20 25  2  0  0  0  0
 20 26  1  0  0  0  0
 21 27  2  0  0  0  0
 21 62  1  0  0  0  0
 22 28  1  0  0  0  0
 22 63  1  0  0  0  0
 23 64  1  0  0  0  0
 23 65  1  0  0  0  0
 23 66  1  0  0  0  0
 24 29  2  0  0  0  0
 24 30  1  0  0  0  0
 25 29  1  0  0  0  0
 25 67  1  0  0  0  0
 26 31  1  0  0  0  0
 27 32  1  0  0  0  0
 27 33  1  0  0  0  0
 28 32  2  0  0  0  0
 28 68  1  0  0  0  0
 29 34  1  0  0  0  0
 30 35  1  0  0  0  0
 30 36  1  0  0  0  0
 30 69  1  6  0  0  0
 31 70  1  0  0  0  0
 31 71  1  0  0  0  0
 31 72  1  0  0  0  0
 32 37  1  0  0  0  0
 33 38  1  0  0  0  0
 34 39  1  0  0  0  0
 34 73  1  0  0  0  0
 34 74  1  0  0  0  0
 35 40  1  0  0  0  0
 35 75  1  0  0  0  0
 35 76  1  0  0  0  0
 36 41  1  0  0  0  0
 36 39  1  0  0  0  0
 37 42  1  0  0  0  0
 38 43  1  0  0  0  0
 38 44  2  0  0  0  0
 39 77  1  0  0  0  0
 39 78  1  0  0  0  0
 40 45  1  0  0  0  0
 40 46  2  0  0  0  0
 41 79  1  0  0  0  0
 41 80  1  0  0  0  0
 41 81  1  0  0  0  0
 42 82  1  0  0  0  0
 42 83  1  0  0  0  0
 42 84  1  0  0  0  0
 43 45  2  0  0  0  0
 43 85  1  0  0  0  0
 44 46  1  0  0  0  0
 44 86  1  0  0  0  0
 45 87  1  0  0  0  0
 46 88  1  0  0  0  0
M  END
>  <DRUGBANK_ID>
DB14066

>  <COMMON_NAME>
Tetrandrine

>  <CAS_NUMBER>
518-34-3

>  <UNII>
29EX23D5AJ

>  <SYNONYMS>
(+)-Tetrandrine; (S,S)-Tetrandrine; D-Tetrandrine; Fanchinine; Hanjisong; Sinomenine A

$$$$
