
 OpenBabel10282417072D

 55 57  0  0  0  0  0  0  0  0999 V2000
    0.6364   -2.7397    0.0000 C   0  0  0  0  0  0  0  0  0  0  0  0
    0.8913   -1.9551    0.0000 C   0  0  0  0  0  0  0  0  0  0  0  0
    1.7163   -1.9551    0.0000 S   0  0  0  0  0  0  0  0  0  0  0  0
    1.9712   -2.7397    0.0000 C   0  0  0  0  0  0  0  0  0  0  0  0
    1.3038   -3.2246    0.0000 C   0  0  0  0  0  0  0  0  0  0  0  0
    1.3038   -4.0496    0.0000 C   0  0  3  0  0  0  0  0  0  0  0  0
    0.5893   -4.4621    0.0000 C   0  0  0  0  0  0  0  0  0  0  0  0
    0.5893   -5.2871    0.0000 C   0  0  0  0  0  0  0  0  0  0  0  0
   -0.1251   -5.6996    0.0000 C   0  0  0  0  0  0  0  0  0  0  0  0
   -0.8396   -5.2871    0.0000 C   0  0  0  0  0  0  0  0  0  0  0  0
   -0.8396   -4.4621    0.0000 C   0  0  0  0  0  0  0  0  0  0  0  0
   -0.1251   -4.0496    0.0000 C   0  0  0  0  0  0  0  0  0  0  0  0
    2.0183   -4.4621    0.0000 C   0  0  0  0  0  0  0  0  0  0  0  0
    2.0183   -5.2871    0.0000 O   0  0  0  0  0  0  0  0  0  0  0  0
    2.7327   -4.0496    0.0000 O   0  0  0  0  0  0  0  0  0  0  0  0
    3.4472   -4.4621    0.0000 C   0  0  0  0  0  0  0  0  0  0  0  0
    4.1617   -4.0496    0.0000 C   0  0  0  0  0  0  0  0  0  0  0  0
    4.8762   -4.4621    0.0000 N   0  0  0  0  0  0  0  0  0  0  0  0
    5.5578   -3.9974    0.0000 C   0  0  0  0  0  0  0  0  0  0  0  0
    6.3462   -4.2405    0.0000 C   0  0  0  0  0  0  0  0  0  0  0  0
    6.6476   -5.0085    0.0000 C   0  0  0  0  0  0  0  0  0  0  0  0
    6.2351   -5.7230    0.0000 C   0  0  0  0  0  0  0  0  0  0  0  0
    5.4193   -5.8459    0.0000 C   0  0  0  0  0  0  0  0  0  0  0  0
    4.8145   -5.2848    0.0000 C   0  0  0  0  0  0  0  0  0  0  0  0
   -0.3451   -3.0586    0.0000 H   0  0  0  0  0  0  0  0  0  0  0  0
    0.2847   -1.1202    0.0000 H   0  0  0  0  0  0  0  0  0  0  0  0
    2.9527   -3.0586    0.0000 H   0  0  0  0  0  0  0  0  0  0  0  0
    0.3772   -3.5146    0.0000 H   0  0  0  0  0  0  0  0  0  0  0  0
   -0.3374   -4.9971    0.0000 H   0  0  0  0  0  0  0  0  0  0  0  0
    1.5160   -5.8221    0.0000 H   0  0  0  0  0  0  0  0  0  0  0  0
    0.5893   -6.3571    0.0000 H   0  0  0  0  0  0  0  0  0  0  0  0
   -0.1251   -6.7696    0.0000 H   0  0  0  0  0  0  0  0  0  0  0  0
   -1.0517   -6.2346    0.0000 H   0  0  0  0  0  0  0  0  0  0  0  0
   -1.7662   -5.8221    0.0000 H   0  0  0  0  0  0  0  0  0  0  0  0
   -1.7662   -4.7521    0.0000 H   0  0  0  0  0  0  0  0  0  0  0  0
   -1.7662   -3.9271    0.0000 H   0  0  0  0  0  0  0  0  0  0  0  0
   -0.8396   -3.3921    0.0000 H   0  0  0  0  0  0  0  0  0  0  0  0
   -0.1251   -2.9796    0.0000 H   0  0  0  0  0  0  0  0  0  0  0  0
    0.8016   -3.5146    0.0000 H   0  0  0  0  0  0  0  0  0  0  0  0
    3.4472   -5.5321    0.0000 H   0  0  0  0  0  0  0  0  0  0  0  0
    4.3738   -4.9971    0.0000 H   0  0  0  0  0  0  0  0  0  0  0  0
    4.1617   -2.9796    0.0000 H   0  0  0  0  0  0  0  0  0  0  0  0
    5.0883   -3.5146    0.0000 H   0  0  0  0  0  0  0  0  0  0  0  0
    5.3983   -2.9394    0.0000 H   0  0  0  0  0  0  0  0  0  0  0  0
    6.3688   -3.2994    0.0000 H   0  0  0  0  0  0  0  0  0  0  0  0
    7.0740   -3.4561    0.0000 H   0  0  0  0  0  0  0  0  0  0  0  0
    7.3975   -4.4394    0.0000 H   0  0  0  0  0  0  0  0  0  0  0  0
    7.7146   -5.0885    0.0000 H   0  0  0  0  0  0  0  0  0  0  0  0
    7.1476   -5.9545    0.0000 H   0  0  0  0  0  0  0  0  0  0  0  0
    6.8378   -6.6071    0.0000 H   0  0  0  0  0  0  0  0  0  0  0  0
    5.8072   -6.7037    0.0000 H   0  0  0  0  0  0  0  0  0  0  0  0
    5.1039   -6.8684    0.0000 H   0  0  0  0  0  0  0  0  0  0  0  0
    4.3858   -6.1229    0.0000 H   0  0  0  0  0  0  0  0  0  0  0  0
    3.8185   -5.6757    0.0000 H   0  0  0  0  0  0  0  0  0  0  0  0
    3.9536   -4.6494    0.0000 H   0  0  0  0  0  0  0  0  0  0  0  0
  1  2  2  0  0  0  0
  1  5  1  0  0  0  0
  1 25  1  0  0  0  0
  2  3  1  0  0  0  0
  2 26  1  0  0  0  0
  3  4  1  0  0  0  0
  4  5  2  0  0  0  0
  4 27  1  0  0  0  0
  5  6  1  0  0  0  0
  6  7  1  0  0  0  0
  6 13  1  0  0  0  0
  6 28  1  0  0  0  0
  7  8  1  0  0  0  0
  7 12  1  0  0  0  0
  7 29  1  0  0  0  0
  8  9  1  0  0  0  0
  8 30  1  0  0  0  0
  8 31  1  0  0  0  0
  9 10  1  0  0  0  0
  9 32  1  0  0  0  0
  9 33  1  0  0  0  0
 10 11  1  0  0  0  0
 10 34  1  0  0  0  0
 10 35  1  0  0  0  0
 11 12  1  0  0  0  0
 11 36  1  0  0  0  0
 11 37  1  0  0  0  0
 12 38  1  0  0  0  0
 12 39  1  0  0  0  0
 13 14  2  0  0  0  0
 13 15  1  0  0  0  0
 15 16  1  0  0  0  0
 16 17  1  0  0  0  0
 16 40  1  0  0  0  0
 16 41  1  0  0  0  0
 17 18  1  0  0  0  0
 17 42  1  0  0  0  0
 17 43  1  0  0  0  0
 18 19  1  0  0  0  0
 18 24  1  0  0  0  0
 19 20  1  0  0  0  0
 19 44  1  0  0  0  0
 19 45  1  0  0  0  0
 20 21  1  0  0  0  0
 20 46  1  0  0  0  0
 20 47  1  0  0  0  0
 21 22  1  0  0  0  0
 21 48  1  0  0  0  0
 21 49  1  0  0  0  0
 22 23  1  0  0  0  0
 22 50  1  0  0  0  0
 22 51  1  0  0  0  0
 23 24  1  0  0  0  0
 23 52  1  0  0  0  0
 23 53  1  0  0  0  0
 24 54  1  0  0  0  0
 24 55  1  0  0  0  0
M  END
>  <DRUGBANK_ID>
DB13753

>  <COMMON_NAME>
Cetiedil

>  <CAS_NUMBER>
14176-10-4

>  <UNII>
621RT200TO

>  <SYNONYMS>
Cetiedil

$$$$
