
 OpenBabel10282417072D

 66 70  0  0  1  0  0  0  0  0999 V2000
    1.4521    1.0550    0.0000 C   0  0  0  0  0  0  0  0  0  0  0  0
    0.6674    1.3099    0.0000 C   0  0  0  0  0  0  0  0  0  0  0  0
    0.0000    0.8250    0.0000 C   0  0  0  0  0  0  0  0  0  0  0  0
   -0.6674    1.3099    0.0000 C   0  0  0  0  0  0  0  0  0  0  0  0
   -0.4125    2.0945    0.0000 C   0  0  0  0  0  0  0  0  0  0  0  0
    0.4125    2.0945    0.0000 S   0  0  0  0  0  0  0  0  0  0  0  0
   -0.8974    2.7620    0.0000 C   0  0  0  0  0  0  0  0  0  0  0  0
   -1.7179    2.6757    0.0000 O   0  0  0  0  0  0  0  0  0  0  0  0
   -0.5619    3.5157    0.0000 C   0  0  0  0  0  0  0  0  0  0  0  0
   -1.0468    4.1831    0.0000 C   0  0  0  0  0  0  0  0  0  0  0  0
   -1.8673    4.0969    0.0000 N   0  0  0  0  0  0  0  0  0  0  0  0
   -2.3522    4.7643    0.0000 C   0  0  1  0  0  0  0  0  0  0  0  0
   -3.1772    4.7643    0.0000 C   0  0  0  0  0  0  0  0  0  0  0  0
   -3.4321    5.5489    0.0000 C   0  0  2  0  0  0  0  0  0  0  0  0
   -4.2168    5.8039    0.0000 O   0  0  0  0  0  0  0  0  0  0  0  0
   -2.7647    6.0338    0.0000 C   0  0  1  0  0  0  0  0  0  0  0  0
   -2.7647    6.8588    0.0000 C   0  0  0  0  0  0  0  0  0  0  0  0
   -3.4792    7.2713    0.0000 O   0  0  0  0  0  0  0  0  0  0  0  0
   -3.4792    8.0963    0.0000 S   0  0  0  0  0  0  0  0  0  0  0  0
   -3.4792    8.9213    0.0000 N   0  0  0  0  0  0  0  0  0  0  0  0
   -4.3042    8.0963    0.0000 O   0  0  0  0  0  0  0  0  0  0  0  0
   -2.6542    8.0963    0.0000 O   0  0  0  0  0  0  0  0  0  0  0  0
   -2.0973    5.5489    0.0000 C   0  0  0  0  0  0  0  0  0  0  0  0
   -0.7112    4.9368    0.0000 N   0  0  0  0  0  0  0  0  0  0  0  0
    0.1093    5.0230    0.0000 C   0  0  0  0  0  0  0  0  0  0  0  0
    0.5942    4.3556    0.0000 N   0  0  0  0  0  0  0  0  0  0  0  0
    0.2586    3.6019    0.0000 C   0  0  0  0  0  0  0  0  0  0  0  0
    0.0000   -0.0000    0.0000 C   0  0  2  0  0  0  0  0  0  0  0  0
   -0.7145   -0.4125    0.0000 N   0  0  0  0  0  0  0  0  0  0  0  0
   -0.7145   -1.2375    0.0000 C   0  0  0  0  0  0  0  0  0  0  0  0
    0.0000   -1.6500    0.0000 C   0  0  0  0  0  0  0  0  0  0  0  0
    0.7145   -1.2375    0.0000 C   0  0  0  0  0  0  0  0  0  0  0  0
    0.7145   -0.4125    0.0000 C   0  0  0  0  0  0  0  0  0  0  0  0
    1.4289   -0.0000    0.0000 C   0  0  0  0  0  0  0  0  0  0  0  0
    2.1434   -0.4125    0.0000 C   0  0  0  0  0  0  0  0  0  0  0  0
    2.8579   -0.0000    0.0000 Cl  0  0  0  0  0  0  0  0  0  0  0  0
    2.1434   -1.2375    0.0000 C   0  0  0  0  0  0  0  0  0  0  0  0
    1.4289   -1.6500    0.0000 C   0  0  0  0  0  0  0  0  0  0  0  0
    1.6746    0.0084    0.0000 H   0  0  0  0  0  0  0  0  0  0  0  0
    2.2472    1.7710    0.0000 H   0  0  0  0  0  0  0  0  0  0  0  0
    2.4698    0.7244    0.0000 H   0  0  0  0  0  0  0  0  0  0  0  0
   -1.6489    0.9910    0.0000 H   0  0  0  0  0  0  0  0  0  0  0  0
   -2.2678    3.1975    0.0000 H   0  0  0  0  0  0  0  0  0  0  0  0
   -2.8380    3.8109    0.0000 H   0  0  0  0  0  0  0  0  0  0  0  0
   -3.8061    3.8987    0.0000 H   0  0  0  0  0  0  0  0  0  0  0  0
   -4.2340    4.9317    0.0000 H   0  0  0  0  0  0  0  0  0  0  0  0
   -4.1887    4.7923    0.0000 H   0  0  0  0  0  0  0  0  0  0  0  0
   -4.4184    6.7527    0.0000 H   0  0  0  0  0  0  0  0  0  0  0  0
   -3.7181    6.5196    0.0000 H   0  0  0  0  0  0  0  0  0  0  0  0
   -1.8381    7.3938    0.0000 H   0  0  0  0  0  0  0  0  0  0  0  0
   -2.7647    7.9288    0.0000 H   0  0  0  0  0  0  0  0  0  0  0  0
   -2.5959    9.4313    0.0000 H   0  0  0  0  0  0  0  0  0  0  0  0
   -4.3625    9.4313    0.0000 H   0  0  0  0  0  0  0  0  0  0  0  0
   -1.0797    5.8796    0.0000 H   0  0  0  0  0  0  0  0  0  0  0  0
   -1.3407    4.7923    0.0000 H   0  0  0  0  0  0  0  0  0  0  0  0
    0.5291    5.9658    0.0000 H   0  0  0  0  0  0  0  0  0  0  0  0
    0.8652    2.7670    0.0000 H   0  0  0  0  0  0  0  0  0  0  0  0
   -0.9266    0.5350    0.0000 H   0  0  0  0  0  0  0  0  0  0  0  0
   -1.5978    0.0975    0.0000 H   0  0  0  0  0  0  0  0  0  0  0  0
   -1.6411   -1.7725    0.0000 H   0  0  0  0  0  0  0  0  0  0  0  0
   -0.7145   -2.3075    0.0000 H   0  0  0  0  0  0  0  0  0  0  0  0
    0.0000   -2.7200    0.0000 H   0  0  0  0  0  0  0  0  0  0  0  0
    0.9266   -2.1850    0.0000 H   0  0  0  0  0  0  0  0  0  0  0  0
    1.4289    1.0320    0.0000 H   0  0  0  0  0  0  0  0  0  0  0  0
    3.0371   -1.7535    0.0000 H   0  0  0  0  0  0  0  0  0  0  0  0
    1.4289   -2.6820    0.0000 H   0  0  0  0  0  0  0  0  0  0  0  0
  1  2  1  0  0  0  0
  1 39  1  0  0  0  0
  1 40  1  0  0  0  0
  1 41  1  0  0  0  0
  2  3  2  0  0  0  0
  2  6  1  0  0  0  0
  3  4  1  0  0  0  0
  4  5  2  0  0  0  0
  4 42  1  0  0  0  0
  5  6  1  0  0  0  0
  5  7  1  0  0  0  0
  7  8  2  0  0  0  0
  7  9  1  0  0  0  0
  9 10  2  0  0  0  0
  9 27  1  0  0  0  0
 10 11  1  0  0  0  0
 10 24  1  0  0  0  0
 11 43  1  0  0  0  0
 12 11  1  0  0  0  0
 12 13  1  0  0  0  0
 12 23  1  0  0  0  0
 12 44  1  6  0  0  0
 13 45  1  0  0  0  0
 13 46  1  0  0  0  0
 14 13  1  0  0  0  0
 14 15  1  0  0  0  0
 14 16  1  0  0  0  0
 14 47  1  1  0  0  0
 15 48  1  0  0  0  0
 16 17  1  0  0  0  0
 16 23  1  0  0  0  0
 16 49  1  6  0  0  0
 17 18  1  0  0  0  0
 17 50  1  0  0  0  0
 17 51  1  0  0  0  0
 18 19  1  0  0  0  0
 19 20  1  0  0  0  0
 19 21  2  0  0  0  0
 19 22  2  0  0  0  0
 20 52  1  0  0  0  0
 20 53  1  0  0  0  0
 23 54  1  0  0  0  0
 23 55  1  0  0  0  0
 24 25  2  0  0  0  0
 25 26  1  0  0  0  0
 25 56  1  0  0  0  0
 26 27  2  0  0  0  0
 27 57  1  0  0  0  0
 28  3  1  0  0  0  0
 28 29  1  0  0  0  0
 28 33  1  0  0  0  0
 28 58  1  6  0  0  0
 29 30  1  0  0  0  0
 29 59  1  0  0  0  0
 30 31  1  0  0  0  0
 30 60  1  0  0  0  0
 30 61  1  0  0  0  0
 31 32  1  0  0  0  0
 31 62  1  0  0  0  0
 31 63  1  0  0  0  0
 32 33  2  0  0  0  0
 32 38  1  0  0  0  0
 33 34  1  0  0  0  0
 34 35  2  0  0  0  0
 34 64  1  0  0  0  0
 35 36  1  0  0  0  0
 35 37  1  0  0  0  0
 37 38  2  0  0  0  0
 37 65  1  0  0  0  0
 38 66  1  0  0  0  0
M  END
>  <DRUGBANK_ID>
DB16406

>  <COMMON_NAME>
Subasumstat

>  <CAS_NUMBER>
1858276-04-6

>  <UNII>
XQ43H3V6M1

>  <SYNONYMS>
Subasumstat

$$$$
