
 OpenBabel10282417072D

 39 39  0  0  0  0  0  0  0  0999 V2000
   -1.1112    1.0093    0.0000 C   0  0  0  0  0  0  0  0  0  0  0  0
   -1.3684    0.2232    0.0000 C   0  0  0  0  0  0  0  0  0  0  0  0
   -1.7760    1.4946    0.0000 S   0  0  0  0  0  0  0  0  0  0  0  0
   -0.6551   -0.1844    0.0000 N   0  0  0  0  0  0  0  0  0  0  0  0
   -2.1932    0.2232    0.0000 C   0  0  0  0  0  0  0  0  0  0  0  0
   -0.6600   -1.0142    0.0000 C   0  0  0  0  0  0  0  0  0  0  0  0
   -0.4026    1.4314    0.0000 C   0  0  0  0  0  0  0  0  0  0  0  0
   -2.4456    1.0093    0.0000 C   0  0  0  0  0  0  0  0  0  0  0  0
   -1.3780   -1.4218    0.0000 O   0  0  0  0  0  0  0  0  0  0  0  0
   -0.4075    2.2515    0.0000 O   0  0  0  0  0  0  0  0  0  0  0  0
    0.0533   -1.4265    0.0000 C   0  0  3  0  0  0  0  0  0  0  0  0
    0.3202    1.0238    0.0000 O   0  0  0  0  0  0  0  0  0  0  0  0
    0.7666   -1.0189    0.0000 N   0  0  0  0  0  0  0  0  0  0  0  0
   -2.9115   -0.1844    0.0000 C   0  0  0  0  0  0  0  0  0  0  0  0
    1.4799   -1.4314    0.0000 C   0  0  0  0  0  0  0  0  0  0  0  0
    0.0485   -2.2515    0.0000 C   0  0  0  0  0  0  0  0  0  0  0  0
    1.0286    1.4460    0.0000 C   0  0  0  0  0  0  0  0  0  0  0  0
    2.1982   -1.0238    0.0000 C   0  0  0  0  0  0  0  0  0  0  0  0
    2.9115   -1.4363    0.0000 C   0  0  0  0  0  0  0  0  0  0  0  0
    0.1979    0.3072    0.0000 H   0  0  0  0  0  0  0  0  0  0  0  0
   -3.4263    1.3305    0.0000 H   0  0  0  0  0  0  0  0  0  0  0  0
    0.0559   -0.3565    0.0000 H   0  0  0  0  0  0  0  0  0  0  0  0
    0.7692    0.0011    0.0000 H   0  0  0  0  0  0  0  0  0  0  0  0
   -3.8341    0.3575    0.0000 H   0  0  0  0  0  0  0  0  0  0  0  0
   -2.9195   -1.2544    0.0000 H   0  0  0  0  0  0  0  0  0  0  0  0
   -3.8421   -0.7125    0.0000 H   0  0  0  0  0  0  0  0  0  0  0  0
    1.4755   -2.5014    0.0000 H   0  0  0  0  0  0  0  0  0  0  0  0
    2.4034   -1.9717    0.0000 H   0  0  0  0  0  0  0  0  0  0  0  0
   -0.8812   -2.7811    0.0000 H   0  0  0  0  0  0  0  0  0  0  0  0
    0.9720   -2.7919    0.0000 H   0  0  0  0  0  0  0  0  0  0  0  0
    0.0423   -3.3215    0.0000 H   0  0  0  0  0  0  0  0  0  0  0  0
    1.9626    0.9239    0.0000 H   0  0  0  0  0  0  0  0  0  0  0  0
    1.0138    2.5159    0.0000 H   0  0  0  0  0  0  0  0  0  0  0  0
    1.9477    1.9938    0.0000 H   0  0  0  0  0  0  0  0  0  0  0  0
    2.2026    0.0462    0.0000 H   0  0  0  0  0  0  0  0  0  0  0  0
    3.1261   -0.4910    0.0000 H   0  0  0  0  0  0  0  0  0  0  0  0
    2.9107   -2.5063    0.0000 H   0  0  0  0  0  0  0  0  0  0  0  0
    3.8385   -0.9020    0.0000 H   0  0  0  0  0  0  0  0  0  0  0  0
    3.8378   -1.9720    0.0000 H   0  0  0  0  0  0  0  0  0  0  0  0
  2  1  2  0  0  0  0
  3  1  1  0  0  0  0
  4  2  1  0  0  0  0
  4 20  1  0  0  0  0
  5  2  1  0  0  0  0
  5  8  2  0  0  0  0
  6  4  1  0  0  0  0
  7  1  1  0  0  0  0
  8  3  1  0  0  0  0
  8 21  1  0  0  0  0
  9  6  2  0  0  0  0
 10  7  2  0  0  0  0
 11  6  1  0  0  0  0
 11 22  1  0  0  0  0
 12  7  1  0  0  0  0
 13 11  1  0  0  0  0
 13 23  1  0  0  0  0
 14  5  1  0  0  0  0
 14 24  1  0  0  0  0
 14 25  1  0  0  0  0
 14 26  1  0  0  0  0
 15 13  1  0  0  0  0
 15 27  1  0  0  0  0
 15 28  1  0  0  0  0
 16 11  1  0  0  0  0
 16 29  1  0  0  0  0
 16 30  1  0  0  0  0
 16 31  1  0  0  0  0
 17 12  1  0  0  0  0
 17 32  1  0  0  0  0
 17 33  1  0  0  0  0
 17 34  1  0  0  0  0
 18 15  1  0  0  0  0
 18 35  1  0  0  0  0
 18 36  1  0  0  0  0
 19 18  1  0  0  0  0
 19 37  1  0  0  0  0
 19 38  1  0  0  0  0
 19 39  1  0  0  0  0
M  END
>  <DRUGBANK_ID>
DB09009

>  <COMMON_NAME>
Articaine

>  <CAS_NUMBER>
23964-58-1

>  <UNII>
D3SQ406G9X

>  <SYNONYMS>
Artica√≠na; Articaine; Articainum

$$$$
