
 OpenBabel10282417072D

 41 42  0  0  0  0  0  0  0  0999 V2000
    3.5724    2.0625    0.0000 C   0  0  0  0  0  0  0  0  0  0  0  0
    2.8579    3.3000    0.0000 C   0  0  0  0  0  0  0  0  0  0  0  0
   -3.5479    0.4548    0.0000 C   0  0  0  0  0  0  0  0  0  0  0  0
   -2.1434    3.7125    0.0000 C   0  0  0  0  0  0  0  0  0  0  0  0
   -2.8579    3.3000    0.0000 C   0  0  0  0  0  0  0  0  0  0  0  0
   -1.4289    3.3000    0.0000 C   0  0  0  0  0  0  0  0  0  0  0  0
   -2.3149    1.2555    0.0000 C   0  0  0  0  0  0  0  0  0  0  0  0
    1.4289    2.4750    0.0000 C   0  0  0  0  0  0  0  0  0  0  0  0
    0.0000    2.4750    0.0000 C   0  0  0  0  0  0  0  0  0  0  0  0
    2.8579    2.4750    0.0000 C   0  0  0  0  0  0  0  0  0  0  0  0
   -3.1354    1.1693    0.0000 C   0  0  0  0  0  0  0  0  0  0  0  0
    0.7145    2.0625    0.0000 C   0  0  3  0  0  0  0  0  0  0  0  0
   -2.1434    2.0625    0.0000 C   0  0  0  0  0  0  0  0  0  0  0  0
   -2.8579    2.4750    0.0000 C   0  0  0  0  0  0  0  0  0  0  0  0
   -1.4289    2.4750    0.0000 C   0  0  0  0  0  0  0  0  0  0  0  0
    2.1434    2.0625    0.0000 N   0  0  0  0  0  0  0  0  0  0  0  0
   -3.4710    1.9230    0.0000 N   0  0  0  0  0  0  0  0  0  0  0  0
    0.7145    1.2375    0.0000 O   0  0  0  0  0  0  0  0  0  0  0  0
   -0.7145    2.0625    0.0000 O   0  0  0  0  0  0  0  0  0  0  0  0
    3.5724    0.9925    0.0000 H   0  0  0  0  0  0  0  0  0  0  0  0
    4.4990    2.5975    0.0000 H   0  0  0  0  0  0  0  0  0  0  0  0
    4.4991    1.5275    0.0000 H   0  0  0  0  0  0  0  0  0  0  0  0
    3.7845    3.8350    0.0000 H   0  0  0  0  0  0  0  0  0  0  0  0
    1.9313    3.8350    0.0000 H   0  0  0  0  0  0  0  0  0  0  0  0
    2.8579    4.3700    0.0000 H   0  0  0  0  0  0  0  0  0  0  0  0
   -4.6179    0.4548    0.0000 H   0  0  0  0  0  0  0  0  0  0  0  0
   -3.0129   -0.4718    0.0000 H   0  0  0  0  0  0  0  0  0  0  0  0
   -4.0829   -0.4719    0.0000 H   0  0  0  0  0  0  0  0  0  0  0  0
   -2.1434    4.7445    0.0000 H   0  0  0  0  0  0  0  0  0  0  0  0
   -3.7516    3.8160    0.0000 H   0  0  0  0  0  0  0  0  0  0  0  0
   -0.5352    3.8160    0.0000 H   0  0  0  0  0  0  0  0  0  0  0  0
   -1.6244    0.4886    0.0000 H   0  0  0  0  0  0  0  0  0  0  0  0
    1.4289    3.5450    0.0000 H   0  0  0  0  0  0  0  0  0  0  0  0
    2.3555    3.0100    0.0000 H   0  0  0  0  0  0  0  0  0  0  0  0
    0.0000    3.5450    0.0000 H   0  0  0  0  0  0  0  0  0  0  0  0
   -0.9266    3.0100    0.0000 H   0  0  0  0  0  0  0  0  0  0  0  0
    1.9313    3.0100    0.0000 H   0  0  0  0  0  0  0  0  0  0  0  0
    0.7145    3.1325    0.0000 H   0  0  0  0  0  0  0  0  0  0  0  0
    2.1434    1.0425    0.0000 H   0  0  0  0  0  0  0  0  0  0  0  0
   -4.4340    2.1277    0.0000 H   0  0  0  0  0  0  0  0  0  0  0  0
   -0.1255    0.7525    0.0000 H   0  0  0  0  0  0  0  0  0  0  0  0
  1 20  1  0  0  0  0
  1 21  1  0  0  0  0
  1 22  1  0  0  0  0
  2 23  1  0  0  0  0
  2 24  1  0  0  0  0
  2 25  1  0  0  0  0
  3 26  1  0  0  0  0
  3 27  1  0  0  0  0
  3 28  1  0  0  0  0
  4 29  1  0  0  0  0
  5  4  2  0  0  0  0
  5 30  1  0  0  0  0
  6  4  1  0  0  0  0
  6 31  1  0  0  0  0
  7 32  1  0  0  0  0
  8 33  1  0  0  0  0
  8 34  1  0  0  0  0
  9 35  1  0  0  0  0
  9 36  1  0  0  0  0
 10  1  1  0  0  0  0
 10  2  1  0  0  0  0
 10 37  1  0  0  0  0
 11  3  1  0  0  0  0
 11  7  2  0  0  0  0
 12  8  1  0  0  0  0
 12  9  1  0  0  0  0
 12 38  1  0  0  0  0
 13  7  1  0  0  0  0
 14  5  1  0  0  0  0
 14 13  2  0  0  0  0
 15  6  2  0  0  0  0
 15 13  1  0  0  0  0
 16  8  1  0  0  0  0
 16 10  1  0  0  0  0
 16 39  1  0  0  0  0
 17 11  1  0  0  0  0
 17 14  1  0  0  0  0
 17 40  1  0  0  0  0
 18 12  1  0  0  0  0
 18 41  1  0  0  0  0
 19  9  1  0  0  0  0
 19 15  1  0  0  0  0
M  END
>  <DRUGBANK_ID>
DB13530

>  <COMMON_NAME>
Mepindolol

>  <CAS_NUMBER>
23694-81-7

>  <UNII>
00Q31ER368

>  <SYNONYMS>
Mepindolol; Mepindololum

$$$$
