
 OpenBabel10282417072D

 34 33  0  0  0  0  0  0  0  0999 V2000
   -0.7143    0.0000    0.0000 C   0  0  0  0  0  0  0  0  0  0  0  0
   -0.7143   -0.8249    0.0000 C   0  0  0  0  0  0  0  0  0  0  0  0
   -1.4288    0.4125    0.0000 C   0  0  0  0  0  0  0  0  0  0  0  0
   -1.4288   -1.2374    0.0000 C   0  0  0  0  0  0  0  0  0  0  0  0
   -2.1433    0.0000    0.0000 C   0  0  0  0  0  0  0  0  0  0  0  0
   -2.1433   -0.8249    0.0000 C   0  0  0  0  0  0  0  0  0  0  0  0
    0.0001    0.4125    0.0000 C   0  0  0  0  0  0  0  0  0  0  0  0
    0.7145    0.0000    0.0000 C   0  0  0  0  0  0  0  0  0  0  0  0
    0.0000   -1.2374    0.0000 C   0  0  0  0  0  0  0  0  0  0  0  0
    0.7145   -0.8249    0.0000 C   0  0  0  0  0  0  0  0  0  0  0  0
    1.4289    0.4124    0.0000 C   0  0  0  0  0  0  0  0  0  0  0  0
    2.1433   -0.0001    0.0000 H   0  0  0  0  0  0  0  0  0  0  0  0
    1.4291    1.2374    0.0000 O   0  0  0  0  0  0  0  0  0  0  0  0
   -0.7143   -1.0700    0.0000 H   0  0  0  0  0  0  0  0  0  0  0  0
    0.2124   -0.5350    0.0000 H   0  0  0  0  0  0  0  0  0  0  0  0
   -0.7142    0.2451    0.0000 H   0  0  0  0  0  0  0  0  0  0  0  0
    0.2124   -0.2900    0.0000 H   0  0  0  0  0  0  0  0  0  0  0  0
   -1.4288    1.4825    0.0000 H   0  0  0  0  0  0  0  0  0  0  0  0
   -2.3554    0.9475    0.0000 H   0  0  0  0  0  0  0  0  0  0  0  0
   -1.4288   -2.3074    0.0000 H   0  0  0  0  0  0  0  0  0  0  0  0
   -2.3554   -1.7724    0.0000 H   0  0  0  0  0  0  0  0  0  0  0  0
   -3.0699    0.5350    0.0000 H   0  0  0  0  0  0  0  0  0  0  0  0
   -3.0699   -0.5350    0.0000 H   0  0  0  0  0  0  0  0  0  0  0  0
   -3.0699   -1.3599    0.0000 H   0  0  0  0  0  0  0  0  0  0  0  0
   -3.0699   -0.2899    0.0000 H   0  0  0  0  0  0  0  0  0  0  0  0
    0.0001    1.4825    0.0000 H   0  0  0  0  0  0  0  0  0  0  0  0
    0.9268    0.9475    0.0000 H   0  0  0  0  0  0  0  0  0  0  0  0
    0.7144   -1.0700    0.0000 H   0  0  0  0  0  0  0  0  0  0  0  0
    1.6411   -0.5351    0.0000 H   0  0  0  0  0  0  0  0  0  0  0  0
   -0.0001   -2.3074    0.0000 H   0  0  0  0  0  0  0  0  0  0  0  0
    0.9266   -1.7724    0.0000 H   0  0  0  0  0  0  0  0  0  0  0  0
    1.6411   -1.3599    0.0000 H   0  0  0  0  0  0  0  0  0  0  0  0
    0.7145    0.2451    0.0000 H   0  0  0  0  0  0  0  0  0  0  0  0
    1.6412   -0.2899    0.0000 H   0  0  0  0  0  0  0  0  0  0  0  0
  1 14  1  0  0  0  0
  1 15  1  0  0  0  0
  2 16  1  0  0  0  0
  2 17  1  0  0  0  0
  3  1  1  0  0  0  0
  3 18  1  0  0  0  0
  3 19  1  0  0  0  0
  4  2  1  0  0  0  0
  4 20  1  0  0  0  0
  4 21  1  0  0  0  0
  5  3  1  0  0  0  0
  5 22  1  0  0  0  0
  5 23  1  0  0  0  0
  6  4  1  0  0  0  0
  6  5  1  0  0  0  0
  6 24  1  0  0  0  0
  6 25  1  0  0  0  0
  7  1  1  0  0  0  0
  7 26  1  0  0  0  0
  7 27  1  0  0  0  0
  8  7  1  0  0  0  0
  8 11  1  0  0  0  0
  8 28  1  0  0  0  0
  8 29  1  0  0  0  0
  9  2  1  0  0  0  0
  9 30  1  0  0  0  0
  9 31  1  0  0  0  0
 10  9  1  0  0  0  0
 10 32  1  0  0  0  0
 10 33  1  0  0  0  0
 10 34  1  0  0  0  0
 11 12  1  0  0  0  0
 11 13  2  0  0  0  0
M  END
>  <DRUGBANK_ID>
DB04093

>  <SECONDARY_ACCESSION_NUMBERS>
EXPT03190

>  <COMMON_NAME>
Undecanal

>  <CAS_NUMBER>
112-44-7

>  <UNII>
B6P0A9PSHN

>  <SYNONYMS>
n-Undecanal; Undecanal; Undecanaldehyde; Undecyl aldehyde; Undecylaldehyde; Undecylic aldehyde

$$$$
