
 OpenBabel10282417072D

 24 24  0  0  0  0  0  0  0  0999 V2000
    2.1454    0.8216    0.0000 Au  0  0  0  0  0  0  0  0  0  0  0  0
    1.4331    1.2379    0.0000 S   0  0  0  0  0  0  0  0  0  0  0  0
    0.0042    1.2379    0.0000 O   0  0  0  0  0  0  0  0  0  0  0  0
    1.4331   -0.4140    0.0000 O   0  0  0  0  0  0  0  0  0  0  0  0
    0.0042   -1.2379    0.0000 O   0  0  0  0  0  0  0  0  0  0  0  0
   -1.4288   -0.4140    0.0000 O   0  0  0  0  0  0  0  0  0  0  0  0
   -2.1454    0.8259    0.0000 O   0  0  0  0  0  0  0  0  0  0  0  0
    0.7165   -0.0021    0.0000 C   0  0  2  0  0  0  0  0  0  0  0  0
    0.0042   -0.4140    0.0000 C   0  0  2  0  0  0  0  0  0  0  0  0
    0.7165    0.8216    0.0000 C   0  0  1  0  0  0  0  0  0  0  0  0
   -0.7123   -0.0021    0.0000 C   0  0  1  0  0  0  0  0  0  0  0  0
   -0.7123    0.8216    0.0000 C   0  0  1  0  0  0  0  0  0  0  0  0
   -1.4288    1.2379    0.0000 C   0  0  0  0  0  0  0  0  0  0  0  0
    1.4350   -1.3840    0.0000 H   0  0  0  0  0  0  0  0  0  0  0  0
   -0.8358   -1.7229    0.0000 H   0  0  0  0  0  0  0  0  0  0  0  0
   -2.2679    0.0726    0.0000 H   0  0  0  0  0  0  0  0  0  0  0  0
   -2.9846    1.3124    0.0000 H   0  0  0  0  0  0  0  0  0  0  0  0
    0.7179   -1.0721    0.0000 H   0  0  0  0  0  0  0  0  0  0  0  0
    0.9310   -0.9487    0.0000 H   0  0  0  0  0  0  0  0  0  0  0  0
    0.7179    1.8916    0.0000 H   0  0  0  0  0  0  0  0  0  0  0  0
   -0.7123   -1.0721    0.0000 H   0  0  0  0  0  0  0  0  0  0  0  0
   -0.7123    1.8916    0.0000 H   0  0  0  0  0  0  0  0  0  0  0  0
   -1.4264    2.3079    0.0000 H   0  0  0  0  0  0  0  0  0  0  0  0
   -0.5008    1.7706    0.0000 H   0  0  0  0  0  0  0  0  0  0  0  0
  1  2  1  0  0  0  0
  3 10  1  0  0  0  0
  3 12  1  0  0  0  0
  4 14  1  0  0  0  0
  5 15  1  0  0  0  0
  6 16  1  0  0  0  0
  7 13  1  0  0  0  0
  7 17  1  0  0  0  0
  8  4  1  0  0  0  0
  8  9  1  0  0  0  0
  8 10  1  0  0  0  0
  8 18  1  1  0  0  0
  9  5  1  0  0  0  0
  9 11  1  0  0  0  0
  9 19  1  6  0  0  0
 10  2  1  0  0  0  0
 10 20  1  1  0  0  0
 11  6  1  0  0  0  0
 11 12  1  0  0  0  0
 11 21  1  1  0  0  0
 12 13  1  0  0  0  0
 12 22  1  6  0  0  0
 13 23  1  0  0  0  0
 13 24  1  0  0  0  0
M  END
>  <DRUGBANK_ID>
DB09121

>  <COMMON_NAME>
Aurothioglucose

>  <CAS_NUMBER>
12192-57-3

>  <UNII>
2P2V9Q0E78

>  <SYNONYMS>
Auromyose; Aurothioglucose; Gold thioglucose

$$$$
