
 OpenBabel10282417072D

 58 60  0  0  0  0  0  0  0  0999 V2000
    1.5909   -0.5790    0.0000 C   0  0  0  0  0  0  0  0  0  0  0  0
    1.8731   -1.3543    0.0000 C   0  0  0  0  0  0  0  0  0  0  0  0
    1.3428   -1.9863    0.0000 C   0  0  0  0  0  0  0  0  0  0  0  0
    0.5303   -1.8430    0.0000 C   0  0  0  0  0  0  0  0  0  0  0  0
    0.2481   -1.0678    0.0000 C   0  0  0  0  0  0  0  0  0  0  0  0
    0.7784   -0.4358    0.0000 C   0  0  0  0  0  0  0  0  0  0  0  0
    0.0000   -2.4750    0.0000 C   0  0  0  0  0  0  0  0  0  0  0  0
   -0.2822   -3.2502    0.0000 C   0  0  0  0  0  0  0  0  0  0  0  0
   -1.0946   -3.3935    0.0000 C   0  0  0  0  0  0  0  0  0  0  0  0
   -1.6249   -2.7615    0.0000 C   0  0  0  0  0  0  0  0  0  0  0  0
   -1.3428   -1.9863    0.0000 C   0  0  0  0  0  0  0  0  0  0  0  0
   -0.5303   -1.8430    0.0000 C   0  0  0  0  0  0  0  0  0  0  0  0
    0.7145   -2.8875    0.0000 C   0  0  0  0  0  0  0  0  0  0  0  0
    0.7145   -3.7125    0.0000 O   0  0  0  0  0  0  0  0  0  0  0  0
    1.4289   -2.4750    0.0000 O   0  0  0  0  0  0  0  0  0  0  0  0
    2.1434   -2.8875    0.0000 C   0  0  0  0  0  0  0  0  0  0  0  0
    2.8579   -2.4750    0.0000 C   0  0  0  0  0  0  0  0  0  0  0  0
    3.5724   -2.8875    0.0000 N   0  0  0  0  0  0  0  0  0  0  0  0
    4.2868   -2.4750    0.0000 C   0  0  0  0  0  0  0  0  0  0  0  0
    5.0013   -2.8875    0.0000 C   0  0  0  0  0  0  0  0  0  0  0  0
    5.0013   -3.7125    0.0000 C   0  0  0  0  0  0  0  0  0  0  0  0
    4.2868   -4.1250    0.0000 C   0  0  0  0  0  0  0  0  0  0  0  0
    3.5724   -3.7125    0.0000 C   0  0  0  0  0  0  0  0  0  0  0  0
    2.2786    0.2407    0.0000 H   0  0  0  0  0  0  0  0  0  0  0  0
    1.2249    0.4264    0.0000 H   0  0  0  0  0  0  0  0  0  0  0  0
    2.9268   -1.5401    0.0000 H   0  0  0  0  0  0  0  0  0  0  0  0
    2.2391   -2.3598    0.0000 H   0  0  0  0  0  0  0  0  0  0  0  0
    1.7087   -2.9918    0.0000 H   0  0  0  0  0  0  0  0  0  0  0  0
    0.6550   -2.8059    0.0000 H   0  0  0  0  0  0  0  0  0  0  0  0
   -0.5235   -1.6572    0.0000 H   0  0  0  0  0  0  0  0  0  0  0  0
   -0.8057   -0.8820    0.0000 H   0  0  0  0  0  0  0  0  0  0  0  0
   -0.1179   -0.0623    0.0000 H   0  0  0  0  0  0  0  0  0  0  0  0
    0.4124    0.5697    0.0000 H   0  0  0  0  0  0  0  0  0  0  0  0
    1.4661    0.3839    0.0000 H   0  0  0  0  0  0  0  0  0  0  0  0
    0.4056   -4.0699    0.0000 H   0  0  0  0  0  0  0  0  0  0  0  0
   -0.6481   -4.2557    0.0000 H   0  0  0  0  0  0  0  0  0  0  0  0
   -1.4605   -4.3990    0.0000 H   0  0  0  0  0  0  0  0  0  0  0  0
   -2.1483   -3.5793    0.0000 H   0  0  0  0  0  0  0  0  0  0  0  0
   -2.6786   -2.9473    0.0000 H   0  0  0  0  0  0  0  0  0  0  0  0
   -2.3127   -1.9419    0.0000 H   0  0  0  0  0  0  0  0  0  0  0  0
   -2.0306   -1.1667    0.0000 H   0  0  0  0  0  0  0  0  0  0  0  0
   -0.9769   -0.9808    0.0000 H   0  0  0  0  0  0  0  0  0  0  0  0
   -0.1644   -0.8375    0.0000 H   0  0  0  0  0  0  0  0  0  0  0  0
    0.5234   -1.6572    0.0000 H   0  0  0  0  0  0  0  0  0  0  0  0
    2.1434   -3.9575    0.0000 H   0  0  0  0  0  0  0  0  0  0  0  0
    3.0700   -3.4225    0.0000 H   0  0  0  0  0  0  0  0  0  0  0  0
    2.8579   -1.4050    0.0000 H   0  0  0  0  0  0  0  0  0  0  0  0
    3.7845   -1.9400    0.0000 H   0  0  0  0  0  0  0  0  0  0  0  0
    4.2868   -1.4050    0.0000 H   0  0  0  0  0  0  0  0  0  0  0  0
    5.2134   -1.9400    0.0000 H   0  0  0  0  0  0  0  0  0  0  0  0
    5.9279   -2.3525    0.0000 H   0  0  0  0  0  0  0  0  0  0  0  0
    5.9279   -3.4225    0.0000 H   0  0  0  0  0  0  0  0  0  0  0  0
    5.9279   -4.2475    0.0000 H   0  0  0  0  0  0  0  0  0  0  0  0
    5.0013   -4.7825    0.0000 H   0  0  0  0  0  0  0  0  0  0  0  0
    4.2868   -5.1950    0.0000 H   0  0  0  0  0  0  0  0  0  0  0  0
    3.3601   -4.6600    0.0000 H   0  0  0  0  0  0  0  0  0  0  0  0
    2.6457   -4.2475    0.0000 H   0  0  0  0  0  0  0  0  0  0  0  0
    2.6458   -3.1775    0.0000 H   0  0  0  0  0  0  0  0  0  0  0  0
  1  2  1  0  0  0  0
  1  6  1  0  0  0  0
  1 24  1  0  0  0  0
  1 25  1  0  0  0  0
  2  3  1  0  0  0  0
  2 26  1  0  0  0  0
  2 27  1  0  0  0  0
  3  4  1  0  0  0  0
  3 28  1  0  0  0  0
  3 29  1  0  0  0  0
  4  5  1  0  0  0  0
  4  7  1  0  0  0  0
  4 30  1  0  0  0  0
  5  6  1  0  0  0  0
  5 31  1  0  0  0  0
  5 32  1  0  0  0  0
  6 33  1  0  0  0  0
  6 34  1  0  0  0  0
  7  8  1  0  0  0  0
  7 12  1  0  0  0  0
  7 13  1  0  0  0  0
  8  9  1  0  0  0  0
  8 35  1  0  0  0  0
  8 36  1  0  0  0  0
  9 10  1  0  0  0  0
  9 37  1  0  0  0  0
  9 38  1  0  0  0  0
 10 11  1  0  0  0  0
 10 39  1  0  0  0  0
 10 40  1  0  0  0  0
 11 12  1  0  0  0  0
 11 41  1  0  0  0  0
 11 42  1  0  0  0  0
 12 43  1  0  0  0  0
 12 44  1  0  0  0  0
 13 14  2  0  0  0  0
 13 15  1  0  0  0  0
 15 16  1  0  0  0  0
 16 17  1  0  0  0  0
 16 45  1  0  0  0  0
 16 46  1  0  0  0  0
 17 18  1  0  0  0  0
 17 47  1  0  0  0  0
 17 48  1  0  0  0  0
 18 19  1  0  0  0  0
 18 23  1  0  0  0  0
 19 20  1  0  0  0  0
 19 49  1  0  0  0  0
 19 50  1  0  0  0  0
 20 21  1  0  0  0  0
 20 51  1  0  0  0  0
 20 52  1  0  0  0  0
 21 22  1  0  0  0  0
 21 53  1  0  0  0  0
 21 54  1  0  0  0  0
 22 23  1  0  0  0  0
 22 55  1  0  0  0  0
 22 56  1  0  0  0  0
 23 57  1  0  0  0  0
 23 58  1  0  0  0  0
M  END
>  <DRUGBANK_ID>
DB13678

>  <COMMON_NAME>
Dihexyverine

>  <CAS_NUMBER>
561-77-3

>  <UNII>
J2FQ66RU9W

>  <SYNONYMS>
Dihexyverine

$$$$
