
 OpenBabel10282417072D

 68 71  0  0  1  0  0  0  0  0999 V2000
   -1.4131   -0.4430    0.0000 H   0  0  0  0  0  0  0  0  0  0  0  0
   -1.2415   -1.2500    0.0000 C   0  0  1  0  0  0  0  0  0  0  0  0
   -1.0700   -2.0569    0.0000 C   0  0  0  0  0  0  0  0  0  0  0  0
   -1.6831   -2.6090    0.0000 C   0  0  0  0  0  0  0  0  0  0  0  0
   -2.4677   -2.3540    0.0000 C   0  0  1  0  0  0  0  0  0  0  0  0
   -2.6392   -1.5471    0.0000 C   0  0  0  0  0  0  0  0  0  0  0  0
   -2.0261   -0.9950    0.0000 C   0  0  0  0  0  0  0  0  0  0  0  0
   -3.0808   -2.9061    0.0000 N   0  0  0  0  0  0  0  0  0  0  0  0
   -3.8654   -2.6511    0.0000 C   0  0  0  0  0  0  0  0  0  0  0  0
   -2.9093   -3.7130    0.0000 C   0  0  0  0  0  0  0  0  0  0  0  0
   -0.6284   -0.6979    0.0000 C   0  0  1  0  0  0  0  0  0  0  0  0
   -1.2415   -0.1459    0.0000 C   0  0  0  0  0  0  0  0  0  0  0  0
   -0.1435   -1.3654    0.0000 O   0  0  0  0  0  0  0  0  0  0  0  0
    0.6411   -1.1104    0.0000 C   0  0  0  0  0  0  0  0  0  0  0  0
    0.6411   -0.2854    0.0000 C   0  0  0  0  0  0  0  0  0  0  0  0
   -0.1435   -0.0305    0.0000 O   0  0  0  0  0  0  0  0  0  0  0  0
    1.3556    0.1271    0.0000 C   0  0  0  0  0  0  0  0  0  0  0  0
    1.3556    0.9521    0.0000 C   0  0  0  0  0  0  0  0  0  0  0  0
    2.0701   -0.2854    0.0000 C   0  0  0  0  0  0  0  0  0  0  0  0
    2.0701   -1.1104    0.0000 C   0  0  0  0  0  0  0  0  0  0  0  0
    1.3556   -1.5229    0.0000 C   0  0  0  0  0  0  0  0  0  0  0  0
    1.3556   -2.3479    0.0000 Cl  0  0  0  0  0  0  0  0  0  0  0  0
    2.7845    0.1271    0.0000 C   0  0  0  0  0  0  0  0  0  0  0  0
    2.7845    0.9521    0.0000 O   0  0  0  0  0  0  0  0  0  0  0  0
    3.4990   -0.2854    0.0000 N   0  0  0  0  0  0  0  0  0  0  0  0
    4.2135    0.1271    0.0000 C   0  0  0  0  0  0  0  0  0  0  0  0
    4.9279   -0.2854    0.0000 C   0  0  0  0  0  0  0  0  0  0  0  0
    5.6424    0.1271    0.0000 C   0  0  0  0  0  0  0  0  0  0  0  0
    5.6424    0.9521    0.0000 C   0  0  0  0  0  0  0  0  0  0  0  0
    6.3569   -0.2854    0.0000 C   0  0  0  0  0  0  0  0  0  0  0  0
    6.3569   -1.1104    0.0000 C   0  0  0  0  0  0  0  0  0  0  0  0
    7.0714   -1.5229    0.0000 C   0  0  0  0  0  0  0  0  0  0  0  0
    5.6424   -1.5229    0.0000 N   0  0  0  0  0  0  0  0  0  0  0  0
    4.9279   -1.1104    0.0000 C   0  0  0  0  0  0  0  0  0  0  0  0
    4.2135   -1.5229    0.0000 O   0  0  0  0  0  0  0  0  0  0  0  0
   -0.0524   -2.3875    0.0000 H   0  0  0  0  0  0  0  0  0  0  0  0
   -0.8475   -3.1035    0.0000 H   0  0  0  0  0  0  0  0  0  0  0  0
   -1.4606   -3.6556    0.0000 H   0  0  0  0  0  0  0  0  0  0  0  0
   -2.4783   -3.3249    0.0000 H   0  0  0  0  0  0  0  0  0  0  0  0
   -2.2452   -3.4006    0.0000 H   0  0  0  0  0  0  0  0  0  0  0  0
   -3.6568   -1.2165    0.0000 H   0  0  0  0  0  0  0  0  0  0  0  0
   -2.8617   -0.5005    0.0000 H   0  0  0  0  0  0  0  0  0  0  0  0
   -2.2486    0.0516    0.0000 H   0  0  0  0  0  0  0  0  0  0  0  0
   -1.2309   -0.2791    0.0000 H   0  0  0  0  0  0  0  0  0  0  0  0
   -4.0878   -1.6045    0.0000 H   0  0  0  0  0  0  0  0  0  0  0  0
   -4.6606   -3.3670    0.0000 H   0  0  0  0  0  0  0  0  0  0  0  0
   -4.8830   -2.3204    0.0000 H   0  0  0  0  0  0  0  0  0  0  0  0
   -3.7045   -4.4290    0.0000 H   0  0  0  0  0  0  0  0  0  0  0  0
   -1.8917   -4.0437    0.0000 H   0  0  0  0  0  0  0  0  0  0  0  0
   -2.6868   -4.7596    0.0000 H   0  0  0  0  0  0  0  0  0  0  0  0
   -1.0191    0.9007    0.0000 H   0  0  0  0  0  0  0  0  0  0  0  0
   -2.2591   -0.4766    0.0000 H   0  0  0  0  0  0  0  0  0  0  0  0
   -2.0367    0.5700    0.0000 H   0  0  0  0  0  0  0  0  0  0  0  0
    2.2822    1.4871    0.0000 H   0  0  0  0  0  0  0  0  0  0  0  0
    0.4290    1.4871    0.0000 H   0  0  0  0  0  0  0  0  0  0  0  0
    1.3556    2.0221    0.0000 H   0  0  0  0  0  0  0  0  0  0  0  0
    2.9638   -1.6264    0.0000 H   0  0  0  0  0  0  0  0  0  0  0  0
    3.4990   -1.2699    0.0000 H   0  0  0  0  0  0  0  0  0  0  0  0
    4.2135    1.1971    0.0000 H   0  0  0  0  0  0  0  0  0  0  0  0
    5.1402    0.6621    0.0000 H   0  0  0  0  0  0  0  0  0  0  0  0
    6.5690    1.4871    0.0000 H   0  0  0  0  0  0  0  0  0  0  0  0
    4.7158    1.4871    0.0000 H   0  0  0  0  0  0  0  0  0  0  0  0
    5.6424    2.0221    0.0000 H   0  0  0  0  0  0  0  0  0  0  0  0
    7.2506    0.2306    0.0000 H   0  0  0  0  0  0  0  0  0  0  0  0
    7.0714   -2.5929    0.0000 H   0  0  0  0  0  0  0  0  0  0  0  0
    7.9980   -0.9879    0.0000 H   0  0  0  0  0  0  0  0  0  0  0  0
    7.9981   -2.0579    0.0000 H   0  0  0  0  0  0  0  0  0  0  0  0
    5.6424   -2.5074    0.0000 H   0  0  0  0  0  0  0  0  0  0  0  0
  2  1  1  6  0  0  0
  2  3  1  0  0  0  0
  2  7  1  0  0  0  0
  2 11  1  0  0  0  0
  3  4  1  0  0  0  0
  3 36  1  0  0  0  0
  3 37  1  0  0  0  0
  4 38  1  0  0  0  0
  4 39  1  0  0  0  0
  5  4  1  0  0  0  0
  5  6  1  0  0  0  0
  5  8  1  0  0  0  0
  5 40  1  1  0  0  0
  6  7  1  0  0  0  0
  6 41  1  0  0  0  0
  6 42  1  0  0  0  0
  7 43  1  0  0  0  0
  7 44  1  0  0  0  0
  8  9  1  0  0  0  0
  8 10  1  0  0  0  0
  9 45  1  0  0  0  0
  9 46  1  0  0  0  0
  9 47  1  0  0  0  0
 10 48  1  0  0  0  0
 10 49  1  0  0  0  0
 10 50  1  0  0  0  0
 11 12  1  1  0  0  0
 11 13  1  0  0  0  0
 11 16  1  0  0  0  0
 12 51  1  0  0  0  0
 12 52  1  0  0  0  0
 12 53  1  0  0  0  0
 13 14  1  0  0  0  0
 14 15  2  0  0  0  0
 14 21  1  0  0  0  0
 15 16  1  0  0  0  0
 15 17  1  0  0  0  0
 17 18  1  0  0  0  0
 17 19  2  0  0  0  0
 18 54  1  0  0  0  0
 18 55  1  0  0  0  0
 18 56  1  0  0  0  0
 19 20  1  0  0  0  0
 19 23  1  0  0  0  0
 20 21  2  0  0  0  0
 20 57  1  0  0  0  0
 21 22  1  0  0  0  0
 23 24  2  0  0  0  0
 23 25  1  0  0  0  0
 25 26  1  0  0  0  0
 25 58  1  0  0  0  0
 26 27  1  0  0  0  0
 26 59  1  0  0  0  0
 26 60  1  0  0  0  0
 27 28  2  0  0  0  0
 27 34  1  0  0  0  0
 28 29  1  0  0  0  0
 28 30  1  0  0  0  0
 29 61  1  0  0  0  0
 29 62  1  0  0  0  0
 29 63  1  0  0  0  0
 30 31  2  0  0  0  0
 30 64  1  0  0  0  0
 31 32  1  0  0  0  0
 31 33  1  0  0  0  0
 32 65  1  0  0  0  0
 32 66  1  0  0  0  0
 32 67  1  0  0  0  0
 33 34  1  0  0  0  0
 33 68  1  0  0  0  0
 34 35  2  0  0  0  0
M  END
>  <DRUGBANK_ID>
DB18314

>  <COMMON_NAME>
Valemetostat

>  <CAS_NUMBER>
1809336-39-7

>  <UNII>
60RD0234VE

>  <SYNONYMS>
Ezh1/2 inhibitor ds-3201

$$$$
