
 OpenBabel10282417072D

156162  0  0  1  0  0  0  0  0999 V2000
    7.1522  -11.6096    0.0000 C   0  0  0  0  0  0  0  0  0  0  0  0
    7.4071  -10.8250    0.0000 C   0  0  2  0  0  0  0  0  0  0  0  0
    6.8551  -10.2119    0.0000 C   0  0  1  0  0  0  0  0  0  0  0  0
    6.6002  -10.9965    0.0000 C   0  0  0  0  0  0  0  0  0  0  0  0
    6.6864  -11.8170    0.0000 O   0  0  0  0  0  0  0  0  0  0  0  0
    5.7932  -11.1680    0.0000 N   0  0  0  0  0  0  0  0  0  0  0  0
    5.2412  -10.5549    0.0000 C   0  0  2  0  0  0  0  0  0  0  0  0
    5.4961   -9.7703    0.0000 C   0  0  0  0  0  0  0  0  0  0  0  0
    6.3031   -9.5988    0.0000 O   0  0  0  0  0  0  0  0  0  0  0  0
    4.9441   -9.1572    0.0000 N   0  0  0  0  0  0  0  0  0  0  0  0
    5.1990   -8.3726    0.0000 C   0  0  0  0  0  0  0  0  0  0  0  0
    4.6470   -7.7595    0.0000 C   0  0  0  0  0  0  0  0  0  0  0  0
    4.9019   -6.9749    0.0000 C   0  0  0  0  0  0  0  0  0  0  0  0
    4.3499   -6.3618    0.0000 C   0  0  0  0  0  0  0  0  0  0  0  0
    3.5429   -6.5333    0.0000 O   0  0  0  0  0  0  0  0  0  0  0  0
    4.6048   -5.5772    0.0000 N   0  0  0  0  0  0  0  0  0  0  0  0
    4.0528   -4.9641    0.0000 C   0  0  0  0  0  0  0  0  0  0  0  0
    4.3077   -4.1794    0.0000 C   0  0  0  0  0  0  0  0  0  0  0  0
    3.7557   -3.5663    0.0000 C   0  0  0  0  0  0  0  0  0  0  0  0
    4.0106   -2.7817    0.0000 C   0  0  0  0  0  0  0  0  0  0  0  0
    3.4586   -2.1686    0.0000 O   0  0  0  0  0  0  0  0  0  0  0  0
    4.8176   -2.6102    0.0000 N   0  0  0  0  0  0  0  0  0  0  0  0
    5.3696   -3.2233    0.0000 C   0  0  2  0  0  0  0  0  0  0  0  0
    6.1766   -3.0518    0.0000 C   0  0  0  0  0  0  0  0  0  0  0  0
    6.4315   -2.2671    0.0000 O   0  0  0  0  0  0  0  0  0  0  0  0
    6.7286   -3.6649    0.0000 N   0  0  0  0  0  0  0  0  0  0  0  0
    6.4737   -4.4495    0.0000 C   0  0  2  0  0  0  0  0  0  0  0  0
    7.0257   -5.0626    0.0000 C   0  0  0  0  0  0  0  0  0  0  0  0
    7.5778   -4.4495    0.0000 O   0  0  0  0  0  0  0  0  0  0  0  0
    6.7708   -5.8472    0.0000 N   0  0  0  0  0  0  0  0  0  0  0  0
    7.3228   -6.4603    0.0000 C   0  0  1  0  0  0  0  0  0  0  0  0
    7.0679   -7.2449    0.0000 C   0  0  0  0  0  0  0  0  0  0  0  0
    6.2609   -7.4164    0.0000 O   0  0  0  0  0  0  0  0  0  0  0  0
    7.6199   -7.8580    0.0000 N   0  0  0  0  0  0  0  0  0  0  0  0
    7.3650   -8.6426    0.0000 C   0  0  2  0  0  0  0  0  0  0  0  0
    7.9170   -9.2557    0.0000 C   0  0  0  0  0  0  0  0  0  0  0  0
    8.7240   -9.0842    0.0000 O   0  0  0  0  0  0  0  0  0  0  0  0
    7.6621  -10.0403    0.0000 N   0  0  0  0  0  0  0  0  0  0  0  0
    8.1720   -8.4711    0.0000 C   0  0  0  0  0  0  0  0  0  0  0  0
    8.4269   -7.6865    0.0000 C   0  0  0  0  0  0  0  0  0  0  0  0
    9.2339   -7.5150    0.0000 C   0  0  0  0  0  0  0  0  0  0  0  0
    9.4888   -6.7303    0.0000 C   0  0  0  0  0  0  0  0  0  0  0  0
   10.2958   -6.5588    0.0000 N   0  0  0  0  0  0  0  0  0  0  0  0
    8.1298   -6.2888    0.0000 C   0  0  0  0  0  0  0  0  0  0  0  0
    8.3847   -5.5041    0.0000 C   0  0  0  0  0  0  0  0  0  0  0  0
    7.8998   -4.8367    0.0000 C   0  0  0  0  0  0  0  0  0  0  0  0
    8.3847   -4.1693    0.0000 N   0  0  0  0  0  0  0  0  0  0  0  0
    9.1694   -4.4242    0.0000 C   0  0  0  0  0  0  0  0  0  0  0  0
    9.1694   -5.2492    0.0000 C   0  0  0  0  0  0  0  0  0  0  0  0
    9.8838   -5.6617    0.0000 C   0  0  0  0  0  0  0  0  0  0  0  0
   10.5983   -5.2492    0.0000 C   0  0  0  0  0  0  0  0  0  0  0  0
   10.5983   -4.4242    0.0000 C   0  0  0  0  0  0  0  0  0  0  0  0
    9.8838   -4.0117    0.0000 C   0  0  0  0  0  0  0  0  0  0  0  0
    7.2807   -4.2780    0.0000 C   0  0  0  0  0  0  0  0  0  0  0  0
    7.5356   -3.4933    0.0000 C   0  0  0  0  0  0  0  0  0  0  0  0
    7.0507   -2.8259    0.0000 C   0  0  0  0  0  0  0  0  0  0  0  0
    7.5356   -2.1585    0.0000 N   0  0  0  0  0  0  0  0  0  0  0  0
    8.3202   -2.4134    0.0000 C   0  0  0  0  0  0  0  0  0  0  0  0
    8.3202   -3.2384    0.0000 C   0  0  0  0  0  0  0  0  0  0  0  0
    9.0347   -3.6509    0.0000 C   0  0  0  0  0  0  0  0  0  0  0  0
    9.7492   -3.2384    0.0000 C   0  0  0  0  0  0  0  0  0  0  0  0
    9.7492   -2.4134    0.0000 C   0  0  0  0  0  0  0  0  0  0  0  0
    9.0347   -2.0009    0.0000 C   0  0  0  0  0  0  0  0  0  0  0  0
    5.6246   -2.4387    0.0000 C   0  0  0  0  0  0  0  0  0  0  0  0
    5.0725   -1.8256    0.0000 C   0  0  0  0  0  0  0  0  0  0  0  0
    4.2656   -1.9971    0.0000 C   0  0  0  0  0  0  0  0  0  0  0  0
    3.7135   -1.3840    0.0000 C   0  0  0  0  0  0  0  0  0  0  0  0
    3.9685   -0.5994    0.0000 C   0  0  0  0  0  0  0  0  0  0  0  0
    4.7754   -0.4279    0.0000 C   0  0  0  0  0  0  0  0  0  0  0  0
    5.3275   -1.0410    0.0000 C   0  0  0  0  0  0  0  0  0  0  0  0
    4.1371   -9.3287    0.0000 C   0  0  0  0  0  0  0  0  0  0  0  0
    3.5851   -8.7156    0.0000 C   0  0  0  0  0  0  0  0  0  0  0  0
    2.7781   -8.8872    0.0000 O   0  0  0  0  0  0  0  0  0  0  0  0
    3.8400   -7.9310    0.0000 N   0  0  0  0  0  0  0  0  0  0  0  0
    4.4342  -10.7265    0.0000 C   0  0  0  0  0  0  0  0  0  0  0  0
    4.1792  -11.5111    0.0000 C   0  0  0  0  0  0  0  0  0  0  0  0
    4.7313  -12.1242    0.0000 C   0  0  0  0  0  0  0  0  0  0  0  0
    4.4763  -12.9088    0.0000 C   0  0  0  0  0  0  0  0  0  0  0  0
    3.6694  -13.0803    0.0000 C   0  0  0  0  0  0  0  0  0  0  0  0
    3.1173  -12.4672    0.0000 C   0  0  0  0  0  0  0  0  0  0  0  0
    3.3723  -11.6826    0.0000 C   0  0  0  0  0  0  0  0  0  0  0  0
    8.2141  -10.6534    0.0000 O   0  0  0  0  0  0  0  0  0  0  0  0
    6.1056  -11.8321    0.0000 H   0  0  0  0  0  0  0  0  0  0  0  0
    7.8682  -12.4047    0.0000 H   0  0  0  0  0  0  0  0  0  0  0  0
    6.8216  -12.6272    0.0000 H   0  0  0  0  0  0  0  0  0  0  0  0
    6.3605  -11.0475    0.0000 H   0  0  0  0  0  0  0  0  0  0  0  0
    7.0776  -11.2585    0.0000 H   0  0  0  0  0  0  0  0  0  0  0  0
    5.4889  -12.1043    0.0000 H   0  0  0  0  0  0  0  0  0  0  0  0
    4.9106  -11.5725    0.0000 H   0  0  0  0  0  0  0  0  0  0  0  0
    6.2456   -8.1501    0.0000 H   0  0  0  0  0  0  0  0  0  0  0  0
    5.5297   -7.3550    0.0000 H   0  0  0  0  0  0  0  0  0  0  0  0
    3.6004   -7.9820    0.0000 H   0  0  0  0  0  0  0  0  0  0  0  0
    3.9310   -6.9643    0.0000 H   0  0  0  0  0  0  0  0  0  0  0  0
    5.9485   -6.7524    0.0000 H   0  0  0  0  0  0  0  0  0  0  0  0
    5.2326   -5.9573    0.0000 H   0  0  0  0  0  0  0  0  0  0  0  0
    5.5678   -5.3725    0.0000 H   0  0  0  0  0  0  0  0  0  0  0  0
    3.0062   -5.1866    0.0000 H   0  0  0  0  0  0  0  0  0  0  0  0
    3.3368   -4.1690    0.0000 H   0  0  0  0  0  0  0  0  0  0  0  0
    5.3543   -3.9569    0.0000 H   0  0  0  0  0  0  0  0  0  0  0  0
    4.6384   -3.1618    0.0000 H   0  0  0  0  0  0  0  0  0  0  0  0
    2.7091   -3.7888    0.0000 H   0  0  0  0  0  0  0  0  0  0  0  0
    3.0397   -2.7711    0.0000 H   0  0  0  0  0  0  0  0  0  0  0  0
    5.1219   -1.6739    0.0000 H   0  0  0  0  0  0  0  0  0  0  0  0
    5.1472   -2.1767    0.0000 H   0  0  0  0  0  0  0  0  0  0  0  0
    7.6916   -3.4602    0.0000 H   0  0  0  0  0  0  0  0  0  0  0  0
    7.2689   -3.7335    0.0000 H   0  0  0  0  0  0  0  0  0  0  0  0
    5.8078   -6.0519    0.0000 H   0  0  0  0  0  0  0  0  0  0  0  0
    7.6535   -5.4427    0.0000 H   0  0  0  0  0  0  0  0  0  0  0  0
    8.5829   -7.6533    0.0000 H   0  0  0  0  0  0  0  0  0  0  0  0
    8.1602   -7.9266    0.0000 H   0  0  0  0  0  0  0  0  0  0  0  0
    8.3209  -10.7719    0.0000 H   0  0  0  0  0  0  0  0  0  0  0  0
    8.8880   -9.2663    0.0000 H   0  0  0  0  0  0  0  0  0  0  0  0
    9.2186   -8.2486    0.0000 H   0  0  0  0  0  0  0  0  0  0  0  0
    7.7109   -6.8913    0.0000 H   0  0  0  0  0  0  0  0  0  0  0  0
    8.7576   -6.6689    0.0000 H   0  0  0  0  0  0  0  0  0  0  0  0
    9.9499   -8.3102    0.0000 H   0  0  0  0  0  0  0  0  0  0  0  0
   10.2805   -7.2925    0.0000 H   0  0  0  0  0  0  0  0  0  0  0  0
    8.7728   -5.9351    0.0000 H   0  0  0  0  0  0  0  0  0  0  0  0
    9.8195   -5.7127    0.0000 H   0  0  0  0  0  0  0  0  0  0  0  0
   10.9783   -7.3168    0.0000 H   0  0  0  0  0  0  0  0  0  0  0  0
   10.6110   -5.5887    0.0000 H   0  0  0  0  0  0  0  0  0  0  0  0
    8.8458   -7.0840    0.0000 H   0  0  0  0  0  0  0  0  0  0  0  0
    9.1764   -6.0663    0.0000 H   0  0  0  0  0  0  0  0  0  0  0  0
    6.8678   -4.8367    0.0000 H   0  0  0  0  0  0  0  0  0  0  0  0
    8.0804   -3.2330    0.0000 H   0  0  0  0  0  0  0  0  0  0  0  0
    9.8838   -6.6937    0.0000 H   0  0  0  0  0  0  0  0  0  0  0  0
   11.4920   -5.7652    0.0000 H   0  0  0  0  0  0  0  0  0  0  0  0
   11.4920   -3.9082    0.0000 H   0  0  0  0  0  0  0  0  0  0  0  0
    9.8838   -2.9797    0.0000 H   0  0  0  0  0  0  0  0  0  0  0  0
    7.9967   -5.0732    0.0000 H   0  0  0  0  0  0  0  0  0  0  0  0
    8.3273   -4.0555    0.0000 H   0  0  0  0  0  0  0  0  0  0  0  0
    6.0187   -2.8259    0.0000 H   0  0  0  0  0  0  0  0  0  0  0  0
    7.2314   -1.2222    0.0000 H   0  0  0  0  0  0  0  0  0  0  0  0
    9.0347   -4.6829    0.0000 H   0  0  0  0  0  0  0  0  0  0  0  0
   10.6429   -3.7544    0.0000 H   0  0  0  0  0  0  0  0  0  0  0  0
   10.6429   -1.8974    0.0000 H   0  0  0  0  0  0  0  0  0  0  0  0
    9.0347   -0.9689    0.0000 H   0  0  0  0  0  0  0  0  0  0  0  0
    6.6712   -2.2162    0.0000 H   0  0  0  0  0  0  0  0  0  0  0  0
    5.9552   -1.4211    0.0000 H   0  0  0  0  0  0  0  0  0  0  0  0
    3.9467   -2.9786    0.0000 H   0  0  0  0  0  0  0  0  0  0  0  0
    2.7040   -1.5986    0.0000 H   0  0  0  0  0  0  0  0  0  0  0  0
    3.2780    0.1676    0.0000 H   0  0  0  0  0  0  0  0  0  0  0  0
    5.0943    0.5536    0.0000 H   0  0  0  0  0  0  0  0  0  0  0  0
    6.3370   -0.8264    0.0000 H   0  0  0  0  0  0  0  0  0  0  0  0
    3.8064  -10.3463    0.0000 H   0  0  0  0  0  0  0  0  0  0  0  0
    3.0905   -9.5511    0.0000 H   0  0  0  0  0  0  0  0  0  0  0  0
    4.8030   -7.7263    0.0000 H   0  0  0  0  0  0  0  0  0  0  0  0
    3.1812   -7.1994    0.0000 H   0  0  0  0  0  0  0  0  0  0  0  0
    3.7182   -9.9313    0.0000 H   0  0  0  0  0  0  0  0  0  0  0  0
    3.3876  -10.9489    0.0000 H   0  0  0  0  0  0  0  0  0  0  0  0
    5.7408  -11.9096    0.0000 H   0  0  0  0  0  0  0  0  0  0  0  0
    5.1668  -13.6758    0.0000 H   0  0  0  0  0  0  0  0  0  0  0  0
    3.3505  -14.0618    0.0000 H   0  0  0  0  0  0  0  0  0  0  0  0
    2.1078  -12.6818    0.0000 H   0  0  0  0  0  0  0  0  0  0  0  0
    2.6818  -10.9156    0.0000 H   0  0  0  0  0  0  0  0  0  0  0  0
    8.8632  -11.3742    0.0000 H   0  0  0  0  0  0  0  0  0  0  0  0
  1  2  1  0  0  0  0
  1 83  1  0  0  0  0
  1 84  1  0  0  0  0
  1 85  1  0  0  0  0
  2 82  1  0  0  0  0
  2 86  1  1  0  0  0
  3  2  1  0  0  0  0
  3  4  1  0  0  0  0
  3 38  1  0  0  0  0
  3 87  1  6  0  0  0
  4  5  2  0  0  0  0
  4  6  1  0  0  0  0
  6  7  1  0  0  0  0
  6 88  1  0  0  0  0
  7  8  1  0  0  0  0
  7 75  1  0  0  0  0
  7 89  1  6  0  0  0
  8  9  2  0  0  0  0
  8 10  1  0  0  0  0
 10 11  1  0  0  0  0
 10 71  1  0  0  0  0
 11 12  1  0  0  0  0
 11 90  1  0  0  0  0
 11 91  1  0  0  0  0
 12 13  1  0  0  0  0
 12 92  1  0  0  0  0
 12 93  1  0  0  0  0
 13 14  1  0  0  0  0
 13 94  1  0  0  0  0
 13 95  1  0  0  0  0
 14 15  2  0  0  0  0
 14 16  1  0  0  0  0
 16 17  1  0  0  0  0
 16 96  1  0  0  0  0
 17 18  1  0  0  0  0
 17 97  1  0  0  0  0
 17 98  1  0  0  0  0
 18 19  1  0  0  0  0
 18 99  1  0  0  0  0
 18100  1  0  0  0  0
 19 20  1  0  0  0  0
 19101  1  0  0  0  0
 19102  1  0  0  0  0
 20 21  2  0  0  0  0
 20 22  1  0  0  0  0
 22 23  1  0  0  0  0
 22103  1  0  0  0  0
 23 24  1  0  0  0  0
 23 64  1  0  0  0  0
 23104  1  6  0  0  0
 24 25  2  0  0  0  0
 24 26  1  0  0  0  0
 26 27  1  0  0  0  0
 26105  1  0  0  0  0
 27 28  1  0  0  0  0
 27 54  1  0  0  0  0
 27106  1  6  0  0  0
 28 29  2  0  0  0  0
 28 30  1  0  0  0  0
 30 31  1  0  0  0  0
 30107  1  0  0  0  0
 31 32  1  0  0  0  0
 31 44  1  0  0  0  0
 31108  1  1  0  0  0
 32 33  2  0  0  0  0
 32 34  1  0  0  0  0
 34 35  1  0  0  0  0
 34109  1  0  0  0  0
 35 36  1  0  0  0  0
 35 39  1  0  0  0  0
 35110  1  6  0  0  0
 36 37  2  0  0  0  0
 36 38  1  0  0  0  0
 38111  1  0  0  0  0
 39 40  1  0  0  0  0
 39112  1  0  0  0  0
 39113  1  0  0  0  0
 40 41  1  0  0  0  0
 40114  1  0  0  0  0
 40115  1  0  0  0  0
 41 42  1  0  0  0  0
 41116  1  0  0  0  0
 41117  1  0  0  0  0
 42 43  1  0  0  0  0
 42118  1  0  0  0  0
 42119  1  0  0  0  0
 43120  1  0  0  0  0
 43121  1  0  0  0  0
 44 45  1  0  0  0  0
 44122  1  0  0  0  0
 44123  1  0  0  0  0
 45 46  2  0  0  0  0
 45 49  1  0  0  0  0
 46 47  1  0  0  0  0
 46124  1  0  0  0  0
 47 48  1  0  0  0  0
 47125  1  0  0  0  0
 48 49  1  0  0  0  0
 48 53  2  0  0  0  0
 49 50  2  0  0  0  0
 50 51  1  0  0  0  0
 50126  1  0  0  0  0
 51 52  2  0  0  0  0
 51127  1  0  0  0  0
 52 53  1  0  0  0  0
 52128  1  0  0  0  0
 53129  1  0  0  0  0
 54 55  1  0  0  0  0
 54130  1  0  0  0  0
 54131  1  0  0  0  0
 55 56  2  0  0  0  0
 55 59  1  0  0  0  0
 56 57  1  0  0  0  0
 56132  1  0  0  0  0
 57 58  1  0  0  0  0
 57133  1  0  0  0  0
 58 59  1  0  0  0  0
 58 63  2  0  0  0  0
 59 60  2  0  0  0  0
 60 61  1  0  0  0  0
 60134  1  0  0  0  0
 61 62  2  0  0  0  0
 61135  1  0  0  0  0
 62 63  1  0  0  0  0
 62136  1  0  0  0  0
 63137  1  0  0  0  0
 64 65  1  0  0  0  0
 64138  1  0  0  0  0
 64139  1  0  0  0  0
 65 66  2  0  0  0  0
 65 70  1  0  0  0  0
 66 67  1  0  0  0  0
 66140  1  0  0  0  0
 67 68  2  0  0  0  0
 67141  1  0  0  0  0
 68 69  1  0  0  0  0
 68142  1  0  0  0  0
 69 70  2  0  0  0  0
 69143  1  0  0  0  0
 70144  1  0  0  0  0
 71 72  1  0  0  0  0
 71145  1  0  0  0  0
 71146  1  0  0  0  0
 72 73  2  0  0  0  0
 72 74  1  0  0  0  0
 74147  1  0  0  0  0
 74148  1  0  0  0  0
 75 76  1  0  0  0  0
 75149  1  0  0  0  0
 75150  1  0  0  0  0
 76 77  2  0  0  0  0
 76 81  1  0  0  0  0
 77 78  1  0  0  0  0
 77151  1  0  0  0  0
 78 79  2  0  0  0  0
 78152  1  0  0  0  0
 79 80  1  0  0  0  0
 79153  1  0  0  0  0
 80 81  2  0  0  0  0
 80154  1  0  0  0  0
 81155  1  0  0  0  0
 82156  1  0  0  0  0
M  END
>  <DRUGBANK_ID>
DB12777

>  <COMMON_NAME>
Veldoreotide

>  <CAS_NUMBER>
252845-37-7

>  <UNII>
1Z83587HBN

$$$$
