
 OpenBabel10282417072D

 95100  0  0  1  0  0  0  0  0999 V2000
   -0.7145   -0.4125    0.0000 C   0  0  0  0  0  0  0  0  0  0  0  0
   -0.7145   -1.2375    0.0000 C   0  0  0  0  0  0  0  0  0  0  0  0
    0.0000   -1.6500    0.0000 C   0  0  0  0  0  0  0  0  0  0  0  0
    0.7145   -1.2375    0.0000 C   0  0  0  0  0  0  0  0  0  0  0  0
    0.7145   -0.4125    0.0000 C   0  0  0  0  0  0  0  0  0  0  0  0
    0.0000   -0.0000    0.0000 C   0  0  0  0  0  0  0  0  0  0  0  0
    1.4289   -0.0000    0.0000 C   0  0  0  0  0  0  0  0  0  0  0  0
    2.1434   -0.4125    0.0000 N   0  0  0  0  0  0  0  0  0  0  0  0
    2.1434   -1.2375    0.0000 N   0  0  0  0  0  0  0  0  0  0  0  0
    1.4289   -1.6500    0.0000 C   0  0  0  0  0  0  0  0  0  0  0  0
    1.4289   -2.4750    0.0000 O   0  0  0  0  0  0  0  0  0  0  0  0
    2.8579   -1.6500    0.0000 C   0  0  0  0  0  0  0  0  0  0  0  0
    2.8579   -2.4750    0.0000 C   0  0  1  0  0  0  0  0  0  0  0  0
    2.1904   -2.9599    0.0000 C   0  0  0  0  0  0  0  0  0  0  0  0
    2.4454   -3.7445    0.0000 C   0  0  0  0  0  0  0  0  0  0  0  0
    3.2704   -3.7445    0.0000 C   0  0  0  0  0  0  0  0  0  0  0  0
    3.5253   -2.9599    0.0000 N   0  0  0  0  0  0  0  0  0  0  0  0
    4.3099   -2.7050    0.0000 C   0  0  0  0  0  0  0  0  0  0  0  0
    4.9230   -3.2570    0.0000 C   0  0  0  0  0  0  0  0  0  0  0  0
    5.7077   -3.0021    0.0000 C   0  0  0  0  0  0  0  0  0  0  0  0
    6.3208   -3.5541    0.0000 C   0  0  0  0  0  0  0  0  0  0  0  0
    6.1492   -4.3611    0.0000 C   0  0  0  0  0  0  0  0  0  0  0  0
    6.7623   -4.9131    0.0000 C   0  0  0  0  0  0  0  0  0  0  0  0
    6.5908   -5.7201    0.0000 C   0  0  0  0  0  0  0  0  0  0  0  0
    5.8062   -5.9750    0.0000 C   0  0  0  0  0  0  0  0  0  0  0  0
    5.1931   -5.4230    0.0000 C   0  0  0  0  0  0  0  0  0  0  0  0
    5.3646   -4.6160    0.0000 C   0  0  0  0  0  0  0  0  0  0  0  0
    5.6346   -6.7820    0.0000 O   0  0  0  0  0  0  0  0  0  0  0  0
    4.8500   -7.0369    0.0000 C   0  0  0  0  0  0  0  0  0  0  0  0
    4.6785   -7.8439    0.0000 C   0  0  0  0  0  0  0  0  0  0  0  0
    3.8939   -8.0988    0.0000 C   0  0  0  0  0  0  0  0  0  0  0  0
    3.7223   -8.9058    0.0000 N   0  0  0  0  0  0  0  0  0  0  0  0
    4.3750   -9.4105    0.0000 C   0  0  0  0  0  0  0  0  0  0  0  0
    4.3873  -10.2354    0.0000 C   0  0  0  0  0  0  0  0  0  0  0  0
    3.7501  -10.7594    0.0000 C   0  0  0  0  0  0  0  0  0  0  0  0
    2.9431  -10.5878    0.0000 C   0  0  0  0  0  0  0  0  0  0  0  0
    2.5741   -9.8500    0.0000 C   0  0  0  0  0  0  0  0  0  0  0  0
    2.9209   -9.1014    0.0000 C   0  0  0  0  0  0  0  0  0  0  0  0
    1.4289    0.8250    0.0000 C   0  0  0  0  0  0  0  0  0  0  0  0
    2.1434    1.2375    0.0000 C   0  0  0  0  0  0  0  0  0  0  0  0
    2.1434    2.0625    0.0000 C   0  0  0  0  0  0  0  0  0  0  0  0
    2.8579    2.4750    0.0000 C   0  0  0  0  0  0  0  0  0  0  0  0
    3.5724    2.0625    0.0000 C   0  0  0  0  0  0  0  0  0  0  0  0
    3.5724    1.2375    0.0000 C   0  0  0  0  0  0  0  0  0  0  0  0
    2.8579    0.8250    0.0000 C   0  0  0  0  0  0  0  0  0  0  0  0
    4.2868    2.4750    0.0000 Cl  0  0  0  0  0  0  0  0  0  0  0  0
   -1.6082    0.1035    0.0000 H   0  0  0  0  0  0  0  0  0  0  0  0
   -1.6082   -1.7535    0.0000 H   0  0  0  0  0  0  0  0  0  0  0  0
    0.0000   -2.6820    0.0000 H   0  0  0  0  0  0  0  0  0  0  0  0
    0.0000    1.0320    0.0000 H   0  0  0  0  0  0  0  0  0  0  0  0
    3.7845   -1.1150    0.0000 H   0  0  0  0  0  0  0  0  0  0  0  0
    3.7845   -2.1850    0.0000 H   0  0  0  0  0  0  0  0  0  0  0  0
    1.9045   -1.9892    0.0000 H   0  0  0  0  0  0  0  0  0  0  0  0
    1.1728   -2.6293    0.0000 H   0  0  0  0  0  0  0  0  0  0  0  0
    1.4338   -3.7165    0.0000 H   0  0  0  0  0  0  0  0  0  0  0  0
    1.8165   -4.6102    0.0000 H   0  0  0  0  0  0  0  0  0  0  0  0
    2.9312   -4.6979    0.0000 H   0  0  0  0  0  0  0  0  0  0  0  0
    3.8993   -4.6101    0.0000 H   0  0  0  0  0  0  0  0  0  0  0  0
    4.3272   -3.5771    0.0000 H   0  0  0  0  0  0  0  0  0  0  0  0
    4.5324   -1.6584    0.0000 H   0  0  0  0  0  0  0  0  0  0  0  0
    5.3275   -2.3743    0.0000 H   0  0  0  0  0  0  0  0  0  0  0  0
    4.7005   -4.3036    0.0000 H   0  0  0  0  0  0  0  0  0  0  0  0
    5.7181   -3.9730    0.0000 H   0  0  0  0  0  0  0  0  0  0  0  0
    5.9302   -1.9555    0.0000 H   0  0  0  0  0  0  0  0  0  0  0  0
    6.7253   -2.6714    0.0000 H   0  0  0  0  0  0  0  0  0  0  0  0
    7.3384   -3.2235    0.0000 H   0  0  0  0  0  0  0  0  0  0  0  0
    7.1159   -4.2701    0.0000 H   0  0  0  0  0  0  0  0  0  0  0  0
    7.7438   -4.5942    0.0000 H   0  0  0  0  0  0  0  0  0  0  0  0
    7.3577   -6.4106    0.0000 H   0  0  0  0  0  0  0  0  0  0  0  0
    4.2116   -5.7419    0.0000 H   0  0  0  0  0  0  0  0  0  0  0  0
    4.5977   -3.9255    0.0000 H   0  0  0  0  0  0  0  0  0  0  0  0
    4.0548   -6.3209    0.0000 H   0  0  0  0  0  0  0  0  0  0  0  0
    3.8324   -7.3676    0.0000 H   0  0  0  0  0  0  0  0  0  0  0  0
    5.4737   -8.5599    0.0000 H   0  0  0  0  0  0  0  0  0  0  0  0
    4.4560   -8.8905    0.0000 H   0  0  0  0  0  0  0  0  0  0  0  0
    3.0988   -7.3828    0.0000 H   0  0  0  0  0  0  0  0  0  0  0  0
    2.8762   -8.4294    0.0000 H   0  0  0  0  0  0  0  0  0  0  0  0
    5.3320   -8.9319    0.0000 H   0  0  0  0  0  0  0  0  0  0  0  0
    5.2894   -9.9662    0.0000 H   0  0  0  0  0  0  0  0  0  0  0  0
    5.3582  -10.6852    0.0000 H   0  0  0  0  0  0  0  0  0  0  0  0
    4.5230  -11.2968    0.0000 H   0  0  0  0  0  0  0  0  0  0  0  0
    4.0038  -11.7989    0.0000 H   0  0  0  0  0  0  0  0  0  0  0  0
    3.0049  -11.5272    0.0000 H   0  0  0  0  0  0  0  0  0  0  0  0
    2.2885  -11.4342    0.0000 H   0  0  0  0  0  0  0  0  0  0  0  0
    1.8782  -10.4839    0.0000 H   0  0  0  0  0  0  0  0  0  0  0  0
    1.5042   -9.8660    0.0000 H   0  0  0  0  0  0  0  0  0  0  0  0
    1.9913   -8.9526    0.0000 H   0  0  0  0  0  0  0  0  0  0  0  0
    2.2413   -8.2749    0.0000 H   0  0  0  0  0  0  0  0  0  0  0  0
    3.2591   -8.0863    0.0000 H   0  0  0  0  0  0  0  0  0  0  0  0
    0.5023    1.3600    0.0000 H   0  0  0  0  0  0  0  0  0  0  0  0
    1.4289    1.8950    0.0000 H   0  0  0  0  0  0  0  0  0  0  0  0
    1.2497    2.5785    0.0000 H   0  0  0  0  0  0  0  0  0  0  0  0
    2.8579    3.5070    0.0000 H   0  0  0  0  0  0  0  0  0  0  0  0
    4.4661    0.7215    0.0000 H   0  0  0  0  0  0  0  0  0  0  0  0
    2.8579   -0.2070    0.0000 H   0  0  0  0  0  0  0  0  0  0  0  0
  1  2  2  0  0  0  0
  1  6  1  0  0  0  0
  1 47  1  0  0  0  0
  2  3  1  0  0  0  0
  2 48  1  0  0  0  0
  3  4  2  0  0  0  0
  3 49  1  0  0  0  0
  4  5  1  0  0  0  0
  4 10  1  0  0  0  0
  5  6  2  0  0  0  0
  5  7  1  0  0  0  0
  6 50  1  0  0  0  0
  7  8  2  0  0  0  0
  7 39  1  0  0  0  0
  8  9  1  0  0  0  0
  9 10  1  0  0  0  0
  9 12  1  0  0  0  0
 10 11  2  0  0  0  0
 12 51  1  0  0  0  0
 12 52  1  0  0  0  0
 13 12  1  0  0  0  0
 13 14  1  0  0  0  0
 13 17  1  0  0  0  0
 13 53  1  1  0  0  0
 14 15  1  0  0  0  0
 14 54  1  0  0  0  0
 14 55  1  0  0  0  0
 15 16  1  0  0  0  0
 15 56  1  0  0  0  0
 15 57  1  0  0  0  0
 16 17  1  0  0  0  0
 16 58  1  0  0  0  0
 16 59  1  0  0  0  0
 17 18  1  0  0  0  0
 18 19  1  0  0  0  0
 18 60  1  0  0  0  0
 18 61  1  0  0  0  0
 19 20  1  0  0  0  0
 19 62  1  0  0  0  0
 19 63  1  0  0  0  0
 20 21  1  0  0  0  0
 20 64  1  0  0  0  0
 20 65  1  0  0  0  0
 21 22  1  0  0  0  0
 21 66  1  0  0  0  0
 21 67  1  0  0  0  0
 22 23  2  0  0  0  0
 22 27  1  0  0  0  0
 23 24  1  0  0  0  0
 23 68  1  0  0  0  0
 24 25  2  0  0  0  0
 24 69  1  0  0  0  0
 25 26  1  0  0  0  0
 25 28  1  0  0  0  0
 26 27  2  0  0  0  0
 26 70  1  0  0  0  0
 27 71  1  0  0  0  0
 28 29  1  0  0  0  0
 29 30  1  0  0  0  0
 29 72  1  0  0  0  0
 29 73  1  0  0  0  0
 30 31  1  0  0  0  0
 30 74  1  0  0  0  0
 30 75  1  0  0  0  0
 31 32  1  0  0  0  0
 31 76  1  0  0  0  0
 31 77  1  0  0  0  0
 32 33  1  0  0  0  0
 32 38  1  0  0  0  0
 33 34  1  0  0  0  0
 33 78  1  0  0  0  0
 33 79  1  0  0  0  0
 34 35  1  0  0  0  0
 34 80  1  0  0  0  0
 34 81  1  0  0  0  0
 35 36  1  0  0  0  0
 35 82  1  0  0  0  0
 35 83  1  0  0  0  0
 36 37  1  0  0  0  0
 36 84  1  0  0  0  0
 36 85  1  0  0  0  0
 37 38  1  0  0  0  0
 37 86  1  0  0  0  0
 37 87  1  0  0  0  0
 38 88  1  0  0  0  0
 38 89  1  0  0  0  0
 39 40  1  0  0  0  0
 39 90  1  0  0  0  0
 39 91  1  0  0  0  0
 40 41  2  0  0  0  0
 40 45  1  0  0  0  0
 41 42  1  0  0  0  0
 41 92  1  0  0  0  0
 42 43  2  0  0  0  0
 42 93  1  0  0  0  0
 43 44  1  0  0  0  0
 43 46  1  0  0  0  0
 44 45  2  0  0  0  0
 44 94  1  0  0  0  0
 45 95  1  0  0  0  0
M  END
>  <DRUGBANK_ID>
DB12806

>  <COMMON_NAME>
GSK-1004723

>  <CAS_NUMBER>
955359-72-5

>  <UNII>
S08212J4ZR

$$$$
