SNB
 OpenBabel10282417072D

 33 35  0  0  0  0  0  0  0  0999 V2000
   -1.5371    0.1863    0.0000 Cl  0  0  0  0  0  0  0  0  0  0  0  0
   -0.8226    0.5988    0.0000 C   0  0  0  0  0  0  0  0  0  0  0  0
   -0.8226    1.4238    0.0000 C   0  0  0  0  0  0  0  0  0  0  0  0
   -1.5371    1.8363    0.0000 O   0  0  0  0  0  0  0  0  0  0  0  0
   -1.5371    2.6613    0.0000 C   0  0  0  0  0  0  0  0  0  0  0  0
   -0.1082    0.1863    0.0000 C   0  0  0  0  0  0  0  0  0  0  0  0
    0.6063    0.5988    0.0000 C   0  0  0  0  0  0  0  0  0  0  0  0
    0.6063    1.4238    0.0000 C   0  0  0  0  0  0  0  0  0  0  0  0
   -0.1082    1.8363    0.0000 C   0  0  0  0  0  0  0  0  0  0  0  0
    1.3208    0.1863    0.0000 C   0  0  0  0  0  0  0  0  0  0  0  0
    2.0352    0.5988    0.0000 N   0  0  0  0  0  0  0  0  0  0  0  0
    2.0352    1.4238    0.0000 C   0  0  0  0  0  0  0  0  0  0  0  0
    1.3208    1.8363    0.0000 C   0  0  0  0  0  0  0  0  0  0  0  0
    1.3208   -0.6387    0.0000 C   0  0  0  0  0  0  0  0  0  0  0  0
    2.0352   -1.0512    0.0000 C   0  0  0  0  0  0  0  0  0  0  0  0
    2.0352   -1.8762    0.0000 C   0  0  0  0  0  0  0  0  0  0  0  0
    2.7497   -2.2887    0.0000 Br  0  0  0  0  0  0  0  0  0  0  0  0
    1.3208   -2.2887    0.0000 C   0  0  0  0  0  0  0  0  0  0  0  0
    0.6063   -1.8762    0.0000 C   0  0  0  0  0  0  0  0  0  0  0  0
    0.6063   -1.0512    0.0000 C   0  0  0  0  0  0  0  0  0  0  0  0
   -0.6105    3.1963    0.0000 H   0  0  0  0  0  0  0  0  0  0  0  0
   -2.4637    3.1963    0.0000 H   0  0  0  0  0  0  0  0  0  0  0  0
   -1.5371    3.7313    0.0000 H   0  0  0  0  0  0  0  0  0  0  0  0
   -0.1082   -0.8457    0.0000 H   0  0  0  0  0  0  0  0  0  0  0  0
   -0.1082    2.8683    0.0000 H   0  0  0  0  0  0  0  0  0  0  0  0
    2.9619    1.9588    0.0000 H   0  0  0  0  0  0  0  0  0  0  0  0
    2.0352    2.4938    0.0000 H   0  0  0  0  0  0  0  0  0  0  0  0
    1.3208    2.9063    0.0000 H   0  0  0  0  0  0  0  0  0  0  0  0
    2.2475    2.3713    0.0000 H   0  0  0  0  0  0  0  0  0  0  0  0
    2.9289   -0.5352    0.0000 H   0  0  0  0  0  0  0  0  0  0  0  0
    1.3208   -3.3207    0.0000 H   0  0  0  0  0  0  0  0  0  0  0  0
   -0.2874   -2.3922    0.0000 H   0  0  0  0  0  0  0  0  0  0  0  0
   -0.2874   -0.5352    0.0000 H   0  0  0  0  0  0  0  0  0  0  0  0
  1  2  1  0  0  0  0
  2  3  1  0  0  0  0
  2  6  2  0  0  0  0
  3  4  1  0  0  0  0
  3  9  2  0  0  0  0
  4  5  1  0  0  0  0
  5 21  1  0  0  0  0
  5 22  1  0  0  0  0
  5 23  1  0  0  0  0
  6  7  1  0  0  0  0
  6 24  1  0  0  0  0
  7  8  2  0  0  0  0
  7 10  1  0  0  0  0
  8  9  1  0  0  0  0
  8 13  1  0  0  0  0
  9 25  1  0  0  0  0
 10 11  2  0  0  0  0
 10 14  1  0  0  0  0
 11 12  1  0  0  0  0
 12 13  1  0  0  0  0
 12 26  1  0  0  0  0
 12 27  1  0  0  0  0
 13 28  1  0  0  0  0
 13 29  1  0  0  0  0
 14 15  1  0  0  0  0
 14 20  2  0  0  0  0
 15 16  2  0  0  0  0
 15 30  1  0  0  0  0
 16 17  1  0  0  0  0
 16 18  1  0  0  0  0
 18 19  2  0  0  0  0
 18 31  1  0  0  0  0
 19 20  1  0  0  0  0
 19 32  1  0  0  0  0
 20 33  1  0  0  0  0
M  END
>  <DRUGBANK_ID>
DB08555

>  <COMMON_NAME>
1-(3-bromophenyl)-7-chloro-6-methoxy-3,4-dihydroisoquinoline

$$$$
