
 OpenBabel10282417072D

122126  0  0  1  0  0  0  0  0999 V2000
    2.0701   -1.9354    0.0000 H   0  0  0  0  0  0  0  0  0  0  0  0
    1.3556   -2.3479    0.0000 C   0  0  1  0  0  0  0  0  0  0  0  0
    0.5710   -2.6029    0.0000 C   0  0  1  0  0  0  0  0  0  0  0  0
    0.0860   -1.9354    0.0000 C   0  0  0  0  0  0  0  0  0  0  0  0
   -0.7390   -1.9354    0.0000 O   0  0  0  0  0  0  0  0  0  0  0  0
    0.5710   -1.2680    0.0000 O   0  0  0  0  0  0  0  0  0  0  0  0
    1.3556   -1.5229    0.0000 C   0  0  1  0  0  0  0  0  0  0  0  0
    1.0200   -0.7693    0.0000 C   0  0  0  0  0  0  0  0  0  0  0  0
    2.0701   -1.1104    0.0000 C   0  0  0  0  0  0  0  0  0  0  0  0
    1.3556   -0.6979    0.0000 C   0  0  0  0  0  0  0  0  0  0  0  0
    1.3556    0.1271    0.0000 C   0  0  0  0  0  0  0  0  0  0  0  0
    2.0701   -0.2854    0.0000 O   0  0  0  0  0  0  0  0  0  0  0  0
    2.7845    0.1271    0.0000 C   0  0  0  0  0  0  0  0  0  0  0  0
    2.7845    0.9521    0.0000 O   0  0  0  0  0  0  0  0  0  0  0  0
    3.4990   -0.2854    0.0000 C   0  0  2  0  0  0  0  0  0  0  0  0
    4.2135    0.1271    0.0000 C   0  0  0  0  0  0  0  0  0  0  0  0
    3.4990   -1.1104    0.0000 C   0  0  0  0  0  0  0  0  0  0  0  0
    2.7845   -1.5229    0.0000 O   0  0  0  0  0  0  0  0  0  0  0  0
    4.2135   -1.5229    0.0000 C   0  0  2  0  0  0  0  0  0  0  0  0
    4.9279   -1.1104    0.0000 C   0  0  0  0  0  0  0  0  0  0  0  0
    4.2135   -2.3479    0.0000 C   0  0  1  0  0  0  0  0  0  0  0  0
    4.9279   -2.7604    0.0000 O   0  0  0  0  0  0  0  0  0  0  0  0
    5.6424   -2.3479    0.0000 C   0  0  2  0  0  0  0  0  0  0  0  0
    5.6424   -3.1729    0.0000 H   0  0  0  0  0  0  0  0  0  0  0  0
    5.6424   -1.5229    0.0000 O   0  0  0  0  0  0  0  0  0  0  0  0
    6.3569   -1.1104    0.0000 C   0  0  2  0  0  0  0  0  0  0  0  0
    6.3569   -0.2854    0.0000 C   0  0  0  0  0  0  0  0  0  0  0  0
    7.0714   -1.5229    0.0000 C   0  0  0  0  0  0  0  0  0  0  0  0
    7.0714   -2.3479    0.0000 C   0  0  1  0  0  0  0  0  0  0  0  0
    6.3569   -2.7604    0.0000 C   0  0  1  0  0  0  0  0  0  0  0  0
    6.3569   -3.5854    0.0000 O   0  0  0  0  0  0  0  0  0  0  0  0
    7.7858   -2.7604    0.0000 N   0  0  0  0  0  0  0  0  0  0  0  0
    8.5003   -2.3479    0.0000 C   0  0  0  0  0  0  0  0  0  0  0  0
    7.7858   -3.5854    0.0000 C   0  0  0  0  0  0  0  0  0  0  0  0
    3.4990   -2.7604    0.0000 C   0  0  1  0  0  0  0  0  0  0  0  0
    4.0293   -3.3924    0.0000 C   0  0  0  0  0  0  0  0  0  0  0  0
    3.4990   -3.5854    0.0000 C   0  0  0  0  0  0  0  0  0  0  0  0
    2.7845   -3.9979    0.0000 C   0  0  1  0  0  0  0  0  0  0  0  0
    2.7845   -4.8229    0.0000 C   0  0  0  0  0  0  0  0  0  0  0  0
    2.0701   -3.5854    0.0000 C   0  0  0  0  0  0  0  0  0  0  0  0
    1.3556   -3.9979    0.0000 O   0  0  0  0  0  0  0  0  0  0  0  0
    2.0701   -2.7604    0.0000 C   0  0  2  0  0  0  0  0  0  0  0  0
    2.7845   -2.3479    0.0000 C   0  0  0  0  0  0  0  0  0  0  0  0
    4.3115   -2.9037    0.0000 O   0  0  0  0  0  0  0  0  0  0  0  0
    4.5936   -3.6789    0.0000 C   0  0  0  0  0  0  0  0  0  0  0  0
    0.3160   -3.3875    0.0000 C   0  0  0  0  0  0  0  0  0  0  0  0
    0.8681   -4.0006    0.0000 N   0  0  0  0  0  0  0  0  0  0  0  0
   -0.4909   -3.5590    0.0000 N   0  0  0  0  0  0  0  0  0  0  0  0
   -0.7459   -4.3437    0.0000 O   0  0  0  0  0  0  0  0  0  0  0  0
   -1.5529   -4.5152    0.0000 C   0  0  1  0  0  0  0  0  0  0  0  0
   -2.1049   -3.9021    0.0000 C   0  0  0  0  0  0  0  0  0  0  0  0
   -1.8078   -5.2998    0.0000 C   0  0  0  0  0  0  0  0  0  0  0  0
   -1.3229   -5.9672    0.0000 N   0  0  0  0  0  0  0  0  0  0  0  0
   -1.8078   -6.6347    0.0000 N   0  0  0  0  0  0  0  0  0  0  0  0
   -2.5924   -6.3797    0.0000 C   0  0  0  0  0  0  0  0  0  0  0  0
   -2.5924   -5.5547    0.0000 S   0  0  0  0  0  0  0  0  0  0  0  0
   -3.2599   -6.8647    0.0000 C   0  0  0  0  0  0  0  0  0  0  0  0
   -3.1736   -7.6851    0.0000 C   0  0  0  0  0  0  0  0  0  0  0  0
   -3.8411   -8.1701    0.0000 C   0  0  0  0  0  0  0  0  0  0  0  0
   -4.5947   -7.8345    0.0000 C   0  0  0  0  0  0  0  0  0  0  0  0
   -4.6810   -7.0140    0.0000 C   0  0  0  0  0  0  0  0  0  0  0  0
   -4.0135   -6.5291    0.0000 N   0  0  0  0  0  0  0  0  0  0  0  0
    1.3276   -3.3595    0.0000 H   0  0  0  0  0  0  0  0  0  0  0  0
    1.6489    0.0964    0.0000 H   0  0  0  0  0  0  0  0  0  0  0  0
   -0.0441   -0.6575    0.0000 H   0  0  0  0  0  0  0  0  0  0  0  0
    0.5847    0.2082    0.0000 H   0  0  0  0  0  0  0  0  0  0  0  0
    1.5351   -0.1838    0.0000 H   0  0  0  0  0  0  0  0  0  0  0  0
    0.4290   -1.2329    0.0000 H   0  0  0  0  0  0  0  0  0  0  0  0
    0.4290   -0.1629    0.0000 H   0  0  0  0  0  0  0  0  0  0  0  0
    2.2822    0.6621    0.0000 H   0  0  0  0  0  0  0  0  0  0  0  0
    0.4290    0.6621    0.0000 H   0  0  0  0  0  0  0  0  0  0  0  0
    1.3556    1.1971    0.0000 H   0  0  0  0  0  0  0  0  0  0  0  0
    3.4990    0.7846    0.0000 H   0  0  0  0  0  0  0  0  0  0  0  0
    5.1401   -0.4079    0.0000 H   0  0  0  0  0  0  0  0  0  0  0  0
    4.2135    1.1971    0.0000 H   0  0  0  0  0  0  0  0  0  0  0  0
    5.1402    0.6621    0.0000 H   0  0  0  0  0  0  0  0  0  0  0  0
    4.2135   -0.4529    0.0000 H   0  0  0  0  0  0  0  0  0  0  0  0
    5.8546   -1.6454    0.0000 H   0  0  0  0  0  0  0  0  0  0  0  0
    4.9279   -0.0404    0.0000 H   0  0  0  0  0  0  0  0  0  0  0  0
    5.8545   -0.5754    0.0000 H   0  0  0  0  0  0  0  0  0  0  0  0
    5.1402   -1.8129    0.0000 H   0  0  0  0  0  0  0  0  0  0  0  0
    5.4303   -0.5754    0.0000 H   0  0  0  0  0  0  0  0  0  0  0  0
    7.2835    0.2496    0.0000 H   0  0  0  0  0  0  0  0  0  0  0  0
    5.4303    0.2496    0.0000 H   0  0  0  0  0  0  0  0  0  0  0  0
    6.3569    0.7846    0.0000 H   0  0  0  0  0  0  0  0  0  0  0  0
    7.9980   -0.9879    0.0000 H   0  0  0  0  0  0  0  0  0  0  0  0
    7.9980   -2.0579    0.0000 H   0  0  0  0  0  0  0  0  0  0  0  0
    7.9981   -1.8129    0.0000 H   0  0  0  0  0  0  0  0  0  0  0  0
    7.2835   -3.2954    0.0000 H   0  0  0  0  0  0  0  0  0  0  0  0
    5.5169   -4.0704    0.0000 H   0  0  0  0  0  0  0  0  0  0  0  0
    9.4269   -2.8829    0.0000 H   0  0  0  0  0  0  0  0  0  0  0  0
    8.5003   -1.2779    0.0000 H   0  0  0  0  0  0  0  0  0  0  0  0
    9.4270   -1.8129    0.0000 H   0  0  0  0  0  0  0  0  0  0  0  0
    6.8592   -4.1204    0.0000 H   0  0  0  0  0  0  0  0  0  0  0  0
    8.7124   -4.1204    0.0000 H   0  0  0  0  0  0  0  0  0  0  0  0
    7.7858   -4.6554    0.0000 H   0  0  0  0  0  0  0  0  0  0  0  0
    3.6633   -4.3979    0.0000 H   0  0  0  0  0  0  0  0  0  0  0  0
    5.0830   -3.2066    0.0000 H   0  0  0  0  0  0  0  0  0  0  0  0
    4.7171   -4.2121    0.0000 H   0  0  0  0  0  0  0  0  0  0  0  0
    4.4256   -4.1204    0.0000 H   0  0  0  0  0  0  0  0  0  0  0  0
    3.4990   -4.6554    0.0000 H   0  0  0  0  0  0  0  0  0  0  0  0
    3.7111   -4.5329    0.0000 H   0  0  0  0  0  0  0  0  0  0  0  0
    1.8579   -5.3579    0.0000 H   0  0  0  0  0  0  0  0  0  0  0  0
    3.7111   -5.3579    0.0000 H   0  0  0  0  0  0  0  0  0  0  0  0
    2.7845   -5.8929    0.0000 H   0  0  0  0  0  0  0  0  0  0  0  0
    2.9968   -3.2954    0.0000 H   0  0  0  0  0  0  0  0  0  0  0  0
    3.7112   -2.8829    0.0000 H   0  0  0  0  0  0  0  0  0  0  0  0
    2.7845   -1.2779    0.0000 H   0  0  0  0  0  0  0  0  0  0  0  0
    3.7111   -1.8129    0.0000 H   0  0  0  0  0  0  0  0  0  0  0  0
    3.9058   -4.4985    0.0000 H   0  0  0  0  0  0  0  0  0  0  0  0
    5.6473   -3.8648    0.0000 H   0  0  0  0  0  0  0  0  0  0  0  0
    4.9595   -4.6844    0.0000 H   0  0  0  0  0  0  0  0  0  0  0  0
    0.5639   -4.9369    0.0000 H   0  0  0  0  0  0  0  0  0  0  0  0
    1.8311   -3.7959    0.0000 H   0  0  0  0  0  0  0  0  0  0  0  0
   -1.2222   -3.4976    0.0000 H   0  0  0  0  0  0  0  0  0  0  0  0
   -1.7742   -2.8845    0.0000 H   0  0  0  0  0  0  0  0  0  0  0  0
   -3.1515   -4.1245    0.0000 H   0  0  0  0  0  0  0  0  0  0  0  0
   -2.8208   -3.1069    0.0000 H   0  0  0  0  0  0  0  0  0  0  0  0
   -2.2308   -8.1048    0.0000 H   0  0  0  0  0  0  0  0  0  0  0  0
   -3.7333   -9.1964    0.0000 H   0  0  0  0  0  0  0  0  0  0  0  0
   -5.4296   -8.4411    0.0000 H   0  0  0  0  0  0  0  0  0  0  0  0
   -5.6238   -6.5943    0.0000 H   0  0  0  0  0  0  0  0  0  0  0  0
  2  1  1  6  0  0  0
  2  3  1  0  0  0  0
  2  7  1  0  0  0  0
  2 42  1  0  0  0  0
  3  4  1  0  0  0  0
  3 46  1  0  0  0  0
  3 63  1  1  0  0  0
  4  5  2  0  0  0  0
  4  6  1  0  0  0  0
  7  6  1  0  0  0  0
  7  8  1  1  0  0  0
  7  9  1  0  0  0  0
  8 64  1  0  0  0  0
  8 65  1  0  0  0  0
  8 66  1  0  0  0  0
  9 10  1  0  0  0  0
  9 12  1  0  0  0  0
  9 67  1  0  0  0  0
 10 11  1  0  0  0  0
 10 68  1  0  0  0  0
 10 69  1  0  0  0  0
 11 70  1  0  0  0  0
 11 71  1  0  0  0  0
 11 72  1  0  0  0  0
 12 13  1  0  0  0  0
 13 14  2  0  0  0  0
 15 13  1  0  0  0  0
 15 16  1  0  0  0  0
 15 17  1  0  0  0  0
 15 73  1  1  0  0  0
 16 74  1  0  0  0  0
 16 75  1  0  0  0  0
 16 76  1  0  0  0  0
 17 18  2  0  0  0  0
 19 17  1  0  0  0  0
 19 20  1  0  0  0  0
 19 77  1  1  0  0  0
 20 78  1  0  0  0  0
 20 79  1  0  0  0  0
 20 80  1  0  0  0  0
 21 19  1  0  0  0  0
 21 22  1  0  0  0  0
 21 35  1  0  0  0  0
 21 81  1  6  0  0  0
 23 22  1  0  0  0  0
 23 24  1  1  0  0  0
 23 25  1  0  0  0  0
 26 25  1  0  0  0  0
 26 27  1  0  0  0  0
 26 28  1  0  0  0  0
 26 82  1  1  0  0  0
 27 83  1  0  0  0  0
 27 84  1  0  0  0  0
 27 85  1  0  0  0  0
 28 86  1  0  0  0  0
 28 87  1  0  0  0  0
 29 28  1  0  0  0  0
 29 32  1  0  0  0  0
 29 88  1  1  0  0  0
 30 29  1  0  0  0  0
 30 23  1  0  0  0  0
 30 31  1  0  0  0  0
 30 89  1  6  0  0  0
 31 90  1  0  0  0  0
 32 33  1  0  0  0  0
 32 34  1  0  0  0  0
 33 91  1  0  0  0  0
 33 92  1  0  0  0  0
 33 93  1  0  0  0  0
 34 94  1  0  0  0  0
 34 95  1  0  0  0  0
 34 96  1  0  0  0  0
 35 36  1  0  0  0  0
 35 37  1  0  0  0  0
 35 44  1  6  0  0  0
 36 97  1  0  0  0  0
 36 98  1  0  0  0  0
 36 99  1  0  0  0  0
 37100  1  0  0  0  0
 37101  1  0  0  0  0
 38 37  1  0  0  0  0
 38 39  1  0  0  0  0
 38 40  1  0  0  0  0
 38102  1  6  0  0  0
 39103  1  0  0  0  0
 39104  1  0  0  0  0
 39105  1  0  0  0  0
 40 41  2  0  0  0  0
 42 40  1  0  0  0  0
 42 43  1  0  0  0  0
 42106  1  6  0  0  0
 43107  1  0  0  0  0
 43108  1  0  0  0  0
 43109  1  0  0  0  0
 44 45  1  0  0  0  0
 45110  1  0  0  0  0
 45111  1  0  0  0  0
 45112  1  0  0  0  0
 46 47  1  0  0  0  0
 46 48  2  0  0  0  0
 47113  1  0  0  0  0
 47114  1  0  0  0  0
 48 49  1  0  0  0  0
 50 49  1  0  0  0  0
 50 51  1  0  0  0  0
 50 52  1  0  0  0  0
 50115  1  1  0  0  0
 51116  1  0  0  0  0
 51117  1  0  0  0  0
 51118  1  0  0  0  0
 52 53  2  0  0  0  0
 52 56  1  0  0  0  0
 53 54  1  0  0  0  0
 54 55  2  0  0  0  0
 55 56  1  0  0  0  0
 55 57  1  0  0  0  0
 57 58  2  0  0  0  0
 57 62  1  0  0  0  0
 58 59  1  0  0  0  0
 58119  1  0  0  0  0
 59 60  2  0  0  0  0
 59120  1  0  0  0  0
 60 61  1  0  0  0  0
 60121  1  0  0  0  0
 61 62  2  0  0  0  0
 61122  1  0  0  0  0
M  END
>  <DRUGBANK_ID>
DB16246

>  <COMMON_NAME>
Nafithromycin

>  <CAS_NUMBER>
1691240-78-4

>  <UNII>
75F74Y2R70

>  <SYNONYMS>
Nafithromycin

$$$$
