
 OpenBabel10282417072D

 87 92  0  0  0  0  0  0  0  0999 V2000
   -1.8328    0.2000    0.0000 C   0  0  0  0  0  0  0  0  0  0  0  0
   -1.1164   -0.2093    0.0000 C   0  0  1  0  0  0  0  0  0  0  0  0
   -0.4000    0.2000    0.0000 C   0  0  1  0  0  0  0  0  0  0  0  0
    0.3070   -0.2093    0.0000 C   0  0  0  0  0  0  0  0  0  0  0  0
    1.0234    0.2000    0.0000 C   0  0  2  0  0  0  0  0  0  0  0  0
    1.7397   -0.2093    0.0000 C   0  0  0  0  0  0  0  0  0  0  0  0
    2.4469    0.2000    0.0000 N   0  0  0  0  0  0  0  0  0  0  0  0
    1.7397   -1.0280    0.0000 O   0  0  0  0  0  0  0  0  0  0  0  0
    1.0234    1.0280    0.0000 O   0  0  0  0  0  0  0  0  0  0  0  0
    1.7397    1.4374    0.0000 C   0  0  0  0  0  0  0  0  0  0  0  0
    1.7397    2.2654    0.0000 C   0  0  0  0  0  0  0  0  0  0  0  0
    1.7397    3.9122    0.0000 C   0  0  0  0  0  0  0  0  0  0  0  0
    1.0234    3.4936    0.0000 C   0  0  0  0  0  0  0  0  0  0  0  0
    1.0234    2.6748    0.0000 C   0  0  0  0  0  0  0  0  0  0  0  0
    2.4469    2.6748    0.0000 C   0  0  0  0  0  0  0  0  0  0  0  0
    2.4469    3.4936    0.0000 C   0  0  0  0  0  0  0  0  0  0  0  0
   -0.4000    1.0280    0.0000 O   0  0  0  0  0  0  0  0  0  0  0  0
   -1.8328   -1.4468    0.0000 C   0  0  0  0  0  0  0  0  0  0  0  0
   -1.8328   -2.2654    0.0000 C   0  0  0  0  0  0  0  0  0  0  0  0
   -2.5400   -2.6748    0.0000 C   0  0  0  0  0  0  0  0  0  0  0  0
   -2.5400   -3.5028    0.0000 C   0  0  0  0  0  0  0  0  0  0  0  0
   -1.8328   -3.9122    0.0000 C   0  0  0  0  0  0  0  0  0  0  0  0
   -1.1164   -3.5028    0.0000 C   0  0  0  0  0  0  0  0  0  0  0  0
   -1.1164   -2.6748    0.0000 C   0  0  0  0  0  0  0  0  0  0  0  0
   -1.1164   -1.0280    0.0000 O   0  0  0  0  0  0  0  0  0  0  0  0
   -1.8328    1.0280    0.0000 O   0  0  0  0  0  0  0  0  0  0  0  0
   -2.5400   -0.2093    0.0000 N   0  0  0  0  0  0  0  0  0  0  0  0
   -3.2563    0.2000    0.0000 C   0  0  2  0  0  0  0  0  0  0  0  0
   -4.5868    0.2836    0.0000 C   0  0  0  0  0  0  0  0  0  0  0  0
   -3.9447   -0.2372    0.0000 C   0  0  1  0  0  0  0  0  0  0  0  0
   -4.0006   -1.0653    0.0000 O   0  0  0  0  0  0  0  0  0  0  0  0
   -4.2797    1.0466    0.0000 C   0  0  0  0  0  0  0  0  0  0  0  0
   -3.3772    2.4236    0.0000 C   0  0  0  0  0  0  0  0  0  0  0  0
   -4.1960    2.4701    0.0000 C   0  0  0  0  0  0  0  0  0  0  0  0
   -4.6519    1.7909    0.0000 C   0  0  0  0  0  0  0  0  0  0  0  0
   -3.4610    1.0001    0.0000 C   0  0  0  0  0  0  0  0  0  0  0  0
   -3.0051    1.6886    0.0000 C   0  0  0  0  0  0  0  0  0  0  0  0
    3.1633   -0.2093    0.0000 C   0  0  2  0  0  0  0  0  0  0  0  0
    3.8331    0.2744    0.0000 C   0  0  1  0  0  0  0  0  0  0  0  0
    4.4937   -0.2093    0.0000 C   0  0  0  0  0  0  0  0  0  0  0  0
    4.2425   -0.9908    0.0000 C   0  0  0  0  0  0  0  0  0  0  0  0
    3.4145   -0.9908    0.0000 C   0  0  0  0  0  0  0  0  0  0  0  0
    3.0051   -1.7072    0.0000 C   0  0  0  0  0  0  0  0  0  0  0  0
    3.4145   -2.4143    0.0000 C   0  0  0  0  0  0  0  0  0  0  0  0
    4.2425   -2.4143    0.0000 C   0  0  0  0  0  0  0  0  0  0  0  0
    4.6519   -1.7072    0.0000 C   0  0  0  0  0  0  0  0  0  0  0  0
    3.8331    1.1025    0.0000 O   0  0  0  0  0  0  0  0  0  0  0  0
   -2.0418   -0.7464    0.0000 H   0  0  0  0  0  0  0  0  0  0  0  0
   -1.3254    0.7371    0.0000 H   0  0  0  0  0  0  0  0  0  0  0  0
    0.3039   -1.2793    0.0000 H   0  0  0  0  0  0  0  0  0  0  0  0
    1.2317   -0.7477    0.0000 H   0  0  0  0  0  0  0  0  0  0  0  0
    0.0980    0.7371    0.0000 H   0  0  0  0  0  0  0  0  0  0  0  0
    2.4442    1.1845    0.0000 H   0  0  0  0  0  0  0  0  0  0  0  0
    2.6652    0.9004    0.0000 H   0  0  0  0  0  0  0  0  0  0  0  0
    2.6669    1.9714    0.0000 H   0  0  0  0  0  0  0  0  0  0  0  0
    1.7426    4.9442    0.0000 H   0  0  0  0  0  0  0  0  0  0  0  0
    0.1283    4.0072    0.0000 H   0  0  0  0  0  0  0  0  0  0  0  0
    0.1308    2.1569    0.0000 H   0  0  0  0  0  0  0  0  0  0  0  0
    3.3409    2.1593    0.0000 H   0  0  0  0  0  0  0  0  0  0  0  0
    3.3434    4.0047    0.0000 H   0  0  0  0  0  0  0  0  0  0  0  0
    0.4400    1.5130    0.0000 H   0  0  0  0  0  0  0  0  0  0  0  0
   -2.7609   -0.9143    0.0000 H   0  0  0  0  0  0  0  0  0  0  0  0
   -2.7587   -1.9831    0.0000 H   0  0  0  0  0  0  0  0  0  0  0  0
   -3.4340   -2.1593    0.0000 H   0  0  0  0  0  0  0  0  0  0  0  0
   -3.4340   -4.0183    0.0000 H   0  0  0  0  0  0  0  0  0  0  0  0
   -1.8357   -4.9442    0.0000 H   0  0  0  0  0  0  0  0  0  0  0  0
   -0.2238   -4.0208    0.0000 H   0  0  0  0  0  0  0  0  0  0  0  0
   -0.2238   -2.1568    0.0000 H   0  0  0  0  0  0  0  0  0  0  0  0
   -2.5373   -1.1938    0.0000 H   0  0  0  0  0  0  0  0  0  0  0  0
   -3.2313   -0.8697    0.0000 H   0  0  0  0  0  0  0  0  0  0  0  0
   -5.6226    0.0154    0.0000 H   0  0  0  0  0  0  0  0  0  0  0  0
   -4.8141   -0.7620    0.0000 H   0  0  0  0  0  0  0  0  0  0  0  0
   -3.0249   -0.7838    0.0000 H   0  0  0  0  0  0  0  0  0  0  0  0
   -4.8714   -1.4926    0.0000 H   0  0  0  0  0  0  0  0  0  0  0  0
   -2.8121    3.2871    0.0000 H   0  0  0  0  0  0  0  0  0  0  0  0
   -4.6555    3.3942    0.0000 H   0  0  0  0  0  0  0  0  0  0  0  0
   -5.6818    1.8566    0.0000 H   0  0  0  0  0  0  0  0  0  0  0  0
   -1.9748    1.6287    0.0000 H   0  0  0  0  0  0  0  0  0  0  0  0
    3.1064    0.8592    0.0000 H   0  0  0  0  0  0  0  0  0  0  0  0
    2.8804    0.7615    0.0000 H   0  0  0  0  0  0  0  0  0  0  0  0
    5.5114    0.1211    0.0000 H   0  0  0  0  0  0  0  0  0  0  0  0
    5.2514   -0.9648    0.0000 H   0  0  0  0  0  0  0  0  0  0  0  0
    1.9731   -1.7101    0.0000 H   0  0  0  0  0  0  0  0  0  0  0  0
    2.8990   -3.3084    0.0000 H   0  0  0  0  0  0  0  0  0  0  0  0
    4.7580   -3.3084    0.0000 H   0  0  0  0  0  0  0  0  0  0  0  0
    5.6839   -1.7101    0.0000 H   0  0  0  0  0  0  0  0  0  0  0  0
    4.6731    1.5875    0.0000 H   0  0  0  0  0  0  0  0  0  0  0  0
  1 27  1  0  0  0  0
  1  2  1  0  0  0  0
  1 26  2  0  0  0  0
  2  3  1  0  0  0  0
  2 25  1  0  0  0  0
  2 48  1  6  0  0  0
  3  4  1  0  0  0  0
  3 17  1  0  0  0  0
  3 49  1  1  0  0  0
  4  5  1  0  0  0  0
  4 50  1  0  0  0  0
  4 51  1  0  0  0  0
  5  6  1  0  0  0  0
  5  9  1  0  0  0  0
  5 52  1  6  0  0  0
  6  7  1  0  0  0  0
  6  8  2  0  0  0  0
  7 53  1  0  0  0  0
  9 10  1  0  0  0  0
 10 11  1  0  0  0  0
 10 54  1  0  0  0  0
 10 55  1  0  0  0  0
 11 14  2  0  0  0  0
 11 15  1  0  0  0  0
 12 13  2  0  0  0  0
 12 16  1  0  0  0  0
 12 56  1  0  0  0  0
 13 14  1  0  0  0  0
 13 57  1  0  0  0  0
 14 58  1  0  0  0  0
 15 16  2  0  0  0  0
 15 59  1  0  0  0  0
 16 60  1  0  0  0  0
 17 61  1  0  0  0  0
 18 25  1  0  0  0  0
 18 19  1  0  0  0  0
 18 62  1  0  0  0  0
 18 63  1  0  0  0  0
 19 20  2  0  0  0  0
 19 24  1  0  0  0  0
 20 21  1  0  0  0  0
 20 64  1  0  0  0  0
 21 22  2  0  0  0  0
 21 65  1  0  0  0  0
 22 23  1  0  0  0  0
 22 66  1  0  0  0  0
 23 24  2  0  0  0  0
 23 67  1  0  0  0  0
 24 68  1  0  0  0  0
 27 69  1  0  0  0  0
 28 27  1  0  0  0  0
 28 30  1  0  0  0  0
 28 36  1  0  0  0  0
 28 70  1  1  0  0  0
 29 32  1  0  0  0  0
 29 30  1  0  0  0  0
 29 71  1  0  0  0  0
 29 72  1  0  0  0  0
 30 31  1  0  0  0  0
 30 73  1  1  0  0  0
 31 74  1  0  0  0  0
 32 35  2  0  0  0  0
 32 36  1  0  0  0  0
 33 34  2  0  0  0  0
 33 37  1  0  0  0  0
 33 75  1  0  0  0  0
 34 35  1  0  0  0  0
 34 76  1  0  0  0  0
 35 77  1  0  0  0  0
 36 37  2  0  0  0  0
 37 78  1  0  0  0  0
 38  7  1  0  0  0  0
 38 39  1  0  0  0  0
 38 42  1  0  0  0  0
 38 79  1  1  0  0  0
 39 40  1  0  0  0  0
 39 47  1  0  0  0  0
 39 80  1  1  0  0  0
 40 41  1  0  0  0  0
 40 81  1  0  0  0  0
 40 82  1  0  0  0  0
 41 46  2  0  0  0  0
 41 42  1  0  0  0  0
 42 43  2  0  0  0  0
 43 44  1  0  0  0  0
 43 83  1  0  0  0  0
 44 45  2  0  0  0  0
 44 84  1  0  0  0  0
 45 46  1  0  0  0  0
 45 85  1  0  0  0  0
 46 86  1  0  0  0  0
 47 87  1  0  0  0  0
M  END
>  <DRUGBANK_ID>
DB04190

>  <SECONDARY_ACCESSION_NUMBERS>
EXPT00664

>  <COMMON_NAME>
2,5-dibenzyloxy-3-hydroxy-hexanedioic acid bis-[(2-hydroxy-indan-1-yl)-amide]

$$$$
