
 OpenBabel10282417072D

 36 35  0  0  0  0  0  0  0  0999 V2000
    7.6861   -0.2062    0.0000 O   0  0  0  0  0  0  0  0  0  0  0  0
    6.9716    1.0312    0.0000 O   0  0  0  0  0  0  0  0  0  0  0  0
    4.8281   -1.0312    0.0000 O   0  0  0  0  0  0  0  0  0  0  0  0
    3.3991   -0.2062    0.0000 N   0  0  0  0  0  0  0  0  0  0  0  0
    9.8295    0.2062    0.0000 C   0  0  0  0  0  0  0  0  0  0  0  0
   10.5440   -0.2062    0.0000 C   0  0  0  0  0  0  0  0  0  0  0  0
    9.1150   -0.2062    0.0000 C   0  0  0  0  0  0  0  0  0  0  0  0
   11.2585    0.2062    0.0000 C   0  0  0  0  0  0  0  0  0  0  0  0
    8.4005    0.2062    0.0000 C   0  0  0  0  0  0  0  0  0  0  0  0
   11.9729   -0.2062    0.0000 C   0  0  0  0  0  0  0  0  0  0  0  0
    6.2571   -0.2062    0.0000 C   0  0  0  0  0  0  0  0  0  0  0  0
    5.5426    0.2062    0.0000 C   0  0  0  0  0  0  0  0  0  0  0  0
    6.9716    0.2062    0.0000 C   0  0  0  0  0  0  0  0  0  0  0  0
    4.8281   -0.2062    0.0000 C   0  0  0  0  0  0  0  0  0  0  0  0
    4.1137    0.2062    0.0000 C   0  0  0  0  0  0  0  0  0  0  0  0
    2.9562    0.0495    0.0000 H   0  0  0  0  0  0  0  0  0  0  0  0
    3.3991   -0.7177    0.0000 H   0  0  0  0  0  0  0  0  0  0  0  0
    9.8295    1.2762    0.0000 H   0  0  0  0  0  0  0  0  0  0  0  0
    8.9029    0.7413    0.0000 H   0  0  0  0  0  0  0  0  0  0  0  0
   10.5440   -1.2762    0.0000 H   0  0  0  0  0  0  0  0  0  0  0  0
   11.4706   -0.7413    0.0000 H   0  0  0  0  0  0  0  0  0  0  0  0
    9.1150   -1.2762    0.0000 H   0  0  0  0  0  0  0  0  0  0  0  0
    8.1884   -0.7413    0.0000 H   0  0  0  0  0  0  0  0  0  0  0  0
   11.2585    1.2762    0.0000 H   0  0  0  0  0  0  0  0  0  0  0  0
   12.1851    0.7412    0.0000 H   0  0  0  0  0  0  0  0  0  0  0  0
    8.4005    1.2762    0.0000 H   0  0  0  0  0  0  0  0  0  0  0  0
    9.3271    0.7413    0.0000 H   0  0  0  0  0  0  0  0  0  0  0  0
   11.9730   -1.2762    0.0000 H   0  0  0  0  0  0  0  0  0  0  0  0
   12.8995    0.3289    0.0000 H   0  0  0  0  0  0  0  0  0  0  0  0
   12.8996   -0.7411    0.0000 H   0  0  0  0  0  0  0  0  0  0  0  0
    6.2571   -1.2762    0.0000 H   0  0  0  0  0  0  0  0  0  0  0  0
    7.1837   -0.7413    0.0000 H   0  0  0  0  0  0  0  0  0  0  0  0
    5.5426    1.2762    0.0000 H   0  0  0  0  0  0  0  0  0  0  0  0
    4.6160    0.7413    0.0000 H   0  0  0  0  0  0  0  0  0  0  0  0
    4.1138    1.2762    0.0000 H   0  0  0  0  0  0  0  0  0  0  0  0
    5.0403    0.7412    0.0000 H   0  0  0  0  0  0  0  0  0  0  0  0
  1  9  1  0  0  0  0
  1 13  1  0  0  0  0
  2 13  2  0  0  0  0
  3 14  2  0  0  0  0
  4 15  1  0  0  0  0
  4 16  1  0  0  0  0
  4 17  1  0  0  0  0
  5  6  1  0  0  0  0
  5  7  1  0  0  0  0
  5 18  1  0  0  0  0
  5 19  1  0  0  0  0
  6  8  1  0  0  0  0
  6 20  1  0  0  0  0
  6 21  1  0  0  0  0
  7  9  1  0  0  0  0
  7 22  1  0  0  0  0
  7 23  1  0  0  0  0
  8 10  1  0  0  0  0
  8 24  1  0  0  0  0
  8 25  1  0  0  0  0
  9 26  1  0  0  0  0
  9 27  1  0  0  0  0
 10 28  1  0  0  0  0
 10 29  1  0  0  0  0
 10 30  1  0  0  0  0
 11 12  1  0  0  0  0
 11 13  1  0  0  0  0
 11 31  1  0  0  0  0
 11 32  1  0  0  0  0
 12 14  1  0  0  0  0
 12 33  1  0  0  0  0
 12 34  1  0  0  0  0
 14 15  1  0  0  0  0
 15 35  1  0  0  0  0
 15 36  1  0  0  0  0
M  END
>  <DRUGBANK_ID>
DB06261

>  <COMMON_NAME>
Hexaminolevulinate

>  <CAS_NUMBER>
140898-97-1

>  <UNII>
G7H20TKI67

>  <SYNONYMS>
4-Hexyloxycarbonyl-2-oxobutylammoniumchloride; Hexaminolevulinato; Hexyl 5-amino-4-oxopentanoate hydrochloride; Hexyl(5-amino-4-oxopentanoat)-hydrochlorid; Pentanoic acid, 5-amino-4-oxo-, hexyl ester, hydrochloride

$$$$
