
 OpenBabel10282417072D

 49 53  0  0  0  0  0  0  0  0999 V2000
   -3.4316   -2.4225    0.0000 C   0  0  0  0  0  0  0  0  0  0  0  0
   -2.6111   -2.5087    0.0000 O   0  0  0  0  0  0  0  0  0  0  0  0
   -2.1262   -1.8413    0.0000 N   0  0  0  0  0  0  0  0  0  0  0  0
   -1.3057   -1.9275    0.0000 C   0  0  0  0  0  0  0  0  0  0  0  0
   -0.7537   -1.3144    0.0000 C   0  0  0  0  0  0  0  0  0  0  0  0
    0.0000   -1.6500    0.0000 N   0  0  0  0  0  0  0  0  0  0  0  0
   -0.0862   -2.4705    0.0000 C   0  0  0  0  0  0  0  0  0  0  0  0
   -0.8932   -2.6420    0.0000 C   0  0  0  0  0  0  0  0  0  0  0  0
   -0.5976   -3.4122    0.0000 C   0  0  0  0  0  0  0  0  0  0  0  0
   -1.3678   -3.7079    0.0000 N   0  0  0  0  0  0  0  0  0  0  0  0
   -1.6634   -2.9377    0.0000 C   0  0  0  0  0  0  0  0  0  0  0  0
    0.7145   -1.2375    0.0000 C   0  0  0  0  0  0  0  0  0  0  0  0
    0.7145   -0.4125    0.0000 C   0  0  0  0  0  0  0  0  0  0  0  0
    1.4289    0.0000    0.0000 C   0  0  0  0  0  0  0  0  0  0  0  0
    2.1434   -0.4125    0.0000 C   0  0  0  0  0  0  0  0  0  0  0  0
    2.8579    0.0000    0.0000 C   0  0  0  0  0  0  0  0  0  0  0  0
    2.8579    0.8250    0.0000 O   0  0  0  0  0  0  0  0  0  0  0  0
    3.5724   -0.4125    0.0000 C   0  0  0  0  0  0  0  0  0  0  0  0
    3.5724   -1.2375    0.0000 C   0  0  0  0  0  0  0  0  0  0  0  0
    2.8579   -1.6500    0.0000 N   0  0  0  0  0  0  0  0  0  0  0  0
    2.1434   -1.2375    0.0000 C   0  0  0  0  0  0  0  0  0  0  0  0
    1.4289   -1.6500    0.0000 N   0  0  0  0  0  0  0  0  0  0  0  0
    2.8579   -2.4750    0.0000 C   0  0  0  0  0  0  0  0  0  0  0  0
    3.2704   -3.1895    0.0000 C   0  0  0  0  0  0  0  0  0  0  0  0
    2.4454   -3.1895    0.0000 C   0  0  0  0  0  0  0  0  0  0  0  0
    4.2868   -0.0000    0.0000 C   0  0  0  0  0  0  0  0  0  0  0  0
    4.2868    0.8250    0.0000 O   0  0  0  0  0  0  0  0  0  0  0  0
    5.0013   -0.4125    0.0000 O   0  0  0  0  0  0  0  0  0  0  0  0
    0.0000    0.0000    0.0000 F   0  0  0  0  0  0  0  0  0  0  0  0
   -3.8669   -1.4450    0.0000 H   0  0  0  0  0  0  0  0  0  0  0  0
   -4.0605   -3.2882    0.0000 H   0  0  0  0  0  0  0  0  0  0  0  0
   -4.4957   -2.3107    0.0000 H   0  0  0  0  0  0  0  0  0  0  0  0
   -0.9762   -0.2678    0.0000 H   0  0  0  0  0  0  0  0  0  0  0  0
    0.0779   -0.6410    0.0000 H   0  0  0  0  0  0  0  0  0  0  0  0
    0.7090   -3.1865    0.0000 H   0  0  0  0  0  0  0  0  0  0  0  0
   -0.3632   -3.5040    0.0000 H   0  0  0  0  0  0  0  0  0  0  0  0
    0.3799   -3.8474    0.0000 H   0  0  0  0  0  0  0  0  0  0  0  0
   -0.6256   -4.4818    0.0000 H   0  0  0  0  0  0  0  0  0  0  0  0
   -1.7827   -4.6397    0.0000 H   0  0  0  0  0  0  0  0  0  0  0  0
   -2.6409   -2.5025    0.0000 H   0  0  0  0  0  0  0  0  0  0  0  0
   -1.6354   -1.8681    0.0000 H   0  0  0  0  0  0  0  0  0  0  0  0
    1.4289    1.0320    0.0000 H   0  0  0  0  0  0  0  0  0  0  0  0
    4.4661   -1.7535    0.0000 H   0  0  0  0  0  0  0  0  0  0  0  0
    2.8579   -3.5450    0.0000 H   0  0  0  0  0  0  0  0  0  0  0  0
    4.1970   -3.7245    0.0000 H   0  0  0  0  0  0  0  0  0  0  0  0
    2.9935   -4.2230    0.0000 H   0  0  0  0  0  0  0  0  0  0  0  0
    1.5188   -3.7245    0.0000 H   0  0  0  0  0  0  0  0  0  0  0  0
    1.6888   -2.4329    0.0000 H   0  0  0  0  0  0  0  0  0  0  0  0
    5.0013   -1.3495    0.0000 H   0  0  0  0  0  0  0  0  0  0  0  0
  1  2  1  0  0  0  0
  1 30  1  0  0  0  0
  1 31  1  0  0  0  0
  1 32  1  0  0  0  0
  3  2  1  0  0  0  0
  3  4  2  3  0  0  0
  4  5  1  0  0  0  0
  4  8  1  0  0  0  0
  5  6  1  0  0  0  0
  5 33  1  0  0  0  0
  5 34  1  0  0  0  0
  6  7  1  0  0  0  0
  6 12  1  0  0  0  0
  7  8  1  0  0  0  0
  7 35  1  0  0  0  0
  7 36  1  0  0  0  0
  8  9  1  0  0  0  0
  8 11  1  0  0  0  0
  9 10  1  0  0  0  0
  9 37  1  0  0  0  0
  9 38  1  0  0  0  0
 10 11  1  0  0  0  0
 10 39  1  0  0  0  0
 11 40  1  0  0  0  0
 11 41  1  0  0  0  0
 12 13  2  0  0  0  0
 12 22  1  0  0  0  0
 13 14  1  0  0  0  0
 13 29  1  0  0  0  0
 14 15  2  0  0  0  0
 14 42  1  0  0  0  0
 15 16  1  0  0  0  0
 15 21  1  0  0  0  0
 16 17  2  0  0  0  0
 16 18  1  0  0  0  0
 18 19  2  0  0  0  0
 18 26  1  0  0  0  0
 19 20  1  0  0  0  0
 19 43  1  0  0  0  0
 20 21  1  0  0  0  0
 20 23  1  0  0  0  0
 21 22  2  0  0  0  0
 23 24  1  0  0  0  0
 23 25  1  0  0  0  0
 23 44  1  0  0  0  0
 24 25  1  0  0  0  0
 24 45  1  0  0  0  0
 24 46  1  0  0  0  0
 25 47  1  0  0  0  0
 25 48  1  0  0  0  0
 26 27  2  0  0  0  0
 26 28  1  0  0  0  0
 28 49  1  0  0  0  0
M  END
>  <DRUGBANK_ID>
DB12479

>  <COMMON_NAME>
Zabofloxacin

>  <CAS_NUMBER>
219680-11-2

>  <UNII>
LV66BA6V2G

>  <SYNONYMS>
Zabofloxacin

$$$$
