
 OpenBabel10282417072D

 45 47  0  0  1  0  0  0  0  0999 V2000
    2.0367   -0.4741    0.0000 N   0  0  0  0  0  0  0  0  0  0  0  0
    2.7512   -0.0616    0.0000 C   0  0  1  0  0  0  0  0  0  0  0  0
    2.7512    0.7634    0.0000 C   0  0  0  0  0  0  0  0  0  0  0  0
    2.0367    1.1759    0.0000 C   0  0  0  0  0  0  0  0  0  0  0  0
    1.3222    0.7634    0.0000 C   0  0  0  0  0  0  0  0  0  0  0  0
    0.6078    1.1759    0.0000 C   0  0  0  0  0  0  0  0  0  0  0  0
    0.6078    2.0009    0.0000 C   0  0  0  0  0  0  0  0  0  0  0  0
   -0.1067    2.4134    0.0000 F   0  0  0  0  0  0  0  0  0  0  0  0
    1.3222    2.4134    0.0000 C   0  0  0  0  0  0  0  0  0  0  0  0
    2.0367    2.0009    0.0000 C   0  0  0  0  0  0  0  0  0  0  0  0
    3.4656    1.1759    0.0000 C   0  0  0  0  0  0  0  0  0  0  0  0
    3.4656    2.0009    0.0000 C   0  0  0  0  0  0  0  0  0  0  0  0
    4.1801    2.4134    0.0000 C   0  0  0  0  0  0  0  0  0  0  0  0
    4.8946    2.0009    0.0000 C   0  0  0  0  0  0  0  0  0  0  0  0
    5.6091    2.4134    0.0000 F   0  0  0  0  0  0  0  0  0  0  0  0
    4.8946    1.1759    0.0000 C   0  0  0  0  0  0  0  0  0  0  0  0
    4.1801    0.7634    0.0000 C   0  0  0  0  0  0  0  0  0  0  0  0
    3.4656   -0.4741    0.0000 C   0  0  0  0  0  0  0  0  0  0  0  0
    4.1801   -0.0616    0.0000 O   0  0  0  0  0  0  0  0  0  0  0  0
    3.4656   -1.2991    0.0000 N   0  0  0  0  0  0  0  0  0  0  0  0
    4.1331   -1.7840    0.0000 C   0  0  0  0  0  0  0  0  0  0  0  0
    3.8781   -2.5687    0.0000 C   0  0  1  0  0  0  0  0  0  0  0  0
    4.3631   -3.2361    0.0000 F   0  0  0  0  0  0  0  0  0  0  0  0
    3.0531   -2.5687    0.0000 C   0  0  0  0  0  0  0  0  0  0  0  0
    2.7982   -1.7840    0.0000 C   0  0  1  0  0  0  0  0  0  0  0  0
    2.0136   -1.5291    0.0000 C   0  0  0  0  0  0  0  0  0  0  0  0
    1.2290   -1.2742    0.0000 N   0  0  0  0  0  0  0  0  0  0  0  0
    1.1534    0.0359    0.0000 H   0  0  0  0  0  0  0  0  0  0  0  0
    2.0367   -1.4941    0.0000 H   0  0  0  0  0  0  0  0  0  0  0  0
    1.8246    0.4734    0.0000 H   0  0  0  0  0  0  0  0  0  0  0  0
    2.7512    1.8334    0.0000 H   0  0  0  0  0  0  0  0  0  0  0  0
    1.3222   -0.2686    0.0000 H   0  0  0  0  0  0  0  0  0  0  0  0
   -0.2859    0.6599    0.0000 H   0  0  0  0  0  0  0  0  0  0  0  0
    1.3222    3.4454    0.0000 H   0  0  0  0  0  0  0  0  0  0  0  0
    2.9304    2.5169    0.0000 H   0  0  0  0  0  0  0  0  0  0  0  0
    2.5719    2.5169    0.0000 H   0  0  0  0  0  0  0  0  0  0  0  0
    4.1801    3.4454    0.0000 H   0  0  0  0  0  0  0  0  0  0  0  0
    5.7883    0.6599    0.0000 H   0  0  0  0  0  0  0  0  0  0  0  0
    4.1801   -0.2686    0.0000 H   0  0  0  0  0  0  0  0  0  0  0  0
    5.1507   -1.4533    0.0000 H   0  0  0  0  0  0  0  0  0  0  0  0
    4.8897   -2.5406    0.0000 H   0  0  0  0  0  0  0  0  0  0  0  0
    4.9349   -2.4013    0.0000 H   0  0  0  0  0  0  0  0  0  0  0  0
    2.4241   -3.4343    0.0000 H   0  0  0  0  0  0  0  0  0  0  0  0
    1.9963   -2.4013    0.0000 H   0  0  0  0  0  0  0  0  0  0  0  0
    2.0416   -2.5406    0.0000 H   0  0  0  0  0  0  0  0  0  0  0  0
  1 28  1  0  0  0  0
  1 29  1  0  0  0  0
  2  1  1  0  0  0  0
  2  3  1  0  0  0  0
  2 18  1  0  0  0  0
  2 30  1  6  0  0  0
  3  4  1  0  0  0  0
  3 11  1  0  0  0  0
  3 31  1  0  0  0  0
  4  5  2  0  0  0  0
  4 10  1  0  0  0  0
  5  6  1  0  0  0  0
  5 32  1  0  0  0  0
  6  7  2  0  0  0  0
  6 33  1  0  0  0  0
  7  8  1  0  0  0  0
  7  9  1  0  0  0  0
  9 10  2  0  0  0  0
  9 34  1  0  0  0  0
 10 35  1  0  0  0  0
 11 12  2  0  0  0  0
 11 17  1  0  0  0  0
 12 13  1  0  0  0  0
 12 36  1  0  0  0  0
 13 14  2  0  0  0  0
 13 37  1  0  0  0  0
 14 15  1  0  0  0  0
 14 16  1  0  0  0  0
 16 17  2  0  0  0  0
 16 38  1  0  0  0  0
 17 39  1  0  0  0  0
 18 19  2  0  0  0  0
 18 20  1  0  0  0  0
 20 21  1  0  0  0  0
 21 40  1  0  0  0  0
 21 41  1  0  0  0  0
 22 21  1  0  0  0  0
 22 23  1  0  0  0  0
 22 24  1  0  0  0  0
 22 42  1  6  0  0  0
 24 43  1  0  0  0  0
 24 44  1  0  0  0  0
 25 24  1  0  0  0  0
 25 20  1  0  0  0  0
 25 26  1  0  0  0  0
 25 45  1  6  0  0  0
 26 27  3  0  0  0  0
M  END
>  <DRUGBANK_ID>
DB16134

>  <COMMON_NAME>
Denagliptin

>  <CAS_NUMBER>
483369-58-0

>  <UNII>
DOS9ZOT21L

>  <SYNONYMS>
Denagliptin

$$$$
