PIC
 OpenBabel10282417072D

 29 30  0  0  0  0  0  0  0  0999 V2000
   -1.5936   -0.7036    0.0000 C   0  0  0  0  0  0  0  0  0  0  0  0
   -0.8792   -0.2911    0.0000 C   0  0  0  0  0  0  0  0  0  0  0  0
   -0.8792    0.5339    0.0000 C   0  0  0  0  0  0  0  0  0  0  0  0
    1.9787    0.5339    0.0000 C   0  0  0  0  0  0  0  0  0  0  0  0
    1.9787   -0.2911    0.0000 C   0  0  0  0  0  0  0  0  0  0  0  0
    1.2643   -0.7036    0.0000 C   0  0  0  0  0  0  0  0  0  0  0  0
    0.5498   -0.2911    0.0000 C   0  0  0  0  0  0  0  0  0  0  0  0
   -0.1647   -0.7036    0.0000 C   0  0  0  0  0  0  0  0  0  0  0  0
    2.6932    0.9464    0.0000 C   0  0  0  0  0  0  0  0  0  0  0  0
   -0.1647    0.9464    0.0000 C   0  0  0  0  0  0  0  0  0  0  0  0
    0.5498    0.5339    0.0000 C   0  0  0  0  0  0  0  0  0  0  0  0
    1.2643    0.9464    0.0000 C   0  0  0  0  0  0  0  0  0  0  0  0
    2.6932    1.7714    0.0000 O   0  0  0  0  0  0  0  0  0  0  0  0
    3.4077    0.5339    0.0000 O   0  0  0  0  0  0  0  0  0  0  0  0
   -2.0061    0.0109    0.0000 F   0  0  0  0  0  0  0  0  0  0  0  0
   -1.1811   -1.4180    0.0000 F   0  0  0  0  0  0  0  0  0  0  0  0
   -2.3081   -1.1161    0.0000 P   0  0  0  0  0  0  0  0  0  0  0  0
   -3.0226   -1.5286    0.0000 O   0  0  0  0  0  0  0  0  0  0  0  0
   -2.7206   -0.4016    0.0000 O   0  0  0  0  0  0  0  0  0  0  0  0
   -1.8956   -1.8305    0.0000 O   0  0  0  0  0  0  0  0  0  0  0  0
   -1.7729    1.0499    0.0000 H   0  0  0  0  0  0  0  0  0  0  0  0
    2.8724   -0.8071    0.0000 H   0  0  0  0  0  0  0  0  0  0  0  0
    1.2643   -1.7356    0.0000 H   0  0  0  0  0  0  0  0  0  0  0  0
   -0.1647   -1.7356    0.0000 H   0  0  0  0  0  0  0  0  0  0  0  0
   -0.1647    1.9784    0.0000 H   0  0  0  0  0  0  0  0  0  0  0  0
    1.2643    1.9784    0.0000 H   0  0  0  0  0  0  0  0  0  0  0  0
    3.5047    2.2399    0.0000 H   0  0  0  0  0  0  0  0  0  0  0  0
   -3.8626   -1.0436    0.0000 H   0  0  0  0  0  0  0  0  0  0  0  0
   -2.2356    0.4384    0.0000 H   0  0  0  0  0  0  0  0  0  0  0  0
  1  2  1  0  0  0  0
  1 15  1  0  0  0  0
  1 16  1  0  0  0  0
  1 17  1  0  0  0  0
  2  3  1  0  0  0  0
  2  8  2  0  0  0  0
  3 10  2  0  0  0  0
  3 21  1  0  0  0  0
  4  5  1  0  0  0  0
  4  9  1  0  0  0  0
  4 12  2  0  0  0  0
  5  6  2  0  0  0  0
  5 22  1  0  0  0  0
  6  7  1  0  0  0  0
  6 23  1  0  0  0  0
  7  8  1  0  0  0  0
  7 11  2  0  0  0  0
  8 24  1  0  0  0  0
  9 13  1  0  0  0  0
  9 14  2  0  0  0  0
 10 11  1  0  0  0  0
 10 25  1  0  0  0  0
 11 12  1  0  0  0  0
 12 26  1  0  0  0  0
 13 27  1  0  0  0  0
 17 18  1  0  0  0  0
 17 19  1  0  0  0  0
 17 20  2  0  0  0  0
 18 28  1  0  0  0  0
 19 29  1  0  0  0  0
M  END
>  <DRUGBANK_ID>
DB08397

>  <COMMON_NAME>
6-(DIFLUORO-PHOSPHONO-METHYL)-NAPHTHALENE-2-CARBOXYLIC ACID

$$$$
