
 OpenBabel10282417072D

 55 57  0  0  0  0  0  0  0  0999 V2000
    0.3604    0.1671    0.0000 C   0  0  1  0  0  0  0  0  0  0  0  0
    0.0025   -0.5761    0.0000 C   0  0  0  0  0  0  0  0  0  0  0  0
   -0.8018   -0.7596    0.0000 N   0  0  0  0  0  0  0  0  0  0  0  0
   -0.8018    1.0941    0.0000 S   0  0  0  0  0  0  0  0  0  0  0  0
    0.0025    0.9105    0.0000 C   0  0  1  0  0  0  0  0  0  0  0  0
   -1.4468   -0.2453    0.0000 C   0  0  0  0  0  0  0  0  0  0  0  0
   -1.4468    0.5796    0.0000 C   0  0  0  0  0  0  0  0  0  0  0  0
    1.1854    0.1671    0.0000 O   0  0  0  0  0  0  0  0  0  0  0  0
   -0.9853   -1.5639    0.0000 C   0  0  0  0  0  0  0  0  0  0  0  0
    0.5168    1.5554    0.0000 C   0  0  0  0  0  0  0  0  0  0  0  0
    1.5979   -0.5472    0.0000 C   0  0  0  0  0  0  0  0  0  0  0  0
    0.5168   -1.2210    0.0000 O   0  0  0  0  0  0  0  0  0  0  0  0
    1.1854   -1.2617    0.0000 O   0  0  0  0  0  0  0  0  0  0  0  0
    0.2154    2.3234    0.0000 C   0  0  0  0  0  0  0  0  0  0  0  0
    1.3326    1.4325    0.0000 C   0  0  0  0  0  0  0  0  0  0  0  0
   -0.3806   -2.1251    0.0000 C   0  0  0  0  0  0  0  0  0  0  0  0
   -0.5641   -2.9294    0.0000 N   0  0  0  0  0  0  0  0  0  0  0  0
    1.5456    2.8455    0.0000 C   0  0  0  0  0  0  0  0  0  0  0  0
    1.8470    2.0775    0.0000 C   0  0  0  0  0  0  0  0  0  0  0  0
    0.7298    2.9684    0.0000 C   0  0  0  0  0  0  0  0  0  0  0  0
   -2.1612   -0.6578    0.0000 C   0  0  0  0  0  0  0  0  0  0  0  0
    2.0599    3.4905    0.0000 O   0  0  0  0  0  0  0  0  0  0  0  0
   -2.1612    0.9921    0.0000 C   0  0  0  0  0  0  0  0  0  0  0  0
    2.4229   -0.5472    0.0000 C   0  0  0  0  0  0  0  0  0  0  0  0
    0.0405   -3.4905    0.0000 C   0  0  0  0  0  0  0  0  0  0  0  0
   -1.3525   -3.1726    0.0000 C   0  0  0  0  0  0  0  0  0  0  0  0
    2.8758    3.3675    0.0000 C   0  0  0  0  0  0  0  0  0  0  0  0
   -2.8758   -0.2453    0.0000 C   0  0  0  0  0  0  0  0  0  0  0  0
   -2.8758    0.5796    0.0000 C   0  0  0  0  0  0  0  0  0  0  0  0
    0.9297   -0.7389    0.0000 H   0  0  0  0  0  0  0  0  0  0  0  0
   -0.3509    1.9205    0.0000 H   0  0  0  0  0  0  0  0  0  0  0  0
   -2.0078   -1.8793    0.0000 H   0  0  0  0  0  0  0  0  0  0  0  0
   -1.2235   -2.6071    0.0000 H   0  0  0  0  0  0  0  0  0  0  0  0
   -0.8051    2.4772    0.0000 H   0  0  0  0  0  0  0  0  0  0  0  0
    1.7097    0.4718    0.0000 H   0  0  0  0  0  0  0  0  0  0  0  0
    0.6419   -1.8097    0.0000 H   0  0  0  0  0  0  0  0  0  0  0  0
    0.4038   -2.8529    0.0000 H   0  0  0  0  0  0  0  0  0  0  0  0
    2.8675    1.9237    0.0000 H   0  0  0  0  0  0  0  0  0  0  0  0
    0.3527    3.9291    0.0000 H   0  0  0  0  0  0  0  0  0  0  0  0
   -2.1611   -1.6898    0.0000 H   0  0  0  0  0  0  0  0  0  0  0  0
   -2.1611    2.0241    0.0000 H   0  0  0  0  0  0  0  0  0  0  0  0
    2.9579   -1.4738    0.0000 H   0  0  0  0  0  0  0  0  0  0  0  0
    2.9579    0.3794    0.0000 H   0  0  0  0  0  0  0  0  0  0  0  0
    3.4929   -0.5472    0.0000 H   0  0  0  0  0  0  0  0  0  0  0  0
   -0.1977   -4.5336    0.0000 H   0  0  0  0  0  0  0  0  0  0  0  0
    1.0630   -3.1752    0.0000 H   0  0  0  0  0  0  0  0  0  0  0  0
    0.8248   -4.2184    0.0000 H   0  0  0  0  0  0  0  0  0  0  0  0
   -2.1369   -2.4448    0.0000 H   0  0  0  0  0  0  0  0  0  0  0  0
   -1.5906   -4.2158    0.0000 H   0  0  0  0  0  0  0  0  0  0  0  0
   -2.3750   -3.4880    0.0000 H   0  0  0  0  0  0  0  0  0  0  0  0
    3.2667    2.3715    0.0000 H   0  0  0  0  0  0  0  0  0  0  0  0
    3.5430    4.2040    0.0000 H   0  0  0  0  0  0  0  0  0  0  0  0
    3.9338    3.2080    0.0000 H   0  0  0  0  0  0  0  0  0  0  0  0
   -3.7695   -0.7613    0.0000 H   0  0  0  0  0  0  0  0  0  0  0  0
   -3.7695    1.0956    0.0000 H   0  0  0  0  0  0  0  0  0  0  0  0
  1  8  1  0  0  0  0
  1 30  1  6  0  0  0
  2  1  1  0  0  0  0
  3  2  1  0  0  0  0
  4  5  1  0  0  0  0
  5  1  1  0  0  0  0
  5 10  1  0  0  0  0
  5 31  1  6  0  0  0
  6  3  1  0  0  0  0
  7  4  1  0  0  0  0
  7  6  2  0  0  0  0
  9  3  1  0  0  0  0
  9 32  1  0  0  0  0
  9 33  1  0  0  0  0
 11  8  1  0  0  0  0
 12  2  2  0  0  0  0
 13 11  2  0  0  0  0
 14 10  1  0  0  0  0
 14 34  1  0  0  0  0
 15 10  2  0  0  0  0
 15 35  1  0  0  0  0
 16  9  1  0  0  0  0
 16 36  1  0  0  0  0
 16 37  1  0  0  0  0
 17 16  1  0  0  0  0
 18 19  2  0  0  0  0
 19 15  1  0  0  0  0
 19 38  1  0  0  0  0
 20 14  2  0  0  0  0
 20 18  1  0  0  0  0
 20 39  1  0  0  0  0
 21  6  1  0  0  0  0
 21 40  1  0  0  0  0
 22 18  1  0  0  0  0
 23  7  1  0  0  0  0
 23 41  1  0  0  0  0
 24 11  1  0  0  0  0
 24 42  1  0  0  0  0
 24 43  1  0  0  0  0
 24 44  1  0  0  0  0
 25 17  1  0  0  0  0
 25 45  1  0  0  0  0
 25 46  1  0  0  0  0
 25 47  1  0  0  0  0
 26 17  1  0  0  0  0
 26 48  1  0  0  0  0
 26 49  1  0  0  0  0
 26 50  1  0  0  0  0
 27 22  1  0  0  0  0
 27 51  1  0  0  0  0
 27 52  1  0  0  0  0
 27 53  1  0  0  0  0
 28 21  2  0  0  0  0
 28 54  1  0  0  0  0
 29 23  2  0  0  0  0
 29 28  1  0  0  0  0
 29 55  1  0  0  0  0
M  END
>  <DRUGBANK_ID>
DB00343

>  <SECONDARY_ACCESSION_NUMBERS>
APRD00473

>  <COMMON_NAME>
Diltiazem

>  <CAS_NUMBER>
42399-41-7

>  <UNII>
EE92BBP03H

>  <SYNONYMS>
(+)-cis-5-[2-(dimethylamino)ethyl]-2,3-dihydro-3-hydroxy-2-(p-methoxyphenyl)-1,5-benzothiazepin-4(5H)-one acetate ester; (2S-cis)-3-(acetyloxy)-5-[2-(dimethylamino)ethyl]-2,3-dihydro-2-(4-methoxyphenyl)-1,5-benzothiazepin-4(5H)-one; (2S,3S)-5-(2-(dimethylamino)ethyl)-2-(4-methoxyphenyl)-4-oxo-2,3,4,5-tetrahydrobenzo[b][1,4]thiazepin-3-yl acetate; Acetic acid (2S,3S)-5-(2-dimethylamino-ethyl)-2-(4-methoxy-phenyl)-4-oxo-2,3,4,5-tetrahydro-benzo[b][1,4]thiazepin-3-yl ester; d-cis-diltiazem; Diltiazem; Diltiazemum

$$$$
