
 OpenBabel10282417072D

 64 67  0  0  1  0  0  0  0  0999 V2000
    0.7145   -2.8875    0.0000 C   0  0  0  0  0  0  0  0  0  0  0  0
    0.7145   -3.7125    0.0000 C   0  0  0  0  0  0  0  0  0  0  0  0
    1.4289   -4.1250    0.0000 C   0  0  0  0  0  0  0  0  0  0  0  0
    1.4289   -4.9500    0.0000 C   0  0  0  0  0  0  0  0  0  0  0  0
    0.7145   -5.3625    0.0000 N   0  0  0  0  0  0  0  0  0  0  0  0
    0.0000   -4.9500    0.0000 N   0  0  0  0  0  0  0  0  0  0  0  0
    0.0000   -4.1250    0.0000 C   0  0  0  0  0  0  0  0  0  0  0  0
   -0.7145   -3.7125    0.0000 C   0  0  0  0  0  0  0  0  0  0  0  0
   -1.4289   -4.1250    0.0000 C   0  0  0  0  0  0  0  0  0  0  0  0
   -1.4289   -4.9500    0.0000 C   0  0  0  0  0  0  0  0  0  0  0  0
   -2.1434   -5.3625    0.0000 C   0  0  0  0  0  0  0  0  0  0  0  0
   -2.8579   -4.9500    0.0000 C   0  0  0  0  0  0  0  0  0  0  0  0
   -2.8579   -4.1250    0.0000 C   0  0  0  0  0  0  0  0  0  0  0  0
   -2.1434   -3.7125    0.0000 C   0  0  0  0  0  0  0  0  0  0  0  0
    2.1434   -5.3625    0.0000 N   0  0  0  0  0  0  0  0  0  0  0  0
    2.8579   -4.9500    0.0000 C   0  0  0  0  0  0  0  0  0  0  0  0
    3.5724   -5.3625    0.0000 C   0  0  0  0  0  0  0  0  0  0  0  0
    3.5724   -6.1875    0.0000 N   0  0  0  0  0  0  0  0  0  0  0  0
    2.8579   -6.6000    0.0000 C   0  0  1  0  0  0  0  0  0  0  0  0
    2.1434   -6.1875    0.0000 C   0  0  0  0  0  0  0  0  0  0  0  0
    2.8579   -7.4250    0.0000 C   0  0  0  0  0  0  0  0  0  0  0  0
    4.2868   -6.6000    0.0000 C   0  0  0  0  0  0  0  0  0  0  0  0
    5.0013   -6.1875    0.0000 C   0  0  0  0  0  0  0  0  0  0  0  0
    5.7158   -6.6000    0.0000 N   0  0  0  0  0  0  0  0  0  0  0  0
    5.7158   -7.4250    0.0000 C   0  0  0  0  0  0  0  0  0  0  0  0
    5.0013   -7.8375    0.0000 C   0  0  0  0  0  0  0  0  0  0  0  0
    4.2868   -7.4250    0.0000 N   0  0  0  0  0  0  0  0  0  0  0  0
    6.4302   -7.8375    0.0000 C   0  0  0  0  0  0  0  0  0  0  0  0
    7.1447   -8.2500    0.0000 C   0  0  0  0  0  0  0  0  0  0  0  0
    6.0177   -8.5520    0.0000 C   0  0  0  0  0  0  0  0  0  0  0  0
    6.8427   -7.1230    0.0000 O   0  0  0  0  0  0  0  0  0  0  0  0
    2.1434   -3.7125    0.0000 C   0  0  0  0  0  0  0  0  0  0  0  0
    1.6411   -2.3525    0.0000 H   0  0  0  0  0  0  0  0  0  0  0  0
   -0.2121   -2.3525    0.0000 H   0  0  0  0  0  0  0  0  0  0  0  0
    0.7145   -1.8175    0.0000 H   0  0  0  0  0  0  0  0  0  0  0  0
   -0.7145   -2.6425    0.0000 H   0  0  0  0  0  0  0  0  0  0  0  0
   -1.6412   -3.1775    0.0000 H   0  0  0  0  0  0  0  0  0  0  0  0
   -0.5352   -5.4660    0.0000 H   0  0  0  0  0  0  0  0  0  0  0  0
   -2.1434   -6.3945    0.0000 H   0  0  0  0  0  0  0  0  0  0  0  0
   -3.7516   -5.4660    0.0000 H   0  0  0  0  0  0  0  0  0  0  0  0
   -3.7516   -3.6090    0.0000 H   0  0  0  0  0  0  0  0  0  0  0  0
   -2.1434   -2.6805    0.0000 H   0  0  0  0  0  0  0  0  0  0  0  0
    2.8579   -3.8800    0.0000 H   0  0  0  0  0  0  0  0  0  0  0  0
    3.7845   -4.4150    0.0000 H   0  0  0  0  0  0  0  0  0  0  0  0
    4.4990   -4.8275    0.0000 H   0  0  0  0  0  0  0  0  0  0  0  0
    4.4990   -5.8975    0.0000 H   0  0  0  0  0  0  0  0  0  0  0  0
    3.7845   -7.1350    0.0000 H   0  0  0  0  0  0  0  0  0  0  0  0
    1.2168   -6.7225    0.0000 H   0  0  0  0  0  0  0  0  0  0  0  0
    1.2168   -5.6525    0.0000 H   0  0  0  0  0  0  0  0  0  0  0  0
    1.9313   -7.9600    0.0000 H   0  0  0  0  0  0  0  0  0  0  0  0
    3.7845   -7.9600    0.0000 H   0  0  0  0  0  0  0  0  0  0  0  0
    2.8579   -8.4950    0.0000 H   0  0  0  0  0  0  0  0  0  0  0  0
    5.0013   -5.1555    0.0000 H   0  0  0  0  0  0  0  0  0  0  0  0
    5.0013   -8.8695    0.0000 H   0  0  0  0  0  0  0  0  0  0  0  0
    7.1447   -9.3200    0.0000 H   0  0  0  0  0  0  0  0  0  0  0  0
    8.0713   -7.7150    0.0000 H   0  0  0  0  0  0  0  0  0  0  0  0
    8.0714   -8.7850    0.0000 H   0  0  0  0  0  0  0  0  0  0  0  0
    4.9477   -8.5520    0.0000 H   0  0  0  0  0  0  0  0  0  0  0  0
    6.5527   -9.4786    0.0000 H   0  0  0  0  0  0  0  0  0  0  0  0
    5.4827   -9.4787    0.0000 H   0  0  0  0  0  0  0  0  0  0  0  0
    7.8127   -7.1230    0.0000 H   0  0  0  0  0  0  0  0  0  0  0  0
    3.0700   -4.2475    0.0000 H   0  0  0  0  0  0  0  0  0  0  0  0
    2.1434   -2.6425    0.0000 H   0  0  0  0  0  0  0  0  0  0  0  0
    3.0701   -3.1775    0.0000 H   0  0  0  0  0  0  0  0  0  0  0  0
  1  2  1  0  0  0  0
  1 33  1  0  0  0  0
  1 34  1  0  0  0  0
  1 35  1  0  0  0  0
  2  3  2  0  0  0  0
  2  7  1  0  0  0  0
  3  4  1  0  0  0  0
  3 32  1  0  0  0  0
  4  5  2  0  0  0  0
  4 15  1  0  0  0  0
  5  6  1  0  0  0  0
  6  7  2  0  0  0  0
  7  8  1  0  0  0  0
  8  9  1  0  0  0  0
  8 36  1  0  0  0  0
  8 37  1  0  0  0  0
  9 10  2  0  0  0  0
  9 14  1  0  0  0  0
 10 11  1  0  0  0  0
 10 38  1  0  0  0  0
 11 12  2  0  0  0  0
 11 39  1  0  0  0  0
 12 13  1  0  0  0  0
 12 40  1  0  0  0  0
 13 14  2  0  0  0  0
 13 41  1  0  0  0  0
 14 42  1  0  0  0  0
 15 16  1  0  0  0  0
 15 20  1  0  0  0  0
 16 17  1  0  0  0  0
 16 43  1  0  0  0  0
 16 44  1  0  0  0  0
 17 18  1  0  0  0  0
 17 45  1  0  0  0  0
 17 46  1  0  0  0  0
 18 19  1  0  0  0  0
 18 22  1  0  0  0  0
 19 20  1  0  0  0  0
 19 21  1  0  0  0  0
 19 47  1  1  0  0  0
 20 48  1  0  0  0  0
 20 49  1  0  0  0  0
 21 50  1  0  0  0  0
 21 51  1  0  0  0  0
 21 52  1  0  0  0  0
 22 23  2  0  0  0  0
 22 27  1  0  0  0  0
 23 24  1  0  0  0  0
 23 53  1  0  0  0  0
 24 25  2  0  0  0  0
 25 26  1  0  0  0  0
 25 28  1  0  0  0  0
 26 27  2  0  0  0  0
 26 54  1  0  0  0  0
 28 29  1  0  0  0  0
 28 30  1  0  0  0  0
 28 31  1  0  0  0  0
 29 55  1  0  0  0  0
 29 56  1  0  0  0  0
 29 57  1  0  0  0  0
 30 58  1  0  0  0  0
 30 59  1  0  0  0  0
 30 60  1  0  0  0  0
 31 61  1  0  0  0  0
 32 62  1  0  0  0  0
 32 63  1  0  0  0  0
 32 64  1  0  0  0  0
M  END
>  <DRUGBANK_ID>
DB12857

>  <COMMON_NAME>
NVP-LEQ-506

>  <CAS_NUMBER>
1204975-42-7

>  <UNII>
6SJX1T5HJD

$$$$
