
 OpenBabel10282417072D

 31 31  0  0  0  0  0  0  0  0999 V2000
   -0.7863    0.4099    0.0000 Se  0  0  0  0  0  0  0  0  0  0  0  0
   -0.3738   -0.8595    0.0000 N   0  0  0  0  0  0  0  0  0  0  0  0
   -1.8258   -0.6296    0.0000 N   0  0  0  0  0  0  0  0  0  0  0  0
    1.0782   -0.6296    0.0000 C   0  0  0  0  0  0  0  0  0  0  0  0
    1.2497   -1.4365    0.0000 C   0  0  0  0  0  0  0  0  0  0  0  0
    0.2936   -0.3747    0.0000 C   0  0  0  0  0  0  0  0  0  0  0  0
    0.0386    0.4099    0.0000 C   0  0  0  0  0  0  0  0  0  0  0  0
    0.5236    1.0773    0.0000 C   0  0  0  0  0  0  0  0  0  0  0  0
    2.0344   -1.6914    0.0000 C   0  0  0  0  0  0  0  0  0  0  0  0
    0.1881    1.8310    0.0000 C   0  0  0  0  0  0  0  0  0  0  0  0
    2.2059   -2.4985    0.0000 C   0  0  0  0  0  0  0  0  0  0  0  0
   -1.0412   -0.3747    0.0000 C   0  0  0  0  0  0  0  0  0  0  0  0
    0.6730    2.4985    0.0000 C   0  0  0  0  0  0  0  0  0  0  0  0
   -1.9322   -1.1299    0.0000 H   0  0  0  0  0  0  0  0  0  0  0  0
   -2.2059   -0.2873    0.0000 H   0  0  0  0  0  0  0  0  0  0  0  0
    1.8734    0.0864    0.0000 H   0  0  0  0  0  0  0  0  0  0  0  0
    0.8557    0.4170    0.0000 H   0  0  0  0  0  0  0  0  0  0  0  0
    0.4546   -2.1525    0.0000 H   0  0  0  0  0  0  0  0  0  0  0  0
    1.4722   -2.4831    0.0000 H   0  0  0  0  0  0  0  0  0  0  0  0
    1.5877    0.9654    0.0000 H   0  0  0  0  0  0  0  0  0  0  0  0
    1.1526    1.9429    0.0000 H   0  0  0  0  0  0  0  0  0  0  0  0
    2.8296   -0.9754    0.0000 H   0  0  0  0  0  0  0  0  0  0  0  0
    3.0520   -2.0221    0.0000 H   0  0  0  0  0  0  0  0  0  0  0  0
   -0.8760    1.9429    0.0000 H   0  0  0  0  0  0  0  0  0  0  0  0
   -0.2471    2.8085    0.0000 H   0  0  0  0  0  0  0  0  0  0  0  0
    1.4107   -3.2144    0.0000 H   0  0  0  0  0  0  0  0  0  0  0  0
    3.2235   -2.8292    0.0000 H   0  0  0  0  0  0  0  0  0  0  0  0
    2.4283   -3.5451    0.0000 H   0  0  0  0  0  0  0  0  0  0  0  0
    1.7371    2.3867    0.0000 H   0  0  0  0  0  0  0  0  0  0  0  0
    0.2377    3.4760    0.0000 H   0  0  0  0  0  0  0  0  0  0  0  0
    1.3019    3.3642    0.0000 H   0  0  0  0  0  0  0  0  0  0  0  0
  1  7  1  0  0  0  0
  1 12  1  0  0  0  0
  2  6  1  0  0  0  0
  2 12  2  0  0  0  0
  3 12  1  0  0  0  0
  3 14  1  0  0  0  0
  3 15  1  0  0  0  0
  4  5  1  0  0  0  0
  4  6  1  0  0  0  0
  4 16  1  0  0  0  0
  4 17  1  0  0  0  0
  5  9  1  0  0  0  0
  5 18  1  0  0  0  0
  5 19  1  0  0  0  0
  6  7  2  0  0  0  0
  7  8  1  0  0  0  0
  8 10  1  0  0  0  0
  8 20  1  0  0  0  0
  8 21  1  0  0  0  0
  9 11  1  0  0  0  0
  9 22  1  0  0  0  0
  9 23  1  0  0  0  0
 10 13  1  0  0  0  0
 10 24  1  0  0  0  0
 10 25  1  0  0  0  0
 11 26  1  0  0  0  0
 11 27  1  0  0  0  0
 11 28  1  0  0  0  0
 13 29  1  0  0  0  0
 13 30  1  0  0  0  0
 13 31  1  0  0  0  0
M  END
>  <DRUGBANK_ID>
DB01740

>  <SECONDARY_ACCESSION_NUMBERS>
EXPT02885

>  <COMMON_NAME>
4-butyl-5-propyl-1,3-selenazol-2-amine

>  <SYNONYMS>
2-amino-4-butyl-5-propylselenazole

$$$$
