
 OpenBabel10282417072D

 55 58  0  0  1  0  0  0  0  0999 V2000
    7.1428   -0.8317    0.0000 C   0  0  0  0  0  0  0  0  0  0  0  0
    7.0301   -0.0144    0.0000 N   0  0  0  0  0  0  0  0  0  0  0  0
    6.2660    0.2967    0.0000 C   0  0  0  0  0  0  0  0  0  0  0  0
    5.6146   -0.2096    0.0000 O   0  0  0  0  0  0  0  0  0  0  0  0
    6.1533    1.1139    0.0000 C   0  0  2  0  0  0  0  0  0  0  0  0
    5.3892    1.4250    0.0000 C   0  0  0  0  0  0  0  0  0  0  0  0
    4.7378    0.9187    0.0000 N   0  0  0  0  0  0  0  0  0  0  0  0
    4.8505    0.1015    0.0000 C   0  0  0  0  0  0  0  0  0  0  0  0
    4.1990   -0.4048    0.0000 C   0  0  0  0  0  0  0  0  0  0  0  0
    3.4349   -0.0937    0.0000 C   0  0  3  0  0  0  0  0  0  0  0  0
    3.3222    0.7235    0.0000 C   0  0  0  0  0  0  0  0  0  0  0  0
    3.9736    1.2298    0.0000 C   0  0  0  0  0  0  0  0  0  0  0  0
    3.5476   -0.9110    0.0000 O   0  0  0  0  0  0  0  0  0  0  0  0
    2.8962   -1.4172    0.0000 C   0  0  0  0  0  0  0  0  0  0  0  0
    2.1321   -1.1062    0.0000 C   0  0  0  0  0  0  0  0  0  0  0  0
    2.0194   -0.2889    0.0000 C   0  0  0  0  0  0  0  0  0  0  0  0
    2.6708    0.2173    0.0000 C   0  0  0  0  0  0  0  0  0  0  0  0
    2.3906    0.9933    0.0000 S   0  0  0  0  0  0  0  0  0  0  0  0
    1.5661    0.9666    0.0000 C   0  0  0  0  0  0  0  0  0  0  0  0
    1.0598    1.6181    0.0000 F   0  0  0  0  0  0  0  0  0  0  0  0
    1.3366    0.1742    0.0000 C   0  0  0  0  0  0  0  0  0  0  0  0
    6.8047    1.6201    0.0000 C   0  0  0  0  0  0  0  0  0  0  0  0
    7.5689    1.3091    0.0000 C   0  0  0  0  0  0  0  0  0  0  0  0
    7.6816    0.4918    0.0000 C   0  0  0  0  0  0  0  0  0  0  0  0
    8.4457    0.1808    0.0000 C   0  0  0  0  0  0  0  0  0  0  0  0
    9.0971    0.6870    0.0000 C   0  0  0  0  0  0  0  0  0  0  0  0
    8.9844    1.5043    0.0000 C   0  0  0  0  0  0  0  0  0  0  0  0
    8.2203    1.8153    0.0000 C   0  0  0  0  0  0  0  0  0  0  0  0
    8.1076    2.6326    0.0000 F   0  0  0  0  0  0  0  0  0  0  0  0
    6.2979   -1.4883    0.0000 H   0  0  0  0  0  0  0  0  0  0  0  0
    8.1338   -1.2351    0.0000 H   0  0  0  0  0  0  0  0  0  0  0  0
    7.2890   -1.8917    0.0000 H   0  0  0  0  0  0  0  0  0  0  0  0
    7.8075    0.5897    0.0000 H   0  0  0  0  0  0  0  0  0  0  0  0
    5.3084    0.4574    0.0000 H   0  0  0  0  0  0  0  0  0  0  0  0
    5.2430    2.4850    0.0000 H   0  0  0  0  0  0  0  0  0  0  0  0
    4.3981    1.8284    0.0000 H   0  0  0  0  0  0  0  0  0  0  0  0
    5.8415   -0.3019    0.0000 H   0  0  0  0  0  0  0  0  0  0  0  0
    4.9967   -0.9585    0.0000 H   0  0  0  0  0  0  0  0  0  0  0  0
    4.3451   -1.4648    0.0000 H   0  0  0  0  0  0  0  0  0  0  0  0
    3.3541   -1.0613    0.0000 H   0  0  0  0  0  0  0  0  0  0  0  0
    2.3311    1.1269    0.0000 H   0  0  0  0  0  0  0  0  0  0  0  0
    3.1760    1.7835    0.0000 H   0  0  0  0  0  0  0  0  0  0  0  0
    3.8274    2.2898    0.0000 H   0  0  0  0  0  0  0  0  0  0  0  0
    4.8185    1.8864    0.0000 H   0  0  0  0  0  0  0  0  0  0  0  0
    3.0424   -2.4772    0.0000 H   0  0  0  0  0  0  0  0  0  0  0  0
    2.0513   -2.0738    0.0000 H   0  0  0  0  0  0  0  0  0  0  0  0
    1.2872   -1.7628    0.0000 H   0  0  0  0  0  0  0  0  0  0  0  0
    1.1411   -0.7028    0.0000 H   0  0  0  0  0  0  0  0  0  0  0  0
    0.3659   -0.1762    0.0000 H   0  0  0  0  0  0  0  0  0  0  0  0
    6.6585    2.6801    0.0000 H   0  0  0  0  0  0  0  0  0  0  0  0
    7.6495    2.2767    0.0000 H   0  0  0  0  0  0  0  0  0  0  0  0
    6.8667   -0.1415    0.0000 H   0  0  0  0  0  0  0  0  0  0  0  0
    8.5867   -0.8415    0.0000 H   0  0  0  0  0  0  0  0  0  0  0  0
   10.0529    0.2979    0.0000 H   0  0  0  0  0  0  0  0  0  0  0  0
    9.7993    2.1376    0.0000 H   0  0  0  0  0  0  0  0  0  0  0  0
  1  2  1  0  0  0  0
  1 30  1  0  0  0  0
  1 31  1  0  0  0  0
  1 32  1  0  0  0  0
  2  3  1  0  0  0  0
  2 33  1  0  0  0  0
  3  4  2  0  0  0  0
  5  3  1  0  0  0  0
  5  6  1  0  0  0  0
  5 22  1  0  0  0  0
  5 34  1  1  0  0  0
  6  7  1  0  0  0  0
  6 35  1  0  0  0  0
  6 36  1  0  0  0  0
  7  8  1  0  0  0  0
  7 12  1  0  0  0  0
  8  9  1  0  0  0  0
  8 37  1  0  0  0  0
  8 38  1  0  0  0  0
  9 10  1  0  0  0  0
  9 39  1  0  0  0  0
  9 40  1  0  0  0  0
 10 11  1  0  0  0  0
 10 13  1  0  0  0  0
 10 17  1  0  0  0  0
 11 12  1  0  0  0  0
 11 41  1  0  0  0  0
 11 42  1  0  0  0  0
 12 43  1  0  0  0  0
 12 44  1  0  0  0  0
 13 14  1  0  0  0  0
 14 15  1  0  0  0  0
 14 45  1  0  0  0  0
 14 46  1  0  0  0  0
 15 16  1  0  0  0  0
 15 47  1  0  0  0  0
 15 48  1  0  0  0  0
 16 17  2  0  0  0  0
 16 21  1  0  0  0  0
 17 18  1  0  0  0  0
 18 19  1  0  0  0  0
 19 20  1  0  0  0  0
 19 21  2  0  0  0  0
 21 49  1  0  0  0  0
 22 23  1  0  0  0  0
 22 50  1  0  0  0  0
 22 51  1  0  0  0  0
 23 24  2  0  0  0  0
 23 28  1  0  0  0  0
 24 25  1  0  0  0  0
 24 52  1  0  0  0  0
 25 26  2  0  0  0  0
 25 53  1  0  0  0  0
 26 27  1  0  0  0  0
 26 54  1  0  0  0  0
 27 28  2  0  0  0  0
 27 55  1  0  0  0  0
 28 29  1  0  0  0  0
M  END
>  <DRUGBANK_ID>
DB15208

>  <COMMON_NAME>
NOP-1A

>  <CAS_NUMBER>
1283095-70-4

>  <UNII>
DQY244459T

$$$$
