1365
 OpenBabel10282417072D

 29 29  0  0  0  0  0  0  0  0999 V2000
    3.7935    1.2375    0.0000 N   0  0  0  0  0  0  0  0  0  0  0  0
    3.0791    0.8250    0.0000 C   0  0  0  0  0  0  0  0  0  0  0  0
    2.3645    0.4125    0.0000 C   0  0  0  0  0  0  0  0  0  0  0  0
    2.6665    1.5395    0.0000 C   0  0  0  0  0  0  0  0  0  0  0  0
    3.4916    0.1106    0.0000 C   0  0  0  0  0  0  0  0  0  0  0  0
    2.3645   -0.4125    0.0000 C   0  0  0  0  0  0  0  0  0  0  0  0
    3.7935    2.0625    0.0000 C   0  0  0  0  0  0  0  0  0  0  0  0
    3.0791   -0.8250    0.0000 C   0  0  0  0  0  0  0  0  0  0  0  0
    1.6500   -0.8250    0.0000 C   0  0  0  0  0  0  0  0  0  0  0  0
    3.0791   -1.6500    0.0000 C   0  0  0  0  0  0  0  0  0  0  0  0
    1.6500   -1.6500    0.0000 C   0  0  0  0  0  0  0  0  0  0  0  0
    2.3645   -2.0625    0.0000 C   0  0  0  0  0  0  0  0  0  0  0  0
    4.6769    0.7275    0.0000 H   0  0  0  0  0  0  0  0  0  0  0  0
    1.4379    0.9475    0.0000 H   0  0  0  0  0  0  0  0  0  0  0  0
    1.4378   -0.1225    0.0000 H   0  0  0  0  0  0  0  0  0  0  0  0
    3.2014    2.4662    0.0000 H   0  0  0  0  0  0  0  0  0  0  0  0
    1.5965    1.5394    0.0000 H   0  0  0  0  0  0  0  0  0  0  0  0
    2.1314    2.4661    0.0000 H   0  0  0  0  0  0  0  0  0  0  0  0
    2.9566   -0.8161    0.0000 H   0  0  0  0  0  0  0  0  0  0  0  0
    4.5616    0.1106    0.0000 H   0  0  0  0  0  0  0  0  0  0  0  0
    4.0266   -0.8160    0.0000 H   0  0  0  0  0  0  0  0  0  0  0  0
    4.7201    2.5975    0.0000 H   0  0  0  0  0  0  0  0  0  0  0  0
    2.8669    2.5975    0.0000 H   0  0  0  0  0  0  0  0  0  0  0  0
    3.7935    3.1325    0.0000 H   0  0  0  0  0  0  0  0  0  0  0  0
    3.9728   -0.3090    0.0000 H   0  0  0  0  0  0  0  0  0  0  0  0
    0.7563   -0.3090    0.0000 H   0  0  0  0  0  0  0  0  0  0  0  0
    3.9728   -2.1660    0.0000 H   0  0  0  0  0  0  0  0  0  0  0  0
    0.7563   -2.1660    0.0000 H   0  0  0  0  0  0  0  0  0  0  0  0
    2.3645   -3.0945    0.0000 H   0  0  0  0  0  0  0  0  0  0  0  0
  1  2  1  0  0  0  0
  1  7  1  0  0  0  0
  1 13  1  0  0  0  0
  2  3  1  0  0  0  0
  2  4  1  0  0  0  0
  2  5  1  0  0  0  0
  3  6  1  0  0  0  0
  3 14  1  0  0  0  0
  3 15  1  0  0  0  0
  4 16  1  0  0  0  0
  4 17  1  0  0  0  0
  4 18  1  0  0  0  0
  5 19  1  0  0  0  0
  5 20  1  0  0  0  0
  5 21  1  0  0  0  0
  6  8  2  0  0  0  0
  6  9  1  0  0  0  0
  7 22  1  0  0  0  0
  7 23  1  0  0  0  0
  7 24  1  0  0  0  0
  8 10  1  0  0  0  0
  8 25  1  0  0  0  0
  9 11  2  0  0  0  0
  9 26  1  0  0  0  0
 10 12  2  0  0  0  0
 10 27  1  0  0  0  0
 11 12  1  0  0  0  0
 11 28  1  0  0  0  0
 12 29  1  0  0  0  0
M  END
>  <DRUGBANK_ID>
DB01365

>  <COMMON_NAME>
Mephentermine

>  <CAS_NUMBER>
100-92-5

>  <UNII>
TEZ91L71V4

>  <SYNONYMS>
Mefentermina; Mephentermine; Mephenterminum

$$$$
