
 OpenBabel10282417072D

 86 91  0  0  1  0  0  0  0  0999 V2000
   -8.2630   -1.4434    0.0000 C   0  0  0  0  0  0  0  0  0  0  0  0
   -8.2630   -0.6184    0.0000 C   0  0  0  0  0  0  0  0  0  0  0  0
   -7.5485   -0.2059    0.0000 C   0  0  0  0  0  0  0  0  0  0  0  0
   -8.9775   -0.2059    0.0000 N   0  0  0  0  0  0  0  0  0  0  0  0
   -9.6920   -0.6184    0.0000 C   0  0  0  0  0  0  0  0  0  0  0  0
  -10.4064   -0.2059    0.0000 C   0  0  0  0  0  0  0  0  0  0  0  0
   -9.6920   -1.4434    0.0000 C   0  0  0  0  0  0  0  0  0  0  0  0
   -8.9775    0.6191    0.0000 C   0  0  0  0  0  0  0  0  0  0  0  0
   -8.2630    1.0316    0.0000 O   0  0  0  0  0  0  0  0  0  0  0  0
   -9.6920    1.0316    0.0000 C   0  0  0  0  0  0  0  0  0  0  0  0
  -10.4064    0.6191    0.0000 C   0  0  0  0  0  0  0  0  0  0  0  0
  -11.1209    1.0316    0.0000 C   0  0  0  0  0  0  0  0  0  0  0  0
  -11.8354    0.6191    0.0000 F   0  0  0  0  0  0  0  0  0  0  0  0
  -11.1209    1.8566    0.0000 C   0  0  0  0  0  0  0  0  0  0  0  0
  -10.4064    2.2691    0.0000 C   0  0  0  0  0  0  0  0  0  0  0  0
   -9.6920    1.8566    0.0000 C   0  0  0  0  0  0  0  0  0  0  0  0
   -8.9775    2.2691    0.0000 O   0  0  0  0  0  0  0  0  0  0  0  0
   -8.9775    3.0941    0.0000 C   0  0  0  0  0  0  0  0  0  0  0  0
   -9.6920    3.5066    0.0000 C   0  0  0  0  0  0  0  0  0  0  0  0
   -9.6920    4.3316    0.0000 N   0  0  0  0  0  0  0  0  0  0  0  0
   -8.9775    4.7441    0.0000 C   0  0  0  0  0  0  0  0  0  0  0  0
   -8.2630    4.3316    0.0000 N   0  0  0  0  0  0  0  0  0  0  0  0
   -8.2630    3.5066    0.0000 C   0  0  0  0  0  0  0  0  0  0  0  0
   -7.5485    3.0941    0.0000 N   0  0  0  0  0  0  0  0  0  0  0  0
   -6.7517    3.3076    0.0000 C   0  0  0  0  0  0  0  0  0  0  0  0
   -6.5381    2.5108    0.0000 C   0  0  0  0  0  0  0  0  0  0  0  0
   -7.3350    2.2972    0.0000 C   0  0  0  0  0  0  0  0  0  0  0  0
   -5.8237    2.9233    0.0000 C   0  0  0  0  0  0  0  0  0  0  0  0
   -5.1092    2.5108    0.0000 C   0  0  0  0  0  0  0  0  0  0  0  0
   -5.1092    1.6858    0.0000 N   0  0  0  0  0  0  0  0  0  0  0  0
   -5.8237    1.2733    0.0000 C   0  0  0  0  0  0  0  0  0  0  0  0
   -6.5381    1.6858    0.0000 C   0  0  0  0  0  0  0  0  0  0  0  0
   -4.3947    1.2733    0.0000 C   0  0  0  0  0  0  0  0  0  0  0  0
   -4.3947    0.4483    0.0000 O   0  0  0  0  0  0  0  0  0  0  0  0
   -3.6802    1.6858    0.0000 C   0  0  1  0  0  0  0  0  0  0  0  0
   -3.6802    2.5108    0.0000 N   0  0  0  0  0  0  0  0  0  0  0  0
   -2.9658    2.9233    0.0000 C   0  0  1  0  0  0  0  0  0  0  0  0
   -2.8283    2.3733    0.0000 C   0  0  0  0  0  0  0  0  0  0  0  0
   -2.8283    1.8233    0.0000 C   0  0  0  0  0  0  0  0  0  0  0  0
   -2.9658    1.2733    0.0000 C   0  0  2  0  0  0  0  0  0  0  0  0
   -2.2513    1.6858    0.0000 C   0  0  0  0  0  0  0  0  0  0  0  0
   -1.5368    1.2733    0.0000 C   0  0  0  0  0  0  0  0  0  0  0  0
   -2.2513    2.5108    0.0000 C   0  0  0  0  0  0  0  0  0  0  0  0
   -9.1896   -1.9784    0.0000 H   0  0  0  0  0  0  0  0  0  0  0  0
   -7.3364   -1.9784    0.0000 H   0  0  0  0  0  0  0  0  0  0  0  0
   -8.2630   -2.5134    0.0000 H   0  0  0  0  0  0  0  0  0  0  0  0
   -8.2630    0.4516    0.0000 H   0  0  0  0  0  0  0  0  0  0  0  0
   -6.6219   -0.7409    0.0000 H   0  0  0  0  0  0  0  0  0  0  0  0
   -7.5485    0.8641    0.0000 H   0  0  0  0  0  0  0  0  0  0  0  0
   -6.6218    0.3291    0.0000 H   0  0  0  0  0  0  0  0  0  0  0  0
  -10.6187   -1.1534    0.0000 H   0  0  0  0  0  0  0  0  0  0  0  0
  -10.4064    0.8641    0.0000 H   0  0  0  0  0  0  0  0  0  0  0  0
  -11.3331   -0.7409    0.0000 H   0  0  0  0  0  0  0  0  0  0  0  0
  -11.3330    0.3291    0.0000 H   0  0  0  0  0  0  0  0  0  0  0  0
  -10.6186   -1.9784    0.0000 H   0  0  0  0  0  0  0  0  0  0  0  0
   -8.7654   -1.9784    0.0000 H   0  0  0  0  0  0  0  0  0  0  0  0
   -9.6920   -2.5134    0.0000 H   0  0  0  0  0  0  0  0  0  0  0  0
  -10.4064   -0.4129    0.0000 H   0  0  0  0  0  0  0  0  0  0  0  0
  -12.0146    2.3726    0.0000 H   0  0  0  0  0  0  0  0  0  0  0  0
  -10.4064    3.3011    0.0000 H   0  0  0  0  0  0  0  0  0  0  0  0
  -10.5857    2.9906    0.0000 H   0  0  0  0  0  0  0  0  0  0  0  0
   -8.9775    5.7761    0.0000 H   0  0  0  0  0  0  0  0  0  0  0  0
   -6.2168    4.2343    0.0000 H   0  0  0  0  0  0  0  0  0  0  0  0
   -5.6908    3.1680    0.0000 H   0  0  0  0  0  0  0  0  0  0  0  0
   -7.8700    1.3705    0.0000 H   0  0  0  0  0  0  0  0  0  0  0  0
   -8.3958    2.4369    0.0000 H   0  0  0  0  0  0  0  0  0  0  0  0
   -5.8237    3.9933    0.0000 H   0  0  0  0  0  0  0  0  0  0  0  0
   -4.8971    3.4583    0.0000 H   0  0  0  0  0  0  0  0  0  0  0  0
   -4.1826    3.0458    0.0000 H   0  0  0  0  0  0  0  0  0  0  0  0
   -4.1826    1.9758    0.0000 H   0  0  0  0  0  0  0  0  0  0  0  0
   -5.8237    0.2033    0.0000 H   0  0  0  0  0  0  0  0  0  0  0  0
   -6.7504    0.7383    0.0000 H   0  0  0  0  0  0  0  0  0  0  0  0
   -7.4648    1.1508    0.0000 H   0  0  0  0  0  0  0  0  0  0  0  0
   -7.4647    2.2208    0.0000 H   0  0  0  0  0  0  0  0  0  0  0  0
   -4.6068    2.2208    0.0000 H   0  0  0  0  0  0  0  0  0  0  0  0
   -4.5636    3.0208    0.0000 H   0  0  0  0  0  0  0  0  0  0  0  0
   -3.3835    1.9382    0.0000 H   0  0  0  0  0  0  0  0  0  0  0  0
   -1.7663    2.5040    0.0000 H   0  0  0  0  0  0  0  0  0  0  0  0
   -2.0268    1.6644    0.0000 H   0  0  0  0  0  0  0  0  0  0  0  0
   -1.7663    1.6926    0.0000 H   0  0  0  0  0  0  0  0  0  0  0  0
   -2.2227    0.9412    0.0000 H   0  0  0  0  0  0  0  0  0  0  0  0
   -3.3835    2.2584    0.0000 H   0  0  0  0  0  0  0  0  0  0  0  0
   -1.5368    0.2413    0.0000 H   0  0  0  0  0  0  0  0  0  0  0  0
   -0.6431    1.7893    0.0000 H   0  0  0  0  0  0  0  0  0  0  0  0
   -1.3247    3.0458    0.0000 H   0  0  0  0  0  0  0  0  0  0  0  0
   -2.2513    3.5808    0.0000 H   0  0  0  0  0  0  0  0  0  0  0  0
  1  2  1  0  0  0  0
  1 44  1  0  0  0  0
  1 45  1  0  0  0  0
  1 46  1  0  0  0  0
  2  3  1  0  0  0  0
  2  4  1  0  0  0  0
  2 47  1  0  0  0  0
  3 48  1  0  0  0  0
  3 49  1  0  0  0  0
  3 50  1  0  0  0  0
  4  5  1  0  0  0  0
  4  8  1  0  0  0  0
  5  6  1  0  0  0  0
  5  7  1  0  0  0  0
  5 51  1  0  0  0  0
  6 52  1  0  0  0  0
  6 53  1  0  0  0  0
  6 54  1  0  0  0  0
  7 55  1  0  0  0  0
  7 56  1  0  0  0  0
  7 57  1  0  0  0  0
  8  9  2  0  0  0  0
  8 10  1  0  0  0  0
 10 11  2  0  0  0  0
 10 16  1  0  0  0  0
 11 12  1  0  0  0  0
 11 58  1  0  0  0  0
 12 13  1  0  0  0  0
 12 14  2  0  0  0  0
 14 15  1  0  0  0  0
 14 59  1  0  0  0  0
 15 16  2  0  0  0  0
 15 60  1  0  0  0  0
 16 17  1  0  0  0  0
 17 18  1  0  0  0  0
 18 19  2  0  0  0  0
 18 23  1  0  0  0  0
 19 20  1  0  0  0  0
 19 61  1  0  0  0  0
 20 21  2  0  0  0  0
 21 22  1  0  0  0  0
 21 62  1  0  0  0  0
 22 23  2  0  0  0  0
 23 24  1  0  0  0  0
 24 25  1  0  0  0  0
 24 27  1  0  0  0  0
 25 26  1  0  0  0  0
 25 63  1  0  0  0  0
 25 64  1  0  0  0  0
 26 27  1  0  0  0  0
 26 28  1  0  0  0  0
 26 32  1  0  0  0  0
 27 65  1  0  0  0  0
 27 66  1  0  0  0  0
 28 29  1  0  0  0  0
 28 67  1  0  0  0  0
 28 68  1  0  0  0  0
 29 30  1  0  0  0  0
 29 69  1  0  0  0  0
 29 70  1  0  0  0  0
 30 31  1  0  0  0  0
 30 33  1  0  0  0  0
 31 32  1  0  0  0  0
 31 71  1  0  0  0  0
 31 72  1  0  0  0  0
 32 73  1  0  0  0  0
 32 74  1  0  0  0  0
 33 34  2  0  0  0  0
 35 33  1  0  0  0  0
 35 36  1  0  0  0  0
 35 40  1  0  0  0  0
 35 75  1  6  0  0  0
 36 76  1  0  0  0  0
 37 36  1  0  0  0  0
 37 38  1  0  0  0  0
 37 43  1  0  0  0  0
 37 77  1  1  0  0  0
 38 39  1  0  0  0  0
 38 78  1  0  0  0  0
 38 79  1  0  0  0  0
 39 80  1  0  0  0  0
 39 81  1  0  0  0  0
 40 39  1  0  0  0  0
 40 41  1  0  0  0  0
 40 82  1  1  0  0  0
 41 42  2  0  0  0  0
 41 43  1  0  0  0  0
 42 83  1  0  0  0  0
 42 84  1  0  0  0  0
 43 85  1  0  0  0  0
 43 86  1  0  0  0  0
M  END
>  <DRUGBANK_ID>
DB18514

>  <COMMON_NAME>
DSP-5336

>  <CAS_NUMBER>
2412555-70-3

>  <UNII>
VW83Y2JLZ5

>  <SYNONYMS>
BENZAMIDE, 5-FLUORO-2-((4-(7-(((1S,3S,4R)-5-METHYLENE-2-AZABICYCLO(2.2.2)OCT-3-YL)CARBONYL)-2,7-DIAZASPIRO(3.5)NON-2-YL)-5-PYRIMIDINYL)OXY)-N,N-BIS(1-METHYLETHYL)-

$$$$
