C9P
 OpenBabel10282417072D

 44 46  0  0  0  0  0  0  0  0999 V2000
   -3.0200    1.1519    0.0000 C   0  0  0  0  0  0  0  0  0  0  0  0
   -1.8923   -0.7170    0.0000 N   0  0  0  0  0  0  0  0  0  0  0  0
    2.7526    0.0900    0.0000 C   0  0  0  0  0  0  0  0  0  0  0  0
    3.5372    0.3449    0.0000 C   0  0  0  0  0  0  0  0  0  0  0  0
    4.1503   -0.2071    0.0000 C   0  0  0  0  0  0  0  0  0  0  0  0
    3.9788   -1.0141    0.0000 C   0  0  0  0  0  0  0  0  0  0  0  0
    3.1941   -1.2690    0.0000 C   0  0  0  0  0  0  0  0  0  0  0  0
    1.0118   -1.2269    0.0000 C   0  0  0  0  0  0  0  0  0  0  0  0
    0.3444   -0.7419    0.0000 C   0  0  0  0  0  0  0  0  0  0  0  0
   -4.4177    0.8548    0.0000 O   0  0  0  0  0  0  0  0  0  0  0  0
   -2.8485    0.3449    0.0000 C   0  0  0  0  0  0  0  0  0  0  0  0
   -2.0638    0.0900    0.0000 C   0  0  0  0  0  0  0  0  0  0  0  0
   -1.4507    0.6420    0.0000 C   0  0  0  0  0  0  0  0  0  0  0  0
   -1.3626   -1.7566    0.0000 O   0  0  0  0  0  0  0  0  0  0  0  0
   -0.3231   -1.2269    0.0000 C   0  0  0  0  0  0  0  0  0  0  0  0
   -1.6223    1.4490    0.0000 C   0  0  0  0  0  0  0  0  0  0  0  0
    1.5415   -0.1873    0.0000 O   0  0  0  0  0  0  0  0  0  0  0  0
   -2.4069    1.7039    0.0000 C   0  0  0  0  0  0  0  0  0  0  0  0
    0.7569   -2.0115    0.0000 C   0  0  0  0  0  0  0  0  0  0  0  0
   -0.8527   -0.1873    0.0000 O   0  0  0  0  0  0  0  0  0  0  0  0
   -0.6661    0.3871    0.0000 C   0  0  0  0  0  0  0  0  0  0  0  0
   -0.4946   -0.4199    0.0000 O   0  0  0  0  0  0  0  0  0  0  0  0
   -1.1077   -0.9719    0.0000 S   0  0  0  0  0  0  0  0  0  0  0  0
   -0.0530    0.9391    0.0000 O   0  0  0  0  0  0  0  0  0  0  0  0
   -3.9761    2.2138    0.0000 O   0  0  0  0  0  0  0  0  0  0  0  0
    1.7964   -0.9719    0.0000 S   0  0  0  0  0  0  0  0  0  0  0  0
   -0.0681   -2.0115    0.0000 S   0  0  0  0  0  0  0  0  0  0  0  0
    2.0514   -1.7566    0.0000 O   0  0  0  0  0  0  0  0  0  0  0  0
    2.5811   -0.7170    0.0000 C   0  0  0  0  0  0  0  0  0  0  0  0
   -3.8046    1.4068    0.0000 B   0  0  0  0  0  0  0  0  0  0  0  0
   -2.6239   -1.3758    0.0000 H   0  0  0  0  0  0  0  0  0  0  0  0
    1.9857    0.7805    0.0000 H   0  0  0  0  0  0  0  0  0  0  0  0
    3.7518    1.3543    0.0000 H   0  0  0  0  0  0  0  0  0  0  0  0
    5.1318    0.1118    0.0000 H   0  0  0  0  0  0  0  0  0  0  0  0
    4.7457   -1.7047    0.0000 H   0  0  0  0  0  0  0  0  0  0  0  0
    2.9795   -2.2784    0.0000 H   0  0  0  0  0  0  0  0  0  0  0  0
    0.3444    0.2901    0.0000 H   0  0  0  0  0  0  0  0  0  0  0  0
   -5.3402    1.1546    0.0000 H   0  0  0  0  0  0  0  0  0  0  0  0
   -3.6154   -0.3457    0.0000 H   0  0  0  0  0  0  0  0  0  0  0  0
   -0.8554    2.1396    0.0000 H   0  0  0  0  0  0  0  0  0  0  0  0
   -2.6215    2.7133    0.0000 H   0  0  0  0  0  0  0  0  0  0  0  0
    1.3635   -2.8464    0.0000 H   0  0  0  0  0  0  0  0  0  0  0  0
    0.8381    0.6495    0.0000 H   0  0  0  0  0  0  0  0  0  0  0  0
   -3.2552    2.8628    0.0000 H   0  0  0  0  0  0  0  0  0  0  0  0
  1 18  1  0  0  0  0
  1 30  1  0  0  0  0
  2 12  1  0  0  0  0
  2 31  1  0  0  0  0
  3  4  1  0  0  0  0
  3 32  1  0  0  0  0
  4 33  1  0  0  0  0
  5  4  2  0  0  0  0
  5 34  1  0  0  0  0
  6  5  1  0  0  0  0
  6 35  1  0  0  0  0
  7  6  2  0  0  0  0
  7 29  1  0  0  0  0
  7 36  1  0  0  0  0
  8 26  1  0  0  0  0
  9  8  1  0  0  0  0
  9 37  1  0  0  0  0
 10 38  1  0  0  0  0
 11  1  2  0  0  0  0
 11 39  1  0  0  0  0
 12 11  1  0  0  0  0
 12 13  2  0  0  0  0
 13 16  1  0  0  0  0
 14 23  2  0  0  0  0
 15  9  2  0  0  0  0
 16 18  2  0  0  0  0
 16 40  1  0  0  0  0
 18 41  1  0  0  0  0
 19  8  2  0  0  0  0
 19 42  1  0  0  0  0
 21 13  1  0  0  0  0
 21 24  1  0  0  0  0
 22 21  2  0  0  0  0
 23  2  1  0  0  0  0
 23 15  1  0  0  0  0
 23 20  2  0  0  0  0
 24 43  1  0  0  0  0
 25 44  1  0  0  0  0
 26 17  2  0  0  0  0
 26 28  2  0  0  0  0
 26 29  1  0  0  0  0
 27 15  1  0  0  0  0
 27 19  1  0  0  0  0
 29  3  2  0  0  0  0
 30 10  1  0  0  0  0
 30 25  1  0  0  0  0
M  END
>  <DRUGBANK_ID>
DB07541

>  <COMMON_NAME>
4-(dihydroxyboranyl)-2-({[4-(phenylsulfonyl)thiophen-2-yl]sulfonyl}amino)benzoic acid

$$$$
