
 OpenBabel10282417072D

 60 62  0  0  0  0  0  0  0  0999 V2000
    1.8832    0.8598    0.0000 C   0  0  2  0  0  0  0  0  0  0  0  0
    2.7020    1.3667    0.0000 C   0  0  0  0  0  0  0  0  0  0  0  0
    2.0353   -0.0331    0.0000 C   0  0  0  0  0  0  0  0  0  0  0  0
    1.1423    1.2536    0.0000 S   0  0  0  0  0  0  0  0  0  0  0  0
    2.9748    2.1073    0.0000 C   0  0  0  0  0  0  0  0  0  0  0  0
    3.3804    0.7974    0.0000 S   0  0  0  0  0  0  0  0  0  0  0  0
    1.4855   -0.5985    0.0000 N   0  0  0  0  0  0  0  0  0  0  0  0
    0.3977    0.8598    0.0000 C   0  0  0  0  0  0  0  0  0  0  0  0
    3.7547    2.1073    0.0000 C   0  0  0  0  0  0  0  0  0  0  0  0
    4.0393    1.3159    0.0000 C   0  0  0  0  0  0  0  0  0  0  0  0
    0.6785   -0.5985    0.0000 C   0  0  0  0  0  0  0  0  0  0  0  0
    1.8325   -1.3977    0.0000 C   0  0  0  0  0  0  0  0  0  0  0  0
    0.1833    0.1111    0.0000 C   0  0  1  0  0  0  0  0  0  0  0  0
    0.2534   -1.2885    0.0000 O   0  0  0  0  0  0  0  0  0  0  0  0
    2.6825   -1.3977    0.0000 C   0  0  0  0  0  0  0  0  0  0  0  0
   -0.5029   -0.2866    0.0000 N   0  0  0  0  0  0  0  0  0  0  0  0
    3.0567   -0.6686    0.0000 O   0  0  0  0  0  0  0  0  0  0  0  0
    3.0373   -2.1073    0.0000 O   0  0  0  0  0  0  0  0  0  0  0  0
   -1.2125    0.1189    0.0000 C   0  0  1  0  0  0  0  0  0  0  0  0
   -1.9416   -0.2866    0.0000 C   0  0  0  0  0  0  0  0  0  0  0  0
   -1.2125    0.9729    0.0000 C   0  0  0  0  0  0  0  0  0  0  0  0
   -2.6629    0.1111    0.0000 C   0  0  0  0  0  0  0  0  0  0  0  0
   -1.9143    1.3667    0.0000 O   0  0  0  0  0  0  0  0  0  0  0  0
   -0.5029    1.3667    0.0000 O   0  0  0  0  0  0  0  0  0  0  0  0
   -3.3726   -0.2866    0.0000 C   0  0  0  0  0  0  0  0  0  0  0  0
   -2.5928    0.9729    0.0000 C   0  0  0  0  0  0  0  0  0  0  0  0
   -3.3726   -1.1364    0.0000 C   0  0  0  0  0  0  0  0  0  0  0  0
   -4.1017    0.0995    0.0000 C   0  0  0  0  0  0  0  0  0  0  0  0
   -3.3024    1.3667    0.0000 C   0  0  0  0  0  0  0  0  0  0  0  0
   -4.1017   -1.5615    0.0000 C   0  0  0  0  0  0  0  0  0  0  0  0
   -4.7996   -0.2866    0.0000 C   0  0  0  0  0  0  0  0  0  0  0  0
   -4.7996   -1.1364    0.0000 C   0  0  0  0  0  0  0  0  0  0  0  0
    2.8585    0.4197    0.0000 H   0  0  0  0  0  0  0  0  0  0  0  0
    3.0571   -0.3507    0.0000 H   0  0  0  0  0  0  0  0  0  0  0  0
    2.2990   -1.0701    0.0000 H   0  0  0  0  0  0  0  0  0  0  0  0
    2.3845    2.9538    0.0000 H   0  0  0  0  0  0  0  0  0  0  0  0
   -0.4332    1.5339    0.0000 H   0  0  0  0  0  0  0  0  0  0  0  0
   -0.6229    0.5383    0.0000 H   0  0  0  0  0  0  0  0  0  0  0  0
    4.3483    2.9515    0.0000 H   0  0  0  0  0  0  0  0  0  0  0  0
    5.0313    1.0313    0.0000 H   0  0  0  0  0  0  0  0  0  0  0  0
    1.2456   -2.2924    0.0000 H   0  0  0  0  0  0  0  0  0  0  0  0
    2.3409   -2.3392    0.0000 H   0  0  0  0  0  0  0  0  0  0  0  0
   -0.6605    0.7690    0.0000 H   0  0  0  0  0  0  0  0  0  0  0  0
   -0.4998   -1.3066    0.0000 H   0  0  0  0  0  0  0  0  0  0  0  0
    3.9926   -0.6223    0.0000 H   0  0  0  0  0  0  0  0  0  0  0  0
   -0.2870    0.6560    0.0000 H   0  0  0  0  0  0  0  0  0  0  0  0
   -1.9396   -1.3566    0.0000 H   0  0  0  0  0  0  0  0  0  0  0  0
   -2.8624   -0.8316    0.0000 H   0  0  0  0  0  0  0  0  0  0  0  0
   -2.6666    1.1811    0.0000 H   0  0  0  0  0  0  0  0  0  0  0  0
   -3.5870    0.6504    0.0000 H   0  0  0  0  0  0  0  0  0  0  0  0
   -2.5825   -0.0971    0.0000 H   0  0  0  0  0  0  0  0  0  0  0  0
   -3.5123    0.4256    0.0000 H   0  0  0  0  0  0  0  0  0  0  0  0
   -2.4778   -1.6505    0.0000 H   0  0  0  0  0  0  0  0  0  0  0  0
   -4.1111    1.1315    0.0000 H   0  0  0  0  0  0  0  0  0  0  0  0
   -3.3205    2.4365    0.0000 H   0  0  0  0  0  0  0  0  0  0  0  0
   -4.2198    0.8161    0.0000 H   0  0  0  0  0  0  0  0  0  0  0  0
   -4.2380    1.8859    0.0000 H   0  0  0  0  0  0  0  0  0  0  0  0
   -4.1116   -2.5935    0.0000 H   0  0  0  0  0  0  0  0  0  0  0  0
   -5.6886    0.2375    0.0000 H   0  0  0  0  0  0  0  0  0  0  0  0
   -5.6993   -1.6419    0.0000 H   0  0  0  0  0  0  0  0  0  0  0  0
  1  2  1  0  0  0  0
  1  3  1  0  0  0  0
  1  4  1  0  0  0  0
  1 33  1  1  0  0  0
  2  5  2  0  0  0  0
  2  6  1  0  0  0  0
  3  7  1  0  0  0  0
  3 34  1  0  0  0  0
  3 35  1  0  0  0  0
  4  8  1  0  0  0  0
  5  9  1  0  0  0  0
  5 36  1  0  0  0  0
  6 10  1  0  0  0  0
  7 11  1  0  0  0  0
  7 12  1  0  0  0  0
  8 13  1  0  0  0  0
  8 37  1  0  0  0  0
  8 38  1  0  0  0  0
  9 10  2  0  0  0  0
  9 39  1  0  0  0  0
 10 40  1  0  0  0  0
 11 14  2  0  0  0  0
 11 13  1  0  0  0  0
 12 15  1  0  0  0  0
 12 41  1  0  0  0  0
 12 42  1  0  0  0  0
 13 16  1  0  0  0  0
 13 43  1  6  0  0  0
 15 17  1  0  0  0  0
 15 18  2  0  0  0  0
 16 19  1  0  0  0  0
 16 44  1  0  0  0  0
 17 45  1  0  0  0  0
 19 20  1  0  0  0  0
 19 21  1  0  0  0  0
 19 46  1  6  0  0  0
 20 22  1  0  0  0  0
 20 47  1  0  0  0  0
 20 48  1  0  0  0  0
 21 23  1  0  0  0  0
 21 24  2  0  0  0  0
 22 25  1  0  0  0  0
 22 49  1  0  0  0  0
 22 50  1  0  0  0  0
 23 26  1  0  0  0  0
 25 27  2  0  0  0  0
 25 28  1  0  0  0  0
 26 29  1  0  0  0  0
 26 51  1  0  0  0  0
 26 52  1  0  0  0  0
 27 30  1  0  0  0  0
 27 53  1  0  0  0  0
 28 31  2  0  0  0  0
 28 54  1  0  0  0  0
 29 55  1  0  0  0  0
 29 56  1  0  0  0  0
 29 57  1  0  0  0  0
 30 32  2  0  0  0  0
 30 58  1  0  0  0  0
 31 32  1  0  0  0  0
 31 59  1  0  0  0  0
 32 60  1  0  0  0  0
M  END
>  <DRUGBANK_ID>
DB08836

>  <COMMON_NAME>
Temocapril

>  <CAS_NUMBER>
111902-57-9

>  <UNII>
18IZ008EU6

>  <SYNONYMS>
Temocapril; Temocaprilum

$$$$
