
 OpenBabel10282417072D

 65 67  0  0  0  0  0  0  0  0999 V2000
    1.7862    3.0938    0.0000 S   0  0  0  0  0  0  0  0  0  0  0  0
    0.3572   -1.0312    0.0000 O   0  0  0  0  0  0  0  0  0  0  0  0
   -0.3572    1.8562    0.0000 O   0  0  0  0  0  0  0  0  0  0  0  0
    2.1987    2.3793    0.0000 O   0  0  0  0  0  0  0  0  0  0  0  0
    1.3736    3.8082    0.0000 O   0  0  0  0  0  0  0  0  0  0  0  0
   -0.3572    0.2062    0.0000 N   0  0  0  0  0  0  0  0  0  0  0  0
    1.0717    2.6813    0.0000 N   0  0  0  0  0  0  0  0  0  0  0  0
    2.5006    4.3313    0.0000 N   0  0  0  0  0  0  0  0  0  0  0  0
   -1.0717   -1.0312    0.0000 C   0  0  2  0  0  0  0  0  0  0  0  0
   -1.7862   -0.6187    0.0000 C   0  0  0  0  0  0  0  0  0  0  0  0
   -2.5006   -1.0312    0.0000 C   0  0  0  0  0  0  0  0  0  0  0  0
   -1.0717   -1.8562    0.0000 C   0  0  0  0  0  0  0  0  0  0  0  0
   -0.3572   -0.6187    0.0000 C   0  0  0  0  0  0  0  0  0  0  0  0
   -3.2152   -0.6187    0.0000 C   0  0  0  0  0  0  0  0  0  0  0  0
   -2.5006   -1.8562    0.0000 C   0  0  0  0  0  0  0  0  0  0  0  0
    0.3572    0.6187    0.0000 C   0  0  0  0  0  0  0  0  0  0  0  0
   -1.7862   -2.2687    0.0000 C   0  0  0  0  0  0  0  0  0  0  0  0
    0.3572    1.4437    0.0000 C   0  0  2  0  0  0  0  0  0  0  0  0
   -0.3572   -2.2687    0.0000 C   0  0  0  0  0  0  0  0  0  0  0  0
   -1.7862   -3.0938    0.0000 C   0  0  0  0  0  0  0  0  0  0  0  0
    1.0717    1.8562    0.0000 C   0  0  0  0  0  0  0  0  0  0  0  0
   -0.3572   -3.0938    0.0000 C   0  0  0  0  0  0  0  0  0  0  0  0
   -1.0717   -3.5063    0.0000 C   0  0  0  0  0  0  0  0  0  0  0  0
   -2.5006   -3.5063    0.0000 C   0  0  0  0  0  0  0  0  0  0  0  0
   -2.5006   -4.3313    0.0000 C   0  0  0  0  0  0  0  0  0  0  0  0
   -3.2152   -3.0938    0.0000 C   0  0  0  0  0  0  0  0  0  0  0  0
    2.5006    3.5063    0.0000 C   0  0  0  0  0  0  0  0  0  0  0  0
   -3.2152   -4.7438    0.0000 C   0  0  0  0  0  0  0  0  0  0  0  0
   -3.9296   -3.5063    0.0000 C   0  0  0  0  0  0  0  0  0  0  0  0
   -3.9296   -4.3313    0.0000 C   0  0  0  0  0  0  0  0  0  0  0  0
    3.2152    3.0938    0.0000 C   0  0  0  0  0  0  0  0  0  0  0  0
    3.9296    3.5063    0.0000 C   0  0  0  0  0  0  0  0  0  0  0  0
    3.2152    4.7438    0.0000 C   0  0  0  0  0  0  0  0  0  0  0  0
    3.9296    4.3313    0.0000 C   0  0  0  0  0  0  0  0  0  0  0  0
   -0.8002    0.4620    0.0000 H   0  0  0  0  0  0  0  0  0  0  0  0
    0.6287    2.9370    0.0000 H   0  0  0  0  0  0  0  0  0  0  0  0
   -0.3572    2.8262    0.0000 H   0  0  0  0  0  0  0  0  0  0  0  0
   -1.9983   -1.5662    0.0000 H   0  0  0  0  0  0  0  0  0  0  0  0
   -1.7862    0.4513    0.0000 H   0  0  0  0  0  0  0  0  0  0  0  0
   -2.7129   -0.0837    0.0000 H   0  0  0  0  0  0  0  0  0  0  0  0
   -3.4272   -1.5662    0.0000 H   0  0  0  0  0  0  0  0  0  0  0  0
   -3.2153    0.4513    0.0000 H   0  0  0  0  0  0  0  0  0  0  0  0
   -4.1418   -1.1538    0.0000 H   0  0  0  0  0  0  0  0  0  0  0  0
   -4.1419   -0.0838    0.0000 H   0  0  0  0  0  0  0  0  0  0  0  0
   -3.4272   -2.3912    0.0000 H   0  0  0  0  0  0  0  0  0  0  0  0
   -1.5740   -2.3912    0.0000 H   0  0  0  0  0  0  0  0  0  0  0  0
   -2.5006   -2.9262    0.0000 H   0  0  0  0  0  0  0  0  0  0  0  0
    1.2839    0.0837    0.0000 H   0  0  0  0  0  0  0  0  0  0  0  0
    1.2838    1.1537    0.0000 H   0  0  0  0  0  0  0  0  0  0  0  0
   -2.6799   -1.7527    0.0000 H   0  0  0  0  0  0  0  0  0  0  0  0
   -0.5695    0.9087    0.0000 H   0  0  0  0  0  0  0  0  0  0  0  0
    0.5365   -1.7527    0.0000 H   0  0  0  0  0  0  0  0  0  0  0  0
    1.9983    1.3212    0.0000 H   0  0  0  0  0  0  0  0  0  0  0  0
    1.0717    0.7862    0.0000 H   0  0  0  0  0  0  0  0  0  0  0  0
    0.5365   -3.6098    0.0000 H   0  0  0  0  0  0  0  0  0  0  0  0
   -1.0717   -4.5383    0.0000 H   0  0  0  0  0  0  0  0  0  0  0  0
   -1.6069   -4.8473    0.0000 H   0  0  0  0  0  0  0  0  0  0  0  0
   -3.2153   -2.0618    0.0000 H   0  0  0  0  0  0  0  0  0  0  0  0
   -3.2153   -5.7758    0.0000 H   0  0  0  0  0  0  0  0  0  0  0  0
   -4.8233   -2.9903    0.0000 H   0  0  0  0  0  0  0  0  0  0  0  0
   -4.8233   -4.8473    0.0000 H   0  0  0  0  0  0  0  0  0  0  0  0
    3.2153    2.0618    0.0000 H   0  0  0  0  0  0  0  0  0  0  0  0
    4.8233    2.9903    0.0000 H   0  0  0  0  0  0  0  0  0  0  0  0
    3.2153    5.7758    0.0000 H   0  0  0  0  0  0  0  0  0  0  0  0
    4.8233    4.8473    0.0000 H   0  0  0  0  0  0  0  0  0  0  0  0
  1  4  2  0  0  0  0
  1  5  2  0  0  0  0
  1  7  1  0  0  0  0
  1 27  1  0  0  0  0
  2 13  2  0  0  0  0
  3 37  1  0  0  0  0
  6 13  1  0  0  0  0
  6 16  1  0  0  0  0
  6 35  1  0  0  0  0
  7 21  1  0  0  0  0
  7 36  1  0  0  0  0
  8 27  1  0  0  0  0
  8 33  2  0  0  0  0
  9 10  1  0  0  0  0
  9 12  1  0  0  0  0
  9 13  1  0  0  0  0
  9 38  1  6  0  0  0
 10 11  1  0  0  0  0
 10 39  1  0  0  0  0
 10 40  1  0  0  0  0
 11 14  1  0  0  0  0
 11 15  1  0  0  0  0
 11 41  1  0  0  0  0
 12 17  1  0  0  0  0
 12 19  2  0  0  0  0
 14 42  1  0  0  0  0
 14 43  1  0  0  0  0
 14 44  1  0  0  0  0
 15 45  1  0  0  0  0
 15 46  1  0  0  0  0
 15 47  1  0  0  0  0
 16 18  1  0  0  0  0
 16 48  1  0  0  0  0
 16 49  1  0  0  0  0
 17 20  2  0  0  0  0
 17 50  1  0  0  0  0
 18  3  1  0  0  0  0
 18 21  1  0  0  0  0
 18 51  1  6  0  0  0
 19 22  1  0  0  0  0
 19 52  1  0  0  0  0
 20 23  1  0  0  0  0
 20 24  1  0  0  0  0
 21 53  1  0  0  0  0
 21 54  1  0  0  0  0
 22 23  2  0  0  0  0
 22 55  1  0  0  0  0
 23 56  1  0  0  0  0
 24 25  2  0  0  0  0
 24 26  1  0  0  0  0
 25 28  1  0  0  0  0
 25 57  1  0  0  0  0
 26 29  2  0  0  0  0
 26 58  1  0  0  0  0
 27 31  2  0  0  0  0
 28 30  2  0  0  0  0
 28 59  1  0  0  0  0
 29 30  1  0  0  0  0
 29 60  1  0  0  0  0
 30 61  1  0  0  0  0
 31 32  1  0  0  0  0
 31 62  1  0  0  0  0
 32 34  2  0  0  0  0
 32 63  1  0  0  0  0
 33 34  1  0  0  0  0
 33 64  1  0  0  0  0
 34 65  1  0  0  0  0
M  END
>  <DRUGBANK_ID>
DB04244

>  <SECONDARY_ACCESSION_NUMBERS>
EXPT01807

>  <COMMON_NAME>
(2R)-2-(3-Biphenylyl)-N-{(2R)-2-hydroxy-3-[(2-pyridinylsulfonyl)amino]propyl}-4-methylpentanamide

$$$$
