APJ
 OpenBabel10282417072D

 41 45  0  0  0  0  0  0  0  0999 V2000
    0.0240    0.2612    0.0000 N   0  0  0  0  0  0  0  0  0  0  0  0
   -1.4050    0.2612    0.0000 N   0  0  0  0  0  0  0  0  0  0  0  0
    0.7384    1.4987    0.0000 N   0  0  0  0  0  0  0  0  0  0  0  0
    1.5391    0.2657    0.0000 N   0  0  0  0  0  0  0  0  0  0  0  0
    2.3461    0.0942    0.0000 N   0  0  0  0  0  0  0  0  0  0  0  0
   -0.6905   -0.9763    0.0000 N   0  0  0  0  0  0  0  0  0  0  0  0
   -3.6185   -2.4687    0.0000 N   0  0  0  0  0  0  0  0  0  0  0  0
   -3.6185   -1.1339    0.0000 N   0  0  0  0  0  0  0  0  0  0  0  0
   -0.6905   -0.1513    0.0000 C   0  0  0  0  0  0  0  0  0  0  0  0
    0.0240    1.0862    0.0000 C   0  0  0  0  0  0  0  0  0  0  0  0
   -0.6905    1.4987    0.0000 C   0  0  0  0  0  0  0  0  0  0  0  0
   -1.4050    1.0862    0.0000 C   0  0  0  0  0  0  0  0  0  0  0  0
    1.4529    1.0862    0.0000 C   0  0  0  0  0  0  0  0  0  0  0  0
    2.7586    0.8087    0.0000 C   0  0  0  0  0  0  0  0  0  0  0  0
    2.2066    1.4218    0.0000 C   0  0  0  0  0  0  0  0  0  0  0  0
    3.5791    0.8949    0.0000 C   0  0  0  0  0  0  0  0  0  0  0  0
    4.3328    0.5593    0.0000 C   0  0  0  0  0  0  0  0  0  0  0  0
    4.2465    1.3798    0.0000 C   0  0  0  0  0  0  0  0  0  0  0  0
   -1.4050   -1.3888    0.0000 C   0  0  0  0  0  0  0  0  0  0  0  0
   -2.1195   -0.9763    0.0000 C   0  0  0  0  0  0  0  0  0  0  0  0
   -2.8339   -1.3888    0.0000 C   0  0  0  0  0  0  0  0  0  0  0  0
   -2.8339   -2.2138    0.0000 C   0  0  0  0  0  0  0  0  0  0  0  0
   -2.1195   -2.6263    0.0000 C   0  0  0  0  0  0  0  0  0  0  0  0
   -1.4050   -2.2138    0.0000 C   0  0  0  0  0  0  0  0  0  0  0  0
   -4.1035   -1.8013    0.0000 C   0  0  0  0  0  0  0  0  0  0  0  0
    0.7384    2.4832    0.0000 H   0  0  0  0  0  0  0  0  0  0  0  0
    0.8075   -0.3931    0.0000 H   0  0  0  0  0  0  0  0  0  0  0  0
    0.1621   -1.4686    0.0000 H   0  0  0  0  0  0  0  0  0  0  0  0
   -3.9227   -3.4050    0.0000 H   0  0  0  0  0  0  0  0  0  0  0  0
   -0.6905    2.5307    0.0000 H   0  0  0  0  0  0  0  0  0  0  0  0
   -2.2987    1.6022    0.0000 H   0  0  0  0  0  0  0  0  0  0  0  0
    2.4212    2.4312    0.0000 H   0  0  0  0  0  0  0  0  0  0  0  0
    4.6432    1.0067    0.0000 H   0  0  0  0  0  0  0  0  0  0  0  0
    4.9617   -0.3063    0.0000 H   0  0  0  0  0  0  0  0  0  0  0  0
    5.3317    0.9428    0.0000 H   0  0  0  0  0  0  0  0  0  0  0  0
    4.6817    2.3573    0.0000 H   0  0  0  0  0  0  0  0  0  0  0  0
    5.3033    1.2125    0.0000 H   0  0  0  0  0  0  0  0  0  0  0  0
   -2.1195    0.0557    0.0000 H   0  0  0  0  0  0  0  0  0  0  0  0
   -2.1195   -3.6583    0.0000 H   0  0  0  0  0  0  0  0  0  0  0  0
   -0.5113   -2.7298    0.0000 H   0  0  0  0  0  0  0  0  0  0  0  0
   -5.1355   -1.8013    0.0000 H   0  0  0  0  0  0  0  0  0  0  0  0
  1  9  2  0  0  0  0
  1 10  1  0  0  0  0
  2 12  2  0  0  0  0
  3 10  1  0  0  0  0
  3 26  1  0  0  0  0
  4 13  1  0  0  0  0
  4 27  1  0  0  0  0
  5  4  1  0  0  0  0
  6  9  1  0  0  0  0
  6 28  1  0  0  0  0
  7 22  1  0  0  0  0
  7 29  1  0  0  0  0
  8 21  1  0  0  0  0
  9  2  1  0  0  0  0
 10 11  2  0  0  0  0
 11 12  1  0  0  0  0
 11 30  1  0  0  0  0
 12 31  1  0  0  0  0
 13  3  1  0  0  0  0
 14  5  2  0  0  0  0
 14 15  1  0  0  0  0
 15 13  2  0  0  0  0
 15 32  1  0  0  0  0
 16 14  1  0  0  0  0
 16 33  1  0  0  0  0
 17 16  1  0  0  0  0
 17 34  1  0  0  0  0
 17 35  1  0  0  0  0
 18 16  1  0  0  0  0
 18 17  1  0  0  0  0
 18 36  1  0  0  0  0
 18 37  1  0  0  0  0
 19  6  1  0  0  0  0
 20 19  2  0  0  0  0
 20 38  1  0  0  0  0
 21 20  1  0  0  0  0
 22 21  2  0  0  0  0
 22 23  1  0  0  0  0
 23 24  2  0  0  0  0
 23 39  1  0  0  0  0
 24 19  1  0  0  0  0
 24 40  1  0  0  0  0
 25  7  1  0  0  0  0
 25  8  2  0  0  0  0
 25 41  1  0  0  0  0
M  END
>  <DRUGBANK_ID>
DB07382

>  <COMMON_NAME>
N~2~-1H-benzimidazol-5-yl-N~4~-(3-cyclopropyl-1H-pyrazol-5-yl)pyrimidine-2,4-diamine

$$$$
