
 OpenBabel10282417072D

 21 20  0  0  0  0  0  0  0  0999 V2000
    0.0000   -0.8250    0.0000 H   0  0  0  0  0  0  0  0  0  0  0  0
    0.8250   -0.8250    0.0000 C   0  0  0  0  0  0  0  0  0  0  0  0
    0.8250   -1.6500    0.0000 H   0  0  0  0  0  0  0  0  0  0  0  0
    1.6500   -0.8250    0.0000 H   0  0  0  0  0  0  0  0  0  0  0  0
    0.8250    0.0000    0.0000 N   0  3  0  0  0  0  0  0  0  0  0  0
    0.8250    0.8250    0.0000 C   0  0  0  0  0  0  0  0  0  0  0  0
    1.5395    1.2375    0.0000 C   0  0  0  0  0  0  0  0  0  0  0  0
    1.5395    2.0625    0.0000 O   0  0  0  0  0  0  0  0  0  0  0  0
    1.6500   -0.0000    0.0000 C   0  0  0  0  0  0  0  0  0  0  0  0
    2.4122   -0.3157    0.0000 H   0  0  0  0  0  0  0  0  0  0  0  0
    2.2334    0.5834    0.0000 H   0  0  0  0  0  0  0  0  0  0  0  0
    1.3343    0.7622    0.0000 H   0  0  0  0  0  0  0  0  0  0  0  0
    0.0000    0.0000    0.0000 C   0  0  0  0  0  0  0  0  0  0  0  0
    0.3157    0.7622    0.0000 H   0  0  0  0  0  0  0  0  0  0  0  0
   -0.5834    0.5834    0.0000 H   0  0  0  0  0  0  0  0  0  0  0  0
   -0.7622   -0.3157    0.0000 H   0  0  0  0  0  0  0  0  0  0  0  0
   -0.1016    1.3600    0.0000 H   0  0  0  0  0  0  0  0  0  0  0  0
    0.8250    1.8950    0.0000 H   0  0  0  0  0  0  0  0  0  0  0  0
    2.4661    0.7025    0.0000 H   0  0  0  0  0  0  0  0  0  0  0  0
    2.4661    1.7725    0.0000 H   0  0  0  0  0  0  0  0  0  0  0  0
    2.3795    2.5475    0.0000 H   0  0  0  0  0  0  0  0  0  0  0  0
  1  2  1  0  0  0  0
  2  3  1  0  0  0  0
  2  4  1  0  0  0  0
  2  5  1  0  0  0  0
  5  6  1  0  0  0  0
  5  9  1  0  0  0  0
  5 13  1  0  0  0  0
  6  7  1  0  0  0  0
  6 17  1  0  0  0  0
  6 18  1  0  0  0  0
  7  8  1  0  0  0  0
  7 19  1  0  0  0  0
  7 20  1  0  0  0  0
  8 21  1  0  0  0  0
  9 10  1  0  0  0  0
  9 11  1  0  0  0  0
  9 12  1  0  0  0  0
 13 14  1  0  0  0  0
 13 15  1  0  0  0  0
 13 16  1  0  0  0  0
M  ISO  8   1   2   3   2   4   2  10   2  11   2  12   2  14   2  15   2
M  ISO  1  16   2
M  CHG  1   5   1
M  END
>  <DRUGBANK_ID>
DB12628

>  <COMMON_NAME>
Methyl-D9-choline

>  <CAS_NUMBER>
50673-41-1

>  <UNII>
Y1HDI47S6K

$$$$
