LRG
 OpenBabel10282417072D

 42 44  0  0  0  0  0  0  0  0999 V2000
   -3.1111    1.0225    0.0000 C   0  0  0  0  0  0  0  0  0  0  0  0
   -3.8256    0.6100    0.0000 C   0  0  0  0  0  0  0  0  0  0  0  0
   -3.8256   -0.2150    0.0000 C   0  0  0  0  0  0  0  0  0  0  0  0
   -3.1111   -0.6275    0.0000 C   0  0  0  0  0  0  0  0  0  0  0  0
   -2.3967   -0.2150    0.0000 C   0  0  0  0  0  0  0  0  0  0  0  0
   -2.3967    0.6100    0.0000 C   0  0  0  0  0  0  0  0  0  0  0  0
   -1.6822    1.0225    0.0000 C   0  0  0  0  0  0  0  0  0  0  0  0
   -0.9677    0.6100    0.0000 C   0  0  1  0  0  0  0  0  0  0  0  0
   -0.9677   -0.2150    0.0000 C   0  0  0  0  0  0  0  0  0  0  0  0
   -1.6822   -0.6275    0.0000 O   0  0  0  0  0  0  0  0  0  0  0  0
   -0.2533   -0.6275    0.0000 O   0  0  0  0  0  0  0  0  0  0  0  0
   -0.2533    1.0225    0.0000 O   0  0  0  0  0  0  0  0  0  0  0  0
    0.4612    0.6100    0.0000 C   0  0  0  0  0  0  0  0  0  0  0  0
    1.1757    1.0225    0.0000 C   0  0  0  0  0  0  0  0  0  0  0  0
    1.8902    0.6100    0.0000 C   0  0  0  0  0  0  0  0  0  0  0  0
    0.4612   -0.2150    0.0000 C   0  0  0  0  0  0  0  0  0  0  0  0
    1.1757   -0.6275    0.0000 C   0  0  0  0  0  0  0  0  0  0  0  0
    1.8902   -0.2150    0.0000 C   0  0  0  0  0  0  0  0  0  0  0  0
    2.6046   -0.6275    0.0000 C   0  0  0  0  0  0  0  0  0  0  0  0
    2.6046   -1.4525    0.0000 C   0  0  0  0  0  0  0  0  0  0  0  0
    3.3191   -1.8650    0.0000 C   0  0  0  0  0  0  0  0  0  0  0  0
    4.0336   -1.4525    0.0000 C   0  0  0  0  0  0  0  0  0  0  0  0
    4.0336   -0.6275    0.0000 C   0  0  0  0  0  0  0  0  0  0  0  0
    3.3191   -0.2150    0.0000 C   0  0  0  0  0  0  0  0  0  0  0  0
   -1.4734    0.3180    0.0000 H   0  0  0  0  0  0  0  0  0  0  0  0
   -3.1111    2.0545    0.0000 H   0  0  0  0  0  0  0  0  0  0  0  0
   -4.7193    1.1260    0.0000 H   0  0  0  0  0  0  0  0  0  0  0  0
   -4.7193   -0.7310    0.0000 H   0  0  0  0  0  0  0  0  0  0  0  0
   -3.1111   -1.6595    0.0000 H   0  0  0  0  0  0  0  0  0  0  0  0
   -1.5030   -0.7310    0.0000 H   0  0  0  0  0  0  0  0  0  0  0  0
   -1.6822    2.0925    0.0000 H   0  0  0  0  0  0  0  0  0  0  0  0
   -0.7556    1.5575    0.0000 H   0  0  0  0  0  0  0  0  0  0  0  0
   -2.4937   -0.1590    0.0000 H   0  0  0  0  0  0  0  0  0  0  0  0
    1.1757    2.0545    0.0000 H   0  0  0  0  0  0  0  0  0  0  0  0
    2.7839    1.1260    0.0000 H   0  0  0  0  0  0  0  0  0  0  0  0
   -0.4325   -0.7310    0.0000 H   0  0  0  0  0  0  0  0  0  0  0  0
    1.1757   -1.6595    0.0000 H   0  0  0  0  0  0  0  0  0  0  0  0
    1.7109   -1.9685    0.0000 H   0  0  0  0  0  0  0  0  0  0  0  0
    3.3191   -2.8970    0.0000 H   0  0  0  0  0  0  0  0  0  0  0  0
    4.9273   -1.9685    0.0000 H   0  0  0  0  0  0  0  0  0  0  0  0
    4.9273   -0.1115    0.0000 H   0  0  0  0  0  0  0  0  0  0  0  0
    3.3191    0.8170    0.0000 H   0  0  0  0  0  0  0  0  0  0  0  0
  1  6  1  0  0  0  0
  1 26  1  0  0  0  0
  2  1  2  0  0  0  0
  2 27  1  0  0  0  0
  3  4  2  0  0  0  0
  3  2  1  0  0  0  0
  3 28  1  0  0  0  0
  4  5  1  0  0  0  0
  4 29  1  0  0  0  0
  5  6  2  0  0  0  0
  5 30  1  0  0  0  0
  6  7  1  0  0  0  0
  7  8  1  0  0  0  0
  7 31  1  0  0  0  0
  7 32  1  0  0  0  0
  8  9  1  0  0  0  0
  8 25  1  1  0  0  0
  8 12  1  0  0  0  0
  9 11  2  0  0  0  0
  9 10  1  0  0  0  0
 10 33  1  0  0  0  0
 12 13  1  0  0  0  0
 13 14  2  0  0  0  0
 14 34  1  0  0  0  0
 15 14  1  0  0  0  0
 15 35  1  0  0  0  0
 16 13  1  0  0  0  0
 16 36  1  0  0  0  0
 17 16  2  0  0  0  0
 17 18  1  0  0  0  0
 17 37  1  0  0  0  0
 18 15  2  0  0  0  0
 19 24  1  0  0  0  0
 19 18  1  0  0  0  0
 20 19  2  0  0  0  0
 20 38  1  0  0  0  0
 21 22  2  0  0  0  0
 21 20  1  0  0  0  0
 21 39  1  0  0  0  0
 22 23  1  0  0  0  0
 22 40  1  0  0  0  0
 23 24  2  0  0  0  0
 23 41  1  0  0  0  0
 24 42  1  0  0  0  0
M  END
>  <DRUGBANK_ID>
DB08121

>  <COMMON_NAME>
(2S)-2-(biphenyl-4-yloxy)-3-phenylpropanoic acid

$$$$
