
 OpenBabel10282417072D

 61 64  0  0  1  0  0  0  0  0999 V2000
   -0.5683   -1.4940    0.0000 C   0  0  0  0  0  0  0  0  0  0  0  0
   -2.3119   -5.4102    0.0000 C   0  0  0  0  0  0  0  0  0  0  0  0
    3.3523    1.1104    0.0000 C   0  0  0  0  0  0  0  0  0  0  0  0
    0.6538    1.5229    0.0000 C   0  0  0  0  0  0  0  0  0  0  0  0
   -1.8169   -3.2843    0.0000 C   0  0  0  0  0  0  0  0  0  0  0  0
    0.0992   -1.0091    0.0000 C   0  0  2  0  0  0  0  0  0  0  0  0
   -2.2257   -6.2307    0.0000 C   0  0  2  0  0  0  0  0  0  0  0  0
    1.9233    1.9354    0.0000 C   0  0  0  0  0  0  0  0  0  0  0  0
    0.8838   -1.2640    0.0000 C   0  0  2  0  0  0  0  0  0  0  0  0
   -2.8387   -6.7827    0.0000 C   0  0  2  0  0  0  0  0  0  0  0  0
    1.3687   -0.5966    0.0000 C   0  0  2  0  0  0  0  0  0  0  0  0
   -2.5032   -7.5364    0.0000 C   0  0  2  0  0  0  0  0  0  0  0  0
    2.6378    2.3479    0.0000 C   0  0  0  0  0  0  0  0  0  0  0  0
    1.9233    1.1104    0.0000 C   0  0  0  0  0  0  0  0  0  0  0  0
    0.8838    0.0709    0.0000 C   0  0  2  0  0  0  0  0  0  0  0  0
   -1.6827   -7.4501    0.0000 C   0  0  1  0  0  0  0  0  0  0  0  0
    2.6378    3.1729    0.0000 N   0  0  0  0  0  0  0  0  0  0  0  0
    3.3523    1.9354    0.0000 N   0  0  0  0  0  0  0  0  0  0  0  0
    2.6378    0.6979    0.0000 N   0  0  0  0  0  0  0  0  0  0  0  0
    1.1387    2.1904    0.0000 N   0  0  0  0  0  0  0  0  0  0  0  0
    1.1387    0.8555    0.0000 N   0  0  0  0  0  0  0  0  0  0  0  0
    1.1387   -2.0486    0.0000 O   0  0  0  0  0  0  0  0  0  0  0  0
   -3.6457   -6.6112    0.0000 O   0  0  0  0  0  0  0  0  0  0  0  0
    2.1937   -0.5966    0.0000 O   0  0  0  0  0  0  0  0  0  0  0  0
   -2.9157   -8.2508    0.0000 O   0  0  0  0  0  0  0  0  0  0  0  0
   -1.1307   -8.0632    0.0000 O   0  0  0  0  0  0  0  0  0  0  0  0
   -1.6344   -2.1319    0.0000 O   0  0  0  0  0  0  0  0  0  0  0  0
   -0.6646   -3.4668    0.0000 O   0  0  0  0  0  0  0  0  0  0  0  0
   -2.5512   -4.1910    0.0000 O   0  0  0  0  0  0  0  0  0  0  0  0
   -0.9102   -4.0186    0.0000 O   0  0  0  0  0  0  0  0  0  0  0  0
   -0.4820   -2.3145    0.0000 O   0  0  0  0  0  0  0  0  0  0  0  0
   -1.6444   -4.9253    0.0000 O   0  0  0  0  0  0  0  0  0  0  0  0
    0.0992   -0.1841    0.0000 O   0  0  0  0  0  0  0  0  0  0  0  0
   -1.5112   -6.6432    0.0000 O   0  0  0  0  0  0  0  0  0  0  0  0
   -1.1495   -2.7994    0.0000 P   0  0  3  0  0  0  0  0  0  0  0  0
   -1.7307   -4.1048    0.0000 P   0  0  3  0  0  0  0  0  0  0  0  0
    0.4991   -1.7306    0.0000 H   0  0  0  0  0  0  0  0  0  0  0  0
   -3.0505   -6.2163    0.0000 H   0  0  0  0  0  0  0  0  0  0  0  0
    0.5351   -2.0117    0.0000 H   0  0  0  0  0  0  0  0  0  0  0  0
   -3.3119   -6.1069    0.0000 H   0  0  0  0  0  0  0  0  0  0  0  0
    1.7432   -1.3316    0.0000 H   0  0  0  0  0  0  0  0  0  0  0  0
   -3.3271   -7.4932    0.0000 H   0  0  0  0  0  0  0  0  0  0  0  0
    1.6986    0.1999    0.0000 H   0  0  0  0  0  0  0  0  0  0  0  0
   -1.9784   -8.2203    0.0000 H   0  0  0  0  0  0  0  0  0  0  0  0
   -1.5458   -1.0588    0.0000 H   0  0  0  0  0  0  0  0  0  0  0  0
   -1.4339   -2.1230    0.0000 H   0  0  0  0  0  0  0  0  0  0  0  0
   -3.2894   -4.9749    0.0000 H   0  0  0  0  0  0  0  0  0  0  0  0
   -2.4237   -4.3461    0.0000 H   0  0  0  0  0  0  0  0  0  0  0  0
    4.2460    0.5944    0.0000 H   0  0  0  0  0  0  0  0  0  0  0  0
   -0.3782    1.5229    0.0000 H   0  0  0  0  0  0  0  0  0  0  0  0
   -2.7944   -2.8491    0.0000 H   0  0  0  0  0  0  0  0  0  0  0  0
   -2.6826   -3.9132    0.0000 H   0  0  0  0  0  0  0  0  0  0  0  0
    3.4904    3.6651    0.0000 H   0  0  0  0  0  0  0  0  0  0  0  0
    1.7852    3.6651    0.0000 H   0  0  0  0  0  0  0  0  0  0  0  0
    0.4896   -2.7694    0.0000 H   0  0  0  0  0  0  0  0  0  0  0  0
   -3.9455   -5.6887    0.0000 H   0  0  0  0  0  0  0  0  0  0  0  0
    2.6787   -1.4366    0.0000 H   0  0  0  0  0  0  0  0  0  0  0  0
   -3.8857   -8.2508    0.0000 H   0  0  0  0  0  0  0  0  0  0  0  0
   -1.4305   -8.9857    0.0000 H   0  0  0  0  0  0  0  0  0  0  0  0
   -1.2398   -1.2458    0.0000 H   0  0  0  0  0  0  0  0  0  0  0  0
   -3.1213   -3.4062    0.0000 H   0  0  0  0  0  0  0  0  0  0  0  0
  1 45  1  0  0  0  0
  1 46  1  0  0  0  0
  2 47  1  0  0  0  0
  2 48  1  0  0  0  0
  3 49  1  0  0  0  0
  4 50  1  0  0  0  0
  5 51  1  0  0  0  0
  5 52  1  0  0  0  0
  6  1  1  0  0  0  0
  6 37  1  6  0  0  0
  7  2  1  0  0  0  0
  7 38  1  6  0  0  0
  9  6  1  0  0  0  0
  9 22  1  0  0  0  0
  9 39  1  1  0  0  0
 10  7  1  0  0  0  0
 10 23  1  0  0  0  0
 10 40  1  1  0  0  0
 11  9  1  0  0  0  0
 11 24  1  0  0  0  0
 11 41  1  1  0  0  0
 12 10  1  0  0  0  0
 12 25  1  0  0  0  0
 12 42  1  1  0  0  0
 13  8  2  0  0  0  0
 14  8  1  0  0  0  0
 15 11  1  0  0  0  0
 15 21  1  0  0  0  0
 15 43  1  6  0  0  0
 16 12  1  0  0  0  0
 16 26  1  0  0  0  0
 16 44  1  1  0  0  0
 17 13  1  0  0  0  0
 17 53  1  0  0  0  0
 17 54  1  0  0  0  0
 18  3  2  0  0  0  0
 18 13  1  0  0  0  0
 19  3  1  0  0  0  0
 19 14  2  0  0  0  0
 20  4  2  0  0  0  0
 20  8  1  0  0  0  0
 21  4  1  0  0  0  0
 21 14  1  0  0  0  0
 22 55  1  0  0  0  0
 23 56  1  0  0  0  0
 24 57  1  0  0  0  0
 25 58  1  0  0  0  0
 26 59  1  0  0  0  0
 27 60  1  0  0  0  0
 29 61  1  0  0  0  0
 31  1  1  0  0  0  0
 32  2  1  0  0  0  0
 33  6  1  0  0  0  0
 33 15  1  0  0  0  0
 34  7  1  0  0  0  0
 34 16  1  0  0  0  0
 35  5  1  0  0  0  0
 35 27  1  0  0  0  0
 35 28  2  0  0  0  0
 35 31  1  0  0  0  0
 36  5  1  0  0  0  0
 36 29  1  0  0  0  0
 36 30  2  0  0  0  0
 36 32  1  0  0  0  0
M  END
>  <DRUGBANK_ID>
DB01975

>  <SECONDARY_ACCESSION_NUMBERS>
EXPT00439

>  <COMMON_NAME>
AMPCPR

>  <SYNONYMS>
alpha-beta methylene ADP-ribose

$$$$
