787
 OpenBabel10282417072D

 27 28  0  0  0  0  0  0  0  0999 V2000
    6.0807    0.7122    0.0000 O   0  0  0  0  0  0  0  0  0  0  0  0
    3.5220   -2.5562    0.0000 O   0  0  0  0  0  0  0  0  0  0  0  0
    7.4006    2.4506    0.0000 O   0  0  0  0  0  0  0  0  0  0  0  0
    5.0171   -0.2422    0.0000 N   0  0  0  0  0  0  0  0  0  0  0  0
    3.5220   -0.0811    0.0000 N   0  0  0  0  0  0  0  0  0  0  0  0
    5.0171   -1.5700    0.0000 N   0  0  0  0  0  0  0  0  0  0  0  0
    2.8075   -1.3186    0.0000 N   0  0  0  0  0  0  0  0  0  0  0  0
    2.0930   -0.0811    0.0000 N   0  0  0  0  0  0  0  0  0  0  0  0
    4.2365   -0.4936    0.0000 C   0  0  0  0  0  0  0  0  0  0  0  0
    5.2734    0.5420    0.0000 C   0  0  0  0  0  0  0  0  0  0  0  0
    4.2365   -1.3186    0.0000 C   0  0  0  0  0  0  0  0  0  0  0  0
    5.4986   -0.9061    0.0000 C   0  0  0  0  0  0  0  0  0  0  0  0
    3.5220   -1.7311    0.0000 C   0  0  0  0  0  0  0  0  0  0  0  0
    2.8075   -0.4936    0.0000 C   0  0  0  0  0  0  0  0  0  0  0  0
    6.3370    1.4963    0.0000 C   0  0  0  0  0  0  0  0  0  0  0  0
    7.1443    1.6665    0.0000 C   0  0  0  0  0  0  0  0  0  0  0  0
    8.3498    2.6506    0.0000 H   0  0  0  0  0  0  0  0  0  0  0  0
    3.5220    0.9034    0.0000 H   0  0  0  0  0  0  0  0  0  0  0  0
    2.0930    0.9034    0.0000 H   0  0  0  0  0  0  0  0  0  0  0  0
    1.2404   -0.5734    0.0000 H   0  0  0  0  0  0  0  0  0  0  0  0
    4.5588    1.3384    0.0000 H   0  0  0  0  0  0  0  0  0  0  0  0
    4.2264    0.3213    0.0000 H   0  0  0  0  0  0  0  0  0  0  0  0
    6.5306   -0.9061    0.0000 H   0  0  0  0  0  0  0  0  0  0  0  0
    5.6224    2.2927    0.0000 H   0  0  0  0  0  0  0  0  0  0  0  0
    6.6694    2.5134    0.0000 H   0  0  0  0  0  0  0  0  0  0  0  0
    7.8589    0.8701    0.0000 H   0  0  0  0  0  0  0  0  0  0  0  0
    6.8119    0.6494    0.0000 H   0  0  0  0  0  0  0  0  0  0  0  0
  1 10  1  0  0  0  0
  1 15  1  0  0  0  0
  2 13  2  0  0  0  0
  3 16  1  0  0  0  0
  3 17  1  0  0  0  0
  4  9  1  0  0  0  0
  4 10  1  0  0  0  0
  4 12  1  0  0  0  0
  5  9  1  0  0  0  0
  5 14  1  0  0  0  0
  5 18  1  0  0  0  0
  6 11  1  0  0  0  0
  6 12  2  0  0  0  0
  7 13  1  0  0  0  0
  7 14  2  0  0  0  0
  8 14  1  0  0  0  0
  8 19  1  0  0  0  0
  8 20  1  0  0  0  0
  9 11  2  0  0  0  0
 10 21  1  0  0  0  0
 10 22  1  0  0  0  0
 11 13  1  0  0  0  0
 12 23  1  0  0  0  0
 15 16  1  0  0  0  0
 15 24  1  0  0  0  0
 15 25  1  0  0  0  0
 16 26  1  0  0  0  0
 16 27  1  0  0  0  0
M  END
>  <DRUGBANK_ID>
DB00787

>  <SECONDARY_ACCESSION_NUMBERS>
APRD00567; EXPT00406; DB05347

>  <COMMON_NAME>
Acyclovir

>  <CAS_NUMBER>
59277-89-3

>  <UNII>
X4HES1O11F

>  <SYNONYMS>
Aciclovir; Aciclovirum; Acycloguanosine; Acyclovir

$$$$
