028
 OpenBabel10282417072D

 34 33  0  0  0  0  0  0  0  0999 V2000
   -2.1436    0.0090    0.0000 C   0  0  0  0  0  0  0  0  0  0  0  0
   -1.4000   -0.3483    0.0000 C   0  0  0  0  0  0  0  0  0  0  0  0
   -0.7187    0.1170    0.0000 C   0  0  0  0  0  0  0  0  0  0  0  0
    0.0249   -0.2404    0.0000 C   0  0  0  0  0  0  0  0  0  0  0  0
    0.7062    0.2249    0.0000 C   0  0  0  0  0  0  0  0  0  0  0  0
    1.4499   -0.1324    0.0000 C   0  0  0  0  0  0  0  0  0  0  0  0
    2.1312    0.3329    0.0000 C   0  0  0  0  0  0  0  0  0  0  0  0
    1.6659    1.0143    0.0000 P   0  0  0  0  0  0  0  0  0  0  0  0
    2.3472    1.4796    0.0000 O   0  0  0  0  0  0  0  0  0  0  0  0
    0.9846    0.5489    0.0000 O   0  0  0  0  0  0  0  0  0  0  0  0
    1.2005    1.6955    0.0000 O   0  0  0  0  0  0  0  0  0  0  0  0
    2.5966   -0.3483    0.0000 P   0  0  0  0  0  0  0  0  0  0  0  0
    3.0619   -1.0297    0.0000 O   0  0  0  0  0  0  0  0  0  0  0  0
    3.2778    0.1170    0.0000 O   0  0  0  0  0  0  0  0  0  0  0  0
    1.9152   -0.8137    0.0000 O   0  0  0  0  0  0  0  0  0  0  0  0
    2.8125    0.7983    0.0000 O   0  0  0  0  0  0  0  0  0  0  0  0
   -2.2245    1.0759    0.0000 H   0  0  0  0  0  0  0  0  0  0  0  0
   -3.0271   -0.5945    0.0000 H   0  0  0  0  0  0  0  0  0  0  0  0
   -3.1080    0.4724    0.0000 H   0  0  0  0  0  0  0  0  0  0  0  0
   -1.3191   -1.4152    0.0000 H   0  0  0  0  0  0  0  0  0  0  0  0
   -0.4356   -0.8118    0.0000 H   0  0  0  0  0  0  0  0  0  0  0  0
   -0.7995    1.1839    0.0000 H   0  0  0  0  0  0  0  0  0  0  0  0
    0.1649    0.7204    0.0000 H   0  0  0  0  0  0  0  0  0  0  0  0
    0.1057   -1.3073    0.0000 H   0  0  0  0  0  0  0  0  0  0  0  0
    0.9893   -0.7039    0.0000 H   0  0  0  0  0  0  0  0  0  0  0  0
    0.6253    1.2918    0.0000 H   0  0  0  0  0  0  0  0  0  0  0  0
    1.5897    0.8284    0.0000 H   0  0  0  0  0  0  0  0  0  0  0  0
    1.5308   -1.1993    0.0000 H   0  0  0  0  0  0  0  0  0  0  0  0
    2.4143   -0.5959    0.0000 H   0  0  0  0  0  0  0  0  0  0  0  0
    0.1103    0.9690    0.0000 H   0  0  0  0  0  0  0  0  0  0  0  0
    1.6205    2.5698    0.0000 H   0  0  0  0  0  0  0  0  0  0  0  0
    2.6417   -1.9039    0.0000 H   0  0  0  0  0  0  0  0  0  0  0  0
    4.1521   -0.3031    0.0000 H   0  0  0  0  0  0  0  0  0  0  0  0
    3.6868    0.3782    0.0000 H   0  0  0  0  0  0  0  0  0  0  0  0
  1  2  1  0  0  0  0
  1 17  1  0  0  0  0
  1 18  1  0  0  0  0
  1 19  1  0  0  0  0
  2  3  1  0  0  0  0
  2 20  1  0  0  0  0
  2 21  1  0  0  0  0
  3  4  1  0  0  0  0
  3 22  1  0  0  0  0
  3 23  1  0  0  0  0
  4  5  1  0  0  0  0
  4 24  1  0  0  0  0
  4 25  1  0  0  0  0
  5  6  1  0  0  0  0
  5 26  1  0  0  0  0
  5 27  1  0  0  0  0
  6  7  1  0  0  0  0
  6 28  1  0  0  0  0
  6 29  1  0  0  0  0
  7 12  1  0  0  0  0
  7  8  1  0  0  0  0
  7 16  1  0  0  0  0
  8  9  2  0  0  0  0
  8 10  1  0  0  0  0
  8 11  1  0  0  0  0
 10 30  1  0  0  0  0
 11 31  1  0  0  0  0
 12 15  2  0  0  0  0
 12 14  1  0  0  0  0
 12 13  1  0  0  0  0
 13 32  1  0  0  0  0
 14 33  1  0  0  0  0
 16 34  1  0  0  0  0
M  END
>  <DRUGBANK_ID>
DB06830

>  <COMMON_NAME>
(1-HYDROXYHEPTANE-1,1-DIYL)BIS(PHOSPHONIC ACID)

$$$$
