817
 OpenBabel10282417072D

 36 38  0  0  0  0  0  0  0  0999 V2000
    4.2364    1.8676    0.0000 O   0  0  0  0  0  0  0  0  0  0  0  0
    2.0930    0.6301    0.0000 O   0  0  0  0  0  0  0  0  0  0  0  0
    2.8075    1.8676    0.0000 O   0  0  0  0  0  0  0  0  0  0  0  0
    4.2364   -0.6075    0.0000 N   0  0  0  0  0  0  0  0  0  0  0  0
    8.5746   -1.4579    0.0000 N   0  0  0  0  0  0  0  0  0  0  0  0
    4.9509   -0.1949    0.0000 C   0  0  0  0  0  0  0  0  0  0  0  0
    4.9509    0.6301    0.0000 C   0  0  0  0  0  0  0  0  0  0  0  0
    4.2364   -1.4325    0.0000 C   0  0  0  0  0  0  0  0  0  0  0  0
    5.6884   -0.6360    0.0000 C   0  0  0  0  0  0  0  0  0  0  0  0
    6.4359   -0.2121    0.0000 C   0  0  0  0  0  0  0  0  0  0  0  0
    3.5220   -0.1949    0.0000 C   0  0  0  0  0  0  0  0  0  0  0  0
    4.2364    1.0426    0.0000 C   0  0  0  0  0  0  0  0  0  0  0  0
    3.5220    0.6301    0.0000 C   0  0  0  0  0  0  0  0  0  0  0  0
    5.6884    1.0712    0.0000 C   0  0  0  0  0  0  0  0  0  0  0  0
    6.4359    0.6473    0.0000 C   0  0  0  0  0  0  0  0  0  0  0  0
    7.1488   -0.6273    0.0000 C   0  0  0  0  0  0  0  0  0  0  0  0
    3.5220   -1.8450    0.0000 C   0  0  0  0  0  0  0  0  0  0  0  0
    2.8075    1.0426    0.0000 C   0  0  0  0  0  0  0  0  0  0  0  0
    7.8649   -0.2176    0.0000 C   0  0  0  0  0  0  0  0  0  0  0  0
    7.1456   -1.4523    0.0000 C   0  0  0  0  0  0  0  0  0  0  0  0
    8.5778   -0.6329    0.0000 C   0  0  0  0  0  0  0  0  0  0  0  0
    7.8585   -1.8676    0.0000 C   0  0  0  0  0  0  0  0  0  0  0  0
    1.2815    1.0986    0.0000 H   0  0  0  0  0  0  0  0  0  0  0  0
    5.1631   -1.9675    0.0000 H   0  0  0  0  0  0  0  0  0  0  0  0
    4.2364   -2.5025    0.0000 H   0  0  0  0  0  0  0  0  0  0  0  0
    5.6765   -1.6679    0.0000 H   0  0  0  0  0  0  0  0  0  0  0  0
    2.6282   -0.7108    0.0000 H   0  0  0  0  0  0  0  0  0  0  0  0
    5.6765    2.1031    0.0000 H   0  0  0  0  0  0  0  0  0  0  0  0
    7.3276    1.1668    0.0000 H   0  0  0  0  0  0  0  0  0  0  0  0
    2.5953   -1.3100    0.0000 H   0  0  0  0  0  0  0  0  0  0  0  0
    3.5220   -2.9150    0.0000 H   0  0  0  0  0  0  0  0  0  0  0  0
    2.5954   -2.3800    0.0000 H   0  0  0  0  0  0  0  0  0  0  0  0
    7.8689    0.8144    0.0000 H   0  0  0  0  0  0  0  0  0  0  0  0
    6.2499   -1.9648    0.0000 H   0  0  0  0  0  0  0  0  0  0  0  0
    9.4735   -0.1204    0.0000 H   0  0  0  0  0  0  0  0  0  0  0  0
    7.8545   -2.8996    0.0000 H   0  0  0  0  0  0  0  0  0  0  0  0
  1 12  2  0  0  0  0
  2 18  1  0  0  0  0
  2 23  1  0  0  0  0
  3 18  2  0  0  0  0
  4  6  1  0  0  0  0
  4  8  1  0  0  0  0
  4 11  1  0  0  0  0
  5 21  2  0  0  0  0
  5 22  1  0  0  0  0
  6  7  2  0  0  0  0
  6  9  1  0  0  0  0
  7 12  1  0  0  0  0
  7 14  1  0  0  0  0
  8 17  1  0  0  0  0
  8 24  1  0  0  0  0
  8 25  1  0  0  0  0
  9 10  2  0  0  0  0
  9 26  1  0  0  0  0
 10 15  1  0  0  0  0
 10 16  1  0  0  0  0
 11 13  2  0  0  0  0
 11 27  1  0  0  0  0
 12 13  1  0  0  0  0
 13 18  1  0  0  0  0
 14 15  2  0  0  0  0
 14 28  1  0  0  0  0
 15 29  1  0  0  0  0
 16 19  2  0  0  0  0
 16 20  1  0  0  0  0
 17 30  1  0  0  0  0
 17 31  1  0  0  0  0
 17 32  1  0  0  0  0
 19 21  1  0  0  0  0
 19 33  1  0  0  0  0
 20 22  2  0  0  0  0
 20 34  1  0  0  0  0
 21 35  1  0  0  0  0
 22 36  1  0  0  0  0
M  END
>  <DRUGBANK_ID>
DB00817

>  <SECONDARY_ACCESSION_NUMBERS>
APRD00369

>  <COMMON_NAME>
Rosoxacin

>  <CAS_NUMBER>
40034-42-2

>  <UNII>
3Y1OT3J4NW

>  <SYNONYMS>
1-ethyl-1,4-dihydro-4-oxo-7-(4-pyridyl)-3-quinolinecarboxylic acid; Acrosoxacin; Rosoxacin; Rosoxacina; Rosoxacine; Rosoxacino; Rosoxacinum

$$$$
