DSY
 OpenBabel10282417072D

 30 31  0  0  0  0  0  0  0  0999 V2000
   -0.5608   -1.2849    0.0000 C   0  0  0  0  0  0  0  0  0  0  0  0
   -1.2752   -0.8724    0.0000 C   0  0  0  0  0  0  0  0  0  0  0  0
   -1.2752   -0.0474    0.0000 C   0  0  0  0  0  0  0  0  0  0  0  0
   -0.5608    0.3651    0.0000 C   0  0  0  0  0  0  0  0  0  0  0  0
    0.1537   -0.0474    0.0000 C   0  0  0  0  0  0  0  0  0  0  0  0
    0.8682    0.3651    0.0000 C   0  0  0  0  0  0  0  0  0  0  0  0
    1.5826   -0.0474    0.0000 C   0  0  0  0  0  0  0  0  0  0  0  0
    1.5826   -0.8724    0.0000 C   0  0  0  0  0  0  0  0  0  0  0  0
    0.8682   -1.2849    0.0000 C   0  0  0  0  0  0  0  0  0  0  0  0
    0.1537   -0.8724    0.0000 C   0  0  0  0  0  0  0  0  0  0  0  0
    0.8682    1.1901    0.0000 N   0  0  0  0  0  0  0  0  0  0  0  0
    1.5826    1.6026    0.0000 C   0  0  0  0  0  0  0  0  0  0  0  0
    0.1537    1.6026    0.0000 C   0  0  0  0  0  0  0  0  0  0  0  0
   -1.9897   -1.2849    0.0000 S   0  0  0  0  0  0  0  0  0  0  0  0
   -2.7042   -1.6974    0.0000 O   0  0  0  0  0  0  0  0  0  0  0  0
   -2.4022   -0.5704    0.0000 O   0  0  0  0  0  0  0  0  0  0  0  0
   -1.5772   -1.9993    0.0000 O   0  0  0  0  0  0  0  0  0  0  0  0
   -0.5608   -2.3169    0.0000 H   0  0  0  0  0  0  0  0  0  0  0  0
   -2.1689    0.4686    0.0000 H   0  0  0  0  0  0  0  0  0  0  0  0
   -0.5608    1.3971    0.0000 H   0  0  0  0  0  0  0  0  0  0  0  0
    2.4763    0.4686    0.0000 H   0  0  0  0  0  0  0  0  0  0  0  0
    2.4763   -1.3884    0.0000 H   0  0  0  0  0  0  0  0  0  0  0  0
    0.8682   -2.3169    0.0000 H   0  0  0  0  0  0  0  0  0  0  0  0
    2.5093    1.0676    0.0000 H   0  0  0  0  0  0  0  0  0  0  0  0
    1.5826    2.6726    0.0000 H   0  0  0  0  0  0  0  0  0  0  0  0
    2.5092    2.1376    0.0000 H   0  0  0  0  0  0  0  0  0  0  0  0
    0.1537    2.6726    0.0000 H   0  0  0  0  0  0  0  0  0  0  0  0
   -0.7729    1.0676    0.0000 H   0  0  0  0  0  0  0  0  0  0  0  0
   -0.7730    2.1376    0.0000 H   0  0  0  0  0  0  0  0  0  0  0  0
   -1.9172    0.2696    0.0000 H   0  0  0  0  0  0  0  0  0  0  0  0
  1  2  2  0  0  0  0
  1 10  1  0  0  0  0
  1 18  1  0  0  0  0
  2  3  1  0  0  0  0
  2 14  1  0  0  0  0
  3  4  2  0  0  0  0
  3 19  1  0  0  0  0
  4  5  1  0  0  0  0
  4 20  1  0  0  0  0
  5  6  2  0  0  0  0
  5 10  1  0  0  0  0
  6  7  1  0  0  0  0
  6 11  1  0  0  0  0
  7  8  2  0  0  0  0
  7 21  1  0  0  0  0
  8  9  1  0  0  0  0
  8 22  1  0  0  0  0
  9 10  2  0  0  0  0
  9 23  1  0  0  0  0
 11 12  1  0  0  0  0
 11 13  1  0  0  0  0
 12 24  1  0  0  0  0
 12 25  1  0  0  0  0
 12 26  1  0  0  0  0
 13 27  1  0  0  0  0
 13 28  1  0  0  0  0
 13 29  1  0  0  0  0
 14 15  2  0  0  0  0
 14 16  1  0  0  0  0
 14 17  2  0  0  0  0
 16 30  1  0  0  0  0
M  END
>  <DRUGBANK_ID>
DB07684

>  <COMMON_NAME>
5-(DIMETHYLAMINO)-2-NAPHTHALENESULFONIC ACID

$$$$
