
 OpenBabel10282417072D

 11 10  0  0  0  0  0  0  0  0999 V2000
    1.2375    2.1434    0.0000 N   0  0  0  0  0  0  0  0  0  0  0  0
    0.8250    1.4289    0.0000 O   0  0  0  0  0  0  0  0  0  0  0  0
    1.2375    0.7145    0.0000 C   0  0  0  0  0  0  0  0  0  0  0  0
    0.8250    0.0000    0.0000 C   0  0  0  0  0  0  0  0  0  0  0  0
    1.2375   -0.7145    0.0000 O   0  0  0  0  0  0  0  0  0  0  0  0
    0.0000    0.0000    0.0000 O   0  0  0  0  0  0  0  0  0  0  0  0
    2.2575    2.1434    0.0000 H   0  0  0  0  0  0  0  0  0  0  0  0
    0.7275    3.0267    0.0000 H   0  0  0  0  0  0  0  0  0  0  0  0
    2.3075    0.7145    0.0000 H   0  0  0  0  0  0  0  0  0  0  0  0
    1.7725   -0.2121    0.0000 H   0  0  0  0  0  0  0  0  0  0  0  0
    0.7690   -1.5260    0.0000 H   0  0  0  0  0  0  0  0  0  0  0  0
  1  2  1  0  0  0  0
  1  7  1  0  0  0  0
  1  8  1  0  0  0  0
  2  3  1  0  0  0  0
  3  4  1  0  0  0  0
  3  9  1  0  0  0  0
  3 10  1  0  0  0  0
  4  5  1  0  0  0  0
  4  6  2  0  0  0  0
  5 11  1  0  0  0  0
M  END
>  <DRUGBANK_ID>
DB02079

>  <SECONDARY_ACCESSION_NUMBERS>
EXPT00528

>  <COMMON_NAME>
Aminooxyacetic acid

>  <CAS_NUMBER>
645-88-5

>  <UNII>
14I68GI3OQ

>  <SYNONYMS>
(aminooxy)acetic acid; aminoxyacetic acid; AOAA; carboxymethoxyamine; Carboxymethoxylamine

$$$$
