
 OpenBabel10282417072D

 23 24  0  0  0  0  0  0  0  0999 V2000
   -1.9137   -1.2041    0.0000 C   0  0  0  0  0  0  0  0  0  0  0  0
   -1.9137   -0.3791    0.0000 C   0  0  0  0  0  0  0  0  0  0  0  0
   -1.1993   -1.6166    0.0000 C   0  0  0  0  0  0  0  0  0  0  0  0
   -0.4848   -1.2041    0.0000 C   0  0  0  0  0  0  0  0  0  0  0  0
   -1.1993    0.0333    0.0000 C   0  0  0  0  0  0  0  0  0  0  0  0
   -0.4848   -0.3791    0.0000 C   0  0  0  0  0  0  0  0  0  0  0  0
    0.2998   -1.4591    0.0000 N   0  0  0  0  0  0  0  0  0  0  0  0
    0.2998   -0.1241    0.0000 C   0  0  0  0  0  0  0  0  0  0  0  0
    0.7847   -0.7916    0.0000 C   0  0  0  0  0  0  0  0  0  0  0  0
    0.5548    0.6604    0.0000 C   0  0  0  0  0  0  0  0  0  0  0  0
    1.3617    0.8320    0.0000 C   0  0  0  0  0  0  0  0  0  0  0  0
    1.6167    1.6166    0.0000 O   0  0  0  0  0  0  0  0  0  0  0  0
    1.9137    0.2188    0.0000 N   0  0  0  0  0  0  0  0  0  0  0  0
   -2.8074   -1.7201    0.0000 H   0  0  0  0  0  0  0  0  0  0  0  0
   -2.8074    0.1369    0.0000 H   0  0  0  0  0  0  0  0  0  0  0  0
   -1.1993   -2.6486    0.0000 H   0  0  0  0  0  0  0  0  0  0  0  0
   -1.1993    1.0653    0.0000 H   0  0  0  0  0  0  0  0  0  0  0  0
    0.6040   -2.3954    0.0000 H   0  0  0  0  0  0  0  0  0  0  0  0
    1.8167   -0.7916    0.0000 H   0  0  0  0  0  0  0  0  0  0  0  0
   -0.1612    1.4556    0.0000 H   0  0  0  0  0  0  0  0  0  0  0  0
    0.8854    1.6780    0.0000 H   0  0  0  0  0  0  0  0  0  0  0  0
    1.6094   -0.7175    0.0000 H   0  0  0  0  0  0  0  0  0  0  0  0
    2.8767    0.4234    0.0000 H   0  0  0  0  0  0  0  0  0  0  0  0
  1 14  1  0  0  0  0
  2  1  2  0  0  0  0
  2 15  1  0  0  0  0
  3  1  1  0  0  0  0
  3 16  1  0  0  0  0
  4  3  2  0  0  0  0
  5  2  1  0  0  0  0
  5 17  1  0  0  0  0
  6  4  1  0  0  0  0
  6  5  2  0  0  0  0
  7  4  1  0  0  0  0
  7 18  1  0  0  0  0
  8  6  1  0  0  0  0
  9  7  1  0  0  0  0
  9  8  2  0  0  0  0
  9 19  1  0  0  0  0
 10  8  1  0  0  0  0
 10 20  1  0  0  0  0
 10 21  1  0  0  0  0
 11 10  1  0  0  0  0
 12 11  2  0  0  0  0
 13 11  1  0  0  0  0
 13 22  1  0  0  0  0
 13 23  1  0  0  0  0
M  END
>  <DRUGBANK_ID>
DB08652

>  <COMMON_NAME>
Indoleacetamide

>  <CAS_NUMBER>
879-37-8

>  <UNII>
O9SEW65XW3

>  <SYNONYMS>
1H-indole-3-acetamide; 3-indoleacetamide; Indole-3-acetamide

$$$$
