
 OpenBabel10282417072D

 27 27  0  0  0  0  0  0  0  0999 V2000
    1.4289   -0.8250    0.0000 N   0  0  0  0  0  0  0  0  0  0  0  0
    1.4289    0.0000    0.0000 C   0  0  1  0  0  0  0  0  0  0  0  0
    0.7144    0.4125    0.0000 C   0  0  0  0  0  0  0  0  0  0  0  0
    0.0000    0.0000    0.0000 S   0  0  0  0  0  0  0  0  0  0  0  0
    2.1434    0.4125    0.0000 C   0  0  0  0  0  0  0  0  0  0  0  0
    2.8578    0.0000    0.0000 O   0  0  0  0  0  0  0  0  0  0  0  0
    2.1434    1.2374    0.0000 O   0  0  0  0  0  0  0  0  0  0  0  0
   -0.7144    0.4125    0.0000 C   0  0  0  0  0  0  0  0  0  0  0  0
   -1.4289    0.0000    0.0000 C   0  0  0  0  0  0  0  0  0  0  0  0
   -2.1434    0.4125    0.0000 C   0  0  0  0  0  0  0  0  0  0  0  0
   -2.8578    0.0000    0.0000 C   0  0  0  0  0  0  0  0  0  0  0  0
   -2.8578   -0.8250    0.0000 C   0  0  0  0  0  0  0  0  0  0  0  0
   -2.1434   -1.2375    0.0000 C   0  0  0  0  0  0  0  0  0  0  0  0
   -1.4289   -0.8250    0.0000 C   0  0  0  0  0  0  0  0  0  0  0  0
    0.5456   -1.3350    0.0000 H   0  0  0  0  0  0  0  0  0  0  0  0
    2.3122   -1.3350    0.0000 H   0  0  0  0  0  0  0  0  0  0  0  0
    0.5023   -0.5350    0.0000 H   0  0  0  0  0  0  0  0  0  0  0  0
    0.7144    1.4825    0.0000 H   0  0  0  0  0  0  0  0  0  0  0  0
   -0.2123    0.9475    0.0000 H   0  0  0  0  0  0  0  0  0  0  0  0
    2.8578   -0.9370    0.0000 H   0  0  0  0  0  0  0  0  0  0  0  0
   -0.7144    1.4825    0.0000 H   0  0  0  0  0  0  0  0  0  0  0  0
    0.2123    0.9475    0.0000 H   0  0  0  0  0  0  0  0  0  0  0  0
   -2.1434    1.4445    0.0000 H   0  0  0  0  0  0  0  0  0  0  0  0
   -3.7515    0.5160    0.0000 H   0  0  0  0  0  0  0  0  0  0  0  0
   -3.7515   -1.3410    0.0000 H   0  0  0  0  0  0  0  0  0  0  0  0
   -2.1434   -2.2695    0.0000 H   0  0  0  0  0  0  0  0  0  0  0  0
   -0.5352   -1.3410    0.0000 H   0  0  0  0  0  0  0  0  0  0  0  0
  1 15  1  0  0  0  0
  1 16  1  0  0  0  0
  2  1  1  0  0  0  0
  2  3  1  0  0  0  0
  2  5  1  0  0  0  0
  2 17  1  6  0  0  0
  3  4  1  0  0  0  0
  3 18  1  0  0  0  0
  3 19  1  0  0  0  0
  4  8  1  0  0  0  0
  5  6  1  0  0  0  0
  5  7  2  0  0  0  0
  6 20  1  0  0  0  0
  8  9  1  0  0  0  0
  8 21  1  0  0  0  0
  8 22  1  0  0  0  0
  9 10  2  0  0  0  0
  9 14  1  0  0  0  0
 10 11  1  0  0  0  0
 10 23  1  0  0  0  0
 11 12  2  0  0  0  0
 11 24  1  0  0  0  0
 12 13  1  0  0  0  0
 12 25  1  0  0  0  0
 13 14  2  0  0  0  0
 13 26  1  0  0  0  0
 14 27  1  0  0  0  0
M  END
>  <DRUGBANK_ID>
DB04531

>  <SECONDARY_ACCESSION_NUMBERS>
EXPT00643

>  <COMMON_NAME>
S-Benzylcysteine

>  <CAS_NUMBER>
3054-01-1

>  <UNII>
9VRE13M548

>  <SYNONYMS>
(R)-S-Benzylcysteine; 3-Benzylthioalanine; L-S-Benzylcysteine

$$$$
