
 OpenBabel10282417072D

127127  0  0  1  0  0  0  0  0999 V2000
   -5.1371    7.3466    0.0000 Ga  0  1  0  0  0  0  0  0  0  0  0  0
   -5.1371    4.0466    0.0000 O   0  0  0  0  0  0  0  0  0  0  0  0
   -0.1357    8.5841    0.0000 O   0  0  0  0  0  0  0  0  0  0  0  0
   -0.1357   -3.7909    0.0000 O   0  0  0  0  0  0  0  0  0  0  0  0
    2.0076   -8.3284    0.0000 O   0  0  0  0  0  0  0  0  0  0  0  0
   -0.8502    1.5716    0.0000 O   0  0  0  0  0  0  0  0  0  0  0  0
   -0.8502    4.8717    0.0000 O   0  5  0  0  0  0  0  0  0  0  0  0
   -1.5646    6.1092    0.0000 O   0  0  0  0  0  0  0  0  0  0  0  0
    1.2932   -7.0909    0.0000 O   0  0  0  0  0  0  0  0  0  0  0  0
   -4.4225    7.7592    0.0000 O   0  5  0  0  0  0  0  0  0  0  0  0
   -3.7081    6.5217    0.0000 O   0  0  0  0  0  0  0  0  0  0  0  0
    2.7221   -8.7410    0.0000 O   0  0  0  0  0  0  0  0  0  0  0  0
    4.8656  -10.8034    0.0000 O   0  0  0  0  0  0  0  0  0  0  0  0
    5.5800   -9.5659    0.0000 O   0  0  0  0  0  0  0  0  0  0  0  0
   -3.7081   12.2967    0.0000 O   0  5  0  0  0  0  0  0  0  0  0  0
   -4.4225   11.0592    0.0000 O   0  0  0  0  0  0  0  0  0  0  0  0
    2.7221  -12.0409    0.0000 O   0  0  0  0  0  0  0  0  0  0  0  0
    2.0076  -10.8034    0.0000 O   0  0  0  0  0  0  0  0  0  0  0  0
   -2.9936    5.2841    0.0000 N   0  0  0  0  0  0  0  0  0  0  0  0
   -2.2792    7.3466    0.0000 N   0  0  0  0  0  0  0  0  0  0  0  0
    1.2932   -3.7909    0.0000 N   0  0  0  0  0  0  0  0  0  0  0  0
    3.4366   -7.5034    0.0000 N   0  0  0  0  0  0  0  0  0  0  0  0
   -1.5646    0.3341    0.0000 N   0  0  0  0  0  0  0  0  0  0  0  0
    4.1511   -8.7410    0.0000 N   0  0  0  0  0  0  0  0  0  0  0  0
   -2.9936    6.1092    0.0000 C   0  0  0  0  0  0  0  0  0  0  0  0
   -2.2792    6.5217    0.0000 C   0  0  0  0  0  0  0  0  0  0  0  0
   -3.7081    4.8717    0.0000 C   0  0  0  0  0  0  0  0  0  0  0  0
   -1.5646    7.7592    0.0000 C   0  0  0  0  0  0  0  0  0  0  0  0
    2.0076   -5.8533    0.0000 C   0  0  0  0  0  0  0  0  0  0  0  0
   -3.7081    4.0466    0.0000 C   0  0  0  0  0  0  0  0  0  0  0  0
    2.7221   -6.2659    0.0000 C   0  0  0  0  0  0  0  0  0  0  0  0
    2.0076   -5.0284    0.0000 C   0  0  0  0  0  0  0  0  0  0  0  0
   -2.2792    4.8717    0.0000 C   0  0  0  0  0  0  0  0  0  0  0  0
   -2.9936    7.7592    0.0000 C   0  0  0  0  0  0  0  0  0  0  0  0
    2.7221   -7.0909    0.0000 C   0  0  1  0  0  0  0  0  0  0  0  0
   -1.5646    8.5841    0.0000 C   0  0  0  0  0  0  0  0  0  0  0  0
   -0.1357   -1.3158    0.0000 C   0  0  0  0  0  0  0  0  0  0  0  0
    1.2932   -4.6158    0.0000 C   0  0  0  0  0  0  0  0  0  0  0  0
   -0.1357   -2.1409    0.0000 C   0  0  0  0  0  0  0  0  0  0  0  0
   -2.9936    2.8091    0.0000 C   0  0  0  0  0  0  0  0  0  0  0  0
   -0.8502   -0.9034    0.0000 C   0  0  0  0  0  0  0  0  0  0  0  0
   -2.9936    3.6341    0.0000 C   0  0  0  0  0  0  0  0  0  0  0  0
   -2.2792    2.3966    0.0000 C   0  0  0  0  0  0  0  0  0  0  0  0
    0.5786   -2.5534    0.0000 C   0  0  0  0  0  0  0  0  0  0  0  0
   -4.4225    3.6341    0.0000 C   0  0  0  0  0  0  0  0  0  0  0  0
   -0.8502   -0.0783    0.0000 C   0  0  0  0  0  0  0  0  0  0  0  0
   -2.2792    1.5716    0.0000 C   0  0  0  0  0  0  0  0  0  0  0  0
   -2.2792    8.9967    0.0000 C   0  0  0  0  0  0  0  0  0  0  0  0
   -0.8502    8.9967    0.0000 C   0  0  0  0  0  0  0  0  0  0  0  0
   -2.2792    9.8216    0.0000 C   0  0  0  0  0  0  0  0  0  0  0  0
   -3.7081    2.3966    0.0000 C   0  0  0  0  0  0  0  0  0  0  0  0
    0.5786   -3.3784    0.0000 C   0  0  0  0  0  0  0  0  0  0  0  0
   -4.4225    2.8091    0.0000 C   0  0  0  0  0  0  0  0  0  0  0  0
   -1.5646    1.1591    0.0000 C   0  0  0  0  0  0  0  0  0  0  0  0
   -1.5646    5.2841    0.0000 C   0  0  0  0  0  0  0  0  0  0  0  0
   -2.9936   10.2342    0.0000 C   0  0  0  0  0  0  0  0  0  0  0  0
    2.0076   -7.5034    0.0000 C   0  0  0  0  0  0  0  0  0  0  0  0
   -3.7081    7.3466    0.0000 C   0  0  0  0  0  0  0  0  0  0  0  0
   -0.8502    9.8216    0.0000 C   0  0  0  0  0  0  0  0  0  0  0  0
   -1.5646   10.2342    0.0000 C   0  0  0  0  0  0  0  0  0  0  0  0
    3.4366   -8.3284    0.0000 C   0  0  0  0  0  0  0  0  0  0  0  0
    4.1511   -9.5659    0.0000 C   0  0  1  0  0  0  0  0  0  0  0  0
   -2.9936   11.0592    0.0000 C   0  0  0  0  0  0  0  0  0  0  0  0
    3.4366   -9.9784    0.0000 C   0  0  0  0  0  0  0  0  0  0  0  0
    3.4366  -10.8034    0.0000 C   0  0  0  0  0  0  0  0  0  0  0  0
    4.8656   -9.9784    0.0000 C   0  0  0  0  0  0  0  0  0  0  0  0
   -3.7081   11.4717    0.0000 C   0  0  0  0  0  0  0  0  0  0  0  0
    2.7221  -11.2159    0.0000 C   0  0  0  0  0  0  0  0  0  0  0  0
   -5.1372    4.9836    0.0000 H   0  0  0  0  0  0  0  0  0  0  0  0
   -0.1358    7.6471    0.0000 H   0  0  0  0  0  0  0  0  0  0  0  0
    1.1961   -8.7969    0.0000 H   0  0  0  0  0  0  0  0  0  0  0  0
    4.0541  -11.2719    0.0000 H   0  0  0  0  0  0  0  0  0  0  0  0
    1.9106  -12.5094    0.0000 H   0  0  0  0  0  0  0  0  0  0  0  0
    2.1458   -3.2986    0.0000 H   0  0  0  0  0  0  0  0  0  0  0  0
    4.2892   -7.0111    0.0000 H   0  0  0  0  0  0  0  0  0  0  0  0
   -2.4172   -0.1582    0.0000 H   0  0  0  0  0  0  0  0  0  0  0  0
    5.0037   -8.2488    0.0000 H   0  0  0  0  0  0  0  0  0  0  0  0
   -3.9203    6.6442    0.0000 H   0  0  0  0  0  0  0  0  0  0  0  0
   -2.9936    7.1792    0.0000 H   0  0  0  0  0  0  0  0  0  0  0  0
   -1.3525    5.9867    0.0000 H   0  0  0  0  0  0  0  0  0  0  0  0
   -2.2792    5.4517    0.0000 H   0  0  0  0  0  0  0  0  0  0  0  0
   -4.6347    5.4068    0.0000 H   0  0  0  0  0  0  0  0  0  0  0  0
   -4.6348    4.3367    0.0000 H   0  0  0  0  0  0  0  0  0  0  0  0
   -0.6379    7.2242    0.0000 H   0  0  0  0  0  0  0  0  0  0  0  0
   -0.6380    8.2942    0.0000 H   0  0  0  0  0  0  0  0  0  0  0  0
    1.0809   -6.3883    0.0000 H   0  0  0  0  0  0  0  0  0  0  0  0
    1.0810   -5.3183    0.0000 H   0  0  0  0  0  0  0  0  0  0  0  0
    3.6488   -5.7309    0.0000 H   0  0  0  0  0  0  0  0  0  0  0  0
    3.6487   -6.8009    0.0000 H   0  0  0  0  0  0  0  0  0  0  0  0
    2.9343   -4.4935    0.0000 H   0  0  0  0  0  0  0  0  0  0  0  0
    2.0077   -3.9584    0.0000 H   0  0  0  0  0  0  0  0  0  0  0  0
   -2.2793    3.8017    0.0000 H   0  0  0  0  0  0  0  0  0  0  0  0
   -1.3526    4.3366    0.0000 H   0  0  0  0  0  0  0  0  0  0  0  0
   -2.9936    8.8292    0.0000 H   0  0  0  0  0  0  0  0  0  0  0  0
   -3.9203    8.2942    0.0000 H   0  0  0  0  0  0  0  0  0  0  0  0
    3.6487   -6.5559    0.0000 H   0  0  0  0  0  0  0  0  0  0  0  0
    0.7909   -0.7807    0.0000 H   0  0  0  0  0  0  0  0  0  0  0  0
   -0.1358   -0.2458    0.0000 H   0  0  0  0  0  0  0  0  0  0  0  0
    0.3665   -5.1507    0.0000 H   0  0  0  0  0  0  0  0  0  0  0  0
    1.2931   -5.6858    0.0000 H   0  0  0  0  0  0  0  0  0  0  0  0
   -1.0624   -2.6759    0.0000 H   0  0  0  0  0  0  0  0  0  0  0  0
   -0.1358   -3.2109    0.0000 H   0  0  0  0  0  0  0  0  0  0  0  0
   -1.7768   -1.4385    0.0000 H   0  0  0  0  0  0  0  0  0  0  0  0
   -1.7769   -0.3684    0.0000 H   0  0  0  0  0  0  0  0  0  0  0  0
   -2.0999    4.1501    0.0000 H   0  0  0  0  0  0  0  0  0  0  0  0
   -1.3525    2.9316    0.0000 H   0  0  0  0  0  0  0  0  0  0  0  0
   -1.3526    1.8616    0.0000 H   0  0  0  0  0  0  0  0  0  0  0  0
    1.5053   -2.0184    0.0000 H   0  0  0  0  0  0  0  0  0  0  0  0
    1.5052   -3.0884    0.0000 H   0  0  0  0  0  0  0  0  0  0  0  0
    0.0764    0.4567    0.0000 H   0  0  0  0  0  0  0  0  0  0  0  0
    0.0765   -0.6133    0.0000 H   0  0  0  0  0  0  0  0  0  0  0  0
   -3.2058    1.0366    0.0000 H   0  0  0  0  0  0  0  0  0  0  0  0
   -2.2791    0.5016    0.0000 H   0  0  0  0  0  0  0  0  0  0  0  0
   -3.1729    8.4807    0.0000 H   0  0  0  0  0  0  0  0  0  0  0  0
   -3.7081    1.3646    0.0000 H   0  0  0  0  0  0  0  0  0  0  0  0
   -5.3162    2.2931    0.0000 H   0  0  0  0  0  0  0  0  0  0  0  0
   -3.9203    9.6993    0.0000 H   0  0  0  0  0  0  0  0  0  0  0  0
   -3.9202   10.7692    0.0000 H   0  0  0  0  0  0  0  0  0  0  0  0
    0.0436   10.3375    0.0000 H   0  0  0  0  0  0  0  0  0  0  0  0
   -1.5645   11.2662    0.0000 H   0  0  0  0  0  0  0  0  0  0  0  0
    3.2245   -9.0309    0.0000 H   0  0  0  0  0  0  0  0  0  0  0  0
   -2.0670   11.5942    0.0000 H   0  0  0  0  0  0  0  0  0  0  0  0
   -2.9936   12.1292    0.0000 H   0  0  0  0  0  0  0  0  0  0  0  0
    2.5100   -9.4434    0.0000 H   0  0  0  0  0  0  0  0  0  0  0  0
    2.5100  -10.5134    0.0000 H   0  0  0  0  0  0  0  0  0  0  0  0
    4.3632  -11.3384    0.0000 H   0  0  0  0  0  0  0  0  0  0  0  0
    3.4366  -11.8734    0.0000 H   0  0  0  0  0  0  0  0  0  0  0  0
  2 45  1  0  0  0  0
  2 69  1  0  0  0  0
  3 49  1  0  0  0  0
  3 70  1  0  0  0  0
  4 52  2  0  0  0  0
  5 57  1  0  0  0  0
  5 71  1  0  0  0  0
  6 54  2  0  0  0  0
  7 55  1  0  0  0  0
  8 55  2  0  0  0  0
  9 57  2  0  0  0  0
 10 58  1  0  0  0  0
 11 58  2  0  0  0  0
 12 61  2  0  0  0  0
 13 66  1  0  0  0  0
 13 72  1  0  0  0  0
 14 66  2  0  0  0  0
 15 67  1  0  0  0  0
 16 67  2  0  0  0  0
 17 68  1  0  0  0  0
 17 73  1  0  0  0  0
 18 68  2  0  0  0  0
 19 25  1  0  0  0  0
 19 27  1  0  0  0  0
 19 33  1  0  0  0  0
 20 26  1  0  0  0  0
 20 28  1  0  0  0  0
 20 34  1  0  0  0  0
 21 38  1  0  0  0  0
 21 52  1  0  0  0  0
 21 74  1  0  0  0  0
 22 61  1  0  0  0  0
 22 75  1  0  0  0  0
 23 46  1  0  0  0  0
 23 54  1  0  0  0  0
 23 76  1  0  0  0  0
 24 61  1  0  0  0  0
 24 77  1  0  0  0  0
 25 26  1  0  0  0  0
 25 78  1  0  0  0  0
 25 79  1  0  0  0  0
 26 80  1  0  0  0  0
 26 81  1  0  0  0  0
 27 30  1  0  0  0  0
 27 82  1  0  0  0  0
 27 83  1  0  0  0  0
 28 36  1  0  0  0  0
 28 84  1  0  0  0  0
 28 85  1  0  0  0  0
 29 31  1  0  0  0  0
 29 32  1  0  0  0  0
 29 86  1  0  0  0  0
 29 87  1  0  0  0  0
 30 42  1  0  0  0  0
 30 45  2  0  0  0  0
 31 35  1  0  0  0  0
 31 88  1  0  0  0  0
 31 89  1  0  0  0  0
 32 38  1  0  0  0  0
 32 90  1  0  0  0  0
 32 91  1  0  0  0  0
 33 55  1  0  0  0  0
 33 92  1  0  0  0  0
 33 93  1  0  0  0  0
 34 58  1  0  0  0  0
 34 94  1  0  0  0  0
 34 95  1  0  0  0  0
 35 22  1  0  0  0  0
 35 57  1  0  0  0  0
 35 96  1  1  0  0  0
 36 48  1  0  0  0  0
 36 49  2  0  0  0  0
 37 39  1  0  0  0  0
 37 41  1  0  0  0  0
 37 97  1  0  0  0  0
 37 98  1  0  0  0  0
 38 99  1  0  0  0  0
 38100  1  0  0  0  0
 39 44  1  0  0  0  0
 39101  1  0  0  0  0
 39102  1  0  0  0  0
 40 42  2  0  0  0  0
 40 43  1  0  0  0  0
 40 51  1  0  0  0  0
 41 46  1  0  0  0  0
 41103  1  0  0  0  0
 41104  1  0  0  0  0
 42105  1  0  0  0  0
 43 47  1  0  0  0  0
 43106  1  0  0  0  0
 43107  1  0  0  0  0
 44 52  1  0  0  0  0
 44108  1  0  0  0  0
 44109  1  0  0  0  0
 45 53  1  0  0  0  0
 46110  1  0  0  0  0
 46111  1  0  0  0  0
 47 54  1  0  0  0  0
 47112  1  0  0  0  0
 47113  1  0  0  0  0
 48 50  2  0  0  0  0
 48114  1  0  0  0  0
 49 59  1  0  0  0  0
 50 56  1  0  0  0  0
 50 60  1  0  0  0  0
 51 53  2  0  0  0  0
 51115  1  0  0  0  0
 53116  1  0  0  0  0
 56 63  1  0  0  0  0
 56117  1  0  0  0  0
 56118  1  0  0  0  0
 59 60  2  0  0  0  0
 59119  1  0  0  0  0
 60120  1  0  0  0  0
 62 24  1  0  0  0  0
 62 64  1  0  0  0  0
 62 66  1  0  0  0  0
 62121  1  1  0  0  0
 63 67  1  0  0  0  0
 63122  1  0  0  0  0
 63123  1  0  0  0  0
 64 65  1  0  0  0  0
 64124  1  0  0  0  0
 64125  1  0  0  0  0
 65 68  1  0  0  0  0
 65126  1  0  0  0  0
 65127  1  0  0  0  0
M  ISO  1   1  68
M  CHG  4   1   3   7  -1  10  -1  15  -1
M  END
>  <DRUGBANK_ID>
DB16019

>  <COMMON_NAME>
Gallium Ga-68 gozetotide

>  <CAS_NUMBER>
1906894-20-9

>  <UNII>
ZJ0EKR6M10

>  <SYNONYMS>
(68)Ga Labeled Glu-NH-CO-NH-Lys(ahx)-hbed-CC; (68Ga)Hbed-psma; (68Ga)Psma-hbed-CC; 68Ga-Psma-11; 68Ga-Psma-hbed-CC; DKFZ-PSMA-11 Ga-68; Ga-68 PSMA-11; Ga-68-Labeled PSMA-11; Ga-Psma-hbed-CC Ga-68; Gallium (68Ga) gozetotide; Gallium Ga 68 PSMA-11; Gallium Ga 68-labeled psma ligand Glu-urea-Lys(ahx)-hbed-CC; PSMA-11 Ga 68; PSMA-11 Ga-68; Psma-hbed-CC Ga-68

$$$$
