
 OpenBabel10282417072D

 48 50  0  0  0  0  0  0  0  0999 V2000
   17.3663   -9.8587    0.0000 C   0  0  0  0  0  0  0  0  0  0  0  0
   17.3663  -10.6837    0.0000 C   0  0  0  0  0  0  0  0  0  0  0  0
   16.6238  -11.0962    0.0000 C   0  0  0  0  0  0  0  0  0  0  0  0
   15.9225  -10.6837    0.0000 C   0  0  0  0  0  0  0  0  0  0  0  0
   15.9225   -9.8587    0.0000 C   0  0  0  0  0  0  0  0  0  0  0  0
   16.6238   -9.4462    0.0000 C   0  0  0  0  0  0  0  0  0  0  0  0
   18.0675   -9.4462    0.0000 Cl  0  0  0  0  0  0  0  0  0  0  0  0
   15.1800  -11.0962    0.0000 N   0  0  0  0  0  0  0  0  0  0  0  0
   14.4788  -10.6837    0.0000 C   0  0  0  0  0  0  0  0  0  0  0  0
   13.7775  -11.0962    0.0000 N   0  0  0  0  0  0  0  0  0  0  0  0
   14.4788   -9.8587    0.0000 O   0  0  0  0  0  0  0  0  0  0  0  0
   13.0763  -10.6837    0.0000 C   0  0  0  0  0  0  0  0  0  0  0  0
   12.3750  -11.0962    0.0000 C   0  0  0  0  0  0  0  0  0  0  0  0
   11.6325  -10.6837    0.0000 C   0  0  0  0  0  0  0  0  0  0  0  0
   11.6325   -9.8587    0.0000 C   0  0  0  0  0  0  0  0  0  0  0  0
   12.3338   -9.4462    0.0000 C   0  0  0  0  0  0  0  0  0  0  0  0
   13.0763   -9.8587    0.0000 C   0  0  0  0  0  0  0  0  0  0  0  0
   10.9725   -9.4462    0.0000 O   0  0  0  0  0  0  0  0  0  0  0  0
   10.2713   -9.8587    0.0000 C   0  0  0  0  0  0  0  0  0  0  0  0
   10.2713  -10.6837    0.0000 C   0  0  0  0  0  0  0  0  0  0  0  0
    9.5288  -11.0962    0.0000 C   0  0  0  0  0  0  0  0  0  0  0  0
    8.8275  -10.6837    0.0000 N   0  0  0  0  0  0  0  0  0  0  0  0
    8.8275   -9.8175    0.0000 C   0  0  0  0  0  0  0  0  0  0  0  0
    9.5288   -9.4050    0.0000 C   0  0  0  0  0  0  0  0  0  0  0  0
    8.1263   -9.4462    0.0000 C   0  0  0  0  0  0  0  0  0  0  0  0
    7.3838   -9.8587    0.0000 N   0  0  0  0  0  0  0  0  0  0  0  0
    8.1263   -8.6212    0.0000 O   0  0  0  0  0  0  0  0  0  0  0  0
    6.6825   -9.4462    0.0000 C   0  0  0  0  0  0  0  0  0  0  0  0
   12.3750  -11.9212    0.0000 F   0  0  0  0  0  0  0  0  0  0  0  0
   16.6238   -8.6212    0.0000 C   0  0  0  0  0  0  0  0  0  0  0  0
   16.6238   -7.7962    0.0000 F   0  0  0  0  0  0  0  0  0  0  0  0
   15.7988   -8.6212    0.0000 F   0  0  0  0  0  0  0  0  0  0  0  0
   17.4488   -8.6212    0.0000 F   0  0  0  0  0  0  0  0  0  0  0  0
   18.2558  -11.2071    0.0000 H   0  0  0  0  0  0  0  0  0  0  0  0
   16.6111  -12.1281    0.0000 H   0  0  0  0  0  0  0  0  0  0  0  0
   15.0267   -9.3463    0.0000 H   0  0  0  0  0  0  0  0  0  0  0  0
   15.1679  -12.0806    0.0000 H   0  0  0  0  0  0  0  0  0  0  0  0
   13.7775  -12.0807    0.0000 H   0  0  0  0  0  0  0  0  0  0  0  0
   10.7430  -11.2071    0.0000 H   0  0  0  0  0  0  0  0  0  0  0  0
   12.3211   -8.4143    0.0000 H   0  0  0  0  0  0  0  0  0  0  0  0
   13.9658   -9.3353    0.0000 H   0  0  0  0  0  0  0  0  0  0  0  0
   11.1608  -11.2071    0.0000 H   0  0  0  0  0  0  0  0  0  0  0  0
    9.5161  -12.1281    0.0000 H   0  0  0  0  0  0  0  0  0  0  0  0
    9.5375   -8.3730    0.0000 H   0  0  0  0  0  0  0  0  0  0  0  0
    7.3717  -10.8431    0.0000 H   0  0  0  0  0  0  0  0  0  0  0  0
    6.6912   -8.3762    0.0000 H   0  0  0  0  0  0  0  0  0  0  0  0
    5.7516   -9.9737    0.0000 H   0  0  0  0  0  0  0  0  0  0  0  0
    5.7602   -8.9037    0.0000 H   0  0  0  0  0  0  0  0  0  0  0  0
  1  2  2  0  0  0  0
  1  6  1  0  0  0  0
  1  7  1  0  0  0  0
  2  3  1  0  0  0  0
  2 34  1  0  0  0  0
  3  4  2  0  0  0  0
  3 35  1  0  0  0  0
  4  5  1  0  0  0  0
  4  8  1  0  0  0  0
  5  6  2  0  0  0  0
  5 36  1  0  0  0  0
  6 30  1  0  0  0  0
  8  9  1  0  0  0  0
  8 37  1  0  0  0  0
  9 10  1  0  0  0  0
  9 11  2  0  0  0  0
 10 12  1  0  0  0  0
 10 38  1  0  0  0  0
 12 13  2  0  0  0  0
 12 17  1  0  0  0  0
 13 14  1  0  0  0  0
 13 29  1  0  0  0  0
 14 15  2  0  0  0  0
 14 39  1  0  0  0  0
 15 16  1  0  0  0  0
 15 18  1  0  0  0  0
 16 17  2  0  0  0  0
 16 40  1  0  0  0  0
 17 41  1  0  0  0  0
 18 19  1  0  0  0  0
 19 20  2  0  0  0  0
 19 24  1  0  0  0  0
 20 21  1  0  0  0  0
 20 42  1  0  0  0  0
 21 22  2  0  0  0  0
 21 43  1  0  0  0  0
 22 23  1  0  0  0  0
 23 24  2  0  0  0  0
 23 25  1  0  0  0  0
 24 44  1  0  0  0  0
 25 26  1  0  0  0  0
 25 27  2  0  0  0  0
 26 28  1  0  0  0  0
 26 45  1  0  0  0  0
 28 46  1  0  0  0  0
 28 47  1  0  0  0  0
 28 48  1  0  0  0  0
 30 31  1  0  0  0  0
 30 32  1  0  0  0  0
 30 33  1  0  0  0  0
M  END
>  <DRUGBANK_ID>
DB08896

>  <COMMON_NAME>
Regorafenib

>  <CAS_NUMBER>
755037-03-7

>  <UNII>
24T2A1DOYB

>  <SYNONYMS>
Regorafenib; Régorafénib; Regorafenibum

$$$$
