
 OpenBabel10282417072D

 34 36  0  0  1  0  0  0  0  0999 V2000
    1.7566    3.1935    0.0000 C   0  0  0  0  0  0  0  0  0  0  0  0
    1.2717    2.5261    0.0000 C   0  0  0  0  0  0  0  0  0  0  0  0
    1.6073    1.7724    0.0000 C   0  0  0  0  0  0  0  0  0  0  0  0
    1.1224    1.1050    0.0000 N   0  0  0  0  0  0  0  0  0  0  0  0
    0.3019    1.1912    0.0000 C   0  0  0  0  0  0  0  0  0  0  0  0
   -0.1830    0.5238    0.0000 O   0  0  0  0  0  0  0  0  0  0  0  0
   -0.0337    1.9449    0.0000 N   0  0  0  0  0  0  0  0  0  0  0  0
    0.4512    2.6123    0.0000 C   0  0  0  0  0  0  0  0  0  0  0  0
    0.1157    3.3660    0.0000 O   0  0  0  0  0  0  0  0  0  0  0  0
    1.4579    0.3513    0.0000 C   0  0  1  0  0  0  0  0  0  0  0  0
    2.2425    0.6062    0.0000 C   0  0  0  0  0  0  0  0  0  0  0  0
    2.7275   -0.0612    0.0000 C   0  0  2  0  0  0  0  0  0  0  0  0
    3.5525   -0.0612    0.0000 O   0  0  0  0  0  0  0  0  0  0  0  0
    2.2425   -0.7286    0.0000 C   0  0  1  0  0  0  0  0  0  0  0  0
    2.4975   -1.5133    0.0000 C   0  0  0  0  0  0  0  0  0  0  0  0
    3.3044   -1.6848    0.0000 O   0  0  0  0  0  0  0  0  0  0  0  0
    1.4579   -0.4737    0.0000 C   0  0  2  0  0  0  0  0  0  0  0  0
    0.7434   -0.0612    0.0000 C   0  0  0  0  0  0  0  0  0  0  0  0
    2.8207    3.0816    0.0000 H   0  0  0  0  0  0  0  0  0  0  0  0
    1.3214    4.1710    0.0000 H   0  0  0  0  0  0  0  0  0  0  0  0
    2.3855    4.0591    0.0000 H   0  0  0  0  0  0  0  0  0  0  0  0
    2.6336    1.6645    0.0000 H   0  0  0  0  0  0  0  0  0  0  0  0
   -1.0128    2.0478    0.0000 H   0  0  0  0  0  0  0  0  0  0  0  0
    2.5731    1.6238    0.0000 H   0  0  0  0  0  0  0  0  0  0  0  0
    3.2993    0.7737    0.0000 H   0  0  0  0  0  0  0  0  0  0  0  0
    3.2132    0.8922    0.0000 H   0  0  0  0  0  0  0  0  0  0  0  0
    4.0375   -0.9012    0.0000 H   0  0  0  0  0  0  0  0  0  0  0  0
    3.2993   -0.8960    0.0000 H   0  0  0  0  0  0  0  0  0  0  0  0
    1.7816   -2.3085    0.0000 H   0  0  0  0  0  0  0  0  0  0  0  0
    2.8282   -2.5309    0.0000 H   0  0  0  0  0  0  0  0  0  0  0  0
    3.6042   -2.6073    0.0000 H   0  0  0  0  0  0  0  0  0  0  0  0
    1.8931    0.5038    0.0000 H   0  0  0  0  0  0  0  0  0  0  0  0
   -0.3266   -0.0612    0.0000 H   0  0  0  0  0  0  0  0  0  0  0  0
    0.4665    0.9723    0.0000 H   0  0  0  0  0  0  0  0  0  0  0  0
  1  2  1  0  0  0  0
  1 19  1  0  0  0  0
  1 20  1  0  0  0  0
  1 21  1  0  0  0  0
  2  3  2  0  0  0  0
  2  8  1  0  0  0  0
  3  4  1  0  0  0  0
  3 22  1  0  0  0  0
  4  5  1  0  0  0  0
  5  6  2  0  0  0  0
  5  7  1  0  0  0  0
  7  8  1  0  0  0  0
  7 23  1  0  0  0  0
  8  9  2  0  0  0  0
 10  4  1  1  0  0  0
 10 11  1  0  0  0  0
 10 17  1  0  0  0  0
 10 18  1  0  0  0  0
 11 12  1  0  0  0  0
 11 24  1  0  0  0  0
 11 25  1  0  0  0  0
 12 13  1  0  0  0  0
 12 14  1  0  0  0  0
 12 26  1  1  0  0  0
 13 27  1  0  0  0  0
 14 15  1  0  0  0  0
 14 17  1  0  0  0  0
 14 28  1  6  0  0  0
 15 16  1  0  0  0  0
 15 29  1  0  0  0  0
 15 30  1  0  0  0  0
 16 31  1  0  0  0  0
 17 18  1  0  0  0  0
 17 32  1  1  0  0  0
 18 33  1  0  0  0  0
 18 34  1  0  0  0  0
M  END
>  <DRUGBANK_ID>
DB02921

>  <SECONDARY_ACCESSION_NUMBERS>
EXPT02872

>  <COMMON_NAME>
(South)-Methanocarba-Thymidine

>  <SYNONYMS>
(South)-methanocarbathymidine

$$$$
