
 OpenBabel10282417072D

 15 15  0  0  0  0  0  0  0  0999 V2000
    1.4289    0.0000    0.0000 C   0  0  0  0  0  0  0  0  0  0  0  0
    0.0000    0.0000    0.0000 C   0  0  0  0  0  0  0  0  0  0  0  0
    1.4289    0.8250    0.0000 C   0  0  0  0  0  0  0  0  0  0  0  0
    0.0000    0.8250    0.0000 C   0  0  0  0  0  0  0  0  0  0  0  0
    0.7144   -0.4125    0.0000 C   0  0  0  0  0  0  0  0  0  0  0  0
    0.7144    1.2375    0.0000 C   0  0  0  0  0  0  0  0  0  0  0  0
    0.7144   -1.2375    0.0000 N   0  0  0  0  0  0  0  0  0  0  0  0
    0.7144    2.0625    0.0000 O   0  0  0  0  0  0  0  0  0  0  0  0
    2.3226   -0.5160    0.0000 H   0  0  0  0  0  0  0  0  0  0  0  0
   -0.8937   -0.5160    0.0000 H   0  0  0  0  0  0  0  0  0  0  0  0
    2.3226    1.3410    0.0000 H   0  0  0  0  0  0  0  0  0  0  0  0
   -0.8937    1.3410    0.0000 H   0  0  0  0  0  0  0  0  0  0  0  0
   -0.1382   -1.7298    0.0000 H   0  0  0  0  0  0  0  0  0  0  0  0
    1.5670   -1.7298    0.0000 H   0  0  0  0  0  0  0  0  0  0  0  0
    1.5259    2.5310    0.0000 H   0  0  0  0  0  0  0  0  0  0  0  0
  1  9  1  0  0  0  0
  2 10  1  0  0  0  0
  3  1  1  0  0  0  0
  3 11  1  0  0  0  0
  4  2  2  0  0  0  0
  4 12  1  0  0  0  0
  5  1  2  0  0  0  0
  5  2  1  0  0  0  0
  6  3  2  0  0  0  0
  6  4  1  0  0  0  0
  7  5  1  0  0  0  0
  7 13  1  0  0  0  0
  7 14  1  0  0  0  0
  8  6  1  0  0  0  0
  8 15  1  0  0  0  0
M  END
>  <DRUGBANK_ID>
DB14144

>  <COMMON_NAME>
p-Aminophenol

>  <CAS_NUMBER>
123-30-8

>  <UNII>
R7P8FRP05V

>  <SYNONYMS>
4-Aminobenzenol; 4-Aminophenol; 4-Hydroxyaniline; p-hydroxyaniline

$$$$
