GW9
 OpenBabel10282417072D

 28 29  0  0  0  0  0  0  0  0999 V2000
    1.3288    1.3743    0.0000 Cl  0  0  0  0  0  0  0  0  0  0  0  0
    1.3288    0.5493    0.0000 C   0  0  0  0  0  0  0  0  0  0  0  0
    2.0433    0.1368    0.0000 C   0  0  0  0  0  0  0  0  0  0  0  0
    2.0433   -0.6882    0.0000 C   0  0  0  0  0  0  0  0  0  0  0  0
    1.3288   -1.1007    0.0000 C   0  0  0  0  0  0  0  0  0  0  0  0
    1.3288   -1.9257    0.0000 N   0  3  0  0  0  0  0  0  0  0  0  0
    2.0433   -2.3382    0.0000 O   0  5  0  0  0  0  0  0  0  0  0  0
    0.6144   -2.3382    0.0000 O   0  0  0  0  0  0  0  0  0  0  0  0
    0.6144   -0.6882    0.0000 C   0  0  0  0  0  0  0  0  0  0  0  0
    0.6144    0.1368    0.0000 C   0  0  0  0  0  0  0  0  0  0  0  0
   -0.1001    0.5493    0.0000 C   0  0  0  0  0  0  0  0  0  0  0  0
   -0.1001    1.3743    0.0000 O   0  0  0  0  0  0  0  0  0  0  0  0
   -0.8146    0.1368    0.0000 N   0  0  0  0  0  0  0  0  0  0  0  0
   -1.5291    0.5493    0.0000 C   0  0  0  0  0  0  0  0  0  0  0  0
   -2.2435    0.1368    0.0000 C   0  0  0  0  0  0  0  0  0  0  0  0
   -2.9580    0.5493    0.0000 C   0  0  0  0  0  0  0  0  0  0  0  0
   -2.9580    1.3743    0.0000 C   0  0  0  0  0  0  0  0  0  0  0  0
   -2.2435    1.7868    0.0000 C   0  0  0  0  0  0  0  0  0  0  0  0
   -1.5291    1.3743    0.0000 C   0  0  0  0  0  0  0  0  0  0  0  0
    2.9370    0.6528    0.0000 H   0  0  0  0  0  0  0  0  0  0  0  0
    2.9370   -1.2042    0.0000 H   0  0  0  0  0  0  0  0  0  0  0  0
   -0.2793   -1.2042    0.0000 H   0  0  0  0  0  0  0  0  0  0  0  0
   -0.8146   -0.8477    0.0000 H   0  0  0  0  0  0  0  0  0  0  0  0
   -2.2435   -0.8952    0.0000 H   0  0  0  0  0  0  0  0  0  0  0  0
   -3.8517    0.0333    0.0000 H   0  0  0  0  0  0  0  0  0  0  0  0
   -3.8517    1.8903    0.0000 H   0  0  0  0  0  0  0  0  0  0  0  0
   -2.2435    2.8188    0.0000 H   0  0  0  0  0  0  0  0  0  0  0  0
   -0.6354    1.8903    0.0000 H   0  0  0  0  0  0  0  0  0  0  0  0
  1  2  1  0  0  0  0
  2  3  2  0  0  0  0
  2 10  1  0  0  0  0
  3  4  1  0  0  0  0
  3 20  1  0  0  0  0
  4  5  2  0  0  0  0
  4 21  1  0  0  0  0
  5  6  1  0  0  0  0
  5  9  1  0  0  0  0
  6  7  1  0  0  0  0
  6  8  2  0  0  0  0
  9 10  2  0  0  0  0
  9 22  1  0  0  0  0
 10 11  1  0  0  0  0
 11 12  2  0  0  0  0
 11 13  1  0  0  0  0
 13 14  1  0  0  0  0
 13 23  1  0  0  0  0
 14 15  2  0  0  0  0
 14 19  1  0  0  0  0
 15 16  1  0  0  0  0
 15 24  1  0  0  0  0
 16 17  2  0  0  0  0
 16 25  1  0  0  0  0
 17 18  1  0  0  0  0
 17 26  1  0  0  0  0
 18 19  2  0  0  0  0
 18 27  1  0  0  0  0
 19 28  1  0  0  0  0
M  CHG  2   6   1   7  -1
M  END
>  <DRUGBANK_ID>
DB07863

>  <COMMON_NAME>
2-chloro-5-nitro-N-phenylbenzamide

>  <UNII>
UM18UZV2YD

$$$$
