
 OpenBabel10282417072D

 56 59  0  0  0  0  0  0  0  0999 V2000
   -0.4012   -0.1718    0.0000 C   0  0  1  0  0  0  0  0  0  0  0  0
    0.2974   -0.5684    0.0000 C   0  0  2  0  0  0  0  0  0  0  0  0
   -1.0968   -0.5684    0.0000 C   0  0  2  0  0  0  0  0  0  0  0  0
   -0.4012    0.6155    0.0000 C   0  0  2  0  0  0  0  0  0  0  0  0
   -0.4100   -1.0390    0.0000 F   0  0  0  0  0  0  0  0  0  0  0  0
    0.9900   -0.1718    0.0000 C   0  0  1  0  0  0  0  0  0  0  0  0
    0.2974   -1.3616    0.0000 C   0  0  0  0  0  0  0  0  0  0  0  0
   -1.0968   -1.3616    0.0000 C   0  0  0  0  0  0  0  0  0  0  0  0
   -1.8043   -0.1125    0.0000 C   0  0  0  0  0  0  0  0  0  0  0  0
   -1.0998    0.3964    0.0000 C   0  0  0  0  0  0  0  0  0  0  0  0
    0.3180    1.0565    0.0000 C   0  0  0  0  0  0  0  0  0  0  0  0
   -1.1560    1.1159    0.0000 O   0  0  0  0  0  0  0  0  0  0  0  0
    0.9900    0.6533    0.0000 C   0  0  2  0  0  0  0  0  0  0  0  0
    1.7748   -0.4267    0.0000 C   0  0  0  0  0  0  0  0  0  0  0  0
   -0.4100   -1.7909    0.0000 C   0  0  1  0  0  0  0  0  0  0  0  0
   -1.8043   -1.7909    0.0000 C   0  0  0  0  0  0  0  0  0  0  0  0
   -2.4910   -0.5684    0.0000 C   0  0  0  0  0  0  0  0  0  0  0  0
    1.7748    0.9082    0.0000 C   0  0  2  0  0  0  0  0  0  0  0  0
    0.9900    1.6309    0.0000 C   0  0  0  0  0  0  0  0  0  0  0  0
    2.2597    0.2407    0.0000 C   0  0  2  0  0  0  0  0  0  0  0  0
   -0.4100   -2.6494    0.0000 F   0  0  0  0  0  0  0  0  0  0  0  0
   -2.4910   -1.3616    0.0000 C   0  0  0  0  0  0  0  0  0  0  0  0
    2.0298    1.6931    0.0000 C   0  0  0  0  0  0  0  0  0  0  0  0
    3.0050    0.2371    0.0000 C   0  0  0  0  0  0  0  0  0  0  0  0
   -3.0918   -1.7257    0.0000 O   0  0  0  0  0  0  0  0  0  0  0  0
    2.8368    1.8646    0.0000 C   0  0  0  0  0  0  0  0  0  0  0  0
    1.4776    2.3063    0.0000 O   0  0  0  0  0  0  0  0  0  0  0  0
    3.0918    2.6494    0.0000 O   0  0  0  0  0  0  0  0  0  0  0  0
    0.2974    0.2567    0.0000 H   0  0  0  0  0  0  0  0  0  0  0  0
    0.9900   -0.9969    0.0000 H   0  0  0  0  0  0  0  0  0  0  0  0
   -1.3439    0.1094    0.0000 H   0  0  0  0  0  0  0  0  0  0  0  0
    1.2298   -1.8864    0.0000 H   0  0  0  0  0  0  0  0  0  0  0  0
    0.3149   -2.4315    0.0000 H   0  0  0  0  0  0  0  0  0  0  0  0
   -1.8114    0.9195    0.0000 H   0  0  0  0  0  0  0  0  0  0  0  0
   -0.1748    0.9343    0.0000 H   0  0  0  0  0  0  0  0  0  0  0  0
   -2.0281    0.9285    0.0000 H   0  0  0  0  0  0  0  0  0  0  0  0
   -1.1031    1.4664    0.0000 H   0  0  0  0  0  0  0  0  0  0  0  0
    0.3128    2.1265    0.0000 H   0  0  0  0  0  0  0  0  0  0  0  0
    1.2478    1.5859    0.0000 H   0  0  0  0  0  0  0  0  0  0  0  0
   -1.0961    2.0840    0.0000 H   0  0  0  0  0  0  0  0  0  0  0  0
    2.1055   -1.4443    0.0000 H   0  0  0  0  0  0  0  0  0  0  0  0
    2.8316   -0.5941    0.0000 H   0  0  0  0  0  0  0  0  0  0  0  0
    0.5224   -2.3157    0.0000 H   0  0  0  0  0  0  0  0  0  0  0  0
   -1.8112   -2.8229    0.0000 H   0  0  0  0  0  0  0  0  0  0  0  0
   -3.4004   -0.0806    0.0000 H   0  0  0  0  0  0  0  0  0  0  0  0
    1.0182    1.6648    0.0000 H   0  0  0  0  0  0  0  0  0  0  0  0
    1.9166    2.1659    0.0000 H   0  0  0  0  0  0  0  0  0  0  0  0
    0.0634    2.1659    0.0000 H   0  0  0  0  0  0  0  0  0  0  0  0
    0.9900    2.7009    0.0000 H   0  0  0  0  0  0  0  0  0  0  0  0
    2.7432   -0.7138    0.0000 H   0  0  0  0  0  0  0  0  0  0  0  0
    3.5355   -0.6921    0.0000 H   0  0  0  0  0  0  0  0  0  0  0  0
    3.5445    1.1612    0.0000 H   0  0  0  0  0  0  0  0  0  0  0  0
    4.0750    0.2319    0.0000 H   0  0  0  0  0  0  0  0  0  0  0  0
    3.5528    1.0694    0.0000 H   0  0  0  0  0  0  0  0  0  0  0  0
    3.8834    2.0871    0.0000 H   0  0  0  0  0  0  0  0  0  0  0  0
    4.0406    2.8511    0.0000 H   0  0  0  0  0  0  0  0  0  0  0  0
  1  2  1  0  0  0  0
  1  3  1  0  0  0  0
  1  4  1  0  0  0  0
  1  5  1  6  0  0  0
  2  6  1  0  0  0  0
  2  7  1  0  0  0  0
  2 29  1  1  0  0  0
  3  8  1  0  0  0  0
  3  9  1  0  0  0  0
  3 10  1  1  0  0  0
  4 11  1  0  0  0  0
  4 12  1  0  0  0  0
  4 31  1  6  0  0  0
  6 13  1  0  0  0  0
  6 14  1  0  0  0  0
  6 30  1  6  0  0  0
  7 15  1  0  0  0  0
  7 32  1  0  0  0  0
  7 33  1  0  0  0  0
  8 16  2  0  0  0  0
  8 15  1  0  0  0  0
  9 17  2  0  0  0  0
  9 34  1  0  0  0  0
 10 35  1  0  0  0  0
 10 36  1  0  0  0  0
 10 37  1  0  0  0  0
 11 13  1  0  0  0  0
 11 38  1  0  0  0  0
 11 39  1  0  0  0  0
 12 40  1  0  0  0  0
 13 18  1  0  0  0  0
 13 19  1  1  0  0  0
 14 20  1  0  0  0  0
 14 41  1  0  0  0  0
 14 42  1  0  0  0  0
 15 21  1  0  0  0  0
 15 43  1  1  0  0  0
 16 22  1  0  0  0  0
 16 44  1  0  0  0  0
 17 22  1  0  0  0  0
 17 45  1  0  0  0  0
 18 23  1  0  0  0  0
 18 20  1  0  0  0  0
 18 46  1  6  0  0  0
 19 47  1  0  0  0  0
 19 48  1  0  0  0  0
 19 49  1  0  0  0  0
 20 24  1  0  0  0  0
 20 50  1  1  0  0  0
 22 25  2  0  0  0  0
 23 26  1  0  0  0  0
 23 27  2  0  0  0  0
 24 51  1  0  0  0  0
 24 52  1  0  0  0  0
 24 53  1  0  0  0  0
 26 28  1  0  0  0  0
 26 54  1  0  0  0  0
 26 55  1  0  0  0  0
 28 56  1  0  0  0  0
M  END
>  <DRUGBANK_ID>
DB09095

>  <COMMON_NAME>
Difluocortolone

>  <CAS_NUMBER>
2607-06-9

>  <UNII>
K253365DXI

>  <SYNONYMS>
Diflucortolona; Diflucortolone; Diflucortolonum

$$$$
