
 OpenBabel10282417072D

 22 24  0  0  0  0  0  0  0  0999 V2000
    0.0000    0.9413    0.0000 N   0  0  0  0  0  0  0  0  0  0  0  0
   -0.6674    0.4564    0.0000 C   0  0  0  0  0  0  0  0  0  0  0  0
    0.4124   -0.3281    0.0000 C   0  0  0  0  0  0  0  0  0  0  0  0
    0.6674    0.4564    0.0000 C   0  0  0  0  0  0  0  0  0  0  0  0
   -0.4125   -0.3281    0.0000 C   0  0  0  0  0  0  0  0  0  0  0  0
    0.9645   -0.9413    0.0000 C   0  0  0  0  0  0  0  0  0  0  0  0
    1.7714   -0.7698    0.0000 C   0  0  0  0  0  0  0  0  0  0  0  0
    2.0264    0.0149    0.0000 C   0  0  0  0  0  0  0  0  0  0  0  0
    1.4744    0.6280    0.0000 C   0  0  0  0  0  0  0  0  0  0  0  0
   -0.9645   -0.9413    0.0000 C   0  0  0  0  0  0  0  0  0  0  0  0
   -1.4744    0.6280    0.0000 C   0  0  0  0  0  0  0  0  0  0  0  0
   -2.0264    0.0149    0.0000 C   0  0  0  0  0  0  0  0  0  0  0  0
   -1.7715   -0.7698    0.0000 C   0  0  0  0  0  0  0  0  0  0  0  0
    0.0000    1.9258    0.0000 H   0  0  0  0  0  0  0  0  0  0  0  0
    0.6456   -1.9228    0.0000 H   0  0  0  0  0  0  0  0  0  0  0  0
    2.4619   -1.5367    0.0000 H   0  0  0  0  0  0  0  0  0  0  0  0
    3.0359    0.2294    0.0000 H   0  0  0  0  0  0  0  0  0  0  0  0
    1.7933    1.6095    0.0000 H   0  0  0  0  0  0  0  0  0  0  0  0
   -0.6455   -1.9228    0.0000 H   0  0  0  0  0  0  0  0  0  0  0  0
   -1.7933    1.6095    0.0000 H   0  0  0  0  0  0  0  0  0  0  0  0
   -3.0358    0.2295    0.0000 H   0  0  0  0  0  0  0  0  0  0  0  0
   -2.4621   -1.5367    0.0000 H   0  0  0  0  0  0  0  0  0  0  0  0
  1  2  1  0  0  0  0
  1  4  1  0  0  0  0
  1 14  1  0  0  0  0
  2 11  2  0  0  0  0
  3  5  1  0  0  0  0
  4  3  1  0  0  0  0
  5  2  1  0  0  0  0
  6  3  2  0  0  0  0
  6  7  1  0  0  0  0
  6 15  1  0  0  0  0
  7  8  2  0  0  0  0
  7 16  1  0  0  0  0
  8  9  1  0  0  0  0
  8 17  1  0  0  0  0
  9  4  2  0  0  0  0
  9 18  1  0  0  0  0
 10  5  2  0  0  0  0
 10 13  1  0  0  0  0
 10 19  1  0  0  0  0
 11 12  1  0  0  0  0
 11 20  1  0  0  0  0
 12 13  2  0  0  0  0
 12 21  1  0  0  0  0
 13 22  1  0  0  0  0
M  END
>  <DRUGBANK_ID>
DB07301

>  <COMMON_NAME>
Carbazole

>  <CAS_NUMBER>
86-74-8

>  <UNII>
0P2197HHHN

>  <SYNONYMS>
9-Azafluorene; 9H-Carbazole; Dibenzopyrrole; Diphenylenimide

$$$$
