
 OpenBabel10282417072D

 34 35  0  0  0  0  0  0  0  0999 V2000
   -1.0611   -0.6178    0.0000 C   0  0  0  0  0  0  0  0  0  0  0  0
   -0.3486   -1.0271    0.0000 C   0  0  0  0  0  0  0  0  0  0  0  0
   -1.7850   -1.0384    0.0000 C   0  0  0  0  0  0  0  0  0  0  0  0
   -1.0611    0.2159    0.0000 C   0  0  0  0  0  0  0  0  0  0  0  0
    0.3637   -0.6139    0.0000 C   0  0  0  0  0  0  0  0  0  0  0  0
   -0.3448   -1.8533    0.0000 O   0  0  0  0  0  0  0  0  0  0  0  0
   -2.4975   -0.6178    0.0000 C   0  0  0  0  0  0  0  0  0  0  0  0
   -1.7887   -1.8645    0.0000 O   0  0  0  0  0  0  0  0  0  0  0  0
   -1.7850    0.6290    0.0000 C   0  0  0  0  0  0  0  0  0  0  0  0
   -0.3486    0.6290    0.0000 O   0  0  0  0  0  0  0  0  0  0  0  0
    0.3637    0.2084    0.0000 C   0  0  0  0  0  0  0  0  0  0  0  0
   -2.4975    0.2159    0.0000 C   0  0  0  0  0  0  0  0  0  0  0  0
    1.0763    0.6214    0.0000 C   0  0  0  0  0  0  0  0  0  0  0  0
   -3.2137    0.6290    0.0000 O   0  0  0  0  0  0  0  0  0  0  0  0
    1.7925    0.2122    0.0000 C   0  0  0  0  0  0  0  0  0  0  0  0
    1.0763    1.4401    0.0000 C   0  0  0  0  0  0  0  0  0  0  0  0
    2.5089    0.6214    0.0000 C   0  0  0  0  0  0  0  0  0  0  0  0
    1.7850    1.8607    0.0000 C   0  0  0  0  0  0  0  0  0  0  0  0
    2.5013    1.4477    0.0000 C   0  0  0  0  0  0  0  0  0  0  0  0
    3.2137    1.8645    0.0000 O   0  0  0  0  0  0  0  0  0  0  0  0
    1.2909   -1.1479    0.0000 H   0  0  0  0  0  0  0  0  0  0  0  0
    1.2901   -0.0784    0.0000 H   0  0  0  0  0  0  0  0  0  0  0  0
   -3.3937   -1.1295    0.0000 H   0  0  0  0  0  0  0  0  0  0  0  0
   -2.6023   -2.3294    0.0000 H   0  0  0  0  0  0  0  0  0  0  0  0
   -1.7885    1.6610    0.0000 H   0  0  0  0  0  0  0  0  0  0  0  0
    0.4637    0.1620    0.0000 H   0  0  0  0  0  0  0  0  0  0  0  0
   -0.5634    0.7426    0.0000 H   0  0  0  0  0  0  0  0  0  0  0  0
    0.3624    1.2784    0.0000 H   0  0  0  0  0  0  0  0  0  0  0  0
   -3.2141    1.5660    0.0000 H   0  0  0  0  0  0  0  0  0  0  0  0
    1.7924   -0.8198    0.0000 H   0  0  0  0  0  0  0  0  0  0  0  0
    0.1795    1.9507    0.0000 H   0  0  0  0  0  0  0  0  0  0  0  0
    3.4038    0.1074    0.0000 H   0  0  0  0  0  0  0  0  0  0  0  0
    1.7785    2.8927    0.0000 H   0  0  0  0  0  0  0  0  0  0  0  0
    4.0279    1.4007    0.0000 H   0  0  0  0  0  0  0  0  0  0  0  0
  1  2  1  0  0  0  0
  1  3  1  0  0  0  0
  1  4  2  0  0  0  0
  2  5  1  0  0  0  0
  2  6  2  0  0  0  0
  3  7  2  0  0  0  0
  3  8  1  0  0  0  0
  4  9  1  0  0  0  0
  4 10  1  0  0  0  0
  5 11  1  0  0  0  0
  5 21  1  0  0  0  0
  5 22  1  0  0  0  0
  7 12  1  0  0  0  0
  7 23  1  0  0  0  0
  8 24  1  0  0  0  0
  9 12  2  0  0  0  0
  9 25  1  0  0  0  0
 10 26  1  0  0  0  0
 11 13  1  0  0  0  0
 11 27  1  0  0  0  0
 11 28  1  0  0  0  0
 12 14  1  0  0  0  0
 13 15  1  0  0  0  0
 13 16  2  0  0  0  0
 14 29  1  0  0  0  0
 15 17  2  0  0  0  0
 15 30  1  0  0  0  0
 16 18  1  0  0  0  0
 16 31  1  0  0  0  0
 17 19  1  0  0  0  0
 17 32  1  0  0  0  0
 18 19  2  0  0  0  0
 18 33  1  0  0  0  0
 19 20  1  0  0  0  0
 20 34  1  0  0  0  0
M  END
>  <DRUGBANK_ID>
DB07810

>  <COMMON_NAME>
Phloretin

>  <CAS_NUMBER>
60-82-2

>  <UNII>
S5J5OE47MK

>  <SYNONYMS>
2',4,4',6'-Tetrahydroxy-Dihydrochalcone; 2',4,4',6'-Tetrahydroxydihydrochalcone; Dihydronaringenin; Phloretol

$$$$
