
 OpenBabel10282417072D

 49 52  0  0  0  0  0  0  0  0999 V2000
   -0.9639   -1.1379    0.0000 C   0  0  0  0  0  0  0  0  0  0  0  0
    0.6293   -1.1447    0.0000 C   0  0  0  0  0  0  0  0  0  0  0  0
    1.2183   -0.5623    0.0000 C   0  0  0  0  0  0  0  0  0  0  0  0
    1.4326    0.2343    0.0000 C   0  0  0  0  0  0  0  0  0  0  0  0
    1.2183    1.0309    0.0000 C   0  0  0  0  0  0  0  0  0  0  0  0
    0.6360    1.6200    0.0000 N   0  0  0  0  0  0  0  0  0  0  0  0
   -0.1606    1.8342    0.0000 C   0  0  0  0  0  0  0  0  0  0  0  0
   -0.9572    1.6200    0.0000 C   0  0  0  0  0  0  0  0  0  0  0  0
   -1.5464    1.0376    0.0000 C   0  0  0  0  0  0  0  0  0  0  0  0
   -1.7606    0.2409    0.0000 C   0  0  2  0  0  0  0  0  0  0  0  0
   -1.5464   -0.5556    0.0000 O   0  0  0  0  0  0  0  0  0  0  0  0
   -0.1539    2.6576    0.0000 O   0  0  0  0  0  0  0  0  0  0  0  0
   -1.1715    2.4233    0.0000 C   0  0  0  0  0  0  0  0  0  0  0  0
   -1.9681    2.6376    0.0000 C   0  0  0  0  0  0  0  0  0  0  0  0
   -2.5505    2.0551    0.0000 C   0  0  0  0  0  0  0  0  0  0  0  0
   -2.3430    1.2585    0.0000 C   0  0  0  0  0  0  0  0  0  0  0  0
   -3.3472    2.2694    0.0000 F   0  0  0  0  0  0  0  0  0  0  0  0
    1.0510    2.3296    0.0000 C   0  0  0  0  0  0  0  0  0  0  0  0
   -2.5840    0.2476    0.0000 C   0  0  0  0  0  0  0  0  0  0  0  0
    1.9079   -1.0175    0.0000 C   0  0  0  0  0  0  0  0  0  0  0  0
    2.5505   -0.4953    0.0000 N   0  0  0  0  0  0  0  0  0  0  0  0
    2.2560    0.2343    0.0000 N   0  0  0  0  0  0  0  0  0  0  0  0
   -0.9639   -2.0418    0.0000 C   0  0  0  0  0  0  0  0  0  0  0  0
   -0.1807   -2.4970    0.0000 N   0  0  0  0  0  0  0  0  0  0  0  0
    0.5957   -2.0418    0.0000 C   0  0  0  0  0  0  0  0  0  0  0  0
   -0.1807   -0.6895    0.0000 C   0  0  0  0  0  0  0  0  0  0  0  0
   -1.7471   -2.4970    0.0000 N   0  0  0  0  0  0  0  0  0  0  0  0
    3.3472   -0.7028    0.0000 C   0  0  0  0  0  0  0  0  0  0  0  0
    1.9480   -1.8342    0.0000 C   0  0  0  0  0  0  0  0  0  0  0  0
    1.9882   -2.6576    0.0000 N   0  0  0  0  0  0  0  0  0  0  0  0
    2.1462    1.5637    0.0000 H   0  0  0  0  0  0  0  0  0  0  0  0
    1.3623    2.0912    0.0000 H   0  0  0  0  0  0  0  0  0  0  0  0
   -2.4082    1.0927    0.0000 H   0  0  0  0  0  0  0  0  0  0  0  0
   -0.4410    3.1523    0.0000 H   0  0  0  0  0  0  0  0  0  0  0  0
   -2.2347    3.6346    0.0000 H   0  0  0  0  0  0  0  0  0  0  0  0
   -3.0784    0.5345    0.0000 H   0  0  0  0  0  0  0  0  0  0  0  0
    2.1210    2.3236    0.0000 H   0  0  0  0  0  0  0  0  0  0  0  0
    0.5212    3.2592    0.0000 H   0  0  0  0  0  0  0  0  0  0  0  0
    1.5912    3.2532    0.0000 H   0  0  0  0  0  0  0  0  0  0  0  0
   -3.1114    1.1786    0.0000 H   0  0  0  0  0  0  0  0  0  0  0  0
   -3.1265   -0.6747    0.0000 H   0  0  0  0  0  0  0  0  0  0  0  0
   -3.6540    0.2563    0.0000 H   0  0  0  0  0  0  0  0  0  0  0  0
    1.4814   -2.5715    0.0000 H   0  0  0  0  0  0  0  0  0  0  0  0
   -0.1848    0.3425    0.0000 H   0  0  0  0  0  0  0  0  0  0  0  0
   -2.6011   -2.0072    0.0000 H   0  0  0  0  0  0  0  0  0  0  0  0
   -1.7443   -3.4815    0.0000 H   0  0  0  0  0  0  0  0  0  0  0  0
    3.6314   -1.7344    0.0000 H   0  0  0  0  0  0  0  0  0  0  0  0
    4.0985    0.0591    0.0000 H   0  0  0  0  0  0  0  0  0  0  0  0
    4.3827   -0.9725    0.0000 H   0  0  0  0  0  0  0  0  0  0  0  0
  1 11  1  0  0  0  0
  1 23  2  0  0  0  0
  1 26  1  0  0  0  0
  2  3  1  0  0  0  0
  2 25  1  0  0  0  0
  2 26  2  0  0  0  0
  3  4  1  0  0  0  0
  3 20  2  0  0  0  0
  4  5  1  0  0  0  0
  4 22  2  0  0  0  0
  5  6  1  0  0  0  0
  5 31  1  0  0  0  0
  5 32  1  0  0  0  0
  6  7  1  0  0  0  0
  6 18  1  0  0  0  0
  7  8  1  0  0  0  0
  7 12  2  0  0  0  0
  8  9  2  0  0  0  0
  8 13  1  0  0  0  0
  9 10  1  0  0  0  0
  9 16  1  0  0  0  0
 10 11  1  0  0  0  0
 10 19  1  0  0  0  0
 10 33  1  1  0  0  0
 13 14  2  0  0  0  0
 13 34  1  0  0  0  0
 14 15  1  0  0  0  0
 14 35  1  0  0  0  0
 15 16  2  0  0  0  0
 15 17  1  0  0  0  0
 16 36  1  0  0  0  0
 18 37  1  0  0  0  0
 18 38  1  0  0  0  0
 18 39  1  0  0  0  0
 19 40  1  0  0  0  0
 19 41  1  0  0  0  0
 19 42  1  0  0  0  0
 20 21  1  0  0  0  0
 20 29  1  0  0  0  0
 21 22  1  0  0  0  0
 21 28  1  0  0  0  0
 23 24  1  0  0  0  0
 23 27  1  0  0  0  0
 24 25  2  0  0  0  0
 25 43  1  0  0  0  0
 26 44  1  0  0  0  0
 27 45  1  0  0  0  0
 27 46  1  0  0  0  0
 28 47  1  0  0  0  0
 28 48  1  0  0  0  0
 28 49  1  0  0  0  0
 29 30  3  0  0  0  0
M  END
>  <DRUGBANK_ID>
DB12130

>  <COMMON_NAME>
Lorlatinib

>  <CAS_NUMBER>
1454846-35-5

>  <UNII>
OSP71S83EU

>  <SYNONYMS>
Lorlatinib

$$$$
