
 OpenBabel10282417072D

 81 83  0  0  1  0  0  0  0  0999 V2000
   -2.3345   -4.2105    0.0000 C   0  0  0  0  0  0  0  0  0  0  0  0
   -2.7470   -3.4960    0.0000 C   0  0  0  0  0  0  0  0  0  0  0  0
   -3.5720   -3.4960    0.0000 C   0  0  0  0  0  0  0  0  0  0  0  0
   -2.3345   -2.7815    0.0000 C   0  0  0  0  0  0  0  0  0  0  0  0
   -1.5095   -2.7815    0.0000 C   0  0  0  0  0  0  0  0  0  0  0  0
   -1.0970   -2.0671    0.0000 N   0  0  0  0  0  0  0  0  0  0  0  0
   -0.2720   -2.0671    0.0000 C   0  0  0  0  0  0  0  0  0  0  0  0
    0.1405   -2.7815    0.0000 C   0  0  1  0  0  0  0  0  0  0  0  0
   -0.2720   -3.4960    0.0000 O   0  0  0  0  0  0  0  0  0  0  0  0
    0.9655   -2.7815    0.0000 C   0  0  2  0  0  0  0  0  0  0  0  0
    1.1350   -1.9489    0.0000 C   0  0  0  0  0  0  0  0  0  0  0  0
    1.7780   -1.3734    0.0000 C   0  0  0  0  0  0  0  0  0  0  0  0
    2.1888   -0.6300    0.0000 C   0  0  0  0  0  0  0  0  0  0  0  0
    3.0329   -0.5928    0.0000 C   0  0  0  0  0  0  0  0  0  0  0  0
    3.4854   -1.3027    0.0000 C   0  0  0  0  0  0  0  0  0  0  0  0
    4.2367   -1.7114    0.0000 O   0  0  0  0  0  0  0  0  0  0  0  0
    4.7828   -2.3610    0.0000 C   0  0  0  0  0  0  0  0  0  0  0  0
    4.9048   -3.2013    0.0000 C   0  0  0  0  0  0  0  0  0  0  0  0
    4.6015   -3.9920    0.0000 C   0  0  0  0  0  0  0  0  0  0  0  0
    3.9852   -4.5727    0.0000 C   0  0  0  0  0  0  0  0  0  0  0  0
    4.4071   -5.2817    0.0000 O   0  0  0  0  0  0  0  0  0  0  0  0
    3.1823   -4.8368    0.0000 N   0  0  0  0  0  0  0  0  0  0  0  0
    2.3363   -4.7363    0.0000 C   0  0  1  0  0  0  0  0  0  0  0  0
    2.0698   -5.5171    0.0000 C   0  0  0  0  0  0  0  0  0  0  0  0
    2.6127   -6.1383    0.0000 C   0  0  0  0  0  0  0  0  0  0  0  0
    3.4221   -5.9787    0.0000 N   0  0  0  0  0  0  0  0  0  0  0  0
    2.3462   -6.9191    0.0000 O   0  0  0  0  0  0  0  0  0  0  0  0
    1.6158   -4.3048    0.0000 C   0  0  0  0  0  0  0  0  0  0  0  0
    1.0531   -4.9081    0.0000 O   0  0  0  0  0  0  0  0  0  0  0  0
    1.1353   -3.6159    0.0000 N   0  0  0  0  0  0  0  0  0  0  0  0
    3.0791   -2.0341    0.0000 C   0  0  0  0  0  0  0  0  0  0  0  0
    2.2548   -2.0560    0.0000 C   0  0  0  0  0  0  0  0  0  0  0  0
   -1.5095   -1.3526    0.0000 S   0  0  0  0  0  0  0  0  0  0  0  0
   -0.7950   -0.9401    0.0000 O   0  0  0  0  0  0  0  0  0  0  0  0
   -2.2240   -1.7651    0.0000 O   0  0  0  0  0  0  0  0  0  0  0  0
   -1.9220   -0.6381    0.0000 C   0  0  0  0  0  0  0  0  0  0  0  0
   -2.7470   -0.6381    0.0000 C   0  0  0  0  0  0  0  0  0  0  0  0
   -3.1595    0.0763    0.0000 C   0  0  0  0  0  0  0  0  0  0  0  0
   -2.7470    0.7908    0.0000 C   0  0  0  0  0  0  0  0  0  0  0  0
   -1.9220    0.7908    0.0000 C   0  0  0  0  0  0  0  0  0  0  0  0
   -1.5095    0.0763    0.0000 C   0  0  0  0  0  0  0  0  0  0  0  0
   -2.8695   -5.1371    0.0000 H   0  0  0  0  0  0  0  0  0  0  0  0
   -1.2645   -4.2105    0.0000 H   0  0  0  0  0  0  0  0  0  0  0  0
   -1.7995   -5.1372    0.0000 H   0  0  0  0  0  0  0  0  0  0  0  0
   -3.2820   -2.5694    0.0000 H   0  0  0  0  0  0  0  0  0  0  0  0
   -4.1070   -2.5694    0.0000 H   0  0  0  0  0  0  0  0  0  0  0  0
   -4.1070   -4.4226    0.0000 H   0  0  0  0  0  0  0  0  0  0  0  0
   -4.6420   -3.4960    0.0000 H   0  0  0  0  0  0  0  0  0  0  0  0
   -2.8695   -1.8549    0.0000 H   0  0  0  0  0  0  0  0  0  0  0  0
   -1.7995   -1.8549    0.0000 H   0  0  0  0  0  0  0  0  0  0  0  0
   -0.9745   -3.7082    0.0000 H   0  0  0  0  0  0  0  0  0  0  0  0
   -0.4395   -2.7815    0.0000 H   0  0  0  0  0  0  0  0  0  0  0  0
    0.2630   -1.1404    0.0000 H   0  0  0  0  0  0  0  0  0  0  0  0
    0.7980   -2.0671    0.0000 H   0  0  0  0  0  0  0  0  0  0  0  0
    0.6755   -1.8548    0.0000 H   0  0  0  0  0  0  0  0  0  0  0  0
   -1.2420   -3.4960    0.0000 H   0  0  0  0  0  0  0  0  0  0  0  0
    0.2886   -1.9529    0.0000 H   0  0  0  0  0  0  0  0  0  0  0  0
    0.2069   -1.4165    0.0000 H   0  0  0  0  0  0  0  0  0  0  0  0
    1.0232   -0.8848    0.0000 H   0  0  0  0  0  0  0  0  0  0  0  0
    1.6450    0.2471    0.0000 H   0  0  0  0  0  0  0  0  0  0  0  0
    3.5091    0.3228    0.0000 H   0  0  0  0  0  0  0  0  0  0  0  0
    5.7591   -1.9231    0.0000 H   0  0  0  0  0  0  0  0  0  0  0  0
    5.7205   -2.8763    0.0000 H   0  0  0  0  0  0  0  0  0  0  0  0
    5.9682   -3.3199    0.0000 H   0  0  0  0  0  0  0  0  0  0  0  0
    5.4611   -4.1153    0.0000 H   0  0  0  0  0  0  0  0  0  0  0  0
    5.4902   -4.5879    0.0000 H   0  0  0  0  0  0  0  0  0  0  0  0
    4.6897   -5.0584    0.0000 H   0  0  0  0  0  0  0  0  0  0  0  0
    3.2804   -5.8164    0.0000 H   0  0  0  0  0  0  0  0  0  0  0  0
    2.9063   -5.6418    0.0000 H   0  0  0  0  0  0  0  0  0  0  0  0
    1.0200   -5.7241    0.0000 H   0  0  0  0  0  0  0  0  0  0  0  0
    1.7241   -6.5297    0.0000 H   0  0  0  0  0  0  0  0  0  0  0  0
    4.0700   -6.7200    0.0000 H   0  0  0  0  0  0  0  0  0  0  0  0
    3.7401   -5.0470    0.0000 H   0  0  0  0  0  0  0  0  0  0  0  0
    0.2304   -4.0037    0.0000 H   0  0  0  0  0  0  0  0  0  0  0  0
    3.6142   -2.9165    0.0000 H   0  0  0  0  0  0  0  0  0  0  0  0
    1.7899   -2.9774    0.0000 H   0  0  0  0  0  0  0  0  0  0  0  0
   -3.2630   -1.5318    0.0000 H   0  0  0  0  0  0  0  0  0  0  0  0
   -4.1915    0.0763    0.0000 H   0  0  0  0  0  0  0  0  0  0  0  0
   -3.2630    1.6845    0.0000 H   0  0  0  0  0  0  0  0  0  0  0  0
   -1.4060    1.6845    0.0000 H   0  0  0  0  0  0  0  0  0  0  0  0
   -0.4775    0.0763    0.0000 H   0  0  0  0  0  0  0  0  0  0  0  0
  1  2  1  0  0  0  0
  1 42  1  0  0  0  0
  1 43  1  0  0  0  0
  1 44  1  0  0  0  0
  2  3  1  0  0  0  0
  2  4  1  0  0  0  0
  2 45  1  0  0  0  0
  3 46  1  0  0  0  0
  3 47  1  0  0  0  0
  3 48  1  0  0  0  0
  4  5  1  0  0  0  0
  4 49  1  0  0  0  0
  4 50  1  0  0  0  0
  5  6  1  0  0  0  0
  5 51  1  0  0  0  0
  5 52  1  0  0  0  0
  6  7  1  0  0  0  0
  6 33  1  0  0  0  0
  7  8  1  0  0  0  0
  7 53  1  0  0  0  0
  7 54  1  0  0  0  0
  8  9  1  0  0  0  0
  8 55  1  1  0  0  0
  9 56  1  0  0  0  0
 10  8  1  0  0  0  0
 10 11  1  0  0  0  0
 10 30  1  0  0  0  0
 10 57  1  1  0  0  0
 11 12  1  0  0  0  0
 11 58  1  0  0  0  0
 11 59  1  0  0  0  0
 12 13  2  0  0  0  0
 12 32  1  0  0  0  0
 13 14  1  0  0  0  0
 13 60  1  0  0  0  0
 14 15  2  0  0  0  0
 14 61  1  0  0  0  0
 15 16  1  0  0  0  0
 15 31  1  0  0  0  0
 16 17  1  0  0  0  0
 17 18  1  0  0  0  0
 17 62  1  0  0  0  0
 17 63  1  0  0  0  0
 18 19  1  0  0  0  0
 18 64  1  0  0  0  0
 18 65  1  0  0  0  0
 19 20  1  0  0  0  0
 19 66  1  0  0  0  0
 19 67  1  0  0  0  0
 20 21  2  0  0  0  0
 20 22  1  0  0  0  0
 22 23  1  0  0  0  0
 22 68  1  0  0  0  0
 23 24  1  0  0  0  0
 23 28  1  0  0  0  0
 23 69  1  6  0  0  0
 24 25  1  0  0  0  0
 24 70  1  0  0  0  0
 24 71  1  0  0  0  0
 25 26  1  0  0  0  0
 25 27  2  0  0  0  0
 26 72  1  0  0  0  0
 26 73  1  0  0  0  0
 28 29  2  0  0  0  0
 28 30  1  0  0  0  0
 30 74  1  0  0  0  0
 31 32  2  0  0  0  0
 31 75  1  0  0  0  0
 32 76  1  0  0  0  0
 33 34  2  0  0  0  0
 33 35  2  0  0  0  0
 33 36  1  0  0  0  0
 36 37  2  0  0  0  0
 36 41  1  0  0  0  0
 37 38  1  0  0  0  0
 37 77  1  0  0  0  0
 38 39  2  0  0  0  0
 38 78  1  0  0  0  0
 39 40  1  0  0  0  0
 39 79  1  0  0  0  0
 40 41  2  0  0  0  0
 40 80  1  0  0  0  0
 41 81  1  0  0  0  0
M  END
>  <DRUGBANK_ID>
DB02411

>  <SECONDARY_ACCESSION_NUMBERS>
EXPT01696

>  <COMMON_NAME>
2-(11-{2-[Benzenesulfonyl-(3-Methyl-Butyl)-Amino]-1-Hydroxy-Ethyl}-6,9-Dioxo-2-Oxa-7,10-Diaza-Bicyclo[11.2.2]Heptadeca-1(16),13(17),14-Trien-8-Yl)-Acetamide, Inhibitor 2

$$$$
