BN3
 OpenBabel10282417072D

 43 44  0  0  0  0  0  0  0  0999 V2000
   -4.3238    1.8731    0.0000 C   0  0  0  0  0  0  0  0  0  0  0  0
   -3.6094    1.4606    0.0000 C   0  0  0  0  0  0  0  0  0  0  0  0
   -3.6094    0.6356    0.0000 C   0  0  0  0  0  0  0  0  0  0  0  0
   -4.3238    0.2231    0.0000 C   0  0  0  0  0  0  0  0  0  0  0  0
   -4.3238   -0.6019    0.0000 Cl  0  0  0  0  0  0  0  0  0  0  0  0
   -5.0383    0.6356    0.0000 C   0  0  0  0  0  0  0  0  0  0  0  0
   -5.0383    1.4606    0.0000 C   0  0  0  0  0  0  0  0  0  0  0  0
   -2.1804    0.6356    0.0000 N   0  0  0  0  0  0  0  0  0  0  0  0
   -2.8949    0.2231    0.0000 C   0  0  0  0  0  0  0  0  0  0  0  0
   -2.8949   -0.6019    0.0000 O   0  0  0  0  0  0  0  0  0  0  0  0
   -0.7515    0.6356    0.0000 N   0  0  0  0  0  0  0  0  0  0  0  0
   -0.0370    0.2231    0.0000 C   0  0  0  0  0  0  0  0  0  0  0  0
    0.6774    0.6356    0.0000 C   0  0  0  0  0  0  0  0  0  0  0  0
    1.3919    0.2231    0.0000 C   0  0  0  0  0  0  0  0  0  0  0  0
    1.3919   -0.6019    0.0000 C   0  0  0  0  0  0  0  0  0  0  0  0
    2.1064   -1.0144    0.0000 O   0  0  0  0  0  0  0  0  0  0  0  0
    2.8209   -0.6019    0.0000 C   0  0  0  0  0  0  0  0  0  0  0  0
    3.5353   -1.0144    0.0000 C   0  0  0  0  0  0  0  0  0  0  0  0
    4.2498   -0.6019    0.0000 C   0  0  0  0  0  0  0  0  0  0  0  0
    0.6774   -1.0144    0.0000 C   0  0  0  0  0  0  0  0  0  0  0  0
   -0.0370   -0.6019    0.0000 C   0  0  0  0  0  0  0  0  0  0  0  0
   -1.4660    0.2231    0.0000 C   0  0  0  0  0  0  0  0  0  0  0  0
   -1.4660   -0.6019    0.0000 O   0  0  0  0  0  0  0  0  0  0  0  0
   -5.7528    1.8731    0.0000 Cl  0  0  0  0  0  0  0  0  0  0  0  0
   -0.7515   -1.0144    0.0000 Cl  0  0  0  0  0  0  0  0  0  0  0  0
    4.9643   -1.0144    0.0000 C   0  0  0  0  0  0  0  0  0  0  0  0
    5.6787   -0.6019    0.0000 O   0  0  0  0  0  0  0  0  0  0  0  0
    4.9643   -1.8394    0.0000 O   0  0  0  0  0  0  0  0  0  0  0  0
   -4.3238    2.9051    0.0000 H   0  0  0  0  0  0  0  0  0  0  0  0
   -2.7157    1.9766    0.0000 H   0  0  0  0  0  0  0  0  0  0  0  0
   -5.9320    0.1196    0.0000 H   0  0  0  0  0  0  0  0  0  0  0  0
   -2.1804    1.6201    0.0000 H   0  0  0  0  0  0  0  0  0  0  0  0
   -0.7515    1.6201    0.0000 H   0  0  0  0  0  0  0  0  0  0  0  0
    0.6774    1.6676    0.0000 H   0  0  0  0  0  0  0  0  0  0  0  0
    2.2856    0.7391    0.0000 H   0  0  0  0  0  0  0  0  0  0  0  0
    2.8209    0.4681    0.0000 H   0  0  0  0  0  0  0  0  0  0  0  0
    3.7476   -0.0669    0.0000 H   0  0  0  0  0  0  0  0  0  0  0  0
    3.5353   -2.0844    0.0000 H   0  0  0  0  0  0  0  0  0  0  0  0
    4.4619   -1.5494    0.0000 H   0  0  0  0  0  0  0  0  0  0  0  0
    4.2498    0.4681    0.0000 H   0  0  0  0  0  0  0  0  0  0  0  0
    5.1764   -0.0669    0.0000 H   0  0  0  0  0  0  0  0  0  0  0  0
    0.6774   -2.0464    0.0000 H   0  0  0  0  0  0  0  0  0  0  0  0
    6.4902   -1.0704    0.0000 H   0  0  0  0  0  0  0  0  0  0  0  0
  1  2  1  0  0  0  0
  1  7  2  0  0  0  0
  1 29  1  0  0  0  0
  2  3  2  0  0  0  0
  2 30  1  0  0  0  0
  3  4  1  0  0  0  0
  3  9  1  0  0  0  0
  4  5  1  0  0  0  0
  4  6  2  0  0  0  0
  6  7  1  0  0  0  0
  6 31  1  0  0  0  0
  7 24  1  0  0  0  0
  8  9  1  0  0  0  0
  8 22  1  0  0  0  0
  8 32  1  0  0  0  0
  9 10  2  0  0  0  0
 11 12  1  0  0  0  0
 11 22  1  0  0  0  0
 11 33  1  0  0  0  0
 12 13  2  0  0  0  0
 12 21  1  0  0  0  0
 13 14  1  0  0  0  0
 13 34  1  0  0  0  0
 14 15  2  0  0  0  0
 14 35  1  0  0  0  0
 15 16  1  0  0  0  0
 15 20  1  0  0  0  0
 16 17  1  0  0  0  0
 17 18  1  0  0  0  0
 17 36  1  0  0  0  0
 17 37  1  0  0  0  0
 18 19  1  0  0  0  0
 18 38  1  0  0  0  0
 18 39  1  0  0  0  0
 19 26  1  0  0  0  0
 19 40  1  0  0  0  0
 19 41  1  0  0  0  0
 20 21  2  0  0  0  0
 20 42  1  0  0  0  0
 21 25  1  0  0  0  0
 22 23  2  0  0  0  0
 26 27  1  0  0  0  0
 26 28  2  0  0  0  0
 27 43  1  0  0  0  0
M  END
>  <DRUGBANK_ID>
DB04643

>  <COMMON_NAME>
4-{3-CHLORO-4-[3-(2,4-DICHLORO-BENZOYL)-UREIDO]-PHENOXY}-BUTYRIC ACID

$$$$
