
 OpenBabel10282417072D

 53 56  0  0  0  0  0  0  0  0999 V2000
   -1.3492    0.0928    0.0000 C   0  0  0  0  0  0  0  0  0  0  0  0
   -2.0637   -0.3196    0.0000 C   0  0  0  0  0  0  0  0  0  0  0  0
   -1.3492   -1.5571    0.0000 C   0  0  0  0  0  0  0  0  0  0  0  0
   -0.6347   -1.1446    0.0000 C   0  0  2  0  0  0  0  0  0  0  0  0
    0.0797   -1.5571    0.0000 C   0  0  0  0  0  0  0  0  0  0  0  0
    0.7941   -1.1446    0.0000 C   0  0  0  0  0  0  0  0  0  0  0  0
   -0.6347   -0.3196    0.0000 C   0  0  2  0  0  0  0  0  0  0  0  0
    0.0797    0.9178    0.0000 C   0  0  0  0  0  0  0  0  0  0  0  0
    0.7941    1.3303    0.0000 C   0  0  0  0  0  0  0  0  0  0  0  0
    2.2932   -0.1620    0.0000 C   0  0  0  0  0  0  0  0  0  0  0  0
    2.7782    0.5053    0.0000 C   0  0  0  0  0  0  0  0  0  0  0  0
   -0.6347    0.5053    0.0000 C   0  0  0  0  0  0  0  0  0  0  0  0
   -0.6347   -1.9696    0.0000 H   0  0  0  0  0  0  0  0  0  0  0  0
    0.0797    0.0928    0.0000 C   0  0  1  0  0  0  0  0  0  0  0  0
    0.0797   -0.7321    0.0000 H   0  0  0  0  0  0  0  0  0  0  0  0
    0.7941   -0.3196    0.0000 C   0  0  2  0  0  0  0  0  0  0  0  0
    0.7941    0.5053    0.0000 H   0  0  0  0  0  0  0  0  0  0  0  0
    1.5086    0.0928    0.0000 C   0  0  1  0  0  0  0  0  0  0  0  0
    1.5086    0.9178    0.0000 C   0  0  2  0  0  0  0  0  0  0  0  0
    1.5086    1.7428    0.0000 C   0  0  0  0  0  0  0  0  0  0  0  0
    1.5086   -0.7321    0.0000 H   0  0  0  0  0  0  0  0  0  0  0  0
    2.2932    1.1727    0.0000 C   0  0  2  0  0  0  0  0  0  0  0  0
    2.5067    1.9696    0.0000 O   0  0  0  0  0  0  0  0  0  0  0  0
   -2.0637   -1.1446    0.0000 C   0  0  1  0  0  0  0  0  0  0  0  0
   -2.7782   -1.5571    0.0000 O   0  0  0  0  0  0  0  0  0  0  0  0
   -1.3492    1.1628    0.0000 H   0  0  0  0  0  0  0  0  0  0  0  0
   -2.2758    0.6279    0.0000 H   0  0  0  0  0  0  0  0  0  0  0  0
   -2.9903    0.2155    0.0000 H   0  0  0  0  0  0  0  0  0  0  0  0
   -2.9904   -0.8546    0.0000 H   0  0  0  0  0  0  0  0  0  0  0  0
   -1.3492   -2.6271    0.0000 H   0  0  0  0  0  0  0  0  0  0  0  0
   -2.2758   -2.0921    0.0000 H   0  0  0  0  0  0  0  0  0  0  0  0
    0.0797   -2.6271    0.0000 H   0  0  0  0  0  0  0  0  0  0  0  0
   -0.8470   -2.0921    0.0000 H   0  0  0  0  0  0  0  0  0  0  0  0
    1.7208   -1.6796    0.0000 H   0  0  0  0  0  0  0  0  0  0  0  0
    0.7941   -2.2146    0.0000 H   0  0  0  0  0  0  0  0  0  0  0  0
   -0.8470    1.4528    0.0000 H   0  0  0  0  0  0  0  0  0  0  0  0
    0.0797    1.9878    0.0000 H   0  0  0  0  0  0  0  0  0  0  0  0
    0.7941    2.4003    0.0000 H   0  0  0  0  0  0  0  0  0  0  0  0
   -0.1326    1.8653    0.0000 H   0  0  0  0  0  0  0  0  0  0  0  0
    2.6238   -1.1796    0.0000 H   0  0  0  0  0  0  0  0  0  0  0  0
    3.3500   -0.3295    0.0000 H   0  0  0  0  0  0  0  0  0  0  0  0
    3.8482    0.5053    0.0000 H   0  0  0  0  0  0  0  0  0  0  0  0
    3.2639   -0.4481    0.0000 H   0  0  0  0  0  0  0  0  0  0  0  0
    0.2919    1.0403    0.0000 H   0  0  0  0  0  0  0  0  0  0  0  0
   -1.5613    1.0403    0.0000 H   0  0  0  0  0  0  0  0  0  0  0  0
   -0.6347    1.5753    0.0000 H   0  0  0  0  0  0  0  0  0  0  0  0
    2.4352    2.2778    0.0000 H   0  0  0  0  0  0  0  0  0  0  0  0
    0.5820    2.2778    0.0000 H   0  0  0  0  0  0  0  0  0  0  0  0
    1.5086    2.8128    0.0000 H   0  0  0  0  0  0  0  0  0  0  0  0
    1.5171    1.9092    0.0000 H   0  0  0  0  0  0  0  0  0  0  0  0
    3.4436    2.2207    0.0000 H   0  0  0  0  0  0  0  0  0  0  0  0
   -2.0637   -2.2146    0.0000 H   0  0  0  0  0  0  0  0  0  0  0  0
   -3.6182   -1.0721    0.0000 H   0  0  0  0  0  0  0  0  0  0  0  0
  1 26  1  0  0  0  0
  1 27  1  0  0  0  0
  2  1  1  0  0  0  0
  2 28  1  0  0  0  0
  2 29  1  0  0  0  0
  3 30  1  0  0  0  0
  3 31  1  0  0  0  0
  4  3  1  0  0  0  0
  4  5  1  0  0  0  0
  4 13  1  6  0  0  0
  5  6  1  0  0  0  0
  5 32  1  0  0  0  0
  5 33  1  0  0  0  0
  6 34  1  0  0  0  0
  6 35  1  0  0  0  0
  7  4  1  0  0  0  0
  7 12  1  1  0  0  0
  7  1  1  0  0  0  0
  8  9  1  0  0  0  0
  8 36  1  0  0  0  0
  8 37  1  0  0  0  0
  9 38  1  0  0  0  0
  9 39  1  0  0  0  0
 10 40  1  0  0  0  0
 10 41  1  0  0  0  0
 11 22  1  0  0  0  0
 11 10  1  0  0  0  0
 11 42  1  0  0  0  0
 11 43  1  0  0  0  0
 12 44  1  0  0  0  0
 12 45  1  0  0  0  0
 12 46  1  0  0  0  0
 14  8  1  0  0  0  0
 14  7  1  0  0  0  0
 14 15  1  6  0  0  0
 16 14  1  0  0  0  0
 16  6  1  0  0  0  0
 16 17  1  1  0  0  0
 18 19  1  0  0  0  0
 18 16  1  0  0  0  0
 18 10  1  0  0  0  0
 18 21  1  6  0  0  0
 19 22  1  0  0  0  0
 19  9  1  0  0  0  0
 19 20  1  1  0  0  0
 20 47  1  0  0  0  0
 20 48  1  0  0  0  0
 20 49  1  0  0  0  0
 22 23  1  0  0  0  0
 22 50  1  1  0  0  0
 23 51  1  0  0  0  0
 24  3  1  0  0  0  0
 24  2  1  0  0  0  0
 24 25  1  0  0  0  0
 24 52  1  6  0  0  0
 25 53  1  0  0  0  0
M  END
>  <DRUGBANK_ID>
DB03926

>  <SECONDARY_ACCESSION_NUMBERS>
EXPT00531

>  <COMMON_NAME>
5alpha-androstane-3beta,17alpha-diol

>  <CAS_NUMBER>
5856-11-1

>  <UNII>
0IF82ZEY2K

>  <SYNONYMS>
3beta,17alpha-Dihydroxy-5alpha-androstane; 5alpha-Androstan-3beta,17alpha-diol; 5α-androstane-3β,17α-diol

$$$$
