
 OpenBabel10282417072D

 51 53  0  0  1  0  0  0  0  0999 V2000
    0.7145    9.2411    0.0000 C   0  0  0  0  0  0  0  0  0  0  0  0
    0.7145   10.0661    0.0000 C   0  0  0  0  0  0  0  0  0  0  0  0
    1.4289   10.4786    0.0000 C   0  0  0  0  0  0  0  0  0  0  0  0
    2.1434   10.0661    0.0000 C   0  0  0  0  0  0  0  0  0  0  0  0
    2.1434    9.2411    0.0000 C   0  0  0  0  0  0  0  0  0  0  0  0
    1.4289    8.8286    0.0000 C   0  0  0  0  0  0  0  0  0  0  0  0
    1.4289    8.0036    0.0000 S   0  0  0  0  0  0  0  0  0  0  0  0
    2.2539    8.0036    0.0000 O   0  0  0  0  0  0  0  0  0  0  0  0
    0.6039    8.0036    0.0000 O   0  0  0  0  0  0  0  0  0  0  0  0
    1.4289    7.1786    0.0000 N   0  0  0  0  0  0  0  0  0  0  0  0
    0.7145    6.7661    0.0000 C   0  0  0  0  0  0  0  0  0  0  0  0
    0.7145    5.9411    0.0000 C   0  0  0  0  0  0  0  0  0  0  0  0
    1.4289    5.5286    0.0000 C   0  0  0  0  0  0  0  0  0  0  0  0
    1.4289    4.7036    0.0000 C   0  0  0  0  0  0  0  0  0  0  0  0
    0.7145    4.2911    0.0000 C   0  0  0  0  0  0  0  0  0  0  0  0
    0.0000    4.7036    0.0000 C   0  0  0  0  0  0  0  0  0  0  0  0
   -0.0000    5.5286    0.0000 C   0  0  0  0  0  0  0  0  0  0  0  0
   -0.7145    5.9411    0.0000 F   0  0  0  0  0  0  0  0  0  0  0  0
    0.7145    3.4661    0.0000 C   0  0  0  0  0  0  0  0  0  0  0  0
    1.3819    2.9812    0.0000 N   0  0  0  0  0  0  0  0  0  0  0  0
    1.1270    2.1965    0.0000 C   0  0  0  0  0  0  0  0  0  0  0  0
    0.3020    2.1965    0.0000 O   0  0  0  0  0  0  0  0  0  0  0  0
    0.0470    2.9812    0.0000 N   0  0  0  0  0  0  0  0  0  0  0  0
    2.1434    6.7661    0.0000 C   0  0  2  0  0  0  0  0  0  0  0  0
    2.1434    5.9411    0.0000 C   0  0  0  0  0  0  0  0  0  0  0  0
    2.8579    5.5286    0.0000 C   0  0  0  0  0  0  0  0  0  0  0  0
    2.8579    4.7036    0.0000 C   0  0  0  0  0  0  0  0  0  0  0  0
    2.0329    4.7036    0.0000 F   0  0  0  0  0  0  0  0  0  0  0  0
    3.6829    4.7036    0.0000 F   0  0  0  0  0  0  0  0  0  0  0  0
    2.8579    3.8786    0.0000 F   0  0  0  0  0  0  0  0  0  0  0  0
    2.8579    7.1786    0.0000 C   0  0  0  0  0  0  0  0  0  0  0  0
    2.8579    8.0036    0.0000 O   0  0  0  0  0  0  0  0  0  0  0  0
    3.5724    6.7661    0.0000 N   0  0  0  0  0  0  0  0  0  0  0  0
    1.4289   11.3036    0.0000 Cl  0  0  0  0  0  0  0  0  0  0  0  0
   -0.1792    8.7251    0.0000 H   0  0  0  0  0  0  0  0  0  0  0  0
   -0.1792   10.5821    0.0000 H   0  0  0  0  0  0  0  0  0  0  0  0
    3.0371   10.5821    0.0000 H   0  0  0  0  0  0  0  0  0  0  0  0
    3.0371    8.7251    0.0000 H   0  0  0  0  0  0  0  0  0  0  0  0
   -0.2122    7.3011    0.0000 H   0  0  0  0  0  0  0  0  0  0  0  0
   -0.2121    6.2311    0.0000 H   0  0  0  0  0  0  0  0  0  0  0  0
    2.3226    6.0446    0.0000 H   0  0  0  0  0  0  0  0  0  0  0  0
    2.3226    4.1876    0.0000 H   0  0  0  0  0  0  0  0  0  0  0  0
   -0.8937    4.1876    0.0000 H   0  0  0  0  0  0  0  0  0  0  0  0
    1.7336    1.3616    0.0000 H   0  0  0  0  0  0  0  0  0  0  0  0
    1.2168    6.2311    0.0000 H   0  0  0  0  0  0  0  0  0  0  0  0
    1.2168    5.4061    0.0000 H   0  0  0  0  0  0  0  0  0  0  0  0
    2.1434    4.8711    0.0000 H   0  0  0  0  0  0  0  0  0  0  0  0
    3.7845    6.0636    0.0000 H   0  0  0  0  0  0  0  0  0  0  0  0
    3.7845    4.9936    0.0000 H   0  0  0  0  0  0  0  0  0  0  0  0
    3.5724    5.7816    0.0000 H   0  0  0  0  0  0  0  0  0  0  0  0
    4.4250    7.2584    0.0000 H   0  0  0  0  0  0  0  0  0  0  0  0
  1  2  2  0  0  0  0
  1  6  1  0  0  0  0
  1 35  1  0  0  0  0
  2  3  1  0  0  0  0
  2 36  1  0  0  0  0
  3  4  2  0  0  0  0
  3 34  1  0  0  0  0
  4  5  1  0  0  0  0
  4 37  1  0  0  0  0
  5  6  2  0  0  0  0
  5 38  1  0  0  0  0
  6  7  1  0  0  0  0
  7  8  2  0  0  0  0
  7  9  2  0  0  0  0
  7 10  1  0  0  0  0
 10 11  1  0  0  0  0
 11 12  1  0  0  0  0
 11 39  1  0  0  0  0
 11 40  1  0  0  0  0
 12 13  2  0  0  0  0
 12 17  1  0  0  0  0
 13 14  1  0  0  0  0
 13 41  1  0  0  0  0
 14 15  2  0  0  0  0
 14 42  1  0  0  0  0
 15 16  1  0  0  0  0
 15 19  1  0  0  0  0
 16 17  2  0  0  0  0
 16 43  1  0  0  0  0
 17 18  1  0  0  0  0
 19 20  1  0  0  0  0
 19 23  2  0  0  0  0
 20 21  2  0  0  0  0
 21 22  1  0  0  0  0
 21 44  1  0  0  0  0
 22 23  1  0  0  0  0
 24 10  1  0  0  0  0
 24 25  1  0  0  0  0
 24 31  1  0  0  0  0
 24 45  1  6  0  0  0
 25 26  1  0  0  0  0
 25 46  1  0  0  0  0
 25 47  1  0  0  0  0
 26 27  1  0  0  0  0
 26 48  1  0  0  0  0
 26 49  1  0  0  0  0
 27 28  1  0  0  0  0
 27 29  1  0  0  0  0
 27 30  1  0  0  0  0
 31 32  2  0  0  0  0
 31 33  1  0  0  0  0
 33 50  1  0  0  0  0
 33 51  1  0  0  0  0
M  END
>  <DRUGBANK_ID>
DB11893

>  <COMMON_NAME>
Avagacestat

>  <CAS_NUMBER>
1146699-66-2

>  <UNII>
TQ44WWY45Q

>  <SYNONYMS>
Avagacestat

$$$$
