EI1
 OpenBabel10282417072D

 33 35  0  0  0  0  0  0  0  0999 V2000
    0.5512   -1.7739    0.0000 C   0  0  0  0  0  0  0  0  0  0  0  0
   -0.0008   -1.1608    0.0000 C   0  0  0  0  0  0  0  0  0  0  0  0
    0.2541   -0.3762    0.0000 C   0  0  0  0  0  0  0  0  0  0  0  0
    1.0387   -0.1212    0.0000 C   0  0  0  0  0  0  0  0  0  0  0  0
    1.7532   -0.5337    0.0000 C   0  0  0  0  0  0  0  0  0  0  0  0
    2.4677   -0.1212    0.0000 C   0  0  0  0  0  0  0  0  0  0  0  0
    3.1821   -0.5337    0.0000 O   0  0  0  0  0  0  0  0  0  0  0  0
    2.4677    0.7038    0.0000 C   0  0  0  0  0  0  0  0  0  0  0  0
    1.7532    1.1163    0.0000 C   0  0  0  0  0  0  0  0  0  0  0  0
    1.0387    0.7038    0.0000 C   0  0  0  0  0  0  0  0  0  0  0  0
    0.2541    0.9587    0.0000 N   0  0  0  0  0  0  0  0  0  0  0  0
   -0.2308    0.2913    0.0000 N   0  0  0  0  0  0  0  0  0  0  0  0
   -1.0558    0.2913    0.0000 C   0  0  0  0  0  0  0  0  0  0  0  0
   -1.4683   -0.4232    0.0000 C   0  0  0  0  0  0  0  0  0  0  0  0
   -2.2933   -0.4232    0.0000 C   0  0  0  0  0  0  0  0  0  0  0  0
   -2.7058    0.2913    0.0000 C   0  0  0  0  0  0  0  0  0  0  0  0
   -3.5308    0.2913    0.0000 O   0  0  0  0  0  0  0  0  0  0  0  0
   -2.2933    1.0057    0.0000 C   0  0  0  0  0  0  0  0  0  0  0  0
   -1.4683    1.0057    0.0000 C   0  0  0  0  0  0  0  0  0  0  0  0
    0.2205   -2.7915    0.0000 H   0  0  0  0  0  0  0  0  0  0  0  0
    1.5978   -1.5515    0.0000 H   0  0  0  0  0  0  0  0  0  0  0  0
    1.2671   -2.5691    0.0000 H   0  0  0  0  0  0  0  0  0  0  0  0
   -1.0474   -1.3833    0.0000 H   0  0  0  0  0  0  0  0  0  0  0  0
   -0.7168   -0.3656    0.0000 H   0  0  0  0  0  0  0  0  0  0  0  0
    1.7532   -1.5657    0.0000 H   0  0  0  0  0  0  0  0  0  0  0  0
    3.1821   -1.4707    0.0000 H   0  0  0  0  0  0  0  0  0  0  0  0
    3.3614    1.2198    0.0000 H   0  0  0  0  0  0  0  0  0  0  0  0
    1.7532    2.1483    0.0000 H   0  0  0  0  0  0  0  0  0  0  0  0
   -0.9523   -1.3169    0.0000 H   0  0  0  0  0  0  0  0  0  0  0  0
   -2.8093   -1.3169    0.0000 H   0  0  0  0  0  0  0  0  0  0  0  0
   -3.9993    1.1028    0.0000 H   0  0  0  0  0  0  0  0  0  0  0  0
   -2.8093    1.8994    0.0000 H   0  0  0  0  0  0  0  0  0  0  0  0
   -0.9523    1.8994    0.0000 H   0  0  0  0  0  0  0  0  0  0  0  0
  1  2  1  0  0  0  0
  1 20  1  0  0  0  0
  1 21  1  0  0  0  0
  1 22  1  0  0  0  0
  2  3  1  0  0  0  0
  2 23  1  0  0  0  0
  2 24  1  0  0  0  0
  3 12  1  0  0  0  0
  3  4  2  0  0  0  0
  4 10  1  0  0  0  0
  4  5  1  0  0  0  0
  5  6  2  0  0  0  0
  5 25  1  0  0  0  0
  6  8  1  0  0  0  0
  6  7  1  0  0  0  0
  7 26  1  0  0  0  0
  8  9  2  0  0  0  0
  8 27  1  0  0  0  0
  9 10  1  0  0  0  0
  9 28  1  0  0  0  0
 10 11  2  0  0  0  0
 11 12  1  0  0  0  0
 12 13  1  0  0  0  0
 13 14  2  0  0  0  0
 13 19  1  0  0  0  0
 14 15  1  0  0  0  0
 14 29  1  0  0  0  0
 15 16  2  0  0  0  0
 15 30  1  0  0  0  0
 16 17  1  0  0  0  0
 16 18  1  0  0  0  0
 17 31  1  0  0  0  0
 18 19  2  0  0  0  0
 18 32  1  0  0  0  0
 19 33  1  0  0  0  0
M  END
>  <DRUGBANK_ID>
DB07712

>  <COMMON_NAME>
3-ETHYL-2-(4-HYDROXYPHENYL)-2H-INDAZOL-5-OL

$$$$
