
 OpenBabel10282417072D

 61 62  0  0  0  0  0  0  0  0999 V2000
    0.8493   -0.6091    0.0000 C   0  0  1  0  0  0  0  0  0  0  0  0
    0.1377   -1.0217    0.0000 C   0  0  2  0  0  0  0  0  0  0  0  0
    1.5713   -1.0217    0.0000 O   0  0  0  0  0  0  0  0  0  0  0  0
    0.8493    0.2159    0.0000 C   0  0  1  0  0  0  0  0  0  0  0  0
   -0.5773   -0.6091    0.0000 N   0  0  0  0  0  0  0  0  0  0  0  0
    0.1308   -1.8468    0.0000 C   0  0  1  0  0  0  0  0  0  0  0  0
    2.2830   -0.6091    0.0000 C   0  0  1  0  0  0  0  0  0  0  0  0
    1.5713    0.6284    0.0000 C   0  0  1  0  0  0  0  0  0  0  0  0
    0.1377    0.6319    0.0000 O   0  0  0  0  0  0  0  0  0  0  0  0
   -1.2958   -1.0183    0.0000 C   0  0  0  0  0  0  0  0  0  0  0  0
    0.8392   -2.2663    0.0000 C   0  0  0  0  0  0  0  0  0  0  0  0
   -0.5876   -2.2560    0.0000 O   0  0  0  0  0  0  0  0  0  0  0  0
    2.2830    0.2159    0.0000 C   0  0  1  0  0  0  0  0  0  0  0  0
    3.0015   -1.0217    0.0000 S   0  0  0  0  0  0  0  0  0  0  0  0
    1.5713    1.4606    0.0000 O   0  0  0  0  0  0  0  0  0  0  0  0
   -2.0159   -0.6071    0.0000 C   0  0  2  0  0  0  0  0  0  0  0  0
   -1.2958   -1.8434    0.0000 O   0  0  0  0  0  0  0  0  0  0  0  0
    3.0015    0.6284    0.0000 O   0  0  0  0  0  0  0  0  0  0  0  0
    3.7167   -0.6091    0.0000 C   0  0  0  0  0  0  0  0  0  0  0  0
   -2.2663    0.1745    0.0000 C   0  0  0  0  0  0  0  0  0  0  0  0
   -2.6794   -1.0861    0.0000 N   0  0  0  0  0  0  0  0  0  0  0  0
   -3.0862    0.1763    0.0000 C   0  0  2  0  0  0  0  0  0  0  0  0
   -3.3397   -0.6000    0.0000 C   0  0  0  0  0  0  0  0  0  0  0  0
   -2.6843   -1.9078    0.0000 C   0  0  0  0  0  0  0  0  0  0  0  0
   -1.4317   -0.0242    0.0000 H   0  0  0  0  0  0  0  0  0  0  0  0
   -3.5699    0.8449    0.0000 C   0  0  0  0  0  0  0  0  0  0  0  0
   -3.2329    1.5980    0.0000 C   0  0  0  0  0  0  0  0  0  0  0  0
   -3.7167    2.2663    0.0000 C   0  0  0  0  0  0  0  0  0  0  0  0
    0.8527   -1.6791    0.0000 H   0  0  0  0  0  0  0  0  0  0  0  0
   -0.7911   -1.5529    0.0000 H   0  0  0  0  0  0  0  0  0  0  0  0
   -0.0788   -0.3166    0.0000 H   0  0  0  0  0  0  0  0  0  0  0  0
   -0.5745    0.3754    0.0000 H   0  0  0  0  0  0  0  0  0  0  0  0
   -0.7920   -1.3052    0.0000 H   0  0  0  0  0  0  0  0  0  0  0  0
    2.2852   -1.6791    0.0000 H   0  0  0  0  0  0  0  0  0  0  0  0
    0.6459    1.1655    0.0000 H   0  0  0  0  0  0  0  0  0  0  0  0
    0.1430    1.6019    0.0000 H   0  0  0  0  0  0  0  0  0  0  0  0
    0.8274   -3.3362    0.0000 H   0  0  0  0  0  0  0  0  0  0  0  0
    1.7717   -1.7416    0.0000 H   0  0  0  0  0  0  0  0  0  0  0  0
    1.7599   -2.8115    0.0000 H   0  0  0  0  0  0  0  0  0  0  0  0
   -1.4248   -1.7661    0.0000 H   0  0  0  0  0  0  0  0  0  0  0  0
    3.2090   -0.3202    0.0000 H   0  0  0  0  0  0  0  0  0  0  0  0
    2.4113    1.9456    0.0000 H   0  0  0  0  0  0  0  0  0  0  0  0
    3.8404    0.1414    0.0000 H   0  0  0  0  0  0  0  0  0  0  0  0
    4.6432   -1.1444    0.0000 H   0  0  0  0  0  0  0  0  0  0  0  0
    3.7171    0.4609    0.0000 H   0  0  0  0  0  0  0  0  0  0  0  0
    4.6435   -0.0744    0.0000 H   0  0  0  0  0  0  0  0  0  0  0  0
   -1.6346    1.0382    0.0000 H   0  0  0  0  0  0  0  0  0  0  0  0
   -2.7495    1.1292    0.0000 H   0  0  0  0  0  0  0  0  0  0  0  0
   -2.5984    1.1286    0.0000 H   0  0  0  0  0  0  0  0  0  0  0  0
   -4.3586   -0.9267    0.0000 H   0  0  0  0  0  0  0  0  0  0  0  0
   -4.0943    0.1586    0.0000 H   0  0  0  0  0  0  0  0  0  0  0  0
   -3.6141   -2.4373    0.0000 H   0  0  0  0  0  0  0  0  0  0  0  0
   -1.7609   -2.4483    0.0000 H   0  0  0  0  0  0  0  0  0  0  0  0
   -2.6907   -2.9778    0.0000 H   0  0  0  0  0  0  0  0  0  0  0  0
   -4.6343    0.7351    0.0000 H   0  0  0  0  0  0  0  0  0  0  0  0
   -4.1972    1.7118    0.0000 H   0  0  0  0  0  0  0  0  0  0  0  0
   -2.1686    1.7079    0.0000 H   0  0  0  0  0  0  0  0  0  0  0  0
   -2.7960    2.5747    0.0000 H   0  0  0  0  0  0  0  0  0  0  0  0
   -3.2798    3.2430    0.0000 H   0  0  0  0  0  0  0  0  0  0  0  0
   -4.7810    2.1563    0.0000 H   0  0  0  0  0  0  0  0  0  0  0  0
   -4.3441    3.1330    0.0000 H   0  0  0  0  0  0  0  0  0  0  0  0
  1  2  1  0  0  0  0
  1  3  1  0  0  0  0
  1  4  1  0  0  0  0
  1 29  1  1  0  0  0
  2  5  1  0  0  0  0
  2  6  1  0  0  0  0
  2 30  1  6  0  0  0
  3  7  1  0  0  0  0
  4  8  1  0  0  0  0
  4  9  1  0  0  0  0
  4 31  1  1  0  0  0
  5 10  1  0  0  0  0
  5 32  1  0  0  0  0
  6 11  1  0  0  0  0
  6 12  1  0  0  0  0
  6 33  1  6  0  0  0
  7 13  1  0  0  0  0
  7 14  1  0  0  0  0
  7 34  1  6  0  0  0
  8 15  1  0  0  0  0
  8 13  1  0  0  0  0
  8 35  1  1  0  0  0
  9 36  1  0  0  0  0
 10 16  1  0  0  0  0
 10 17  2  0  0  0  0
 11 37  1  0  0  0  0
 11 38  1  0  0  0  0
 11 39  1  0  0  0  0
 12 40  1  0  0  0  0
 13 18  1  0  0  0  0
 13 41  1  6  0  0  0
 14 19  1  0  0  0  0
 15 42  1  0  0  0  0
 16 20  1  0  0  0  0
 16 21  1  0  0  0  0
 16 25  1  6  0  0  0
 18 43  1  0  0  0  0
 19 44  1  0  0  0  0
 19 45  1  0  0  0  0
 19 46  1  0  0  0  0
 20 22  1  0  0  0  0
 20 47  1  0  0  0  0
 20 48  1  0  0  0  0
 21 23  1  0  0  0  0
 21 24  1  0  0  0  0
 22 23  1  0  0  0  0
 22 26  1  0  0  0  0
 22 49  1  1  0  0  0
 23 50  1  0  0  0  0
 23 51  1  0  0  0  0
 24 52  1  0  0  0  0
 24 53  1  0  0  0  0
 24 54  1  0  0  0  0
 26 27  1  0  0  0  0
 26 55  1  0  0  0  0
 26 56  1  0  0  0  0
 27 28  1  0  0  0  0
 27 57  1  0  0  0  0
 27 58  1  0  0  0  0
 28 59  1  0  0  0  0
 28 60  1  0  0  0  0
 28 61  1  0  0  0  0
M  END
>  <DRUGBANK_ID>
DB01627

>  <COMMON_NAME>
Lincomycin

>  <CAS_NUMBER>
154-21-2

>  <UNII>
BOD072YW0F

>  <SYNONYMS>
Cillimycin; LCM; Lincomicina; Lincomycin; Lincomycine; Lincomycinum

$$$$
