304
 OpenBabel10282417072D

 53 56  0  0  1  0  0  0  0  0999 V2000
    5.9104    1.5551    0.0000 O   0  0  0  0  0  0  0  0  0  0  0  0
    5.3833    0.5186    0.0000 C   0  0  1  0  0  0  0  0  0  0  0  0
    5.3833   -0.3064    0.0000 C   0  0  2  0  0  0  0  0  0  0  0  0
    4.6689   -0.7189    0.0000 C   0  0  1  0  0  0  0  0  0  0  0  0
    3.9544   -0.3064    0.0000 C   0  0  1  0  0  0  0  0  0  0  0  0
    6.1640    0.7700    0.0000 C   0  0  2  0  0  0  0  0  0  0  0  0
    6.1640   -0.5579    0.0000 C   0  0  0  0  0  0  0  0  0  0  0  0
    4.6689    0.9311    0.0000 C   0  0  0  0  0  0  0  0  0  0  0  0
    6.6455    0.1061    0.0000 C   0  0  0  0  0  0  0  0  0  0  0  0
    3.2036   -0.7246    0.0000 C   0  0  2  0  0  0  0  0  0  0  0  0
    4.6821   -1.5783    0.0000 C   0  0  0  0  0  0  0  0  0  0  0  0
    3.9544    0.5186    0.0000 C   0  0  0  0  0  0  0  0  0  0  0  0
    5.3833    1.3436    0.0000 C   0  0  0  0  0  0  0  0  0  0  0  0
    3.9412   -2.0136    0.0000 C   0  0  0  0  0  0  0  0  0  0  0  0
    3.1970   -1.5840    0.0000 C   0  0  0  0  0  0  0  0  0  0  0  0
    2.4389   -0.2592    0.0000 C   0  0  0  0  0  0  0  0  0  0  0  0
    4.6689    1.7561    0.0000 C   0  0  0  0  0  0  0  0  0  0  0  0
    6.8323    1.2538    0.0000 C   0  0  0  0  0  0  0  0  0  0  0  0
    1.6570   -0.6948    0.0000 C   0  0  0  0  0  0  0  0  0  0  0  0
    2.4252   -2.0375    0.0000 C   0  0  0  0  0  0  0  0  0  0  0  0
    3.2399    0.9311    0.0000 C   0  0  0  0  0  0  0  0  0  0  0  0
    1.6500   -1.5899    0.0000 C   0  0  0  0  0  0  0  0  0  0  0  0
    7.5006    1.7376    0.0000 C   0  0  0  0  0  0  0  0  0  0  0  0
    5.4532   -0.9628    0.0000 H   0  0  0  0  0  0  0  0  0  0  0  0
    5.2430   -1.0446    0.0000 H   0  0  0  0  0  0  0  0  0  0  0  0
    4.5260    0.0236    0.0000 H   0  0  0  0  0  0  0  0  0  0  0  0
    3.2163   -0.0647    0.0000 H   0  0  0  0  0  0  0  0  0  0  0  0
    6.5607    2.2748    0.0000 H   0  0  0  0  0  0  0  0  0  0  0  0
    6.4964   -1.5750    0.0000 H   0  0  0  0  0  0  0  0  0  0  0  0
    7.2210   -0.7239    0.0000 H   0  0  0  0  0  0  0  0  0  0  0  0
    4.6689    2.0011    0.0000 H   0  0  0  0  0  0  0  0  0  0  0  0
    3.7423    1.4661    0.0000 H   0  0  0  0  0  0  0  0  0  0  0  0
    7.7155    0.1061    0.0000 H   0  0  0  0  0  0  0  0  0  0  0  0
    7.1317   -0.8470    0.0000 H   0  0  0  0  0  0  0  0  0  0  0  0
    5.6148   -2.1026    0.0000 H   0  0  0  0  0  0  0  0  0  0  0  0
    4.6923   -2.6483    0.0000 H   0  0  0  0  0  0  0  0  0  0  0  0
    6.3100    1.8786    0.0000 H   0  0  0  0  0  0  0  0  0  0  0  0
    5.3833    2.4136    0.0000 H   0  0  0  0  0  0  0  0  0  0  0  0
    3.9453   -3.0836    0.0000 H   0  0  0  0  0  0  0  0  0  0  0  0
    3.0156   -2.5504    0.0000 H   0  0  0  0  0  0  0  0  0  0  0  0
    2.4595    0.8106    0.0000 H   0  0  0  0  0  0  0  0  0  0  0  0
    1.5216    0.2917    0.0000 H   0  0  0  0  0  0  0  0  0  0  0  0
    4.6689    2.8261    0.0000 H   0  0  0  0  0  0  0  0  0  0  0  0
    3.7422    1.2211    0.0000 H   0  0  0  0  0  0  0  0  0  0  0  0
    3.7423    2.2911    0.0000 H   0  0  0  0  0  0  0  0  0  0  0  0
    0.7366   -0.1491    0.0000 H   0  0  0  0  0  0  0  0  0  0  0  0
    0.7252   -1.2208    0.0000 H   0  0  0  0  0  0  0  0  0  0  0  0
    2.4291   -3.0695    0.0000 H   0  0  0  0  0  0  0  0  0  0  0  0
    3.2399    1.9631    0.0000 H   0  0  0  0  0  0  0  0  0  0  0  0
    2.3462    0.4151    0.0000 H   0  0  0  0  0  0  0  0  0  0  0  0
    0.7213   -2.1213    0.0000 H   0  0  0  0  0  0  0  0  0  0  0  0
    1.6479   -2.6599    0.0000 H   0  0  0  0  0  0  0  0  0  0  0  0
    8.3058    2.3205    0.0000 H   0  0  0  0  0  0  0  0  0  0  0  0
  1 28  1  0  0  0  0
  2  3  1  0  0  0  0
  2  6  1  0  0  0  0
  2  8  1  0  0  0  0
  2 13  1  1  0  0  0
  3  4  1  0  0  0  0
  3  7  1  0  0  0  0
  3 24  1  6  0  0  0
  4  5  1  0  0  0  0
  4 11  1  0  0  0  0
  4 25  1  1  0  0  0
  5 10  1  0  0  0  0
  5 12  1  0  0  0  0
  5 26  1  6  0  0  0
  6  1  1  0  0  0  0
  6  9  1  0  0  0  0
  6 18  1  6  0  0  0
  7  9  1  0  0  0  0
  7 29  1  0  0  0  0
  7 30  1  0  0  0  0
  8 12  1  0  0  0  0
  8 31  1  0  0  0  0
  8 32  1  0  0  0  0
  9 33  1  0  0  0  0
  9 34  1  0  0  0  0
 10 15  1  0  0  0  0
 10 16  1  0  0  0  0
 10 27  1  1  0  0  0
 11 14  1  0  0  0  0
 11 35  1  0  0  0  0
 11 36  1  0  0  0  0
 12 21  2  0  0  0  0
 13 17  1  0  0  0  0
 13 37  1  0  0  0  0
 13 38  1  0  0  0  0
 14 15  1  0  0  0  0
 14 39  1  0  0  0  0
 14 40  1  0  0  0  0
 15 20  2  0  0  0  0
 16 19  1  0  0  0  0
 16 41  1  0  0  0  0
 16 42  1  0  0  0  0
 17 43  1  0  0  0  0
 17 44  1  0  0  0  0
 17 45  1  0  0  0  0
 18 23  3  0  0  0  0
 19 22  1  0  0  0  0
 19 46  1  0  0  0  0
 19 47  1  0  0  0  0
 20 22  1  0  0  0  0
 20 48  1  0  0  0  0
 21 49  1  0  0  0  0
 21 50  1  0  0  0  0
 22 51  1  0  0  0  0
 22 52  1  0  0  0  0
 23 53  1  0  0  0  0
M  END
>  <DRUGBANK_ID>
DB00304

>  <SECONDARY_ACCESSION_NUMBERS>
APRD00762

>  <COMMON_NAME>
Desogestrel

>  <CAS_NUMBER>
54024-22-5

>  <UNII>
81K9V7M3A3

>  <SYNONYMS>
13-Ethyl-11-methylene-18,19-dinor-17α-pregn-4-en-20-yn-17-ol; Desogestrel; Désogestrel; Desogestrelum

$$$$
