
 OpenBabel10282417072D

 50 51  0  0  0  0  0  0  0  0999 V2000
   -4.1250    2.3649    0.0000 O   0  0  0  0  0  0  0  0  0  0  0  0
   -2.8875    3.0793    0.0000 O   0  0  0  0  0  0  0  0  0  0  0  0
   -2.0625    0.2214    0.0000 O   0  0  0  0  0  0  0  0  0  0  0  0
   -5.3625    0.2214    0.0000 O   0  0  0  0  0  0  0  0  0  0  0  0
   -4.1250   -0.4929    0.0000 O   0  0  0  0  0  0  0  0  0  0  0  0
    1.6500   -0.4929    0.0000 O   0  0  0  0  0  0  0  0  0  0  0  0
    5.3625   -1.2075    0.0000 O   0  0  0  0  0  0  0  0  0  0  0  0
   -2.0625    1.6503    0.0000 N   0  0  0  0  0  0  0  0  0  0  0  0
    1.6500    0.9359    0.0000 N   0  0  0  0  0  0  0  0  0  0  0  0
    2.8875    0.2214    0.0000 N   0  0  0  0  0  0  0  0  0  0  0  0
    2.8875   -1.2075    0.0000 N   0  0  0  0  0  0  0  0  0  0  0  0
    4.1250   -1.9219    0.0000 N   0  0  0  0  0  0  0  0  0  0  0  0
    4.5375    0.2214    0.0000 N   0  0  0  0  0  0  0  0  0  0  0  0
    2.8875   -2.6364    0.0000 N   0  0  0  0  0  0  0  0  0  0  0  0
   -2.8875    1.6503    0.0000 C   0  0  1  0  0  0  0  0  0  0  0  0
   -3.3000    0.9359    0.0000 C   0  0  0  0  0  0  0  0  0  0  0  0
   -4.1250    0.9359    0.0000 C   0  0  0  0  0  0  0  0  0  0  0  0
   -3.3000    2.3649    0.0000 C   0  0  0  0  0  0  0  0  0  0  0  0
   -1.6500    0.9359    0.0000 C   0  0  0  0  0  0  0  0  0  0  0  0
   -0.8250    0.9359    0.0000 C   0  0  0  0  0  0  0  0  0  0  0  0
   -4.5375    0.2214    0.0000 C   0  0  0  0  0  0  0  0  0  0  0  0
   -0.4125    1.6503    0.0000 C   0  0  0  0  0  0  0  0  0  0  0  0
   -0.4125    0.2214    0.0000 C   0  0  0  0  0  0  0  0  0  0  0  0
    0.8250    0.9359    0.0000 C   0  0  0  0  0  0  0  0  0  0  0  0
    0.4125    1.6503    0.0000 C   0  0  0  0  0  0  0  0  0  0  0  0
    0.4125    0.2214    0.0000 C   0  0  0  0  0  0  0  0  0  0  0  0
    3.3000   -0.4929    0.0000 C   0  0  0  0  0  0  0  0  0  0  0  0
    2.0625    0.2214    0.0000 C   0  0  0  0  0  0  0  0  0  0  0  0
    4.1250   -0.4929    0.0000 C   0  0  0  0  0  0  0  0  0  0  0  0
    3.3000   -1.9219    0.0000 C   0  0  0  0  0  0  0  0  0  0  0  0
    4.5375   -1.2075    0.0000 C   0  0  0  0  0  0  0  0  0  0  0  0
   -1.8067    2.0933    0.0000 H   0  0  0  0  0  0  0  0  0  0  0  0
    1.9057    1.3789    0.0000 H   0  0  0  0  0  0  0  0  0  0  0  0
    3.1432    0.6644    0.0000 H   0  0  0  0  0  0  0  0  0  0  0  0
    2.3760   -1.2075    0.0000 H   0  0  0  0  0  0  0  0  0  0  0  0
    4.2817    0.6644    0.0000 H   0  0  0  0  0  0  0  0  0  0  0  0
    5.0490    0.2214    0.0000 H   0  0  0  0  0  0  0  0  0  0  0  0
    2.3760   -2.6364    0.0000 H   0  0  0  0  0  0  0  0  0  0  0  0
    3.1432   -3.0793    0.0000 H   0  0  0  0  0  0  0  0  0  0  0  0
   -4.5935    3.1764    0.0000 H   0  0  0  0  0  0  0  0  0  0  0  0
   -5.8310    1.0329    0.0000 H   0  0  0  0  0  0  0  0  0  0  0  0
   -2.3525    0.7236    0.0000 H   0  0  0  0  0  0  0  0  0  0  0  0
   -2.7650    0.0092    0.0000 H   0  0  0  0  0  0  0  0  0  0  0  0
   -3.8350    0.0093    0.0000 H   0  0  0  0  0  0  0  0  0  0  0  0
   -4.6600    1.8625    0.0000 H   0  0  0  0  0  0  0  0  0  0  0  0
   -5.1950    0.9359    0.0000 H   0  0  0  0  0  0  0  0  0  0  0  0
   -0.9285    2.5440    0.0000 H   0  0  0  0  0  0  0  0  0  0  0  0
   -0.9285   -0.6723    0.0000 H   0  0  0  0  0  0  0  0  0  0  0  0
    0.9285    2.5440    0.0000 H   0  0  0  0  0  0  0  0  0  0  0  0
    0.9285   -0.6723    0.0000 H   0  0  0  0  0  0  0  0  0  0  0  0
  1 18  1  0  0  0  0
  1 40  1  0  0  0  0
  2 18  2  0  0  0  0
  3 19  2  0  0  0  0
  4 21  1  0  0  0  0
  4 41  1  0  0  0  0
  5 21  2  0  0  0  0
  6 28  2  0  0  0  0
  7 31  2  0  0  0  0
  8 19  1  0  0  0  0
  8 32  1  0  0  0  0
  9 24  1  0  0  0  0
  9 28  1  0  0  0  0
  9 33  1  0  0  0  0
 10 27  1  0  0  0  0
 10 28  1  0  0  0  0
 10 34  1  0  0  0  0
 11 27  1  0  0  0  0
 11 30  1  0  0  0  0
 11 35  1  0  0  0  0
 12 30  2  0  0  0  0
 12 31  1  0  0  0  0
 13 29  1  0  0  0  0
 13 36  1  0  0  0  0
 13 37  1  0  0  0  0
 14 30  1  0  0  0  0
 14 38  1  0  0  0  0
 14 39  1  0  0  0  0
 15  8  1  0  0  0  0
 15 16  1  0  0  0  0
 15 18  1  0  0  0  0
 15 42  1  6  0  0  0
 16 17  1  0  0  0  0
 16 43  1  0  0  0  0
 16 44  1  0  0  0  0
 17 21  1  0  0  0  0
 17 45  1  0  0  0  0
 17 46  1  0  0  0  0
 19 20  1  0  0  0  0
 20 22  2  0  0  0  0
 20 23  1  0  0  0  0
 22 25  1  0  0  0  0
 22 47  1  0  0  0  0
 23 26  2  0  0  0  0
 23 48  1  0  0  0  0
 24 25  2  0  0  0  0
 24 26  1  0  0  0  0
 25 49  1  0  0  0  0
 26 50  1  0  0  0  0
 27 29  2  0  0  0  0
 29 31  1  0  0  0  0
M  END
>  <DRUGBANK_ID>
DB02358

>  <SECONDARY_ACCESSION_NUMBERS>
EXPT01992

>  <COMMON_NAME>
LY374571

$$$$
