5RM
 OpenBabel10282417072D

 38 39  0  0  0  0  0  0  0  0999 V2000
    2.5156   -3.3131    0.0000 O   0  0  0  0  0  0  0  0  0  0  0  0
    2.0307   -2.6457    0.0000 C   0  0  0  0  0  0  0  0  0  0  0  0
    1.2057   -2.6457    0.0000 O   0  0  0  0  0  0  0  0  0  0  0  0
    2.2857   -1.8611    0.0000 N   0  0  0  0  0  0  0  0  0  0  0  0
    1.6182   -1.3761    0.0000 C   0  0  0  0  0  0  0  0  0  0  0  0
    0.9508   -1.8611    0.0000 C   0  0  2  0  0  0  0  0  0  0  0  0
    0.1421   -2.0241    0.0000 C   0  0  0  0  0  0  0  0  0  0  0  0
    0.3924   -1.2538    0.0000 C   0  0  0  0  0  0  0  0  0  0  0  0
   -0.4128   -1.4338    0.0000 C   0  0  0  0  0  0  0  0  0  0  0  0
   -0.9712   -0.8265    0.0000 C   0  0  0  0  0  0  0  0  0  0  0  0
   -0.7245   -0.0392    0.0000 C   0  0  0  0  0  0  0  0  0  0  0  0
   -1.2829    0.5681    0.0000 O   0  0  0  0  0  0  0  0  0  0  0  0
   -1.0362    1.3553    0.0000 C   0  0  0  0  0  0  0  0  0  0  0  0
    0.0807    0.1407    0.0000 C   0  0  0  0  0  0  0  0  0  0  0  0
    0.6391   -0.4665    0.0000 C   0  0  0  0  0  0  0  0  0  0  0  0
    0.3274    0.9280    0.0000 O   0  0  0  0  0  0  0  0  0  0  0  0
   -0.2311    1.5353    0.0000 C   0  0  0  0  0  0  0  0  0  0  0  0
    0.0156    2.3225    0.0000 C   0  0  0  0  0  0  0  0  0  0  0  0
   -0.5428    2.9298    0.0000 C   0  0  0  0  0  0  0  0  0  0  0  0
    3.2220   -1.5569    0.0000 H   0  0  0  0  0  0  0  0  0  0  0  0
    1.6182   -0.3061    0.0000 H   0  0  0  0  0  0  0  0  0  0  0  0
    0.6648   -0.8904    0.0000 H   0  0  0  0  0  0  0  0  0  0  0  0
   -0.5654   -1.2214    0.0000 H   0  0  0  0  0  0  0  0  0  0  0  0
   -0.1993   -3.0382    0.0000 H   0  0  0  0  0  0  0  0  0  0  0  0
   -0.9068   -2.2355    0.0000 H   0  0  0  0  0  0  0  0  0  0  0  0
   -0.7214   -2.4186    0.0000 H   0  0  0  0  0  0  0  0  0  0  0  0
   -1.9783   -1.0516    0.0000 H   0  0  0  0  0  0  0  0  0  0  0  0
    0.0080    1.5887    0.0000 H   0  0  0  0  0  0  0  0  0  0  0  0
   -1.7605    2.1429    0.0000 H   0  0  0  0  0  0  0  0  0  0  0  0
   -0.7162    2.3763    0.0000 H   0  0  0  0  0  0  0  0  0  0  0  0
    1.6462   -0.2413    0.0000 H   0  0  0  0  0  0  0  0  0  0  0  0
   -1.2753    1.3019    0.0000 H   0  0  0  0  0  0  0  0  0  0  0  0
   -0.9554    2.3229    0.0000 H   0  0  0  0  0  0  0  0  0  0  0  0
    1.0598    2.5559    0.0000 H   0  0  0  0  0  0  0  0  0  0  0  0
    0.3356    3.3435    0.0000 H   0  0  0  0  0  0  0  0  0  0  0  0
   -0.2228    3.9508    0.0000 H   0  0  0  0  0  0  0  0  0  0  0  0
   -1.5870    2.6964    0.0000 H   0  0  0  0  0  0  0  0  0  0  0  0
   -1.2670    3.7175    0.0000 H   0  0  0  0  0  0  0  0  0  0  0  0
  1  2  2  0  0  0  0
  2  3  1  0  0  0  0
  2  4  1  0  0  0  0
  3  6  1  0  0  0  0
  4  5  1  0  0  0  0
  4 20  1  0  0  0  0
  5  6  1  0  0  0  0
  5 21  1  0  0  0  0
  5 22  1  0  0  0  0
  6  7  1  1  0  0  0
  6  8  1  0  0  0  0
  7 23  1  0  0  0  0
  7 24  1  0  0  0  0
  7 25  1  0  0  0  0
  8  9  2  0  0  0  0
  8 15  1  0  0  0  0
  9 10  1  0  0  0  0
  9 26  1  0  0  0  0
 10 11  2  0  0  0  0
 10 27  1  0  0  0  0
 11 12  1  0  0  0  0
 11 14  1  0  0  0  0
 12 13  1  0  0  0  0
 13 28  1  0  0  0  0
 13 29  1  0  0  0  0
 13 30  1  0  0  0  0
 14 15  2  0  0  0  0
 14 16  1  0  0  0  0
 15 31  1  0  0  0  0
 16 17  1  0  0  0  0
 17 18  1  0  0  0  0
 17 32  1  0  0  0  0
 17 33  1  0  0  0  0
 18 19  1  0  0  0  0
 18 34  1  0  0  0  0
 18 35  1  0  0  0  0
 19 36  1  0  0  0  0
 19 37  1  0  0  0  0
 19 38  1  0  0  0  0
M  END
>  <DRUGBANK_ID>
DB01647

>  <SECONDARY_ACCESSION_NUMBERS>
EXPT00259

>  <COMMON_NAME>
Daxalipram

>  <CAS_NUMBER>
189940-24-7

>  <UNII>
0RB5T277IY

>  <SYNONYMS>
(R)-Mesopram; Daxalipram

$$$$
