
 OpenBabel10282417072D

152153  0  0  1  0  0  0  0  0999 V2000
  -14.8592  -10.3902    0.0000 C   0  0  0  0  0  0  0  0  0  0  0  0
  -14.0342  -10.3902    0.0000 C   0  0  0  0  0  0  0  0  0  0  0  0
  -13.6217   -9.6758    0.0000 C   0  0  2  0  0  0  0  0  0  0  0  0
  -14.0342   -8.9613    0.0000 C   0  0  0  0  0  0  0  0  0  0  0  0
  -12.7967   -9.6758    0.0000 C   0  0  2  0  0  0  0  0  0  0  0  0
  -12.3842   -8.9613    0.0000 N   0  0  0  0  0  0  0  0  0  0  0  0
  -11.5592   -8.9613    0.0000 C   0  0  0  0  0  0  0  0  0  0  0  0
  -11.1467   -9.6758    0.0000 O   0  0  0  0  0  0  0  0  0  0  0  0
  -11.1467   -8.2468    0.0000 C   0  0  2  0  0  0  0  0  0  0  0  0
  -11.5592   -7.5324    0.0000 C   0  0  0  0  0  0  0  0  0  0  0  0
  -11.1467   -6.8179    0.0000 C   0  0  0  0  0  0  0  0  0  0  0  0
  -11.5592   -6.1034    0.0000 C   0  0  0  0  0  0  0  0  0  0  0  0
  -11.1467   -5.3890    0.0000 N   0  0  0  0  0  0  0  0  0  0  0  0
  -11.5592   -4.6745    0.0000 C   0  0  0  0  0  0  0  0  0  0  0  0
  -12.3842   -4.6745    0.0000 N   0  0  0  0  0  0  0  0  0  0  0  0
  -11.1467   -3.9600    0.0000 N   0  0  0  0  0  0  0  0  0  0  0  0
  -10.3217   -8.2468    0.0000 N   0  0  0  0  0  0  0  0  0  0  0  0
   -9.9092   -7.5324    0.0000 C   0  0  0  0  0  0  0  0  0  0  0  0
  -10.3217   -6.8179    0.0000 O   0  0  0  0  0  0  0  0  0  0  0  0
   -9.0842   -7.5324    0.0000 C   0  0  2  0  0  0  0  0  0  0  0  0
   -8.6717   -8.2468    0.0000 C   0  0  0  0  0  0  0  0  0  0  0  0
   -9.0842   -8.9613    0.0000 C   0  0  0  0  0  0  0  0  0  0  0  0
   -8.6717   -9.6758    0.0000 N   0  0  0  0  0  0  0  0  0  0  0  0
   -9.9092   -8.9613    0.0000 O   0  0  0  0  0  0  0  0  0  0  0  0
   -8.6717   -6.8179    0.0000 N   0  0  0  0  0  0  0  0  0  0  0  0
   -7.8467   -6.8179    0.0000 C   0  0  0  0  0  0  0  0  0  0  0  0
   -7.4342   -7.5324    0.0000 O   0  0  0  0  0  0  0  0  0  0  0  0
   -7.4342   -6.1034    0.0000 C   0  0  0  0  0  0  0  0  0  0  0  0
   -6.6092   -6.1034    0.0000 N   0  0  0  0  0  0  0  0  0  0  0  0
   -6.1967   -5.3890    0.0000 C   0  0  0  0  0  0  0  0  0  0  0  0
   -6.6092   -4.6745    0.0000 O   0  0  0  0  0  0  0  0  0  0  0  0
   -5.3717   -5.3890    0.0000 C   0  0  2  0  0  0  0  0  0  0  0  0
   -4.9592   -6.1034    0.0000 C   0  0  0  0  0  0  0  0  0  0  0  0
   -5.3717   -6.8179    0.0000 C   0  0  0  0  0  0  0  0  0  0  0  0
   -4.9592   -7.5324    0.0000 O   0  0  0  0  0  0  0  0  0  0  0  0
   -6.1967   -6.8179    0.0000 O   0  0  0  0  0  0  0  0  0  0  0  0
   -4.9592   -4.6745    0.0000 N   0  0  0  0  0  0  0  0  0  0  0  0
   -4.1342   -4.6745    0.0000 C   0  0  0  0  0  0  0  0  0  0  0  0
   -3.7217   -5.3890    0.0000 O   0  0  0  0  0  0  0  0  0  0  0  0
   -3.7217   -3.9600    0.0000 C   0  0  2  0  0  0  0  0  0  0  0  0
   -4.0572   -3.2063    0.0000 C   0  0  0  0  0  0  0  0  0  0  0  0
   -3.4441   -2.6543    0.0000 C   0  0  0  0  0  0  0  0  0  0  0  0
   -2.7296   -3.0668    0.0000 C   0  0  0  0  0  0  0  0  0  0  0  0
   -2.9012   -3.8738    0.0000 N   0  0  0  0  0  0  0  0  0  0  0  0
   -2.3491   -4.4869    0.0000 C   0  0  0  0  0  0  0  0  0  0  0  0
   -2.6041   -5.2715    0.0000 O   0  0  0  0  0  0  0  0  0  0  0  0
   -1.5422   -4.3153    0.0000 C   0  0  1  0  0  0  0  0  0  0  0  0
   -0.9901   -4.9284    0.0000 N   0  0  0  0  0  0  0  0  0  0  0  0
   -0.1832   -4.7569    0.0000 C   0  0  0  0  0  0  0  0  0  0  0  0
    0.0718   -3.9723    0.0000 O   0  0  0  0  0  0  0  0  0  0  0  0
    0.3689   -5.3700    0.0000 C   0  0  2  0  0  0  0  0  0  0  0  0
    1.1758   -5.1985    0.0000 C   0  0  0  0  0  0  0  0  0  0  0  0
    1.4308   -4.4139    0.0000 C   0  0  0  0  0  0  0  0  0  0  0  0
    0.8787   -3.8008    0.0000 C   0  0  0  0  0  0  0  0  0  0  0  0
    1.1337   -3.0161    0.0000 C   0  0  0  0  0  0  0  0  0  0  0  0
    1.9407   -2.8446    0.0000 C   0  0  0  0  0  0  0  0  0  0  0  0
    2.4927   -3.4577    0.0000 C   0  0  0  0  0  0  0  0  0  0  0  0
    2.2378   -4.2423    0.0000 C   0  0  0  0  0  0  0  0  0  0  0  0
    0.1139   -6.1546    0.0000 N   0  0  0  0  0  0  0  0  0  0  0  0
   -0.6930   -6.3262    0.0000 C   0  0  0  0  0  0  0  0  0  0  0  0
   -1.2451   -5.7131    0.0000 O   0  0  0  0  0  0  0  0  0  0  0  0
   -0.9480   -7.1108    0.0000 C   0  0  1  0  0  0  0  0  0  0  0  0
   -0.3959   -7.7239    0.0000 N   0  0  0  0  0  0  0  0  0  0  0  0
   -1.7550   -7.2823    0.0000 C   0  0  0  0  0  0  0  0  0  0  0  0
   -2.0099   -8.0669    0.0000 C   0  0  0  0  0  0  0  0  0  0  0  0
   -2.8169   -8.2384    0.0000 C   0  0  0  0  0  0  0  0  0  0  0  0
   -3.0718   -9.0231    0.0000 N   0  0  0  0  0  0  0  0  0  0  0  0
   -3.8788   -9.1946    0.0000 C   0  0  0  0  0  0  0  0  0  0  0  0
   -4.4308   -8.5815    0.0000 N   0  0  0  0  0  0  0  0  0  0  0  0
   -4.1337   -9.9792    0.0000 N   0  0  0  0  0  0  0  0  0  0  0  0
   -1.2872   -3.5307    0.0000 C   0  0  0  0  0  0  0  0  0  0  0  0
   -1.8393   -2.9176    0.0000 C   0  0  0  0  0  0  0  0  0  0  0  0
   -0.4803   -3.3592    0.0000 C   0  0  0  0  0  0  0  0  0  0  0  0
  -12.3842  -10.3902    0.0000 C   0  0  0  0  0  0  0  0  0  0  0  0
  -11.5592  -10.3902    0.0000 O   0  0  0  0  0  0  0  0  0  0  0  0
  -12.7967  -11.1047    0.0000 O   0  0  0  0  0  0  0  0  0  0  0  0
  -15.3942   -9.4636    0.0000 H   0  0  0  0  0  0  0  0  0  0  0  0
  -15.3942  -11.3168    0.0000 H   0  0  0  0  0  0  0  0  0  0  0  0
  -15.9292  -10.3902    0.0000 H   0  0  0  0  0  0  0  0  0  0  0  0
  -13.4992  -11.3169    0.0000 H   0  0  0  0  0  0  0  0  0  0  0  0
  -12.9642  -10.3902    0.0000 H   0  0  0  0  0  0  0  0  0  0  0  0
  -14.6917   -9.6758    0.0000 H   0  0  0  0  0  0  0  0  0  0  0  0
  -13.4992   -8.0347    0.0000 H   0  0  0  0  0  0  0  0  0  0  0  0
  -15.1042   -8.9613    0.0000 H   0  0  0  0  0  0  0  0  0  0  0  0
  -14.5692   -8.0346    0.0000 H   0  0  0  0  0  0  0  0  0  0  0  0
  -13.3317   -8.7492    0.0000 H   0  0  0  0  0  0  0  0  0  0  0  0
  -12.8765   -8.1087    0.0000 H   0  0  0  0  0  0  0  0  0  0  0  0
  -10.6117   -9.1734    0.0000 H   0  0  0  0  0  0  0  0  0  0  0  0
  -12.6292   -7.5324    0.0000 H   0  0  0  0  0  0  0  0  0  0  0  0
  -12.0942   -6.6058    0.0000 H   0  0  0  0  0  0  0  0  0  0  0  0
  -10.0767   -6.8179    0.0000 H   0  0  0  0  0  0  0  0  0  0  0  0
  -10.6117   -5.8913    0.0000 H   0  0  0  0  0  0  0  0  0  0  0  0
  -12.6292   -6.1034    0.0000 H   0  0  0  0  0  0  0  0  0  0  0  0
  -12.0942   -5.1767    0.0000 H   0  0  0  0  0  0  0  0  0  0  0  0
  -10.1622   -5.3890    0.0000 H   0  0  0  0  0  0  0  0  0  0  0  0
  -12.8765   -3.8219    0.0000 H   0  0  0  0  0  0  0  0  0  0  0  0
  -12.8765   -5.5271    0.0000 H   0  0  0  0  0  0  0  0  0  0  0  0
  -10.1622   -3.9600    0.0000 H   0  0  0  0  0  0  0  0  0  0  0  0
   -9.8295   -9.0994    0.0000 H   0  0  0  0  0  0  0  0  0  0  0  0
   -9.6192   -6.6058    0.0000 H   0  0  0  0  0  0  0  0  0  0  0  0
   -7.6017   -8.2468    0.0000 H   0  0  0  0  0  0  0  0  0  0  0  0
   -8.1367   -9.1734    0.0000 H   0  0  0  0  0  0  0  0  0  0  0  0
   -9.1640  -10.5284    0.0000 H   0  0  0  0  0  0  0  0  0  0  0  0
   -7.6872   -9.6758    0.0000 H   0  0  0  0  0  0  0  0  0  0  0  0
   -9.1640   -5.9653    0.0000 H   0  0  0  0  0  0  0  0  0  0  0  0
   -7.9692   -5.1768    0.0000 H   0  0  0  0  0  0  0  0  0  0  0  0
   -6.8992   -5.1768    0.0000 H   0  0  0  0  0  0  0  0  0  0  0  0
   -6.1170   -6.9560    0.0000 H   0  0  0  0  0  0  0  0  0  0  0  0
   -5.9067   -4.4624    0.0000 H   0  0  0  0  0  0  0  0  0  0  0  0
   -3.8892   -6.1034    0.0000 H   0  0  0  0  0  0  0  0  0  0  0  0
   -4.4242   -7.0300    0.0000 H   0  0  0  0  0  0  0  0  0  0  0  0
   -5.4277   -8.3439    0.0000 H   0  0  0  0  0  0  0  0  0  0  0  0
   -5.4515   -3.8219    0.0000 H   0  0  0  0  0  0  0  0  0  0  0  0
   -4.7902   -3.9040    0.0000 H   0  0  0  0  0  0  0  0  0  0  0  0
   -5.1038   -2.9838    0.0000 H   0  0  0  0  0  0  0  0  0  0  0  0
   -4.3341   -2.1727    0.0000 H   0  0  0  0  0  0  0  0  0  0  0  0
   -3.5559   -1.5902    0.0000 H   0  0  0  0  0  0  0  0  0  0  0  0
   -2.5467   -2.0715    0.0000 H   0  0  0  0  0  0  0  0  0  0  0  0
   -1.7521   -2.6316    0.0000 H   0  0  0  0  0  0  0  0  0  0  0  0
   -1.8981   -3.7402    0.0000 H   0  0  0  0  0  0  0  0  0  0  0  0
   -1.8728   -5.3330    0.0000 H   0  0  0  0  0  0  0  0  0  0  0  0
   -1.2943   -5.8647    0.0000 H   0  0  0  0  0  0  0  0  0  0  0  0
   -0.6777   -5.5925    0.0000 H   0  0  0  0  0  0  0  0  0  0  0  0
    1.8917   -5.9937    0.0000 H   0  0  0  0  0  0  0  0  0  0  0  0
    2.2224   -4.9761    0.0000 H   0  0  0  0  0  0  0  0  0  0  0  0
   -0.1307   -4.0154    0.0000 H   0  0  0  0  0  0  0  0  0  0  0  0
    0.4432   -2.2491    0.0000 H   0  0  0  0  0  0  0  0  0  0  0  0
    2.2596   -1.8631    0.0000 H   0  0  0  0  0  0  0  0  0  0  0  0
    3.5021   -3.2431    0.0000 H   0  0  0  0  0  0  0  0  0  0  0  0
    2.9284   -5.0092    0.0000 H   0  0  0  0  0  0  0  0  0  0  0  0
    0.7727   -6.8862    0.0000 H   0  0  0  0  0  0  0  0  0  0  0  0
    0.0986   -6.8883    0.0000 H   0  0  0  0  0  0  0  0  0  0  0  0
   -0.7110   -8.6940    0.0000 H   0  0  0  0  0  0  0  0  0  0  0  0
    0.6018   -7.5118    0.0000 H   0  0  0  0  0  0  0  0  0  0  0  0
   -2.4710   -6.4871    0.0000 H   0  0  0  0  0  0  0  0  0  0  0  0
   -2.8016   -7.5048    0.0000 H   0  0  0  0  0  0  0  0  0  0  0  0
   -1.2939   -8.8621    0.0000 H   0  0  0  0  0  0  0  0  0  0  0  0
   -2.3406   -9.0845    0.0000 H   0  0  0  0  0  0  0  0  0  0  0  0
   -3.5329   -7.4432    0.0000 H   0  0  0  0  0  0  0  0  0  0  0  0
   -3.8635   -8.4609    0.0000 H   0  0  0  0  0  0  0  0  0  0  0  0
   -2.4130   -9.7547    0.0000 H   0  0  0  0  0  0  0  0  0  0  0  0
   -4.1265   -7.6452    0.0000 H   0  0  0  0  0  0  0  0  0  0  0  0
   -5.3938   -8.7862    0.0000 H   0  0  0  0  0  0  0  0  0  0  0  0
   -5.0967  -10.1839    0.0000 H   0  0  0  0  0  0  0  0  0  0  0  0
   -0.9566   -2.5131    0.0000 H   0  0  0  0  0  0  0  0  0  0  0  0
   -1.5087   -1.9000    0.0000 H   0  0  0  0  0  0  0  0  0  0  0  0
   -2.8859   -3.1401    0.0000 H   0  0  0  0  0  0  0  0  0  0  0  0
   -2.5553   -2.1225    0.0000 H   0  0  0  0  0  0  0  0  0  0  0  0
    0.2357   -4.1544    0.0000 H   0  0  0  0  0  0  0  0  0  0  0  0
   -0.1496   -2.3416    0.0000 H   0  0  0  0  0  0  0  0  0  0  0  0
    0.5663   -3.1367    0.0000 H   0  0  0  0  0  0  0  0  0  0  0  0
  -11.0907  -11.2017    0.0000 H   0  0  0  0  0  0  0  0  0  0  0  0
  1  2  1  0  0  0  0
  1 77  1  0  0  0  0
  1 78  1  0  0  0  0
  1 79  1  0  0  0  0
  2 80  1  0  0  0  0
  2 81  1  0  0  0  0
  3  2  1  0  0  0  0
  3  4  1  0  0  0  0
  3  5  1  0  0  0  0
  3 82  1  1  0  0  0
  4 83  1  0  0  0  0
  4 84  1  0  0  0  0
  4 85  1  0  0  0  0
  5  6  1  0  0  0  0
  5 74  1  0  0  0  0
  5 86  1  1  0  0  0
  6  7  1  0  0  0  0
  6 87  1  0  0  0  0
  7  8  2  0  0  0  0
  9  7  1  0  0  0  0
  9 10  1  0  0  0  0
  9 17  1  0  0  0  0
  9 88  1  1  0  0  0
 10 11  1  0  0  0  0
 10 89  1  0  0  0  0
 10 90  1  0  0  0  0
 11 12  1  0  0  0  0
 11 91  1  0  0  0  0
 11 92  1  0  0  0  0
 12 13  1  0  0  0  0
 12 93  1  0  0  0  0
 12 94  1  0  0  0  0
 13 14  1  0  0  0  0
 13 95  1  0  0  0  0
 14 15  1  0  0  0  0
 14 16  2  0  0  0  0
 15 96  1  0  0  0  0
 15 97  1  0  0  0  0
 16 98  1  0  0  0  0
 17 18  1  0  0  0  0
 17 99  1  0  0  0  0
 18 19  2  0  0  0  0
 20 18  1  0  0  0  0
 20 21  1  0  0  0  0
 20 25  1  0  0  0  0
 20100  1  6  0  0  0
 21 22  1  0  0  0  0
 21101  1  0  0  0  0
 21102  1  0  0  0  0
 22 23  1  0  0  0  0
 22 24  2  0  0  0  0
 23103  1  0  0  0  0
 23104  1  0  0  0  0
 25 26  1  0  0  0  0
 25105  1  0  0  0  0
 26 27  2  0  0  0  0
 26 28  1  0  0  0  0
 28 29  1  0  0  0  0
 28106  1  0  0  0  0
 28107  1  0  0  0  0
 29 30  1  0  0  0  0
 29108  1  0  0  0  0
 30 31  2  0  0  0  0
 32 30  1  0  0  0  0
 32 33  1  0  0  0  0
 32 37  1  0  0  0  0
 32109  1  6  0  0  0
 33 34  1  0  0  0  0
 33110  1  0  0  0  0
 33111  1  0  0  0  0
 34 35  1  0  0  0  0
 34 36  2  0  0  0  0
 35112  1  0  0  0  0
 37 38  1  0  0  0  0
 37113  1  0  0  0  0
 38 39  2  0  0  0  0
 40 38  1  0  0  0  0
 40 41  1  0  0  0  0
 40 44  1  0  0  0  0
 40114  1  1  0  0  0
 41 42  1  0  0  0  0
 41115  1  0  0  0  0
 41116  1  0  0  0  0
 42 43  1  0  0  0  0
 42117  1  0  0  0  0
 42118  1  0  0  0  0
 43 44  1  0  0  0  0
 43119  1  0  0  0  0
 43120  1  0  0  0  0
 44 45  1  0  0  0  0
 45 46  2  0  0  0  0
 47 45  1  0  0  0  0
 47 48  1  0  0  0  0
 47 71  1  0  0  0  0
 47121  1  1  0  0  0
 48 49  1  0  0  0  0
 48122  1  0  0  0  0
 49 50  2  0  0  0  0
 51 49  1  0  0  0  0
 51 52  1  0  0  0  0
 51 59  1  0  0  0  0
 51123  1  1  0  0  0
 52 53  1  0  0  0  0
 52124  1  0  0  0  0
 52125  1  0  0  0  0
 53 54  2  0  0  0  0
 53 58  1  0  0  0  0
 54 55  1  0  0  0  0
 54126  1  0  0  0  0
 55 56  2  0  0  0  0
 55127  1  0  0  0  0
 56 57  1  0  0  0  0
 56128  1  0  0  0  0
 57 58  2  0  0  0  0
 57129  1  0  0  0  0
 58130  1  0  0  0  0
 59 60  1  0  0  0  0
 59131  1  0  0  0  0
 60 61  2  0  0  0  0
 62 60  1  0  0  0  0
 62 63  1  0  0  0  0
 62 64  1  0  0  0  0
 62132  1  6  0  0  0
 63133  1  0  0  0  0
 63134  1  0  0  0  0
 64 65  1  0  0  0  0
 64135  1  0  0  0  0
 64136  1  0  0  0  0
 65 66  1  0  0  0  0
 65137  1  0  0  0  0
 65138  1  0  0  0  0
 66 67  1  0  0  0  0
 66139  1  0  0  0  0
 66140  1  0  0  0  0
 67 68  1  0  0  0  0
 67141  1  0  0  0  0
 68 69  1  0  0  0  0
 68 70  2  0  0  0  0
 69142  1  0  0  0  0
 69143  1  0  0  0  0
 70144  1  0  0  0  0
 71 72  1  0  0  0  0
 71 73  1  0  0  0  0
 71145  1  0  0  0  0
 72146  1  0  0  0  0
 72147  1  0  0  0  0
 72148  1  0  0  0  0
 73149  1  0  0  0  0
 73150  1  0  0  0  0
 73151  1  0  0  0  0
 74 75  1  0  0  0  0
 74 76  2  0  0  0  0
 75152  1  0  0  0  0
M  END
>  <DRUGBANK_ID>
DB16152

>  <COMMON_NAME>
VEGFR2-169

>  <CAS_NUMBER>
673478-49-4

>  <UNII>
S68632MB2G

>  <SYNONYMS>
Elpamotide; Vegfr2-169 peptide vaccine

$$$$
