
 OpenBabel10282417072D

 65 68  0  0  0  0  0  0  0  0999 V2000
   -1.2115   -2.8435    0.0000 C   0  0  0  0  0  0  0  0  0  0  0  0
   -3.1483    3.7707    0.0000 C   0  0  0  0  0  0  0  0  0  0  0  0
   -0.5614   -2.3356    0.0000 C   0  0  0  0  0  0  0  0  0  0  0  0
   -2.4338    3.3582    0.0000 C   0  0  0  0  0  0  0  0  0  0  0  0
    2.9240   -0.1578    0.0000 C   0  0  0  0  0  0  0  0  0  0  0  0
    2.2244    0.2792    0.0000 C   0  0  0  0  0  0  0  0  0  0  0  0
    2.8952   -0.9823    0.0000 C   0  0  0  0  0  0  0  0  0  0  0  0
    3.1483   -3.0639    0.0000 C   0  0  0  0  0  0  0  0  0  0  0  0
    3.0335   -2.2469    0.0000 C   0  0  0  0  0  0  0  0  0  0  0  0
    1.4959   -0.1080    0.0000 C   0  0  0  0  0  0  0  0  0  0  0  0
    2.1668   -1.3696    0.0000 C   0  0  0  0  0  0  0  0  0  0  0  0
    2.4982   -3.5718    0.0000 C   0  0  0  0  0  0  0  0  0  0  0  0
    2.2686   -1.9379    0.0000 C   0  0  0  0  0  0  0  0  0  0  0  0
    1.0743   -0.5661    0.0000 C   0  0  0  0  0  0  0  0  0  0  0  0
   -0.0817   -1.4060    0.0000 C   0  0  0  0  0  0  0  0  0  0  0  0
    0.5894    0.1012    0.0000 C   0  0  0  0  0  0  0  0  0  0  0  0
   -0.5666   -0.7386    0.0000 C   0  0  0  0  0  0  0  0  0  0  0  0
   -0.7159    0.6824    0.0000 C   0  0  0  0  0  0  0  0  0  0  0  0
   -1.5364    0.5962    0.0000 C   0  0  0  0  0  0  0  0  0  0  0  0
    1.4672   -0.9325    0.0000 C   0  0  0  0  0  0  0  0  0  0  0  0
    1.7333   -3.2628    0.0000 C   0  0  0  0  0  0  0  0  0  0  0  0
    1.6185   -2.4458    0.0000 C   0  0  0  0  0  0  0  0  0  0  0  0
    0.2034   -2.6447    0.0000 C   0  0  0  0  0  0  0  0  0  0  0  0
   -1.7664    2.0483    0.0000 C   0  0  0  0  0  0  0  0  0  0  0  0
    0.7387   -1.3198    0.0000 C   0  0  0  0  0  0  0  0  0  0  0  0
    1.0832   -3.7707    0.0000 F   0  0  0  0  0  0  0  0  0  0  0  0
   -3.1013    2.0483    0.0000 N   0  0  0  0  0  0  0  0  0  0  0  0
   -2.8463    1.2636    0.0000 N   0  0  0  0  0  0  0  0  0  0  0  0
   -0.2310    0.0150    0.0000 N   0  0  0  0  0  0  0  0  0  0  0  0
   -2.4338    2.5332    0.0000 N   0  0  0  0  0  0  0  0  0  0  0  0
   -2.0213    1.2636    0.0000 N   0  0  0  0  0  0  0  0  0  0  0  0
    0.8535   -2.1367    0.0000 N   0  0  0  0  0  0  0  0  0  0  0  0
    0.3182   -3.4616    0.0000 O   0  0  0  0  0  0  0  0  0  0  0  0
   -0.9818    2.3032    0.0000 O   0  0  0  0  0  0  0  0  0  0  0  0
   -2.2036   -2.4427    0.0000 H   0  0  0  0  0  0  0  0  0  0  0  0
   -1.0626   -3.9031    0.0000 H   0  0  0  0  0  0  0  0  0  0  0  0
   -2.0547   -3.5022    0.0000 H   0  0  0  0  0  0  0  0  0  0  0  0
   -3.1483    4.8407    0.0000 H   0  0  0  0  0  0  0  0  0  0  0  0
   -4.0749    3.2357    0.0000 H   0  0  0  0  0  0  0  0  0  0  0  0
   -4.0750    4.3057    0.0000 H   0  0  0  0  0  0  0  0  0  0  0  0
   -0.7102   -1.2760    0.0000 H   0  0  0  0  0  0  0  0  0  0  0  0
    0.2818   -1.6769    0.0000 H   0  0  0  0  0  0  0  0  0  0  0  0
   -1.5072    3.8932    0.0000 H   0  0  0  0  0  0  0  0  0  0  0  0
   -1.5072    2.8232    0.0000 H   0  0  0  0  0  0  0  0  0  0  0  0
    3.8352    0.3268    0.0000 H   0  0  0  0  0  0  0  0  0  0  0  0
    2.2604    1.3106    0.0000 H   0  0  0  0  0  0  0  0  0  0  0  0
    3.7704   -1.5292    0.0000 H   0  0  0  0  0  0  0  0  0  0  0  0
    4.1051   -3.4505    0.0000 H   0  0  0  0  0  0  0  0  0  0  0  0
    3.8467   -1.6115    0.0000 H   0  0  0  0  0  0  0  0  0  0  0  0
    0.6207    0.4389    0.0000 H   0  0  0  0  0  0  0  0  0  0  0  0
    2.1308   -2.4010    0.0000 H   0  0  0  0  0  0  0  0  0  0  0  0
    2.6418   -4.5938    0.0000 H   0  0  0  0  0  0  0  0  0  0  0  0
    2.1250   -0.9159    0.0000 H   0  0  0  0  0  0  0  0  0  0  0  0
    2.1384   -0.4542    0.0000 H   0  0  0  0  0  0  0  0  0  0  0  0
    1.7032   -1.4318    0.0000 H   0  0  0  0  0  0  0  0  0  0  0  0
   -0.5169   -2.3835    0.0000 H   0  0  0  0  0  0  0  0  0  0  0  0
    0.5472   -2.2717    0.0000 H   0  0  0  0  0  0  0  0  0  0  0  0
    1.0246    1.0787    0.0000 H   0  0  0  0  0  0  0  0  0  0  0  0
   -0.0395    0.9669    0.0000 H   0  0  0  0  0  0  0  0  0  0  0  0
   -1.6307   -0.8504    0.0000 H   0  0  0  0  0  0  0  0  0  0  0  0
   -1.1955    0.1271    0.0000 H   0  0  0  0  0  0  0  0  0  0  0  0
   -0.2807    1.6599    0.0000 H   0  0  0  0  0  0  0  0  0  0  0  0
    0.3482    0.7942    0.0000 H   0  0  0  0  0  0  0  0  0  0  0  0
   -1.9716   -0.3813    0.0000 H   0  0  0  0  0  0  0  0  0  0  0  0
   -2.6005    0.4844    0.0000 H   0  0  0  0  0  0  0  0  0  0  0  0
  1 35  1  0  0  0  0
  1 36  1  0  0  0  0
  1 37  1  0  0  0  0
  2 38  1  0  0  0  0
  2 39  1  0  0  0  0
  2 40  1  0  0  0  0
  3  1  1  0  0  0  0
  3 41  1  0  0  0  0
  3 42  1  0  0  0  0
  4  2  1  0  0  0  0
  4 43  1  0  0  0  0
  4 44  1  0  0  0  0
  5 45  1  0  0  0  0
  6  5  2  0  0  0  0
  6 46  1  0  0  0  0
  7  5  1  0  0  0  0
  7 47  1  0  0  0  0
  8 48  1  0  0  0  0
  9  8  2  0  0  0  0
  9 49  1  0  0  0  0
 10  6  1  0  0  0  0
 10 50  1  0  0  0  0
 11  7  2  0  0  0  0
 11 51  1  0  0  0  0
 12  8  1  0  0  0  0
 12 52  1  0  0  0  0
 13  9  1  0  0  0  0
 13 53  1  0  0  0  0
 14 54  1  0  0  0  0
 14 55  1  0  0  0  0
 15 56  1  0  0  0  0
 15 57  1  0  0  0  0
 16 14  1  0  0  0  0
 16 58  1  0  0  0  0
 16 59  1  0  0  0  0
 17 15  1  0  0  0  0
 17 60  1  0  0  0  0
 17 61  1  0  0  0  0
 18 62  1  0  0  0  0
 18 63  1  0  0  0  0
 19 18  1  0  0  0  0
 19 64  1  0  0  0  0
 19 65  1  0  0  0  0
 20 10  2  0  0  0  0
 20 11  1  0  0  0  0
 21 12  2  0  0  0  0
 22 13  2  0  0  0  0
 22 21  1  0  0  0  0
 23  3  1  0  0  0  0
 25 14  1  0  0  0  0
 25 15  1  0  0  0  0
 25 20  1  0  0  0  0
 26 21  1  0  0  0  0
 28 27  2  0  0  0  0
 29 16  1  0  0  0  0
 29 17  1  0  0  0  0
 29 18  1  0  0  0  0
 30  4  1  0  0  0  0
 30 24  1  0  0  0  0
 30 27  1  0  0  0  0
 31 19  1  0  0  0  0
 31 24  1  0  0  0  0
 31 28  1  0  0  0  0
 32 22  1  0  0  0  0
 32 23  1  0  0  0  0
 32 25  1  0  0  0  0
 33 23  2  0  0  0  0
 34 24  2  0  0  0  0
M  END
>  <DRUGBANK_ID>
DB09181

>  <COMMON_NAME>
Trefentanil

>  <CAS_NUMBER>
120656-74-8

>  <UNII>
36QM58LVGU

>  <SYNONYMS>
Trefentanil

$$$$
