
 OpenBabel10282417072D

 70 74  0  0  1  0  0  0  0  0999 V2000
   10.3700    5.8857    0.0000 C   0  0  0  0  0  0  0  0  0  0  0  0
   10.3357    5.0615    0.0000 C   0  0  0  0  0  0  0  0  0  0  0  0
   10.3014    4.2372    0.0000 C   0  0  0  0  0  0  0  0  0  0  0  0
   10.2672    3.4129    0.0000 C   0  0  1  0  0  0  0  0  0  0  0  0
   10.9639    2.9711    0.0000 C   0  0  0  0  0  0  0  0  0  0  0  0
   11.6949    3.3535    0.0000 C   0  0  0  0  0  0  0  0  0  0  0  0
   11.7291    4.1778    0.0000 O   0  0  0  0  0  0  0  0  0  0  0  0
   12.3916    2.9117    0.0000 O   0  0  0  0  0  0  0  0  0  0  0  0
    9.5362    3.0304    0.0000 C   0  0  0  0  0  0  0  0  0  0  0  0
    9.5019    2.2061    0.0000 C   0  0  0  0  0  0  0  0  0  0  0  0
    8.7709    1.8237    0.0000 C   0  0  0  0  0  0  0  0  0  0  0  0
    8.0742    2.2655    0.0000 C   0  0  0  0  0  0  0  0  0  0  0  0
    7.3432    1.8830    0.0000 O   0  0  0  0  0  0  0  0  0  0  0  0
    7.3089    1.0587    0.0000 C   0  0  0  0  0  0  0  0  0  0  0  0
    6.5780    0.6763    0.0000 C   0  0  0  0  0  0  0  0  0  0  0  0
    6.5437   -0.1480    0.0000 C   0  0  0  0  0  0  0  0  0  0  0  0
    5.8127   -0.5305    0.0000 C   0  0  0  0  0  0  0  0  0  0  0  0
    5.1160   -0.0887    0.0000 C   0  0  0  0  0  0  0  0  0  0  0  0
    4.3850   -0.4711    0.0000 C   0  0  0  0  0  0  0  0  0  0  0  0
    3.6883   -0.0293    0.0000 N   0  0  0  0  0  0  0  0  0  0  0  0
    2.9573   -0.4118    0.0000 C   0  0  0  0  0  0  0  0  0  0  0  0
    2.2606    0.0300    0.0000 C   0  0  0  0  0  0  0  0  0  0  0  0
    2.2948    0.8543    0.0000 C   0  0  3  0  0  0  0  0  0  0  0  0
    3.0258    1.2368    0.0000 C   0  0  0  0  0  0  0  0  0  0  0  0
    3.7225    0.7950    0.0000 C   0  0  0  0  0  0  0  0  0  0  0  0
    2.2428    1.6777    0.0000 C   0  0  0  0  0  0  0  0  0  0  0  0
    1.4436    1.8826    0.0000 C   0  0  0  0  0  0  0  0  0  0  0  0
    1.0018    1.1859    0.0000 C   0  0  0  0  0  0  0  0  0  0  0  0
    1.5279    0.5504    0.0000 C   0  0  0  0  0  0  0  0  0  0  0  0
    1.2406   -0.2230    0.0000 C   0  0  0  0  0  0  0  0  0  0  0  0
    0.4272   -0.3609    0.0000 C   0  0  0  0  0  0  0  0  0  0  0  0
   -0.0989    0.2746    0.0000 C   0  0  0  0  0  0  0  0  0  0  0  0
    0.1884    1.0480    0.0000 C   0  0  0  0  0  0  0  0  0  0  0  0
    5.1503    0.7356    0.0000 C   0  0  0  0  0  0  0  0  0  0  0  0
    5.8812    1.1181    0.0000 C   0  0  0  0  0  0  0  0  0  0  0  0
    8.1085    3.0898    0.0000 C   0  0  0  0  0  0  0  0  0  0  0  0
    8.8395    3.4722    0.0000 C   0  0  0  0  0  0  0  0  0  0  0  0
   11.3181    6.3817    0.0000 H   0  0  0  0  0  0  0  0  0  0  0  0
    9.4664    6.4588    0.0000 H   0  0  0  0  0  0  0  0  0  0  0  0
   10.4145    6.9548    0.0000 H   0  0  0  0  0  0  0  0  0  0  0  0
   11.2152    3.9090    0.0000 H   0  0  0  0  0  0  0  0  0  0  0  0
   10.9194    1.9020    0.0000 H   0  0  0  0  0  0  0  0  0  0  0  0
   11.8675    2.3980    0.0000 H   0  0  0  0  0  0  0  0  0  0  0  0
   12.5593    4.6123    0.0000 H   0  0  0  0  0  0  0  0  0  0  0  0
   10.3734    1.6534    0.0000 H   0  0  0  0  0  0  0  0  0  0  0  0
    8.7280    0.7926    0.0000 H   0  0  0  0  0  0  0  0  0  0  0  0
    8.2125    0.4856    0.0000 H   0  0  0  0  0  0  0  0  0  0  0  0
    7.2644   -0.0104    0.0000 H   0  0  0  0  0  0  0  0  0  0  0  0
    7.4152   -0.7007    0.0000 H   0  0  0  0  0  0  0  0  0  0  0  0
    5.7699   -1.5616    0.0000 H   0  0  0  0  0  0  0  0  0  0  0  0
    4.3405   -1.5402    0.0000 H   0  0  0  0  0  0  0  0  0  0  0  0
    3.4369   -0.9671    0.0000 H   0  0  0  0  0  0  0  0  0  0  0  0
    2.9129   -1.4809    0.0000 H   0  0  0  0  0  0  0  0  0  0  0  0
    2.0092   -0.9079    0.0000 H   0  0  0  0  0  0  0  0  0  0  0  0
    1.3126   -0.4661    0.0000 H   0  0  0  0  0  0  0  0  0  0  0  0
    1.3569    0.6030    0.0000 H   0  0  0  0  0  0  0  0  0  0  0  0
    3.0702    2.3059    0.0000 H   0  0  0  0  0  0  0  0  0  0  0  0
    3.9739    1.7329    0.0000 H   0  0  0  0  0  0  0  0  0  0  0  0
    4.6705    1.2911    0.0000 H   0  0  0  0  0  0  0  0  0  0  0  0
    4.6262    0.2220    0.0000 H   0  0  0  0  0  0  0  0  0  0  0  0
    3.0378    2.3358    0.0000 H   0  0  0  0  0  0  0  0  0  0  0  0
    1.0634    2.8420    0.0000 H   0  0  0  0  0  0  0  0  0  0  0  0
    1.8987   -1.0179    0.0000 H   0  0  0  0  0  0  0  0  0  0  0  0
    0.0678   -1.3283    0.0000 H   0  0  0  0  0  0  0  0  0  0  0  0
   -1.1164    0.1021    0.0000 H   0  0  0  0  0  0  0  0  0  0  0  0
   -0.4697    1.8429    0.0000 H   0  0  0  0  0  0  0  0  0  0  0  0
    4.2788    1.2883    0.0000 H   0  0  0  0  0  0  0  0  0  0  0  0
    5.9240    2.1492    0.0000 H   0  0  0  0  0  0  0  0  0  0  0  0
    7.2370    3.6425    0.0000 H   0  0  0  0  0  0  0  0  0  0  0  0
    8.8824    4.5033    0.0000 H   0  0  0  0  0  0  0  0  0  0  0  0
  1  2  1  0  0  0  0
  1 38  1  0  0  0  0
  1 39  1  0  0  0  0
  1 40  1  0  0  0  0
  2  3  3  0  0  0  0
  4  3  1  0  0  0  0
  4  5  1  0  0  0  0
  4  9  1  0  0  0  0
  4 41  1  6  0  0  0
  5  6  1  0  0  0  0
  5 42  1  0  0  0  0
  5 43  1  0  0  0  0
  6  7  1  0  0  0  0
  6  8  2  0  0  0  0
  7 44  1  0  0  0  0
  9 10  2  0  0  0  0
  9 37  1  0  0  0  0
 10 11  1  0  0  0  0
 10 45  1  0  0  0  0
 11 12  2  0  0  0  0
 11 46  1  0  0  0  0
 12 13  1  0  0  0  0
 12 36  1  0  0  0  0
 13 14  1  0  0  0  0
 14 15  1  0  0  0  0
 14 47  1  0  0  0  0
 14 48  1  0  0  0  0
 15 16  2  0  0  0  0
 15 35  1  0  0  0  0
 16 17  1  0  0  0  0
 16 49  1  0  0  0  0
 17 18  2  0  0  0  0
 17 50  1  0  0  0  0
 18 19  1  0  0  0  0
 18 34  1  0  0  0  0
 19 20  1  0  0  0  0
 19 51  1  0  0  0  0
 19 52  1  0  0  0  0
 20 21  1  0  0  0  0
 20 25  1  0  0  0  0
 21 22  1  0  0  0  0
 21 53  1  0  0  0  0
 21 54  1  0  0  0  0
 22 23  1  0  0  0  0
 22 55  1  0  0  0  0
 22 56  1  0  0  0  0
 23 24  1  0  0  0  0
 23 26  1  0  0  0  0
 23 29  1  0  0  0  0
 24 25  1  0  0  0  0
 24 57  1  0  0  0  0
 24 58  1  0  0  0  0
 25 59  1  0  0  0  0
 25 60  1  0  0  0  0
 26 27  2  0  0  0  0
 26 61  1  0  0  0  0
 27 28  1  0  0  0  0
 27 62  1  0  0  0  0
 28 29  2  0  0  0  0
 28 33  1  0  0  0  0
 29 30  1  0  0  0  0
 30 31  2  0  0  0  0
 30 63  1  0  0  0  0
 31 32  1  0  0  0  0
 31 64  1  0  0  0  0
 32 33  2  0  0  0  0
 32 65  1  0  0  0  0
 33 66  1  0  0  0  0
 34 35  2  0  0  0  0
 34 67  1  0  0  0  0
 35 68  1  0  0  0  0
 36 37  2  0  0  0  0
 36 69  1  0  0  0  0
 37 70  1  0  0  0  0
M  END
>  <DRUGBANK_ID>
DB15046

>  <COMMON_NAME>
LY-2881835

>  <CAS_NUMBER>
1292290-38-0

>  <UNII>
LAD0ZG7FFO

$$$$
