
 OpenBabel10282417072D

 18 18  0  0  1  0  0  0  0  0999 V2000
    0.2382    1.7138    0.0000 C   0  0  0  0  0  0  0  0  0  0  0  0
    0.6507    0.1743    0.0000 C   0  0  0  0  0  0  0  0  0  0  0  0
    0.2382    0.8888    0.0000 C   0  0  1  0  0  0  0  0  0  0  0  0
   -0.4763    2.1263    0.0000 C   0  0  1  0  0  0  0  0  0  0  0  0
   -0.4763    2.9513    0.0000 C   0  0  0  0  0  0  0  0  0  0  0  0
   -1.1908    1.7138    0.0000 N   0  0  0  0  0  0  0  0  0  0  0  0
   -1.1908    3.3638    0.0000 O   0  0  0  0  0  0  0  0  0  0  0  0
    0.2382    3.3638    0.0000 O   0  0  0  0  0  0  0  0  0  0  0  0
   -0.1743    0.1743    0.0000 O   0  0  0  0  0  0  0  0  0  0  0  0
    1.0350    1.1023    0.0000 H   0  0  0  0  0  0  0  0  0  0  0  0
    0.2382    2.5388    0.0000 H   0  0  0  0  0  0  0  0  0  0  0  0
    1.1648    2.2488    0.0000 H   0  0  0  0  0  0  0  0  0  0  0  0
    0.2382    2.7838    0.0000 H   0  0  0  0  0  0  0  0  0  0  0  0
    1.5773   -0.3607    0.0000 H   0  0  0  0  0  0  0  0  0  0  0  0
    0.3738   -0.8592    0.0000 H   0  0  0  0  0  0  0  0  0  0  0  0
   -2.0741    2.2238    0.0000 H   0  0  0  0  0  0  0  0  0  0  0  0
   -1.1908    0.6938    0.0000 H   0  0  0  0  0  0  0  0  0  0  0  0
    1.0497    2.8953    0.0000 H   0  0  0  0  0  0  0  0  0  0  0  0
  1 12  1  0  0  0  0
  1 13  1  0  0  0  0
  2 14  1  0  0  0  0
  2 15  1  0  0  0  0
  3  1  1  0  0  0  0
  3  2  1  0  0  0  0
  3 10  1  6  0  0  0
  4  1  1  0  0  0  0
  4  6  1  0  0  0  0
  4 11  1  1  0  0  0
  5  4  1  0  0  0  0
  6 16  1  0  0  0  0
  6 17  1  0  0  0  0
  7  5  2  0  0  0  0
  8  5  1  0  0  0  0
  8 18  1  0  0  0  0
  9  2  1  0  0  0  0
  9  3  1  0  0  0  0
M  END
>  <DRUGBANK_ID>
DB03191

>  <SECONDARY_ACCESSION_NUMBERS>
EXPT02037

>  <COMMON_NAME>
3-Oxiran-2ylalanine

$$$$
