
 OpenBabel10282417072D

 91 96  0  0  0  0  0  0  0  0999 V2000
    0.4609    2.2614    0.0000 P   0  0  1  0  0  0  0  0  0  0  0  0
    1.1754    1.0239    0.0000 P   0  0  2  0  0  0  0  0  0  0  0  0
   -1.7216    3.5759    0.0000 O   0  0  0  0  0  0  0  0  0  0  0  0
   -2.1968    5.6572    0.0000 O   0  0  0  0  0  0  0  0  0  0  0  0
   -0.4410    5.2841    0.0000 O   0  0  0  0  0  0  0  0  0  0  0  0
   -0.2534    2.6740    0.0000 O   0  0  0  0  0  0  0  0  0  0  0  0
    1.1754    1.8489    0.0000 O   0  0  0  0  0  0  0  0  0  0  0  0
    1.8899   -2.6886    0.0000 O   0  0  0  0  0  0  0  0  0  0  0  0
    3.3189   -1.0385    0.0000 O   0  0  0  0  0  0  0  0  0  0  0  0
    1.1754    0.1989    0.0000 O   0  0  0  0  0  0  0  0  0  0  0  0
    0.8734    2.9759    0.0000 O   0  0  0  0  0  0  0  0  0  0  0  0
    1.1754   -1.4510    0.0000 O   0  0  0  0  0  0  0  0  0  0  0  0
    0.0484    1.5470    0.0000 O   0  0  0  0  0  0  0  0  0  0  0  0
    0.3504    1.0239    0.0000 O   0  0  0  0  0  0  0  0  0  0  0  0
    2.0004    1.0239    0.0000 O   0  0  0  0  0  0  0  0  0  0  0  0
    4.7613   -6.0172    0.0000 O   0  0  0  0  0  0  0  0  0  0  0  0
    6.2313   -3.4936    0.0000 O   0  0  0  0  0  0  0  0  0  0  0  0
   -3.0941    4.1028    0.0000 N   0  0  0  0  0  0  0  0  0  0  0  0
   -4.3063    3.5606    0.0000 N   0  0  0  0  0  0  0  0  0  0  0  0
   -3.5576    5.5334    0.0000 N   0  0  0  0  0  0  0  0  0  0  0  0
    3.3189   -3.5136    0.0000 N   0  0  0  0  0  0  0  0  0  0  0  0
   -4.9790    5.6803    0.0000 N   0  0  0  0  0  0  0  0  0  0  0  0
   -5.8169    4.5228    0.0000 N   0  0  0  0  0  0  0  0  0  0  0  0
    3.3189   -5.1636    0.0000 N   0  0  0  0  0  0  0  0  0  0  0  0
    0.4065   -3.4936    0.0000 N   0  0  0  0  0  0  0  0  0  0  0  0
    4.7709   -3.4850    0.0000 N   0  0  0  0  0  0  0  0  0  0  0  0
    5.5184   -4.7683    0.0000 N   0  0  0  0  0  0  0  0  0  0  0  0
   -1.8611    4.9035    0.0000 C   0  0  2  0  0  0  0  0  0  0  0  0
   -1.0542    4.7320    0.0000 C   0  0  1  0  0  0  0  0  0  0  0  0
   -2.2737    4.1890    0.0000 C   0  0  1  0  0  0  0  0  0  0  0  0
   -0.9679    3.9115    0.0000 C   0  0  1  0  0  0  0  0  0  0  0  0
   -0.2534    3.4990    0.0000 C   0  0  0  0  0  0  0  0  0  0  0  0
   -3.6424    4.7127    0.0000 C   0  0  0  0  0  0  0  0  0  0  0  0
   -3.5036    3.3922    0.0000 C   0  0  0  0  0  0  0  0  0  0  0  0
   -4.3955    4.3759    0.0000 C   0  0  0  0  0  0  0  0  0  0  0  0
    2.6044   -2.2761    0.0000 C   0  0  2  0  0  0  0  0  0  0  0  0
    2.6044   -1.4510    0.0000 C   0  0  1  0  0  0  0  0  0  0  0  0
    3.3189   -2.6886    0.0000 C   0  0  0  0  0  0  0  0  0  0  0  0
    1.8899   -1.0385    0.0000 C   0  0  1  0  0  0  0  0  0  0  0  0
   -5.0638    4.8597    0.0000 C   0  0  0  0  0  0  0  0  0  0  0  0
    2.6044   -3.9261    0.0000 C   0  0  0  0  0  0  0  0  0  0  0  0
    1.8899   -0.2135    0.0000 C   0  0  0  0  0  0  0  0  0  0  0  0
    4.0333   -3.9261    0.0000 C   0  0  0  0  0  0  0  0  0  0  0  0
   -4.2259    6.0172    0.0000 C   0  0  0  0  0  0  0  0  0  0  0  0
    2.6044   -4.7511    0.0000 C   0  0  0  0  0  0  0  0  0  0  0  0
    1.8668   -3.4850    0.0000 C   0  0  0  0  0  0  0  0  0  0  0  0
    4.0333   -4.7511    0.0000 C   0  0  0  0  0  0  0  0  0  0  0  0
    1.1194   -3.9089    0.0000 C   0  0  0  0  0  0  0  0  0  0  0  0
    1.1194   -4.7683    0.0000 C   0  0  0  0  0  0  0  0  0  0  0  0
    1.8668   -5.1922    0.0000 C   0  0  0  0  0  0  0  0  0  0  0  0
    4.7709   -5.1922    0.0000 C   0  0  0  0  0  0  0  0  0  0  0  0
    0.4065   -5.1835    0.0000 C   0  0  0  0  0  0  0  0  0  0  0  0
    5.5184   -3.9089    0.0000 C   0  0  0  0  0  0  0  0  0  0  0  0
   -0.3095   -3.9034    0.0000 C   0  0  0  0  0  0  0  0  0  0  0  0
    0.4096   -2.6686    0.0000 C   0  0  0  0  0  0  0  0  0  0  0  0
   -6.2313    4.8227    0.0000 H   0  0  0  0  0  0  0  0  0  0  0  0
   -5.8695    4.0140    0.0000 H   0  0  0  0  0  0  0  0  0  0  0  0
    5.9604   -5.0258    0.0000 H   0  0  0  0  0  0  0  0  0  0  0  0
   -1.6268    6.4420    0.0000 H   0  0  0  0  0  0  0  0  0  0  0  0
    0.4815    4.9843    0.0000 H   0  0  0  0  0  0  0  0  0  0  0  0
    1.0499   -2.2036    0.0000 H   0  0  0  0  0  0  0  0  0  0  0  0
    4.1589   -1.5235    0.0000 H   0  0  0  0  0  0  0  0  0  0  0  0
    1.8434    2.9759    0.0000 H   0  0  0  0  0  0  0  0  0  0  0  0
    0.3354   -0.9660    0.0000 H   0  0  0  0  0  0  0  0  0  0  0  0
   -0.1346    1.8639    0.0000 H   0  0  0  0  0  0  0  0  0  0  0  0
   -1.1878    5.7351    0.0000 H   0  0  0  0  0  0  0  0  0  0  0  0
   -1.3311    5.7655    0.0000 H   0  0  0  0  0  0  0  0  0  0  0  0
   -2.6571    3.1901    0.0000 H   0  0  0  0  0  0  0  0  0  0  0  0
   -1.0239    2.8430    0.0000 H   0  0  0  0  0  0  0  0  0  0  0  0
    0.6732    4.0340    0.0000 H   0  0  0  0  0  0  0  0  0  0  0  0
   -0.2534    4.5690    0.0000 H   0  0  0  0  0  0  0  0  0  0  0  0
   -3.0822    2.4501    0.0000 H   0  0  0  0  0  0  0  0  0  0  0  0
    1.6778   -1.7411    0.0000 H   0  0  0  0  0  0  0  0  0  0  0  0
    3.5310   -1.9860    0.0000 H   0  0  0  0  0  0  0  0  0  0  0  0
    4.2455   -2.1536    0.0000 H   0  0  0  0  0  0  0  0  0  0  0  0
    3.3189   -1.6186    0.0000 H   0  0  0  0  0  0  0  0  0  0  0  0
    1.8899   -2.1085    0.0000 H   0  0  0  0  0  0  0  0  0  0  0  0
    2.8165    0.3216    0.0000 H   0  0  0  0  0  0  0  0  0  0  0  0
    2.8166   -0.7485    0.0000 H   0  0  0  0  0  0  0  0  0  0  0  0
   -4.1198    7.0437    0.0000 H   0  0  0  0  0  0  0  0  0  0  0  0
    1.8787   -2.4531    0.0000 H   0  0  0  0  0  0  0  0  0  0  0  0
    1.8787   -6.2241    0.0000 H   0  0  0  0  0  0  0  0  0  0  0  0
   -0.5222   -4.6520    0.0000 H   0  0  0  0  0  0  0  0  0  0  0  0
    0.4106   -6.2535    0.0000 H   0  0  0  0  0  0  0  0  0  0  0  0
   -0.5181   -5.7220    0.0000 H   0  0  0  0  0  0  0  0  0  0  0  0
   -1.2341   -3.3649    0.0000 H   0  0  0  0  0  0  0  0  0  0  0  0
   -0.3135   -4.9734    0.0000 H   0  0  0  0  0  0  0  0  0  0  0  0
   -1.2382   -4.4349    0.0000 H   0  0  0  0  0  0  0  0  0  0  0  0
    1.3383   -2.1371    0.0000 H   0  0  0  0  0  0  0  0  0  0  0  0
   -0.5150   -2.1301    0.0000 H   0  0  0  0  0  0  0  0  0  0  0  0
    0.4136   -1.5986    0.0000 H   0  0  0  0  0  0  0  0  0  0  0  0
  1  6  1  0  0  0  0
  1  7  1  0  0  0  0
  1 11  1  0  0  0  0
  1 13  2  1  0  0  0
  2  7  1  0  0  0  0
  2 10  1  0  0  0  0
  2 14  1  0  0  0  0
  2 15  2  1  0  0  0
  3 30  1  0  0  0  0
  3 31  1  0  0  0  0
  4 59  1  0  0  0  0
  5 60  1  0  0  0  0
  6 32  1  0  0  0  0
  8 61  1  0  0  0  0
  9 62  1  0  0  0  0
 10 42  1  0  0  0  0
 11 63  1  0  0  0  0
 12 64  1  0  0  0  0
 14 65  1  0  0  0  0
 16 51  2  0  0  0  0
 17 53  2  0  0  0  0
 18 33  1  0  0  0  0
 18 34  1  0  0  0  0
 19 34  2  0  0  0  0
 19 35  1  0  0  0  0
 20 33  2  0  0  0  0
 20 44  1  0  0  0  0
 21 38  1  0  0  0  0
 21 41  1  0  0  0  0
 21 43  1  0  0  0  0
 22 40  1  0  0  0  0
 22 44  2  0  0  0  0
 23 40  1  0  0  0  0
 23 56  1  0  0  0  0
 23 57  1  0  0  0  0
 24 45  1  0  0  0  0
 24 47  2  0  0  0  0
 25 48  1  0  0  0  0
 25 54  1  0  0  0  0
 25 55  1  0  0  0  0
 26 43  2  0  0  0  0
 26 53  1  0  0  0  0
 27 51  1  0  0  0  0
 27 53  1  0  0  0  0
 27 58  1  0  0  0  0
 28  4  1  0  0  0  0
 28 29  1  0  0  0  0
 28 30  1  0  0  0  0
 28 66  1  1  0  0  0
 29  5  1  0  0  0  0
 29 31  1  0  0  0  0
 29 67  1  1  0  0  0
 30 18  1  0  0  0  0
 30 68  1  6  0  0  0
 31 32  1  0  0  0  0
 31 69  1  6  0  0  0
 32 70  1  0  0  0  0
 32 71  1  0  0  0  0
 33 35  1  0  0  0  0
 34 72  1  0  0  0  0
 35 40  2  0  0  0  0
 36  8  1  0  0  0  0
 36 37  1  0  0  0  0
 36 38  1  0  0  0  0
 36 73  1  1  0  0  0
 37  9  1  0  0  0  0
 37 39  1  0  0  0  0
 37 74  1  6  0  0  0
 38 75  1  0  0  0  0
 38 76  1  0  0  0  0
 39 12  1  0  0  0  0
 39 42  1  0  0  0  0
 39 77  1  1  0  0  0
 41 45  2  0  0  0  0
 41 46  1  0  0  0  0
 42 78  1  0  0  0  0
 42 79  1  0  0  0  0
 43 47  1  0  0  0  0
 44 80  1  0  0  0  0
 45 50  1  0  0  0  0
 46 48  2  0  0  0  0
 46 81  1  0  0  0  0
 47 51  1  0  0  0  0
 48 49  1  0  0  0  0
 49 50  2  0  0  0  0
 49 52  1  0  0  0  0
 50 82  1  0  0  0  0
 52 83  1  0  0  0  0
 52 84  1  0  0  0  0
 52 85  1  0  0  0  0
 54 86  1  0  0  0  0
 54 87  1  0  0  0  0
 54 88  1  0  0  0  0
 55 89  1  0  0  0  0
 55 90  1  0  0  0  0
 55 91  1  0  0  0  0
M  END
>  <DRUGBANK_ID>
DB03482

>  <SECONDARY_ACCESSION_NUMBERS>
EXPT02776

>  <COMMON_NAME>
8-demethyl-8-dimethylamino-flavin-adenine-dinucleotide

$$$$
