
 OpenBabel10282417072D

203 68  0  0  0  0  0  0  0  0999 V2000
    0.4125    0.0000    0.0000 N   0  3  0  0  0  0  0  0  0  0  0  0
    3.5946    0.0000    0.0000 N   0  3  0  0  0  0  0  0  0  0  0  0
    6.7768    0.0000    0.0000 N   0  3  0  0  0  0  0  0  0  0  0  0
    9.9589    0.0000    0.0000 N   0  3  0  0  0  0  0  0  0  0  0  0
   13.1411    0.0000    0.0000 N   0  3  0  0  0  0  0  0  0  0  0  0
   16.3232    0.0000    0.0000 N   0  3  0  0  0  0  0  0  0  0  0  0
   19.5054    0.0000    0.0000 N   0  3  0  0  0  0  0  0  0  0  0  0
   22.6875    0.0000    0.0000 N   0  3  0  0  0  0  0  0  0  0  0  0
   25.8696    0.0000    0.0000 N   0  3  0  0  0  0  0  0  0  0  0  0
   29.0518    0.0000    0.0000 N   0  3  0  0  0  0  0  0  0  0  0  0
    0.4125   -1.6500    0.0000 N   0  3  0  0  0  0  0  0  0  0  0  0
    3.5946   -1.6500    0.0000 N   0  3  0  0  0  0  0  0  0  0  0  0
    6.7768   -1.6500    0.0000 N   0  3  0  0  0  0  0  0  0  0  0  0
    9.9589   -1.6500    0.0000 N   0  3  0  0  0  0  0  0  0  0  0  0
   13.1411   -1.6500    0.0000 N   0  3  0  0  0  0  0  0  0  0  0  0
   16.3232   -1.6500    0.0000 N   0  3  0  0  0  0  0  0  0  0  0  0
   19.5054   -1.6500    0.0000 N   0  3  0  0  0  0  0  0  0  0  0  0
   -0.4125    0.0000    0.0000 O   0  6  0  0  0  0  0  0  0  0  0  0
    2.7696    0.0000    0.0000 O   0  6  0  0  0  0  0  0  0  0  0  0
    5.9518    0.0000    0.0000 O   0  6  0  0  0  0  0  0  0  0  0  0
    9.1339    0.0000    0.0000 O   0  6  0  0  0  0  0  0  0  0  0  0
   12.3161    0.0000    0.0000 O   0  6  0  0  0  0  0  0  0  0  0  0
   15.4982    0.0000    0.0000 O   0  6  0  0  0  0  0  0  0  0  0  0
   18.6804    0.0000    0.0000 O   0  6  0  0  0  0  0  0  0  0  0  0
   21.8625    0.0000    0.0000 O   0  6  0  0  0  0  0  0  0  0  0  0
   25.0446    0.0000    0.0000 O   0  6  0  0  0  0  0  0  0  0  0  0
   28.2268    0.0000    0.0000 O   0  6  0  0  0  0  0  0  0  0  0  0
   -0.4125   -1.6500    0.0000 O   0  6  0  0  0  0  0  0  0  0  0  0
    2.7696   -1.6500    0.0000 O   0  6  0  0  0  0  0  0  0  0  0  0
    5.9518   -1.6500    0.0000 O   0  6  0  0  0  0  0  0  0  0  0  0
    9.1339   -1.6500    0.0000 O   0  6  0  0  0  0  0  0  0  0  0  0
   12.3161   -1.6500    0.0000 O   0  6  0  0  0  0  0  0  0  0  0  0
   15.4982   -1.6500    0.0000 O   0  6  0  0  0  0  0  0  0  0  0  0
   18.6804   -1.6500    0.0000 O   0  6  0  0  0  0  0  0  0  0  0  0
   22.8054   -1.6500    0.0000 O   0  6  0  0  0  0  0  0  0  0  0  0
   26.1054   -1.6500    0.0000 O   0  6  0  0  0  0  0  0  0  0  0  0
   29.5232   -1.6500    0.0000 O   0  6  0  0  0  0  0  0  0  0  0  0
    0.4125   -3.3000    0.0000 O   0  6  0  0  0  0  0  0  0  0  0  0
    3.8304   -3.3000    0.0000 O   0  6  0  0  0  0  0  0  0  0  0  0
    7.2482   -3.3000    0.0000 O   0  6  0  0  0  0  0  0  0  0  0  0
   10.6661   -3.3000    0.0000 O   0  6  0  0  0  0  0  0  0  0  0  0
   14.0839   -3.3000    0.0000 O   0  6  0  0  0  0  0  0  0  0  0  0
   17.5018   -3.3000    0.0000 O   0  6  0  0  0  0  0  0  0  0  0  0
   20.9196   -3.3000    0.0000 O   0  6  0  0  0  0  0  0  0  0  0  0
   24.3375   -3.3000    0.0000 O   0  6  0  0  0  0  0  0  0  0  0  0
   27.5196   -3.3000    0.0000 O   0  6  0  0  0  0  0  0  0  0  0  0
   30.7018   -3.3000    0.0000 O   0  6  0  0  0  0  0  0  0  0  0  0
    0.4125   -4.9500    0.0000 O   0  6  0  0  0  0  0  0  0  0  0  0
    3.5946   -4.9500    0.0000 O   0  6  0  0  0  0  0  0  0  0  0  0
    6.7768   -4.9500    0.0000 O   0  6  0  0  0  0  0  0  0  0  0  0
    9.9589   -4.9500    0.0000 O   0  6  0  0  0  0  0  0  0  0  0  0
   13.1411   -4.9500    0.0000 O   0  6  0  0  0  0  0  0  0  0  0  0
   16.3232   -4.9500    0.0000 O   0  6  0  0  0  0  0  0  0  0  0  0
   19.5054   -4.9500    0.0000 O   0  6  0  0  0  0  0  0  0  0  0  0
   22.6875   -4.9500    0.0000 O   0  6  0  0  0  0  0  0  0  0  0  0
   25.8696   -4.9500    0.0000 O   0  6  0  0  0  0  0  0  0  0  0  0
   29.0518   -4.9500    0.0000 O   0  6  0  0  0  0  0  0  0  0  0  0
    0.4125   -6.6000    0.0000 O   0  6  0  0  0  0  0  0  0  0  0  0
    3.5946   -6.6000    0.0000 O   0  6  0  0  0  0  0  0  0  0  0  0
    6.7768   -6.6000    0.0000 O   0  6  0  0  0  0  0  0  0  0  0  0
    9.9589   -6.6000    0.0000 O   0  6  0  0  0  0  0  0  0  0  0  0
   13.1411   -6.6000    0.0000 O   0  6  0  0  0  0  0  0  0  0  0  0
   16.3232   -6.6000    0.0000 O   0  6  0  0  0  0  0  0  0  0  0  0
   19.5054   -6.6000    0.0000 O   0  6  0  0  0  0  0  0  0  0  0  0
   22.6875   -6.6000    0.0000 O   0  6  0  0  0  0  0  0  0  0  0  0
   25.8696   -6.6000    0.0000 O   0  6  0  0  0  0  0  0  0  0  0  0
   28.2268   -6.6000    0.0000 O   0  6  0  0  0  0  0  0  0  0  0  0
    0.0000   -8.2500    0.0000 O   0  6  0  0  0  0  0  0  0  0  0  0
    1.1196   -8.2500    0.0000 O   0  6  0  0  0  0  0  0  0  0  0  0
    2.2393   -8.2500    0.0000 O   0  6  0  0  0  0  0  0  0  0  0  0
    3.3589   -8.2500    0.0000 O   0  6  0  0  0  0  0  0  0  0  0  0
    4.4786   -8.2500    0.0000 O   0  6  0  0  0  0  0  0  0  0  0  0
    5.5982   -8.2500    0.0000 O   0  6  0  0  0  0  0  0  0  0  0  0
    6.7179   -8.2500    0.0000 O   0  6  0  0  0  0  0  0  0  0  0  0
    7.8375   -8.2500    0.0000 O   0  6  0  0  0  0  0  0  0  0  0  0
    8.9571   -8.2500    0.0000 O   0  6  0  0  0  0  0  0  0  0  0  0
   10.0768   -8.2500    0.0000 O   0  6  0  0  0  0  0  0  0  0  0  0
    0.0000   -9.9000    0.0000 O   0  6  0  0  0  0  0  0  0  0  0  0
    1.1196   -9.9000    0.0000 O   0  6  0  0  0  0  0  0  0  0  0  0
    2.2393   -9.9000    0.0000 O   0  6  0  0  0  0  0  0  0  0  0  0
    3.3589   -9.9000    0.0000 O   0  6  0  0  0  0  0  0  0  0  0  0
    4.4786   -9.9000    0.0000 O   0  6  0  0  0  0  0  0  0  0  0  0
    5.5982   -9.9000    0.0000 O   0  6  0  0  0  0  0  0  0  0  0  0
    6.7179   -9.9000    0.0000 O   0  6  0  0  0  0  0  0  0  0  0  0
    7.8375   -9.9000    0.0000 O   0  6  0  0  0  0  0  0  0  0  0  0
    8.9571   -9.9000    0.0000 O   0  6  0  0  0  0  0  0  0  0  0  0
   10.0768   -9.9000    0.0000 O   0  6  0  0  0  0  0  0  0  0  0  0
    0.0000  -11.5500    0.0000 O   0  6  0  0  0  0  0  0  0  0  0  0
    1.1196  -11.5500    0.0000 O   0  6  0  0  0  0  0  0  0  0  0  0
    2.2393  -11.5500    0.0000 O   0  6  0  0  0  0  0  0  0  0  0  0
    3.3589  -11.5500    0.0000 O   0  6  0  0  0  0  0  0  0  0  0  0
    4.4786  -11.5500    0.0000 O   0  6  0  0  0  0  0  0  0  0  0  0
    5.5982  -11.5500    0.0000 O   0  6  0  0  0  0  0  0  0  0  0  0
    6.7179  -11.5500    0.0000 O   0  6  0  0  0  0  0  0  0  0  0  0
    7.8375  -11.5500    0.0000 O   0  6  0  0  0  0  0  0  0  0  0  0
    8.9571  -11.5500    0.0000 O   0  6  0  0  0  0  0  0  0  0  0  0
   10.0768  -11.5500    0.0000 O   0  6  0  0  0  0  0  0  0  0  0  0
    0.0000  -13.2000    0.0000 O   0  6  0  0  0  0  0  0  0  0  0  0
    1.1196  -13.2000    0.0000 O   0  6  0  0  0  0  0  0  0  0  0  0
    2.2393  -13.2000    0.0000 O   0  6  0  0  0  0  0  0  0  0  0  0
    3.3589  -13.2000    0.0000 O   0  6  0  0  0  0  0  0  0  0  0  0
    4.4786  -13.2000    0.0000 O   0  6  0  0  0  0  0  0  0  0  0  0
    5.5982  -13.2000    0.0000 O   0  6  0  0  0  0  0  0  0  0  0  0
   21.9804   -1.6500    0.0000 Na  0  2  0  0  0  0  0  0  0  0  0  0
   25.2804   -1.6500    0.0000 Na  0  2  0  0  0  0  0  0  0  0  0  0
   28.6982   -1.6500    0.0000 Sb  0  1  0  0  0  0  0  0  0  0  0  0
   -0.4125   -3.3000    0.0000 Sb  0  1  0  0  0  0  0  0  0  0  0  0
    3.0054   -3.3000    0.0000 Sb  0  1  0  0  0  0  0  0  0  0  0  0
    6.4232   -3.3000    0.0000 Sb  0  1  0  0  0  0  0  0  0  0  0  0
    9.8411   -3.3000    0.0000 Sb  0  1  0  0  0  0  0  0  0  0  0  0
   13.2589   -3.3000    0.0000 Sb  0  1  0  0  0  0  0  0  0  0  0  0
   16.6768   -3.3000    0.0000 Sb  0  1  0  0  0  0  0  0  0  0  0  0
   20.0946   -3.3000    0.0000 Sb  0  1  0  0  0  0  0  0  0  0  0  0
   23.5125   -3.3000    0.0000 Sb  0  1  0  0  0  0  0  0  0  0  0  0
   26.6946   -3.3000    0.0000 W   0  0  0  0  0  0  0  0  0  0  0  0
   29.8768   -3.3000    0.0000 W   0  0  0  0  0  0  0  0  0  0  0  0
   -0.4125   -4.9500    0.0000 W   0  0  0  0  0  0  0  0  0  0  0  0
    2.7696   -4.9500    0.0000 W   0  0  0  0  0  0  0  0  0  0  0  0
    5.9518   -4.9500    0.0000 W   0  0  0  0  0  0  0  0  0  0  0  0
    9.1339   -4.9500    0.0000 W   0  0  0  0  0  0  0  0  0  0  0  0
   12.3161   -4.9500    0.0000 W   0  0  0  0  0  0  0  0  0  0  0  0
   15.4982   -4.9500    0.0000 W   0  0  0  0  0  0  0  0  0  0  0  0
   18.6804   -4.9500    0.0000 W   0  0  0  0  0  0  0  0  0  0  0  0
   21.8625   -4.9500    0.0000 W   0  0  0  0  0  0  0  0  0  0  0  0
   25.0446   -4.9500    0.0000 W   0  0  0  0  0  0  0  0  0  0  0  0
   28.2268   -4.9500    0.0000 W   0  0  0  0  0  0  0  0  0  0  0  0
   -0.4125   -6.6000    0.0000 W   0  0  0  0  0  0  0  0  0  0  0  0
    2.7696   -6.6000    0.0000 W   0  0  0  0  0  0  0  0  0  0  0  0
    5.9518   -6.6000    0.0000 W   0  0  0  0  0  0  0  0  0  0  0  0
    9.1339   -6.6000    0.0000 W   0  0  0  0  0  0  0  0  0  0  0  0
   12.3161   -6.6000    0.0000 W   0  0  0  0  0  0  0  0  0  0  0  0
   15.4982   -6.6000    0.0000 W   0  0  0  0  0  0  0  0  0  0  0  0
   18.6804   -6.6000    0.0000 W   0  0  0  0  0  0  0  0  0  0  0  0
   21.8625   -6.6000    0.0000 W   0  0  0  0  0  0  0  0  0  0  0  0
   25.0446   -6.6000    0.0000 W   0  0  0  0  0  0  0  0  0  0  0  0
    1.4325    0.0000    0.0000 H   0  0  0  0  0  0  0  0  0  0  0  0
   -0.0975    0.8833    0.0000 H   0  0  0  0  0  0  0  0  0  0  0  0
   -0.0975   -0.8833    0.0000 H   0  0  0  0  0  0  0  0  0  0  0  0
   -0.6075   -0.0000    0.0000 H   0  0  0  0  0  0  0  0  0  0  0  0
    4.6146    0.0000    0.0000 H   0  0  0  0  0  0  0  0  0  0  0  0
    3.0846    0.8833    0.0000 H   0  0  0  0  0  0  0  0  0  0  0  0
    3.0846   -0.8833    0.0000 H   0  0  0  0  0  0  0  0  0  0  0  0
    2.5746   -0.0000    0.0000 H   0  0  0  0  0  0  0  0  0  0  0  0
    7.7968    0.0000    0.0000 H   0  0  0  0  0  0  0  0  0  0  0  0
    6.2668    0.8833    0.0000 H   0  0  0  0  0  0  0  0  0  0  0  0
    6.2668   -0.8833    0.0000 H   0  0  0  0  0  0  0  0  0  0  0  0
    5.7568    0.0000    0.0000 H   0  0  0  0  0  0  0  0  0  0  0  0
   10.9789    0.0000    0.0000 H   0  0  0  0  0  0  0  0  0  0  0  0
    9.4489    0.8833    0.0000 H   0  0  0  0  0  0  0  0  0  0  0  0
    9.4489   -0.8833    0.0000 H   0  0  0  0  0  0  0  0  0  0  0  0
    8.9389    0.0000    0.0000 H   0  0  0  0  0  0  0  0  0  0  0  0
   14.1611    0.0000    0.0000 H   0  0  0  0  0  0  0  0  0  0  0  0
   12.6311    0.8833    0.0000 H   0  0  0  0  0  0  0  0  0  0  0  0
   12.6311   -0.8833    0.0000 H   0  0  0  0  0  0  0  0  0  0  0  0
   12.1211    0.0000    0.0000 H   0  0  0  0  0  0  0  0  0  0  0  0
   17.3432    0.0000    0.0000 H   0  0  0  0  0  0  0  0  0  0  0  0
   15.8132    0.8833    0.0000 H   0  0  0  0  0  0  0  0  0  0  0  0
   15.8132   -0.8833    0.0000 H   0  0  0  0  0  0  0  0  0  0  0  0
   15.3032    0.0000    0.0000 H   0  0  0  0  0  0  0  0  0  0  0  0
   20.5254    0.0000    0.0000 H   0  0  0  0  0  0  0  0  0  0  0  0
   18.9954    0.8833    0.0000 H   0  0  0  0  0  0  0  0  0  0  0  0
   18.9954   -0.8833    0.0000 H   0  0  0  0  0  0  0  0  0  0  0  0
   18.4854   -0.0000    0.0000 H   0  0  0  0  0  0  0  0  0  0  0  0
   23.7075    0.0000    0.0000 H   0  0  0  0  0  0  0  0  0  0  0  0
   22.1775    0.8833    0.0000 H   0  0  0  0  0  0  0  0  0  0  0  0
   22.1775   -0.8833    0.0000 H   0  0  0  0  0  0  0  0  0  0  0  0
   21.6675   -0.0000    0.0000 H   0  0  0  0  0  0  0  0  0  0  0  0
   26.8896    0.0000    0.0000 H   0  0  0  0  0  0  0  0  0  0  0  0
   25.3596    0.8833    0.0000 H   0  0  0  0  0  0  0  0  0  0  0  0
   25.3596   -0.8833    0.0000 H   0  0  0  0  0  0  0  0  0  0  0  0
   24.8496   -0.0000    0.0000 H   0  0  0  0  0  0  0  0  0  0  0  0
   30.0718    0.0000    0.0000 H   0  0  0  0  0  0  0  0  0  0  0  0
   28.5418    0.8833    0.0000 H   0  0  0  0  0  0  0  0  0  0  0  0
   28.5418   -0.8833    0.0000 H   0  0  0  0  0  0  0  0  0  0  0  0
   28.0318   -0.0000    0.0000 H   0  0  0  0  0  0  0  0  0  0  0  0
    1.4325   -1.6500    0.0000 H   0  0  0  0  0  0  0  0  0  0  0  0
   -0.0975   -0.7667    0.0000 H   0  0  0  0  0  0  0  0  0  0  0  0
   -0.0975   -2.5333    0.0000 H   0  0  0  0  0  0  0  0  0  0  0  0
   -0.6075   -1.6500    0.0000 H   0  0  0  0  0  0  0  0  0  0  0  0
    4.6146   -1.6500    0.0000 H   0  0  0  0  0  0  0  0  0  0  0  0
    3.0846   -0.7667    0.0000 H   0  0  0  0  0  0  0  0  0  0  0  0
    3.0846   -2.5333    0.0000 H   0  0  0  0  0  0  0  0  0  0  0  0
    2.5746   -1.6500    0.0000 H   0  0  0  0  0  0  0  0  0  0  0  0
    7.7968   -1.6500    0.0000 H   0  0  0  0  0  0  0  0  0  0  0  0
    6.2668   -0.7667    0.0000 H   0  0  0  0  0  0  0  0  0  0  0  0
    6.2668   -2.5333    0.0000 H   0  0  0  0  0  0  0  0  0  0  0  0
    5.7568   -1.6500    0.0000 H   0  0  0  0  0  0  0  0  0  0  0  0
   10.9789   -1.6500    0.0000 H   0  0  0  0  0  0  0  0  0  0  0  0
    9.4489   -0.7667    0.0000 H   0  0  0  0  0  0  0  0  0  0  0  0
    9.4489   -2.5333    0.0000 H   0  0  0  0  0  0  0  0  0  0  0  0
    8.9389   -1.6500    0.0000 H   0  0  0  0  0  0  0  0  0  0  0  0
   14.1611   -1.6500    0.0000 H   0  0  0  0  0  0  0  0  0  0  0  0
   12.6311   -0.7667    0.0000 H   0  0  0  0  0  0  0  0  0  0  0  0
   12.6311   -2.5333    0.0000 H   0  0  0  0  0  0  0  0  0  0  0  0
   12.1211   -1.6500    0.0000 H   0  0  0  0  0  0  0  0  0  0  0  0
   17.3432   -1.6500    0.0000 H   0  0  0  0  0  0  0  0  0  0  0  0
   15.8132   -0.7667    0.0000 H   0  0  0  0  0  0  0  0  0  0  0  0
   15.8132   -2.5333    0.0000 H   0  0  0  0  0  0  0  0  0  0  0  0
   15.3032   -1.6500    0.0000 H   0  0  0  0  0  0  0  0  0  0  0  0
   20.5254   -1.6500    0.0000 H   0  0  0  0  0  0  0  0  0  0  0  0
   18.9954   -0.7667    0.0000 H   0  0  0  0  0  0  0  0  0  0  0  0
   18.9954   -2.5333    0.0000 H   0  0  0  0  0  0  0  0  0  0  0  0
   18.4854   -1.6500    0.0000 H   0  0  0  0  0  0  0  0  0  0  0  0
  1136  1  0  0  0  0
  1137  1  0  0  0  0
  1138  1  0  0  0  0
  1139  1  0  0  0  0
  2140  1  0  0  0  0
  2141  1  0  0  0  0
  2142  1  0  0  0  0
  2143  1  0  0  0  0
  3144  1  0  0  0  0
  3145  1  0  0  0  0
  3146  1  0  0  0  0
  3147  1  0  0  0  0
  4148  1  0  0  0  0
  4149  1  0  0  0  0
  4150  1  0  0  0  0
  4151  1  0  0  0  0
  5152  1  0  0  0  0
  5153  1  0  0  0  0
  5154  1  0  0  0  0
  5155  1  0  0  0  0
  6156  1  0  0  0  0
  6157  1  0  0  0  0
  6158  1  0  0  0  0
  6159  1  0  0  0  0
  7160  1  0  0  0  0
  7161  1  0  0  0  0
  7162  1  0  0  0  0
  7163  1  0  0  0  0
  8164  1  0  0  0  0
  8165  1  0  0  0  0
  8166  1  0  0  0  0
  8167  1  0  0  0  0
  9168  1  0  0  0  0
  9169  1  0  0  0  0
  9170  1  0  0  0  0
  9171  1  0  0  0  0
 10172  1  0  0  0  0
 10173  1  0  0  0  0
 10174  1  0  0  0  0
 10175  1  0  0  0  0
 11176  1  0  0  0  0
 11177  1  0  0  0  0
 11178  1  0  0  0  0
 11179  1  0  0  0  0
 12180  1  0  0  0  0
 12181  1  0  0  0  0
 12182  1  0  0  0  0
 12183  1  0  0  0  0
 13184  1  0  0  0  0
 13185  1  0  0  0  0
 13186  1  0  0  0  0
 13187  1  0  0  0  0
 14188  1  0  0  0  0
 14189  1  0  0  0  0
 14190  1  0  0  0  0
 14191  1  0  0  0  0
 15192  1  0  0  0  0
 15193  1  0  0  0  0
 15194  1  0  0  0  0
 15195  1  0  0  0  0
 16196  1  0  0  0  0
 16197  1  0  0  0  0
 16198  1  0  0  0  0
 16199  1  0  0  0  0
 17200  1  0  0  0  0
 17201  1  0  0  0  0
 17202  1  0  0  0  0
 17203  1  0  0  0  0
M  CHG  8   1   1   2   1   3   1   4   1   5   1   6   1   7   1   8   1
M  CHG  8   9   1  10   1  11   1  12   1  13   1  14   1  15   1  16   1
M  CHG  8  17   1  18  -2  19  -2  20  -2  21  -2  22  -2  23  -2  24  -2
M  CHG  8  25  -2  26  -2  27  -2  28  -2  29  -2  30  -2  31  -2  32  -2
M  CHG  8  33  -2  34  -2  35  -2  36  -2  37  -2  38  -2  39  -2  40  -2
M  CHG  8  41  -2  42  -2  43  -2  44  -2  45  -2  46  -2  47  -2  48  -2
M  CHG  8  49  -2  50  -2  51  -2  52  -2  53  -2  54  -2  55  -2  56  -2
M  CHG  8  57  -2  58  -2  59  -2  60  -2  61  -2  62  -2  63  -2  64  -2
M  CHG  8  65  -2  66  -2  67  -2  68  -2  69  -2  70  -2  71  -2  72  -2
M  CHG  8  73  -2  74  -2  75  -2  76  -2  77  -2  78  -2  79  -2  80  -2
M  CHG  8  81  -2  82  -2  83  -2  84  -2  85  -2  86  -2  87  -2  88  -2
M  CHG  8  89  -2  90  -2  91  -2  92  -2  93  -2  94  -2  95  -2  96  -2
M  CHG  8  97  -2  98  -2  99  -2 100  -2 101  -2 102  -2 103  -2 104   2
M  CHG  8 105   2 106   3 107   3 108   3 109   3 110   3 111   3 112   3
M  CHG  8 113   3 114   3 115   6 116   6 117   6 118   6 119   6 120   6
M  CHG  8 121   6 122   6 123   6 124   6 125   6 126   6 127   6 128   6
M  CHG  7 129   6 130   6 131   6 132   6 133   6 134   6 135   6
M  END
>  <DRUGBANK_ID>
DB17739

>  <COMMON_NAME>
HPA-23

>  <CAS_NUMBER>
89899-81-0

>  <UNII>
J08H62IZC9

>  <SYNONYMS>
Ammonium 21-tungsto-9-antimoniate; Ammonium antimony sodium tungsten oxide ((nh4)17sb9na2w21o86); Tungstate(19-), hexaoctacontaoxononaantimonateheneicosa-, heptadecaammonium disodium

$$$$
