
 OpenBabel10282417072D

 20 20  0  0  1  0  0  0  0  0999 V2000
    2.1913    1.6913    0.0000 O   0  0  0  0  0  0  0  0  0  0  0  0
    2.0198    0.8843    0.0000 C   0  0  0  0  0  0  0  0  0  0  0  0
    1.2352    0.6294    0.0000 C   0  0  1  0  0  0  0  0  0  0  0  0
    0.9803   -0.1553    0.0000 O   0  0  0  0  0  0  0  0  0  0  0  0
    0.1553   -0.1553    0.0000 C   0  0  2  0  0  0  0  0  0  0  0  0
   -0.3297   -0.8227    0.0000 O   0  0  0  0  0  0  0  0  0  0  0  0
   -0.0997    0.6294    0.0000 C   0  0  1  0  0  0  0  0  0  0  0  0
   -0.8843    0.8843    0.0000 O   0  0  0  0  0  0  0  0  0  0  0  0
    0.5678    1.1143    0.0000 C   0  0  2  0  0  0  0  0  0  0  0  0
    0.5678    1.9393    0.0000 O   0  0  0  0  0  0  0  0  0  0  0  0
    3.1138    1.9911    0.0000 H   0  0  0  0  0  0  0  0  0  0  0  0
    2.8150    0.1683    0.0000 H   0  0  0  0  0  0  0  0  0  0  0  0
    1.7973   -0.1623    0.0000 H   0  0  0  0  0  0  0  0  0  0  0  0
    1.9918   -0.1272    0.0000 H   0  0  0  0  0  0  0  0  0  0  0  0
    0.6410   -1.1087    0.0000 H   0  0  0  0  0  0  0  0  0  0  0  0
   -1.2944   -0.7212    0.0000 H   0  0  0  0  0  0  0  0  0  0  0  0
   -0.8563   -0.1272    0.0000 H   0  0  0  0  0  0  0  0  0  0  0  0
   -1.0860    1.8331    0.0000 H   0  0  0  0  0  0  0  0  0  0  0  0
   -0.3856    1.6001    0.0000 H   0  0  0  0  0  0  0  0  0  0  0  0
    1.4078    2.4243    0.0000 H   0  0  0  0  0  0  0  0  0  0  0  0
  1  2  1  0  0  0  0
  1 11  1  0  0  0  0
  2 12  1  0  0  0  0
  2 13  1  0  0  0  0
  3  2  1  0  0  0  0
  3  4  1  0  0  0  0
  3  9  1  0  0  0  0
  3 14  1  6  0  0  0
  4  5  1  0  0  0  0
  5  6  1  0  0  0  0
  5  7  1  0  0  0  0
  5 15  1  1  0  0  0
  6 16  1  0  0  0  0
  7  8  1  0  0  0  0
  7  9  1  0  0  0  0
  7 17  1  6  0  0  0
  8 18  1  0  0  0  0
  9 10  1  0  0  0  0
  9 19  1  1  0  0  0
 10 20  1  0  0  0  0
M  END
>  <DRUGBANK_ID>
DB01936

>  <SECONDARY_ACCESSION_NUMBERS>
EXPT02783

>  <COMMON_NAME>
alpha-D-arabinofuranose

>  <CAS_NUMBER>
37388-49-1

>  <UNII>
KE8VI99C5I

$$$$
