
 OpenBabel10282417072D

 18 19  0  0  0  0  0  0  0  0999 V2000
   27.4385  -11.4381    0.0000 O   0  0  0  0  0  0  0  0  0  0  0  0
   27.4385  -13.0881    0.0000 O   0  0  0  0  0  0  0  0  0  0  0  0
   30.3626  -11.5992    0.0000 N   0  0  0  0  0  0  0  0  0  0  0  0
   28.1530  -11.8506    0.0000 C   0  0  0  0  0  0  0  0  0  0  0  0
   28.1530  -12.6756    0.0000 C   0  0  0  0  0  0  0  0  0  0  0  0
   29.5820  -11.8506    0.0000 C   0  0  0  0  0  0  0  0  0  0  0  0
   29.5820  -12.6756    0.0000 C   0  0  0  0  0  0  0  0  0  0  0  0
   30.8441  -12.2631    0.0000 C   0  0  0  0  0  0  0  0  0  0  0  0
   28.8676  -11.4381    0.0000 C   0  0  0  0  0  0  0  0  0  0  0  0
   28.8676  -13.0881    0.0000 C   0  0  0  0  0  0  0  0  0  0  0  0
   30.3626  -12.9270    0.0000 C   0  0  0  0  0  0  0  0  0  0  0  0
   27.4385  -10.5011    0.0000 H   0  0  0  0  0  0  0  0  0  0  0  0
   26.6270  -12.6196    0.0000 H   0  0  0  0  0  0  0  0  0  0  0  0
   30.6684  -10.6634    0.0000 H   0  0  0  0  0  0  0  0  0  0  0  0
   31.8761  -12.2631    0.0000 H   0  0  0  0  0  0  0  0  0  0  0  0
   28.8677  -10.4061    0.0000 H   0  0  0  0  0  0  0  0  0  0  0  0
   28.8677  -14.1201    0.0000 H   0  0  0  0  0  0  0  0  0  0  0  0
   30.6832  -13.9079    0.0000 H   0  0  0  0  0  0  0  0  0  0  0  0
  1  4  1  0  0  0  0
  1 12  1  0  0  0  0
  2  5  1  0  0  0  0
  2 13  1  0  0  0  0
  3  6  1  0  0  0  0
  3  8  1  0  0  0  0
  3 14  1  0  0  0  0
  4  5  2  0  0  0  0
  4  9  1  0  0  0  0
  5 10  1  0  0  0  0
  6  7  1  0  0  0  0
  6  9  2  0  0  0  0
  7 10  2  0  0  0  0
  7 11  1  0  0  0  0
  8 11  2  0  0  0  0
  8 15  1  0  0  0  0
  9 16  1  0  0  0  0
 10 17  1  0  0  0  0
 11 18  1  0  0  0  0
M  END
>  <DRUGBANK_ID>
DB01811

>  <SECONDARY_ACCESSION_NUMBERS>
EXPT00174

>  <COMMON_NAME>
3h-Indole-5,6-Diol

>  <CAS_NUMBER>
3131-52-0

>  <UNII>
Z3OC8499KG

$$$$
