
 OpenBabel10282417072D

 58 61  0  0  1  0  0  0  0  0999 V2000
    0.7145   -2.8875    0.0000 C   0  0  0  0  0  0  0  0  0  0  0  0
   -0.0000   -2.4750    0.0000 C   0  0  0  0  0  0  0  0  0  0  0  0
   -0.7145   -2.8875    0.0000 C   0  0  0  0  0  0  0  0  0  0  0  0
   -0.7145   -3.7125    0.0000 C   0  0  0  0  0  0  0  0  0  0  0  0
   -1.4289   -4.1250    0.0000 C   0  0  0  0  0  0  0  0  0  0  0  0
   -2.1434   -3.7125    0.0000 C   0  0  0  0  0  0  0  0  0  0  0  0
   -2.1434   -2.8875    0.0000 C   0  0  0  0  0  0  0  0  0  0  0  0
   -1.4289   -2.4750    0.0000 C   0  0  0  0  0  0  0  0  0  0  0  0
   -1.4289   -1.6500    0.0000 C   0  0  0  0  0  0  0  0  0  0  0  0
   -0.7145   -1.2375    0.0000 C   0  0  0  0  0  0  0  0  0  0  0  0
    0.0000   -1.6500    0.0000 C   0  0  0  0  0  0  0  0  0  0  0  0
    0.7145   -1.2375    0.0000 C   0  0  0  0  0  0  0  0  0  0  0  0
    0.7145   -0.4125    0.0000 C   0  0  0  0  0  0  0  0  0  0  0  0
    1.4289   -0.0000    0.0000 O   0  0  0  0  0  0  0  0  0  0  0  0
    2.1434   -0.4125    0.0000 C   0  0  0  0  0  0  0  0  0  0  0  0
    2.1434   -1.2375    0.0000 C   0  0  0  0  0  0  0  0  0  0  0  0
    1.4289   -1.6500    0.0000 O   0  0  0  0  0  0  0  0  0  0  0  0
    0.0000   -0.0000    0.0000 C   0  0  0  0  0  0  0  0  0  0  0  0
   -0.7145   -0.4125    0.0000 C   0  0  0  0  0  0  0  0  0  0  0  0
   -2.8579   -4.1250    0.0000 C   0  0  2  0  0  0  0  0  0  0  0  0
   -2.8579   -4.9500    0.0000 O   0  0  0  0  0  0  0  0  0  0  0  0
   -3.5724   -5.3625    0.0000 C   0  0  2  0  0  0  0  0  0  0  0  0
   -3.5724   -6.1875    0.0000 C   0  0  0  0  0  0  0  0  0  0  0  0
   -2.8579   -6.6000    0.0000 O   0  0  0  0  0  0  0  0  0  0  0  0
   -4.2868   -4.9500    0.0000 C   0  0  1  0  0  0  0  0  0  0  0  0
   -5.0013   -5.3625    0.0000 O   0  0  0  0  0  0  0  0  0  0  0  0
   -4.2868   -4.1250    0.0000 C   0  0  2  0  0  0  0  0  0  0  0  0
   -5.0013   -3.7125    0.0000 O   0  0  0  0  0  0  0  0  0  0  0  0
   -3.5724   -3.7125    0.0000 C   0  0  1  0  0  0  0  0  0  0  0  0
   -3.5724   -2.8875    0.0000 O   0  0  0  0  0  0  0  0  0  0  0  0
    0.7145   -3.9575    0.0000 H   0  0  0  0  0  0  0  0  0  0  0  0
    1.6411   -2.3525    0.0000 H   0  0  0  0  0  0  0  0  0  0  0  0
    1.6412   -3.4225    0.0000 H   0  0  0  0  0  0  0  0  0  0  0  0
    0.0000   -1.4050    0.0000 H   0  0  0  0  0  0  0  0  0  0  0  0
   -0.9266   -1.9400    0.0000 H   0  0  0  0  0  0  0  0  0  0  0  0
    0.1792   -4.2285    0.0000 H   0  0  0  0  0  0  0  0  0  0  0  0
   -1.4289   -5.1570    0.0000 H   0  0  0  0  0  0  0  0  0  0  0  0
   -3.0371   -2.3715    0.0000 H   0  0  0  0  0  0  0  0  0  0  0  0
   -2.3556   -1.1150    0.0000 H   0  0  0  0  0  0  0  0  0  0  0  0
   -1.4289   -0.5800    0.0000 H   0  0  0  0  0  0  0  0  0  0  0  0
    0.0000   -2.6820    0.0000 H   0  0  0  0  0  0  0  0  0  0  0  0
    3.0700    0.1225    0.0000 H   0  0  0  0  0  0  0  0  0  0  0  0
    3.0700   -0.9475    0.0000 H   0  0  0  0  0  0  0  0  0  0  0  0
    3.0700   -1.7725    0.0000 H   0  0  0  0  0  0  0  0  0  0  0  0
    2.1434   -2.3075    0.0000 H   0  0  0  0  0  0  0  0  0  0  0  0
    0.0000    1.0320    0.0000 H   0  0  0  0  0  0  0  0  0  0  0  0
   -1.6082    0.1035    0.0000 H   0  0  0  0  0  0  0  0  0  0  0  0
   -1.9313   -4.6600    0.0000 H   0  0  0  0  0  0  0  0  0  0  0  0
   -2.6458   -5.8975    0.0000 H   0  0  0  0  0  0  0  0  0  0  0  0
   -4.4990   -6.7225    0.0000 H   0  0  0  0  0  0  0  0  0  0  0  0
   -3.5724   -7.2575    0.0000 H   0  0  0  0  0  0  0  0  0  0  0  0
   -2.8579   -7.5700    0.0000 H   0  0  0  0  0  0  0  0  0  0  0  0
   -4.2868   -6.0200    0.0000 H   0  0  0  0  0  0  0  0  0  0  0  0
   -5.8413   -4.8775    0.0000 H   0  0  0  0  0  0  0  0  0  0  0  0
   -5.2134   -4.6600    0.0000 H   0  0  0  0  0  0  0  0  0  0  0  0
   -5.0013   -2.7425    0.0000 H   0  0  0  0  0  0  0  0  0  0  0  0
   -4.4991   -3.1775    0.0000 H   0  0  0  0  0  0  0  0  0  0  0  0
   -2.7324   -2.4025    0.0000 H   0  0  0  0  0  0  0  0  0  0  0  0
  1  2  1  0  0  0  0
  1 31  1  0  0  0  0
  1 32  1  0  0  0  0
  1 33  1  0  0  0  0
  2  3  1  0  0  0  0
  2 34  1  0  0  0  0
  2 35  1  0  0  0  0
  3  4  2  0  0  0  0
  3  8  1  0  0  0  0
  4  5  1  0  0  0  0
  4 36  1  0  0  0  0
  5  6  2  0  0  0  0
  5 37  1  0  0  0  0
  6  7  1  0  0  0  0
  7  8  2  0  0  0  0
  7 38  1  0  0  0  0
  8  9  1  0  0  0  0
  9 10  1  0  0  0  0
  9 39  1  0  0  0  0
  9 40  1  0  0  0  0
 10 11  2  0  0  0  0
 10 19  1  0  0  0  0
 11 12  1  0  0  0  0
 11 41  1  0  0  0  0
 12 13  2  0  0  0  0
 12 17  1  0  0  0  0
 13 14  1  0  0  0  0
 13 18  1  0  0  0  0
 14 15  1  0  0  0  0
 15 16  1  0  0  0  0
 15 42  1  0  0  0  0
 15 43  1  0  0  0  0
 16 17  1  0  0  0  0
 16 44  1  0  0  0  0
 16 45  1  0  0  0  0
 18 19  2  0  0  0  0
 18 46  1  0  0  0  0
 19 47  1  0  0  0  0
 20  6  1  0  0  0  0
 20 21  1  0  0  0  0
 20 48  1  1  0  0  0
 22 21  1  0  0  0  0
 22 23  1  0  0  0  0
 22 49  1  1  0  0  0
 23 24  1  0  0  0  0
 23 50  1  0  0  0  0
 23 51  1  0  0  0  0
 24 52  1  0  0  0  0
 25 22  1  0  0  0  0
 25 26  1  0  0  0  0
 25 27  1  0  0  0  0
 25 53  1  6  0  0  0
 26 54  1  0  0  0  0
 27 28  1  0  0  0  0
 27 29  1  0  0  0  0
 27 55  1  1  0  0  0
 28 56  1  0  0  0  0
 29 20  1  0  0  0  0
 29 30  1  0  0  0  0
 29 57  1  6  0  0  0
 30 58  1  0  0  0  0
M  END
>  <DRUGBANK_ID>
DB15048

>  <COMMON_NAME>
Licogliflozin

>  <CAS_NUMBER>
1291094-73-9

>  <UNII>
57J06X6EI0

>  <SYNONYMS>
Licogliflozin

$$$$
