
 OpenBabel10282417072D

 60 61  0  0  0  0  0  0  0  0999 V2000
   -0.7383   -0.2062    0.0000 C   0  0  0  0  0  0  0  0  0  0  0  0
   -0.0238   -0.6188    0.0000 C   0  0  3  0  0  0  0  0  0  0  0  0
   -0.0238   -1.4438    0.0000 C   0  0  0  0  0  0  0  0  0  0  0  0
    0.6907   -1.8563    0.0000 C   0  0  0  0  0  0  0  0  0  0  0  0
    0.6907   -2.6813    0.0000 C   0  0  0  0  0  0  0  0  0  0  0  0
   -0.0238   -3.0938    0.0000 C   0  0  0  0  0  0  0  0  0  0  0  0
   -0.7383   -2.6813    0.0000 C   0  0  0  0  0  0  0  0  0  0  0  0
   -0.7383   -1.8563    0.0000 C   0  0  0  0  0  0  0  0  0  0  0  0
   -1.4528   -1.4438    0.0000 O   0  0  0  0  0  0  0  0  0  0  0  0
   -1.4528   -0.6188    0.0000 C   0  0  0  0  0  0  0  0  0  0  0  0
   -1.4528   -3.0938    0.0000 O   0  0  0  0  0  0  0  0  0  0  0  0
   -1.4528   -3.9188    0.0000 C   0  0  0  0  0  0  0  0  0  0  0  0
    1.4051   -3.0938    0.0000 Cl  0  0  0  0  0  0  0  0  0  0  0  0
    0.6907   -0.2063    0.0000 N   0  0  0  0  0  0  0  0  0  0  0  0
    0.6907    0.6187    0.0000 C   0  0  0  0  0  0  0  0  0  0  0  0
   -0.0238    1.0313    0.0000 C   0  0  0  0  0  0  0  0  0  0  0  0
   -0.0238    1.8563    0.0000 C   0  0  0  0  0  0  0  0  0  0  0  0
    0.6907    2.2687    0.0000 C   0  0  0  0  0  0  0  0  0  0  0  0
    1.4051    1.8562    0.0000 C   0  0  0  0  0  0  0  0  0  0  0  0
    1.4051    1.0312    0.0000 C   0  0  0  0  0  0  0  0  0  0  0  0
    2.1196    0.6187    0.0000 S   0  0  0  0  0  0  0  0  0  0  0  0
    2.8341    0.2062    0.0000 O   0  0  0  0  0  0  0  0  0  0  0  0
    1.7071   -0.0957    0.0000 O   0  0  0  0  0  0  0  0  0  0  0  0
    2.5321    1.3332    0.0000 C   0  0  0  0  0  0  0  0  0  0  0  0
   -0.7383    2.2688    0.0000 N   0  0  0  0  0  0  0  0  0  0  0  0
   -1.4528    1.8563    0.0000 C   0  0  0  0  0  0  0  0  0  0  0  0
   -2.1672    2.2688    0.0000 C   0  0  0  0  0  0  0  0  0  0  0  0
   -2.1672    3.0938    0.0000 N   0  0  0  0  0  0  0  0  0  0  0  0
   -1.4528    3.5063    0.0000 C   0  0  0  0  0  0  0  0  0  0  0  0
   -0.7383    3.0938    0.0000 C   0  0  0  0  0  0  0  0  0  0  0  0
    4.8376    0.0000    0.0000 Cl  0  0  0  0  0  0  0  0  0  0  0  0
   -0.7382    0.8638    0.0000 H   0  0  0  0  0  0  0  0  0  0  0  0
   -1.6650   -0.7411    0.0000 H   0  0  0  0  0  0  0  0  0  0  0  0
   -1.6649    0.3289    0.0000 H   0  0  0  0  0  0  0  0  0  0  0  0
   -0.9505   -1.1538    0.0000 H   0  0  0  0  0  0  0  0  0  0  0  0
    1.5844   -1.3403    0.0000 H   0  0  0  0  0  0  0  0  0  0  0  0
   -0.0238   -4.1258    0.0000 H   0  0  0  0  0  0  0  0  0  0  0  0
   -0.5262   -0.0838    0.0000 H   0  0  0  0  0  0  0  0  0  0  0  0
   -2.3794   -0.0838    0.0000 H   0  0  0  0  0  0  0  0  0  0  0  0
   -1.4528    0.4512    0.0000 H   0  0  0  0  0  0  0  0  0  0  0  0
   -2.3794   -4.4538    0.0000 H   0  0  0  0  0  0  0  0  0  0  0  0
   -0.5262   -4.4538    0.0000 H   0  0  0  0  0  0  0  0  0  0  0  0
   -1.4528   -4.9888    0.0000 H   0  0  0  0  0  0  0  0  0  0  0  0
    1.5433   -0.6986    0.0000 H   0  0  0  0  0  0  0  0  0  0  0  0
   -0.9176    0.5153    0.0000 H   0  0  0  0  0  0  0  0  0  0  0  0
    0.6908    3.3007    0.0000 H   0  0  0  0  0  0  0  0  0  0  0  0
    2.2988    2.3722    0.0000 H   0  0  0  0  0  0  0  0  0  0  0  0
    3.6021    1.3332    0.0000 H   0  0  0  0  0  0  0  0  0  0  0  0
    1.9971    2.2598    0.0000 H   0  0  0  0  0  0  0  0  0  0  0  0
    3.0671    2.2599    0.0000 H   0  0  0  0  0  0  0  0  0  0  0  0
   -1.4528    0.7863    0.0000 H   0  0  0  0  0  0  0  0  0  0  0  0
   -2.3795    1.3213    0.0000 H   0  0  0  0  0  0  0  0  0  0  0  0
   -3.0939    1.7338    0.0000 H   0  0  0  0  0  0  0  0  0  0  0  0
   -3.0938    2.8038    0.0000 H   0  0  0  0  0  0  0  0  0  0  0  0
   -3.0506    3.6038    0.0000 H   0  0  0  0  0  0  0  0  0  0  0  0
   -1.4528    4.5763    0.0000 H   0  0  0  0  0  0  0  0  0  0  0  0
   -0.5262    4.0413    0.0000 H   0  0  0  0  0  0  0  0  0  0  0  0
    0.1883    3.6288    0.0000 H   0  0  0  0  0  0  0  0  0  0  0  0
    0.1883    2.5588    0.0000 H   0  0  0  0  0  0  0  0  0  0  0  0
    6.0656    0.0000    0.0000 H   0  0  0  0  0  0  0  0  0  0  0  0
  1  2  1  0  0  0  0
  1 32  1  0  0  0  0
  1 33  1  0  0  0  0
  1 34  1  0  0  0  0
  2  3  1  0  0  0  0
  2 14  1  0  0  0  0
  2 35  1  0  0  0  0
  3  4  2  0  0  0  0
  3  8  1  0  0  0  0
  4  5  1  0  0  0  0
  4 36  1  0  0  0  0
  5  6  2  0  0  0  0
  5 13  1  0  0  0  0
  6  7  1  0  0  0  0
  6 37  1  0  0  0  0
  7  8  2  0  0  0  0
  7 11  1  0  0  0  0
  8  9  1  0  0  0  0
  9 10  1  0  0  0  0
 10 38  1  0  0  0  0
 10 39  1  0  0  0  0
 10 40  1  0  0  0  0
 11 12  1  0  0  0  0
 12 41  1  0  0  0  0
 12 42  1  0  0  0  0
 12 43  1  0  0  0  0
 14 15  1  0  0  0  0
 14 44  1  0  0  0  0
 15 16  2  0  0  0  0
 15 20  1  0  0  0  0
 16 17  1  0  0  0  0
 16 45  1  0  0  0  0
 17 18  2  0  0  0  0
 17 25  1  0  0  0  0
 18 19  1  0  0  0  0
 18 46  1  0  0  0  0
 19 20  2  0  0  0  0
 19 47  1  0  0  0  0
 20 21  1  0  0  0  0
 21 22  2  0  0  0  0
 21 23  2  0  0  0  0
 21 24  1  0  0  0  0
 24 48  1  0  0  0  0
 24 49  1  0  0  0  0
 24 50  1  0  0  0  0
 25 26  1  0  0  0  0
 25 30  1  0  0  0  0
 26 27  1  0  0  0  0
 26 51  1  0  0  0  0
 26 52  1  0  0  0  0
 27 28  1  0  0  0  0
 27 53  1  0  0  0  0
 27 54  1  0  0  0  0
 28 29  1  0  0  0  0
 28 55  1  0  0  0  0
 29 30  1  0  0  0  0
 29 56  1  0  0  0  0
 29 57  1  0  0  0  0
 30 58  1  0  0  0  0
 30 59  1  0  0  0  0
 31 60  1  0  0  0  0
M  END
>  <DRUGBANK_ID>
DB05993

>  <COMMON_NAME>
PRX-07034

>  <CAS_NUMBER>
903580-39-2

>  <UNII>
336H22ETCG

$$$$
