1333
 OpenBabel10282417072D

 43 45  0  0  1  0  0  0  0  0999 V2000
    3.0790   -0.8460    0.0000 S   0  0  0  0  0  0  0  0  0  0  0  0
    5.2074    0.9795    0.0000 O   0  0  0  0  0  0  0  0  0  0  0  0
    6.2199   -0.0131    0.0000 O   0  0  0  0  0  0  0  0  0  0  0  0
    2.3645    2.0415    0.0000 O   0  0  0  0  0  0  0  0  0  0  0  0
    3.7934    2.0415    0.0000 O   0  0  0  0  0  0  0  0  0  0  0  0
    3.7934    0.3915    0.0000 N   0  0  0  0  0  0  0  0  0  0  0  0
    5.2074   -1.0214    0.0000 N   0  0  0  0  0  0  0  0  0  0  0  0
    6.3717   -2.1906    0.0000 N   0  0  0  0  0  0  0  0  0  0  0  0
    3.7934   -0.4335    0.0000 C   0  0  1  0  0  0  0  0  0  0  0  0
    4.6253   -0.4369    0.0000 C   0  0  1  0  0  0  0  0  0  0  0  0
    4.6253    0.3949    0.0000 C   0  0  0  0  0  0  0  0  0  0  0  0
    3.0790    0.8040    0.0000 C   0  0  0  0  0  0  0  0  0  0  0  0
    2.3645   -0.4335    0.0000 C   0  0  0  0  0  0  0  0  0  0  0  0
    2.3645    0.3915    0.0000 C   0  0  0  0  0  0  0  0  0  0  0  0
    6.0048   -0.8096    0.0000 C   0  0  0  0  0  0  0  0  0  0  0  0
    6.5869   -1.3942    0.0000 C   0  0  1  0  0  0  0  0  0  0  0  0
    1.6500    0.8040    0.0000 C   0  0  0  0  0  0  0  0  0  0  0  0
    3.0790    1.6290    0.0000 C   0  0  0  0  0  0  0  0  0  0  0  0
    7.3842   -1.1822    0.0000 C   0  0  0  0  0  0  0  0  0  0  0  0
    7.5994   -0.3858    0.0000 C   0  0  0  0  0  0  0  0  0  0  0  0
    7.9664   -1.7668    0.0000 C   0  0  0  0  0  0  0  0  0  0  0  0
    8.7637   -1.5550    0.0000 C   0  0  0  0  0  0  0  0  0  0  0  0
    8.3967   -0.1739    0.0000 C   0  0  0  0  0  0  0  0  0  0  0  0
    8.9789   -0.7585    0.0000 C   0  0  0  0  0  0  0  0  0  0  0  0
    3.9629   -1.0713    0.0000 H   0  0  0  0  0  0  0  0  0  0  0  0
    2.3645    2.9785    0.0000 H   0  0  0  0  0  0  0  0  0  0  0  0
    4.9506   -1.9718    0.0000 H   0  0  0  0  0  0  0  0  0  0  0  0
    5.3859   -2.4525    0.0000 H   0  0  0  0  0  0  0  0  0  0  0  0
    7.0914   -2.9134    0.0000 H   0  0  0  0  0  0  0  0  0  0  0  0
    4.2128   -1.4242    0.0000 H   0  0  0  0  0  0  0  0  0  0  0  0
    1.4379   -0.9685    0.0000 H   0  0  0  0  0  0  0  0  0  0  0  0
    1.4379    0.1015    0.0000 H   0  0  0  0  0  0  0  0  0  0  0  0
    5.5528   -1.6689    0.0000 H   0  0  0  0  0  0  0  0  0  0  0  0
    1.6500    1.8740    0.0000 H   0  0  0  0  0  0  0  0  0  0  0  0
    0.7234    0.2690    0.0000 H   0  0  0  0  0  0  0  0  0  0  0  0
    0.7233    1.3390    0.0000 H   0  0  0  0  0  0  0  0  0  0  0  0
    6.8444    0.3724    0.0000 H   0  0  0  0  0  0  0  0  0  0  0  0
    7.8785    0.6472    0.0000 H   0  0  0  0  0  0  0  0  0  0  0  0
    7.6972   -2.7631    0.0000 H   0  0  0  0  0  0  0  0  0  0  0  0
    9.5187   -2.3132    0.0000 H   0  0  0  0  0  0  0  0  0  0  0  0
    9.7978   -1.2802    0.0000 H   0  0  0  0  0  0  0  0  0  0  0  0
    8.6658    0.8224    0.0000 H   0  0  0  0  0  0  0  0  0  0  0  0
    9.9763   -0.4935    0.0000 H   0  0  0  0  0  0  0  0  0  0  0  0
  1  9  1  0  0  0  0
  1 13  1  0  0  0  0
  2 11  2  0  0  0  0
  3 15  2  0  0  0  0
  4 18  1  0  0  0  0
  4 26  1  0  0  0  0
  5 18  2  0  0  0  0
  6  9  1  0  0  0  0
  6 11  1  0  0  0  0
  6 12  1  0  0  0  0
  7 15  1  0  0  0  0
  7 27  1  0  0  0  0
  8 28  1  0  0  0  0
  8 29  1  0  0  0  0
  9 10  1  0  0  0  0
  9 25  1  6  0  0  0
 10  7  1  0  0  0  0
 10 11  1  0  0  0  0
 10 30  1  6  0  0  0
 12 14  2  0  0  0  0
 12 18  1  0  0  0  0
 13 14  1  0  0  0  0
 13 31  1  0  0  0  0
 13 32  1  0  0  0  0
 14 17  1  0  0  0  0
 15 16  1  0  0  0  0
 16  8  1  0  0  0  0
 16 19  1  0  0  0  0
 16 33  1  6  0  0  0
 17 34  1  0  0  0  0
 17 35  1  0  0  0  0
 17 36  1  0  0  0  0
 19 20  1  0  0  0  0
 19 21  2  0  0  0  0
 20 23  1  0  0  0  0
 20 37  1  0  0  0  0
 20 38  1  0  0  0  0
 21 22  1  0  0  0  0
 21 39  1  0  0  0  0
 22 24  1  0  0  0  0
 22 40  1  0  0  0  0
 22 41  1  0  0  0  0
 23 24  2  0  0  0  0
 23 42  1  0  0  0  0
 24 43  1  0  0  0  0
M  END
>  <DRUGBANK_ID>
DB01333

>  <COMMON_NAME>
Cefradine

>  <CAS_NUMBER>
38821-53-3

>  <UNII>
9YA6SX5S4D

>  <SYNONYMS>
(6R,7R)-7-((R)-2-Amino-2-(1,4-cyclohexadien-1-yl)acetamido)-3-methyl-8-oxo-5-thia-1-azabicyclo(4.2.0)oct-2-ene-2-carboxylic acid; (6R,7R)-7-{[(2R)-2-amino-2-cyclohexa-1,4-dien-1-ylacetyl]amino}-3-methyl-8-oxo-5-thia-1-azabicyclo[4.2.0]oct-2-ene-2-carboxylic acid; 7-(D-2-Amino-2-(1,4-cyclohexadienyl)acetamide)desacetoxycephalosporanicacid; CED; Cefradina; Cefradine; Cefradinum; Cephradin; Cephradine

$$$$
