
 OpenBabel10282417072D

 28 29  0  0  0  0  0  0  0  0999 V2000
    4.2868   -1.6500    0.0000 C   0  0  0  0  0  0  0  0  0  0  0  0
    5.0013   -1.2375    0.0000 C   0  0  0  0  0  0  0  0  0  0  0  0
    3.5724   -1.2375    0.0000 C   0  0  0  0  0  0  0  0  0  0  0  0
    5.0013   -0.4125    0.0000 C   0  0  0  0  0  0  0  0  0  0  0  0
    3.5724   -0.4125    0.0000 C   0  0  0  0  0  0  0  0  0  0  0  0
    2.8579    3.3000    0.0000 C   0  0  0  0  0  0  0  0  0  0  0  0
    2.8579    2.4750    0.0000 C   0  0  0  0  0  0  0  0  0  0  0  0
    4.2868    3.3000    0.0000 C   0  0  0  0  0  0  0  0  0  0  0  0
    3.5724    3.7125    0.0000 C   0  0  0  0  0  0  0  0  0  0  0  0
    4.2868    0.0000    0.0000 C   0  0  0  0  0  0  0  0  0  0  0  0
    3.5724    2.0625    0.0000 C   0  0  0  0  0  0  0  0  0  0  0  0
    4.2868    2.4750    0.0000 C   0  0  0  0  0  0  0  0  0  0  0  0
    3.5724    1.2375    0.0000 C   0  0  0  0  0  0  0  0  0  0  0  0
    3.5724    4.5375    0.0000 N   0  0  0  0  0  0  0  0  0  0  0  0
    5.0013    2.0625    0.0000 O   0  0  0  0  0  0  0  0  0  0  0  0
    2.8579    0.8250    0.0000 O   0  0  0  0  0  0  0  0  0  0  0  0
    4.2868    0.8250    0.0000 O   0  0  0  0  0  0  0  0  0  0  0  0
    4.2868   -2.6820    0.0000 H   0  0  0  0  0  0  0  0  0  0  0  0
    5.8950   -1.7535    0.0000 H   0  0  0  0  0  0  0  0  0  0  0  0
    2.6787   -1.7535    0.0000 H   0  0  0  0  0  0  0  0  0  0  0  0
    5.8950    0.1035    0.0000 H   0  0  0  0  0  0  0  0  0  0  0  0
    2.6787    0.1035    0.0000 H   0  0  0  0  0  0  0  0  0  0  0  0
    1.9642    3.8160    0.0000 H   0  0  0  0  0  0  0  0  0  0  0  0
    1.9642    1.9590    0.0000 H   0  0  0  0  0  0  0  0  0  0  0  0
    5.1805    3.8160    0.0000 H   0  0  0  0  0  0  0  0  0  0  0  0
    4.4250    5.0297    0.0000 H   0  0  0  0  0  0  0  0  0  0  0  0
    2.7198    5.0297    0.0000 H   0  0  0  0  0  0  0  0  0  0  0  0
    5.0013    1.1255    0.0000 H   0  0  0  0  0  0  0  0  0  0  0  0
  1 18  1  0  0  0  0
  2  1  2  0  0  0  0
  2 19  1  0  0  0  0
  3  1  1  0  0  0  0
  3 20  1  0  0  0  0
  4  2  1  0  0  0  0
  4 21  1  0  0  0  0
  5  3  2  0  0  0  0
  5 22  1  0  0  0  0
  6 23  1  0  0  0  0
  7  6  2  0  0  0  0
  7 24  1  0  0  0  0
  8 25  1  0  0  0  0
  9  6  1  0  0  0  0
  9  8  2  0  0  0  0
 10  4  2  0  0  0  0
 10  5  1  0  0  0  0
 11  7  1  0  0  0  0
 12  8  1  0  0  0  0
 12 11  2  0  0  0  0
 13 11  1  0  0  0  0
 14  9  1  0  0  0  0
 14 26  1  0  0  0  0
 14 27  1  0  0  0  0
 15 12  1  0  0  0  0
 15 28  1  0  0  0  0
 16 13  2  0  0  0  0
 17 10  1  0  0  0  0
 17 13  1  0  0  0  0
M  END
>  <DRUGBANK_ID>
DB06807

>  <COMMON_NAME>
Phenyl aminosalicylate

>  <CAS_NUMBER>
133-11-9

>  <UNII>
52936SIP7V

>  <SYNONYMS>
Fenamisal; Fenamisalum; p-Aminosalol; Phenyl 4-aminosalicylate; Phenyl aminosalicylate; Phenyl PAS

$$$$
