
 OpenBabel10282417072D

 41 40  0  0  1  0  0  0  0  0999 V2000
    6.3793   -0.4909    0.0000 S   0  0  0  0  0  0  0  0  0  0  0  0
    5.6650   -0.0784    0.0000 O   0  0  0  0  0  0  0  0  0  0  0  0
    7.8082    1.9840    0.0000 O   0  0  0  0  0  0  0  0  0  0  0  0
    2.0928    1.1591    0.0000 O   0  0  0  0  0  0  0  0  0  0  0  0
    2.8072   -0.0784    0.0000 O   0  0  0  0  0  0  0  0  0  0  0  0
    5.6650   -1.7282    0.0000 O   0  0  0  0  0  0  0  0  0  0  0  0
   10.6658    1.1591    0.0000 O   0  0  0  0  0  0  0  0  0  0  0  0
    9.9515   -0.0784    0.0000 O   0  0  0  0  0  0  0  0  0  0  0  0
    6.3793    1.1591    0.0000 N   0  0  0  0  0  0  0  0  0  0  0  0
    8.5226    0.7465    0.0000 N   0  0  0  0  0  0  0  0  0  0  0  0
    3.5217    1.9840    0.0000 N   0  0  0  0  0  0  0  0  0  0  0  0
    7.0938    0.7465    0.0000 C   0  0  3  0  0  0  0  0  0  0  0  0
    4.2361    0.7465    0.0000 C   0  0  0  0  0  0  0  0  0  0  0  0
    4.9504    1.1591    0.0000 C   0  0  0  0  0  0  0  0  0  0  0  0
    3.5217    1.1591    0.0000 C   0  0  3  0  0  0  0  0  0  0  0  0
    5.6650    0.7465    0.0000 C   0  0  0  0  0  0  0  0  0  0  0  0
    7.0938   -0.0784    0.0000 C   0  0  0  0  0  0  0  0  0  0  0  0
    7.8082    1.1591    0.0000 C   0  0  0  0  0  0  0  0  0  0  0  0
    2.8072    0.7465    0.0000 C   0  0  0  0  0  0  0  0  0  0  0  0
    9.2371    1.1591    0.0000 C   0  0  0  0  0  0  0  0  0  0  0  0
    6.3793   -1.3158    0.0000 C   0  0  0  0  0  0  0  0  0  0  0  0
    9.9515    0.7465    0.0000 C   0  0  0  0  0  0  0  0  0  0  0  0
    2.0929    2.0961    0.0000 H   0  0  0  0  0  0  0  0  0  0  0  0
    4.8250   -1.2432    0.0000 H   0  0  0  0  0  0  0  0  0  0  0  0
   11.4774    0.6908    0.0000 H   0  0  0  0  0  0  0  0  0  0  0  0
    6.3792    2.1436    0.0000 H   0  0  0  0  0  0  0  0  0  0  0  0
    8.5226   -0.2380    0.0000 H   0  0  0  0  0  0  0  0  0  0  0  0
    4.4050    2.4940    0.0000 H   0  0  0  0  0  0  0  0  0  0  0  0
    2.6384    2.4940    0.0000 H   0  0  0  0  0  0  0  0  0  0  0  0
    6.1671    0.2115    0.0000 H   0  0  0  0  0  0  0  0  0  0  0  0
    4.2361   -0.3235    0.0000 H   0  0  0  0  0  0  0  0  0  0  0  0
    3.3094    0.2116    0.0000 H   0  0  0  0  0  0  0  0  0  0  0  0
    4.9503    2.2291    0.0000 H   0  0  0  0  0  0  0  0  0  0  0  0
    5.8770    1.6941    0.0000 H   0  0  0  0  0  0  0  0  0  0  0  0
    4.4484    1.6940    0.0000 H   0  0  0  0  0  0  0  0  0  0  0  0
    8.0204   -0.6134    0.0000 H   0  0  0  0  0  0  0  0  0  0  0  0
    8.0204    0.4566    0.0000 H   0  0  0  0  0  0  0  0  0  0  0  0
    9.2371    2.2291    0.0000 H   0  0  0  0  0  0  0  0  0  0  0  0
   10.1638    1.6940    0.0000 H   0  0  0  0  0  0  0  0  0  0  0  0
    7.3059   -1.8508    0.0000 H   0  0  0  0  0  0  0  0  0  0  0  0
    6.3793   -2.3858    0.0000 H   0  0  0  0  0  0  0  0  0  0  0  0
  1 17  1  0  0  0  0
  1 21  1  0  0  0  0
  2 16  2  0  0  0  0
  3 18  2  0  0  0  0
  4 19  1  0  0  0  0
  4 23  1  0  0  0  0
  5 19  2  0  0  0  0
  6 21  1  0  0  0  0
  6 24  1  0  0  0  0
  7 22  1  0  0  0  0
  7 25  1  0  0  0  0
  8 22  2  0  0  0  0
  9 12  1  0  0  0  0
  9 16  1  0  0  0  0
  9 26  1  0  0  0  0
 10 18  1  0  0  0  0
 10 20  1  0  0  0  0
 10 27  1  0  0  0  0
 11 15  1  0  0  0  0
 11 28  1  0  0  0  0
 11 29  1  0  0  0  0
 12 17  1  0  0  0  0
 12 18  1  0  0  0  0
 12 30  1  0  0  0  0
 13 14  1  0  0  0  0
 13 15  1  0  0  0  0
 13 31  1  0  0  0  0
 13 32  1  0  0  0  0
 14 16  1  0  0  0  0
 14 33  1  0  0  0  0
 14 34  1  0  0  0  0
 15 19  1  0  0  0  0
 15 35  1  0  0  0  0
 17 36  1  0  0  0  0
 17 37  1  0  0  0  0
 20 22  1  0  0  0  0
 20 38  1  0  0  0  0
 20 39  1  0  0  0  0
 21 40  1  0  0  0  0
 21 41  1  0  0  0  0
M  END
>  <DRUGBANK_ID>
DB05446

>  <COMMON_NAME>
LJP 1082

$$$$
