
 OpenBabel10282417072D

157156  0  0  0  0  0  0  0  0999 V2000
   -4.0651    5.9330    0.0000 N   0  0  0  0  0  0  0  0  0  0  0  0
   -3.2805    6.1879    0.0000 C   0  0  0  0  0  0  0  0  0  0  0  0
   -3.2805    7.0129    0.0000 C   0  0  0  0  0  0  0  0  0  0  0  0
   -4.0651    7.2679    0.0000 N   0  0  0  0  0  0  0  0  0  0  0  0
   -4.5500    6.6004    0.0000 C   0  0  0  0  0  0  0  0  0  0  0  0
   -2.5660    7.4254    0.0000 C   0  0  0  0  0  0  0  0  0  0  0  0
   -1.8516    7.0129    0.0000 N   0  0  0  0  0  0  0  0  0  0  0  0
   -1.8516    6.1879    0.0000 C   0  0  0  0  0  0  0  0  0  0  0  0
   -2.5660    5.7754    0.0000 N   0  0  0  0  0  0  0  0  0  0  0  0
   -2.5660    8.2504    0.0000 O   0  0  0  0  0  0  0  0  0  0  0  0
   -4.3201    5.1484    0.0000 C   0  0  2  0  0  0  0  0  0  0  0  0
   -3.8351    4.4809    0.0000 O   0  0  0  0  0  0  0  0  0  0  0  0
   -4.3201    3.8135    0.0000 C   0  0  2  0  0  0  0  0  0  0  0  0
   -4.0651    3.0289    0.0000 C   0  0  0  0  0  0  0  0  0  0  0  0
   -3.2581    2.8573    0.0000 O   0  0  0  0  0  0  0  0  0  0  0  0
   -5.1047    4.0684    0.0000 C   0  0  2  0  0  0  0  0  0  0  0  0
   -5.1047    4.8934    0.0000 C   0  0  1  0  0  0  0  0  0  0  0  0
   -5.7721    5.3784    0.0000 O   0  0  0  0  0  0  0  0  0  0  0  0
   -5.7721    3.5835    0.0000 O   0  0  0  0  0  0  0  0  0  0  0  0
    0.7485    6.1560    0.0000 C   0  0  0  0  0  0  0  0  0  0  0  0
    1.4630    5.7435    0.0000 C   0  0  0  0  0  0  0  0  0  0  0  0
    1.4630    4.9185    0.0000 C   0  0  0  0  0  0  0  0  0  0  0  0
    0.7485    4.5060    0.0000 C   0  0  0  0  0  0  0  0  0  0  0  0
    0.7485    3.6810    0.0000 C   0  0  0  0  0  0  0  0  0  0  0  0
    0.0341    3.2685    0.0000 O   0  0  0  0  0  0  0  0  0  0  0  0
    1.4630    3.2685    0.0000 O   0  0  0  0  0  0  0  0  0  0  0  0
    0.0341    4.9185    0.0000 C   0  0  0  0  0  0  0  0  0  0  0  0
    0.0341    5.7435    0.0000 C   0  0  0  0  0  0  0  0  0  0  0  0
    0.7485    6.9810    0.0000 N   0  0  0  0  0  0  0  0  0  0  0  0
    1.4630    7.3935    0.0000 C   0  0  0  0  0  0  0  0  0  0  0  0
    1.4630    8.2185    0.0000 C   0  0  0  0  0  0  0  0  0  0  0  0
    2.1775    6.9810    0.0000 O   0  0  0  0  0  0  0  0  0  0  0  0
    5.7721    5.5214    0.0000 C   0  0  0  0  0  0  0  0  0  0  0  0
    5.3596    6.2359    0.0000 N   0  0  0  0  0  0  0  0  0  0  0  0
    5.7721    6.9504    0.0000 C   0  0  0  0  0  0  0  0  0  0  0  0
    4.5346    6.2359    0.0000 C   0  0  0  0  0  0  0  0  0  0  0  0
    5.3596    4.8070    0.0000 C   0  0  1  0  0  0  0  0  0  0  0  0
    5.7721    4.0925    0.0000 C   0  0  0  0  0  0  0  0  0  0  0  0
    4.5346    4.8070    0.0000 O   0  0  0  0  0  0  0  0  0  0  0  0
   -4.0195   -0.8551    0.0000 C   0  0  0  0  0  0  0  0  0  0  0  0
   -3.3051   -1.2676    0.0000 C   0  0  0  0  0  0  0  0  0  0  0  0
   -3.3051   -2.0926    0.0000 C   0  0  0  0  0  0  0  0  0  0  0  0
   -4.0195   -2.5051    0.0000 C   0  0  0  0  0  0  0  0  0  0  0  0
   -4.0195   -3.3301    0.0000 C   0  0  0  0  0  0  0  0  0  0  0  0
   -4.7340   -3.7426    0.0000 O   0  0  0  0  0  0  0  0  0  0  0  0
   -3.3051   -3.7426    0.0000 O   0  0  0  0  0  0  0  0  0  0  0  0
   -4.7340   -2.0926    0.0000 C   0  0  0  0  0  0  0  0  0  0  0  0
   -4.7340   -1.2676    0.0000 C   0  0  0  0  0  0  0  0  0  0  0  0
   -4.0195   -0.0301    0.0000 N   0  0  0  0  0  0  0  0  0  0  0  0
   -3.3051    0.3823    0.0000 C   0  0  0  0  0  0  0  0  0  0  0  0
   -3.3051    1.2073    0.0000 C   0  0  0  0  0  0  0  0  0  0  0  0
   -2.5906   -0.0301    0.0000 O   0  0  0  0  0  0  0  0  0  0  0  0
    0.0095   -0.8551    0.0000 C   0  0  0  0  0  0  0  0  0  0  0  0
    0.7239   -1.2676    0.0000 C   0  0  0  0  0  0  0  0  0  0  0  0
    0.7239   -2.0926    0.0000 C   0  0  0  0  0  0  0  0  0  0  0  0
    0.0095   -2.5051    0.0000 C   0  0  0  0  0  0  0  0  0  0  0  0
    0.0095   -3.3301    0.0000 C   0  0  0  0  0  0  0  0  0  0  0  0
   -0.7049   -3.7426    0.0000 O   0  0  0  0  0  0  0  0  0  0  0  0
    0.7239   -3.7426    0.0000 O   0  0  0  0  0  0  0  0  0  0  0  0
   -0.7049   -2.0926    0.0000 C   0  0  0  0  0  0  0  0  0  0  0  0
   -0.7049   -1.2676    0.0000 C   0  0  0  0  0  0  0  0  0  0  0  0
    0.0095   -0.0301    0.0000 N   0  0  0  0  0  0  0  0  0  0  0  0
    0.7239    0.3823    0.0000 C   0  0  0  0  0  0  0  0  0  0  0  0
    0.7239    1.2073    0.0000 C   0  0  0  0  0  0  0  0  0  0  0  0
    1.4384   -0.0301    0.0000 O   0  0  0  0  0  0  0  0  0  0  0  0
    5.0331   -1.4897    0.0000 C   0  0  0  0  0  0  0  0  0  0  0  0
    4.6206   -0.7752    0.0000 C   0  0  1  0  0  0  0  0  0  0  0  0
    5.0331   -0.0607    0.0000 C   0  0  0  0  0  0  0  0  0  0  0  0
    3.7956   -0.7752    0.0000 O   0  0  0  0  0  0  0  0  0  0  0  0
    4.6206   -2.2041    0.0000 N   0  0  0  0  0  0  0  0  0  0  0  0
    5.0331   -2.9186    0.0000 C   0  0  0  0  0  0  0  0  0  0  0  0
    3.7956   -2.2041    0.0000 C   0  0  0  0  0  0  0  0  0  0  0  0
   -3.3283   -6.8215    0.0000 C   0  0  0  0  0  0  0  0  0  0  0  0
   -3.7408   -6.1070    0.0000 C   0  0  1  0  0  0  0  0  0  0  0  0
   -3.3283   -5.3926    0.0000 C   0  0  0  0  0  0  0  0  0  0  0  0
   -4.5658   -6.1070    0.0000 O   0  0  0  0  0  0  0  0  0  0  0  0
   -3.7408   -7.5360    0.0000 N   0  0  0  0  0  0  0  0  0  0  0  0
   -3.3283   -8.2504    0.0000 C   0  0  0  0  0  0  0  0  0  0  0  0
   -4.5658   -7.5360    0.0000 C   0  0  0  0  0  0  0  0  0  0  0  0
   -5.5820    6.6004    0.0000 H   0  0  0  0  0  0  0  0  0  0  0  0
   -0.9990    7.5051    0.0000 H   0  0  0  0  0  0  0  0  0  0  0  0
   -0.9579    5.6719    0.0000 H   0  0  0  0  0  0  0  0  0  0  0  0
   -3.2633    5.3158    0.0000 H   0  0  0  0  0  0  0  0  0  0  0  0
   -3.2633    3.6461    0.0000 H   0  0  0  0  0  0  0  0  0  0  0  0
   -4.7811    2.2337    0.0000 H   0  0  0  0  0  0  0  0  0  0  0  0
   -3.7345    2.0113    0.0000 H   0  0  0  0  0  0  0  0  0  0  0  0
   -2.9584    1.9348    0.0000 H   0  0  0  0  0  0  0  0  0  0  0  0
   -4.9373    3.0116    0.0000 H   0  0  0  0  0  0  0  0  0  0  0  0
   -6.0581    4.4077    0.0000 H   0  0  0  0  0  0  0  0  0  0  0  0
   -5.6706    6.3431    0.0000 H   0  0  0  0  0  0  0  0  0  0  0  0
   -6.6582    3.9780    0.0000 H   0  0  0  0  0  0  0  0  0  0  0  0
    2.3567    6.2595    0.0000 H   0  0  0  0  0  0  0  0  0  0  0  0
    2.3567    4.4025    0.0000 H   0  0  0  0  0  0  0  0  0  0  0  0
   -0.7774    3.7370    0.0000 H   0  0  0  0  0  0  0  0  0  0  0  0
   -0.8596    4.4025    0.0000 H   0  0  0  0  0  0  0  0  0  0  0  0
   -0.8596    6.2595    0.0000 H   0  0  0  0  0  0  0  0  0  0  0  0
   -0.1041    7.4733    0.0000 H   0  0  0  0  0  0  0  0  0  0  0  0
    2.3896    8.7535    0.0000 H   0  0  0  0  0  0  0  0  0  0  0  0
    0.5364    8.7535    0.0000 H   0  0  0  0  0  0  0  0  0  0  0  0
    1.4630    9.2885    0.0000 H   0  0  0  0  0  0  0  0  0  0  0  0
    6.8421    5.5214    0.0000 H   0  0  0  0  0  0  0  0  0  0  0  0
    6.3071    4.5947    0.0000 H   0  0  0  0  0  0  0  0  0  0  0  0
    6.8421    6.9504    0.0000 H   0  0  0  0  0  0  0  0  0  0  0  0
    5.2371    7.8770    0.0000 H   0  0  0  0  0  0  0  0  0  0  0  0
    6.3071    7.8771    0.0000 H   0  0  0  0  0  0  0  0  0  0  0  0
    3.9996    7.1625    0.0000 H   0  0  0  0  0  0  0  0  0  0  0  0
    3.9996    5.3093    0.0000 H   0  0  0  0  0  0  0  0  0  0  0  0
    3.4646    6.2359    0.0000 H   0  0  0  0  0  0  0  0  0  0  0  0
    4.8246    5.7337    0.0000 H   0  0  0  0  0  0  0  0  0  0  0  0
    5.2371    3.1659    0.0000 H   0  0  0  0  0  0  0  0  0  0  0  0
    6.8421    4.0925    0.0000 H   0  0  0  0  0  0  0  0  0  0  0  0
    6.3071    3.1658    0.0000 H   0  0  0  0  0  0  0  0  0  0  0  0
    4.0496    5.6470    0.0000 H   0  0  0  0  0  0  0  0  0  0  0  0
   -2.4114   -0.7516    0.0000 H   0  0  0  0  0  0  0  0  0  0  0  0
   -2.4114   -2.6086    0.0000 H   0  0  0  0  0  0  0  0  0  0  0  0
   -5.5455   -3.2741    0.0000 H   0  0  0  0  0  0  0  0  0  0  0  0
   -5.6277   -2.6086    0.0000 H   0  0  0  0  0  0  0  0  0  0  0  0
   -5.6277   -0.7516    0.0000 H   0  0  0  0  0  0  0  0  0  0  0  0
   -4.8721    0.4622    0.0000 H   0  0  0  0  0  0  0  0  0  0  0  0
   -2.3785    1.7423    0.0000 H   0  0  0  0  0  0  0  0  0  0  0  0
   -4.2317    1.7423    0.0000 H   0  0  0  0  0  0  0  0  0  0  0  0
   -3.3051    2.2773    0.0000 H   0  0  0  0  0  0  0  0  0  0  0  0
    1.6176   -0.7516    0.0000 H   0  0  0  0  0  0  0  0  0  0  0  0
    1.6176   -2.6086    0.0000 H   0  0  0  0  0  0  0  0  0  0  0  0
   -1.5164   -3.2741    0.0000 H   0  0  0  0  0  0  0  0  0  0  0  0
   -1.5986   -2.6086    0.0000 H   0  0  0  0  0  0  0  0  0  0  0  0
   -1.5986   -0.7516    0.0000 H   0  0  0  0  0  0  0  0  0  0  0  0
   -0.8431    0.4622    0.0000 H   0  0  0  0  0  0  0  0  0  0  0  0
    1.6505    1.7423    0.0000 H   0  0  0  0  0  0  0  0  0  0  0  0
   -0.2027    1.7423    0.0000 H   0  0  0  0  0  0  0  0  0  0  0  0
    0.7239    2.2773    0.0000 H   0  0  0  0  0  0  0  0  0  0  0  0
    6.1031   -1.4897    0.0000 H   0  0  0  0  0  0  0  0  0  0  0  0
    5.5681   -2.4164    0.0000 H   0  0  0  0  0  0  0  0  0  0  0  0
    4.0856   -1.7018    0.0000 H   0  0  0  0  0  0  0  0  0  0  0  0
    6.1031   -0.0607    0.0000 H   0  0  0  0  0  0  0  0  0  0  0  0
    4.4981    0.8659    0.0000 H   0  0  0  0  0  0  0  0  0  0  0  0
    5.5681    0.8660    0.0000 H   0  0  0  0  0  0  0  0  0  0  0  0
    3.3106    0.0648    0.0000 H   0  0  0  0  0  0  0  0  0  0  0  0
    4.4981   -3.8452    0.0000 H   0  0  0  0  0  0  0  0  0  0  0  0
    6.1031   -2.9186    0.0000 H   0  0  0  0  0  0  0  0  0  0  0  0
    5.5681   -3.8453    0.0000 H   0  0  0  0  0  0  0  0  0  0  0  0
    3.2606   -1.2775    0.0000 H   0  0  0  0  0  0  0  0  0  0  0  0
    3.2606   -3.1307    0.0000 H   0  0  0  0  0  0  0  0  0  0  0  0
    2.7256   -2.2041    0.0000 H   0  0  0  0  0  0  0  0  0  0  0  0
   -2.2583   -6.8215    0.0000 H   0  0  0  0  0  0  0  0  0  0  0  0
   -2.7933   -7.7481    0.0000 H   0  0  0  0  0  0  0  0  0  0  0  0
   -4.2758   -7.0336    0.0000 H   0  0  0  0  0  0  0  0  0  0  0  0
   -2.2583   -5.3926    0.0000 H   0  0  0  0  0  0  0  0  0  0  0  0
   -3.8633   -4.4659    0.0000 H   0  0  0  0  0  0  0  0  0  0  0  0
   -2.7933   -4.4660    0.0000 H   0  0  0  0  0  0  0  0  0  0  0  0
   -5.0508   -5.2670    0.0000 H   0  0  0  0  0  0  0  0  0  0  0  0
   -3.8633   -9.1771    0.0000 H   0  0  0  0  0  0  0  0  0  0  0  0
   -2.2583   -8.2504    0.0000 H   0  0  0  0  0  0  0  0  0  0  0  0
   -2.7933   -9.1770    0.0000 H   0  0  0  0  0  0  0  0  0  0  0  0
   -5.1008   -6.6094    0.0000 H   0  0  0  0  0  0  0  0  0  0  0  0
   -5.1008   -8.4626    0.0000 H   0  0  0  0  0  0  0  0  0  0  0  0
   -5.6358   -7.5360    0.0000 H   0  0  0  0  0  0  0  0  0  0  0  0
  1  2  1  0  0  0  0
  1  5  1  0  0  0  0
  2  3  2  0  0  0  0
  2  9  1  0  0  0  0
  3  4  1  0  0  0  0
  3  6  1  0  0  0  0
  4  5  2  0  0  0  0
  5 80  1  0  0  0  0
  6  7  1  0  0  0  0
  6 10  2  0  0  0  0
  7  8  1  0  0  0  0
  7 81  1  0  0  0  0
  8  9  2  0  0  0  0
  8 82  1  0  0  0  0
 11  1  1  0  0  0  0
 11 12  1  0  0  0  0
 11 17  1  0  0  0  0
 11 83  1  1  0  0  0
 12 13  1  0  0  0  0
 13 14  1  0  0  0  0
 13 16  1  0  0  0  0
 13 84  1  1  0  0  0
 14 15  1  0  0  0  0
 14 85  1  0  0  0  0
 14 86  1  0  0  0  0
 15 87  1  0  0  0  0
 16 17  1  0  0  0  0
 16 19  1  0  0  0  0
 16 88  1  6  0  0  0
 17 18  1  0  0  0  0
 17 89  1  6  0  0  0
 18 90  1  0  0  0  0
 19 91  1  0  0  0  0
 20 21  2  0  0  0  0
 20 28  1  0  0  0  0
 20 29  1  0  0  0  0
 21 22  1  0  0  0  0
 21 92  1  0  0  0  0
 22 23  2  0  0  0  0
 22 93  1  0  0  0  0
 23 24  1  0  0  0  0
 23 27  1  0  0  0  0
 24 25  1  0  0  0  0
 24 26  2  0  0  0  0
 25 94  1  0  0  0  0
 27 28  2  0  0  0  0
 27 95  1  0  0  0  0
 28 96  1  0  0  0  0
 29 30  1  0  0  0  0
 29 97  1  0  0  0  0
 30 31  1  0  0  0  0
 30 32  2  0  0  0  0
 31 98  1  0  0  0  0
 31 99  1  0  0  0  0
 31100  1  0  0  0  0
 33 34  1  0  0  0  0
 33 37  1  0  0  0  0
 33101  1  0  0  0  0
 33102  1  0  0  0  0
 34 35  1  0  0  0  0
 34 36  1  0  0  0  0
 35103  1  0  0  0  0
 35104  1  0  0  0  0
 35105  1  0  0  0  0
 36106  1  0  0  0  0
 36107  1  0  0  0  0
 36108  1  0  0  0  0
 37 38  1  0  0  0  0
 37 39  1  0  0  0  0
 37109  1  6  0  0  0
 38110  1  0  0  0  0
 38111  1  0  0  0  0
 38112  1  0  0  0  0
 39113  1  0  0  0  0
 40 41  2  0  0  0  0
 40 48  1  0  0  0  0
 40 49  1  0  0  0  0
 41 42  1  0  0  0  0
 41114  1  0  0  0  0
 42 43  2  0  0  0  0
 42115  1  0  0  0  0
 43 44  1  0  0  0  0
 43 47  1  0  0  0  0
 44 45  1  0  0  0  0
 44 46  2  0  0  0  0
 45116  1  0  0  0  0
 47 48  2  0  0  0  0
 47117  1  0  0  0  0
 48118  1  0  0  0  0
 49 50  1  0  0  0  0
 49119  1  0  0  0  0
 50 51  1  0  0  0  0
 50 52  2  0  0  0  0
 51120  1  0  0  0  0
 51121  1  0  0  0  0
 51122  1  0  0  0  0
 53 54  2  0  0  0  0
 53 61  1  0  0  0  0
 53 62  1  0  0  0  0
 54 55  1  0  0  0  0
 54123  1  0  0  0  0
 55 56  2  0  0  0  0
 55124  1  0  0  0  0
 56 57  1  0  0  0  0
 56 60  1  0  0  0  0
 57 58  1  0  0  0  0
 57 59  2  0  0  0  0
 58125  1  0  0  0  0
 60 61  2  0  0  0  0
 60126  1  0  0  0  0
 61127  1  0  0  0  0
 62 63  1  0  0  0  0
 62128  1  0  0  0  0
 63 64  1  0  0  0  0
 63 65  2  0  0  0  0
 64129  1  0  0  0  0
 64130  1  0  0  0  0
 64131  1  0  0  0  0
 66 67  1  0  0  0  0
 66 70  1  0  0  0  0
 66132  1  0  0  0  0
 66133  1  0  0  0  0
 67 68  1  0  0  0  0
 67 69  1  0  0  0  0
 67134  1  1  0  0  0
 68135  1  0  0  0  0
 68136  1  0  0  0  0
 68137  1  0  0  0  0
 69138  1  0  0  0  0
 70 71  1  0  0  0  0
 70 72  1  0  0  0  0
 71139  1  0  0  0  0
 71140  1  0  0  0  0
 71141  1  0  0  0  0
 72142  1  0  0  0  0
 72143  1  0  0  0  0
 72144  1  0  0  0  0
 73 74  1  0  0  0  0
 73 77  1  0  0  0  0
 73145  1  0  0  0  0
 73146  1  0  0  0  0
 74 75  1  0  0  0  0
 74 76  1  0  0  0  0
 74147  1  1  0  0  0
 75148  1  0  0  0  0
 75149  1  0  0  0  0
 75150  1  0  0  0  0
 76151  1  0  0  0  0
 77 78  1  0  0  0  0
 77 79  1  0  0  0  0
 78152  1  0  0  0  0
 78153  1  0  0  0  0
 78154  1  0  0  0  0
 79155  1  0  0  0  0
 79156  1  0  0  0  0
 79157  1  0  0  0  0
M  END
>  <DRUGBANK_ID>
DB13156

>  <COMMON_NAME>
Inosine pranobex

>  <CAS_NUMBER>
36703-88-5

>  <UNII>
W1SO0V223F

>  <SYNONYMS>
IAD; Inosine acedobene dimepranol; Inosine pranobex; Inosine-2-hydroxypropyldimethylammonium 4-acetamidobenzoate (1:3); Inosiplex; Isoprinosine; Methisoprinol

$$$$
