1137
 OpenBabel10282417072D

 46 49  0  0  1  0  0  0  0  0999 V2000
    5.2224    2.1733    0.0000 F   0  0  0  0  0  0  0  0  0  0  0  0
    3.7572   -0.3074    0.0000 O   0  0  0  0  0  0  0  0  0  0  0  0
    7.3574    0.1203    0.0000 O   0  0  0  0  0  0  0  0  0  0  0  0
    7.3958   -2.3388    0.0000 O   0  0  0  0  0  0  0  0  0  0  0  0
    8.0858   -1.0875    0.0000 O   0  0  0  0  0  0  0  0  0  0  0  0
    3.7935    1.3482    0.0000 N   0  0  0  0  0  0  0  0  0  0  0  0
    5.2357   -1.1610    0.0000 N   0  0  0  0  0  0  0  0  0  0  0  0
    2.3645    2.1733    0.0000 N   0  0  0  0  0  0  0  0  0  0  0  0
    3.7935    2.1733    0.0000 C   0  0  0  0  0  0  0  0  0  0  0  0
    3.0791    0.9357    0.0000 C   0  0  0  0  0  0  0  0  0  0  0  0
    4.4948   -1.5965    0.0000 C   0  0  2  0  0  0  0  0  0  0  0  0
    4.5080    0.9357    0.0000 C   0  0  0  0  0  0  0  0  0  0  0  0
    5.2224   -0.3018    0.0000 C   0  0  0  0  0  0  0  0  0  0  0  0
    4.5080    0.1107    0.0000 C   0  0  0  0  0  0  0  0  0  0  0  0
    3.0791    2.5858    0.0000 C   0  0  0  0  0  0  0  0  0  0  0  0
    2.3645    1.3482    0.0000 C   0  0  0  0  0  0  0  0  0  0  0  0
    3.7506   -1.1667    0.0000 C   0  0  0  0  0  0  0  0  0  0  0  0
    5.9370    0.1107    0.0000 C   0  0  0  0  0  0  0  0  0  0  0  0
    5.2224    1.3482    0.0000 C   0  0  0  0  0  0  0  0  0  0  0  0
    5.9594   -1.5429    0.0000 C   0  0  0  0  0  0  0  0  0  0  0  0
    5.9370    0.9357    0.0000 C   0  0  0  0  0  0  0  0  0  0  0  0
    4.4980   -2.4214    0.0000 C   0  0  0  0  0  0  0  0  0  0  0  0
    6.6460   -0.2975    0.0000 C   0  0  0  0  0  0  0  0  0  0  0  0
    1.6500    2.5858    0.0000 C   0  0  0  0  0  0  0  0  0  0  0  0
    6.6571   -1.1156    0.0000 C   0  0  0  0  0  0  0  0  0  0  0  0
    7.3796   -1.5139    0.0000 C   0  0  0  0  0  0  0  0  0  0  0  0
    6.5937   -2.8231    0.0000 H   0  0  0  0  0  0  0  0  0  0  0  0
    4.7202    2.7083    0.0000 H   0  0  0  0  0  0  0  0  0  0  0  0
    3.7935    3.2433    0.0000 H   0  0  0  0  0  0  0  0  0  0  0  0
    3.0792   -0.1343    0.0000 H   0  0  0  0  0  0  0  0  0  0  0  0
    2.1525    0.4006    0.0000 H   0  0  0  0  0  0  0  0  0  0  0  0
    5.4246   -2.1261    0.0000 H   0  0  0  0  0  0  0  0  0  0  0  0
    3.0792    3.6558    0.0000 H   0  0  0  0  0  0  0  0  0  0  0  0
    4.0058    3.1208    0.0000 H   0  0  0  0  0  0  0  0  0  0  0  0
    1.4379    0.8132    0.0000 H   0  0  0  0  0  0  0  0  0  0  0  0
    2.3646    0.2782    0.0000 H   0  0  0  0  0  0  0  0  0  0  0  0
    2.8219   -1.6981    0.0000 H   0  0  0  0  0  0  0  0  0  0  0  0
    3.7484   -2.2367    0.0000 H   0  0  0  0  0  0  0  0  0  0  0  0
    5.9924   -2.5744    0.0000 H   0  0  0  0  0  0  0  0  0  0  0  0
    6.8307    1.4517    0.0000 H   0  0  0  0  0  0  0  0  0  0  0  0
    3.5734   -2.9600    0.0000 H   0  0  0  0  0  0  0  0  0  0  0  0
    5.4267   -2.9528    0.0000 H   0  0  0  0  0  0  0  0  0  0  0  0
    4.5022   -3.4914    0.0000 H   0  0  0  0  0  0  0  0  0  0  0  0
    1.6500    3.6558    0.0000 H   0  0  0  0  0  0  0  0  0  0  0  0
    0.7234    2.0508    0.0000 H   0  0  0  0  0  0  0  0  0  0  0  0
    0.7233    3.1208    0.0000 H   0  0  0  0  0  0  0  0  0  0  0  0
  1 19  1  0  0  0  0
  2 14  1  0  0  0  0
  2 17  1  0  0  0  0
  3 23  2  0  0  0  0
  4 26  1  0  0  0  0
  4 27  1  0  0  0  0
  5 26  2  0  0  0  0
  6  9  1  0  0  0  0
  6 10  1  0  0  0  0
  6 12  1  0  0  0  0
  7 11  1  0  0  0  0
  7 13  1  0  0  0  0
  7 20  1  0  0  0  0
  8 15  1  0  0  0  0
  8 16  1  0  0  0  0
  8 24  1  0  0  0  0
  9 15  1  0  0  0  0
  9 28  1  0  0  0  0
  9 29  1  0  0  0  0
 10 16  1  0  0  0  0
 10 30  1  0  0  0  0
 10 31  1  0  0  0  0
 11 17  1  0  0  0  0
 11 22  1  0  0  0  0
 11 32  1  6  0  0  0
 12 14  1  0  0  0  0
 12 19  2  0  0  0  0
 13 14  2  0  0  0  0
 13 18  1  0  0  0  0
 15 33  1  0  0  0  0
 15 34  1  0  0  0  0
 16 35  1  0  0  0  0
 16 36  1  0  0  0  0
 17 37  1  0  0  0  0
 17 38  1  0  0  0  0
 18 21  2  0  0  0  0
 18 23  1  0  0  0  0
 19 21  1  0  0  0  0
 20 25  2  0  0  0  0
 20 39  1  0  0  0  0
 21 40  1  0  0  0  0
 22 41  1  0  0  0  0
 22 42  1  0  0  0  0
 22 43  1  0  0  0  0
 23 25  1  0  0  0  0
 24 44  1  0  0  0  0
 24 45  1  0  0  0  0
 24 46  1  0  0  0  0
 25 26  1  0  0  0  0
M  END
>  <DRUGBANK_ID>
DB01137

>  <SECONDARY_ACCESSION_NUMBERS>
APRD00477; DB06085

>  <COMMON_NAME>
Levofloxacin

>  <CAS_NUMBER>
100986-85-4

>  <UNII>
RIX4E89Y14

>  <SYNONYMS>
(-)-Ofloxacin; (3S)-(-)-9-fluoro-3-methyl-10-(4-methyl-1-piperazinyl)-7-oxo-2,3-dihydro-7H-pyrido[1,2,3-de][1,4]benzoxazine-6-carboxylic acid; (S)-(-)-9-fluoro-3-methyl-10-(4-methyl-1-piperazinyl)-7-oxo-2,3-dihydro-7H-pyrido[1,2,3-de][1,4]benzooxazine-6-carboxylic acid; (S)-9-Fluoro-2,3-dihydro-3-methyl-10-(4-methyl-1-piperazinyl)-7-oxo-7H-pyrido(1,2,3-de)-1,4-benzoxazine-6-carboxylic acid; (S)-Ofloxacin; L-Ofloxacin; Levofloxacin; Levofloxacin anhydrous; Levofloxacine; Levofloxacino; Levofloxacinum; Ofloxacin S-(-)-form

$$$$
