2PD
 OpenBabel10282417072D

 57 60  0  0  0  0  0  0  0  0999 V2000
    1.7011    2.4219    0.0000 O   0  0  0  0  0  0  0  0  0  0  0  0
    1.1708    1.7899    0.0000 S   0  0  0  0  0  0  0  0  0  0  0  0
    0.6405    2.4219    0.0000 O   0  0  0  0  0  0  0  0  0  0  0  0
    1.8853    1.3774    0.0000 C   0  0  0  0  0  0  0  0  0  0  0  0
    2.5998    1.7899    0.0000 C   0  0  0  0  0  0  0  0  0  0  0  0
    3.3143    1.3774    0.0000 C   0  0  0  0  0  0  0  0  0  0  0  0
    4.0287    1.7899    0.0000 O   0  0  0  0  0  0  0  0  0  0  0  0
    4.7432    1.3774    0.0000 C   0  0  0  0  0  0  0  0  0  0  0  0
    3.3143    0.5524    0.0000 C   0  0  0  0  0  0  0  0  0  0  0  0
    0.4564    1.3774    0.0000 N   0  0  0  0  0  0  0  0  0  0  0  0
    0.4564    0.5524    0.0000 C   0  0  0  0  0  0  0  0  0  0  0  0
    1.1708    0.1399    0.0000 N   0  0  0  0  0  0  0  0  0  0  0  0
    1.8853    0.5524    0.0000 C   0  0  0  0  0  0  0  0  0  0  0  0
    2.5998    0.1399    0.0000 C   0  0  0  0  0  0  0  0  0  0  0  0
   -0.2581    0.1399    0.0000 C   0  0  0  0  0  0  0  0  0  0  0  0
   -0.2581   -0.6851    0.0000 C   0  0  0  0  0  0  0  0  0  0  0  0
    0.4564   -1.0976    0.0000 O   0  0  0  0  0  0  0  0  0  0  0  0
   -0.9726    0.5524    0.0000 C   0  0  0  0  0  0  0  0  0  0  0  0
   -0.9726    1.3774    0.0000 O   0  0  0  0  0  0  0  0  0  0  0  0
   -1.6870    0.1399    0.0000 N   0  0  0  0  0  0  0  0  0  0  0  0
   -2.4015    0.5524    0.0000 C   0  0  0  0  0  0  0  0  0  0  0  0
   -3.1160    0.1399    0.0000 C   0  0  0  0  0  0  0  0  0  0  0  0
   -3.8304    0.5524    0.0000 C   0  0  0  0  0  0  0  0  0  0  0  0
   -4.5449    0.1399    0.0000 C   0  0  0  0  0  0  0  0  0  0  0  0
   -3.8304    1.3774    0.0000 C   0  0  0  0  0  0  0  0  0  0  0  0
   -1.6870   -0.6851    0.0000 N   0  0  0  0  0  0  0  0  0  0  0  0
   -0.9726   -1.0976    0.0000 C   0  0  0  0  0  0  0  0  0  0  0  0
   -0.9726   -1.9226    0.0000 C   0  0  0  0  0  0  0  0  0  0  0  0
   -0.2581   -2.3351    0.0000 C   0  0  0  0  0  0  0  0  0  0  0  0
   -0.2581   -3.1601    0.0000 C   0  0  0  0  0  0  0  0  0  0  0  0
   -1.6870   -2.3351    0.0000 C   0  0  0  0  0  0  0  0  0  0  0  0
   -1.6870   -3.1601    0.0000 C   0  0  0  0  0  0  0  0  0  0  0  0
   -0.9726   -3.5726    0.0000 C   0  0  0  0  0  0  0  0  0  0  0  0
    2.5998    2.8219    0.0000 H   0  0  0  0  0  0  0  0  0  0  0  0
    4.7432    0.3074    0.0000 H   0  0  0  0  0  0  0  0  0  0  0  0
    5.6698    1.9124    0.0000 H   0  0  0  0  0  0  0  0  0  0  0  0
    5.6699    0.8424    0.0000 H   0  0  0  0  0  0  0  0  0  0  0  0
    4.2080    0.0364    0.0000 H   0  0  0  0  0  0  0  0  0  0  0  0
   -0.3962    1.8696    0.0000 H   0  0  0  0  0  0  0  0  0  0  0  0
    2.5998   -0.8921    0.0000 H   0  0  0  0  0  0  0  0  0  0  0  0
    0.4564   -2.0346    0.0000 H   0  0  0  0  0  0  0  0  0  0  0  0
   -2.4015    1.6224    0.0000 H   0  0  0  0  0  0  0  0  0  0  0  0
   -3.3281    1.0874    0.0000 H   0  0  0  0  0  0  0  0  0  0  0  0
   -3.1160   -0.9301    0.0000 H   0  0  0  0  0  0  0  0  0  0  0  0
   -4.0427   -0.3951    0.0000 H   0  0  0  0  0  0  0  0  0  0  0  0
   -4.7570    1.0874    0.0000 H   0  0  0  0  0  0  0  0  0  0  0  0
   -5.4715    0.6749    0.0000 H   0  0  0  0  0  0  0  0  0  0  0  0
   -4.5449   -0.9301    0.0000 H   0  0  0  0  0  0  0  0  0  0  0  0
   -5.4716   -0.3951    0.0000 H   0  0  0  0  0  0  0  0  0  0  0  0
   -2.9038    1.9124    0.0000 H   0  0  0  0  0  0  0  0  0  0  0  0
   -4.7570    1.9124    0.0000 H   0  0  0  0  0  0  0  0  0  0  0  0
   -3.8304    2.4474    0.0000 H   0  0  0  0  0  0  0  0  0  0  0  0
    0.6356   -1.8191    0.0000 H   0  0  0  0  0  0  0  0  0  0  0  0
    0.6356   -3.6761    0.0000 H   0  0  0  0  0  0  0  0  0  0  0  0
   -2.5807   -1.8191    0.0000 H   0  0  0  0  0  0  0  0  0  0  0  0
   -2.5807   -3.6761    0.0000 H   0  0  0  0  0  0  0  0  0  0  0  0
   -0.9726   -4.6046    0.0000 H   0  0  0  0  0  0  0  0  0  0  0  0
  1  2  2  0  0  0  0
  2  3  2  0  0  0  0
  2  4  1  0  0  0  0
  2 10  1  0  0  0  0
  4  5  2  0  0  0  0
  4 13  1  0  0  0  0
  5  6  1  0  0  0  0
  5 34  1  0  0  0  0
  6  7  1  0  0  0  0
  6  9  2  0  0  0  0
  7  8  1  0  0  0  0
  8 35  1  0  0  0  0
  8 36  1  0  0  0  0
  8 37  1  0  0  0  0
  9 14  1  0  0  0  0
  9 38  1  0  0  0  0
 10 11  1  0  0  0  0
 10 39  1  0  0  0  0
 11 12  2  0  0  0  0
 11 15  1  0  0  0  0
 12 13  1  0  0  0  0
 13 14  2  0  0  0  0
 14 40  1  0  0  0  0
 15 16  2  0  0  0  0
 15 18  1  0  0  0  0
 16 17  1  0  0  0  0
 16 27  1  0  0  0  0
 17 41  1  0  0  0  0
 18 19  2  0  0  0  0
 18 20  1  0  0  0  0
 20 21  1  0  0  0  0
 20 26  1  0  0  0  0
 21 22  1  0  0  0  0
 21 42  1  0  0  0  0
 21 43  1  0  0  0  0
 22 23  1  0  0  0  0
 22 44  1  0  0  0  0
 22 45  1  0  0  0  0
 23 24  1  0  0  0  0
 23 25  1  0  0  0  0
 23 46  1  0  0  0  0
 24 47  1  0  0  0  0
 24 48  1  0  0  0  0
 24 49  1  0  0  0  0
 25 50  1  0  0  0  0
 25 51  1  0  0  0  0
 25 52  1  0  0  0  0
 26 27  2  0  0  0  0
 27 28  1  0  0  0  0
 28 29  2  0  0  0  0
 28 31  1  0  0  0  0
 29 30  1  0  0  0  0
 29 53  1  0  0  0  0
 30 33  2  0  0  0  0
 30 54  1  0  0  0  0
 31 32  2  0  0  0  0
 31 55  1  0  0  0  0
 32 33  1  0  0  0  0
 32 56  1  0  0  0  0
 33 57  1  0  0  0  0
M  END
>  <DRUGBANK_ID>
DB06974

>  <COMMON_NAME>
5-hydroxy-4-(7-methoxy-1,1-dioxido-2H-1,2,4-benzothiadiazin-3-yl)-2-(3-methylbutyl)-6-phenylpyridazin-3(2H)-one

$$$$
