C92
 OpenBabel10282417072D

 53 55  0  0  0  0  0  0  0  0999 V2000
   -3.6249    0.5949    0.0000 C   0  0  0  0  0  0  0  0  0  0  0  0
   -4.1769   -0.0182    0.0000 C   0  0  0  0  0  0  0  0  0  0  0  0
   -3.7644   -0.7327    0.0000 C   0  0  0  0  0  0  0  0  0  0  0  0
   -2.9574   -0.5611    0.0000 C   0  0  0  0  0  0  0  0  0  0  0  0
   -2.8712    0.2593    0.0000 C   0  0  0  0  0  0  0  0  0  0  0  0
   -2.1567    0.6718    0.0000 C   0  0  0  0  0  0  0  0  0  0  0  0
   -1.4422    0.2593    0.0000 C   0  0  0  0  0  0  0  0  0  0  0  0
   -0.7278    0.6718    0.0000 N   0  0  0  0  0  0  0  0  0  0  0  0
   -0.0133    0.2593    0.0000 C   0  0  0  0  0  0  0  0  0  0  0  0
   -0.0133   -0.5657    0.0000 O   0  0  0  0  0  0  0  0  0  0  0  0
    0.7012    0.6718    0.0000 C   0  0  0  0  0  0  0  0  0  0  0  0
    1.4156    0.2593    0.0000 C   0  0  0  0  0  0  0  0  0  0  0  0
    0.7012    1.4968    0.0000 C   0  0  0  0  0  0  0  0  0  0  0  0
    1.4156    1.9093    0.0000 C   0  0  0  0  0  0  0  0  0  0  0  0
    2.1301    1.4968    0.0000 C   0  0  0  0  0  0  0  0  0  0  0  0
    2.8446    1.9093    0.0000 C   0  0  0  0  0  0  0  0  0  0  0  0
    2.1301    0.6718    0.0000 C   0  0  0  0  0  0  0  0  0  0  0  0
    2.8446    0.2593    0.0000 C   0  0  0  0  0  0  0  0  0  0  0  0
    3.5590    0.6718    0.0000 O   0  0  0  0  0  0  0  0  0  0  0  0
    2.8446   -0.5657    0.0000 N   0  0  0  0  0  0  0  0  0  0  0  0
    3.5590   -0.9782    0.0000 C   0  0  0  0  0  0  0  0  0  0  0  0
    3.5590   -1.8032    0.0000 C   0  0  0  0  0  0  0  0  0  0  0  0
    4.2735   -2.2157    0.0000 C   0  0  0  0  0  0  0  0  0  0  0  0
    4.9880   -1.8032    0.0000 C   0  0  0  0  0  0  0  0  0  0  0  0
    5.7025   -2.2157    0.0000 N   0  0  0  0  0  0  0  0  0  0  0  0
    4.9880   -0.9782    0.0000 N   0  0  0  0  0  0  0  0  0  0  0  0
    4.2735   -0.5657    0.0000 C   0  0  0  0  0  0  0  0  0  0  0  0
   -3.8474    1.6415    0.0000 H   0  0  0  0  0  0  0  0  0  0  0  0
   -4.6584    0.8718    0.0000 H   0  0  0  0  0  0  0  0  0  0  0  0
   -5.2410    0.0936    0.0000 H   0  0  0  0  0  0  0  0  0  0  0  0
   -4.7597   -0.9156    0.0000 H   0  0  0  0  0  0  0  0  0  0  0  0
   -4.1996   -1.7102    0.0000 H   0  0  0  0  0  0  0  0  0  0  0  0
   -3.0910   -1.5642    0.0000 H   0  0  0  0  0  0  0  0  0  0  0  0
   -2.1622   -1.2770    0.0000 H   0  0  0  0  0  0  0  0  0  0  0  0
   -1.9585   -0.1776    0.0000 H   0  0  0  0  0  0  0  0  0  0  0  0
   -1.9738   -0.3235    0.0000 H   0  0  0  0  0  0  0  0  0  0  0  0
   -2.1567    1.7418    0.0000 H   0  0  0  0  0  0  0  0  0  0  0  0
   -1.2301    1.2068    0.0000 H   0  0  0  0  0  0  0  0  0  0  0  0
   -1.4422   -0.8107    0.0000 H   0  0  0  0  0  0  0  0  0  0  0  0
   -0.5155   -0.2757    0.0000 H   0  0  0  0  0  0  0  0  0  0  0  0
   -0.7278    1.6563    0.0000 H   0  0  0  0  0  0  0  0  0  0  0  0
    1.4156   -0.7727    0.0000 H   0  0  0  0  0  0  0  0  0  0  0  0
   -0.1925    2.0128    0.0000 H   0  0  0  0  0  0  0  0  0  0  0  0
    1.4156    2.9413    0.0000 H   0  0  0  0  0  0  0  0  0  0  0  0
    3.7712    1.3743    0.0000 H   0  0  0  0  0  0  0  0  0  0  0  0
    2.8446    2.9793    0.0000 H   0  0  0  0  0  0  0  0  0  0  0  0
    3.7713    2.4443    0.0000 H   0  0  0  0  0  0  0  0  0  0  0  0
    1.9920   -1.0579    0.0000 H   0  0  0  0  0  0  0  0  0  0  0  0
    2.6653   -2.3192    0.0000 H   0  0  0  0  0  0  0  0  0  0  0  0
    4.2735   -3.2477    0.0000 H   0  0  0  0  0  0  0  0  0  0  0  0
    5.7025   -3.2002    0.0000 H   0  0  0  0  0  0  0  0  0  0  0  0
    6.5551   -1.7234    0.0000 H   0  0  0  0  0  0  0  0  0  0  0  0
    4.2735    0.4663    0.0000 H   0  0  0  0  0  0  0  0  0  0  0  0
  1  5  1  0  0  0  0
  1 28  1  0  0  0  0
  1 29  1  0  0  0  0
  2  1  1  0  0  0  0
  2  3  1  0  0  0  0
  2 30  1  0  0  0  0
  2 31  1  0  0  0  0
  3  4  1  0  0  0  0
  3 32  1  0  0  0  0
  3 33  1  0  0  0  0
  4  5  1  0  0  0  0
  4 34  1  0  0  0  0
  4 35  1  0  0  0  0
  5  6  1  0  0  0  0
  5 36  1  0  0  0  0
  6  7  1  0  0  0  0
  6 37  1  0  0  0  0
  6 38  1  0  0  0  0
  7  8  1  0  0  0  0
  7 39  1  0  0  0  0
  7 40  1  0  0  0  0
  8  9  1  0  0  0  0
  8 41  1  0  0  0  0
  9 11  1  0  0  0  0
 10  9  2  0  0  0  0
 11 13  2  0  0  0  0
 11 12  1  0  0  0  0
 12 17  2  0  0  0  0
 12 42  1  0  0  0  0
 13 14  1  0  0  0  0
 13 43  1  0  0  0  0
 14 15  2  0  0  0  0
 14 44  1  0  0  0  0
 15 16  1  0  0  0  0
 16 45  1  0  0  0  0
 16 46  1  0  0  0  0
 16 47  1  0  0  0  0
 17 15  1  0  0  0  0
 17 18  1  0  0  0  0
 18 19  2  0  0  0  0
 18 20  1  0  0  0  0
 20 21  1  0  0  0  0
 20 48  1  0  0  0  0
 21 27  2  0  0  0  0
 21 22  1  0  0  0  0
 22 23  2  0  0  0  0
 22 49  1  0  0  0  0
 23 24  1  0  0  0  0
 23 50  1  0  0  0  0
 24 25  1  0  0  0  0
 25 51  1  0  0  0  0
 25 52  1  0  0  0  0
 26 24  2  0  0  0  0
 27 26  1  0  0  0  0
 27 53  1  0  0  0  0
M  END
>  <DRUGBANK_ID>
DB07537

>  <COMMON_NAME>
N'-(6-aminopyridin-3-yl)-N-(2-cyclopentylethyl)-4-methyl-benzene-1,3-dicarboxamide

$$$$
