
 OpenBabel10282417072D

177187  0  0  0  0  0  0  0  0999 V2000
   -7.4002   -6.3584    0.0000 C   0  0  0  0  0  0  0  0  0  0  0  0
   -7.6007   -5.5582    0.0000 O   0  0  0  0  0  0  0  0  0  0  0  0
   -7.0079   -4.9844    0.0000 C   0  0  0  0  0  0  0  0  0  0  0  0
   -7.2085   -4.1841    0.0000 C   0  0  0  0  0  0  0  0  0  0  0  0
   -6.6157   -3.6103    0.0000 C   0  0  0  0  0  0  0  0  0  0  0  0
   -5.8224   -3.8368    0.0000 C   0  0  0  0  0  0  0  0  0  0  0  0
   -5.1232   -3.3988    0.0000 N   0  0  0  0  0  0  0  0  0  0  0  0
   -4.4906   -3.9284    0.0000 C   0  0  0  0  0  0  0  0  0  0  0  0
   -4.7988   -4.6937    0.0000 N   0  0  0  0  0  0  0  0  0  0  0  0
   -5.6218   -4.6371    0.0000 C   0  0  0  0  0  0  0  0  0  0  0  0
   -6.2146   -5.2109    0.0000 C   0  0  0  0  0  0  0  0  0  0  0  0
   -5.0666   -2.5758    0.0000 C   0  0  1  0  0  0  0  0  0  0  0  0
   -5.6992   -2.0462    0.0000 O   0  0  0  0  0  0  0  0  0  0  0  0
   -5.3911   -1.2809    0.0000 C   0  0  2  0  0  0  0  0  0  0  0  0
   -5.8291   -0.5818    0.0000 C   0  0  0  0  0  0  0  0  0  0  0  0
   -5.4426    0.1470    0.0000 O   0  0  0  0  0  0  0  0  0  0  0  0
   -4.5680   -1.3375    0.0000 C   0  0  1  0  0  0  0  0  0  0  0  0
   -4.0385   -0.7049    0.0000 O   0  0  0  0  0  0  0  0  0  0  0  0
   -3.2258   -0.8472    0.0000 P   0  0  2  0  0  0  0  0  0  0  0  0
   -3.3681   -1.6598    0.0000 O   0  5  0  0  0  0  0  0  0  0  0  0
   -3.0835   -0.0346    0.0000 O   0  0  0  0  0  0  0  0  0  0  0  0
   -2.4132   -0.9895    0.0000 O   0  0  0  0  0  0  0  0  0  0  0  0
   -1.8836   -0.3569    0.0000 C   0  0  2  0  0  0  0  0  0  0  0  0
   -2.1667    0.4179    0.0000 C   0  0  0  0  0  0  0  0  0  0  0  0
   -1.0710   -0.4992    0.0000 C   0  0  0  0  0  0  0  0  0  0  0  0
   -0.5414    0.1333    0.0000 N   0  0  0  0  0  0  0  0  0  0  0  0
    0.2711   -0.0089    0.0000 C   0  0  0  0  0  0  0  0  0  0  0  0
    0.5542   -0.7839    0.0000 O   0  0  0  0  0  0  0  0  0  0  0  0
    0.8007    0.6236    0.0000 C   0  0  0  0  0  0  0  0  0  0  0  0
    1.6133    0.4812    0.0000 C   0  0  0  0  0  0  0  0  0  0  0  0
    2.1429    1.1138    0.0000 C   0  0  2  0  0  0  0  0  0  0  0  0
    1.4584    1.5744    0.0000 C   0  0  0  0  0  0  0  0  0  0  0  0
    2.7166    0.5211    0.0000 C   0  0  1  0  0  0  0  0  0  0  0  0
    2.5743   -0.2915    0.0000 C   0  0  0  0  0  0  0  0  0  0  0  0
    1.7994   -0.5745    0.0000 C   0  0  0  0  0  0  0  0  0  0  0  0
    1.6571   -1.3872    0.0000 N   0  0  0  0  0  0  0  0  0  0  0  0
    1.1668   -0.0450    0.0000 O   0  0  0  0  0  0  0  0  0  0  0  0
    3.4577    0.8836    0.0000 C   0  0  0  0  0  0  0  0  0  0  0  0
    3.3420    1.7004    0.0000 N   0  3  0  0  0  0  0  0  0  0  0  0
    2.5293    1.8427    0.0000 C   0  0  0  0  0  0  0  0  0  0  0  0
    2.2195    2.8601    0.0000 C   0  0  0  0  0  0  0  0  0  0  0  0
    1.3945    2.8528    0.0000 C   0  0  0  0  0  0  0  0  0  0  0  0
    2.4459    3.6534    0.0000 C   0  0  0  0  0  0  0  0  0  0  0  0
    3.2704    3.6831    0.0000 N   0  3  0  0  0  0  0  0  0  0  0  0
    3.4969    4.4764    0.0000 C   0  0  0  0  0  0  0  0  0  0  0  0
    4.5411    4.6783    0.0000 C   0  0  0  0  0  0  0  0  0  0  0  0
    5.3063    4.3701    0.0000 C   0  0  0  0  0  0  0  0  0  0  0  0
    5.2497    3.5470    0.0000 N   0  3  0  0  0  0  0  0  0  0  0  0
    6.0150    3.2389    0.0000 C   0  0  0  0  0  0  0  0  0  0  0  0
    6.1066    2.1793    0.0000 C   0  0  0  0  0  0  0  0  0  0  0  0
    6.9150    2.0149    0.0000 C   0  0  0  0  0  0  0  0  0  0  0  0
    5.7201    1.4505    0.0000 C   0  0  0  0  0  0  0  0  0  0  0  0
    4.9075    1.5928    0.0000 N   0  3  0  0  0  0  0  0  0  0  0  0
    4.5210    0.8639    0.0000 C   0  0  1  0  0  0  0  0  0  0  0  0
    4.1921    0.1073    0.0000 C   0  0  0  0  0  0  0  0  0  0  0  0
    5.0948    0.2711    0.0000 C   0  0  1  0  0  0  0  0  0  0  0  0
    4.4453   -0.2375    0.0000 C   0  0  0  0  0  0  0  0  0  0  0  0
    5.5328   -0.4279    0.0000 C   0  0  0  0  0  0  0  0  0  0  0  0
    5.1464   -1.1568    0.0000 C   0  0  0  0  0  0  0  0  0  0  0  0
    5.5843   -1.8559    0.0000 N   0  0  0  0  0  0  0  0  0  0  0  0
    4.3219   -1.1866    0.0000 O   0  0  0  0  0  0  0  0  0  0  0  0
    5.8359    0.6336    0.0000 C   0  0  2  0  0  0  0  0  0  0  0  0
    6.5648    0.2472    0.0000 C   0  0  0  0  0  0  0  0  0  0  0  0
    7.2639    0.6852    0.0000 C   0  0  0  0  0  0  0  0  0  0  0  0
    7.9928    0.2987    0.0000 C   0  0  0  0  0  0  0  0  0  0  0  0
    8.0226   -0.5257    0.0000 N   0  0  0  0  0  0  0  0  0  0  0  0
    8.6919    0.7367    0.0000 O   0  0  0  0  0  0  0  0  0  0  0  0
    4.1924    2.6308    0.0000 Co  0  0  2  0  0  0  0  0  0  0  0  0
    6.5446    3.8715    0.0000 C   0  0  1  0  0  0  0  0  0  0  0  0
    7.1184    3.2787    0.0000 C   0  0  0  0  0  0  0  0  0  0  0  0
    7.1941    4.3802    0.0000 C   0  0  0  0  0  0  0  0  0  0  0  0
    7.9594    4.0720    0.0000 C   0  0  0  0  0  0  0  0  0  0  0  0
    8.6089    4.5807    0.0000 N   0  0  0  0  0  0  0  0  0  0  0  0
    8.0752    3.2552    0.0000 O   0  0  0  0  0  0  0  0  0  0  0  0
    6.1066    4.5706    0.0000 C   0  0  2  0  0  0  0  0  0  0  0  0
    6.4148    5.3359    0.0000 C   0  0  0  0  0  0  0  0  0  0  0  0
    5.9061    5.9854    0.0000 C   0  0  0  0  0  0  0  0  0  0  0  0
    6.2142    6.7507    0.0000 C   0  0  0  0  0  0  0  0  0  0  0  0
    5.7056    7.4002    0.0000 N   0  0  0  0  0  0  0  0  0  0  0  0
    7.0311    6.8665    0.0000 O   0  0  0  0  0  0  0  0  0  0  0  0
    2.8124    4.9370    0.0000 C   0  0  0  0  0  0  0  0  0  0  0  0
    2.2386    5.5298    0.0000 C   0  0  0  0  0  0  0  0  0  0  0  0
    3.3420    5.5696    0.0000 C   0  0  0  0  0  0  0  0  0  0  0  0
    2.1629    4.4283    0.0000 C   0  0  2  0  0  0  0  0  0  0  0  0
    1.3696    4.6548    0.0000 C   0  0  0  0  0  0  0  0  0  0  0  0
    1.1691    5.4550    0.0000 C   0  0  0  0  0  0  0  0  0  0  0  0
    0.3757    5.6815    0.0000 C   0  0  0  0  0  0  0  0  0  0  0  0
   -0.2169    5.1077    0.0000 N   0  0  0  0  0  0  0  0  0  0  0  0
    0.1752    6.4818    0.0000 O   0  0  0  0  0  0  0  0  0  0  0  0
   -4.3675   -2.1378    0.0000 C   0  0  1  0  0  0  0  0  0  0  0  0
   -3.6022   -2.4459    0.0000 O   0  0  0  0  0  0  0  0  0  0  0  0
   -8.1690   -7.1026    0.0000 H   0  0  0  0  0  0  0  0  0  0  0  0
   -6.3713   -6.6521    0.0000 H   0  0  0  0  0  0  0  0  0  0  0  0
   -7.1401   -7.3963    0.0000 H   0  0  0  0  0  0  0  0  0  0  0  0
   -8.2009   -3.9008    0.0000 H   0  0  0  0  0  0  0  0  0  0  0  0
   -6.8665   -2.6092    0.0000 H   0  0  0  0  0  0  0  0  0  0  0  0
   -3.4895   -3.6776    0.0000 H   0  0  0  0  0  0  0  0  0  0  0  0
   -5.9638   -6.2120    0.0000 H   0  0  0  0  0  0  0  0  0  0  0  0
   -6.0511   -2.9950    0.0000 H   0  0  0  0  0  0  0  0  0  0  0  0
   -6.4569   -1.3754    0.0000 H   0  0  0  0  0  0  0  0  0  0  0  0
   -6.8984   -0.6204    0.0000 H   0  0  0  0  0  0  0  0  0  0  0  0
   -6.3971    0.3250    0.0000 H   0  0  0  0  0  0  0  0  0  0  0  0
   -4.4732    0.1819    0.0000 H   0  0  0  0  0  0  0  0  0  0  0  0
   -4.9873   -0.3531    0.0000 H   0  0  0  0  0  0  0  0  0  0  0  0
   -4.2792   -1.9926    0.0000 H   0  0  0  0  0  0  0  0  0  0  0  0
   -2.9376   -0.1723    0.0000 H   0  0  0  0  0  0  0  0  0  0  0  0
   -1.4799    1.2384    0.0000 H   0  0  0  0  0  0  0  0  0  0  0  0
   -3.2207    0.6024    0.0000 H   0  0  0  0  0  0  0  0  0  0  0  0
   -2.5339    1.4229    0.0000 H   0  0  0  0  0  0  0  0  0  0  0  0
   -0.7039   -1.5043    0.0000 H   0  0  0  0  0  0  0  0  0  0  0  0
   -0.0171   -0.6839    0.0000 H   0  0  0  0  0  0  0  0  0  0  0  0
   -0.8792    1.0580    0.0000 H   0  0  0  0  0  0  0  0  0  0  0  0
    0.4337    1.6287    0.0000 H   0  0  0  0  0  0  0  0  0  0  0  0
    1.4876    1.4440    0.0000 H   0  0  0  0  0  0  0  0  0  0  0  0
    1.9804   -0.5239    0.0000 H   0  0  0  0  0  0  0  0  0  0  0  0
    2.6672    0.2966    0.0000 H   0  0  0  0  0  0  0  0  0  0  0  0
    1.5319    2.6419    0.0000 H   0  0  0  0  0  0  0  0  0  0  0  0
    0.4972    1.1043    0.0000 H   0  0  0  0  0  0  0  0  0  0  0  0
    0.5707    2.1718    0.0000 H   0  0  0  0  0  0  0  0  0  0  0  0
    1.6937    0.2071    0.0000 H   0  0  0  0  0  0  0  0  0  0  0  0
    3.3947   -0.9784    0.0000 H   0  0  0  0  0  0  0  0  0  0  0  0
    2.3897   -1.3455    0.0000 H   0  0  0  0  0  0  0  0  0  0  0  0
    0.7324   -1.7250    0.0000 H   0  0  0  0  0  0  0  0  0  0  0  0
    2.4120   -2.0191    0.0000 H   0  0  0  0  0  0  0  0  0  0  0  0
    0.8513    3.7747    0.0000 H   0  0  0  0  0  0  0  0  0  0  0  0
    0.8677    1.9215    0.0000 H   0  0  0  0  0  0  0  0  0  0  0  0
    0.3245    2.8433    0.0000 H   0  0  0  0  0  0  0  0  0  0  0  0
    4.6400    5.7056    0.0000 H   0  0  0  0  0  0  0  0  0  0  0  0
    7.2546    1.0002    0.0000 H   0  0  0  0  0  0  0  0  0  0  0  0
    7.6239    2.8163    0.0000 H   0  0  0  0  0  0  0  0  0  0  0  0
    7.9635    1.8017    0.0000 H   0  0  0  0  0  0  0  0  0  0  0  0
    3.1290   -0.0139    0.0000 H   0  0  0  0  0  0  0  0  0  0  0  0
    4.8286   -0.7528    0.0000 H   0  0  0  0  0  0  0  0  0  0  0  0
    3.7655   -0.8740    0.0000 H   0  0  0  0  0  0  0  0  0  0  0  0
    3.4528    0.1622    0.0000 H   0  0  0  0  0  0  0  0  0  0  0  0
    4.5954   -1.2969    0.0000 H   0  0  0  0  0  0  0  0  0  0  0  0
    3.6029   -0.8972    0.0000 H   0  0  0  0  0  0  0  0  0  0  0  0
    6.6021   -0.3892    0.0000 H   0  0  0  0  0  0  0  0  0  0  0  0
    6.1009   -1.3346    0.0000 H   0  0  0  0  0  0  0  0  0  0  0  0
    5.1230   -2.7257    0.0000 H   0  0  0  0  0  0  0  0  0  0  0  0
    6.5682   -1.8205    0.0000 H   0  0  0  0  0  0  0  0  0  0  0  0
    5.8185   -0.4363    0.0000 H   0  0  0  0  0  0  0  0  0  0  0  0
    6.6034   -0.8221    0.0000 H   0  0  0  0  0  0  0  0  0  0  0  0
    7.5102   -0.2540    0.0000 H   0  0  0  0  0  0  0  0  0  0  0  0
    7.2253    1.7545    0.0000 H   0  0  0  0  0  0  0  0  0  0  0  0
    8.1707    1.2533    0.0000 H   0  0  0  0  0  0  0  0  0  0  0  0
    7.1883   -1.0484    0.0000 H   0  0  0  0  0  0  0  0  0  0  0  0
    8.8924   -0.9868    0.0000 H   0  0  0  0  0  0  0  0  0  0  0  0
    6.8247    2.2498    0.0000 H   0  0  0  0  0  0  0  0  0  0  0  0
    8.1563    3.5388    0.0000 H   0  0  0  0  0  0  0  0  0  0  0  0
    7.8626    2.5099    0.0000 H   0  0  0  0  0  0  0  0  0  0  0  0
    7.0440    5.4396    0.0000 H   0  0  0  0  0  0  0  0  0  0  0  0
    8.0365    5.0399    0.0000 H   0  0  0  0  0  0  0  0  0  0  0  0
    9.5222    4.2130    0.0000 H   0  0  0  0  0  0  0  0  0  0  0  0
    8.4707    5.5555    0.0000 H   0  0  0  0  0  0  0  0  0  0  0  0
    7.1724    4.6651    0.0000 H   0  0  0  0  0  0  0  0  0  0  0  0
    7.4742    5.4860    0.0000 H   0  0  0  0  0  0  0  0  0  0  0  0
    6.8145    6.3285    0.0000 H   0  0  0  0  0  0  0  0  0  0  0  0
    4.8467    5.8352    0.0000 H   0  0  0  0  0  0  0  0  0  0  0  0
    5.2463    6.8278    0.0000 H   0  0  0  0  0  0  0  0  0  0  0  0
    6.0734    8.3134    0.0000 H   0  0  0  0  0  0  0  0  0  0  0  0
    4.7308    7.2621    0.0000 H   0  0  0  0  0  0  0  0  0  0  0  0
    2.5323    6.5587    0.0000 H   0  0  0  0  0  0  0  0  0  0  0  0
    1.2007    5.2697    0.0000 H   0  0  0  0  0  0  0  0  0  0  0  0
    1.4944    6.2986    0.0000 H   0  0  0  0  0  0  0  0  0  0  0  0
    4.3960    5.3850    0.0000 H   0  0  0  0  0  0  0  0  0  0  0  0
    2.9749    6.5747    0.0000 H   0  0  0  0  0  0  0  0  0  0  0  0
    4.0289    6.3900    0.0000 H   0  0  0  0  0  0  0  0  0  0  0  0
    1.9575    5.4784    0.0000 H   0  0  0  0  0  0  0  0  0  0  0  0
    0.6008    3.9106    0.0000 H   0  0  0  0  0  0  0  0  0  0  0  0
    0.3407    4.9485    0.0000 H   0  0  0  0  0  0  0  0  0  0  0  0
    1.9379    6.1992    0.0000 H   0  0  0  0  0  0  0  0  0  0  0  0
    0.9090    6.4929    0.0000 H   0  0  0  0  0  0  0  0  0  0  0  0
   -1.1636    5.3778    0.0000 H   0  0  0  0  0  0  0  0  0  0  0  0
    0.0225    4.1528    0.0000 H   0  0  0  0  0  0  0  0  0  0  0  0
   -3.5608   -1.4349    0.0000 H   0  0  0  0  0  0  0  0  0  0  0  0
   -3.4660   -3.4063    0.0000 H   0  0  0  0  0  0  0  0  0  0  0  0
  1  2  1  0  0  0  0
  1 92  1  0  0  0  0
  1 93  1  0  0  0  0
  1 94  1  0  0  0  0
  2  3  1  0  0  0  0
  3  4  2  0  0  0  0
  3 11  1  0  0  0  0
  4  5  1  0  0  0  0
  4 95  1  0  0  0  0
  5  6  2  0  0  0  0
  5 96  1  0  0  0  0
  6  7  1  0  0  0  0
  6 10  1  0  0  0  0
  7  8  1  0  0  0  0
  8  9  2  0  0  0  0
  8 97  1  0  0  0  0
  9 10  1  0  0  0  0
 10 11  2  0  0  0  0
 11 98  1  0  0  0  0
 12  7  1  0  0  0  0
 12 13  1  0  0  0  0
 12 99  1  6  0  0  0
 14 13  1  0  0  0  0
 14 15  1  0  0  0  0
 14100  1  1  0  0  0
 15 16  1  0  0  0  0
 15101  1  0  0  0  0
 15102  1  0  0  0  0
 16103  1  0  0  0  0
 17 14  1  0  0  0  0
 17 18  1  0  0  0  0
 17 90  1  0  0  0  0
 17104  1  6  0  0  0
 19 18  1  0  0  0  0
 19 20  1  0  0  0  0
 19 21  2  1  0  0  0
 19 22  1  0  0  0  0
 20105  1  0  0  0  0
 23 22  1  0  0  0  0
 23 24  1  0  0  0  0
 23 25  1  0  0  0  0
 23106  1  1  0  0  0
 24107  1  0  0  0  0
 24108  1  0  0  0  0
 24109  1  0  0  0  0
 25 26  1  0  0  0  0
 25110  1  0  0  0  0
 25111  1  0  0  0  0
 26 27  1  0  0  0  0
 26112  1  0  0  0  0
 27 28  2  0  0  0  0
 27 29  1  0  0  0  0
 29 30  1  0  0  0  0
 29113  1  0  0  0  0
 29114  1  0  0  0  0
 30115  1  0  0  0  0
 30116  1  0  0  0  0
 31 30  1  1  0  0  0
 31 32  1  0  0  0  0
 31 33  1  0  0  0  0
 31 40  1  0  0  0  0
 32117  1  0  0  0  0
 32118  1  0  0  0  0
 32119  1  0  0  0  0
 33 34  1  0  0  0  0
 33 38  1  0  0  0  0
 33120  1  1  0  0  0
 34 35  1  0  0  0  0
 34121  1  0  0  0  0
 34122  1  0  0  0  0
 35 36  1  0  0  0  0
 35 37  2  0  0  0  0
 36123  1  0  0  0  0
 36124  1  0  0  0  0
 38 39  2  0  0  0  0
 39 40  1  0  0  0  0
 40 41  2  0  0  0  0
 41 42  1  0  0  0  0
 41 43  1  0  0  0  0
 42125  1  0  0  0  0
 42126  1  0  0  0  0
 42127  1  0  0  0  0
 43 44  2  0  0  0  0
 44 45  1  0  0  0  0
 45 46  2  0  0  0  0
 45 81  1  0  0  0  0
 46 47  1  0  0  0  0
 46128  1  0  0  0  0
 47 48  2  0  0  0  0
 48 49  1  0  0  0  0
 49 50  2  0  0  0  0
 50 51  1  0  0  0  0
 50 52  1  0  0  0  0
 51129  1  0  0  0  0
 51130  1  0  0  0  0
 51131  1  0  0  0  0
 52 53  2  0  0  0  0
 54 53  1  0  0  0  0
 54 38  1  0  0  0  0
 54 55  1  1  0  0  0
 55132  1  0  0  0  0
 55133  1  0  0  0  0
 55134  1  0  0  0  0
 56 54  1  0  0  0  0
 56 57  1  1  0  0  0
 56 58  1  0  0  0  0
 56 62  1  0  0  0  0
 57135  1  0  0  0  0
 57136  1  0  0  0  0
 57137  1  0  0  0  0
 58 59  1  0  0  0  0
 58138  1  0  0  0  0
 58139  1  0  0  0  0
 59 60  1  0  0  0  0
 59 61  2  0  0  0  0
 60140  1  0  0  0  0
 60141  1  0  0  0  0
 62 52  1  0  0  0  0
 62 63  1  0  0  0  0
 62142  1  6  0  0  0
 63 64  1  0  0  0  0
 63143  1  0  0  0  0
 63144  1  0  0  0  0
 64 65  1  0  0  0  0
 64145  1  0  0  0  0
 64146  1  0  0  0  0
 65 66  1  0  0  0  0
 65 67  2  0  0  0  0
 66147  1  0  0  0  0
 66148  1  0  0  0  0
 68 53  1  1  0  0  0
 68 39  1  0  0  0  0
 68 44  1  0  0  0  0
 68 48  1  0  0  0  0
 69 49  1  0  0  0  0
 69 70  1  1  0  0  0
 69 71  1  0  0  0  0
 69 75  1  0  0  0  0
 70149  1  0  0  0  0
 70150  1  0  0  0  0
 70151  1  0  0  0  0
 71 72  1  0  0  0  0
 71152  1  0  0  0  0
 71153  1  0  0  0  0
 72 73  1  0  0  0  0
 72 74  2  0  0  0  0
 73154  1  0  0  0  0
 73155  1  0  0  0  0
 75 47  1  0  0  0  0
 75 76  1  0  0  0  0
 75156  1  6  0  0  0
 76 77  1  0  0  0  0
 76157  1  0  0  0  0
 76158  1  0  0  0  0
 77 78  1  0  0  0  0
 77159  1  0  0  0  0
 77160  1  0  0  0  0
 78 79  1  0  0  0  0
 78 80  2  0  0  0  0
 79161  1  0  0  0  0
 79162  1  0  0  0  0
 81 82  1  0  0  0  0
 81 83  1  0  0  0  0
 82163  1  0  0  0  0
 82164  1  0  0  0  0
 82165  1  0  0  0  0
 83166  1  0  0  0  0
 83167  1  0  0  0  0
 83168  1  0  0  0  0
 84 81  1  0  0  0  0
 84 43  1  0  0  0  0
 84 85  1  0  0  0  0
 84169  1  6  0  0  0
 85 86  1  0  0  0  0
 85170  1  0  0  0  0
 85171  1  0  0  0  0
 86 87  1  0  0  0  0
 86172  1  0  0  0  0
 86173  1  0  0  0  0
 87 88  1  0  0  0  0
 87 89  2  0  0  0  0
 88174  1  0  0  0  0
 88175  1  0  0  0  0
 90 12  1  0  0  0  0
 90 91  1  0  0  0  0
 90176  1  6  0  0  0
 91177  1  0  0  0  0
M  CHG  5  20  -1  39   1  44   1  48   1  53   1
M  END
>  <DRUGBANK_ID>
DB02667

>  <SECONDARY_ACCESSION_NUMBERS>
EXPT00608

>  <COMMON_NAME>
Vitamin B 12 factor IIIm

>  <CAS_NUMBER>
15713-12-9

>  <SYNONYMS>
5-Methoxybenzimidazole vitamin B12; 5-Methoxybenzimidazolylcobalamin; Cyano-5-methoxybenzimidazolylcobamide; Vitamin B 12 factor IIIm

$$$$
