IDN
 OpenBabel10282417072D

 50 53  0  0  0  0  0  0  0  0999 V2000
   -2.8961    2.3128    0.0000 C   0  0  0  0  0  0  0  0  0  0  0  0
   -2.6411    1.5282    0.0000 C   0  0  0  0  0  0  0  0  0  0  0  0
   -1.8342    1.3566    0.0000 C   0  0  0  0  0  0  0  0  0  0  0  0
   -1.2821    1.9697    0.0000 C   0  0  0  0  0  0  0  0  0  0  0  0
   -1.5371    2.7543    0.0000 C   0  0  0  0  0  0  0  0  0  0  0  0
   -2.3440    2.9259    0.0000 N   0  0  0  0  0  0  0  0  0  0  0  0
   -0.4752    1.7982    0.0000 C   0  0  0  0  0  0  0  0  0  0  0  0
   -0.2202    1.0136    0.0000 C   0  0  0  0  0  0  0  0  0  0  0  0
    0.5867    0.8420    0.0000 C   0  0  0  0  0  0  0  0  0  0  0  0
    1.1388    1.4551    0.0000 O   0  0  0  0  0  0  0  0  0  0  0  0
    0.8417    0.0574    0.0000 N   0  0  0  0  0  0  0  0  0  0  0  0
    0.2897   -0.5557    0.0000 C   0  0  0  0  0  0  0  0  0  0  0  0
    1.6487   -0.1141    0.0000 C   0  0  0  0  0  0  0  0  0  0  0  0
    1.9036   -0.8987    0.0000 C   0  0  0  0  0  0  0  0  0  0  0  0
    1.4187   -1.5662    0.0000 C   0  0  0  0  0  0  0  0  0  0  0  0
    1.9036   -2.2336    0.0000 N   0  0  0  0  0  0  0  0  0  0  0  0
    2.6882   -1.9787    0.0000 C   0  0  0  0  0  0  0  0  0  0  0  0
    2.6882   -1.1537    0.0000 C   0  0  0  0  0  0  0  0  0  0  0  0
   -3.7031    2.4843    0.0000 N   0  0  0  0  0  0  0  0  0  0  0  0
    1.6487   -3.0182    0.0000 C   0  0  0  0  0  0  0  0  0  0  0  0
    4.1172   -1.1537    0.0000 C   0  0  0  0  0  0  0  0  0  0  0  0
    4.1172   -1.9787    0.0000 C   0  0  0  0  0  0  0  0  0  0  0  0
    3.4027   -2.3912    0.0000 C   0  0  0  0  0  0  0  0  0  0  0  0
    3.4027   -0.7412    0.0000 C   0  0  0  0  0  0  0  0  0  0  0  0
   -3.1932    0.9151    0.0000 C   0  0  0  0  0  0  0  0  0  0  0  0
   -4.0001    1.0866    0.0000 C   0  0  0  0  0  0  0  0  0  0  0  0
   -4.2551    1.8712    0.0000 C   0  0  0  0  0  0  0  0  0  0  0  0
   -5.0621    2.0427    0.0000 O   0  0  0  0  0  0  0  0  0  0  0  0
   -1.5154    0.3751    0.0000 H   0  0  0  0  0  0  0  0  0  0  0  0
   -0.8465    3.5212    0.0000 H   0  0  0  0  0  0  0  0  0  0  0  0
    0.2153    2.5652    0.0000 H   0  0  0  0  0  0  0  0  0  0  0  0
   -0.9108    0.2467    0.0000 H   0  0  0  0  0  0  0  0  0  0  0  0
   -0.7569   -0.3333    0.0000 H   0  0  0  0  0  0  0  0  0  0  0  0
    0.6204   -1.5733    0.0000 H   0  0  0  0  0  0  0  0  0  0  0  0
   -0.4262   -1.3509    0.0000 H   0  0  0  0  0  0  0  0  0  0  0  0
    2.3647    0.6811    0.0000 H   0  0  0  0  0  0  0  0  0  0  0  0
    2.6953   -0.3366    0.0000 H   0  0  0  0  0  0  0  0  0  0  0  0
    0.3867   -1.5662    0.0000 H   0  0  0  0  0  0  0  0  0  0  0  0
   -4.0074    3.4206    0.0000 H   0  0  0  0  0  0  0  0  0  0  0  0
    0.6021   -3.2407    0.0000 H   0  0  0  0  0  0  0  0  0  0  0  0
    2.3647   -3.8133    0.0000 H   0  0  0  0  0  0  0  0  0  0  0  0
    1.3181   -4.0358    0.0000 H   0  0  0  0  0  0  0  0  0  0  0  0
    5.0109   -0.6377    0.0000 H   0  0  0  0  0  0  0  0  0  0  0  0
    5.0109   -2.4947    0.0000 H   0  0  0  0  0  0  0  0  0  0  0  0
    3.4027   -3.4232    0.0000 H   0  0  0  0  0  0  0  0  0  0  0  0
    3.4027    0.2908    0.0000 H   0  0  0  0  0  0  0  0  0  0  0  0
   -2.8626   -0.1025    0.0000 H   0  0  0  0  0  0  0  0  0  0  0  0
   -3.9092    0.1199    0.0000 H   0  0  0  0  0  0  0  0  0  0  0  0
   -4.7160    0.2914    0.0000 H   0  0  0  0  0  0  0  0  0  0  0  0
   -5.0467    1.3090    0.0000 H   0  0  0  0  0  0  0  0  0  0  0  0
  1  2  1  0  0  0  0
  1  6  2  0  0  0  0
  1 19  1  0  0  0  0
  2  3  2  0  0  0  0
  2 25  1  0  0  0  0
  3  4  1  0  0  0  0
  3 29  1  0  0  0  0
  4  5  2  0  0  0  0
  4  7  1  0  0  0  0
  5  6  1  0  0  0  0
  5 30  1  0  0  0  0
  7  8  2  0  0  0  0
  7 31  1  0  0  0  0
  8  9  1  0  0  0  0
  8 32  1  0  0  0  0
  9 10  2  0  0  0  0
  9 11  1  0  0  0  0
 11 12  1  0  0  0  0
 11 13  1  0  0  0  0
 12 33  1  0  0  0  0
 12 34  1  0  0  0  0
 12 35  1  0  0  0  0
 13 14  1  0  0  0  0
 13 36  1  0  0  0  0
 13 37  1  0  0  0  0
 14 15  2  0  0  0  0
 14 18  1  0  0  0  0
 15 16  1  0  0  0  0
 15 38  1  0  0  0  0
 16 17  1  0  0  0  0
 16 20  1  0  0  0  0
 17 18  1  0  0  0  0
 17 23  2  0  0  0  0
 18 24  2  0  0  0  0
 19 27  1  0  0  0  0
 19 39  1  0  0  0  0
 20 40  1  0  0  0  0
 20 41  1  0  0  0  0
 20 42  1  0  0  0  0
 21 22  2  0  0  0  0
 21 24  1  0  0  0  0
 21 43  1  0  0  0  0
 22 23  1  0  0  0  0
 22 44  1  0  0  0  0
 23 45  1  0  0  0  0
 24 46  1  0  0  0  0
 25 26  1  0  0  0  0
 25 47  1  0  0  0  0
 25 48  1  0  0  0  0
 26 27  1  0  0  0  0
 26 49  1  0  0  0  0
 26 50  1  0  0  0  0
 27 28  2  0  0  0  0
M  END
>  <DRUGBANK_ID>
DB01691

>  <SECONDARY_ACCESSION_NUMBERS>
EXPT01841

>  <COMMON_NAME>
Indole Naphthyridinone

$$$$
