
 OpenBabel10282417072D

 55 57  0  0  1  0  0  0  0  0999 V2000
    1.7530   -5.1133    0.0000 C   0  0  0  0  0  0  0  0  0  0  0  0
    2.4674   -4.7008    0.0000 C   0  0  0  0  0  0  0  0  0  0  0  0
    2.4674   -3.8758    0.0000 C   0  0  0  0  0  0  0  0  0  0  0  0
    3.1819   -3.4633    0.0000 C   0  0  2  0  0  0  0  0  0  0  0  0
    3.1819   -2.6383    0.0000 C   0  0  0  0  0  0  0  0  0  0  0  0
    3.8494   -2.1534    0.0000 C   0  0  0  0  0  0  0  0  0  0  0  0
    3.5944   -1.3688    0.0000 C   0  0  0  0  0  0  0  0  0  0  0  0
    2.7694   -1.3688    0.0000 C   0  0  0  0  0  0  0  0  0  0  0  0
    2.5145   -2.1534    0.0000 O   0  0  0  0  0  0  0  0  0  0  0  0
    2.2845   -0.7013    0.0000 C   0  0  0  0  0  0  0  0  0  0  0  0
    3.8964   -3.8758    0.0000 N   0  0  0  0  0  0  0  0  0  0  0  0
    3.8964   -4.7008    0.0000 C   0  0  0  0  0  0  0  0  0  0  0  0
    4.4798   -5.2842    0.0000 C   0  0  0  0  0  0  0  0  0  0  0  0
    3.8964   -5.8676    0.0000 C   0  0  0  0  0  0  0  0  0  0  0  0
    3.8964   -6.6926    0.0000 O   0  0  0  0  0  0  0  0  0  0  0  0
    3.3130   -5.2842    0.0000 C   0  0  0  0  0  0  0  0  0  0  0  0
    2.4880   -5.2842    0.0000 O   0  0  0  0  0  0  0  0  0  0  0  0
    5.3048   -5.2842    0.0000 N   0  0  0  0  0  0  0  0  0  0  0  0
    5.7173   -5.9987    0.0000 C   0  0  0  0  0  0  0  0  0  0  0  0
    6.5423   -5.9987    0.0000 C   0  0  0  0  0  0  0  0  0  0  0  0
    6.9547   -6.7131    0.0000 C   0  0  0  0  0  0  0  0  0  0  0  0
    6.5423   -7.4276    0.0000 C   0  0  0  0  0  0  0  0  0  0  0  0
    5.7173   -7.4276    0.0000 C   0  0  0  0  0  0  0  0  0  0  0  0
    5.3048   -6.7131    0.0000 C   0  0  0  0  0  0  0  0  0  0  0  0
    4.4798   -6.7131    0.0000 O   0  0  0  0  0  0  0  0  0  0  0  0
    5.3048   -8.1420    0.0000 C   0  0  0  0  0  0  0  0  0  0  0  0
    5.7173   -8.8565    0.0000 O   0  0  0  0  0  0  0  0  0  0  0  0
    4.4798   -8.1420    0.0000 N   0  0  0  0  0  0  0  0  0  0  0  0
    4.0673   -8.8565    0.0000 C   0  0  0  0  0  0  0  0  0  0  0  0
    4.0673   -7.4276    0.0000 C   0  0  0  0  0  0  0  0  0  0  0  0
    0.8263   -4.5783    0.0000 H   0  0  0  0  0  0  0  0  0  0  0  0
    1.7530   -6.1833    0.0000 H   0  0  0  0  0  0  0  0  0  0  0  0
    0.8264   -5.6483    0.0000 H   0  0  0  0  0  0  0  0  0  0  0  0
    3.3941   -5.2358    0.0000 H   0  0  0  0  0  0  0  0  0  0  0  0
    3.3940   -4.1658    0.0000 H   0  0  0  0  0  0  0  0  0  0  0  0
    1.5408   -3.3408    0.0000 H   0  0  0  0  0  0  0  0  0  0  0  0
    2.4674   -2.8058    0.0000 H   0  0  0  0  0  0  0  0  0  0  0  0
    3.1819   -4.5333    0.0000 H   0  0  0  0  0  0  0  0  0  0  0  0
    4.8309   -2.4723    0.0000 H   0  0  0  0  0  0  0  0  0  0  0  0
    4.2010   -0.5339    0.0000 H   0  0  0  0  0  0  0  0  0  0  0  0
    2.7198    0.2762    0.0000 H   0  0  0  0  0  0  0  0  0  0  0  0
    1.2204   -0.8131    0.0000 H   0  0  0  0  0  0  0  0  0  0  0  0
    1.6556    0.1644    0.0000 H   0  0  0  0  0  0  0  0  0  0  0  0
    4.7490   -3.3835    0.0000 H   0  0  0  0  0  0  0  0  0  0  0  0
    5.7971   -4.4316    0.0000 H   0  0  0  0  0  0  0  0  0  0  0  0
    7.0583   -5.1050    0.0000 H   0  0  0  0  0  0  0  0  0  0  0  0
    7.9867   -6.7131    0.0000 H   0  0  0  0  0  0  0  0  0  0  0  0
    7.0584   -8.3213    0.0000 H   0  0  0  0  0  0  0  0  0  0  0  0
    4.0113   -5.9016    0.0000 H   0  0  0  0  0  0  0  0  0  0  0  0
    2.9973   -8.8565    0.0000 H   0  0  0  0  0  0  0  0  0  0  0  0
    4.6023   -9.7831    0.0000 H   0  0  0  0  0  0  0  0  0  0  0  0
    3.5323   -9.7832    0.0000 H   0  0  0  0  0  0  0  0  0  0  0  0
    4.6023   -6.5009    0.0000 H   0  0  0  0  0  0  0  0  0  0  0  0
    2.9973   -7.4276    0.0000 H   0  0  0  0  0  0  0  0  0  0  0  0
    3.5323   -6.5010    0.0000 H   0  0  0  0  0  0  0  0  0  0  0  0
  1  2  1  0  0  0  0
  1 31  1  0  0  0  0
  1 32  1  0  0  0  0
  1 33  1  0  0  0  0
  2  3  1  0  0  0  0
  2 34  1  0  0  0  0
  2 35  1  0  0  0  0
  3  4  1  0  0  0  0
  3 36  1  0  0  0  0
  3 37  1  0  0  0  0
  4  5  1  0  0  0  0
  4 11  1  0  0  0  0
  4 38  1  1  0  0  0
  5  6  2  0  0  0  0
  5  9  1  0  0  0  0
  6  7  1  0  0  0  0
  6 39  1  0  0  0  0
  7  8  2  0  0  0  0
  7 40  1  0  0  0  0
  8  9  1  0  0  0  0
  8 10  1  0  0  0  0
 10 41  1  0  0  0  0
 10 42  1  0  0  0  0
 10 43  1  0  0  0  0
 11 12  1  0  0  0  0
 11 44  1  0  0  0  0
 12 13  2  0  0  0  0
 12 16  1  0  0  0  0
 13 14  1  0  0  0  0
 13 18  1  0  0  0  0
 14 15  2  0  0  0  0
 14 16  1  0  0  0  0
 16 17  2  0  0  0  0
 18 19  1  0  0  0  0
 18 45  1  0  0  0  0
 19 20  2  0  0  0  0
 19 24  1  0  0  0  0
 20 21  1  0  0  0  0
 20 46  1  0  0  0  0
 21 22  2  0  0  0  0
 21 47  1  0  0  0  0
 22 23  1  0  0  0  0
 22 48  1  0  0  0  0
 23 24  2  0  0  0  0
 23 26  1  0  0  0  0
 24 25  1  0  0  0  0
 25 49  1  0  0  0  0
 26 27  2  0  0  0  0
 26 28  1  0  0  0  0
 28 29  1  0  0  0  0
 28 30  1  0  0  0  0
 29 50  1  0  0  0  0
 29 51  1  0  0  0  0
 29 52  1  0  0  0  0
 30 53  1  0  0  0  0
 30 54  1  0  0  0  0
 30 55  1  0  0  0  0
M  END
>  <DRUGBANK_ID>
DB11711

>  <COMMON_NAME>
Navarixin

>  <CAS_NUMBER>
473727-83-2

>  <UNII>
4GMU5HUX5I

>  <SYNONYMS>
Navarixin; Navarixin anhydrous

$$$$
