
 OpenBabel10282417072D

 30 30  0  0  1  0  0  0  0  0999 V2000
   -2.0366    0.3892    0.0000 P   0  0  0  0  0  0  0  0  0  0  0  0
   -1.2129    0.3892    0.0000 O   0  0  0  0  0  0  0  0  0  0  0  0
   -2.8566    0.3892    0.0000 O   0  0  0  0  0  0  0  0  0  0  0  0
   -2.0366    1.2129    0.0000 O   0  0  0  0  0  0  0  0  0  0  0  0
   -2.0366   -0.4308    0.0000 O   0  0  0  0  0  0  0  0  0  0  0  0
   -0.5025    0.8010    0.0000 C   0  0  0  0  0  0  0  0  0  0  0  0
    0.2116    0.3892    0.0000 C   0  0  2  0  0  0  0  0  0  0  0  0
    0.2116   -0.4420    0.0000 C   0  0  2  0  0  0  0  0  0  0  0  0
    0.9220    0.8010    0.0000 O   0  0  0  0  0  0  0  0  0  0  0  0
    0.9220   -0.8615    0.0000 C   0  0  1  0  0  0  0  0  0  0  0  0
   -0.5025   -0.8502    0.0000 O   0  0  0  0  0  0  0  0  0  0  0  0
    1.6437    0.3892    0.0000 C   0  0  1  0  0  0  0  0  0  0  0  0
    1.6437   -0.4420    0.0000 C   0  0  2  0  0  0  0  0  0  0  0  0
    0.9220   -1.6852    0.0000 O   0  0  0  0  0  0  0  0  0  0  0  0
    2.3541    0.8010    0.0000 O   0  0  0  0  0  0  0  0  0  0  0  0
    2.3541   -0.8502    0.0000 N   0  0  0  0  0  0  0  0  0  0  0  0
   -3.3416    1.2292    0.0000 H   0  0  0  0  0  0  0  0  0  0  0  0
   -1.1966    1.6979    0.0000 H   0  0  0  0  0  0  0  0  0  0  0  0
   -0.5037    1.8710    0.0000 H   0  0  0  0  0  0  0  0  0  0  0  0
    0.4237    1.3368    0.0000 H   0  0  0  0  0  0  0  0  0  0  0  0
   -0.7149   -0.1460    0.0000 H   0  0  0  0  0  0  0  0  0  0  0  0
   -0.7139    0.0950    0.0000 H   0  0  0  0  0  0  0  0  0  0  0  0
   -0.0073   -1.3919    0.0000 H   0  0  0  0  0  0  0  0  0  0  0  0
   -1.3405   -0.3616    0.0000 H   0  0  0  0  0  0  0  0  0  0  0  0
    1.6401    1.4592    0.0000 H   0  0  0  0  0  0  0  0  0  0  0  0
    1.6464   -1.5120    0.0000 H   0  0  0  0  0  0  0  0  0  0  0  0
    0.0820   -2.1702    0.0000 H   0  0  0  0  0  0  0  0  0  0  0  0
    3.1950    0.3175    0.0000 H   0  0  0  0  0  0  0  0  0  0  0  0
    2.3562   -1.8702    0.0000 H   0  0  0  0  0  0  0  0  0  0  0  0
    3.2364   -0.3384    0.0000 H   0  0  0  0  0  0  0  0  0  0  0  0
  1  2  1  0  0  0  0
  1  3  1  0  0  0  0
  1  4  1  0  0  0  0
  1  5  2  0  0  0  0
  2  6  1  0  0  0  0
  3 17  1  0  0  0  0
  4 18  1  0  0  0  0
  6 19  1  0  0  0  0
  6 20  1  0  0  0  0
  7  6  1  0  0  0  0
  7  8  1  0  0  0  0
  7  9  1  0  0  0  0
  7 21  1  6  0  0  0
  8 10  1  0  0  0  0
  8 11  1  0  0  0  0
  8 22  1  1  0  0  0
  9 12  1  0  0  0  0
 10 13  1  0  0  0  0
 10 14  1  0  0  0  0
 10 23  1  6  0  0  0
 11 24  1  0  0  0  0
 12 15  1  0  0  0  0
 12 13  1  0  0  0  0
 12 25  1  1  0  0  0
 13 16  1  0  0  0  0
 13 26  1  1  0  0  0
 14 27  1  0  0  0  0
 15 28  1  0  0  0  0
 16 29  1  0  0  0  0
 16 30  1  0  0  0  0
M  END
>  <DRUGBANK_ID>
DB02657

>  <SECONDARY_ACCESSION_NUMBERS>
EXPT01610

>  <COMMON_NAME>
Glucosamine 6-Phosphate

>  <CAS_NUMBER>
3616-42-0

>  <UNII>
Y5ANY8MJ8J

$$$$
