
 OpenBabel10282417072D

 61 66  0  0  1  0  0  0  0  0999 V2000
    0.0853    0.0135    0.0000 C   0  0  0  0  0  0  0  0  0  0  0  0
   -0.5821   -0.4714    0.0000 C   0  0  0  0  0  0  0  0  0  0  0  0
   -0.4959   -1.2919    0.0000 C   0  0  0  0  0  0  0  0  0  0  0  0
   -1.1634   -1.7768    0.0000 O   0  0  0  0  0  0  0  0  0  0  0  0
    0.2578   -1.6275    0.0000 N   0  0  0  0  0  0  0  0  0  0  0  0
    0.9252   -1.1425    0.0000 C   0  0  0  0  0  0  0  0  0  0  0  0
    0.8390   -0.3220    0.0000 C   0  0  0  0  0  0  0  0  0  0  0  0
    1.7651    0.0135    0.0000 N   0  0  0  0  0  0  0  0  0  0  0  0
    2.4326   -0.4714    0.0000 C   0  0  0  0  0  0  0  0  0  0  0  0
    2.3463   -1.2919    0.0000 C   0  0  0  0  0  0  0  0  0  0  0  0
    3.0138   -1.7768    0.0000 O   0  0  0  0  0  0  0  0  0  0  0  0
    1.5926   -1.6275    0.0000 N   0  0  0  0  0  0  0  0  0  0  0  0
    1.3377   -2.4121    0.0000 C   0  0  1  0  0  0  0  0  0  0  0  0
    0.5127   -2.4121    0.0000 C   0  0  0  0  0  0  0  0  0  0  0  0
    1.8226   -3.0795    0.0000 C   0  0  0  0  0  0  0  0  0  0  0  0
    1.4871   -3.8332    0.0000 N   0  0  0  0  0  0  0  0  0  0  0  0
    1.9720   -4.5006    0.0000 C   0  0  0  0  0  0  0  0  0  0  0  0
    1.6364   -5.2543    0.0000 C   0  0  0  0  0  0  0  0  0  0  0  0
    0.8160   -5.3405    0.0000 C   0  0  3  0  0  0  0  0  0  0  0  0
    0.3310   -4.6731    0.0000 C   0  0  0  0  0  0  0  0  0  0  0  0
    0.6666   -3.9194    0.0000 C   0  0  0  0  0  0  0  0  0  0  0  0
    0.4804   -6.0942    0.0000 N   0  0  0  0  0  0  0  0  0  0  0  0
   -0.3401   -6.1804    0.0000 C   0  0  0  0  0  0  0  0  0  0  0  0
   -0.6756   -6.9341    0.0000 C   0  0  0  0  0  0  0  0  0  0  0  0
   -1.4961   -7.0204    0.0000 C   0  0  0  0  0  0  0  0  0  0  0  0
   -1.8317   -7.7740    0.0000 C   0  0  0  0  0  0  0  0  0  0  0  0
   -1.3468   -8.4415    0.0000 C   0  0  0  0  0  0  0  0  0  0  0  0
   -0.5263   -8.3552    0.0000 C   0  0  0  0  0  0  0  0  0  0  0  0
   -0.1907   -7.6016    0.0000 N   0  0  0  0  0  0  0  0  0  0  0  0
   -1.6823   -9.1951    0.0000 O   0  0  0  0  0  0  0  0  0  0  0  0
   -2.5028   -9.2814    0.0000 C   0  0  0  0  0  0  0  0  0  0  0  0
   -2.9877   -8.6139    0.0000 C   0  0  0  0  0  0  0  0  0  0  0  0
   -2.6522   -7.8603    0.0000 C   0  0  0  0  0  0  0  0  0  0  0  0
   -0.0226    1.0398    0.0000 H   0  0  0  0  0  0  0  0  0  0  0  0
   -1.5249   -0.0516    0.0000 H   0  0  0  0  0  0  0  0  0  0  0  0
    3.3754   -0.0517    0.0000 H   0  0  0  0  0  0  0  0  0  0  0  0
    2.3945   -2.2447    0.0000 H   0  0  0  0  0  0  0  0  0  0  0  0
   -0.1162   -3.2777    0.0000 H   0  0  0  0  0  0  0  0  0  0  0  0
   -0.5441   -2.2447    0.0000 H   0  0  0  0  0  0  0  0  0  0  0  0
    2.8867   -2.9676    0.0000 H   0  0  0  0  0  0  0  0  0  0  0  0
    2.4516   -3.9451    0.0000 H   0  0  0  0  0  0  0  0  0  0  0  0
    3.0361   -4.3888    0.0000 H   0  0  0  0  0  0  0  0  0  0  0  0
    2.6009   -5.3663    0.0000 H   0  0  0  0  0  0  0  0  0  0  0  0
    2.2653   -6.1200    0.0000 H   0  0  0  0  0  0  0  0  0  0  0  0
    1.2012   -6.2318    0.0000 H   0  0  0  0  0  0  0  0  0  0  0  0
    1.2512   -4.3630    0.0000 H   0  0  0  0  0  0  0  0  0  0  0  0
   -0.7331   -4.7850    0.0000 H   0  0  0  0  0  0  0  0  0  0  0  0
   -0.2979   -3.8075    0.0000 H   0  0  0  0  0  0  0  0  0  0  0  0
    0.0377   -3.0537    0.0000 H   0  0  0  0  0  0  0  0  0  0  0  0
    1.1019   -2.9419    0.0000 H   0  0  0  0  0  0  0  0  0  0  0  0
    1.0799   -6.9194    0.0000 H   0  0  0  0  0  0  0  0  0  0  0  0
   -0.9690   -5.3148    0.0000 H   0  0  0  0  0  0  0  0  0  0  0  0
   -1.4042   -6.2923    0.0000 H   0  0  0  0  0  0  0  0  0  0  0  0
   -2.1027   -6.1855    0.0000 H   0  0  0  0  0  0  0  0  0  0  0  0
    0.0803   -9.1901    0.0000 H   0  0  0  0  0  0  0  0  0  0  0  0
   -2.9380  -10.2589    0.0000 H   0  0  0  0  0  0  0  0  0  0  0  0
   -3.5669   -9.3932    0.0000 H   0  0  0  0  0  0  0  0  0  0  0  0
   -4.0518   -8.7257    0.0000 H   0  0  0  0  0  0  0  0  0  0  0  0
   -3.6166   -7.7483    0.0000 H   0  0  0  0  0  0  0  0  0  0  0  0
   -3.2812   -6.9947    0.0000 H   0  0  0  0  0  0  0  0  0  0  0  0
   -2.2171   -6.8828    0.0000 H   0  0  0  0  0  0  0  0  0  0  0  0
  1  2  2  0  0  0  0
  1  7  1  0  0  0  0
  1 34  1  0  0  0  0
  2  3  1  0  0  0  0
  2 35  1  0  0  0  0
  3  4  2  0  0  0  0
  3  5  1  0  0  0  0
  5  6  1  0  0  0  0
  5 14  1  0  0  0  0
  6  7  2  0  0  0  0
  6 12  1  0  0  0  0
  7  8  1  0  0  0  0
  8  9  2  0  0  0  0
  9 10  1  0  0  0  0
  9 36  1  0  0  0  0
 10 11  2  0  0  0  0
 10 12  1  0  0  0  0
 12 13  1  0  0  0  0
 13 14  1  0  0  0  0
 13 15  1  0  0  0  0
 13 37  1  1  0  0  0
 14 38  1  0  0  0  0
 14 39  1  0  0  0  0
 15 16  1  0  0  0  0
 15 40  1  0  0  0  0
 15 41  1  0  0  0  0
 16 17  1  0  0  0  0
 16 21  1  0  0  0  0
 17 18  1  0  0  0  0
 17 42  1  0  0  0  0
 17 43  1  0  0  0  0
 18 19  1  0  0  0  0
 18 44  1  0  0  0  0
 18 45  1  0  0  0  0
 19 20  1  0  0  0  0
 19 22  1  0  0  0  0
 19 46  1  0  0  0  0
 20 21  1  0  0  0  0
 20 47  1  0  0  0  0
 20 48  1  0  0  0  0
 21 49  1  0  0  0  0
 21 50  1  0  0  0  0
 22 23  1  0  0  0  0
 22 51  1  0  0  0  0
 23 24  1  0  0  0  0
 23 52  1  0  0  0  0
 23 53  1  0  0  0  0
 24 25  2  0  0  0  0
 24 29  1  0  0  0  0
 25 26  1  0  0  0  0
 25 54  1  0  0  0  0
 26 27  2  0  0  0  0
 26 33  1  0  0  0  0
 27 28  1  0  0  0  0
 27 30  1  0  0  0  0
 28 29  2  0  0  0  0
 28 55  1  0  0  0  0
 30 31  1  0  0  0  0
 31 32  1  0  0  0  0
 31 56  1  0  0  0  0
 31 57  1  0  0  0  0
 32 33  1  0  0  0  0
 32 58  1  0  0  0  0
 32 59  1  0  0  0  0
 33 60  1  0  0  0  0
 33 61  1  0  0  0  0
M  END
>  <DRUGBANK_ID>
DB12134

>  <COMMON_NAME>
Gepotidacin

>  <CAS_NUMBER>
1075236-89-3

>  <UNII>
DVF0PR037D

>  <SYNONYMS>
Gepotidacin

$$$$
