
 OpenBabel10282417072D

 77 80  0  0  1  0  0  0  0  0999 V2000
    3.8606   -0.3239    0.0000 O   0  0  0  0  0  0  0  0  0  0  0  0
    2.7805    2.2293    0.0000 O   0  0  0  0  0  0  0  0  0  0  0  0
    2.5886    0.8133    0.0000 O   0  0  0  0  0  0  0  0  0  0  0  0
    6.1088   -2.1487    0.0000 O   0  0  0  0  0  0  0  0  0  0  0  0
    7.1789   -3.8639    0.0000 O   0  0  0  0  0  0  0  0  0  0  0  0
    6.6569   -2.5337    0.0000 O   0  0  0  0  0  0  0  0  0  0  0  0
    5.1481   -0.9439    0.0000 N   0  0  0  0  0  0  0  0  0  0  0  0
    5.1208   -3.1365    0.0000 N   0  0  0  0  0  0  0  0  0  0  0  0
    5.0412    0.4811    0.0000 C   0  0  0  0  0  0  0  0  0  0  0  0
    5.7846    0.1231    0.0000 C   0  0  0  0  0  0  0  0  0  0  0  0
    5.1520    1.2987    0.0000 C   0  0  0  0  0  0  0  0  0  0  0  0
    4.2237    0.5919    0.0000 C   0  0  0  0  0  0  0  0  0  0  0  0
    6.3547    0.7194    0.0000 C   0  0  0  0  0  0  0  0  0  0  0  0
    5.9638    1.4459    0.0000 C   0  0  0  0  0  0  0  0  0  0  0  0
    3.9109    1.3552    0.0000 C   0  0  1  0  0  0  0  0  0  0  0  0
    4.6833   -0.2622    0.0000 C   0  0  0  0  0  0  0  0  0  0  0  0
    4.4155    2.0078    0.0000 C   0  0  0  0  0  0  0  0  0  0  0  0
    4.7901   -1.6872    0.0000 C   0  0  1  0  0  0  0  0  0  0  0  0
    3.0933    1.4660    0.0000 C   0  0  0  0  0  0  0  0  0  0  0  0
    4.1026    2.7712    0.0000 C   0  0  0  0  0  0  0  0  0  0  0  0
    3.9651   -1.6872    0.0000 C   0  0  0  0  0  0  0  0  0  0  0  0
    5.3045   -2.3322    0.0000 C   0  0  0  0  0  0  0  0  0  0  0  0
    3.4507   -2.3322    0.0000 C   0  0  0  0  0  0  0  0  0  0  0  0
    4.6074    3.4239    0.0000 C   0  0  0  0  0  0  0  0  0  0  0  0
    3.6343   -3.1365    0.0000 C   0  0  0  0  0  0  0  0  0  0  0  0
    4.3776   -3.4945    0.0000 C   0  0  0  0  0  0  0  0  0  0  0  0
    1.9629    2.3401    0.0000 C   0  0  0  0  0  0  0  0  0  0  0  0
    5.7659   -3.6509    0.0000 C   0  0  0  0  0  0  0  0  0  0  0  0
    4.2944    4.1873    0.0000 C   0  0  0  0  0  0  0  0  0  0  0  0
    5.4249    3.3132    0.0000 C   0  0  0  0  0  0  0  0  0  0  0  0
    2.9168   -3.6096    0.0000 C   0  0  0  0  0  0  0  0  0  0  0  0
    4.4550   -4.3504    0.0000 C   0  0  0  0  0  0  0  0  0  0  0  0
    1.6500    3.1034    0.0000 C   0  0  0  0  0  0  0  0  0  0  0  0
    2.9745   -4.4670    0.0000 C   0  0  0  0  0  0  0  0  0  0  0  0
    3.7487   -4.8399    0.0000 C   0  0  0  0  0  0  0  0  0  0  0  0
    4.7992    4.8399    0.0000 C   0  0  0  0  0  0  0  0  0  0  0  0
    5.9295    3.9657    0.0000 C   0  0  0  0  0  0  0  0  0  0  0  0
    6.5339   -3.3495    0.0000 C   0  0  0  0  0  0  0  0  0  0  0  0
    5.6167    4.7291    0.0000 C   0  0  0  0  0  0  0  0  0  0  0  0
    7.0392   -4.7904    0.0000 H   0  0  0  0  0  0  0  0  0  0  0  0
    6.1298   -0.8703    0.0000 H   0  0  0  0  0  0  0  0  0  0  0  0
    5.9757   -0.9297    0.0000 H   0  0  0  0  0  0  0  0  0  0  0  0
    6.8094   -0.1846    0.0000 H   0  0  0  0  0  0  0  0  0  0  0  0
    4.3787    2.0382    0.0000 H   0  0  0  0  0  0  0  0  0  0  0  0
    5.4599    2.3235    0.0000 H   0  0  0  0  0  0  0  0  0  0  0  0
    3.5691   -0.2545    0.0000 H   0  0  0  0  0  0  0  0  0  0  0  0
    3.1634    0.7356    0.0000 H   0  0  0  0  0  0  0  0  0  0  0  0
    7.4150    0.5758    0.0000 H   0  0  0  0  0  0  0  0  0  0  0  0
    6.9641    1.5989    0.0000 H   0  0  0  0  0  0  0  0  0  0  0  0
    6.4281    2.4099    0.0000 H   0  0  0  0  0  0  0  0  0  0  0  0
    7.0335    1.4698    0.0000 H   0  0  0  0  0  0  0  0  0  0  0  0
    4.9712    1.2116    0.0000 H   0  0  0  0  0  0  0  0  0  0  0  0
    5.4758    1.8642    0.0000 H   0  0  0  0  0  0  0  0  0  0  0  0
    5.0700    2.8543    0.0000 H   0  0  0  0  0  0  0  0  0  0  0  0
    4.2208   -0.7812    0.0000 H   0  0  0  0  0  0  0  0  0  0  0  0
    3.0423    2.9149    0.0000 H   0  0  0  0  0  0  0  0  0  0  0  0
    3.6969    3.7613    0.0000 H   0  0  0  0  0  0  0  0  0  0  0  0
    3.5009   -0.7232    0.0000 H   0  0  0  0  0  0  0  0  0  0  0  0
    2.9018   -1.5674    0.0000 H   0  0  0  0  0  0  0  0  0  0  0  0
    2.4075   -2.0941    0.0000 H   0  0  0  0  0  0  0  0  0  0  0  0
    2.6941   -3.0888    0.0000 H   0  0  0  0  0  0  0  0  0  0  0  0
    1.3084    1.4936    0.0000 H   0  0  0  0  0  0  0  0  0  0  0  0
    0.9026    2.4837    0.0000 H   0  0  0  0  0  0  0  0  0  0  0  0
    5.6064   -4.7090    0.0000 H   0  0  0  0  0  0  0  0  0  0  0  0
    6.6025   -4.3180    0.0000 H   0  0  0  0  0  0  0  0  0  0  0  0
    3.2717    4.3258    0.0000 H   0  0  0  0  0  0  0  0  0  0  0  0
    5.8163    2.3583    0.0000 H   0  0  0  0  0  0  0  0  0  0  0  0
    1.9922   -3.1511    0.0000 H   0  0  0  0  0  0  0  0  0  0  0  0
    5.3899   -4.7874    0.0000 H   0  0  0  0  0  0  0  0  0  0  0  0
    2.3045    3.9499    0.0000 H   0  0  0  0  0  0  0  0  0  0  0  0
    0.5897    3.2469    0.0000 H   0  0  0  0  0  0  0  0  0  0  0  0
    1.2442    4.0934    0.0000 H   0  0  0  0  0  0  0  0  0  0  0  0
    2.1196   -5.0451    0.0000 H   0  0  0  0  0  0  0  0  0  0  0  0
    3.8297   -5.8687    0.0000 H   0  0  0  0  0  0  0  0  0  0  0  0
    4.4079    5.7949    0.0000 H   0  0  0  0  0  0  0  0  0  0  0  0
    6.9522    3.8271    0.0000 H   0  0  0  0  0  0  0  0  0  0  0  0
    6.2481    5.5454    0.0000 H   0  0  0  0  0  0  0  0  0  0  0  0
  1 16  2  0  0  0  0
  2 19  1  0  0  0  0
  2 27  1  0  0  0  0
  3 19  2  0  0  0  0
  4 22  2  0  0  0  0
  5 38  1  0  0  0  0
  5 40  1  0  0  0  0
  6 38  2  0  0  0  0
  7 16  1  0  0  0  0
  7 41  1  0  0  0  0
  8 22  1  0  0  0  0
  8 26  1  0  0  0  0
  8 28  1  0  0  0  0
  9 10  1  0  0  0  0
  9 11  1  0  0  0  0
  9 12  1  0  0  0  0
  9 16  1  0  0  0  0
 10 13  1  0  0  0  0
 10 42  1  0  0  0  0
 10 43  1  0  0  0  0
 11 14  1  0  0  0  0
 11 44  1  0  0  0  0
 11 45  1  0  0  0  0
 12 15  1  0  0  0  0
 12 46  1  0  0  0  0
 12 47  1  0  0  0  0
 13 14  1  0  0  0  0
 13 48  1  0  0  0  0
 13 49  1  0  0  0  0
 14 50  1  0  0  0  0
 14 51  1  0  0  0  0
 15 17  1  0  0  0  0
 15 19  1  0  0  0  0
 15 52  1  1  0  0  0
 17 20  1  0  0  0  0
 17 53  1  0  0  0  0
 17 54  1  0  0  0  0
 18  7  1  0  0  0  0
 18 21  1  0  0  0  0
 18 22  1  0  0  0  0
 18 55  1  1  0  0  0
 20 24  1  0  0  0  0
 20 56  1  0  0  0  0
 20 57  1  0  0  0  0
 21 23  1  0  0  0  0
 21 58  1  0  0  0  0
 21 59  1  0  0  0  0
 23 25  1  0  0  0  0
 23 60  1  0  0  0  0
 23 61  1  0  0  0  0
 24 29  2  0  0  0  0
 24 30  1  0  0  0  0
 25 26  1  0  0  0  0
 25 31  2  0  0  0  0
 26 32  2  0  0  0  0
 27 33  1  0  0  0  0
 27 62  1  0  0  0  0
 27 63  1  0  0  0  0
 28 38  1  0  0  0  0
 28 64  1  0  0  0  0
 28 65  1  0  0  0  0
 29 36  1  0  0  0  0
 29 66  1  0  0  0  0
 30 37  2  0  0  0  0
 30 67  1  0  0  0  0
 31 34  1  0  0  0  0
 31 68  1  0  0  0  0
 32 35  1  0  0  0  0
 32 69  1  0  0  0  0
 33 70  1  0  0  0  0
 33 71  1  0  0  0  0
 33 72  1  0  0  0  0
 34 35  2  0  0  0  0
 34 73  1  0  0  0  0
 35 74  1  0  0  0  0
 36 39  2  0  0  0  0
 36 75  1  0  0  0  0
 37 39  1  0  0  0  0
 37 76  1  0  0  0  0
 39 77  1  0  0  0  0
M  END
>  <DRUGBANK_ID>
DB05796

>  <SECONDARY_ACCESSION_NUMBERS>
DB12995

>  <COMMON_NAME>
Daglutril

>  <CAS_NUMBER>
182821-27-8

>  <UNII>
KKV299446X

>  <SYNONYMS>
((3S)-3-{1-((2R)-2-Ethoxycarbonyl-4-phenylbutyl)cyclopentanecarboxamido}-2-oxo-2,3,4,5-tetrahydro-1H-1-benzazepin-1-yl)acetic acid; Daglutril

$$$$
