
 OpenBabel10282417072D

 90 89  0  0  1  0  0  0  0  0999 V2000
    1.2711   -0.0506    0.0000 C   0  0  2  0  0  0  0  0  0  0  0  0
    0.8630    0.6645    0.0000 C   0  0  0  0  0  0  0  0  0  0  0  0
    0.8667   -0.7692    0.0000 N   0  0  0  0  0  0  0  0  0  0  0  0
    2.0909   -0.0506    0.0000 C   0  0  0  0  0  0  0  0  0  0  0  0
    0.0397    0.6608    0.0000 S   0  0  0  0  0  0  0  0  0  0  0  0
    1.2747   -1.4841    0.0000 C   0  0  0  0  0  0  0  0  0  0  0  0
    2.5098   -0.7692    0.0000 N   0  0  0  0  0  0  0  0  0  0  0  0
    2.5098    0.6680    0.0000 O   0  0  0  0  0  0  0  0  0  0  0  0
   -0.3503    1.7008    0.0000 C   0  0  1  0  0  0  0  0  0  0  0  0
    0.8703   -2.1956    0.0000 C   0  0  0  0  0  0  0  0  0  0  0  0
    2.0981   -1.4841    0.0000 O   0  0  0  0  0  0  0  0  0  0  0  0
    3.3367   -0.7692    0.0000 C   0  0  0  0  0  0  0  0  0  0  0  0
    0.3575    2.1089    0.0000 C   0  0  2  0  0  0  0  0  0  0  0  0
   -1.0725    2.1125    0.0000 C   0  0  0  0  0  0  0  0  0  0  0  0
    0.0434   -2.1992    0.0000 C   0  0  0  0  0  0  0  0  0  0  0  0
    3.7448   -1.4841    0.0000 C   0  0  0  0  0  0  0  0  0  0  0  0
    1.0761    1.6973    0.0000 C   0  0  0  0  0  0  0  0  0  0  0  0
    0.3575    2.9395    0.0000 O   0  0  0  0  0  0  0  0  0  0  0  0
   -1.7840    1.7008    0.0000 C   0  0  0  0  0  0  0  0  0  0  0  0
   -0.3720   -2.9178    0.0000 C   0  0  1  0  0  0  0  0  0  0  0  0
    4.5717   -1.4806    0.0000 O   0  0  0  0  0  0  0  0  0  0  0  0
    3.3367   -2.1956    0.0000 O   0  0  0  0  0  0  0  0  0  0  0  0
    1.7911    2.1089    0.0000 C   0  0  0  0  0  0  0  0  0  0  0  0
   -2.4989    2.1125    0.0000 C   0  0  0  0  0  0  0  0  0  0  0  0
   -1.1953   -2.9178    0.0000 C   0  0  0  0  0  0  0  0  0  0  0  0
    0.0469   -3.6292    0.0000 N   0  0  0  0  0  0  0  0  0  0  0  0
    2.5061    1.6973    0.0000 C   0  0  0  0  0  0  0  0  0  0  0  0
   -3.2175    1.7045    0.0000 C   0  0  0  0  0  0  0  0  0  0  0  0
   -1.6070   -2.2028    0.0000 O   0  0  0  0  0  0  0  0  0  0  0  0
   -1.6070   -3.6329    0.0000 O   0  0  0  0  0  0  0  0  0  0  0  0
    3.2212    2.1053    0.0000 C   0  0  0  0  0  0  0  0  0  0  0  0
   -3.9326    2.1125    0.0000 C   0  0  0  0  0  0  0  0  0  0  0  0
    3.9362    1.6936    0.0000 O   0  0  0  0  0  0  0  0  0  0  0  0
    3.2212    2.9575    0.0000 O   0  0  0  0  0  0  0  0  0  0  0  0
   -4.7559    2.1089    0.0000 C   0  0  0  0  0  0  0  0  0  0  0  0
   -5.4601    0.7258    0.0000 C   0  0  0  0  0  0  0  0  0  0  0  0
   -4.8065   -0.6862    0.0000 C   0  0  0  0  0  0  0  0  0  0  0  0
   -3.9831   -0.6825    0.0000 C   0  0  0  0  0  0  0  0  0  0  0  0
   -3.2717   -0.2636    0.0000 C   0  0  0  0  0  0  0  0  0  0  0  0
   -2.5458   -0.6753    0.0000 C   0  0  0  0  0  0  0  0  0  0  0  0
   -1.8381   -0.2564    0.0000 C   0  0  0  0  0  0  0  0  0  0  0  0
   -1.1158   -0.6645    0.0000 C   0  0  0  0  0  0  0  0  0  0  0  0
   -0.5272   -0.1300    0.0000 C   0  0  0  0  0  0  0  0  0  0  0  0
    0.2011   -0.0538    0.0000 H   0  0  0  0  0  0  0  0  0  0  0  0
    1.3982    1.5910    0.0000 H   0  0  0  0  0  0  0  0  0  0  0  0
    0.3260    1.5900    0.0000 H   0  0  0  0  0  0  0  0  0  0  0  0
   -0.1178   -0.7722    0.0000 H   0  0  0  0  0  0  0  0  0  0  0  0
    2.0193   -1.6228    0.0000 H   0  0  0  0  0  0  0  0  0  0  0  0
    0.6568    1.3394    0.0000 H   0  0  0  0  0  0  0  0  0  0  0  0
    1.4104   -3.1193    0.0000 H   0  0  0  0  0  0  0  0  0  0  0  0
    0.3399   -3.1249    0.0000 H   0  0  0  0  0  0  0  0  0  0  0  0
    3.8740    0.1561    0.0000 H   0  0  0  0  0  0  0  0  0  0  0  0
    4.4067   -0.7731    0.0000 H   0  0  0  0  0  0  0  0  0  0  0  0
   -0.5690    2.6442    0.0000 H   0  0  0  0  0  0  0  0  0  0  0  0
   -1.0758    3.1445    0.0000 H   0  0  0  0  0  0  0  0  0  0  0  0
   -0.4934   -1.2736    0.0000 H   0  0  0  0  0  0  0  0  0  0  0  0
   -1.0266   -2.1999    0.0000 H   0  0  0  0  0  0  0  0  0  0  0  0
    1.0773    0.6273    0.0000 H   0  0  0  0  0  0  0  0  0  0  0  0
    2.0027    1.1622    0.0000 H   0  0  0  0  0  0  0  0  0  0  0  0
    1.1975    3.4245    0.0000 H   0  0  0  0  0  0  0  0  0  0  0  0
   -1.7829    0.6688    0.0000 H   0  0  0  0  0  0  0  0  0  0  0  0
    0.6980   -2.9135    0.0000 H   0  0  0  0  0  0  0  0  0  0  0  0
    5.0436   -2.2901    0.0000 H   0  0  0  0  0  0  0  0  0  0  0  0
    1.7911    3.1789    0.0000 H   0  0  0  0  0  0  0  0  0  0  0  0
    2.7174    2.6445    0.0000 H   0  0  0  0  0  0  0  0  0  0  0  0
   -2.4957    3.1445    0.0000 H   0  0  0  0  0  0  0  0  0  0  0  0
   -0.4555   -4.5169    0.0000 H   0  0  0  0  0  0  0  0  0  0  0  0
    1.0669   -3.6205    0.0000 H   0  0  0  0  0  0  0  0  0  0  0  0
    2.5040    0.6273    0.0000 H   0  0  0  0  0  0  0  0  0  0  0  0
    3.4309    1.1590    0.0000 H   0  0  0  0  0  0  0  0  0  0  0  0
   -3.2186    0.6725    0.0000 H   0  0  0  0  0  0  0  0  0  0  0  0
   -1.1376   -1.3919    0.0000 H   0  0  0  0  0  0  0  0  0  0  0  0
   -3.6702    3.1106    0.0000 H   0  0  0  0  0  0  0  0  0  0  0  0
    3.9373    0.7566    0.0000 H   0  0  0  0  0  0  0  0  0  0  0  0
   -5.2972    2.9876    0.0000 H   0  0  0  0  0  0  0  0  0  0  0  0
   -6.5299    0.7458    0.0000 H   0  0  0  0  0  0  0  0  0  0  0  0
   -6.0447   -0.1704    0.0000 H   0  0  0  0  0  0  0  0  0  0  0  0
   -5.3603   -1.5570    0.0000 H   0  0  0  0  0  0  0  0  0  0  0  0
   -3.7095   -1.6776    0.0000 H   0  0  0  0  0  0  0  0  0  0  0  0
   -3.2804    0.8064    0.0000 H   0  0  0  0  0  0  0  0  0  0  0  0
   -2.3493    0.2787    0.0000 H   0  0  0  0  0  0  0  0  0  0  0  0
   -2.5359   -1.7453    0.0000 H   0  0  0  0  0  0  0  0  0  0  0  0
   -1.6138   -1.2009    0.0000 H   0  0  0  0  0  0  0  0  0  0  0  0
   -1.8489    0.8135    0.0000 H   0  0  0  0  0  0  0  0  0  0  0  0
   -0.9167    0.2876    0.0000 H   0  0  0  0  0  0  0  0  0  0  0  0
   -0.9968   -1.7279    0.0000 H   0  0  0  0  0  0  0  0  0  0  0  0
   -0.1148   -1.0425    0.0000 H   0  0  0  0  0  0  0  0  0  0  0  0
    0.4918   -0.4563    0.0000 H   0  0  0  0  0  0  0  0  0  0  0  0
   -0.7541    0.9157    0.0000 H   0  0  0  0  0  0  0  0  0  0  0  0
    0.2649    0.5893    0.0000 H   0  0  0  0  0  0  0  0  0  0  0  0
  1  2  1  0  0  0  0
  1  3  1  0  0  0  0
  1  4  1  0  0  0  0
  1 44  1  6  0  0  0
  2  5  1  0  0  0  0
  2 45  1  0  0  0  0
  2 46  1  0  0  0  0
  3  6  1  0  0  0  0
  3 47  1  0  0  0  0
  4  7  1  0  0  0  0
  4  8  2  0  0  0  0
  6 10  1  0  0  0  0
  6 11  2  0  0  0  0
  7 12  1  0  0  0  0
  7 48  1  0  0  0  0
  9  5  1  0  0  0  0
  9 13  1  0  0  0  0
  9 14  1  0  0  0  0
  9 49  1  1  0  0  0
 10 15  1  0  0  0  0
 10 50  1  0  0  0  0
 10 51  1  0  0  0  0
 12 16  1  0  0  0  0
 12 52  1  0  0  0  0
 12 53  1  0  0  0  0
 13 17  1  0  0  0  0
 13 18  1  0  0  0  0
 13 54  1  6  0  0  0
 14 19  2  0  0  0  0
 14 55  1  0  0  0  0
 15 20  1  0  0  0  0
 15 56  1  0  0  0  0
 15 57  1  0  0  0  0
 16 21  1  0  0  0  0
 16 22  2  0  0  0  0
 17 23  1  0  0  0  0
 17 58  1  0  0  0  0
 17 59  1  0  0  0  0
 18 60  1  0  0  0  0
 19 24  1  0  0  0  0
 19 61  1  0  0  0  0
 20 25  1  0  0  0  0
 20 26  1  0  0  0  0
 20 62  1  1  0  0  0
 21 63  1  0  0  0  0
 23 27  1  0  0  0  0
 23 64  1  0  0  0  0
 23 65  1  0  0  0  0
 24 28  2  0  0  0  0
 24 66  1  0  0  0  0
 25 29  1  0  0  0  0
 25 30  2  0  0  0  0
 26 67  1  0  0  0  0
 26 68  1  0  0  0  0
 27 31  1  0  0  0  0
 27 69  1  0  0  0  0
 27 70  1  0  0  0  0
 28 32  1  0  0  0  0
 28 71  1  0  0  0  0
 29 72  1  0  0  0  0
 31 33  1  0  0  0  0
 31 34  2  0  0  0  0
 32 35  2  0  0  0  0
 32 73  1  0  0  0  0
 33 74  1  0  0  0  0
 35 36  1  0  0  0  0
 35 75  1  0  0  0  0
 36 37  1  0  0  0  0
 36 76  1  0  0  0  0
 36 77  1  0  0  0  0
 37 38  2  0  0  0  0
 37 78  1  0  0  0  0
 38 39  1  0  0  0  0
 38 79  1  0  0  0  0
 39 40  1  0  0  0  0
 39 80  1  0  0  0  0
 39 81  1  0  0  0  0
 40 41  1  0  0  0  0
 40 82  1  0  0  0  0
 40 83  1  0  0  0  0
 41 42  1  0  0  0  0
 41 84  1  0  0  0  0
 41 85  1  0  0  0  0
 42 43  1  0  0  0  0
 42 86  1  0  0  0  0
 42 87  1  0  0  0  0
 43 88  1  0  0  0  0
 43 89  1  0  0  0  0
 43 90  1  0  0  0  0
M  END
>  <DRUGBANK_ID>
DB08855

>  <COMMON_NAME>
Leukotriene C4

>  <CAS_NUMBER>
72025-60-6

>  <UNII>
2CU6TT9V48

>  <SYNONYMS>
(R-(R*,S*-(E,E,Z,Z)))-N-(S-(1-(4-Carboxy-1-hydroxybutyl)-2,4,6,9-pentadecatetraenyl)-N-L-gamma-glutamyl-L-cysteinyl)glycine; L-Î³-glutamyl-S-[(1R,2E,4E,6Z,9Z)-1-[(1S)-4-carboxy-1-hydroxybutyl]pentadeca-2,4,6,9-tetraen-1-yl]-L-cysteinylglycine; LTC (sub 4); LTC4

$$$$
