S13
 OpenBabel10282417072D

 43 45  0  0  0  0  0  0  0  0999 V2000
   -2.0204    0.0166    0.0000 C   0  0  0  0  0  0  0  0  0  0  0  0
   -2.6878   -0.4683    0.0000 C   0  0  0  0  0  0  0  0  0  0  0  0
   -2.6016   -1.2888    0.0000 C   0  0  0  0  0  0  0  0  0  0  0  0
   -3.2691   -1.7737    0.0000 C   0  0  0  0  0  0  0  0  0  0  0  0
   -1.8479   -1.6244    0.0000 C   0  0  0  0  0  0  0  0  0  0  0  0
   -1.1805   -1.1395    0.0000 C   0  0  0  0  0  0  0  0  0  0  0  0
   -1.2667   -0.3190    0.0000 C   0  0  0  0  0  0  0  0  0  0  0  0
   -0.5993    0.1660    0.0000 C   0  0  2  0  0  0  0  0  0  0  0  0
    0.1853   -0.0890    0.0000 C   0  0  0  0  0  0  0  0  0  0  0  0
   -0.5993    0.9910    0.0000 N   0  0  0  0  0  0  0  0  0  0  0  0
    0.1853    1.2459    0.0000 O   0  0  0  0  0  0  0  0  0  0  0  0
    0.6702    0.5785    0.0000 C   0  0  2  0  0  0  0  0  0  0  0  0
    1.0827    1.2929    0.0000 O   0  0  0  0  0  0  0  0  0  0  0  0
    1.9077    1.2929    0.0000 C   0  0  2  0  0  0  0  0  0  0  0  0
    2.3202    2.0074    0.0000 C   0  0  0  0  0  0  0  0  0  0  0  0
    1.9077    2.7219    0.0000 O   0  0  0  0  0  0  0  0  0  0  0  0
    2.3202    0.5785    0.0000 C   0  0  1  0  0  0  0  0  0  0  0  0
    3.1452    0.5785    0.0000 O   0  0  0  0  0  0  0  0  0  0  0  0
    1.9077   -0.1360    0.0000 C   0  0  2  0  0  0  0  0  0  0  0  0
    2.3202   -0.8505    0.0000 O   0  0  0  0  0  0  0  0  0  0  0  0
    1.0827   -0.1360    0.0000 C   0  0  1  0  0  0  0  0  0  0  0  0
    0.6702   -0.8505    0.0000 O   0  0  0  0  0  0  0  0  0  0  0  0
   -0.5079   -0.4108    0.0000 H   0  0  0  0  0  0  0  0  0  0  0  0
    1.6158    1.7986    0.0000 H   0  0  0  0  0  0  0  0  0  0  0  0
    2.6122    1.0841    0.0000 H   0  0  0  0  0  0  0  0  0  0  0  0
    2.4917   -0.1360    0.0000 H   0  0  0  0  0  0  0  0  0  0  0  0
    1.3747   -0.6417    0.0000 H   0  0  0  0  0  0  0  0  0  0  0  0
   -2.1283    1.0429    0.0000 H   0  0  0  0  0  0  0  0  0  0  0  0
   -3.6306   -0.0485    0.0000 H   0  0  0  0  0  0  0  0  0  0  0  0
   -4.2466   -1.3384    0.0000 H   0  0  0  0  0  0  0  0  0  0  0  0
   -3.1573   -2.8378    0.0000 H   0  0  0  0  0  0  0  0  0  0  0  0
   -4.1348   -2.4026    0.0000 H   0  0  0  0  0  0  0  0  0  0  0  0
   -1.7400   -2.6507    0.0000 H   0  0  0  0  0  0  0  0  0  0  0  0
   -0.2377   -1.5593    0.0000 H   0  0  0  0  0  0  0  0  0  0  0  0
    0.5159   -1.1066    0.0000 H   0  0  0  0  0  0  0  0  0  0  0  0
    1.2421   -0.2564    0.0000 H   0  0  0  0  0  0  0  0  0  0  0  0
   -1.4245    1.5906    0.0000 H   0  0  0  0  0  0  0  0  0  0  0  0
    3.3902    2.0074    0.0000 H   0  0  0  0  0  0  0  0  0  0  0  0
    2.8552    2.9340    0.0000 H   0  0  0  0  0  0  0  0  0  0  0  0
    2.3927    3.5619    0.0000 H   0  0  0  0  0  0  0  0  0  0  0  0
    3.6302   -0.2615    0.0000 H   0  0  0  0  0  0  0  0  0  0  0  0
    1.8352   -1.6905    0.0000 H   0  0  0  0  0  0  0  0  0  0  0  0
   -0.2998   -0.8505    0.0000 H   0  0  0  0  0  0  0  0  0  0  0  0
  1  7  2  0  0  0  0
  1  2  1  0  0  0  0
  1 28  1  0  0  0  0
  2  3  2  0  0  0  0
  2 29  1  0  0  0  0
  3  5  1  0  0  0  0
  3  4  1  0  0  0  0
  4 30  1  0  0  0  0
  4 31  1  0  0  0  0
  4 32  1  0  0  0  0
  5 33  1  0  0  0  0
  6  5  2  0  0  0  0
  6 34  1  0  0  0  0
  7  6  1  0  0  0  0
  8  7  1  0  0  0  0
  8 23  1  6  0  0  0
  9  8  1  0  0  0  0
  9 35  1  0  0  0  0
  9 36  1  0  0  0  0
 10  8  1  0  0  0  0
 10 37  1  0  0  0  0
 11 10  1  0  0  0  0
 12 13  1  6  0  0  0
 12 11  1  0  0  0  0
 12  9  1  0  0  0  0
 14 15  1  0  0  0  0
 14 13  1  0  0  0  0
 14 24  1  1  0  0  0
 15 38  1  0  0  0  0
 15 39  1  0  0  0  0
 16 15  1  0  0  0  0
 16 40  1  0  0  0  0
 17 14  1  0  0  0  0
 17 25  1  6  0  0  0
 17 18  1  0  0  0  0
 18 41  1  0  0  0  0
 19 17  1  0  0  0  0
 19 21  1  0  0  0  0
 19 26  1  1  0  0  0
 19 20  1  0  0  0  0
 20 42  1  0  0  0  0
 21 12  1  0  0  0  0
 21 27  1  6  0  0  0
 21 22  1  0  0  0  0
 22 43  1  0  0  0  0
M  END
>  <DRUGBANK_ID>
DB08503

>  <COMMON_NAME>
(3S,5R,7R,8S,9S,10R)-7-(hydroxymethyl)-3-(4-methylphenyl)-1,6-dioxa-2-azaspiro[4.5]decane-8,9,10-triol

$$$$
