
 OpenBabel10282417072D

 80 83  0  0  0  0  0  0  0  0999 V2000
   -1.0716    1.0614    0.0000 C   0  0  0  0  0  0  0  0  0  0  0  0
   -1.7861    0.6489    0.0000 C   0  0  0  0  0  0  0  0  0  0  0  0
   -1.7861   -0.1760    0.0000 C   0  0  0  0  0  0  0  0  0  0  0  0
   -1.0716   -0.5885    0.0000 C   0  0  0  0  0  0  0  0  0  0  0  0
   -0.3572   -0.1760    0.0000 C   0  0  0  0  0  0  0  0  0  0  0  0
   -0.3572    0.6489    0.0000 C   0  0  0  0  0  0  0  0  0  0  0  0
   -2.5006    1.0614    0.0000 C   0  0  0  0  0  0  0  0  0  0  0  0
   -3.2151    0.6489    0.0000 N   0  0  0  0  0  0  0  0  0  0  0  0
   -3.9295    1.0614    0.0000 C   0  0  0  0  0  0  0  0  0  0  0  0
   -4.6440    0.6489    0.0000 C   0  0  0  0  0  0  0  0  0  0  0  0
   -5.3585    1.0614    0.0000 C   0  0  0  0  0  0  0  0  0  0  0  0
   -5.3585    0.2364    0.0000 C   0  0  0  0  0  0  0  0  0  0  0  0
   -4.4304   -0.1479    0.0000 C   0  0  0  0  0  0  0  0  0  0  0  0
    0.3572    1.0614    0.0000 C   0  0  0  0  0  0  0  0  0  0  0  0
    0.3572   -0.5885    0.0000 C   0  0  0  0  0  0  0  0  0  0  0  0
    1.0716   -0.1760    0.0000 C   0  0  2  0  0  0  0  0  0  0  0  0
    1.0716    0.6489    0.0000 C   0  0  0  0  0  0  0  0  0  0  0  0
    1.7861    1.0614    0.0000 C   0  0  0  0  0  0  0  0  0  0  0  0
    1.7861   -0.5885    0.0000 C   0  0  0  0  0  0  0  0  0  0  0  0
    2.5007   -0.1760    0.0000 C   0  0  2  0  0  0  0  0  0  0  0  0
    2.5007    0.6489    0.0000 C   0  0  1  0  0  0  0  0  0  0  0  0
    3.2151    1.0614    0.0000 C   0  0  0  0  0  0  0  0  0  0  0  0
    3.2151   -0.5885    0.0000 C   0  0  1  0  0  0  0  0  0  0  0  0
    3.9296   -0.1760    0.0000 C   0  0  0  0  0  0  0  0  0  0  0  0
    3.9296    0.6489    0.0000 C   0  0  0  0  0  0  0  0  0  0  0  0
    4.6441    1.0614    0.0000 C   0  0  0  0  0  0  0  0  0  0  0  0
    4.6441    1.8864    0.0000 O   0  0  0  0  0  0  0  0  0  0  0  0
    5.3584    0.6489    0.0000 N   0  0  0  0  0  0  0  0  0  0  0  0
    4.6441   -0.5885    0.0000 O   0  0  0  0  0  0  0  0  0  0  0  0
    3.2151    1.8864    0.0000 O   0  0  0  0  0  0  0  0  0  0  0  0
    3.7985   -1.1719    0.0000 N   0  0  0  0  0  0  0  0  0  0  0  0
    4.6235   -1.1719    0.0000 C   0  0  0  0  0  0  0  0  0  0  0  0
    3.3860   -1.8864    0.0000 C   0  0  0  0  0  0  0  0  0  0  0  0
    2.5007    1.4739    0.0000 O   0  0  0  0  0  0  0  0  0  0  0  0
    1.7861    1.8864    0.0000 O   0  0  0  0  0  0  0  0  0  0  0  0
    0.3572    1.8864    0.0000 O   0  0  0  0  0  0  0  0  0  0  0  0
   -1.0716    1.8864    0.0000 O   0  0  0  0  0  0  0  0  0  0  0  0
   -1.0716   -1.4135    0.0000 N   0  0  0  0  0  0  0  0  0  0  0  0
   -0.3572   -1.8260    0.0000 C   0  0  0  0  0  0  0  0  0  0  0  0
   -1.7861   -1.8260    0.0000 C   0  0  0  0  0  0  0  0  0  0  0  0
    2.5007   -1.1760    0.0000 H   0  0  0  0  0  0  0  0  0  0  0  0
    1.0716   -1.1760    0.0000 H   0  0  0  0  0  0  0  0  0  0  0  0
   -2.6798   -0.6920    0.0000 H   0  0  0  0  0  0  0  0  0  0  0  0
   -2.5006    2.1314    0.0000 H   0  0  0  0  0  0  0  0  0  0  0  0
   -3.4272    1.5964    0.0000 H   0  0  0  0  0  0  0  0  0  0  0  0
   -3.2151   -0.3711    0.0000 H   0  0  0  0  0  0  0  0  0  0  0  0
   -3.9295    2.1314    0.0000 H   0  0  0  0  0  0  0  0  0  0  0  0
   -4.8561    1.5964    0.0000 H   0  0  0  0  0  0  0  0  0  0  0  0
   -5.3585    2.1314    0.0000 H   0  0  0  0  0  0  0  0  0  0  0  0
   -6.2851    0.5264    0.0000 H   0  0  0  0  0  0  0  0  0  0  0  0
   -6.2852    1.5964    0.0000 H   0  0  0  0  0  0  0  0  0  0  0  0
   -6.2851    0.7714    0.0000 H   0  0  0  0  0  0  0  0  0  0  0  0
   -5.3585   -0.8336    0.0000 H   0  0  0  0  0  0  0  0  0  0  0  0
   -6.2852   -0.2986    0.0000 H   0  0  0  0  0  0  0  0  0  0  0  0
   -5.1869   -0.9046    0.0000 H   0  0  0  0  0  0  0  0  0  0  0  0
   -3.3968   -0.4247    0.0000 H   0  0  0  0  0  0  0  0  0  0  0  0
   -4.1533   -1.1814    0.0000 H   0  0  0  0  0  0  0  0  0  0  0  0
    0.3572   -1.6585    0.0000 H   0  0  0  0  0  0  0  0  0  0  0  0
    1.2839   -1.1235    0.0000 H   0  0  0  0  0  0  0  0  0  0  0  0
    1.7861   -1.6585    0.0000 H   0  0  0  0  0  0  0  0  0  0  0  0
    2.7127   -1.1236    0.0000 H   0  0  0  0  0  0  0  0  0  0  0  0
    2.5637   -1.4374    0.0000 H   0  0  0  0  0  0  0  0  0  0  0  0
    5.3583   -0.3356    0.0000 H   0  0  0  0  0  0  0  0  0  0  0  0
    6.2111    1.1411    0.0000 H   0  0  0  0  0  0  0  0  0  0  0  0
    4.6441   -1.5255    0.0000 H   0  0  0  0  0  0  0  0  0  0  0  0
    5.1585   -2.0985    0.0000 H   0  0  0  0  0  0  0  0  0  0  0  0
    5.1585   -0.2453    0.0000 H   0  0  0  0  0  0  0  0  0  0  0  0
    5.6935   -1.1719    0.0000 H   0  0  0  0  0  0  0  0  0  0  0  0
    2.3160   -1.8864    0.0000 H   0  0  0  0  0  0  0  0  0  0  0  0
    3.9210   -2.8130    0.0000 H   0  0  0  0  0  0  0  0  0  0  0  0
    2.8510   -2.8131    0.0000 H   0  0  0  0  0  0  0  0  0  0  0  0
    3.3407    1.9589    0.0000 H   0  0  0  0  0  0  0  0  0  0  0  0
    2.5976    2.3549    0.0000 H   0  0  0  0  0  0  0  0  0  0  0  0
   -0.2601    2.3549    0.0000 H   0  0  0  0  0  0  0  0  0  0  0  0
   -0.3572   -2.8960    0.0000 H   0  0  0  0  0  0  0  0  0  0  0  0
    0.5695   -1.2910    0.0000 H   0  0  0  0  0  0  0  0  0  0  0  0
    0.5694   -2.3610    0.0000 H   0  0  0  0  0  0  0  0  0  0  0  0
   -2.7127   -1.2910    0.0000 H   0  0  0  0  0  0  0  0  0  0  0  0
   -1.7861   -2.8960    0.0000 H   0  0  0  0  0  0  0  0  0  0  0  0
   -2.7128   -2.3610    0.0000 H   0  0  0  0  0  0  0  0  0  0  0  0
  1  2  1  0  0  0  0
  1  6  2  0  0  0  0
  1 37  1  0  0  0  0
  2  3  2  0  0  0  0
  2  7  1  0  0  0  0
  3  4  1  0  0  0  0
  3 43  1  0  0  0  0
  4  5  2  0  0  0  0
  5 15  1  0  0  0  0
  6  5  1  0  0  0  0
  7  8  1  0  0  0  0
  7 44  1  0  0  0  0
  7 45  1  0  0  0  0
  8  9  1  0  0  0  0
  8 46  1  0  0  0  0
  9 10  1  0  0  0  0
  9 47  1  0  0  0  0
  9 48  1  0  0  0  0
 10 11  1  0  0  0  0
 10 12  1  0  0  0  0
 10 13  1  0  0  0  0
 11 49  1  0  0  0  0
 11 50  1  0  0  0  0
 11 51  1  0  0  0  0
 12 52  1  0  0  0  0
 12 53  1  0  0  0  0
 12 54  1  0  0  0  0
 13 55  1  0  0  0  0
 13 56  1  0  0  0  0
 13 57  1  0  0  0  0
 14  6  1  0  0  0  0
 14 17  1  0  0  0  0
 14 36  2  0  0  0  0
 15 16  1  0  0  0  0
 15 58  1  0  0  0  0
 15 59  1  0  0  0  0
 16 19  1  0  0  0  0
 16 42  1  1  0  0  0
 17 16  1  0  0  0  0
 18 17  2  0  0  0  0
 18 21  1  0  0  0  0
 18 35  1  0  0  0  0
 19 20  1  0  0  0  0
 19 60  1  0  0  0  0
 19 61  1  0  0  0  0
 20 23  1  0  0  0  0
 20 41  1  1  0  0  0
 21 20  1  0  0  0  0
 21 34  1  1  0  0  0
 22 21  1  0  0  0  0
 22 25  1  0  0  0  0
 22 30  2  0  0  0  0
 23 24  1  0  0  0  0
 23 31  1  0  0  0  0
 23 62  1  6  0  0  0
 24 25  2  0  0  0  0
 24 29  1  0  0  0  0
 25 26  1  0  0  0  0
 26 27  2  0  0  0  0
 26 28  1  0  0  0  0
 28 63  1  0  0  0  0
 28 64  1  0  0  0  0
 29 65  1  0  0  0  0
 31 32  1  0  0  0  0
 31 33  1  0  0  0  0
 32 66  1  0  0  0  0
 32 67  1  0  0  0  0
 32 68  1  0  0  0  0
 33 69  1  0  0  0  0
 33 70  1  0  0  0  0
 33 71  1  0  0  0  0
 34 72  1  0  0  0  0
 35 73  1  0  0  0  0
 37 74  1  0  0  0  0
 38  4  1  0  0  0  0
 38 39  1  0  0  0  0
 38 40  1  0  0  0  0
 39 75  1  0  0  0  0
 39 76  1  0  0  0  0
 39 77  1  0  0  0  0
 40 78  1  0  0  0  0
 40 79  1  0  0  0  0
 40 80  1  0  0  0  0
M  END
>  <DRUGBANK_ID>
DB12455

>  <COMMON_NAME>
Omadacycline

>  <CAS_NUMBER>
389139-89-3

>  <UNII>
090IP5RV8F

>  <SYNONYMS>
Amadacycline; Omadacycline

$$$$
