451
 OpenBabel10282417072D

 35 36  0  0  1  0  0  0  0  0999 V2000
    4.9509    0.6683    0.0000 I   0  0  0  0  0  0  0  0  0  0  0  0
    2.0930    0.6683    0.0000 I   0  0  0  0  0  0  0  0  0  0  0  0
    6.3799    1.4933    0.0000 I   0  0  0  0  0  0  0  0  0  0  0  0
    4.9509    3.9683    0.0000 I   0  0  0  0  0  0  0  0  0  0  0  0
    3.5220    1.4933    0.0000 O   0  0  0  0  0  0  0  0  0  0  0  0
    2.0930   -3.4568    0.0000 O   0  0  0  0  0  0  0  0  0  0  0  0
    3.5220   -3.4568    0.0000 O   0  0  0  0  0  0  0  0  0  0  0  0
    6.3799    3.1433    0.0000 O   0  0  0  0  0  0  0  0  0  0  0  0
    2.0930   -1.8068    0.0000 N   0  0  0  0  0  0  0  0  0  0  0  0
    3.5220   -1.8068    0.0000 C   0  0  0  0  0  0  0  0  0  0  0  0
    2.8075   -2.2193    0.0000 C   0  0  1  0  0  0  0  0  0  0  0  0
    3.5220   -0.9818    0.0000 C   0  0  0  0  0  0  0  0  0  0  0  0
    2.8075   -0.5693    0.0000 C   0  0  0  0  0  0  0  0  0  0  0  0
    4.2365   -0.5693    0.0000 C   0  0  0  0  0  0  0  0  0  0  0  0
    3.5220    0.6683    0.0000 C   0  0  0  0  0  0  0  0  0  0  0  0
    4.2365    0.2558    0.0000 C   0  0  0  0  0  0  0  0  0  0  0  0
    2.8075    0.2558    0.0000 C   0  0  0  0  0  0  0  0  0  0  0  0
    2.8075   -3.0443    0.0000 C   0  0  0  0  0  0  0  0  0  0  0  0
    4.2365    1.9058    0.0000 C   0  0  0  0  0  0  0  0  0  0  0  0
    4.2365    2.7308    0.0000 C   0  0  0  0  0  0  0  0  0  0  0  0
    4.9509    1.4933    0.0000 C   0  0  0  0  0  0  0  0  0  0  0  0
    5.6655    1.9058    0.0000 C   0  0  0  0  0  0  0  0  0  0  0  0
    4.9509    3.1433    0.0000 C   0  0  0  0  0  0  0  0  0  0  0  0
    5.6655    2.7308    0.0000 C   0  0  0  0  0  0  0  0  0  0  0  0
    1.2815   -2.9883    0.0000 H   0  0  0  0  0  0  0  0  0  0  0  0
    7.1914    2.6748    0.0000 H   0  0  0  0  0  0  0  0  0  0  0  0
    2.0930   -0.7868    0.0000 H   0  0  0  0  0  0  0  0  0  0  0  0
    1.2097   -2.3168    0.0000 H   0  0  0  0  0  0  0  0  0  0  0  0
    4.4486   -2.3418    0.0000 H   0  0  0  0  0  0  0  0  0  0  0  0
    4.4486   -1.2718    0.0000 H   0  0  0  0  0  0  0  0  0  0  0  0
    2.8075   -1.1493    0.0000 H   0  0  0  0  0  0  0  0  0  0  0  0
    1.9138   -1.0853    0.0000 H   0  0  0  0  0  0  0  0  0  0  0  0
    5.1302   -1.0853    0.0000 H   0  0  0  0  0  0  0  0  0  0  0  0
    3.3428    3.2468    0.0000 H   0  0  0  0  0  0  0  0  0  0  0  0
    4.9508    0.4613    0.0000 H   0  0  0  0  0  0  0  0  0  0  0  0
  1 16  1  0  0  0  0
  2 17  1  0  0  0  0
  3 22  1  0  0  0  0
  4 23  1  0  0  0  0
  5 15  1  0  0  0  0
  5 19  1  0  0  0  0
  6 18  1  0  0  0  0
  6 25  1  0  0  0  0
  7 18  2  0  0  0  0
  8 24  1  0  0  0  0
  8 26  1  0  0  0  0
  9 27  1  0  0  0  0
  9 28  1  0  0  0  0
 10 11  1  0  0  0  0
 10 12  1  0  0  0  0
 10 29  1  0  0  0  0
 10 30  1  0  0  0  0
 11  9  1  0  0  0  0
 11 18  1  0  0  0  0
 11 31  1  6  0  0  0
 12 13  2  0  0  0  0
 12 14  1  0  0  0  0
 13 17  1  0  0  0  0
 13 32  1  0  0  0  0
 14 16  2  0  0  0  0
 14 33  1  0  0  0  0
 15 16  1  0  0  0  0
 15 17  2  0  0  0  0
 19 20  2  0  0  0  0
 19 21  1  0  0  0  0
 20 23  1  0  0  0  0
 20 34  1  0  0  0  0
 21 22  2  0  0  0  0
 21 35  1  0  0  0  0
 22 24  1  0  0  0  0
 23 24  2  0  0  0  0
M  END
>  <DRUGBANK_ID>
DB00451

>  <SECONDARY_ACCESSION_NUMBERS>
APRD00235; EXPT02993

>  <COMMON_NAME>
Levothyroxine

>  <CAS_NUMBER>
51-48-9

>  <UNII>
Q51BO43MG4

>  <SYNONYMS>
3,3',5,5'-Tetraiodo-L-thyronine; 3,5,3',5'-Tetraiodo-L-thyronine; 4-(4-Hydroxy-3,5-diiodophenoxy)-3,5-diiodo-L-phenylalanine; L-T4; L-Thyroxine; Levothyroxin; LT4; O-(4-Hydroxy-3,5-diidophenyl)-3,5-diiodo-L-tyrosine; O-(4-Hydroxy-3,5-diiodophenyl)-3,5-diiodo-L-tyrosine; T4; Thyroxine

$$$$
