
 OpenBabel10282417072D

 92 98  0  0  1  0  0  0  0  0999 V2000
    4.7455   -1.1069    0.0000 H   0  0  0  0  0  0  0  0  0  0  0  0
    3.9623   -1.3664    0.0000 C   0  0  2  0  0  0  0  0  0  0  0  0
    4.5632   -1.9631    0.0000 O   0  0  0  0  0  0  0  0  0  0  0  0
    5.2485   -1.4779    0.0000 C   0  0  0  0  0  0  0  0  0  0  0  0
    4.9394   -0.6626    0.0000 C   0  0  0  0  0  0  0  0  0  0  0  0
    5.6181   -0.1391    0.0000 C   0  0  0  0  0  0  0  0  0  0  0  0
    5.1909    0.5927    0.0000 C   0  0  0  0  0  0  0  0  0  0  0  0
    4.3232    0.5460    0.0000 C   0  0  1  0  0  0  0  0  0  0  0  0
    4.4079    1.4128    0.0000 N   0  0  0  0  0  0  0  0  0  0  0  0
    4.9840    2.0033    0.0000 C   0  0  0  0  0  0  0  0  0  0  0  0
    4.7606    2.7975    0.0000 C   0  0  0  0  0  0  0  0  0  0  0  0
    4.1701    3.3736    0.0000 C   0  0  0  0  0  0  0  0  0  0  0  0
    4.9642    3.5970    0.0000 C   0  0  0  0  0  0  0  0  0  0  0  0
    3.5861    1.3118    0.0000 C   0  0  0  0  0  0  0  0  0  0  0  0
    3.7908    0.4783    0.0000 C   0  0  0  0  0  0  0  0  0  0  0  0
    4.1032   -0.4266    0.0000 C   0  0  1  0  0  0  0  0  0  0  0  0
    3.4184    0.1045    0.0000 C   0  0  1  0  0  0  0  0  0  0  0  0
    3.4205   -0.6275    0.0000 C   0  0  0  0  0  0  0  0  0  0  0  0
    3.1015   -1.2786    0.0000 C   0  0  0  0  0  0  0  0  0  0  0  0
    3.2381   -1.9628    0.0000 C   0  0  2  0  0  0  0  0  0  0  0  0
    3.2302   -2.7877    0.0000 O   0  0  0  0  0  0  0  0  0  0  0  0
    3.9408   -3.2070    0.0000 C   0  0  0  0  0  0  0  0  0  0  0  0
    2.5129   -1.3423    0.0000 C   0  0  2  0  0  0  0  0  0  0  0  0
    2.3679   -2.1544    0.0000 H   0  0  0  0  0  0  0  0  0  0  0  0
    2.6523   -0.4447    0.0000 C   0  0  0  0  0  0  0  0  0  0  0  0
    1.7392   -1.6286    0.0000 C   0  0  2  0  0  0  0  0  0  0  0  0
    1.4529   -0.8549    0.0000 C   0  0  0  0  0  0  0  0  0  0  0  0
    2.0256   -2.4023    0.0000 O   0  0  0  0  0  0  0  0  0  0  0  0
    0.9655   -1.9150    0.0000 C   0  0  0  0  0  0  0  0  0  0  0  0
    0.6792   -1.1413    0.0000 C   0  0  0  0  0  0  0  0  0  0  0  0
    1.2519   -2.6887    0.0000 C   0  0  0  0  0  0  0  0  0  0  0  0
    0.1918   -2.2013    0.0000 C   0  0  0  0  0  0  0  0  0  0  0  0
    6.4443   -0.3547    0.0000 C   0  0  0  0  0  0  0  0  0  0  0  0
    6.6423   -1.1677    0.0000 C   0  0  0  0  0  0  0  0  0  0  0  0
    6.0502   -1.7494    0.0000 C   0  0  0  0  0  0  0  0  0  0  0  0
    6.2344   -2.5536    0.0000 O   0  0  0  0  0  0  0  0  0  0  0  0
    7.0229   -2.7962    0.0000 C   0  0  0  0  0  0  0  0  0  0  0  0
    7.6273   -2.2347    0.0000 O   0  0  0  0  0  0  0  0  0  0  0  0
    7.2070   -3.6004    0.0000 C   0  0  0  0  0  0  0  0  0  0  0  0
    7.9955   -3.8431    0.0000 C   0  0  0  0  0  0  0  0  0  0  0  0
    8.1796   -4.6473    0.0000 C   0  0  0  0  0  0  0  0  0  0  0  0
    8.9681   -4.8900    0.0000 C   0  0  0  0  0  0  0  0  0  0  0  0
    9.1522   -5.6942    0.0000 C   0  0  0  0  0  0  0  0  0  0  0  0
    9.9407   -5.9368    0.0000 O   0  0  0  0  0  0  0  0  0  0  0  0
    8.5478   -6.2557    0.0000 O   0  0  0  0  0  0  0  0  0  0  0  0
    5.6985    1.5346    0.0000 H   0  0  0  0  0  0  0  0  0  0  0  0
    4.6179    1.4963    0.0000 H   0  0  0  0  0  0  0  0  0  0  0  0
    5.0961    1.2859    0.0000 H   0  0  0  0  0  0  0  0  0  0  0  0
    6.0209    1.7392    0.0000 H   0  0  0  0  0  0  0  0  0  0  0  0
    5.7312    2.7692    0.0000 H   0  0  0  0  0  0  0  0  0  0  0  0
    4.4709    3.8275    0.0000 H   0  0  0  0  0  0  0  0  0  0  0  0
    3.1332    3.6377    0.0000 H   0  0  0  0  0  0  0  0  0  0  0  0
    4.1568    4.4435    0.0000 H   0  0  0  0  0  0  0  0  0  0  0  0
    5.7113    4.3630    0.0000 H   0  0  0  0  0  0  0  0  0  0  0  0
    5.8974    3.0736    0.0000 H   0  0  0  0  0  0  0  0  0  0  0  0
    2.7053    1.9194    0.0000 H   0  0  0  0  0  0  0  0  0  0  0  0
    2.7053    0.7042    0.0000 H   0  0  0  0  0  0  0  0  0  0  0  0
    2.7645    0.1758    0.0000 H   0  0  0  0  0  0  0  0  0  0  0  0
    3.3006   -0.4728    0.0000 H   0  0  0  0  0  0  0  0  0  0  0  0
    4.4632   -0.8676    0.0000 H   0  0  0  0  0  0  0  0  0  0  0  0
    3.8805   -1.5936    0.0000 H   0  0  0  0  0  0  0  0  0  0  0  0
    2.0404   -1.1407    0.0000 H   0  0  0  0  0  0  0  0  0  0  0  0
    2.3710   -2.0604    0.0000 H   0  0  0  0  0  0  0  0  0  0  0  0
    3.9307   -4.2770    0.0000 H   0  0  0  0  0  0  0  0  0  0  0  0
    4.8725   -2.6808    0.0000 H   0  0  0  0  0  0  0  0  0  0  0  0
    4.8623   -3.7508    0.0000 H   0  0  0  0  0  0  0  0  0  0  0  0
    1.7409    0.1159    0.0000 H   0  0  0  0  0  0  0  0  0  0  0  0
    2.6146    0.6246    0.0000 H   0  0  0  0  0  0  0  0  0  0  0  0
    2.1363   -0.0316    0.0000 H   0  0  0  0  0  0  0  0  0  0  0  0
    0.3982   -0.6747    0.0000 H   0  0  0  0  0  0  0  0  0  0  0  0
    1.0816    0.1486    0.0000 H   0  0  0  0  0  0  0  0  0  0  0  0
    1.4062   -3.1488    0.0000 H   0  0  0  0  0  0  0  0  0  0  0  0
    1.3626   -0.3180    0.0000 H   0  0  0  0  0  0  0  0  0  0  0  0
   -0.3755   -0.9611    0.0000 H   0  0  0  0  0  0  0  0  0  0  0  0
    0.3079   -0.1378    0.0000 H   0  0  0  0  0  0  0  0  0  0  0  0
    0.5686   -3.5121    0.0000 H   0  0  0  0  0  0  0  0  0  0  0  0
    2.3066   -2.8687    0.0000 H   0  0  0  0  0  0  0  0  0  0  0  0
    1.6233   -3.6922    0.0000 H   0  0  0  0  0  0  0  0  0  0  0  0
   -0.6315   -1.5179    0.0000 H   0  0  0  0  0  0  0  0  0  0  0  0
    0.0116   -3.2560    0.0000 H   0  0  0  0  0  0  0  0  0  0  0  0
   -0.8117   -2.5726    0.0000 H   0  0  0  0  0  0  0  0  0  0  0  0
    7.1800    0.3690    0.0000 H   0  0  0  0  0  0  0  0  0  0  0  0
    7.6348   -1.4506    0.0000 H   0  0  0  0  0  0  0  0  0  0  0  0
    6.4231   -4.3287    0.0000 H   0  0  0  0  0  0  0  0  0  0  0  0
    7.4457   -4.6434    0.0000 H   0  0  0  0  0  0  0  0  0  0  0  0
    8.7794   -3.1148    0.0000 H   0  0  0  0  0  0  0  0  0  0  0  0
    9.0182   -4.1578    0.0000 H   0  0  0  0  0  0  0  0  0  0  0  0
    7.3957   -5.3756    0.0000 H   0  0  0  0  0  0  0  0  0  0  0  0
    8.4183   -5.6903    0.0000 H   0  0  0  0  0  0  0  0  0  0  0  0
    9.7520   -4.1617    0.0000 H   0  0  0  0  0  0  0  0  0  0  0  0
    9.9908   -5.2047    0.0000 H   0  0  0  0  0  0  0  0  0  0  0  0
   10.1499   -6.8502    0.0000 H   0  0  0  0  0  0  0  0  0  0  0  0
  2  1  1  6  0  0  0
  2  3  1  0  0  0  0
  2 16  1  0  0  0  0
  2 20  1  0  0  0  0
  3  4  1  0  0  0  0
  4  5  2  0  0  0  0
  4 35  1  0  0  0  0
  5  6  1  0  0  0  0
  6  7  1  0  0  0  0
  6 33  2  0  0  0  0
  7 46  1  0  0  0  0
  7 47  1  0  0  0  0
  8  7  1  0  0  0  0
  8  9  1  0  0  0  0
  8 48  1  1  0  0  0
  9 10  1  0  0  0  0
  9 14  1  0  0  0  0
 10 11  1  0  0  0  0
 10 49  1  0  0  0  0
 10 50  1  0  0  0  0
 11 12  1  0  0  0  0
 11 13  1  0  0  0  0
 11 51  1  0  0  0  0
 12 13  1  0  0  0  0
 12 52  1  0  0  0  0
 12 53  1  0  0  0  0
 13 54  1  0  0  0  0
 13 55  1  0  0  0  0
 14 15  1  0  0  0  0
 14 56  1  0  0  0  0
 14 57  1  0  0  0  0
 15 58  1  0  0  0  0
 15 59  1  0  0  0  0
 16 15  1  0  0  0  0
 16  5  1  1  0  0  0
 16 17  1  0  0  0  0
 17  8  1  0  0  0  0
 17 18  1  1  0  0  0
 17 25  1  0  0  0  0
 18 19  1  0  0  0  0
 18 60  1  0  0  0  0
 18 61  1  0  0  0  0
 19 62  1  0  0  0  0
 19 63  1  0  0  0  0
 20 19  1  0  0  0  0
 20 21  1  1  0  0  0
 20 23  1  0  0  0  0
 21 22  1  0  0  0  0
 22 64  1  0  0  0  0
 22 65  1  0  0  0  0
 22 66  1  0  0  0  0
 23 24  1  6  0  0  0
 23 25  1  0  0  0  0
 23 26  1  0  0  0  0
 25 67  1  0  0  0  0
 25 68  1  0  0  0  0
 26 27  1  0  0  0  0
 26 28  1  1  0  0  0
 26 29  1  0  0  0  0
 27 69  1  0  0  0  0
 27 70  1  0  0  0  0
 27 71  1  0  0  0  0
 28 72  1  0  0  0  0
 29 30  1  0  0  0  0
 29 31  1  0  0  0  0
 29 32  1  0  0  0  0
 30 73  1  0  0  0  0
 30 74  1  0  0  0  0
 30 75  1  0  0  0  0
 31 76  1  0  0  0  0
 31 77  1  0  0  0  0
 31 78  1  0  0  0  0
 32 79  1  0  0  0  0
 32 80  1  0  0  0  0
 32 81  1  0  0  0  0
 33 34  1  0  0  0  0
 33 82  1  0  0  0  0
 34 35  2  0  0  0  0
 34 83  1  0  0  0  0
 35 36  1  0  0  0  0
 36 37  1  0  0  0  0
 37 38  2  0  0  0  0
 37 39  1  0  0  0  0
 39 40  1  0  0  0  0
 39 84  1  0  0  0  0
 39 85  1  0  0  0  0
 40 41  1  0  0  0  0
 40 86  1  0  0  0  0
 40 87  1  0  0  0  0
 41 42  1  0  0  0  0
 41 88  1  0  0  0  0
 41 89  1  0  0  0  0
 42 43  1  0  0  0  0
 42 90  1  0  0  0  0
 42 91  1  0  0  0  0
 43 44  1  0  0  0  0
 43 45  2  0  0  0  0
 44 92  1  0  0  0  0
M  END
>  <DRUGBANK_ID>
DB16117

>  <COMMON_NAME>
Buprenorphine hemiadipate

>  <CAS_NUMBER>
951123-45-8

>  <UNII>
968KUA5J54

>  <SYNONYMS>
Buprenorphine adipate ester

$$$$
