
 OpenBabel10282417072D

 32 31  0  0  0  0  0  0  0  0999 V2000
    2.5005    0.8249    0.0000 O   0  0  0  0  0  0  0  0  0  0  0  0
    2.5005    0.0000    0.0000 C   0  0  0  0  0  0  0  0  0  0  0  0
    3.2150   -0.4125    0.0000 O   0  0  0  0  0  0  0  0  0  0  0  0
    1.7862   -0.4125    0.0000 C   0  0  1  0  0  0  0  0  0  0  0  0
    1.7862   -1.2374    0.0000 N   0  0  0  0  0  0  0  0  0  0  0  0
    1.0717    0.0000    0.0000 C   0  0  0  0  0  0  0  0  0  0  0  0
    0.3572   -0.4125    0.0000 C   0  0  0  0  0  0  0  0  0  0  0  0
   -0.3571    0.0000    0.0000 C   0  0  0  0  0  0  0  0  0  0  0  0
   -1.0716   -0.4125    0.0000 N   0  0  0  0  0  0  0  0  0  0  0  0
   -1.7861    0.0000    0.0000 C   0  0  0  0  0  0  0  0  0  0  0  0
   -1.7861    0.8249    0.0000 N   0  0  0  0  0  0  0  0  0  0  0  0
   -2.5005   -0.4125    0.0000 N   0  0  0  0  0  0  0  0  0  0  0  0
   -1.0716    1.2374    0.0000 C   0  0  0  0  0  0  0  0  0  0  0  0
   -3.2150    0.0000    0.0000 C   0  0  0  0  0  0  0  0  0  0  0  0
    3.2150   -1.3495    0.0000 H   0  0  0  0  0  0  0  0  0  0  0  0
    2.7129   -0.9475    0.0000 H   0  0  0  0  0  0  0  0  0  0  0  0
    0.9029   -1.7474    0.0000 H   0  0  0  0  0  0  0  0  0  0  0  0
    2.6695   -1.7474    0.0000 H   0  0  0  0  0  0  0  0  0  0  0  0
    1.0717    1.0700    0.0000 H   0  0  0  0  0  0  0  0  0  0  0  0
    0.1451    0.5350    0.0000 H   0  0  0  0  0  0  0  0  0  0  0  0
    0.3571   -1.4825    0.0000 H   0  0  0  0  0  0  0  0  0  0  0  0
   -0.5695   -0.9474    0.0000 H   0  0  0  0  0  0  0  0  0  0  0  0
   -0.3570    1.0700    0.0000 H   0  0  0  0  0  0  0  0  0  0  0  0
    0.5696    0.5349    0.0000 H   0  0  0  0  0  0  0  0  0  0  0  0
   -1.0716   -1.3970    0.0000 H   0  0  0  0  0  0  0  0  0  0  0  0
   -2.5005   -1.3970    0.0000 H   0  0  0  0  0  0  0  0  0  0  0  0
   -0.1450    0.7024    0.0000 H   0  0  0  0  0  0  0  0  0  0  0  0
   -1.0716    2.3074    0.0000 H   0  0  0  0  0  0  0  0  0  0  0  0
   -0.1449    1.7724    0.0000 H   0  0  0  0  0  0  0  0  0  0  0  0
   -3.2150    1.0700    0.0000 H   0  0  0  0  0  0  0  0  0  0  0  0
   -4.1416   -0.5350    0.0000 H   0  0  0  0  0  0  0  0  0  0  0  0
   -4.1417    0.5350    0.0000 H   0  0  0  0  0  0  0  0  0  0  0  0
  2  1  2  0  0  0  0
  3  2  1  0  0  0  0
  3 15  1  0  0  0  0
  4  2  1  0  0  0  0
  4  5  1  0  0  0  0
  4 16  1  6  0  0  0
  5 17  1  0  0  0  0
  5 18  1  0  0  0  0
  6  4  1  0  0  0  0
  6 19  1  0  0  0  0
  6 20  1  0  0  0  0
  7  6  1  0  0  0  0
  7  8  1  0  0  0  0
  7 21  1  0  0  0  0
  7 22  1  0  0  0  0
  8 23  1  0  0  0  0
  8 24  1  0  0  0  0
  9  8  1  0  0  0  0
  9 25  1  0  0  0  0
 10  9  1  0  0  0  0
 11 10  2  0  0  0  0
 11 13  1  0  0  0  0
 12 10  1  0  0  0  0
 12 14  1  0  0  0  0
 12 26  1  0  0  0  0
 13 27  1  0  0  0  0
 13 28  1  0  0  0  0
 13 29  1  0  0  0  0
 14 30  1  0  0  0  0
 14 31  1  0  0  0  0
 14 32  1  0  0  0  0
M  END
>  <DRUGBANK_ID>
DB02302

>  <SECONDARY_ACCESSION_NUMBERS>
EXPT00132

>  <COMMON_NAME>
Symmetric dimethylarginine

>  <CAS_NUMBER>
30344-00-4

>  <UNII>
49787G1ULV

>  <SYNONYMS>
(S)-2-amino-5-(N',N''-dimethylguanidino)pentanoic acid; Guanidino-N(1),N(2)-dimethylarginine; N(G1),N(G2)-Dimethylarginine; N3,N4-dimethyl-L-arginine; N3,N4-dimethylarginine; NG,N'G-dimethylarginine; SDMA

$$$$
