G1L
 OpenBabel10282417072D

 31 31  0  0  0  0  0  0  0  0999 V2000
   -1.5919   -0.2933    0.0000 F   0  0  0  0  0  0  0  0  0  0  0  0
   -0.7669   -0.2933    0.0000 C   0  0  0  0  0  0  0  0  0  0  0  0
   -0.7669   -1.1183    0.0000 F   0  0  0  0  0  0  0  0  0  0  0  0
   -0.7669    0.5317    0.0000 F   0  0  0  0  0  0  0  0  0  0  0  0
    0.0581   -0.2933    0.0000 C   0  0  0  0  0  0  0  0  0  0  0  0
    0.4706   -1.0077    0.0000 C   0  0  0  0  0  0  0  0  0  0  0  0
    1.2956   -1.0077    0.0000 C   0  0  0  0  0  0  0  0  0  0  0  0
    0.4706    0.4212    0.0000 C   0  0  0  0  0  0  0  0  0  0  0  0
    1.2956    0.4212    0.0000 C   0  0  0  0  0  0  0  0  0  0  0  0
    1.7081   -0.2933    0.0000 C   0  0  0  0  0  0  0  0  0  0  0  0
    2.5331   -0.2933    0.0000 N   0  0  0  0  0  0  0  0  0  0  0  0
    2.9456    0.4212    0.0000 C   0  0  0  0  0  0  0  0  0  0  0  0
    2.5331    1.1357    0.0000 O   0  0  0  0  0  0  0  0  0  0  0  0
    3.7706    0.4212    0.0000 C   0  0  0  0  0  0  0  0  0  0  0  0
    3.7706    1.2462    0.0000 C   0  0  0  0  0  0  0  0  0  0  0  0
    3.7706   -0.4038    0.0000 C   0  0  0  0  0  0  0  0  0  0  0  0
    4.5956    0.4212    0.0000 C   0  0  0  0  0  0  0  0  0  0  0  0
    5.0081    1.1357    0.0000 Cl  0  0  0  0  0  0  0  0  0  0  0  0
   -0.0454   -1.9014    0.0000 H   0  0  0  0  0  0  0  0  0  0  0  0
    1.8116   -1.9014    0.0000 H   0  0  0  0  0  0  0  0  0  0  0  0
   -0.0454    1.3149    0.0000 H   0  0  0  0  0  0  0  0  0  0  0  0
    1.8116    1.3149    0.0000 H   0  0  0  0  0  0  0  0  0  0  0  0
    3.0254   -1.1459    0.0000 H   0  0  0  0  0  0  0  0  0  0  0  0
    4.6972    1.7812    0.0000 H   0  0  0  0  0  0  0  0  0  0  0  0
    2.8440    1.7812    0.0000 H   0  0  0  0  0  0  0  0  0  0  0  0
    3.7706    2.3162    0.0000 H   0  0  0  0  0  0  0  0  0  0  0  0
    2.8440   -0.9388    0.0000 H   0  0  0  0  0  0  0  0  0  0  0  0
    4.6972   -0.9388    0.0000 H   0  0  0  0  0  0  0  0  0  0  0  0
    3.7706   -1.4738    0.0000 H   0  0  0  0  0  0  0  0  0  0  0  0
    5.1306   -0.5054    0.0000 H   0  0  0  0  0  0  0  0  0  0  0  0
    5.6656    0.4212    0.0000 H   0  0  0  0  0  0  0  0  0  0  0  0
  1  2  1  0  0  0  0
  2  3  1  0  0  0  0
  2  5  1  0  0  0  0
  2  4  1  0  0  0  0
  5  8  2  0  0  0  0
  5  6  1  0  0  0  0
  6  7  2  0  0  0  0
  6 19  1  0  0  0  0
  7 10  1  0  0  0  0
  7 20  1  0  0  0  0
  8  9  1  0  0  0  0
  8 21  1  0  0  0  0
  9 10  2  0  0  0  0
  9 22  1  0  0  0  0
 10 11  1  0  0  0  0
 11 12  1  0  0  0  0
 11 23  1  0  0  0  0
 12 14  1  0  0  0  0
 12 13  2  0  0  0  0
 14 16  1  0  0  0  0
 14 15  1  0  0  0  0
 14 17  1  0  0  0  0
 15 24  1  0  0  0  0
 15 25  1  0  0  0  0
 15 26  1  0  0  0  0
 16 27  1  0  0  0  0
 16 28  1  0  0  0  0
 16 29  1  0  0  0  0
 17 18  1  0  0  0  0
 17 30  1  0  0  0  0
 17 31  1  0  0  0  0
M  END
>  <DRUGBANK_ID>
DB07805

>  <COMMON_NAME>
3-CHLORO-2,2-DIMETHYL-N-[4-(TRIFLUOROMETHYL)PHENYL]PROPANAMIDE

>  <UNII>
UHV4C5JZ3C

$$$$
