191
 OpenBabel10282417072D

 26 26  0  0  0  0  0  0  0  0999 V2000
    3.7935    1.3943    0.0000 N   0  0  0  0  0  0  0  0  0  0  0  0
    3.0791    0.9818    0.0000 C   0  0  0  0  0  0  0  0  0  0  0  0
    2.3645    0.5693    0.0000 C   0  0  0  0  0  0  0  0  0  0  0  0
    2.6665    1.6962    0.0000 C   0  0  0  0  0  0  0  0  0  0  0  0
    3.4916    0.2673    0.0000 C   0  0  0  0  0  0  0  0  0  0  0  0
    2.3645   -0.2558    0.0000 C   0  0  0  0  0  0  0  0  0  0  0  0
    3.0791   -0.6683    0.0000 C   0  0  0  0  0  0  0  0  0  0  0  0
    1.6500   -0.6683    0.0000 C   0  0  0  0  0  0  0  0  0  0  0  0
    3.0791   -1.4933    0.0000 C   0  0  0  0  0  0  0  0  0  0  0  0
    1.6500   -1.4933    0.0000 C   0  0  0  0  0  0  0  0  0  0  0  0
    2.3645   -1.9058    0.0000 C   0  0  0  0  0  0  0  0  0  0  0  0
    4.6769    0.8843    0.0000 H   0  0  0  0  0  0  0  0  0  0  0  0
    3.7935    2.4143    0.0000 H   0  0  0  0  0  0  0  0  0  0  0  0
    1.4379    1.1043    0.0000 H   0  0  0  0  0  0  0  0  0  0  0  0
    1.4378    0.0343    0.0000 H   0  0  0  0  0  0  0  0  0  0  0  0
    3.2014    2.6229    0.0000 H   0  0  0  0  0  0  0  0  0  0  0  0
    1.5965    1.6960    0.0000 H   0  0  0  0  0  0  0  0  0  0  0  0
    2.1314    2.6228    0.0000 H   0  0  0  0  0  0  0  0  0  0  0  0
    2.9566   -0.6593    0.0000 H   0  0  0  0  0  0  0  0  0  0  0  0
    4.5616    0.2673    0.0000 H   0  0  0  0  0  0  0  0  0  0  0  0
    4.0266   -0.6594    0.0000 H   0  0  0  0  0  0  0  0  0  0  0  0
    3.9728   -0.1523    0.0000 H   0  0  0  0  0  0  0  0  0  0  0  0
    0.7563   -0.1523    0.0000 H   0  0  0  0  0  0  0  0  0  0  0  0
    3.9728   -2.0093    0.0000 H   0  0  0  0  0  0  0  0  0  0  0  0
    0.7563   -2.0093    0.0000 H   0  0  0  0  0  0  0  0  0  0  0  0
    2.3645   -2.9378    0.0000 H   0  0  0  0  0  0  0  0  0  0  0  0
  1  2  1  0  0  0  0
  1 12  1  0  0  0  0
  1 13  1  0  0  0  0
  2  3  1  0  0  0  0
  2  4  1  0  0  0  0
  2  5  1  0  0  0  0
  3  6  1  0  0  0  0
  3 14  1  0  0  0  0
  3 15  1  0  0  0  0
  4 16  1  0  0  0  0
  4 17  1  0  0  0  0
  4 18  1  0  0  0  0
  5 19  1  0  0  0  0
  5 20  1  0  0  0  0
  5 21  1  0  0  0  0
  6  7  2  0  0  0  0
  6  8  1  0  0  0  0
  7  9  1  0  0  0  0
  7 22  1  0  0  0  0
  8 10  2  0  0  0  0
  8 23  1  0  0  0  0
  9 11  2  0  0  0  0
  9 24  1  0  0  0  0
 10 11  1  0  0  0  0
 10 25  1  0  0  0  0
 11 26  1  0  0  0  0
M  END
>  <DRUGBANK_ID>
DB00191

>  <SECONDARY_ACCESSION_NUMBERS>
APRD00093

>  <COMMON_NAME>
Phentermine

>  <CAS_NUMBER>
122-09-8

>  <UNII>
C045TQL4WP

>  <SYNONYMS>
alpha,alpha-Dimethylphenethylamine; Fentermina; Phentermine; Phentermine resin; Phenterminum

$$$$
