
 OpenBabel10282417072D

136139  0  0  0  0  0  0  0  0999 V2000
    4.2254    1.0299    0.0000 C   0  0  1  0  0  0  0  0  0  0  0  0
    4.2185    1.8922    0.0000 C   0  0  0  0  0  0  0  0  0  0  0  0
    3.5126    0.6029    0.0000 C   0  0  2  0  0  0  0  0  0  0  0  0
    3.4838    2.2678    0.0000 C   0  0  2  0  0  0  0  0  0  0  0  0
    2.7555    1.0160    0.0000 C   0  0  1  0  0  0  0  0  0  0  0  0
    2.7710    1.8409    0.0000 O   0  0  0  0  0  0  0  0  0  0  0  0
    3.4770    3.1303    0.0000 C   0  0  0  0  0  0  0  0  0  0  0  0
    3.4970   -0.2219    0.0000 O   0  0  0  0  0  0  0  0  0  0  0  0
    4.9601    0.6543    0.0000 N   0  0  0  0  0  0  0  0  0  0  0  0
    5.6729    1.0812    0.0000 C   0  0  0  0  0  0  0  0  0  0  0  0
    4.9669   -0.2080    0.0000 C   0  0  0  0  0  0  0  0  0  0  0  0
    2.0420    0.6014    0.0000 O   0  0  0  0  0  0  0  0  0  0  0  0
    0.6864   -0.1419    0.0000 C   0  0  2  0  0  0  0  0  0  0  0  0
   -0.6691   -0.1419    0.0000 C   0  0  0  0  0  0  0  0  0  0  0  0
   -1.3688    1.8259    0.0000 C   0  0  1  0  0  0  0  0  0  0  0  0
   -0.0132   -0.5355    0.0000 C   0  0  2  0  0  0  0  0  0  0  0  0
    1.3423    1.0387    0.0000 C   0  0  2  0  0  0  0  0  0  0  0  0
    0.6864    0.6451    0.0000 C   0  0  1  0  0  0  0  0  0  0  0  0
   -0.6691    2.9629    0.0000 C   0  0  2  0  0  0  0  0  0  0  0  0
   -0.6691    0.6451    0.0000 O   0  0  0  0  0  0  0  0  0  0  0  0
   -0.6691    2.2195    0.0000 C   0  0  1  0  0  0  0  0  0  0  0  0
    0.0304    3.4439    0.0000 C   0  0  2  0  0  0  0  0  0  0  0  0
    1.3423    1.8259    0.0000 C   0  0  1  0  0  0  0  0  0  0  0  0
   -1.3688    1.0387    0.0000 C   0  0  2  0  0  0  0  0  0  0  0  0
    1.3860   -0.5792    0.0000 O   0  0  0  0  0  0  0  0  0  0  0  0
    0.6864    2.9629    0.0000 C   0  0  1  0  0  0  0  0  0  0  0  0
    0.6864    2.2195    0.0000 C   0  0  0  0  0  0  0  0  0  0  0  0
   -1.3688   -0.5792    0.0000 O   0  0  0  0  0  0  0  0  0  0  0  0
   -2.0314    2.2432    0.0000 O   0  0  0  0  0  0  0  0  0  0  0  0
    1.3423    2.6131    0.0000 O   0  0  0  0  0  0  0  0  0  0  0  0
   -2.0841    1.5017    0.0000 C   0  0  0  0  0  0  0  0  0  0  0  0
   -0.0132   -1.3226    0.0000 C   0  0  0  0  0  0  0  0  0  0  0  0
   -0.0132    1.0387    0.0000 C   0  0  0  0  0  0  0  0  0  0  0  0
    2.0361    2.2254    0.0000 C   0  0  0  0  0  0  0  0  0  0  0  0
   -2.0248    0.6014    0.0000 C   0  0  0  0  0  0  0  0  0  0  0  0
    1.3860    3.4002    0.0000 C   0  0  0  0  0  0  0  0  0  0  0  0
    1.3860   -1.4042    0.0000 C   0  0  1  0  0  0  0  0  0  0  0  0
    0.6715   -1.8169    0.0000 C   0  0  0  0  0  0  0  0  0  0  0  0
    2.1007   -1.8169    0.0000 O   0  0  0  0  0  0  0  0  0  0  0  0
    2.1007   -2.6419    0.0000 C   0  0  2  0  0  0  0  0  0  0  0  0
    1.3860   -3.0545    0.0000 C   0  0  2  0  0  0  0  0  0  0  0  0
    2.8152   -3.0545    0.0000 C   0  0  0  0  0  0  0  0  0  0  0  0
    1.3860   -3.8796    0.0000 O   0  0  0  0  0  0  0  0  0  0  0  0
    0.6715   -2.6419    0.0000 C   0  0  2  0  0  0  0  0  0  0  0  0
    0.6715   -3.4671    0.0000 O   0  0  0  0  0  0  0  0  0  0  0  0
   -0.0430   -3.8796    0.0000 C   0  0  0  0  0  0  0  0  0  0  0  0
   -0.0429   -3.0545    0.0000 C   0  0  0  0  0  0  0  0  0  0  0  0
   -2.7522    0.9908    0.0000 C   0  0  0  0  0  0  0  0  0  0  0  0
   -1.3854    2.6340    0.0000 O   0  0  0  0  0  0  0  0  0  0  0  0
   -0.6896    3.8567    0.0000 N   0  0  0  0  0  0  0  0  0  0  0  0
    0.0459    2.5445    0.0000 C   0  0  0  0  0  0  0  0  0  0  0  0
   -1.3854    3.4590    0.0000 C   0  0  1  0  0  0  0  0  0  0  0  0
   -2.0991    3.8732    0.0000 C   0  0  0  0  0  0  0  0  0  0  0  0
   -2.8146    3.4623    0.0000 O   0  0  0  0  0  0  0  0  0  0  0  0
   -3.5281    3.8764    0.0000 C   0  0  0  0  0  0  0  0  0  0  0  0
   -4.2438    3.4655    0.0000 C   0  0  0  0  0  0  0  0  0  0  0  0
   -4.9573    3.8796    0.0000 O   0  0  0  0  0  0  0  0  0  0  0  0
   -5.6729    3.4687    0.0000 C   0  0  0  0  0  0  0  0  0  0  0  0
    5.1359    1.5920    0.0000 H   0  0  0  0  0  0  0  0  0  0  0  0
    5.1290    2.4543    0.0000 H   0  0  0  0  0  0  0  0  0  0  0  0
    4.1754    2.9613    0.0000 H   0  0  0  0  0  0  0  0  0  0  0  0
    4.4385    0.0666    0.0000 H   0  0  0  0  0  0  0  0  0  0  0  0
    4.3943    2.8299    0.0000 H   0  0  0  0  0  0  0  0  0  0  0  0
    2.7699   -0.0539    0.0000 H   0  0  0  0  0  0  0  0  0  0  0  0
    4.3994    3.6726    0.0000 H   0  0  0  0  0  0  0  0  0  0  0  0
    2.5462    3.6580    0.0000 H   0  0  0  0  0  0  0  0  0  0  0  0
    3.4686    4.2003    0.0000 H   0  0  0  0  0  0  0  0  0  0  0  0
    2.6479   -0.6909    0.0000 H   0  0  0  0  0  0  0  0  0  0  0  0
    6.6080    0.5611    0.0000 H   0  0  0  0  0  0  0  0  0  0  0  0
    5.6558    2.1511    0.0000 H   0  0  0  0  0  0  0  0  0  0  0  0
    6.5909    1.6310    0.0000 H   0  0  0  0  0  0  0  0  0  0  0  0
    4.0445   -0.7503    0.0000 H   0  0  0  0  0  0  0  0  0  0  0  0
    5.8977   -0.7357    0.0000 H   0  0  0  0  0  0  0  0  0  0  0  0
    4.9753   -1.2780    0.0000 H   0  0  0  0  0  0  0  0  0  0  0  0
    1.6223    0.3768    0.0000 H   0  0  0  0  0  0  0  0  0  0  0  0
    0.9105   -1.0756    0.0000 H   0  0  0  0  0  0  0  0  0  0  0  0
    1.3326   -0.0313    0.0000 H   0  0  0  0  0  0  0  0  0  0  0  0
   -0.2373    0.1050    0.0000 H   0  0  0  0  0  0  0  0  0  0  0  0
    0.4002    3.0019    0.0000 H   0  0  0  0  0  0  0  0  0  0  0  0
   -1.7391    2.2260    0.0000 H   0  0  0  0  0  0  0  0  0  0  0  0
   -1.0387    3.4002    0.0000 H   0  0  0  0  0  0  0  0  0  0  0  0
   -2.3122    1.5436    0.0000 H   0  0  0  0  0  0  0  0  0  0  0  0
    0.7260    4.0322    0.0000 H   0  0  0  0  0  0  0  0  0  0  0  0
   -0.2447    1.6923    0.0000 H   0  0  0  0  0  0  0  0  0  0  0  0
   -0.2380    2.7584    0.0000 H   0  0  0  0  0  0  0  0  0  0  0  0
   -1.9941    3.2125    0.0000 H   0  0  0  0  0  0  0  0  0  0  0  0
    2.1823    3.0981    0.0000 H   0  0  0  0  0  0  0  0  0  0  0  0
   -2.9539    2.1248    0.0000 H   0  0  0  0  0  0  0  0  0  0  0  0
   -2.1889    0.4368    0.0000 H   0  0  0  0  0  0  0  0  0  0  0  0
   -3.0587    1.0600    0.0000 H   0  0  0  0  0  0  0  0  0  0  0  0
   -0.9398   -1.8576    0.0000 H   0  0  0  0  0  0  0  0  0  0  0  0
    0.9134   -1.8576    0.0000 H   0  0  0  0  0  0  0  0  0  0  0  0
   -0.0132   -2.3926    0.0000 H   0  0  0  0  0  0  0  0  0  0  0  0
   -0.0251    2.1086    0.0000 H   0  0  0  0  0  0  0  0  0  0  0  0
   -0.9338    0.4934    0.0000 H   0  0  0  0  0  0  0  0  0  0  0  0
   -0.9457    1.5634    0.0000 H   0  0  0  0  0  0  0  0  0  0  0  0
    2.9621    1.6893    0.0000 H   0  0  0  0  0  0  0  0  0  0  0  0
    2.0373    3.2954    0.0000 H   0  0  0  0  0  0  0  0  0  0  0  0
    2.9634    2.7593    0.0000 H   0  0  0  0  0  0  0  0  0  0  0  0
   -1.9732   -0.4674    0.0000 H   0  0  0  0  0  0  0  0  0  0  0  0
   -2.9292    0.0296    0.0000 H   0  0  0  0  0  0  0  0  0  0  0  0
    2.3308    2.8980    0.0000 H   0  0  0  0  0  0  0  0  0  0  0  0
    1.3485    4.4695    0.0000 H   0  0  0  0  0  0  0  0  0  0  0  0
    2.2933    3.9673    0.0000 H   0  0  0  0  0  0  0  0  0  0  0  0
    0.4593   -0.8693    0.0000 H   0  0  0  0  0  0  0  0  0  0  0  0
   -0.2552   -1.2820    0.0000 H   0  0  0  0  0  0  0  0  0  0  0  0
   -0.2551   -2.3519    0.0000 H   0  0  0  0  0  0  0  0  0  0  0  0
    3.0274   -2.1069    0.0000 H   0  0  0  0  0  0  0  0  0  0  0  0
    2.3126   -3.5895    0.0000 H   0  0  0  0  0  0  0  0  0  0  0  0
    2.8151   -4.1245    0.0000 H   0  0  0  0  0  0  0  0  0  0  0  0
    3.7419   -2.5196    0.0000 H   0  0  0  0  0  0  0  0  0  0  0  0
    3.7418   -3.5896    0.0000 H   0  0  0  0  0  0  0  0  0  0  0  0
    0.5460   -4.3646    0.0000 H   0  0  0  0  0  0  0  0  0  0  0  0
   -0.9696   -3.3446    0.0000 H   0  0  0  0  0  0  0  0  0  0  0  0
   -0.0430   -4.9496    0.0000 H   0  0  0  0  0  0  0  0  0  0  0  0
   -0.9697   -4.4146    0.0000 H   0  0  0  0  0  0  0  0  0  0  0  0
   -0.9696   -2.5196    0.0000 H   0  0  0  0  0  0  0  0  0  0  0  0
   -0.0427   -4.1245    0.0000 H   0  0  0  0  0  0  0  0  0  0  0  0
   -0.9695   -3.5896    0.0000 H   0  0  0  0  0  0  0  0  0  0  0  0
   -2.7865    2.0602    0.0000 H   0  0  0  0  0  0  0  0  0  0  0  0
   -3.6612    0.4263    0.0000 H   0  0  0  0  0  0  0  0  0  0  0  0
   -3.6955    1.4958    0.0000 H   0  0  0  0  0  0  0  0  0  0  0  0
   -0.6889    4.8767    0.0000 H   0  0  0  0  0  0  0  0  0  0  0  0
    0.0396    1.4745    0.0000 H   0  0  0  0  0  0  0  0  0  0  0  0
    0.9757    3.0741    0.0000 H   0  0  0  0  0  0  0  0  0  0  0  0
    0.9694    2.0041    0.0000 H   0  0  0  0  0  0  0  0  0  0  0  0
   -2.3126    2.9250    0.0000 H   0  0  0  0  0  0  0  0  0  0  0  0
   -2.0967    4.9432    0.0000 H   0  0  0  0  0  0  0  0  0  0  0  0
   -3.0245    4.4103    0.0000 H   0  0  0  0  0  0  0  0  0  0  0  0
   -3.5256    4.9464    0.0000 H   0  0  0  0  0  0  0  0  0  0  0  0
   -4.4535    4.4136    0.0000 H   0  0  0  0  0  0  0  0  0  0  0  0
   -4.2463    2.3955    0.0000 H   0  0  0  0  0  0  0  0  0  0  0  0
   -5.1717    2.9326    0.0000 H   0  0  0  0  0  0  0  0  0  0  0  0
   -6.5983    4.0059    0.0000 H   0  0  0  0  0  0  0  0  0  0  0  0
   -5.6754    2.3987    0.0000 H   0  0  0  0  0  0  0  0  0  0  0  0
   -6.6008    2.9359    0.0000 H   0  0  0  0  0  0  0  0  0  0  0  0
  1  9  1  0  0  0  0
  1 59  1  1  0  0  0
  2  1  1  0  0  0  0
  2 60  1  0  0  0  0
  2 61  1  0  0  0  0
  3  1  1  0  0  0  0
  3  8  1  0  0  0  0
  3 62  1  6  0  0  0
  4  2  1  0  0  0  0
  4  7  1  0  0  0  0
  4 63  1  1  0  0  0
  5  3  1  0  0  0  0
  5 12  1  0  0  0  0
  5 64  1  1  0  0  0
  6  4  1  0  0  0  0
  6  5  1  0  0  0  0
  7 65  1  0  0  0  0
  7 66  1  0  0  0  0
  7 67  1  0  0  0  0
  8 68  1  0  0  0  0
 10  9  1  0  0  0  0
 10 69  1  0  0  0  0
 10 70  1  0  0  0  0
 10 71  1  0  0  0  0
 11  9  1  0  0  0  0
 11 72  1  0  0  0  0
 11 73  1  0  0  0  0
 11 74  1  0  0  0  0
 13 25  1  0  0  0  0
 13 75  1  1  0  0  0
 15 29  1  1  0  0  0
 15 31  1  0  0  0  0
 16 13  1  0  0  0  0
 16 14  1  0  0  0  0
 16 32  1  0  0  0  0
 16 76  1  6  0  0  0
 17 12  1  0  0  0  0
 17 77  1  1  0  0  0
 18 13  1  0  0  0  0
 18 17  1  0  0  0  0
 18 33  1  0  0  0  0
 18 78  1  1  0  0  0
 19 51  1  0  0  0  0
 19 79  1  1  0  0  0
 20 14  1  0  0  0  0
 21 15  1  0  0  0  0
 21 19  1  0  0  0  0
 21 49  1  0  0  0  0
 21 80  1  1  0  0  0
 22 19  1  0  0  0  0
 22 50  1  0  0  0  0
 22 81  1  6  0  0  0
 23 17  1  0  0  0  0
 23 30  1  1  0  0  0
 23 34  1  0  0  0  0
 24 15  1  0  0  0  0
 24 20  1  0  0  0  0
 24 35  1  0  0  0  0
 24 82  1  1  0  0  0
 26 22  1  0  0  0  0
 26 36  1  0  0  0  0
 26 83  1  1  0  0  0
 27 23  1  0  0  0  0
 27 26  1  0  0  0  0
 27 84  1  0  0  0  0
 27 85  1  0  0  0  0
 28 14  2  0  0  0  0
 29 86  1  0  0  0  0
 30 87  1  0  0  0  0
 31 88  1  0  0  0  0
 31 89  1  0  0  0  0
 31 90  1  0  0  0  0
 32 91  1  0  0  0  0
 32 92  1  0  0  0  0
 32 93  1  0  0  0  0
 33 94  1  0  0  0  0
 33 95  1  0  0  0  0
 33 96  1  0  0  0  0
 34 97  1  0  0  0  0
 34 98  1  0  0  0  0
 34 99  1  0  0  0  0
 35 48  1  0  0  0  0
 35100  1  0  0  0  0
 35101  1  0  0  0  0
 36102  1  0  0  0  0
 36103  1  0  0  0  0
 36104  1  0  0  0  0
 37 25  1  0  0  0  0
 37 38  1  0  0  0  0
 37 39  1  0  0  0  0
 37105  1  1  0  0  0
 38 44  1  0  0  0  0
 38106  1  0  0  0  0
 38107  1  0  0  0  0
 39 40  1  0  0  0  0
 40 42  1  0  0  0  0
 40 41  1  0  0  0  0
 40108  1  6  0  0  0
 41 43  1  0  0  0  0
 41109  1  1  0  0  0
 42110  1  0  0  0  0
 42111  1  0  0  0  0
 42112  1  0  0  0  0
 43113  1  0  0  0  0
 44 41  1  0  0  0  0
 44 45  1  6  0  0  0
 44 47  1  0  0  0  0
 45 46  1  0  0  0  0
 46114  1  0  0  0  0
 46115  1  0  0  0  0
 46116  1  0  0  0  0
 47117  1  0  0  0  0
 47118  1  0  0  0  0
 47119  1  0  0  0  0
 48120  1  0  0  0  0
 48121  1  0  0  0  0
 48122  1  0  0  0  0
 49 52  1  0  0  0  0
 50123  1  0  0  0  0
 51124  1  0  0  0  0
 51125  1  0  0  0  0
 51126  1  0  0  0  0
 52 50  1  0  0  0  0
 52 53  1  0  0  0  0
 52127  1  1  0  0  0
 53 54  1  0  0  0  0
 53128  1  0  0  0  0
 53129  1  0  0  0  0
 54 55  1  0  0  0  0
 55 56  1  0  0  0  0
 55130  1  0  0  0  0
 55131  1  0  0  0  0
 56 57  1  0  0  0  0
 56132  1  0  0  0  0
 56133  1  0  0  0  0
 57 58  1  0  0  0  0
 58134  1  0  0  0  0
 58135  1  0  0  0  0
 58136  1  0  0  0  0
M  END
>  <DRUGBANK_ID>
DB00954

>  <SECONDARY_ACCESSION_NUMBERS>
APRD00931

>  <COMMON_NAME>
Dirithromycin

>  <CAS_NUMBER>
62013-04-1

>  <UNII>
1801D76STL

>  <SYNONYMS>
(9S)-9-deoxo-11-deoxy-9,11-(imino((1R)-2-(2-methoxyethoxy)ethylidene)oxy)erythromycin; Dirithromycin; Dirithromycine; Dirithromycinum; Diritromicina

$$$$
