827
 OpenBabel10282417072D

 29 31  0  0  0  0  0  0  0  0999 V2000
    7.2157   -0.4535    0.0000 O   0  0  0  0  0  0  0  0  0  0  0  0
    7.2157    0.8743    0.0000 O   0  0  0  0  0  0  0  0  0  0  0  0
    4.2780    1.8890    0.0000 O   0  0  0  0  0  0  0  0  0  0  0  0
    2.0920    0.6456    0.0000 O   0  0  0  0  0  0  0  0  0  0  0  0
    2.8112    1.8803    0.0000 O   0  0  0  0  0  0  0  0  0  0  0  0
    4.2685   -0.6433    0.0000 N   0  0  0  0  0  0  0  0  0  0  0  0
    3.5210   -0.2193    0.0000 N   0  0  0  0  0  0  0  0  0  0  0  0
    5.0060   -0.2021    0.0000 C   0  0  0  0  0  0  0  0  0  0  0  0
    5.0060    0.6229    0.0000 C   0  0  0  0  0  0  0  0  0  0  0  0
    6.4350   -0.2021    0.0000 C   0  0  0  0  0  0  0  0  0  0  0  0
    5.7205   -0.6146    0.0000 C   0  0  0  0  0  0  0  0  0  0  0  0
    6.4350    0.6229    0.0000 C   0  0  0  0  0  0  0  0  0  0  0  0
    5.7205    1.0354    0.0000 C   0  0  0  0  0  0  0  0  0  0  0  0
    4.2780   -1.4682    0.0000 C   0  0  0  0  0  0  0  0  0  0  0  0
    4.2685    1.0640    0.0000 C   0  0  0  0  0  0  0  0  0  0  0  0
    3.5210    0.6400    0.0000 C   0  0  0  0  0  0  0  0  0  0  0  0
    7.6972    0.2104    0.0000 C   0  0  0  0  0  0  0  0  0  0  0  0
    3.5684   -1.8890    0.0000 C   0  0  0  0  0  0  0  0  0  0  0  0
    2.8081    1.0553    0.0000 C   0  0  0  0  0  0  0  0  0  0  0  0
    1.2824    1.1173    0.0000 H   0  0  0  0  0  0  0  0  0  0  0  0
    5.7205   -1.6466    0.0000 H   0  0  0  0  0  0  0  0  0  0  0  0
    5.7205    2.0674    0.0000 H   0  0  0  0  0  0  0  0  0  0  0  0
    5.2108   -1.9924    0.0000 H   0  0  0  0  0  0  0  0  0  0  0  0
    4.2904   -2.5381    0.0000 H   0  0  0  0  0  0  0  0  0  0  0  0
    8.7672    0.2104    0.0000 H   0  0  0  0  0  0  0  0  0  0  0  0
    8.1834    1.1636    0.0000 H   0  0  0  0  0  0  0  0  0  0  0  0
    2.6356   -1.3648    0.0000 H   0  0  0  0  0  0  0  0  0  0  0  0
    3.5809   -2.9589    0.0000 H   0  0  0  0  0  0  0  0  0  0  0  0
    2.6481   -2.4348    0.0000 H   0  0  0  0  0  0  0  0  0  0  0  0
  1 10  1  0  0  0  0
  1 17  1  0  0  0  0
  2 12  1  0  0  0  0
  2 17  1  0  0  0  0
  3 15  2  0  0  0  0
  4 19  1  0  0  0  0
  4 20  1  0  0  0  0
  5 19  2  0  0  0  0
  6  7  1  0  0  0  0
  6  8  1  0  0  0  0
  6 14  1  0  0  0  0
  7 16  2  0  0  0  0
  8  9  1  0  0  0  0
  8 11  2  0  0  0  0
  9 13  2  0  0  0  0
  9 15  1  0  0  0  0
 10 11  1  0  0  0  0
 10 12  2  0  0  0  0
 11 21  1  0  0  0  0
 12 13  1  0  0  0  0
 13 22  1  0  0  0  0
 14 18  1  0  0  0  0
 14 23  1  0  0  0  0
 14 24  1  0  0  0  0
 15 16  1  0  0  0  0
 16 19  1  0  0  0  0
 17 25  1  0  0  0  0
 17 26  1  0  0  0  0
 18 27  1  0  0  0  0
 18 28  1  0  0  0  0
 18 29  1  0  0  0  0
M  END
>  <DRUGBANK_ID>
DB00827

>  <SECONDARY_ACCESSION_NUMBERS>
APRD00873

>  <COMMON_NAME>
Cinoxacin

>  <CAS_NUMBER>
28657-80-9

>  <UNII>
LMK22VUH23

>  <SYNONYMS>
1-ethyl-6,7-methylenedioxy-4(1H)-oxocinnoline-3-carboxylic acid; 5-Ethyl-8-oxo-5,8-dihydro-1,3-dioxa-5,6-diaza-cyclopenta[b]naphthalene-7-carboxylic acid; Cinoxacin; Cinoxacine; Cinoxacino; Cinoxacinum

$$$$
