
 OpenBabel10282417072D

 43 44  0  0  0  0  0  0  0  0999 V2000
   -0.0000    9.6536    0.0000 C   0  0  0  0  0  0  0  0  0  0  0  0
   -0.0000    8.8286    0.0000 N   0  0  0  0  0  0  0  0  0  0  0  0
   -0.7145    8.4161    0.0000 C   0  0  0  0  0  0  0  0  0  0  0  0
    0.7145    8.4161    0.0000 C   0  0  0  0  0  0  0  0  0  0  0  0
    0.7145    7.5911    0.0000 C   0  0  0  0  0  0  0  0  0  0  0  0
    1.4289    7.1786    0.0000 C   0  0  0  0  0  0  0  0  0  0  0  0
    1.4289    6.3536    0.0000 C   0  0  0  0  0  0  0  0  0  0  0  0
    0.7145    5.9411    0.0000 C   0  0  0  0  0  0  0  0  0  0  0  0
   -0.0000    6.3536    0.0000 C   0  0  0  0  0  0  0  0  0  0  0  0
   -0.0000    7.1786    0.0000 C   0  0  0  0  0  0  0  0  0  0  0  0
    0.7145    5.1161    0.0000 S   0  0  0  0  0  0  0  0  0  0  0  0
   -0.1105    5.1161    0.0000 O   0  0  0  0  0  0  0  0  0  0  0  0
    1.5395    5.1161    0.0000 O   0  0  0  0  0  0  0  0  0  0  0  0
    0.7145    4.2911    0.0000 N   0  0  0  0  0  0  0  0  0  0  0  0
    1.3819    3.8062    0.0000 C   0  0  0  0  0  0  0  0  0  0  0  0
    1.1270    3.0215    0.0000 C   0  0  0  0  0  0  0  0  0  0  0  0
    0.3020    3.0215    0.0000 C   0  0  0  0  0  0  0  0  0  0  0  0
    0.0470    3.8062    0.0000 C   0  0  0  0  0  0  0  0  0  0  0  0
   -0.1830    2.3541    0.0000 C   0  0  0  0  0  0  0  0  0  0  0  0
   -1.0034    2.4403    0.0000 C   0  0  0  0  0  0  0  0  0  0  0  0
   -1.4884    1.7729    0.0000 C   0  0  0  0  0  0  0  0  0  0  0  0
   -1.1528    1.0192    0.0000 O   0  0  0  0  0  0  0  0  0  0  0  0
   -2.3088    1.8591    0.0000 N   0  0  0  0  0  0  0  0  0  0  0  0
   -2.7938    1.1917    0.0000 O   0  0  0  0  0  0  0  0  0  0  0  0
    0.9266   10.1886    0.0000 H   0  0  0  0  0  0  0  0  0  0  0  0
   -0.9266   10.1886    0.0000 H   0  0  0  0  0  0  0  0  0  0  0  0
   -0.0000   10.7236    0.0000 H   0  0  0  0  0  0  0  0  0  0  0  0
   -1.6411    8.9511    0.0000 H   0  0  0  0  0  0  0  0  0  0  0  0
   -0.7145    7.3461    0.0000 H   0  0  0  0  0  0  0  0  0  0  0  0
   -1.6412    7.8811    0.0000 H   0  0  0  0  0  0  0  0  0  0  0  0
    1.6411    8.9511    0.0000 H   0  0  0  0  0  0  0  0  0  0  0  0
    1.6411    7.8811    0.0000 H   0  0  0  0  0  0  0  0  0  0  0  0
    2.3226    7.6946    0.0000 H   0  0  0  0  0  0  0  0  0  0  0  0
    2.3226    5.8376    0.0000 H   0  0  0  0  0  0  0  0  0  0  0  0
   -0.8937    5.8376    0.0000 H   0  0  0  0  0  0  0  0  0  0  0  0
   -0.8937    7.6946    0.0000 H   0  0  0  0  0  0  0  0  0  0  0  0
    2.3634    4.1251    0.0000 H   0  0  0  0  0  0  0  0  0  0  0  0
    1.7336    2.1866    0.0000 H   0  0  0  0  0  0  0  0  0  0  0  0
   -0.9345    4.1251    0.0000 H   0  0  0  0  0  0  0  0  0  0  0  0
    0.2367    1.4113    0.0000 H   0  0  0  0  0  0  0  0  0  0  0  0
   -1.4231    3.3831    0.0000 H   0  0  0  0  0  0  0  0  0  0  0  0
   -2.7092    2.7585    0.0000 H   0  0  0  0  0  0  0  0  0  0  0  0
   -3.7585    1.2932    0.0000 H   0  0  0  0  0  0  0  0  0  0  0  0
  1  2  1  0  0  0  0
  1 25  1  0  0  0  0
  1 26  1  0  0  0  0
  1 27  1  0  0  0  0
  2  3  1  0  0  0  0
  2  4  1  0  0  0  0
  3 28  1  0  0  0  0
  3 29  1  0  0  0  0
  3 30  1  0  0  0  0
  4  5  1  0  0  0  0
  4 31  1  0  0  0  0
  4 32  1  0  0  0  0
  5  6  2  0  0  0  0
  5 10  1  0  0  0  0
  6  7  1  0  0  0  0
  6 33  1  0  0  0  0
  7  8  2  0  0  0  0
  7 34  1  0  0  0  0
  8  9  1  0  0  0  0
  8 11  1  0  0  0  0
  9 10  2  0  0  0  0
  9 35  1  0  0  0  0
 10 36  1  0  0  0  0
 11 12  2  0  0  0  0
 11 13  2  0  0  0  0
 11 14  1  0  0  0  0
 14 15  1  0  0  0  0
 14 18  1  0  0  0  0
 15 16  2  0  0  0  0
 15 37  1  0  0  0  0
 16 17  1  0  0  0  0
 16 38  1  0  0  0  0
 17 18  2  0  0  0  0
 17 19  1  0  0  0  0
 18 39  1  0  0  0  0
 19 20  2  0  0  0  0
 19 40  1  0  0  0  0
 20 21  1  0  0  0  0
 20 41  1  0  0  0  0
 21 22  2  0  0  0  0
 21 23  1  0  0  0  0
 23 24  1  0  0  0  0
 23 42  1  0  0  0  0
 24 43  1  0  0  0  0
M  END
>  <DRUGBANK_ID>
DB12392

>  <COMMON_NAME>
Resminostat

>  <CAS_NUMBER>
864814-88-0

>  <UNII>
1578EUB98L

>  <SYNONYMS>
Resminostat

$$$$
