PU9
 OpenBabel10282417072D

 51 53  0  0  0  0  0  0  0  0999 V2000
    0.2648   -2.1853    0.0000 Cl  0  0  0  0  0  0  0  0  0  0  0  0
   -0.3483   -1.6333    0.0000 C   0  0  0  0  0  0  0  0  0  0  0  0
   -1.1330   -1.8882    0.0000 C   0  0  0  0  0  0  0  0  0  0  0  0
   -1.3045   -2.6952    0.0000 O   0  0  0  0  0  0  0  0  0  0  0  0
   -2.0891   -2.9501    0.0000 C   0  0  0  0  0  0  0  0  0  0  0  0
   -1.7461   -1.3362    0.0000 C   0  0  0  0  0  0  0  0  0  0  0  0
   -2.5307   -1.5911    0.0000 O   0  0  0  0  0  0  0  0  0  0  0  0
   -3.1438   -1.0391    0.0000 C   0  0  0  0  0  0  0  0  0  0  0  0
   -1.5745   -0.5292    0.0000 C   0  0  0  0  0  0  0  0  0  0  0  0
   -2.1876    0.0228    0.0000 O   0  0  0  0  0  0  0  0  0  0  0  0
   -2.0161    0.8298    0.0000 C   0  0  0  0  0  0  0  0  0  0  0  0
   -0.7899   -0.2743    0.0000 C   0  0  0  0  0  0  0  0  0  0  0  0
   -0.1768   -0.8263    0.0000 C   0  0  0  0  0  0  0  0  0  0  0  0
    0.6078   -0.5714    0.0000 C   0  0  0  0  0  0  0  0  0  0  0  0
    0.7793    0.2356    0.0000 C   0  0  0  0  0  0  0  0  0  0  0  0
    0.2273    0.8487    0.0000 N   0  0  0  0  0  0  0  0  0  0  0  0
    0.6398    1.5632    0.0000 C   0  0  0  0  0  0  0  0  0  0  0  0
    0.3849    2.3478    0.0000 C   0  0  0  0  0  0  0  0  0  0  0  0
   -0.4221    2.5193    0.0000 N   0  0  0  0  0  0  0  0  0  0  0  0
    1.4468    1.3916    0.0000 C   0  0  0  0  0  0  0  0  0  0  0  0
    1.9988    2.0047    0.0000 N   0  0  0  0  0  0  0  0  0  0  0  0
    1.7439    2.7894    0.0000 C   0  0  0  0  0  0  0  0  0  0  0  0
    0.9369    2.9609    0.0000 N   0  0  0  0  0  0  0  0  0  0  0  0
    1.5330    0.5712    0.0000 N   0  0  0  0  0  0  0  0  0  0  0  0
    2.2475    0.1587    0.0000 C   0  0  0  0  0  0  0  0  0  0  0  0
    2.9619    0.5712    0.0000 C   0  0  0  0  0  0  0  0  0  0  0  0
    3.6764    0.1587    0.0000 C   0  0  0  0  0  0  0  0  0  0  0  0
    4.3909    0.5712    0.0000 C   0  0  0  0  0  0  0  0  0  0  0  0
    5.1054    0.9837    0.0000 C   0  0  0  0  0  0  0  0  0  0  0  0
   -2.8842   -2.2341    0.0000 H   0  0  0  0  0  0  0  0  0  0  0  0
   -2.3116   -3.9967    0.0000 H   0  0  0  0  0  0  0  0  0  0  0  0
   -3.1067   -3.2807    0.0000 H   0  0  0  0  0  0  0  0  0  0  0  0
   -2.9214    0.0075    0.0000 H   0  0  0  0  0  0  0  0  0  0  0  0
   -4.1614   -1.3698    0.0000 H   0  0  0  0  0  0  0  0  0  0  0  0
   -3.9390   -0.3232    0.0000 H   0  0  0  0  0  0  0  0  0  0  0  0
   -0.9985    1.1605    0.0000 H   0  0  0  0  0  0  0  0  0  0  0  0
   -2.8113    1.5457    0.0000 H   0  0  0  0  0  0  0  0  0  0  0  0
   -1.7937    1.8764    0.0000 H   0  0  0  0  0  0  0  0  0  0  0  0
   -0.5753    0.7351    0.0000 H   0  0  0  0  0  0  0  0  0  0  0  0
    1.4030   -1.2874    0.0000 H   0  0  0  0  0  0  0  0  0  0  0  0
    1.6254   -0.2407    0.0000 H   0  0  0  0  0  0  0  0  0  0  0  0
   -0.7264    3.4556    0.0000 H   0  0  0  0  0  0  0  0  0  0  0  0
   -1.0808    1.7876    0.0000 H   0  0  0  0  0  0  0  0  0  0  0  0
    2.4345    3.5563    0.0000 H   0  0  0  0  0  0  0  0  0  0  0  0
    2.2475   -0.9113    0.0000 H   0  0  0  0  0  0  0  0  0  0  0  0
    3.1742   -0.3763    0.0000 H   0  0  0  0  0  0  0  0  0  0  0  0
    2.9619    1.6412    0.0000 H   0  0  0  0  0  0  0  0  0  0  0  0
    3.8885    1.1062    0.0000 H   0  0  0  0  0  0  0  0  0  0  0  0
    3.6764   -0.9113    0.0000 H   0  0  0  0  0  0  0  0  0  0  0  0
    4.6030   -0.3763    0.0000 H   0  0  0  0  0  0  0  0  0  0  0  0
    5.9662    1.4807    0.0000 H   0  0  0  0  0  0  0  0  0  0  0  0
  1  2  1  0  0  0  0
  2  3  2  0  0  0  0
  2 13  1  0  0  0  0
  3  4  1  0  0  0  0
  3  6  1  0  0  0  0
  4  5  1  0  0  0  0
  5 30  1  0  0  0  0
  5 31  1  0  0  0  0
  5 32  1  0  0  0  0
  6  7  1  0  0  0  0
  6  9  2  0  0  0  0
  7  8  1  0  0  0  0
  8 33  1  0  0  0  0
  8 34  1  0  0  0  0
  8 35  1  0  0  0  0
  9 10  1  0  0  0  0
  9 12  1  0  0  0  0
 10 11  1  0  0  0  0
 11 36  1  0  0  0  0
 11 37  1  0  0  0  0
 11 38  1  0  0  0  0
 12 13  2  0  0  0  0
 12 39  1  0  0  0  0
 13 14  1  0  0  0  0
 14 15  1  0  0  0  0
 14 40  1  0  0  0  0
 14 41  1  0  0  0  0
 15 16  2  0  0  0  0
 15 24  1  0  0  0  0
 16 17  1  0  0  0  0
 17 18  2  0  0  0  0
 17 20  1  0  0  0  0
 18 19  1  0  0  0  0
 18 23  1  0  0  0  0
 19 42  1  0  0  0  0
 19 43  1  0  0  0  0
 20 21  2  0  0  0  0
 20 24  1  0  0  0  0
 21 22  1  0  0  0  0
 22 23  2  0  0  0  0
 22 44  1  0  0  0  0
 24 25  1  0  0  0  0
 25 26  1  0  0  0  0
 25 45  1  0  0  0  0
 25 46  1  0  0  0  0
 26 27  1  0  0  0  0
 26 47  1  0  0  0  0
 26 48  1  0  0  0  0
 27 28  1  0  0  0  0
 27 49  1  0  0  0  0
 27 50  1  0  0  0  0
 28 29  3  0  0  0  0
 29 51  1  0  0  0  0
M  END
>  <DRUGBANK_ID>
DB04505

>  <SECONDARY_ACCESSION_NUMBERS>
EXPT02699

>  <COMMON_NAME>
8-(2-Chloro-3,4,5-Trimethoxy-Benzyl)-9-Pent-4-Ylnyl-9h-Purin-6-Ylamine

$$$$
