
 OpenBabel10282417072D

 16 15  0  0  0  0  0  0  0  0999 V2000
    0.4125    0.2062    0.0000 C   0  0  0  0  0  0  0  0  0  0  0  0
    1.1270   -0.2062    0.0000 O   0  0  0  0  0  0  0  0  0  0  0  0
    0.4125    1.0313    0.0000 O   0  0  0  0  0  0  0  0  0  0  0  0
   -0.3019   -0.2062    0.0000 C   0  0  0  0  0  0  0  0  0  0  0  0
   -0.3019   -1.0313    0.0000 N   0  0  0  0  0  0  0  0  0  0  0  0
   -1.1270   -0.2062    0.0000 C   0  0  0  0  0  0  0  0  0  0  0  0
   -0.7145    0.5082    0.0000 C   0  0  0  0  0  0  0  0  0  0  0  0
    1.1271   -1.1432    0.0000 H   0  0  0  0  0  0  0  0  0  0  0  0
   -1.1852   -1.5413    0.0000 H   0  0  0  0  0  0  0  0  0  0  0  0
    0.5814   -1.5413    0.0000 H   0  0  0  0  0  0  0  0  0  0  0  0
   -1.6620    0.7204    0.0000 H   0  0  0  0  0  0  0  0  0  0  0  0
   -1.6620   -1.1328    0.0000 H   0  0  0  0  0  0  0  0  0  0  0  0
   -2.1970   -0.2062    0.0000 H   0  0  0  0  0  0  0  0  0  0  0  0
   -0.1796    1.4349    0.0000 H   0  0  0  0  0  0  0  0  0  0  0  0
   -1.7845    0.5080    0.0000 H   0  0  0  0  0  0  0  0  0  0  0  0
   -1.2496    1.4348    0.0000 H   0  0  0  0  0  0  0  0  0  0  0  0
  1  3  2  0  0  0  0
  1  2  1  0  0  0  0
  2  8  1  0  0  0  0
  4  1  1  0  0  0  0
  4  5  1  0  0  0  0
  5  9  1  0  0  0  0
  5 10  1  0  0  0  0
  6  4  1  0  0  0  0
  6 11  1  0  0  0  0
  6 12  1  0  0  0  0
  6 13  1  0  0  0  0
  7  4  1  0  0  0  0
  7 14  1  0  0  0  0
  7 15  1  0  0  0  0
  7 16  1  0  0  0  0
M  END
>  <DRUGBANK_ID>
DB02952

>  <SECONDARY_ACCESSION_NUMBERS>
EXPT00471

>  <COMMON_NAME>
2-aminoisobutyric acid

>  <CAS_NUMBER>
62-57-7

>  <UNII>
1E7ZW41IQU

>  <SYNONYMS>
2-Amino-2-methylpropanoic acid; 2-aminoisobutyric acid; alpha-Aminoisobutyric acid; alpha-Methylalanine; α-aminoisobutanoic acid; α-aminoisobutyric acid; α-methylalanine; α,α-dimethylglycine

$$$$
