Untitled Document-1
 OpenBabel10282417072D

153153  0  0  0  0  0  0  0  0999 V2000
  -12.8605    0.2062    0.0000 C   0  0  0  0  0  0  0  0  0  0  0  0
  -12.8605   -0.6188    0.0000 C   0  0  0  0  0  0  0  0  0  0  0  0
  -13.5749   -1.0313    0.0000 C   0  0  0  0  0  0  0  0  0  0  0  0
  -14.2894   -0.6188    0.0000 C   0  0  0  0  0  0  0  0  0  0  0  0
  -14.2894    0.2062    0.0000 C   0  0  0  0  0  0  0  0  0  0  0  0
  -13.5749    0.6188    0.0000 C   0  0  0  0  0  0  0  0  0  0  0  0
  -12.1460    0.6188    0.0000 O   0  0  0  0  0  0  0  0  0  0  0  0
  -15.0039   -1.0313    0.0000 O   0  0  0  0  0  0  0  0  0  0  0  0
  -13.5749   -1.8563    0.0000 C   0  0  0  0  0  0  0  0  0  0  0  0
  -13.5749    1.4437    0.0000 O   0  0  0  0  0  0  0  0  0  0  0  0
  -14.2894    1.8563    0.0000 C   0  0  0  0  0  0  0  0  0  0  0  0
  -15.0039    0.6187    0.0000 O   0  0  0  0  0  0  0  0  0  0  0  0
  -15.7184    0.2062    0.0000 C   0  0  0  0  0  0  0  0  0  0  0  0
  -12.1460   -1.0313    0.0000 C   0  0  0  0  0  0  0  0  0  0  0  0
  -11.4315   -0.6188    0.0000 C   0  0  0  0  0  0  0  0  0  0  0  0
  -10.7171   -1.0313    0.0000 C   0  0  0  0  0  0  0  0  0  0  0  0
  -10.0026   -0.6188    0.0000 C   0  0  0  0  0  0  0  0  0  0  0  0
   -9.2881   -1.0313    0.0000 C   0  0  0  0  0  0  0  0  0  0  0  0
   -8.5737   -0.6188    0.0000 C   0  0  0  0  0  0  0  0  0  0  0  0
   -7.8592   -1.0313    0.0000 C   0  0  0  0  0  0  0  0  0  0  0  0
   -7.1447   -0.6188    0.0000 C   0  0  0  0  0  0  0  0  0  0  0  0
   -6.4302   -1.0313    0.0000 C   0  0  0  0  0  0  0  0  0  0  0  0
   -5.7158   -0.6188    0.0000 C   0  0  0  0  0  0  0  0  0  0  0  0
   -5.0013   -1.0313    0.0000 C   0  0  0  0  0  0  0  0  0  0  0  0
   -4.2868   -0.6188    0.0000 C   0  0  0  0  0  0  0  0  0  0  0  0
   -3.5724   -1.0313    0.0000 C   0  0  0  0  0  0  0  0  0  0  0  0
   -2.8579   -0.6188    0.0000 C   0  0  0  0  0  0  0  0  0  0  0  0
   -2.1434   -1.0313    0.0000 C   0  0  0  0  0  0  0  0  0  0  0  0
   -1.4289   -0.6188    0.0000 C   0  0  0  0  0  0  0  0  0  0  0  0
   -0.7145   -1.0313    0.0000 C   0  0  0  0  0  0  0  0  0  0  0  0
    0.0000   -0.6188    0.0000 C   0  0  0  0  0  0  0  0  0  0  0  0
    0.7145   -1.0313    0.0000 C   0  0  0  0  0  0  0  0  0  0  0  0
    1.4289   -0.6188    0.0000 C   0  0  0  0  0  0  0  0  0  0  0  0
    2.1434   -1.0313    0.0000 C   0  0  0  0  0  0  0  0  0  0  0  0
    2.8579   -0.6188    0.0000 C   0  0  0  0  0  0  0  0  0  0  0  0
    3.5724   -1.0313    0.0000 C   0  0  0  0  0  0  0  0  0  0  0  0
    4.2868   -0.6188    0.0000 C   0  0  0  0  0  0  0  0  0  0  0  0
    5.0013   -1.0313    0.0000 C   0  0  0  0  0  0  0  0  0  0  0  0
    5.7158   -0.6188    0.0000 C   0  0  0  0  0  0  0  0  0  0  0  0
    6.4302   -1.0313    0.0000 C   0  0  0  0  0  0  0  0  0  0  0  0
    7.1447   -0.6188    0.0000 C   0  0  0  0  0  0  0  0  0  0  0  0
    7.8592   -1.0313    0.0000 C   0  0  0  0  0  0  0  0  0  0  0  0
    8.5737   -0.6188    0.0000 C   0  0  0  0  0  0  0  0  0  0  0  0
    9.2881   -1.0313    0.0000 C   0  0  0  0  0  0  0  0  0  0  0  0
   10.0026   -0.6188    0.0000 C   0  0  0  0  0  0  0  0  0  0  0  0
   10.7171   -1.0313    0.0000 C   0  0  0  0  0  0  0  0  0  0  0  0
   11.4315   -0.6188    0.0000 C   0  0  0  0  0  0  0  0  0  0  0  0
   12.1460   -1.0313    0.0000 C   0  0  0  0  0  0  0  0  0  0  0  0
   12.8605   -0.6188    0.0000 C   0  0  0  0  0  0  0  0  0  0  0  0
   13.5749   -1.0313    0.0000 C   0  0  0  0  0  0  0  0  0  0  0  0
   14.2894   -0.6188    0.0000 C   0  0  0  0  0  0  0  0  0  0  0  0
   15.0039   -1.0313    0.0000 C   0  0  0  0  0  0  0  0  0  0  0  0
   15.7184   -0.6188    0.0000 C   0  0  0  0  0  0  0  0  0  0  0  0
   15.0039   -1.8563    0.0000 C   0  0  0  0  0  0  0  0  0  0  0  0
   12.1460   -1.8563    0.0000 C   0  0  0  0  0  0  0  0  0  0  0  0
    9.2881   -1.8563    0.0000 C   0  0  0  0  0  0  0  0  0  0  0  0
    6.4302   -1.8563    0.0000 C   0  0  0  0  0  0  0  0  0  0  0  0
    3.5724   -1.8563    0.0000 C   0  0  0  0  0  0  0  0  0  0  0  0
    0.7145   -1.8563    0.0000 C   0  0  0  0  0  0  0  0  0  0  0  0
   -2.1434   -1.8563    0.0000 C   0  0  0  0  0  0  0  0  0  0  0  0
   -5.0013   -1.8563    0.0000 C   0  0  0  0  0  0  0  0  0  0  0  0
   -7.8592   -1.8563    0.0000 C   0  0  0  0  0  0  0  0  0  0  0  0
  -10.7171   -1.8563    0.0000 C   0  0  0  0  0  0  0  0  0  0  0  0
  -14.5015   -2.3913    0.0000 H   0  0  0  0  0  0  0  0  0  0  0  0
  -12.6483   -2.3913    0.0000 H   0  0  0  0  0  0  0  0  0  0  0  0
  -13.5749   -2.9263    0.0000 H   0  0  0  0  0  0  0  0  0  0  0  0
  -14.2893    2.9263    0.0000 H   0  0  0  0  0  0  0  0  0  0  0  0
  -15.2161    1.3214    0.0000 H   0  0  0  0  0  0  0  0  0  0  0  0
  -15.2160    2.3914    0.0000 H   0  0  0  0  0  0  0  0  0  0  0  0
  -16.6450    0.7412    0.0000 H   0  0  0  0  0  0  0  0  0  0  0  0
  -15.7184   -0.8638    0.0000 H   0  0  0  0  0  0  0  0  0  0  0  0
  -16.6451   -0.3288    0.0000 H   0  0  0  0  0  0  0  0  0  0  0  0
  -12.1460   -2.1013    0.0000 H   0  0  0  0  0  0  0  0  0  0  0  0
  -13.0726   -1.5663    0.0000 H   0  0  0  0  0  0  0  0  0  0  0  0
  -11.4315    0.4132    0.0000 H   0  0  0  0  0  0  0  0  0  0  0  0
  -10.0026    0.4512    0.0000 H   0  0  0  0  0  0  0  0  0  0  0  0
   -9.0760   -0.0838    0.0000 H   0  0  0  0  0  0  0  0  0  0  0  0
   -9.2881   -2.1013    0.0000 H   0  0  0  0  0  0  0  0  0  0  0  0
   -8.3614   -1.5663    0.0000 H   0  0  0  0  0  0  0  0  0  0  0  0
   -8.5737    0.4132    0.0000 H   0  0  0  0  0  0  0  0  0  0  0  0
   -7.1447    0.4512    0.0000 H   0  0  0  0  0  0  0  0  0  0  0  0
   -6.2181   -0.0838    0.0000 H   0  0  0  0  0  0  0  0  0  0  0  0
   -6.4302   -2.1013    0.0000 H   0  0  0  0  0  0  0  0  0  0  0  0
   -5.5035   -1.5663    0.0000 H   0  0  0  0  0  0  0  0  0  0  0  0
   -5.7158    0.4132    0.0000 H   0  0  0  0  0  0  0  0  0  0  0  0
   -4.2868    0.4512    0.0000 H   0  0  0  0  0  0  0  0  0  0  0  0
   -3.3601   -0.0838    0.0000 H   0  0  0  0  0  0  0  0  0  0  0  0
   -3.5724   -2.1013    0.0000 H   0  0  0  0  0  0  0  0  0  0  0  0
   -2.6458   -1.5663    0.0000 H   0  0  0  0  0  0  0  0  0  0  0  0
   -2.8579    0.4132    0.0000 H   0  0  0  0  0  0  0  0  0  0  0  0
   -1.4289    0.4512    0.0000 H   0  0  0  0  0  0  0  0  0  0  0  0
   -0.5022   -0.0838    0.0000 H   0  0  0  0  0  0  0  0  0  0  0  0
   -0.7145   -2.1013    0.0000 H   0  0  0  0  0  0  0  0  0  0  0  0
    0.2121   -1.5663    0.0000 H   0  0  0  0  0  0  0  0  0  0  0  0
    0.0000    0.4132    0.0000 H   0  0  0  0  0  0  0  0  0  0  0  0
    1.4289    0.4512    0.0000 H   0  0  0  0  0  0  0  0  0  0  0  0
    2.3555   -0.0838    0.0000 H   0  0  0  0  0  0  0  0  0  0  0  0
    2.1434   -2.1013    0.0000 H   0  0  0  0  0  0  0  0  0  0  0  0
    3.0700   -1.5663    0.0000 H   0  0  0  0  0  0  0  0  0  0  0  0
    2.8579    0.4132    0.0000 H   0  0  0  0  0  0  0  0  0  0  0  0
    4.2868    0.4512    0.0000 H   0  0  0  0  0  0  0  0  0  0  0  0
    5.2134   -0.0838    0.0000 H   0  0  0  0  0  0  0  0  0  0  0  0
    5.0013   -2.1013    0.0000 H   0  0  0  0  0  0  0  0  0  0  0  0
    5.9279   -1.5663    0.0000 H   0  0  0  0  0  0  0  0  0  0  0  0
    5.7158    0.4132    0.0000 H   0  0  0  0  0  0  0  0  0  0  0  0
    7.1447    0.4512    0.0000 H   0  0  0  0  0  0  0  0  0  0  0  0
    8.0713   -0.0838    0.0000 H   0  0  0  0  0  0  0  0  0  0  0  0
    7.8592   -2.1013    0.0000 H   0  0  0  0  0  0  0  0  0  0  0  0
    8.7858   -1.5663    0.0000 H   0  0  0  0  0  0  0  0  0  0  0  0
    8.5737    0.4132    0.0000 H   0  0  0  0  0  0  0  0  0  0  0  0
   10.0026    0.4512    0.0000 H   0  0  0  0  0  0  0  0  0  0  0  0
   10.9292   -0.0838    0.0000 H   0  0  0  0  0  0  0  0  0  0  0  0
   10.7171   -2.1013    0.0000 H   0  0  0  0  0  0  0  0  0  0  0  0
   11.6438   -1.5663    0.0000 H   0  0  0  0  0  0  0  0  0  0  0  0
   11.4315    0.4132    0.0000 H   0  0  0  0  0  0  0  0  0  0  0  0
   12.8605    0.4512    0.0000 H   0  0  0  0  0  0  0  0  0  0  0  0
   13.7872   -0.0838    0.0000 H   0  0  0  0  0  0  0  0  0  0  0  0
   13.5749   -2.1013    0.0000 H   0  0  0  0  0  0  0  0  0  0  0  0
   14.5015   -1.5663    0.0000 H   0  0  0  0  0  0  0  0  0  0  0  0
   14.2894    0.4132    0.0000 H   0  0  0  0  0  0  0  0  0  0  0  0
   16.6450   -1.1538    0.0000 H   0  0  0  0  0  0  0  0  0  0  0  0
   15.7184    0.4512    0.0000 H   0  0  0  0  0  0  0  0  0  0  0  0
   16.6451   -0.0838    0.0000 H   0  0  0  0  0  0  0  0  0  0  0  0
   14.0773   -2.3913    0.0000 H   0  0  0  0  0  0  0  0  0  0  0  0
   15.9305   -2.3913    0.0000 H   0  0  0  0  0  0  0  0  0  0  0  0
   15.0039   -2.9263    0.0000 H   0  0  0  0  0  0  0  0  0  0  0  0
   11.2194   -2.3913    0.0000 H   0  0  0  0  0  0  0  0  0  0  0  0
   13.0726   -2.3913    0.0000 H   0  0  0  0  0  0  0  0  0  0  0  0
   12.1460   -2.9263    0.0000 H   0  0  0  0  0  0  0  0  0  0  0  0
    8.3615   -2.3913    0.0000 H   0  0  0  0  0  0  0  0  0  0  0  0
   10.2147   -2.3913    0.0000 H   0  0  0  0  0  0  0  0  0  0  0  0
    9.2881   -2.9263    0.0000 H   0  0  0  0  0  0  0  0  0  0  0  0
    5.5036   -2.3913    0.0000 H   0  0  0  0  0  0  0  0  0  0  0  0
    7.3568   -2.3913    0.0000 H   0  0  0  0  0  0  0  0  0  0  0  0
    6.4302   -2.9263    0.0000 H   0  0  0  0  0  0  0  0  0  0  0  0
    2.6458   -2.3913    0.0000 H   0  0  0  0  0  0  0  0  0  0  0  0
    4.4990   -2.3913    0.0000 H   0  0  0  0  0  0  0  0  0  0  0  0
    3.5724   -2.9263    0.0000 H   0  0  0  0  0  0  0  0  0  0  0  0
   -0.2121   -2.3913    0.0000 H   0  0  0  0  0  0  0  0  0  0  0  0
    1.6411   -2.3913    0.0000 H   0  0  0  0  0  0  0  0  0  0  0  0
    0.7145   -2.9263    0.0000 H   0  0  0  0  0  0  0  0  0  0  0  0
   -3.0700   -2.3913    0.0000 H   0  0  0  0  0  0  0  0  0  0  0  0
   -1.2168   -2.3913    0.0000 H   0  0  0  0  0  0  0  0  0  0  0  0
   -2.1434   -2.9263    0.0000 H   0  0  0  0  0  0  0  0  0  0  0  0
   -5.9279   -2.3913    0.0000 H   0  0  0  0  0  0  0  0  0  0  0  0
   -4.0747   -2.3913    0.0000 H   0  0  0  0  0  0  0  0  0  0  0  0
   -5.0013   -2.9263    0.0000 H   0  0  0  0  0  0  0  0  0  0  0  0
   -8.7858   -2.3913    0.0000 H   0  0  0  0  0  0  0  0  0  0  0  0
   -6.9326   -2.3913    0.0000 H   0  0  0  0  0  0  0  0  0  0  0  0
   -7.8592   -2.9263    0.0000 H   0  0  0  0  0  0  0  0  0  0  0  0
  -11.6437   -2.3913    0.0000 H   0  0  0  0  0  0  0  0  0  0  0  0
   -9.7905   -2.3913    0.0000 H   0  0  0  0  0  0  0  0  0  0  0  0
  -10.7171   -2.9263    0.0000 H   0  0  0  0  0  0  0  0  0  0  0  0
  1  2  1  0  0  0  0
  1  6  1  0  0  0  0
  1  7  2  0  0  0  0
  2  3  2  0  0  0  0
  2 14  1  0  0  0  0
  3  4  1  0  0  0  0
  3  9  1  0  0  0  0
  4  5  1  0  0  0  0
  4  8  2  0  0  0  0
  5  6  2  0  0  0  0
  5 12  1  0  0  0  0
  6 10  1  0  0  0  0
  9 64  1  0  0  0  0
  9 65  1  0  0  0  0
  9 66  1  0  0  0  0
 10 11  1  0  0  0  0
 11 67  1  0  0  0  0
 11 68  1  0  0  0  0
 11 69  1  0  0  0  0
 12 13  1  0  0  0  0
 13 70  1  0  0  0  0
 13 71  1  0  0  0  0
 13 72  1  0  0  0  0
 14 15  1  0  0  0  0
 14 73  1  0  0  0  0
 14 74  1  0  0  0  0
 15 16  2  0  0  0  0
 15 75  1  0  0  0  0
 16 17  1  0  0  0  0
 16 63  1  0  0  0  0
 17 18  1  0  0  0  0
 17 76  1  0  0  0  0
 17 77  1  0  0  0  0
 18 19  1  0  0  0  0
 18 78  1  0  0  0  0
 18 79  1  0  0  0  0
 19 20  2  0  0  0  0
 19 80  1  0  0  0  0
 20 21  1  0  0  0  0
 20 62  1  0  0  0  0
 21 22  1  0  0  0  0
 21 81  1  0  0  0  0
 21 82  1  0  0  0  0
 22 23  1  0  0  0  0
 22 83  1  0  0  0  0
 22 84  1  0  0  0  0
 23 24  2  0  0  0  0
 23 85  1  0  0  0  0
 24 25  1  0  0  0  0
 24 61  1  0  0  0  0
 25 26  1  0  0  0  0
 25 86  1  0  0  0  0
 25 87  1  0  0  0  0
 26 27  1  0  0  0  0
 26 88  1  0  0  0  0
 26 89  1  0  0  0  0
 27 28  2  0  0  0  0
 27 90  1  0  0  0  0
 28 29  1  0  0  0  0
 28 60  1  0  0  0  0
 29 30  1  0  0  0  0
 29 91  1  0  0  0  0
 29 92  1  0  0  0  0
 30 31  1  0  0  0  0
 30 93  1  0  0  0  0
 30 94  1  0  0  0  0
 31 32  2  0  0  0  0
 31 95  1  0  0  0  0
 32 33  1  0  0  0  0
 32 59  1  0  0  0  0
 33 34  1  0  0  0  0
 33 96  1  0  0  0  0
 33 97  1  0  0  0  0
 34 35  1  0  0  0  0
 34 98  1  0  0  0  0
 34 99  1  0  0  0  0
 35 36  2  0  0  0  0
 35100  1  0  0  0  0
 36 37  1  0  0  0  0
 36 58  1  0  0  0  0
 37 38  1  0  0  0  0
 37101  1  0  0  0  0
 37102  1  0  0  0  0
 38 39  1  0  0  0  0
 38103  1  0  0  0  0
 38104  1  0  0  0  0
 39 40  2  0  0  0  0
 39105  1  0  0  0  0
 40 41  1  0  0  0  0
 40 57  1  0  0  0  0
 41 42  1  0  0  0  0
 41106  1  0  0  0  0
 41107  1  0  0  0  0
 42 43  1  0  0  0  0
 42108  1  0  0  0  0
 42109  1  0  0  0  0
 43 44  2  0  0  0  0
 43110  1  0  0  0  0
 44 45  1  0  0  0  0
 44 56  1  0  0  0  0
 45 46  1  0  0  0  0
 45111  1  0  0  0  0
 45112  1  0  0  0  0
 46 47  1  0  0  0  0
 46113  1  0  0  0  0
 46114  1  0  0  0  0
 47 48  2  0  0  0  0
 47115  1  0  0  0  0
 48 49  1  0  0  0  0
 48 55  1  0  0  0  0
 49 50  1  0  0  0  0
 49116  1  0  0  0  0
 49117  1  0  0  0  0
 50 51  1  0  0  0  0
 50118  1  0  0  0  0
 50119  1  0  0  0  0
 51 52  2  0  0  0  0
 51120  1  0  0  0  0
 52 53  1  0  0  0  0
 52 54  1  0  0  0  0
 53121  1  0  0  0  0
 53122  1  0  0  0  0
 53123  1  0  0  0  0
 54124  1  0  0  0  0
 54125  1  0  0  0  0
 54126  1  0  0  0  0
 55127  1  0  0  0  0
 55128  1  0  0  0  0
 55129  1  0  0  0  0
 56130  1  0  0  0  0
 56131  1  0  0  0  0
 56132  1  0  0  0  0
 57133  1  0  0  0  0
 57134  1  0  0  0  0
 57135  1  0  0  0  0
 58136  1  0  0  0  0
 58137  1  0  0  0  0
 58138  1  0  0  0  0
 59139  1  0  0  0  0
 59140  1  0  0  0  0
 59141  1  0  0  0  0
 60142  1  0  0  0  0
 60143  1  0  0  0  0
 60144  1  0  0  0  0
 61145  1  0  0  0  0
 61146  1  0  0  0  0
 61147  1  0  0  0  0
 62148  1  0  0  0  0
 62149  1  0  0  0  0
 62150  1  0  0  0  0
 63151  1  0  0  0  0
 63152  1  0  0  0  0
 63153  1  0  0  0  0
M  END
>  <DRUGBANK_ID>
DB09270

>  <COMMON_NAME>
Ubidecarenone

>  <CAS_NUMBER>
303-98-0

>  <UNII>
EJ27X76M46

>  <SYNONYMS>
Coenzyme Q-10; Coenzyme Q10; CoQ10; Ubidecarenone; Ubiquinone; Vitamin Q10

$$$$
