
 OpenBabel10282417072D

 32 33  0  0  1  0  0  0  0  0999 V2000
    3.5724    6.7661    0.0000 C   0  0  0  0  0  0  0  0  0  0  0  0
    3.5724    5.9411    0.0000 C   0  0  0  0  0  0  0  0  0  0  0  0
    4.2868    5.5286    0.0000 C   0  0  0  0  0  0  0  0  0  0  0  0
    4.2868    4.7036    0.0000 C   0  0  0  0  0  0  0  0  0  0  0  0
    3.5724    4.2911    0.0000 C   0  0  0  0  0  0  0  0  0  0  0  0
    2.8579    4.7036    0.0000 C   0  0  0  0  0  0  0  0  0  0  0  0
    2.8579    5.5286    0.0000 C   0  0  0  0  0  0  0  0  0  0  0  0
    2.1434    5.9411    0.0000 C   0  0  0  0  0  0  0  0  0  0  0  0
    2.1434    4.2911    0.0000 C   0  0  2  0  0  0  0  0  0  0  0  0
    1.4289    4.7036    0.0000 C   0  0  0  0  0  0  0  0  0  0  0  0
    2.1434    3.4661    0.0000 C   0  0  0  0  0  0  0  0  0  0  0  0
    2.8109    2.9812    0.0000 C   0  0  0  0  0  0  0  0  0  0  0  0
    2.5559    2.1965    0.0000 N   0  0  0  0  0  0  0  0  0  0  0  0
    1.7309    2.1965    0.0000 C   0  0  0  0  0  0  0  0  0  0  0  0
    1.2460    1.5291    0.0000 S   0  0  0  0  0  0  0  0  0  0  0  0
    1.4760    2.9812    0.0000 N   0  0  0  0  0  0  0  0  0  0  0  0
    4.4990    7.3011    0.0000 H   0  0  0  0  0  0  0  0  0  0  0  0
    2.6458    7.3011    0.0000 H   0  0  0  0  0  0  0  0  0  0  0  0
    3.5724    7.8361    0.0000 H   0  0  0  0  0  0  0  0  0  0  0  0
    5.1805    6.0446    0.0000 H   0  0  0  0  0  0  0  0  0  0  0  0
    5.1805    4.1876    0.0000 H   0  0  0  0  0  0  0  0  0  0  0  0
    3.5724    3.2591    0.0000 H   0  0  0  0  0  0  0  0  0  0  0  0
    2.1434    7.0111    0.0000 H   0  0  0  0  0  0  0  0  0  0  0  0
    1.2168    5.4061    0.0000 H   0  0  0  0  0  0  0  0  0  0  0  0
    1.2167    6.4761    0.0000 H   0  0  0  0  0  0  0  0  0  0  0  0
    2.1434    5.3611    0.0000 H   0  0  0  0  0  0  0  0  0  0  0  0
    1.4289    5.7736    0.0000 H   0  0  0  0  0  0  0  0  0  0  0  0
    0.5023    4.1686    0.0000 H   0  0  0  0  0  0  0  0  0  0  0  0
    0.5022    5.2386    0.0000 H   0  0  0  0  0  0  0  0  0  0  0  0
    3.7924    3.3001    0.0000 H   0  0  0  0  0  0  0  0  0  0  0  0
    3.1346    1.4000    0.0000 H   0  0  0  0  0  0  0  0  0  0  0  0
    0.5397    3.2855    0.0000 H   0  0  0  0  0  0  0  0  0  0  0  0
  1  2  1  0  0  0  0
  1 17  1  0  0  0  0
  1 18  1  0  0  0  0
  1 19  1  0  0  0  0
  2  3  2  0  0  0  0
  2  7  1  0  0  0  0
  3  4  1  0  0  0  0
  3 20  1  0  0  0  0
  4  5  2  0  0  0  0
  4 21  1  0  0  0  0
  5  6  1  0  0  0  0
  5 22  1  0  0  0  0
  6  7  2  0  0  0  0
  6  9  1  0  0  0  0
  7  8  1  0  0  0  0
  8 23  1  0  0  0  0
  8 24  1  0  0  0  0
  8 25  1  0  0  0  0
  9 10  1  0  0  0  0
  9 11  1  0  0  0  0
  9 26  1  6  0  0  0
 10 27  1  0  0  0  0
 10 28  1  0  0  0  0
 10 29  1  0  0  0  0
 11 12  2  0  0  0  0
 11 16  1  0  0  0  0
 12 13  1  0  0  0  0
 12 30  1  0  0  0  0
 13 14  1  0  0  0  0
 13 31  1  0  0  0  0
 14 15  2  0  0  0  0
 14 16  1  0  0  0  0
 16 32  1  0  0  0  0
M  END
>  <DRUGBANK_ID>
DB12143

>  <COMMON_NAME>
Rezatomidine

>  <CAS_NUMBER>
847829-38-3

>  <UNII>
W5LMZ0RC8I

>  <SYNONYMS>
Rezatomidine

$$$$
