
 OpenBabel10282417072D

 30 31  0  0  0  0  0  0  0  0999 V2000
    0.0000    0.0000    0.0000 C   0  0  0  0  0  0  0  0  0  0  0  0
    0.0000    0.8251    0.0000 N   0  0  0  0  0  0  0  0  0  0  0  0
    0.7145   -0.4125    0.0000 C   0  0  0  0  0  0  0  0  0  0  0  0
   -0.7145   -0.4125    0.0000 N   0  0  0  0  0  0  0  0  0  0  0  0
   -0.7145    1.2375    0.0000 C   0  0  0  0  0  0  0  0  0  0  0  0
    0.7145    1.2375    0.0000 C   0  0  0  0  0  0  0  0  0  0  0  0
    0.7145   -1.2375    0.0000 C   0  0  0  0  0  0  0  0  0  0  0  0
   -0.7145   -1.2375    0.0000 C   0  0  0  0  0  0  0  0  0  0  0  0
   -0.7145    2.0627    0.0000 C   0  0  0  0  0  0  0  0  0  0  0  0
    0.7145    2.0627    0.0000 C   0  0  0  0  0  0  0  0  0  0  0  0
    0.0000   -1.6501    0.0000 N   0  3  0  0  0  0  0  0  0  0  0  0
    1.4290   -1.6501    0.0000 N   0  0  0  0  0  0  0  0  0  0  0  0
   -1.4290   -1.6501    0.0000 N   0  0  0  0  0  0  0  0  0  0  0  0
    0.0000    2.4751    0.0000 C   0  0  0  0  0  0  0  0  0  0  0  0
    0.0000   -2.4752    0.0000 O   0  5  0  0  0  0  0  0  0  0  0  0
    1.6082    0.1035    0.0000 H   0  0  0  0  0  0  0  0  0  0  0  0
   -1.6411    0.7024    0.0000 H   0  0  0  0  0  0  0  0  0  0  0  0
   -1.6412    1.7725    0.0000 H   0  0  0  0  0  0  0  0  0  0  0  0
    1.6411    0.7024    0.0000 H   0  0  0  0  0  0  0  0  0  0  0  0
    1.6412    1.7725    0.0000 H   0  0  0  0  0  0  0  0  0  0  0  0
   -1.6411    2.5978    0.0000 H   0  0  0  0  0  0  0  0  0  0  0  0
   -0.7144    3.1327    0.0000 H   0  0  0  0  0  0  0  0  0  0  0  0
    1.6411    2.5978    0.0000 H   0  0  0  0  0  0  0  0  0  0  0  0
    0.7144    3.1327    0.0000 H   0  0  0  0  0  0  0  0  0  0  0  0
    1.4289   -2.6346    0.0000 H   0  0  0  0  0  0  0  0  0  0  0  0
    2.2816   -1.1579    0.0000 H   0  0  0  0  0  0  0  0  0  0  0  0
   -2.2816   -1.1579    0.0000 H   0  0  0  0  0  0  0  0  0  0  0  0
   -1.4289   -2.6346    0.0000 H   0  0  0  0  0  0  0  0  0  0  0  0
    0.0000    3.5451    0.0000 H   0  0  0  0  0  0  0  0  0  0  0  0
    0.9266    3.0102    0.0000 H   0  0  0  0  0  0  0  0  0  0  0  0
  1  2  1  0  0  0  0
  1  3  1  0  0  0  0
  1  4  2  0  0  0  0
  2  5  1  0  0  0  0
  2  6  1  0  0  0  0
  3  7  2  0  0  0  0
  3 16  1  0  0  0  0
  4  8  1  0  0  0  0
  5  9  1  0  0  0  0
  5 17  1  0  0  0  0
  5 18  1  0  0  0  0
  6 10  1  0  0  0  0
  6 19  1  0  0  0  0
  6 20  1  0  0  0  0
  7 11  1  0  0  0  0
  7 12  1  0  0  0  0
  8 13  1  0  0  0  0
  8 11  2  0  0  0  0
  9 14  1  0  0  0  0
  9 21  1  0  0  0  0
  9 22  1  0  0  0  0
 10 14  1  0  0  0  0
 10 23  1  0  0  0  0
 10 24  1  0  0  0  0
 11 15  1  0  0  0  0
 12 25  1  0  0  0  0
 12 26  1  0  0  0  0
 13 27  1  0  0  0  0
 13 28  1  0  0  0  0
 14 29  1  0  0  0  0
 14 30  1  0  0  0  0
M  CHG  2  11   1  15  -1
M  END
>  <DRUGBANK_ID>
DB00350

>  <SECONDARY_ACCESSION_NUMBERS>
APRD00086; DB08225

>  <COMMON_NAME>
Minoxidil

>  <CAS_NUMBER>
38304-91-5

>  <UNII>
5965120SH1

>  <SYNONYMS>
2,4-Diamino-6-piperidinopyrimidine 3-oxide; 6-Piperidin-1-ylpyrimidine-2,4-diamine 3-oxide; Minossidile; Minoxidil; Minoxidilum

$$$$
