
 OpenBabel10282417072D

 56 58  0  0  1  0  0  0  0  0999 V2000
    5.2490    2.4098    0.0000 Cl  0  0  0  0  0  0  0  0  0  0  0  0
    1.1575    4.1438    0.0000 S   0  0  0  0  0  0  0  0  0  0  0  0
    8.9998    2.8840    0.0000 P   0  0  1  0  0  0  0  0  0  0  0  0
    8.2157    2.6277    0.0000 O   0  0  0  0  0  0  0  0  0  0  0  0
    9.6139    2.3330    0.0000 O   0  0  0  0  0  0  0  0  0  0  0  0
    7.9362    3.8383    0.0000 O   0  0  0  0  0  0  0  0  0  0  0  0
    9.5508    3.4980    0.0000 O   0  0  0  0  0  0  0  0  0  0  0  0
    1.8719    4.5563    0.0000 O   0  0  0  0  0  0  0  0  0  0  0  0
    0.7450    4.8582    0.0000 O   0  0  0  0  0  0  0  0  0  0  0  0
    1.5700    3.4292    0.0000 O   0  0  0  0  0  0  0  0  0  0  0  0
    6.6164    5.5768    0.0000 N   0  0  0  0  0  0  0  0  0  0  0  0
    6.6164    6.9046    0.0000 N   0  0  0  0  0  0  0  0  0  0  0  0
    5.1212    5.4157    0.0000 N   0  0  0  0  0  0  0  0  0  0  0  0
    4.4068    6.6532    0.0000 N   0  0  0  0  0  0  0  0  0  0  0  0
    5.1212    7.8907    0.0000 N   0  0  0  0  0  0  0  0  0  0  0  0
    8.0455    1.8204    0.0000 C   0  0  1  0  0  0  0  0  0  0  0  0
    8.6595    1.2694    0.0000 C   0  0  0  0  0  0  0  0  0  0  0  0
    9.4438    1.5257    0.0000 C   0  0  0  0  0  0  0  0  0  0  0  0
    7.2613    1.5641    0.0000 C   0  0  0  0  0  0  0  0  0  0  0  0
    8.7435    3.6682    0.0000 C   0  0  0  0  0  0  0  0  0  0  0  0
    6.6473    2.1151    0.0000 C   0  0  0  0  0  0  0  0  0  0  0  0
    7.0912    0.7568    0.0000 C   0  0  0  0  0  0  0  0  0  0  0  0
    7.6799    4.6224    0.0000 C   0  0  0  0  0  0  0  0  0  0  0  0
    6.8726    4.7926    0.0000 C   0  0  0  0  0  0  0  0  0  0  0  0
    5.8631    1.8587    0.0000 C   0  0  0  0  0  0  0  0  0  0  0  0
    6.3070    0.5005    0.0000 C   0  0  0  0  0  0  0  0  0  0  0  0
    5.8358    5.8282    0.0000 C   0  0  0  0  0  0  0  0  0  0  0  0
    5.6930    1.0515    0.0000 C   0  0  0  0  0  0  0  0  0  0  0  0
    5.8358    6.6532    0.0000 C   0  0  0  0  0  0  0  0  0  0  0  0
    7.0979    6.2407    0.0000 C   0  0  0  0  0  0  0  0  0  0  0  0
    5.1212    7.0657    0.0000 C   0  0  0  0  0  0  0  0  0  0  0  0
    4.4068    5.8282    0.0000 C   0  0  0  0  0  0  0  0  0  0  0  0
    0.4429    3.7313    0.0000 C   0  0  0  0  0  0  0  0  0  0  0  0
    2.7120    4.0713    0.0000 H   0  0  0  0  0  0  0  0  0  0  0  0
    5.9738    8.3829    0.0000 H   0  0  0  0  0  0  0  0  0  0  0  0
    4.2686    8.3829    0.0000 H   0  0  0  0  0  0  0  0  0  0  0  0
    7.2491    2.5350    0.0000 H   0  0  0  0  0  0  0  0  0  0  0  0
    8.4388    0.2224    0.0000 H   0  0  0  0  0  0  0  0  0  0  0  0
    9.4559    0.5548    0.0000 H   0  0  0  0  0  0  0  0  0  0  0  0
   10.2402    0.8111    0.0000 H   0  0  0  0  0  0  0  0  0  0  0  0
    9.2231    0.4787    0.0000 H   0  0  0  0  0  0  0  0  0  0  0  0
    9.4581    4.4646    0.0000 H   0  0  0  0  0  0  0  0  0  0  0  0
    8.4111    4.6852    0.0000 H   0  0  0  0  0  0  0  0  0  0  0  0
    6.8601    3.1249    0.0000 H   0  0  0  0  0  0  0  0  0  0  0  0
    7.8593    0.0676    0.0000 H   0  0  0  0  0  0  0  0  0  0  0  0
    8.3945    5.4188    0.0000 H   0  0  0  0  0  0  0  0  0  0  0  0
    7.3475    5.6395    0.0000 H   0  0  0  0  0  0  0  0  0  0  0  0
    6.1579    3.9963    0.0000 H   0  0  0  0  0  0  0  0  0  0  0  0
    7.2049    3.7755    0.0000 H   0  0  0  0  0  0  0  0  0  0  0  0
    6.0941   -0.5093    0.0000 H   0  0  0  0  0  0  0  0  0  0  0  0
    4.7121    0.7309    0.0000 H   0  0  0  0  0  0  0  0  0  0  0  0
    8.1299    6.2407    0.0000 H   0  0  0  0  0  0  0  0  0  0  0  0
    3.5131    5.3122    0.0000 H   0  0  0  0  0  0  0  0  0  0  0  0
   -0.4837    4.2664    0.0000 H   0  0  0  0  0  0  0  0  0  0  0  0
    0.4428    2.6613    0.0000 H   0  0  0  0  0  0  0  0  0  0  0  0
   -0.4838    3.1964    0.0000 H   0  0  0  0  0  0  0  0  0  0  0  0
  1 25  1  0  0  0  0
  2  8  1  0  0  0  0
  2  9  2  0  0  0  0
  2 10  2  0  0  0  0
  2 33  1  0  0  0  0
  3  4  1  0  0  0  0
  3  5  1  0  0  0  0
  3  7  2  6  0  0  0
  3 20  1  0  0  0  0
  4 16  1  0  0  0  0
  5 18  1  0  0  0  0
  6 20  1  0  0  0  0
  6 23  1  0  0  0  0
  8 34  1  0  0  0  0
 11 24  1  0  0  0  0
 11 27  1  0  0  0  0
 11 30  1  0  0  0  0
 12 29  1  0  0  0  0
 12 30  2  0  0  0  0
 13 27  2  0  0  0  0
 13 32  1  0  0  0  0
 14 31  1  0  0  0  0
 14 32  2  0  0  0  0
 15 31  1  0  0  0  0
 15 35  1  0  0  0  0
 15 36  1  0  0  0  0
 16 17  1  0  0  0  0
 16 19  1  0  0  0  0
 16 37  1  6  0  0  0
 17 18  1  0  0  0  0
 17 38  1  0  0  0  0
 17 39  1  0  0  0  0
 18 40  1  0  0  0  0
 18 41  1  0  0  0  0
 19 21  2  0  0  0  0
 19 22  1  0  0  0  0
 20 42  1  0  0  0  0
 20 43  1  0  0  0  0
 21 25  1  0  0  0  0
 21 44  1  0  0  0  0
 22 26  2  0  0  0  0
 22 45  1  0  0  0  0
 23 24  1  0  0  0  0
 23 46  1  0  0  0  0
 23 47  1  0  0  0  0
 24 48  1  0  0  0  0
 24 49  1  0  0  0  0
 25 28  2  0  0  0  0
 26 28  1  0  0  0  0
 26 50  1  0  0  0  0
 27 29  1  0  0  0  0
 28 51  1  0  0  0  0
 29 31  2  0  0  0  0
 30 52  1  0  0  0  0
 32 53  1  0  0  0  0
 33 54  1  0  0  0  0
 33 55  1  0  0  0  0
 33 56  1  0  0  0  0
M  END
>  <DRUGBANK_ID>
DB05478

>  <COMMON_NAME>
Pradefovir mesylate

>  <CAS_NUMBER>
625095-61-6

>  <UNII>
0D5204ZSIX

>  <SYNONYMS>
Pradefovir mesilate; Pradefovir mesylate

$$$$
