
 OpenBabel10282417072D

131133  0  0  0  0  0  0  0  0999 V2000
   -4.0650    2.1493    0.0000 C   0  0  0  0  0  0  0  0  0  0  0  0
   -3.3300    2.5240    0.0000 C   0  0  0  0  0  0  0  0  0  0  0  0
   -3.3300    3.3464    0.0000 C   0  0  0  0  0  0  0  0  0  0  0  0
   -2.1176    1.7350    0.0000 C   0  0  1  0  0  0  0  0  0  0  0  0
   -1.4412    1.9399    0.0000 C   0  0  0  0  0  0  0  0  0  0  0  0
   -0.9034    2.8306    0.0000 N   0  0  0  0  0  0  0  0  0  0  0  0
   -0.1228    3.1063    0.0000 C   0  0  2  0  0  0  0  0  0  0  0  0
    0.6969    2.5398    0.0000 C   0  0  0  0  0  0  0  0  0  0  0  0
    1.5082    3.0208    0.0000 N   0  0  0  0  0  0  0  0  0  0  0  0
    2.2545    2.6691    0.0000 C   0  0  2  0  0  0  0  0  0  0  0  0
    2.5650    1.9574    0.0000 C   0  0  0  0  0  0  0  0  0  0  0  0
    3.3500    1.4547    0.0000 N   0  0  0  0  0  0  0  0  0  0  0  0
    3.6258    0.6742    0.0000 C   0  0  2  0  0  0  0  0  0  0  0  0
    3.6932   -0.1456    0.0000 C   0  0  0  0  0  0  0  0  0  0  0  0
    3.5405   -0.9615    0.0000 N   0  0  0  0  0  0  0  0  0  0  0  0
    3.1883   -1.7078    0.0000 C   0  0  2  0  0  0  0  0  0  0  0  0
    2.6177   -1.9080    0.0000 C   0  0  0  0  0  0  0  0  0  0  0  0
    1.9693   -2.8034    0.0000 N   0  0  0  0  0  0  0  0  0  0  0  0
    1.1936   -3.0791    0.0000 C   0  0  2  0  0  0  0  0  0  0  0  0
    0.4394   -2.4727    0.0000 C   0  0  0  0  0  0  0  0  0  0  0  0
   -0.4421   -2.9937    0.0000 N   0  0  0  0  0  0  0  0  0  0  0  0
   -1.1883   -2.6372    0.0000 C   0  0  2  0  0  0  0  0  0  0  0  0
   -1.5341   -1.9607    0.0000 C   0  0  0  0  0  0  0  0  0  0  0  0
   -2.2839   -1.4228    0.0000 N   0  0  0  0  0  0  0  0  0  0  0  0
   -2.5597   -0.6423    0.0000 C   0  0  2  0  0  0  0  0  0  0  0  0
   -2.0940    0.1821    0.0000 C   0  0  0  0  0  0  0  0  0  0  0  0
   -2.4743    0.9934    0.0000 N   0  0  0  0  0  0  0  0  0  0  0  0
   -1.2655    0.0412    0.0000 O   0  0  0  0  0  0  0  0  0  0  0  0
   -3.3641   -0.8163    0.0000 C   0  0  0  0  0  0  0  0  0  0  0  0
   -3.6199   -1.5988    0.0000 C   0  0  0  0  0  0  0  0  0  0  0  0
   -4.4289   -1.7727    0.0000 C   0  0  0  0  0  0  0  0  0  0  0  0
   -4.6847   -2.5554    0.0000 N   0  0  0  0  0  0  0  0  0  0  0  0
   -5.4890   -2.7294    0.0000 C   0  0  0  0  0  0  0  0  0  0  0  0
   -5.7449   -3.5167    0.0000 N   0  0  0  0  0  0  0  0  0  0  0  0
   -6.0421   -2.1160    0.0000 N   0  0  0  0  0  0  0  0  0  0  0  0
   -0.8794   -1.3866    0.0000 O   0  0  0  0  0  0  0  0  0  0  0  0
   -1.6360   -3.3264    0.0000 C   0  0  0  0  0  0  0  0  0  0  0  0
   -1.2611   -4.0663    0.0000 C   0  0  0  0  0  0  0  0  0  0  0  0
   -1.7134   -4.7555    0.0000 C   0  0  0  0  0  0  0  0  0  0  0  0
   -1.3387   -5.4908    0.0000 N   0  0  0  0  0  0  0  0  0  0  0  0
   -2.5358   -4.7555    0.0000 O   0  0  0  0  0  0  0  0  0  0  0  0
    0.3690   -1.3929    0.0000 O   0  0  0  0  0  0  0  0  0  0  0  0
    1.4911   -4.4891    0.0000 C   0  0  0  0  0  0  0  0  0  0  0  0
    2.2784   -4.7449    0.0000 C   0  0  0  0  0  0  0  0  0  0  0  0
    2.9443   -4.2590    0.0000 N   0  0  0  0  0  0  0  0  0  0  0  0
    3.6126   -4.7449    0.0000 C   0  0  0  0  0  0  0  0  0  0  0  0
    3.3573   -5.5284    0.0000 N   0  0  0  0  0  0  0  0  0  0  0  0
    2.5314   -5.5284    0.0000 C   0  0  0  0  0  0  0  0  0  0  0  0
    1.9331   -0.9761    0.0000 O   0  0  0  0  0  0  0  0  0  0  0  0
    3.8778   -2.1554    0.0000 C   0  0  0  0  0  0  0  0  0  0  0  0
    4.6128   -1.7807    0.0000 C   0  0  0  0  0  0  0  0  0  0  0  0
    5.3069   -2.2282    0.0000 C   0  0  0  0  0  0  0  0  0  0  0  0
    6.0421   -1.8536    0.0000 O   0  0  0  0  0  0  0  0  0  0  0  0
    5.3069   -3.0551    0.0000 O   0  0  0  0  0  0  0  0  0  0  0  0
    4.9734   -0.2160    0.0000 O   0  0  0  0  0  0  0  0  0  0  0  0
    4.4493    0.6742    0.0000 C   0  0  0  0  0  0  0  0  0  0  0  0
    4.6861    1.4884    0.0000 C   0  0  0  0  0  0  0  0  0  0  0  0
    4.0066    1.9556    0.0000 C   0  0  0  0  0  0  0  0  0  0  0  0
    2.8216    0.5003    0.0000 H   0  0  0  0  0  0  0  0  0  0  0  0
    1.8046    1.3832    0.0000 O   0  0  0  0  0  0  0  0  0  0  0  0
    2.7020    3.3583    0.0000 C   0  0  0  0  0  0  0  0  0  0  0  0
    2.3273    4.0982    0.0000 O   0  0  0  0  0  0  0  0  0  0  0  0
    0.6969    1.6713    0.0000 O   0  0  0  0  0  0  0  0  0  0  0  0
   -0.2967    3.9152    0.0000 C   0  0  0  0  0  0  0  0  0  0  0  0
   -1.0840    4.1711    0.0000 C   0  0  0  0  0  0  0  0  0  0  0  0
   -1.2533    4.9754    0.0000 C   0  0  0  0  0  0  0  0  0  0  0  0
   -2.0407    5.2314    0.0000 N   0  0  0  0  0  0  0  0  0  0  0  0
   -0.6401    5.5284    0.0000 O   0  0  0  0  0  0  0  0  0  0  0  0
   -0.4798    1.2146    0.0000 O   0  0  0  0  0  0  0  0  0  0  0  0
   -4.9625    2.7319    0.0000 H   0  0  0  0  0  0  0  0  0  0  0  0
   -4.1208    1.0808    0.0000 H   0  0  0  0  0  0  0  0  0  0  0  0
   -5.0183    1.6633    0.0000 H   0  0  0  0  0  0  0  0  0  0  0  0
   -2.3894    3.0341    0.0000 H   0  0  0  0  0  0  0  0  0  0  0  0
   -2.4034    3.8814    0.0000 H   0  0  0  0  0  0  0  0  0  0  0  0
   -4.2566    3.8814    0.0000 H   0  0  0  0  0  0  0  0  0  0  0  0
   -3.3300    4.4164    0.0000 H   0  0  0  0  0  0  0  0  0  0  0  0
   -1.9668    2.7943    0.0000 H   0  0  0  0  0  0  0  0  0  0  0  0
   -1.5252    3.5939    0.0000 H   0  0  0  0  0  0  0  0  0  0  0  0
   -1.0568    3.6284    0.0000 H   0  0  0  0  0  0  0  0  0  0  0  0
    1.4616    4.0042    0.0000 H   0  0  0  0  0  0  0  0  0  0  0  0
    1.9616    3.6982    0.0000 H   0  0  0  0  0  0  0  0  0  0  0  0
    4.4772   -1.2646    0.0000 H   0  0  0  0  0  0  0  0  0  0  0  0
    4.2175   -1.4152    0.0000 H   0  0  0  0  0  0  0  0  0  0  0  0
    2.5594   -3.5914    0.0000 H   0  0  0  0  0  0  0  0  0  0  0  0
    2.1271   -3.6021    0.0000 H   0  0  0  0  0  0  0  0  0  0  0  0
   -0.3987   -3.9772    0.0000 H   0  0  0  0  0  0  0  0  0  0  0  0
   -0.8983   -3.6671    0.0000 H   0  0  0  0  0  0  0  0  0  0  0  0
   -3.0712   -2.0140    0.0000 H   0  0  0  0  0  0  0  0  0  0  0  0
   -3.0812   -1.5766    0.0000 H   0  0  0  0  0  0  0  0  0  0  0  0
   -3.4588    0.9983    0.0000 H   0  0  0  0  0  0  0  0  0  0  0  0
   -4.0808   -0.0218    0.0000 H   0  0  0  0  0  0  0  0  0  0  0  0
   -4.4108   -1.0383    0.0000 H   0  0  0  0  0  0  0  0  0  0  0  0
   -2.9037   -2.3938    0.0000 H   0  0  0  0  0  0  0  0  0  0  0  0
   -3.9493   -2.6169    0.0000 H   0  0  0  0  0  0  0  0  0  0  0  0
   -5.1451   -0.9777    0.0000 H   0  0  0  0  0  0  0  0  0  0  0  0
   -5.4757   -1.9944    0.0000 H   0  0  0  0  0  0  0  0  0  0  0  0
   -4.0252   -3.2864    0.0000 H   0  0  0  0  0  0  0  0  0  0  0  0
   -6.7079   -3.7213    0.0000 H   0  0  0  0  0  0  0  0  0  0  0  0
   -5.0862   -4.2484    0.0000 H   0  0  0  0  0  0  0  0  0  0  0  0
   -5.7385   -1.1795    0.0000 H   0  0  0  0  0  0  0  0  0  0  0  0
   -2.7045   -3.2691    0.0000 H   0  0  0  0  0  0  0  0  0  0  0  0
   -2.2203   -4.2228    0.0000 H   0  0  0  0  0  0  0  0  0  0  0  0
   -0.1928   -4.1261    0.0000 H   0  0  0  0  0  0  0  0  0  0  0  0
   -0.7793   -5.0217    0.0000 H   0  0  0  0  0  0  0  0  0  0  0  0
   -1.8749   -6.3165    0.0000 H   0  0  0  0  0  0  0  0  0  0  0  0
   -0.3555   -5.5423    0.0000 H   0  0  0  0  0  0  0  0  0  0  0  0
    0.6954   -5.2045    0.0000 H   0  0  0  0  0  0  0  0  0  0  0  0
    1.7132   -5.5358    0.0000 H   0  0  0  0  0  0  0  0  0  0  0  0
    2.9435   -3.2745    0.0000 H   0  0  0  0  0  0  0  0  0  0  0  0
    4.5943   -4.4266    0.0000 H   0  0  0  0  0  0  0  0  0  0  0  0
    1.9240   -6.3628    0.0000 H   0  0  0  0  0  0  0  0  0  0  0  0
    3.8220   -3.2239    0.0000 H   0  0  0  0  0  0  0  0  0  0  0  0
    4.7753   -2.7380    0.0000 H   0  0  0  0  0  0  0  0  0  0  0  0
    4.6669   -0.7121    0.0000 H   0  0  0  0  0  0  0  0  0  0  0  0
    5.5649   -1.2925    0.0000 H   0  0  0  0  0  0  0  0  0  0  0  0
    6.8279   -2.3639    0.0000 H   0  0  0  0  0  0  0  0  0  0  0  0
    5.0916   -0.1816    0.0000 H   0  0  0  0  0  0  0  0  0  0  0  0
    5.5019    0.8662    0.0000 H   0  0  0  0  0  0  0  0  0  0  0  0
    5.6939    1.8480    0.0000 H   0  0  0  0  0  0  0  0  0  0  0  0
    4.8246    2.5494    0.0000 H   0  0  0  0  0  0  0  0  0  0  0  0
    3.9802    3.0253    0.0000 H   0  0  0  0  0  0  0  0  0  0  0  0
    3.0418    2.4183    0.0000 H   0  0  0  0  0  0  0  0  0  0  0  0
    3.7705    3.3010    0.0000 H   0  0  0  0  0  0  0  0  0  0  0  0
    3.2864    4.2546    0.0000 H   0  0  0  0  0  0  0  0  0  0  0  0
    2.8576    4.9104    0.0000 H   0  0  0  0  0  0  0  0  0  0  0  0
    0.4977    4.6321    0.0000 H   0  0  0  0  0  0  0  0  0  0  0  0
   -0.5197    4.9617    0.0000 H   0  0  0  0  0  0  0  0  0  0  0  0
   -1.8799    3.4560    0.0000 H   0  0  0  0  0  0  0  0  0  0  0  0
   -2.1011    4.5033    0.0000 H   0  0  0  0  0  0  0  0  0  0  0  0
   -2.2452    6.1944    0.0000 H   0  0  0  0  0  0  0  0  0  0  0  0
   -2.7724    4.5728    0.0000 H   0  0  0  0  0  0  0  0  0  0  0  0
  1  2  1  0  0  0  0
  1 70  1  0  0  0  0
  1 71  1  0  0  0  0
  1 72  1  0  0  0  0
  2  3  1  0  0  0  0
  2 73  1  0  0  0  0
  3 74  1  0  0  0  0
  3 75  1  0  0  0  0
  3 76  1  0  0  0  0
  4  2  1  0  0  0  0
  4  5  1  0  0  0  0
  4 27  1  0  0  0  0
  4 77  1  6  0  0  0
  5 69  2  0  0  0  0
  6  5  1  0  0  0  0
  6 78  1  0  0  0  0
  7  6  1  0  0  0  0
  7 64  1  0  0  0  0
  7 79  1  6  0  0  0
  8  7  1  0  0  0  0
  8 63  2  0  0  0  0
  9  8  1  0  0  0  0
  9 80  1  0  0  0  0
 10  9  1  0  0  0  0
 10 61  1  0  0  0  0
 10 81  1  6  0  0  0
 11 10  1  0  0  0  0
 11 60  2  0  0  0  0
 12 11  1  0  0  0  0
 13 12  1  0  0  0  0
 13 56  1  0  0  0  0
 13 59  1  6  0  0  0
 14 13  1  0  0  0  0
 14 55  2  0  0  0  0
 15 14  1  0  0  0  0
 15 82  1  0  0  0  0
 16 15  1  0  0  0  0
 16 50  1  0  0  0  0
 16 83  1  6  0  0  0
 17 16  1  0  0  0  0
 17 49  2  0  0  0  0
 18 17  1  0  0  0  0
 18 84  1  0  0  0  0
 19 18  1  0  0  0  0
 19 43  1  0  0  0  0
 19 85  1  6  0  0  0
 20 19  1  0  0  0  0
 20 42  2  0  0  0  0
 21 20  1  0  0  0  0
 21 86  1  0  0  0  0
 22 21  1  0  0  0  0
 22 37  1  0  0  0  0
 22 87  1  6  0  0  0
 23 22  1  0  0  0  0
 23 36  2  0  0  0  0
 24 23  1  0  0  0  0
 24 88  1  0  0  0  0
 25 24  1  0  0  0  0
 25 29  1  0  0  0  0
 25 89  1  6  0  0  0
 26 25  1  0  0  0  0
 26 28  2  0  0  0  0
 27 26  1  0  0  0  0
 27 90  1  0  0  0  0
 29 30  1  0  0  0  0
 29 91  1  0  0  0  0
 29 92  1  0  0  0  0
 30 31  1  0  0  0  0
 30 93  1  0  0  0  0
 30 94  1  0  0  0  0
 31 32  1  0  0  0  0
 31 95  1  0  0  0  0
 31 96  1  0  0  0  0
 32 33  1  0  0  0  0
 32 97  1  0  0  0  0
 33 34  1  0  0  0  0
 33 35  2  0  0  0  0
 34 98  1  0  0  0  0
 34 99  1  0  0  0  0
 35100  1  0  0  0  0
 37 38  1  0  0  0  0
 37101  1  0  0  0  0
 37102  1  0  0  0  0
 38 39  1  0  0  0  0
 38103  1  0  0  0  0
 38104  1  0  0  0  0
 39 40  1  0  0  0  0
 39 41  2  0  0  0  0
 40105  1  0  0  0  0
 40106  1  0  0  0  0
 43 44  1  0  0  0  0
 43107  1  0  0  0  0
 43108  1  0  0  0  0
 44 45  1  0  0  0  0
 44 48  2  0  0  0  0
 45109  1  0  0  0  0
 46 45  1  0  0  0  0
 46110  1  0  0  0  0
 47 46  2  0  0  0  0
 48 47  1  0  0  0  0
 48111  1  0  0  0  0
 50 51  1  0  0  0  0
 50112  1  0  0  0  0
 50113  1  0  0  0  0
 51 52  1  0  0  0  0
 51114  1  0  0  0  0
 51115  1  0  0  0  0
 52 53  1  0  0  0  0
 52 54  2  0  0  0  0
 53116  1  0  0  0  0
 56 57  1  0  0  0  0
 56117  1  0  0  0  0
 56118  1  0  0  0  0
 57 58  1  0  0  0  0
 57119  1  0  0  0  0
 57120  1  0  0  0  0
 58 12  1  0  0  0  0
 58121  1  0  0  0  0
 58122  1  0  0  0  0
 61 62  1  0  0  0  0
 61123  1  0  0  0  0
 61124  1  0  0  0  0
 62125  1  0  0  0  0
 64 65  1  0  0  0  0
 64126  1  0  0  0  0
 64127  1  0  0  0  0
 65 66  1  0  0  0  0
 65128  1  0  0  0  0
 65129  1  0  0  0  0
 66 67  1  0  0  0  0
 66 68  2  0  0  0  0
 67130  1  0  0  0  0
 67131  1  0  0  0  0
M  END
>  <DRUGBANK_ID>
DB15188

>  <COMMON_NAME>
Livoletide

>  <CAS_NUMBER>
1088543-62-7

>  <UNII>
9VHD7J6363

>  <SYNONYMS>
Livoletide; Livol√©tide; Livoletidum

$$$$
