
 OpenBabel10282417072D

 35 37  0  0  1  0  0  0  0  0999 V2000
    3.3523    1.9354    0.0000 C   0  0  0  0  0  0  0  0  0  0  0  0
    3.3523    1.1104    0.0000 N   0  0  0  0  0  0  0  0  0  0  0  0
    2.6378    0.6979    0.0000 C   0  0  0  0  0  0  0  0  0  0  0  0
    2.6378   -0.1271    0.0000 O   0  0  0  0  0  0  0  0  0  0  0  0
    1.9233    1.1104    0.0000 C   0  0  0  0  0  0  0  0  0  0  0  0
    1.9233    1.9354    0.0000 C   0  0  0  0  0  0  0  0  0  0  0  0
    2.6378    2.3479    0.0000 N   0  0  0  0  0  0  0  0  0  0  0  0
    1.1387    2.1904    0.0000 N   0  0  0  0  0  0  0  0  0  0  0  0
    0.6538    1.5229    0.0000 C   0  0  0  0  0  0  0  0  0  0  0  0
    1.1387    0.8555    0.0000 N   0  0  0  0  0  0  0  0  0  0  0  0
    0.8838    2.9750    0.0000 C   0  0  1  0  0  0  0  0  0  0  0  0
    0.0992    3.2299    0.0000 C   0  0  1  0  0  0  0  0  0  0  0  0
    0.0992    4.0549    0.0000 C   0  0  1  0  0  0  0  0  0  0  0  0
    0.8838    4.3099    0.0000 C   0  0  2  0  0  0  0  0  0  0  0  0
    1.3687    3.6424    0.0000 O   0  0  0  0  0  0  0  0  0  0  0  0
    1.1387    5.0945    0.0000 C   0  0  0  0  0  0  0  0  0  0  0  0
    1.9457    5.2660    0.0000 O   0  0  0  0  0  0  0  0  0  0  0  0
    2.2006    6.0507    0.0000 S   0  0  0  0  0  0  0  0  0  0  0  0
    2.4556    6.8353    0.0000 O   0  0  0  0  0  0  0  0  0  0  0  0
    2.9853    5.7957    0.0000 O   0  0  0  0  0  0  0  0  0  0  0  0
    1.4160    6.3056    0.0000 O   0  0  0  0  0  0  0  0  0  0  0  0
   -0.5683    4.5399    0.0000 O   0  0  0  0  0  0  0  0  0  0  0  0
   -0.5683    2.7450    0.0000 O   0  0  0  0  0  0  0  0  0  0  0  0
    4.2460    2.4514    0.0000 H   0  0  0  0  0  0  0  0  0  0  0  0
    4.2049    0.6181    0.0000 H   0  0  0  0  0  0  0  0  0  0  0  0
   -0.3782    1.5229    0.0000 H   0  0  0  0  0  0  0  0  0  0  0  0
    0.1272    2.2184    0.0000 H   0  0  0  0  0  0  0  0  0  0  0  0
    0.2666    2.1731    0.0000 H   0  0  0  0  0  0  0  0  0  0  0  0
   -0.8542    3.5691    0.0000 H   0  0  0  0  0  0  0  0  0  0  0  0
    0.1272    5.0665    0.0000 H   0  0  0  0  0  0  0  0  0  0  0  0
    0.4227    5.8897    0.0000 H   0  0  0  0  0  0  0  0  0  0  0  0
    1.4694    6.1121    0.0000 H   0  0  0  0  0  0  0  0  0  0  0  0
    1.2143    7.2544    0.0000 H   0  0  0  0  0  0  0  0  0  0  0  0
   -0.4669    5.5046    0.0000 H   0  0  0  0  0  0  0  0  0  0  0  0
   -1.4544    3.1396    0.0000 H   0  0  0  0  0  0  0  0  0  0  0  0
  1  2  1  0  0  0  0
  1  7  2  0  0  0  0
  1 24  1  0  0  0  0
  2  3  1  0  0  0  0
  2 25  1  0  0  0  0
  3  4  2  0  0  0  0
  3  5  1  0  0  0  0
  5  6  2  0  0  0  0
  5 10  1  0  0  0  0
  6  7  1  0  0  0  0
  6  8  1  0  0  0  0
  8  9  1  0  0  0  0
  9 10  2  0  0  0  0
  9 26  1  0  0  0  0
 11  8  1  0  0  0  0
 11 15  1  0  0  0  0
 11 27  1  6  0  0  0
 12 11  1  0  0  0  0
 12 13  1  0  0  0  0
 12 23  1  0  0  0  0
 12 28  1  1  0  0  0
 13 14  1  0  0  0  0
 13 22  1  0  0  0  0
 13 29  1  1  0  0  0
 14 15  1  0  0  0  0
 14 16  1  0  0  0  0
 14 30  1  6  0  0  0
 16 17  1  0  0  0  0
 16 31  1  0  0  0  0
 16 32  1  0  0  0  0
 17 18  1  0  0  0  0
 18 19  2  0  0  0  0
 18 20  2  0  0  0  0
 18 21  1  0  0  0  0
 21 33  1  0  0  0  0
 22 34  1  0  0  0  0
 23 35  1  0  0  0  0
M  END
>  <DRUGBANK_ID>
DB05973

>  <COMMON_NAME>
Inosine 5'-sulfate

>  <CAS_NUMBER>
70023-32-4

>  <UNII>
SJ1W653O6G

$$$$
