
 OpenBabel10282417072D

 31 32  0  0  1  0  0  0  0  0999 V2000
    1.3222   -0.0616    0.0000 C   0  0  0  0  0  0  0  0  0  0  0  0
    2.0367   -0.4741    0.0000 C   0  0  2  0  0  0  0  0  0  0  0  0
    2.7512   -0.0616    0.0000 C   0  0  0  0  0  0  0  0  0  0  0  0
    2.7512    0.7634    0.0000 C   0  0  0  0  0  0  0  0  0  0  0  0
    3.4656    1.1759    0.0000 C   0  0  0  0  0  0  0  0  0  0  0  0
    4.1801    0.7634    0.0000 C   0  0  0  0  0  0  0  0  0  0  0  0
    4.1801   -0.0616    0.0000 C   0  0  0  0  0  0  0  0  0  0  0  0
    3.4656   -0.4741    0.0000 C   0  0  0  0  0  0  0  0  0  0  0  0
    4.8946    1.1759    0.0000 I   0  0  0  0  0  0  0  0  0  0  0  0
    2.0367   -1.2991    0.0000 N   0  0  0  0  0  0  0  0  0  0  0  0
    2.7041   -1.7840    0.0000 C   0  0  0  0  0  0  0  0  0  0  0  0
    2.4492   -2.5687    0.0000 N   0  0  0  0  0  0  0  0  0  0  0  0
    1.6242   -2.5687    0.0000 C   0  0  0  0  0  0  0  0  0  0  0  0
    1.3693   -1.7840    0.0000 C   0  0  0  0  0  0  0  0  0  0  0  0
    0.5846   -1.5291    0.0000 C   0  0  0  0  0  0  0  0  0  0  0  0
   -0.0284   -2.0811    0.0000 O   0  0  0  0  0  0  0  0  0  0  0  0
    0.4131   -0.7221    0.0000 O   0  0  0  0  0  0  0  0  0  0  0  0
   -0.3715   -0.4672    0.0000 C   0  0  0  0  0  0  0  0  0  0  0  0
    1.3222    1.0084    0.0000 H   0  0  0  0  0  0  0  0  0  0  0  0
    0.3956   -0.5966    0.0000 H   0  0  0  0  0  0  0  0  0  0  0  0
    0.3955    0.4734    0.0000 H   0  0  0  0  0  0  0  0  0  0  0  0
    2.0367    0.5959    0.0000 H   0  0  0  0  0  0  0  0  0  0  0  0
    1.8575    1.2794    0.0000 H   0  0  0  0  0  0  0  0  0  0  0  0
    3.4656    2.2079    0.0000 H   0  0  0  0  0  0  0  0  0  0  0  0
    5.0738   -0.5776    0.0000 H   0  0  0  0  0  0  0  0  0  0  0  0
    3.4656   -1.5061    0.0000 H   0  0  0  0  0  0  0  0  0  0  0  0
    3.6856   -1.4651    0.0000 H   0  0  0  0  0  0  0  0  0  0  0  0
    1.0176   -3.4036    0.0000 H   0  0  0  0  0  0  0  0  0  0  0  0
   -0.5940    0.5794    0.0000 H   0  0  0  0  0  0  0  0  0  0  0  0
   -1.1666   -1.1832    0.0000 H   0  0  0  0  0  0  0  0  0  0  0  0
   -1.3891   -0.1366    0.0000 H   0  0  0  0  0  0  0  0  0  0  0  0
  1 19  1  0  0  0  0
  1 20  1  0  0  0  0
  1 21  1  0  0  0  0
  2  1  1  0  0  0  0
  2  3  1  0  0  0  0
  2 10  1  0  0  0  0
  2 22  1  1  0  0  0
  3  4  2  0  0  0  0
  3  8  1  0  0  0  0
  4  5  1  0  0  0  0
  4 23  1  0  0  0  0
  5  6  2  0  0  0  0
  5 24  1  0  0  0  0
  6  7  1  0  0  0  0
  6  9  1  0  0  0  0
  7  8  2  0  0  0  0
  7 25  1  0  0  0  0
  8 26  1  0  0  0  0
 10 11  1  0  0  0  0
 10 14  1  0  0  0  0
 11 12  2  0  0  0  0
 11 27  1  0  0  0  0
 12 13  1  0  0  0  0
 13 14  2  0  0  0  0
 13 28  1  0  0  0  0
 14 15  1  0  0  0  0
 15 16  2  0  0  0  0
 15 17  1  0  0  0  0
 17 18  1  0  0  0  0
 18 29  1  0  0  0  0
 18 30  1  0  0  0  0
 18 31  1  0  0  0  0
M  END
>  <DRUGBANK_ID>
DB13021

>  <COMMON_NAME>
123I-iodometomidate

>  <CAS_NUMBER>
813466-05-6

>  <UNII>
U21CVV13SV

>  <SYNONYMS>
123 I Iodometomidate

$$$$
