
 OpenBabel10282417072D

 52 51  0  0  0  0  0  0  0  0999 V2000
   -2.1434    0.0000    0.0000 C   0  0  0  0  0  0  0  0  0  0  0  0
   -2.8579   -0.4124    0.0000 C   0  0  0  0  0  0  0  0  0  0  0  0
    4.2868   -0.4124    0.0000 O   0  0  0  0  0  0  0  0  0  0  0  0
    2.8579   -0.4124    0.0000 O   0  0  0  0  0  0  0  0  0  0  0  0
    2.1434    0.0000    0.0000 C   0  0  0  0  0  0  0  0  0  0  0  0
    5.7158   -0.4124    0.0000 O   0  0  0  0  0  0  0  0  0  0  0  0
    1.4289   -0.4124    0.0000 C   0  0  0  0  0  0  0  0  0  0  0  0
    0.7145    0.0000    0.0000 C   0  0  0  0  0  0  0  0  0  0  0  0
    0.0000   -0.4124    0.0000 C   0  0  0  0  0  0  0  0  0  0  0  0
   -0.7145    0.0000    0.0000 C   0  0  0  0  0  0  0  0  0  0  0  0
   -1.4289   -0.4124    0.0000 C   0  0  0  0  0  0  0  0  0  0  0  0
   -3.5724    0.0000    0.0000 C   0  0  0  0  0  0  0  0  0  0  0  0
   -4.2868   -0.4124    0.0000 C   0  0  0  0  0  0  0  0  0  0  0  0
   -5.0012    0.0000    0.0000 C   0  0  0  0  0  0  0  0  0  0  0  0
   -5.7158   -0.4124    0.0000 C   0  0  0  0  0  0  0  0  0  0  0  0
    3.5724    0.0000    0.0000 P   0  0  3  0  0  0  0  0  0  0  0  0
    5.0012    0.0000    0.0000 P   0  0  0  0  0  0  0  0  0  0  0  0
    3.5722    0.8250    0.0000 O   0  0  0  0  0  0  0  0  0  0  0  0
    5.0012    0.8249    0.0000 O   0  0  0  0  0  0  0  0  0  0  0  0
    0.7144    0.8249    0.0000 C   0  0  0  0  0  0  0  0  0  0  0  0
   -2.1434    0.8250    0.0000 C   0  0  0  0  0  0  0  0  0  0  0  0
   -5.0012    0.8250    0.0000 C   0  0  0  0  0  0  0  0  0  0  0  0
    3.5722   -0.8250    0.0000 O   0  0  0  0  0  0  0  0  0  0  0  0
    5.0012   -0.8249    0.0000 O   0  0  0  0  0  0  0  0  0  0  0  0
   -2.8579   -1.4824    0.0000 H   0  0  0  0  0  0  0  0  0  0  0  0
   -3.7845   -0.9475    0.0000 H   0  0  0  0  0  0  0  0  0  0  0  0
    2.1434    1.0700    0.0000 H   0  0  0  0  0  0  0  0  0  0  0  0
    1.2168    0.5351    0.0000 H   0  0  0  0  0  0  0  0  0  0  0  0
    5.7160   -1.3824    0.0000 H   0  0  0  0  0  0  0  0  0  0  0  0
    1.4289   -1.4444    0.0000 H   0  0  0  0  0  0  0  0  0  0  0  0
    0.0000   -1.4824    0.0000 H   0  0  0  0  0  0  0  0  0  0  0  0
   -0.9266   -0.9475    0.0000 H   0  0  0  0  0  0  0  0  0  0  0  0
   -0.7145    1.0700    0.0000 H   0  0  0  0  0  0  0  0  0  0  0  0
   -1.6411    0.5350    0.0000 H   0  0  0  0  0  0  0  0  0  0  0  0
   -1.4289   -1.4444    0.0000 H   0  0  0  0  0  0  0  0  0  0  0  0
   -3.5724    1.0700    0.0000 H   0  0  0  0  0  0  0  0  0  0  0  0
   -4.4990    0.5350    0.0000 H   0  0  0  0  0  0  0  0  0  0  0  0
   -4.2868   -1.4444    0.0000 H   0  0  0  0  0  0  0  0  0  0  0  0
   -6.6423    0.1228    0.0000 H   0  0  0  0  0  0  0  0  0  0  0  0
   -5.7160   -1.4824    0.0000 H   0  0  0  0  0  0  0  0  0  0  0  0
   -6.6425   -0.9472    0.0000 H   0  0  0  0  0  0  0  0  0  0  0  0
    1.6410    1.3600    0.0000 H   0  0  0  0  0  0  0  0  0  0  0  0
   -0.2123    1.3598    0.0000 H   0  0  0  0  0  0  0  0  0  0  0  0
    0.7143    1.8949    0.0000 H   0  0  0  0  0  0  0  0  0  0  0  0
   -1.2168    1.3600    0.0000 H   0  0  0  0  0  0  0  0  0  0  0  0
   -3.0700    1.3600    0.0000 H   0  0  0  0  0  0  0  0  0  0  0  0
   -2.1434    1.8950    0.0000 H   0  0  0  0  0  0  0  0  0  0  0  0
   -4.0746    1.3600    0.0000 H   0  0  0  0  0  0  0  0  0  0  0  0
   -5.9278    1.3600    0.0000 H   0  0  0  0  0  0  0  0  0  0  0  0
   -5.0012    1.8950    0.0000 H   0  0  0  0  0  0  0  0  0  0  0  0
    2.7320   -1.3098    0.0000 H   0  0  0  0  0  0  0  0  0  0  0  0
    4.1612   -1.3099    0.0000 H   0  0  0  0  0  0  0  0  0  0  0  0
  1 21  1  0  0  0  0
  1  2  1  0  0  0  0
  2 12  1  0  0  0  0
  2 25  1  0  0  0  0
  2 26  1  0  0  0  0
  3 17  1  0  0  0  0
  4  5  1  0  0  0  0
  5  7  1  0  0  0  0
  5 27  1  0  0  0  0
  5 28  1  0  0  0  0
  6 29  1  0  0  0  0
  7  8  2  0  0  0  0
  7 30  1  0  0  0  0
  8 20  1  0  0  0  0
  8  9  1  0  0  0  0
  9 10  1  0  0  0  0
  9 31  1  0  0  0  0
  9 32  1  0  0  0  0
 10 11  1  0  0  0  0
 10 33  1  0  0  0  0
 10 34  1  0  0  0  0
 11  1  2  0  0  0  0
 11 35  1  0  0  0  0
 12 13  1  0  0  0  0
 12 36  1  0  0  0  0
 12 37  1  0  0  0  0
 13 14  2  0  0  0  0
 13 38  1  0  0  0  0
 14 22  1  0  0  0  0
 14 15  1  0  0  0  0
 15 39  1  0  0  0  0
 15 40  1  0  0  0  0
 15 41  1  0  0  0  0
 16  4  1  0  0  0  0
 16  3  1  0  0  0  0
 16 18  2  0  0  0  0
 16 23  1  0  0  0  0
 17  6  1  0  0  0  0
 17 19  2  0  0  0  0
 17 24  1  0  0  0  0
 20 42  1  0  0  0  0
 20 43  1  0  0  0  0
 20 44  1  0  0  0  0
 21 45  1  0  0  0  0
 21 46  1  0  0  0  0
 21 47  1  0  0  0  0
 22 48  1  0  0  0  0
 22 49  1  0  0  0  0
 22 50  1  0  0  0  0
 23 51  1  0  0  0  0
 24 52  1  0  0  0  0
M  END
>  <DRUGBANK_ID>
DB07780

>  <COMMON_NAME>
Farnesyl diphosphate

>  <CAS_NUMBER>
13058-04-3

>  <UNII>
79W6B01D07

>  <SYNONYMS>
(2E,6E)-farnesol diphosphate; (2E,6E)-farnesyl diphosphate; (2E,6E)-farnesyl pyrophosphate; (all-E)-farnesyl diphosphate; (E,E)-farnesyl pyrophosphate; 2-trans,6-trans-farnesyl diphosphate; all-trans-farnesyl pyrophosphate; Farnesyl pyrophosphate

$$$$
