
 OpenBabel10282417072D

136140  0  0  0  0  0  0  0  0999 V2000
   -6.4068    0.2635    0.0000 Mg  0  2  0  0  0  0  0  0  0  0  0  0
  -10.2946   -0.9236    0.0000 C   0  0  0  0  0  0  0  0  0  0  0  0
   -9.5100   -1.1787    0.0000 C   0  0  0  0  0  0  0  0  0  0  0  0
   -8.8969   -0.6266    0.0000 C   0  0  0  0  0  0  0  0  0  0  0  0
   -8.8969    0.1968    0.0000 C   0  0  0  0  0  0  0  0  0  0  0  0
   -9.5643    0.6817    0.0000 C   0  0  0  0  0  0  0  0  0  0  0  0
   -9.4780    1.5022    0.0000 O   0  0  0  0  0  0  0  0  0  0  0  0
   -8.1136    0.4513    0.0000 C   0  0  0  0  0  0  0  0  0  0  0  0
   -7.8254    1.2376    0.0000 C   0  0  0  0  0  0  0  0  0  0  0  0
   -7.0731    1.5726    0.0000 C   0  0  0  0  0  0  0  0  0  0  0  0
   -6.8186    2.3558    0.0000 C   0  0  0  0  0  0  0  0  0  0  0  0
   -7.3706    2.9690    0.0000 C   0  0  0  0  0  0  0  0  0  0  0  0
   -7.1156    3.7536    0.0000 C   0  0  0  0  0  0  0  0  0  0  0  0
   -5.9950    2.3558    0.0000 C   0  0  0  0  0  0  0  0  0  0  0  0
   -5.7405    1.5726    0.0000 C   0  0  0  0  0  0  0  0  0  0  0  0
   -6.4068    1.0885    0.0000 N   0  5  0  0  0  0  0  0  0  0  0  0
   -4.9572    1.3181    0.0000 C   0  0  0  0  0  0  0  0  0  0  0  0
   -4.7001    0.5610    0.0000 C   0  0  0  0  0  0  0  0  0  0  0  0
   -5.1841   -0.1051    0.0000 N   0  0  0  0  0  0  0  0  0  0  0  0
   -4.7001   -0.7713    0.0000 C   0  0  0  0  0  0  0  0  0  0  0  0
   -3.9167   -0.5169    0.0000 C   0  0  1  0  0  0  0  0  0  0  0  0
   -3.2493   -1.0019    0.0000 C   0  0  0  0  0  0  0  0  0  0  0  0
   -2.4956   -0.6663    0.0000 C   0  0  0  0  0  0  0  0  0  0  0  0
   -1.8282   -1.1513    0.0000 C   0  0  0  0  0  0  0  0  0  0  0  0
   -1.9144   -1.9718    0.0000 O   0  0  0  0  0  0  0  0  0  0  0  0
   -1.0744   -0.8157    0.0000 O   0  0  0  0  0  0  0  0  0  0  0  0
   -0.4070   -1.3007    0.0000 C   0  0  0  0  0  0  0  0  0  0  0  0
    0.3466   -0.9651    0.0000 C   0  0  0  0  0  0  0  0  0  0  0  0
    1.0140   -1.4501    0.0000 C   0  0  0  0  0  0  0  0  0  0  0  0
    0.9278   -2.2706    0.0000 C   0  0  0  0  0  0  0  0  0  0  0  0
    1.7678   -1.1146    0.0000 C   0  0  0  0  0  0  0  0  0  0  0  0
    2.4352   -1.5995    0.0000 C   0  0  0  0  0  0  0  0  0  0  0  0
    3.1889   -1.2640    0.0000 C   0  0  0  0  0  0  0  0  0  0  0  0
    3.8563   -1.7489    0.0000 C   0  0  2  0  0  0  0  0  0  0  0  0
    3.7701   -2.5694    0.0000 C   0  0  0  0  0  0  0  0  0  0  0  0
    4.6101   -1.4133    0.0000 C   0  0  0  0  0  0  0  0  0  0  0  0
    5.2775   -1.8983    0.0000 C   0  0  0  0  0  0  0  0  0  0  0  0
    6.0312   -1.5627    0.0000 C   0  0  0  0  0  0  0  0  0  0  0  0
    6.6987   -2.0477    0.0000 C   0  0  2  0  0  0  0  0  0  0  0  0
    6.6124   -2.8682    0.0000 C   0  0  0  0  0  0  0  0  0  0  0  0
    7.4523   -1.7121    0.0000 C   0  0  0  0  0  0  0  0  0  0  0  0
    8.1198   -2.1971    0.0000 C   0  0  0  0  0  0  0  0  0  0  0  0
    8.8735   -1.8615    0.0000 C   0  0  0  0  0  0  0  0  0  0  0  0
    9.5410   -2.3465    0.0000 C   0  0  0  0  0  0  0  0  0  0  0  0
   10.2946   -2.0109    0.0000 C   0  0  0  0  0  0  0  0  0  0  0  0
    9.4547   -3.1670    0.0000 C   0  0  0  0  0  0  0  0  0  0  0  0
   -3.9167    0.3066    0.0000 C   0  0  2  0  0  0  0  0  0  0  0  0
   -3.3036    0.8586    0.0000 C   0  0  0  0  0  0  0  0  0  0  0  0
   -4.9011   -1.6270    0.0000 C   0  0  0  0  0  0  0  0  0  0  0  0
   -5.7207   -1.7078    0.0000 C   0  0  0  0  0  0  0  0  0  0  0  0
   -6.4313   -1.2914    0.0000 N   0  5  0  0  0  0  0  0  0  0  0  0
   -7.0468   -1.8387    0.0000 C   0  0  0  0  0  0  0  0  0  0  0  0
   -7.8500   -1.6625    0.0000 C   0  0  0  0  0  0  0  0  0  0  0  0
   -8.1136   -0.8812    0.0000 C   0  0  0  0  0  0  0  0  0  0  0  0
   -7.6294   -0.2149    0.0000 N   0  0  0  0  0  0  0  0  0  0  0  0
   -6.7165   -2.5931    0.0000 C   0  0  0  0  0  0  0  0  0  0  0  0
   -5.8969   -2.5124    0.0000 C   0  0  0  0  0  0  0  0  0  0  0  0
   -5.1864   -2.9286    0.0000 C   0  0  0  0  0  0  0  0  0  0  0  0
   -5.1916   -3.7536    0.0000 O   0  0  0  0  0  0  0  0  0  0  0  0
   -4.5709   -2.3815    0.0000 C   0  0  2  0  0  0  0  0  0  0  0  0
   -3.7650   -2.5581    0.0000 C   0  0  0  0  0  0  0  0  0  0  0  0
   -3.2090   -1.9485    0.0000 O   0  0  0  0  0  0  0  0  0  0  0  0
   -3.5150   -3.3443    0.0000 O   0  0  0  0  0  0  0  0  0  0  0  0
   -2.7091   -3.5210    0.0000 C   0  0  0  0  0  0  0  0  0  0  0  0
   -7.1336   -3.3050    0.0000 C   0  0  0  0  0  0  0  0  0  0  0  0
   -5.5101    3.0232    0.0000 C   0  0  0  0  0  0  0  0  0  0  0  0
  -10.0316    0.4738    0.0000 H   0  0  0  0  0  0  0  0  0  0  0  0
  -10.5169    0.1231    0.0000 H   0  0  0  0  0  0  0  0  0  0  0  0
  -11.0899   -1.6394    0.0000 H   0  0  0  0  0  0  0  0  0  0  0  0
  -11.3122   -0.5928    0.0000 H   0  0  0  0  0  0  0  0  0  0  0  0
   -9.2876   -2.2253    0.0000 H   0  0  0  0  0  0  0  0  0  0  0  0
   -8.4924   -1.5094    0.0000 H   0  0  0  0  0  0  0  0  0  0  0  0
   -8.5794    1.9423    0.0000 H   0  0  0  0  0  0  0  0  0  0  0  0
   -8.3801    2.7545    0.0000 H   0  0  0  0  0  0  0  0  0  0  0  0
   -6.1061    3.9681    0.0000 H   0  0  0  0  0  0  0  0  0  0  0  0
   -7.8061    4.5206    0.0000 H   0  0  0  0  0  0  0  0  0  0  0  0
   -4.2323    2.0526    0.0000 H   0  0  0  0  0  0  0  0  0  0  0  0
   -4.0842   -1.5737    0.0000 H   0  0  0  0  0  0  0  0  0  0  0  0
   -3.3612   -2.0660    0.0000 H   0  0  0  0  0  0  0  0  0  0  0  0
   -2.3837   -1.6308    0.0000 H   0  0  0  0  0  0  0  0  0  0  0  0
   -2.3837    0.3978    0.0000 H   0  0  0  0  0  0  0  0  0  0  0  0
   -1.5181   -0.2312    0.0000 H   0  0  0  0  0  0  0  0  0  0  0  0
   -0.5189   -2.3648    0.0000 H   0  0  0  0  0  0  0  0  0  0  0  0
    0.4587   -1.9296    0.0000 H   0  0  0  0  0  0  0  0  0  0  0  0
    0.4545    0.0612    0.0000 H   0  0  0  0  0  0  0  0  0  0  0  0
   -0.0497   -2.7059    0.0000 H   0  0  0  0  0  0  0  0  0  0  0  0
    1.7935   -2.8995    0.0000 H   0  0  0  0  0  0  0  0  0  0  0  0
    0.8160   -3.3347    0.0000 H   0  0  0  0  0  0  0  0  0  0  0  0
    1.8797   -0.0505    0.0000 H   0  0  0  0  0  0  0  0  0  0  0  0
    2.7453   -0.6794    0.0000 H   0  0  0  0  0  0  0  0  0  0  0  0
    2.3233   -2.6636    0.0000 H   0  0  0  0  0  0  0  0  0  0  0  0
    3.3008   -2.2285    0.0000 H   0  0  0  0  0  0  0  0  0  0  0  0
    3.3008   -0.1999    0.0000 H   0  0  0  0  0  0  0  0  0  0  0  0
    4.1664   -0.8288    0.0000 H   0  0  0  0  0  0  0  0  0  0  0  0
    2.8788   -2.1841    0.0000 H   0  0  0  0  0  0  0  0  0  0  0  0
    2.7926   -3.0047    0.0000 H   0  0  0  0  0  0  0  0  0  0  0  0
    4.6358   -3.1983    0.0000 H   0  0  0  0  0  0  0  0  0  0  0  0
    3.6583   -3.6335    0.0000 H   0  0  0  0  0  0  0  0  0  0  0  0
    4.7220   -0.3492    0.0000 H   0  0  0  0  0  0  0  0  0  0  0  0
    5.5876   -0.9782    0.0000 H   0  0  0  0  0  0  0  0  0  0  0  0
    5.1656   -2.9624    0.0000 H   0  0  0  0  0  0  0  0  0  0  0  0
    6.1431   -2.5272    0.0000 H   0  0  0  0  0  0  0  0  0  0  0  0
    6.1430   -0.4986    0.0000 H   0  0  0  0  0  0  0  0  0  0  0  0
    7.0087   -1.1275    0.0000 H   0  0  0  0  0  0  0  0  0  0  0  0
    5.7212   -2.4829    0.0000 H   0  0  0  0  0  0  0  0  0  0  0  0
    5.6349   -3.3033    0.0000 H   0  0  0  0  0  0  0  0  0  0  0  0
    7.4780   -3.4972    0.0000 H   0  0  0  0  0  0  0  0  0  0  0  0
    6.5005   -3.9323    0.0000 H   0  0  0  0  0  0  0  0  0  0  0  0
    7.5641   -0.6480    0.0000 H   0  0  0  0  0  0  0  0  0  0  0  0
    8.4298   -1.2769    0.0000 H   0  0  0  0  0  0  0  0  0  0  0  0
    8.0080   -3.2612    0.0000 H   0  0  0  0  0  0  0  0  0  0  0  0
    8.9855   -2.8260    0.0000 H   0  0  0  0  0  0  0  0  0  0  0  0
    8.9853   -0.7974    0.0000 H   0  0  0  0  0  0  0  0  0  0  0  0
    9.8510   -1.4263    0.0000 H   0  0  0  0  0  0  0  0  0  0  0  0
   10.4067   -2.9754    0.0000 H   0  0  0  0  0  0  0  0  0  0  0  0
   11.1603   -2.6398    0.0000 H   0  0  0  0  0  0  0  0  0  0  0  0
   10.4064   -0.9468    0.0000 H   0  0  0  0  0  0  0  0  0  0  0  0
   11.2721   -1.5756    0.0000 H   0  0  0  0  0  0  0  0  0  0  0  0
    8.4772   -3.6021    0.0000 H   0  0  0  0  0  0  0  0  0  0  0  0
   10.3203   -3.7960    0.0000 H   0  0  0  0  0  0  0  0  0  0  0  0
    9.3428   -4.2311    0.0000 H   0  0  0  0  0  0  0  0  0  0  0  0
   -2.9392   -0.1286    0.0000 H   0  0  0  0  0  0  0  0  0  0  0  0
   -2.2860    0.5279    0.0000 H   0  0  0  0  0  0  0  0  0  0  0  0
   -3.5260    1.9052    0.0000 H   0  0  0  0  0  0  0  0  0  0  0  0
   -2.5084    1.5745    0.0000 H   0  0  0  0  0  0  0  0  0  0  0  0
   -8.5387   -2.4311    0.0000 H   0  0  0  0  0  0  0  0  0  0  0  0
   -4.3005   -3.4168    0.0000 H   0  0  0  0  0  0  0  0  0  0  0  0
   -2.3850   -4.5407    0.0000 H   0  0  0  0  0  0  0  0  0  0  0  0
   -1.9881   -2.7304    0.0000 H   0  0  0  0  0  0  0  0  0  0  0  0
   -1.6639   -3.7502    0.0000 H   0  0  0  0  0  0  0  0  0  0  0  0
   -8.2036   -3.2982    0.0000 H   0  0  0  0  0  0  0  0  0  0  0  0
   -6.6045   -4.2350    0.0000 H   0  0  0  0  0  0  0  0  0  0  0  0
   -7.6745   -4.2282    0.0000 H   0  0  0  0  0  0  0  0  0  0  0  0
   -4.4460    2.9113    0.0000 H   0  0  0  0  0  0  0  0  0  0  0  0
   -5.9453    4.0007    0.0000 H   0  0  0  0  0  0  0  0  0  0  0  0
   -4.8812    3.8888    0.0000 H   0  0  0  0  0  0  0  0  0  0  0  0
  2  3  1  0  0  0  0
  2 68  1  0  0  0  0
  2 69  1  0  0  0  0
  2 70  1  0  0  0  0
  3  4  1  0  0  0  0
  3 71  1  0  0  0  0
  3 72  1  0  0  0  0
  4  5  2  0  0  0  0
  4 54  1  0  0  0  0
  5  6  1  0  0  0  0
  5  8  1  0  0  0  0
  6  7  2  0  0  0  0
  6 67  1  0  0  0  0
  8  9  2  0  0  0  0
  8 55  1  0  0  0  0
  9 10  1  0  0  0  0
  9 73  1  0  0  0  0
 10 11  2  0  0  0  0
 10 16  1  0  0  0  0
 11 12  1  0  0  0  0
 11 14  1  0  0  0  0
 12 13  2  0  0  0  0
 12 74  1  0  0  0  0
 13 75  1  0  0  0  0
 13 76  1  0  0  0  0
 14 15  2  0  0  0  0
 14 66  1  0  0  0  0
 15 16  1  0  0  0  0
 15 17  1  0  0  0  0
 17 18  2  0  0  0  0
 17 77  1  0  0  0  0
 18 19  1  0  0  0  0
 18 47  1  0  0  0  0
 19 20  2  0  0  0  0
 20 21  1  0  0  0  0
 20 49  1  0  0  0  0
 21 22  1  0  0  0  0
 21 47  1  0  0  0  0
 21 78  1  1  0  0  0
 22 23  1  0  0  0  0
 22 79  1  0  0  0  0
 22 80  1  0  0  0  0
 23 24  1  0  0  0  0
 23 81  1  0  0  0  0
 23 82  1  0  0  0  0
 24 25  2  0  0  0  0
 24 26  1  0  0  0  0
 26 27  1  0  0  0  0
 27 28  1  0  0  0  0
 27 83  1  0  0  0  0
 27 84  1  0  0  0  0
 28 29  2  0  0  0  0
 28 85  1  0  0  0  0
 29 30  1  0  0  0  0
 29 31  1  0  0  0  0
 30 86  1  0  0  0  0
 30 87  1  0  0  0  0
 30 88  1  0  0  0  0
 31 32  1  0  0  0  0
 31 89  1  0  0  0  0
 31 90  1  0  0  0  0
 32 33  1  0  0  0  0
 32 91  1  0  0  0  0
 32 92  1  0  0  0  0
 33 34  1  0  0  0  0
 33 93  1  0  0  0  0
 33 94  1  0  0  0  0
 34 35  1  0  0  0  0
 34 36  1  0  0  0  0
 34 95  1  6  0  0  0
 35 96  1  0  0  0  0
 35 97  1  0  0  0  0
 35 98  1  0  0  0  0
 36 37  1  0  0  0  0
 36 99  1  0  0  0  0
 36100  1  0  0  0  0
 37 38  1  0  0  0  0
 37101  1  0  0  0  0
 37102  1  0  0  0  0
 38 39  1  0  0  0  0
 38103  1  0  0  0  0
 38104  1  0  0  0  0
 39 40  1  0  0  0  0
 39 41  1  0  0  0  0
 39105  1  6  0  0  0
 40106  1  0  0  0  0
 40107  1  0  0  0  0
 40108  1  0  0  0  0
 41 42  1  0  0  0  0
 41109  1  0  0  0  0
 41110  1  0  0  0  0
 42 43  1  0  0  0  0
 42111  1  0  0  0  0
 42112  1  0  0  0  0
 43 44  1  0  0  0  0
 43113  1  0  0  0  0
 43114  1  0  0  0  0
 44 45  1  0  0  0  0
 44 46  1  0  0  0  0
 44115  1  0  0  0  0
 45116  1  0  0  0  0
 45117  1  0  0  0  0
 45118  1  0  0  0  0
 46119  1  0  0  0  0
 46120  1  0  0  0  0
 46121  1  0  0  0  0
 47 48  1  0  0  0  0
 47122  1  6  0  0  0
 48123  1  0  0  0  0
 48124  1  0  0  0  0
 48125  1  0  0  0  0
 49 50  2  0  0  0  0
 49 60  1  0  0  0  0
 50 51  1  0  0  0  0
 50 57  1  0  0  0  0
 51 52  1  0  0  0  0
 52 53  2  0  0  0  0
 52 56  1  0  0  0  0
 53 54  1  0  0  0  0
 53126  1  0  0  0  0
 54 55  2  0  0  0  0
 56 57  2  0  0  0  0
 56 65  1  0  0  0  0
 57 58  1  0  0  0  0
 58 59  2  0  0  0  0
 58 60  1  0  0  0  0
 60 61  1  0  0  0  0
 60127  1  6  0  0  0
 61 62  2  0  0  0  0
 61 63  1  0  0  0  0
 63 64  1  0  0  0  0
 64128  1  0  0  0  0
 64129  1  0  0  0  0
 64130  1  0  0  0  0
 65131  1  0  0  0  0
 65132  1  0  0  0  0
 65133  1  0  0  0  0
 66134  1  0  0  0  0
 66135  1  0  0  0  0
 66136  1  0  0  0  0
M  CHG  3   1   2  16  -1  51  -1
M  END
>  <DRUGBANK_ID>
DB04506

>  <SECONDARY_ACCESSION_NUMBERS>
EXPT00908

>  <COMMON_NAME>
Chlorophyll B

>  <CAS_NUMBER>
519-62-0

>  <UNII>
5712ZB110R

$$$$
