J4Z
 OpenBabel10282417072D

 40 44  0  0  0  0  0  0  0  0999 V2000
   -0.2684    0.4531    0.0000 C   0  0  0  0  0  0  0  0  0  0  0  0
    1.1605    0.4531    0.0000 N   0  0  0  0  0  0  0  0  0  0  0  0
    0.4460    0.0406    0.0000 C   0  0  0  0  0  0  0  0  0  0  0  0
    0.4460    1.6906    0.0000 N   0  0  0  0  0  0  0  0  0  0  0  0
    0.4460   -0.7844    0.0000 C   0  0  0  0  0  0  0  0  0  0  0  0
   -0.3386    1.4357    0.0000 N   0  0  0  0  0  0  0  0  0  0  0  0
   -0.2684   -1.1969    0.0000 C   0  0  0  0  0  0  0  0  0  0  0  0
   -0.3386    2.7705    0.0000 N   0  0  0  0  0  0  0  0  0  0  0  0
   -0.2684   -2.0219    0.0000 C   0  0  0  0  0  0  0  0  0  0  0  0
    1.1605    2.9281    0.0000 N   0  0  0  0  0  0  0  0  0  0  0  0
   -0.9829   -2.4344    0.0000 C   0  0  0  0  0  0  0  0  0  0  0  0
   -1.6974   -2.0219    0.0000 C   0  0  0  0  0  0  0  0  0  0  0  0
   -1.6974   -1.1969    0.0000 C   0  0  0  0  0  0  0  0  0  0  0  0
   -0.9829   -0.7844    0.0000 C   0  0  0  0  0  0  0  0  0  0  0  0
   -0.9829    0.0406    0.0000 C   0  0  0  0  0  0  0  0  0  0  0  0
    1.1605    1.2781    0.0000 C   0  0  0  0  0  0  0  0  0  0  0  0
    1.8750    1.6906    0.0000 C   0  0  0  0  0  0  0  0  0  0  0  0
    1.8750    2.5156    0.0000 C   0  0  0  0  0  0  0  0  0  0  0  0
    2.5894    2.9281    0.0000 C   0  0  0  0  0  0  0  0  0  0  0  0
    0.4460    2.5156    0.0000 C   0  0  0  0  0  0  0  0  0  0  0  0
   -0.8235    2.1031    0.0000 C   0  0  0  0  0  0  0  0  0  0  0  0
   -0.9829   -3.2594    0.0000 C   0  0  0  0  0  0  0  0  0  0  0  0
   -1.6974   -3.6719    0.0000 C   0  0  0  0  0  0  0  0  0  0  0  0
   -2.4118   -3.2594    0.0000 C   0  0  0  0  0  0  0  0  0  0  0  0
   -2.4118   -2.4344    0.0000 C   0  0  0  0  0  0  0  0  0  0  0  0
   -0.2684    1.4851    0.0000 H   0  0  0  0  0  0  0  0  0  0  0  0
    2.0131   -0.0392    0.0000 H   0  0  0  0  0  0  0  0  0  0  0  0
    1.3397   -1.3004    0.0000 H   0  0  0  0  0  0  0  0  0  0  0  0
    0.6253   -2.5379    0.0000 H   0  0  0  0  0  0  0  0  0  0  0  0
   -2.5911   -0.6809    0.0000 H   0  0  0  0  0  0  0  0  0  0  0  0
   -1.8766    0.5566    0.0000 H   0  0  0  0  0  0  0  0  0  0  0  0
    2.7687    1.1746    0.0000 H   0  0  0  0  0  0  0  0  0  0  0  0
    3.5161    2.3931    0.0000 H   0  0  0  0  0  0  0  0  0  0  0  0
    2.5894    3.9981    0.0000 H   0  0  0  0  0  0  0  0  0  0  0  0
    3.5160    3.4631    0.0000 H   0  0  0  0  0  0  0  0  0  0  0  0
   -1.8555    2.1031    0.0000 H   0  0  0  0  0  0  0  0  0  0  0  0
   -0.0892   -3.7754    0.0000 H   0  0  0  0  0  0  0  0  0  0  0  0
   -1.6974   -4.7039    0.0000 H   0  0  0  0  0  0  0  0  0  0  0  0
   -3.3055   -3.7754    0.0000 H   0  0  0  0  0  0  0  0  0  0  0  0
   -3.3055   -1.9184    0.0000 H   0  0  0  0  0  0  0  0  0  0  0  0
  1  3  1  0  0  0  0
  1 26  1  0  0  0  0
  2 16  1  0  0  0  0
  2 27  1  0  0  0  0
  3  2  1  0  0  0  0
  4 20  1  0  0  0  0
  5  3  2  0  0  0  0
  5 28  1  0  0  0  0
  6  4  1  0  0  0  0
  6 21  2  0  0  0  0
  7  5  1  0  0  0  0
  8 20  2  0  0  0  0
  9  7  2  0  0  0  0
  9 29  1  0  0  0  0
 11  9  1  0  0  0  0
 12 11  1  0  0  0  0
 12 13  1  0  0  0  0
 13 14  2  0  0  0  0
 13 30  1  0  0  0  0
 14  7  1  0  0  0  0
 14 15  1  0  0  0  0
 15  1  2  0  0  0  0
 15 31  1  0  0  0  0
 16  4  1  0  0  0  0
 16 17  2  0  0  0  0
 17 18  1  0  0  0  0
 17 32  1  0  0  0  0
 18 10  2  0  0  0  0
 18 19  1  0  0  0  0
 19 33  1  0  0  0  0
 19 34  1  0  0  0  0
 19 35  1  0  0  0  0
 20 10  1  0  0  0  0
 21  8  1  0  0  0  0
 21 36  1  0  0  0  0
 22 11  2  0  0  0  0
 22 37  1  0  0  0  0
 23 22  1  0  0  0  0
 23 38  1  0  0  0  0
 24 23  2  0  0  0  0
 24 25  1  0  0  0  0
 24 39  1  0  0  0  0
 25 12  2  0  0  0  0
 25 40  1  0  0  0  0
M  END
>  <DRUGBANK_ID>
DB08006

>  <COMMON_NAME>
N-anthracen-2-yl-5-methyl[1,2,4]triazolo[1,5-a]pyrimidin-7-amine

$$$$
