
 OpenBabel10282417072D

 45 47  0  0  0  0  0  0  0  0999 V2000
    3.6958   -2.3625    0.0000 S   0  0  0  0  0  0  0  0  0  0  0  0
    6.4888    0.0328    0.0000 O   0  0  0  0  0  0  0  0  0  0  0  0
    3.6958   -0.7783    0.0000 N   0  0  0  0  0  0  0  0  0  0  0  0
    2.3240    1.5979    0.0000 N   0  0  0  0  0  0  0  0  0  0  0  0
    3.6958    0.0137    0.0000 C   0  0  0  0  0  0  0  0  0  0  0  0
    3.0099    0.4098    0.0000 C   0  0  0  0  0  0  0  0  0  0  0  0
    4.3818   -1.1744    0.0000 C   0  0  0  0  0  0  0  0  0  0  0  0
    3.0099   -1.1744    0.0000 C   0  0  0  0  0  0  0  0  0  0  0  0
    3.0099    1.2018    0.0000 C   0  0  0  0  0  0  0  0  0  0  0  0
    4.3818   -1.9664    0.0000 C   0  0  0  0  0  0  0  0  0  0  0  0
    3.0099   -1.9664    0.0000 C   0  0  0  0  0  0  0  0  0  0  0  0
    5.0899   -0.7509    0.0000 C   0  0  0  0  0  0  0  0  0  0  0  0
    2.3018   -0.7509    0.0000 C   0  0  0  0  0  0  0  0  0  0  0  0
    5.8075   -1.1580    0.0000 C   0  0  0  0  0  0  0  0  0  0  0  0
    5.0899   -2.3899    0.0000 C   0  0  0  0  0  0  0  0  0  0  0  0
    2.3018   -2.3899    0.0000 C   0  0  0  0  0  0  0  0  0  0  0  0
    5.8075   -1.9830    0.0000 C   0  0  0  0  0  0  0  0  0  0  0  0
    1.5841   -1.1580    0.0000 C   0  0  0  0  0  0  0  0  0  0  0  0
    2.3240    2.3899    0.0000 C   0  0  0  0  0  0  0  0  0  0  0  0
    1.6380    1.2018    0.0000 C   0  0  0  0  0  0  0  0  0  0  0  0
    1.5841   -1.9830    0.0000 C   0  0  0  0  0  0  0  0  0  0  0  0
    6.4920   -0.7592    0.0000 C   0  0  0  0  0  0  0  0  0  0  0  0
    7.1794   -1.1526    0.0000 C   0  0  0  0  0  0  0  0  0  0  0  0
    4.6225    0.5487    0.0000 H   0  0  0  0  0  0  0  0  0  0  0  0
    3.6959    1.0837    0.0000 H   0  0  0  0  0  0  0  0  0  0  0  0
    2.0832   -0.1252    0.0000 H   0  0  0  0  0  0  0  0  0  0  0  0
    2.0833    0.9448    0.0000 H   0  0  0  0  0  0  0  0  0  0  0  0
    3.9366    1.7368    0.0000 H   0  0  0  0  0  0  0  0  0  0  0  0
    3.9365    0.6668    0.0000 H   0  0  0  0  0  0  0  0  0  0  0  0
    5.0780    0.2810    0.0000 H   0  0  0  0  0  0  0  0  0  0  0  0
    2.3137    0.2810    0.0000 H   0  0  0  0  0  0  0  0  0  0  0  0
    5.0779   -3.4218    0.0000 H   0  0  0  0  0  0  0  0  0  0  0  0
    2.3138   -3.4218    0.0000 H   0  0  0  0  0  0  0  0  0  0  0  0
    6.6992   -2.5025    0.0000 H   0  0  0  0  0  0  0  0  0  0  0  0
    0.6923   -0.6386    0.0000 H   0  0  0  0  0  0  0  0  0  0  0  0
    3.2506    2.9249    0.0000 H   0  0  0  0  0  0  0  0  0  0  0  0
    1.3974    2.9249    0.0000 H   0  0  0  0  0  0  0  0  0  0  0  0
    2.3240    3.4599    0.0000 H   0  0  0  0  0  0  0  0  0  0  0  0
    0.7113    1.7368    0.0000 H   0  0  0  0  0  0  0  0  0  0  0  0
    1.6380    0.1318    0.0000 H   0  0  0  0  0  0  0  0  0  0  0  0
    0.7114    0.6668    0.0000 H   0  0  0  0  0  0  0  0  0  0  0  0
    0.6924   -2.5025    0.0000 H   0  0  0  0  0  0  0  0  0  0  0  0
    7.1835   -2.2226    0.0000 H   0  0  0  0  0  0  0  0  0  0  0  0
    8.1040   -0.6141    0.0000 H   0  0  0  0  0  0  0  0  0  0  0  0
    8.1081   -1.6841    0.0000 H   0  0  0  0  0  0  0  0  0  0  0  0
  1 10  1  0  0  0  0
  1 11  1  0  0  0  0
  2 22  2  0  0  0  0
  3  5  1  0  0  0  0
  3  7  1  0  0  0  0
  3  8  1  0  0  0  0
  4  9  1  0  0  0  0
  4 19  1  0  0  0  0
  4 20  1  0  0  0  0
  5  6  1  0  0  0  0
  5 24  1  0  0  0  0
  5 25  1  0  0  0  0
  6  9  1  0  0  0  0
  6 26  1  0  0  0  0
  6 27  1  0  0  0  0
  7 10  2  0  0  0  0
  7 12  1  0  0  0  0
  8 11  1  0  0  0  0
  8 13  2  0  0  0  0
  9 28  1  0  0  0  0
  9 29  1  0  0  0  0
 10 15  1  0  0  0  0
 11 16  2  0  0  0  0
 12 14  2  0  0  0  0
 12 30  1  0  0  0  0
 13 18  1  0  0  0  0
 13 31  1  0  0  0  0
 14 17  1  0  0  0  0
 14 22  1  0  0  0  0
 15 17  2  0  0  0  0
 15 32  1  0  0  0  0
 16 21  1  0  0  0  0
 16 33  1  0  0  0  0
 17 34  1  0  0  0  0
 18 21  2  0  0  0  0
 18 35  1  0  0  0  0
 19 36  1  0  0  0  0
 19 37  1  0  0  0  0
 19 38  1  0  0  0  0
 20 39  1  0  0  0  0
 20 40  1  0  0  0  0
 20 41  1  0  0  0  0
 21 42  1  0  0  0  0
 22 23  1  0  0  0  0
 23 43  1  0  0  0  0
 23 44  1  0  0  0  0
 23 45  1  0  0  0  0
M  END
>  <DRUGBANK_ID>
DB01614

>  <COMMON_NAME>
Acepromazine

>  <CAS_NUMBER>
61-00-7

>  <UNII>
54EJ303F0R

>  <SYNONYMS>
1-[10-(3-dimethylamino-propyl)-10H-phenothiazin-2-yl]-ethanone; 10-(3-dimethylaminopropyl)phenothiazin-3-yl methyl ketone; 10-(3-dimethylaminopropyl)phenothiazine-3-ethylone; Acepromazina; Acepromazine; Acepromazinum; Acetazine; Acetopromazine; Acetylpromazine

$$$$
