
 OpenBabel10282417072D

 54 56  0  0  0  0  0  0  0  0999 V2000
    0.7145    2.0625    0.0000 C   0  0  0  0  0  0  0  0  0  0  0  0
    2.6852    3.2940    0.0000 C   0  0  0  0  0  0  0  0  0  0  0  0
    2.0013    2.8326    0.0000 C   0  0  0  0  0  0  0  0  0  0  0  0
    3.4267    2.9323    0.0000 C   0  0  0  0  0  0  0  0  0  0  0  0
    2.0588    2.0096    0.0000 C   0  0  0  0  0  0  0  0  0  0  0  0
    3.4843    2.1093    0.0000 C   0  0  0  0  0  0  0  0  0  0  0  0
   -0.0000    0.8250    0.0000 C   0  0  0  0  0  0  0  0  0  0  0  0
    3.6824    0.8538    0.0000 C   0  0  0  0  0  0  0  0  0  0  0  0
    2.4706    0.0966    0.0000 C   0  0  0  0  0  0  0  0  0  0  0  0
   -0.7145    1.2375    0.0000 C   0  0  0  0  0  0  0  0  0  0  0  0
   -2.1434    1.2375    0.0000 C   0  0  0  0  0  0  0  0  0  0  0  0
   -1.4289    0.0000    0.0000 C   0  0  0  0  0  0  0  0  0  0  0  0
    4.1196    0.1542    0.0000 C   0  0  0  0  0  0  0  0  0  0  0  0
    2.9078   -0.6031    0.0000 C   0  0  0  0  0  0  0  0  0  0  0  0
   -2.8579    0.8250    0.0000 C   0  0  0  0  0  0  0  0  0  0  0  0
   -2.1434   -0.4125    0.0000 C   0  0  0  0  0  0  0  0  0  0  0  0
    0.7145    1.2375    0.0000 C   0  0  3  0  0  0  0  0  0  0  0  0
    2.8003    1.6480    0.0000 C   0  0  0  0  0  0  0  0  0  0  0  0
    2.1434    1.2375    0.0000 C   0  0  0  0  0  0  0  0  0  0  0  0
    2.8579    0.8250    0.0000 C   0  0  0  0  0  0  0  0  0  0  0  0
   -1.4289    0.8250    0.0000 N   0  0  0  0  0  0  0  0  0  0  0  0
    1.6585    1.9049    0.0000 O   0  0  0  0  0  0  0  0  0  0  0  0
    3.7323   -0.5743    0.0000 O   0  0  0  0  0  0  0  0  0  0  0  0
   -2.8579   -0.0000    0.0000 O   0  0  0  0  0  0  0  0  0  0  0  0
    1.4289    0.8250    0.0000 O   0  0  0  0  0  0  0  0  0  0  0  0
    1.6411    2.5975    0.0000 H   0  0  0  0  0  0  0  0  0  0  0  0
   -0.2121    2.5975    0.0000 H   0  0  0  0  0  0  0  0  0  0  0  0
    0.7145    3.1325    0.0000 H   0  0  0  0  0  0  0  0  0  0  0  0
    2.6132    4.3235    0.0000 H   0  0  0  0  0  0  0  0  0  0  0  0
    1.0737    3.2850    0.0000 H   0  0  0  0  0  0  0  0  0  0  0  0
    4.2823    3.5094    0.0000 H   0  0  0  0  0  0  0  0  0  0  0  0
    1.2032    1.4325    0.0000 H   0  0  0  0  0  0  0  0  0  0  0  0
    4.4119    1.6569    0.0000 H   0  0  0  0  0  0  0  0  0  0  0  0
    0.0000   -0.2450    0.0000 H   0  0  0  0  0  0  0  0  0  0  0  0
    0.9266    0.2900    0.0000 H   0  0  0  0  0  0  0  0  0  0  0  0
    4.1847    1.7986    0.0000 H   0  0  0  0  0  0  0  0  0  0  0  0
    3.1154    1.7612    0.0000 H   0  0  0  0  0  0  0  0  0  0  0  0
    1.4013    0.0593    0.0000 H   0  0  0  0  0  0  0  0  0  0  0  0
    1.9036    1.0040    0.0000 H   0  0  0  0  0  0  0  0  0  0  0  0
   -0.7145    2.3075    0.0000 H   0  0  0  0  0  0  0  0  0  0  0  0
   -1.6412    1.7725    0.0000 H   0  0  0  0  0  0  0  0  0  0  0  0
   -2.1434    2.3075    0.0000 H   0  0  0  0  0  0  0  0  0  0  0  0
   -1.2168    1.7725    0.0000 H   0  0  0  0  0  0  0  0  0  0  0  0
   -0.5023   -0.5350    0.0000 H   0  0  0  0  0  0  0  0  0  0  0  0
   -0.5023    0.5350    0.0000 H   0  0  0  0  0  0  0  0  0  0  0  0
    5.1889    0.1916    0.0000 H   0  0  0  0  0  0  0  0  0  0  0  0
    4.6867   -0.7532    0.0000 H   0  0  0  0  0  0  0  0  0  0  0  0
    2.4055   -1.5479    0.0000 H   0  0  0  0  0  0  0  0  0  0  0  0
    3.4748   -1.5105    0.0000 H   0  0  0  0  0  0  0  0  0  0  0  0
   -3.7845    1.3600    0.0000 H   0  0  0  0  0  0  0  0  0  0  0  0
   -3.7845    0.2900    0.0000 H   0  0  0  0  0  0  0  0  0  0  0  0
   -2.1434   -1.4825    0.0000 H   0  0  0  0  0  0  0  0  0  0  0  0
   -3.0700   -0.9475    0.0000 H   0  0  0  0  0  0  0  0  0  0  0  0
   -0.2121    1.7725    0.0000 H   0  0  0  0  0  0  0  0  0  0  0  0
  1 26  1  0  0  0  0
  1 27  1  0  0  0  0
  1 28  1  0  0  0  0
  2 29  1  0  0  0  0
  3  2  2  0  0  0  0
  3 30  1  0  0  0  0
  4  2  1  0  0  0  0
  4 31  1  0  0  0  0
  5  3  1  0  0  0  0
  5 32  1  0  0  0  0
  6  4  2  0  0  0  0
  6 33  1  0  0  0  0
  7 34  1  0  0  0  0
  7 35  1  0  0  0  0
  8 36  1  0  0  0  0
  8 37  1  0  0  0  0
  9 38  1  0  0  0  0
  9 39  1  0  0  0  0
 10  7  1  0  0  0  0
 10 40  1  0  0  0  0
 10 41  1  0  0  0  0
 11 42  1  0  0  0  0
 11 43  1  0  0  0  0
 12 44  1  0  0  0  0
 12 45  1  0  0  0  0
 13  8  1  0  0  0  0
 13 46  1  0  0  0  0
 13 47  1  0  0  0  0
 14  9  1  0  0  0  0
 14 48  1  0  0  0  0
 14 49  1  0  0  0  0
 15 11  1  0  0  0  0
 15 50  1  0  0  0  0
 15 51  1  0  0  0  0
 16 12  1  0  0  0  0
 16 52  1  0  0  0  0
 16 53  1  0  0  0  0
 17  1  1  0  0  0  0
 17  7  1  0  0  0  0
 17 54  1  0  0  0  0
 18  5  2  0  0  0  0
 18  6  1  0  0  0  0
 20  8  1  0  0  0  0
 20  9  1  0  0  0  0
 20 18  1  0  0  0  0
 20 19  1  0  0  0  0
 21 10  1  0  0  0  0
 21 11  1  0  0  0  0
 21 12  1  0  0  0  0
 22 19  2  0  0  0  0
 23 13  1  0  0  0  0
 23 14  1  0  0  0  0
 24 15  1  0  0  0  0
 24 16  1  0  0  0  0
 25 17  1  0  0  0  0
 25 19  1  0  0  0  0
M  END
>  <DRUGBANK_ID>
DB13825

>  <COMMON_NAME>
Fedrilate

>  <CAS_NUMBER>
23271-74-1

>  <UNII>
NT86R8M7J5

>  <SYNONYMS>
Fedrilate

$$$$
