
 OpenBabel10282417072D

134133  0  0  0  0  0  0  0  0999 V2000
    0.7139    0.4125    0.0000 C   0  0  2  0  0  0  0  0  0  0  0  0
   -0.0003    0.8239    0.0000 C   0  0  0  0  0  0  0  0  0  0  0  0
   -0.7146    0.4125    0.0000 O   0  0  0  0  0  0  0  0  0  0  0  0
    1.4281    0.8254    0.0000 C   0  0  0  0  0  0  0  0  0  0  0  0
    2.1427    0.4125    0.0000 O   0  0  0  0  0  0  0  0  0  0  0  0
    3.5714    0.4128    0.0000 O   0  0  0  0  0  0  0  0  0  0  0  0
    4.2861    0.8254    0.0000 C   0  0  0  0  0  0  0  0  0  0  0  0
    5.0005    0.4128    0.0000 C   0  0  0  0  0  0  0  0  0  0  0  0
    5.7150    0.8254    0.0000 N   0  3  0  0  0  0  0  0  0  0  0  0
    2.8570    0.8252    0.0000 P   0  0  3  0  0  0  0  0  0  0  0  0
    2.8568    1.6499    0.0000 O   0  0  0  0  0  0  0  0  0  0  0  0
    3.0704    0.0283    0.0000 O   0  5  0  0  0  0  0  0  0  0  0  0
    5.7150    1.6501    0.0000 C   0  0  0  0  0  0  0  0  0  0  0  0
    6.4296    1.2377    0.0000 C   0  0  0  0  0  0  0  0  0  0  0  0
    6.4296    0.4128    0.0000 C   0  0  0  0  0  0  0  0  0  0  0  0
    0.7146   -0.4124    0.0000 O   0  0  0  0  0  0  0  0  0  0  0  0
   -7.1450    0.8251    0.0000 C   0  0  0  0  0  0  0  0  0  0  0  0
   -6.4306    0.4125    0.0000 C   0  0  0  0  0  0  0  0  0  0  0  0
   -1.4290    0.8251    0.0000 C   0  0  0  0  0  0  0  0  0  0  0  0
   -2.1435    0.4125    0.0000 C   0  0  0  0  0  0  0  0  0  0  0  0
   -2.8580    0.8251    0.0000 C   0  0  0  0  0  0  0  0  0  0  0  0
   -3.5726    0.4125    0.0000 C   0  0  0  0  0  0  0  0  0  0  0  0
   -4.2870    0.8251    0.0000 C   0  0  0  0  0  0  0  0  0  0  0  0
   -5.0016    0.4125    0.0000 C   0  0  0  0  0  0  0  0  0  0  0  0
   -5.7159    0.8251    0.0000 C   0  0  0  0  0  0  0  0  0  0  0  0
   -1.4290    1.6501    0.0000 O   0  0  0  0  0  0  0  0  0  0  0  0
   -7.1450    1.6501    0.0000 C   0  0  0  0  0  0  0  0  0  0  0  0
   -6.4307    2.0626    0.0000 C   0  0  0  0  0  0  0  0  0  0  0  0
   -6.4307    2.8876    0.0000 C   0  0  0  0  0  0  0  0  0  0  0  0
   -5.7162    3.3001    0.0000 C   0  0  0  0  0  0  0  0  0  0  0  0
   -5.0016    2.8877    0.0000 C   0  0  0  0  0  0  0  0  0  0  0  0
   -4.2871    3.3003    0.0000 C   0  0  0  0  0  0  0  0  0  0  0  0
   -3.5727    2.8878    0.0000 C   0  0  0  0  0  0  0  0  0  0  0  0
   -2.8582    3.3003    0.0000 C   0  0  0  0  0  0  0  0  0  0  0  0
   -2.1437    2.8878    0.0000 C   0  0  0  0  0  0  0  0  0  0  0  0
    7.1450   -0.8249    0.0000 C   0  0  0  0  0  0  0  0  0  0  0  0
    6.4306   -0.4124    0.0000 C   0  0  0  0  0  0  0  0  0  0  0  0
    1.4290   -0.8249    0.0000 C   0  0  0  0  0  0  0  0  0  0  0  0
    2.1435   -0.4124    0.0000 C   0  0  0  0  0  0  0  0  0  0  0  0
    2.8580   -0.8249    0.0000 C   0  0  0  0  0  0  0  0  0  0  0  0
    3.5726   -0.4124    0.0000 C   0  0  0  0  0  0  0  0  0  0  0  0
    4.2870   -0.8249    0.0000 C   0  0  0  0  0  0  0  0  0  0  0  0
    5.0016   -0.4124    0.0000 C   0  0  0  0  0  0  0  0  0  0  0  0
    5.7159   -0.8249    0.0000 C   0  0  0  0  0  0  0  0  0  0  0  0
    1.4290   -1.6500    0.0000 O   0  0  0  0  0  0  0  0  0  0  0  0
    7.1450   -1.6500    0.0000 C   0  0  0  0  0  0  0  0  0  0  0  0
    6.4307   -2.0625    0.0000 C   0  0  0  0  0  0  0  0  0  0  0  0
    6.4307   -2.8875    0.0000 C   0  0  0  0  0  0  0  0  0  0  0  0
    5.7162   -3.3000    0.0000 C   0  0  0  0  0  0  0  0  0  0  0  0
    5.0016   -2.8876    0.0000 C   0  0  0  0  0  0  0  0  0  0  0  0
    4.2871   -3.3001    0.0000 C   0  0  0  0  0  0  0  0  0  0  0  0
    3.5727   -2.8877    0.0000 C   0  0  0  0  0  0  0  0  0  0  0  0
    2.8582   -3.3003    0.0000 C   0  0  0  0  0  0  0  0  0  0  0  0
    2.1437   -2.8877    0.0000 C   0  0  0  0  0  0  0  0  0  0  0  0
   -0.2123   -0.1234    0.0000 H   0  0  0  0  0  0  0  0  0  0  0  0
   -0.0003    1.8939    0.0000 H   0  0  0  0  0  0  0  0  0  0  0  0
   -0.9267    1.3594    0.0000 H   0  0  0  0  0  0  0  0  0  0  0  0
    1.4280    1.8954    0.0000 H   0  0  0  0  0  0  0  0  0  0  0  0
    2.3548    1.3603    0.0000 H   0  0  0  0  0  0  0  0  0  0  0  0
    4.2862    1.8954    0.0000 H   0  0  0  0  0  0  0  0  0  0  0  0
    5.2128    1.3603    0.0000 H   0  0  0  0  0  0  0  0  0  0  0  0
    5.0005   -0.6572    0.0000 H   0  0  0  0  0  0  0  0  0  0  0  0
    5.9272   -0.1222    0.0000 H   0  0  0  0  0  0  0  0  0  0  0  0
    6.6416    2.1851    0.0000 H   0  0  0  0  0  0  0  0  0  0  0  0
    4.7884    2.1851    0.0000 H   0  0  0  0  0  0  0  0  0  0  0  0
    5.7150    2.7201    0.0000 H   0  0  0  0  0  0  0  0  0  0  0  0
    7.3561    0.7024    0.0000 H   0  0  0  0  0  0  0  0  0  0  0  0
    6.4299    2.3077    0.0000 H   0  0  0  0  0  0  0  0  0  0  0  0
    7.3564    1.7724    0.0000 H   0  0  0  0  0  0  0  0  0  0  0  0
    6.4296   -0.6572    0.0000 H   0  0  0  0  0  0  0  0  0  0  0  0
    7.3563    0.9478    0.0000 H   0  0  0  0  0  0  0  0  0  0  0  0
    7.3562   -0.1222    0.0000 H   0  0  0  0  0  0  0  0  0  0  0  0
   -8.0388    0.3092    0.0000 H   0  0  0  0  0  0  0  0  0  0  0  0
   -6.4307   -0.6575    0.0000 H   0  0  0  0  0  0  0  0  0  0  0  0
   -5.5040   -0.1226    0.0000 H   0  0  0  0  0  0  0  0  0  0  0  0
   -2.1435   -0.6575    0.0000 H   0  0  0  0  0  0  0  0  0  0  0  0
   -3.0702   -0.1225    0.0000 H   0  0  0  0  0  0  0  0  0  0  0  0
   -2.8580    1.8951    0.0000 H   0  0  0  0  0  0  0  0  0  0  0  0
   -3.7846    1.3601    0.0000 H   0  0  0  0  0  0  0  0  0  0  0  0
   -3.5727   -0.6575    0.0000 H   0  0  0  0  0  0  0  0  0  0  0  0
   -4.4993   -0.1224    0.0000 H   0  0  0  0  0  0  0  0  0  0  0  0
   -4.2869    1.8951    0.0000 H   0  0  0  0  0  0  0  0  0  0  0  0
   -5.2136    1.3601    0.0000 H   0  0  0  0  0  0  0  0  0  0  0  0
   -5.0017   -0.6575    0.0000 H   0  0  0  0  0  0  0  0  0  0  0  0
   -5.9283   -0.1224    0.0000 H   0  0  0  0  0  0  0  0  0  0  0  0
   -5.7158    1.8951    0.0000 H   0  0  0  0  0  0  0  0  0  0  0  0
   -4.7892    1.3599    0.0000 H   0  0  0  0  0  0  0  0  0  0  0  0
   -8.0388    2.1661    0.0000 H   0  0  0  0  0  0  0  0  0  0  0  0
   -5.5040    1.5276    0.0000 H   0  0  0  0  0  0  0  0  0  0  0  0
   -5.5041    2.5976    0.0000 H   0  0  0  0  0  0  0  0  0  0  0  0
   -7.3244    3.4036    0.0000 H   0  0  0  0  0  0  0  0  0  0  0  0
   -5.7163    4.3321    0.0000 H   0  0  0  0  0  0  0  0  0  0  0  0
   -5.0015    1.8177    0.0000 H   0  0  0  0  0  0  0  0  0  0  0  0
   -4.0749    2.3528    0.0000 H   0  0  0  0  0  0  0  0  0  0  0  0
   -4.2871    4.3703    0.0000 H   0  0  0  0  0  0  0  0  0  0  0  0
   -3.3604    3.8353    0.0000 H   0  0  0  0  0  0  0  0  0  0  0  0
   -3.5727    1.8178    0.0000 H   0  0  0  0  0  0  0  0  0  0  0  0
   -2.6461    2.3528    0.0000 H   0  0  0  0  0  0  0  0  0  0  0  0
   -2.8582    4.3703    0.0000 H   0  0  0  0  0  0  0  0  0  0  0  0
   -1.9316    3.8353    0.0000 H   0  0  0  0  0  0  0  0  0  0  0  0
   -2.1437    1.8178    0.0000 H   0  0  0  0  0  0  0  0  0  0  0  0
   -1.2171    3.4228    0.0000 H   0  0  0  0  0  0  0  0  0  0  0  0
   -1.2170    2.3528    0.0000 H   0  0  0  0  0  0  0  0  0  0  0  0
    8.0387   -0.3089    0.0000 H   0  0  0  0  0  0  0  0  0  0  0  0
    6.4307    0.6576    0.0000 H   0  0  0  0  0  0  0  0  0  0  0  0
    5.5040    0.1227    0.0000 H   0  0  0  0  0  0  0  0  0  0  0  0
    2.1435    0.6576    0.0000 H   0  0  0  0  0  0  0  0  0  0  0  0
    3.0701    0.1226    0.0000 H   0  0  0  0  0  0  0  0  0  0  0  0
    2.8580   -1.8949    0.0000 H   0  0  0  0  0  0  0  0  0  0  0  0
    3.7846   -1.3600    0.0000 H   0  0  0  0  0  0  0  0  0  0  0  0
    3.5727    0.6576    0.0000 H   0  0  0  0  0  0  0  0  0  0  0  0
    4.4993    0.1226    0.0000 H   0  0  0  0  0  0  0  0  0  0  0  0
    4.2869   -1.8949    0.0000 H   0  0  0  0  0  0  0  0  0  0  0  0
    5.2136   -1.3600    0.0000 H   0  0  0  0  0  0  0  0  0  0  0  0
    5.0017    0.6576    0.0000 H   0  0  0  0  0  0  0  0  0  0  0  0
    5.9283    0.1225    0.0000 H   0  0  0  0  0  0  0  0  0  0  0  0
    5.7158   -1.8949    0.0000 H   0  0  0  0  0  0  0  0  0  0  0  0
    4.7892   -1.3598    0.0000 H   0  0  0  0  0  0  0  0  0  0  0  0
    8.0388   -2.1660    0.0000 H   0  0  0  0  0  0  0  0  0  0  0  0
    5.5040   -1.5275    0.0000 H   0  0  0  0  0  0  0  0  0  0  0  0
    5.5041   -2.5975    0.0000 H   0  0  0  0  0  0  0  0  0  0  0  0
    7.3244   -3.4035    0.0000 H   0  0  0  0  0  0  0  0  0  0  0  0
    5.7163   -4.3320    0.0000 H   0  0  0  0  0  0  0  0  0  0  0  0
    5.0015   -1.8176    0.0000 H   0  0  0  0  0  0  0  0  0  0  0  0
    4.0749   -2.3526    0.0000 H   0  0  0  0  0  0  0  0  0  0  0  0
    4.2871   -4.3701    0.0000 H   0  0  0  0  0  0  0  0  0  0  0  0
    3.3605   -3.8351    0.0000 H   0  0  0  0  0  0  0  0  0  0  0  0
    3.5726   -1.8177    0.0000 H   0  0  0  0  0  0  0  0  0  0  0  0
    2.6460   -2.3528    0.0000 H   0  0  0  0  0  0  0  0  0  0  0  0
    2.8582   -4.3703    0.0000 H   0  0  0  0  0  0  0  0  0  0  0  0
    1.9315   -3.8353    0.0000 H   0  0  0  0  0  0  0  0  0  0  0  0
    2.1438   -1.8177    0.0000 H   0  0  0  0  0  0  0  0  0  0  0  0
    1.2170   -3.4226    0.0000 H   0  0  0  0  0  0  0  0  0  0  0  0
    1.2171   -2.3526    0.0000 H   0  0  0  0  0  0  0  0  0  0  0  0
  1  2  1  0  0  0  0
  1 16  1  0  0  0  0
  1 55  1  1  0  0  0
  2  3  1  0  0  0  0
  2 56  1  0  0  0  0
  2 57  1  0  0  0  0
  4  1  1  0  0  0  0
  4 58  1  0  0  0  0
  4 59  1  0  0  0  0
  5  4  1  0  0  0  0
  5 10  1  0  0  0  0
  7  6  1  0  0  0  0
  7 60  1  0  0  0  0
  7 61  1  0  0  0  0
  8  7  1  0  0  0  0
  8 62  1  0  0  0  0
  8 63  1  0  0  0  0
  9  8  1  0  0  0  0
  9 13  1  0  0  0  0
  9 14  1  0  0  0  0
  9 15  1  0  0  0  0
 10  6  1  0  0  0  0
 10 11  2  0  0  0  0
 10 12  1  0  0  0  0
 13 64  1  0  0  0  0
 13 65  1  0  0  0  0
 13 66  1  0  0  0  0
 14 67  1  0  0  0  0
 14 68  1  0  0  0  0
 14 69  1  0  0  0  0
 15 70  1  0  0  0  0
 15 71  1  0  0  0  0
 15 72  1  0  0  0  0
 17 73  1  0  0  0  0
 18 17  1  0  0  0  0
 18 74  1  0  0  0  0
 18 75  1  0  0  0  0
 19 26  2  0  0  0  0
 19  3  1  0  0  0  0
 19 20  1  0  0  0  0
 20 21  1  0  0  0  0
 20 76  1  0  0  0  0
 20 77  1  0  0  0  0
 21 22  1  0  0  0  0
 21 78  1  0  0  0  0
 21 79  1  0  0  0  0
 22 23  1  0  0  0  0
 22 80  1  0  0  0  0
 22 81  1  0  0  0  0
 23 24  1  0  0  0  0
 23 82  1  0  0  0  0
 23 83  1  0  0  0  0
 24 25  1  0  0  0  0
 24 84  1  0  0  0  0
 24 85  1  0  0  0  0
 25 18  1  0  0  0  0
 25 86  1  0  0  0  0
 25 87  1  0  0  0  0
 27 17  2  0  0  0  0
 27 88  1  0  0  0  0
 28 27  1  0  0  0  0
 28 89  1  0  0  0  0
 28 90  1  0  0  0  0
 29 28  1  0  0  0  0
 29 91  1  0  0  0  0
 30 29  2  0  0  0  0
 30 92  1  0  0  0  0
 31 30  1  0  0  0  0
 31 93  1  0  0  0  0
 31 94  1  0  0  0  0
 32 31  1  0  0  0  0
 32 95  1  0  0  0  0
 32 96  1  0  0  0  0
 33 32  1  0  0  0  0
 33 97  1  0  0  0  0
 33 98  1  0  0  0  0
 34 33  1  0  0  0  0
 34 99  1  0  0  0  0
 34100  1  0  0  0  0
 35 34  1  0  0  0  0
 35101  1  0  0  0  0
 35102  1  0  0  0  0
 35103  1  0  0  0  0
 36104  1  0  0  0  0
 37 36  1  0  0  0  0
 37105  1  0  0  0  0
 37106  1  0  0  0  0
 38 45  2  0  0  0  0
 38 16  1  0  0  0  0
 38 39  1  0  0  0  0
 39 40  1  0  0  0  0
 39107  1  0  0  0  0
 39108  1  0  0  0  0
 40 41  1  0  0  0  0
 40109  1  0  0  0  0
 40110  1  0  0  0  0
 41 42  1  0  0  0  0
 41111  1  0  0  0  0
 41112  1  0  0  0  0
 42 43  1  0  0  0  0
 42113  1  0  0  0  0
 42114  1  0  0  0  0
 43 44  1  0  0  0  0
 43115  1  0  0  0  0
 43116  1  0  0  0  0
 44 37  1  0  0  0  0
 44117  1  0  0  0  0
 44118  1  0  0  0  0
 46 36  2  0  0  0  0
 46119  1  0  0  0  0
 47 46  1  0  0  0  0
 47120  1  0  0  0  0
 47121  1  0  0  0  0
 48 47  1  0  0  0  0
 48122  1  0  0  0  0
 49 48  2  0  0  0  0
 49123  1  0  0  0  0
 50 49  1  0  0  0  0
 50124  1  0  0  0  0
 50125  1  0  0  0  0
 51 50  1  0  0  0  0
 51126  1  0  0  0  0
 51127  1  0  0  0  0
 52 51  1  0  0  0  0
 52128  1  0  0  0  0
 52129  1  0  0  0  0
 53 52  1  0  0  0  0
 53130  1  0  0  0  0
 53131  1  0  0  0  0
 54 53  1  0  0  0  0
 54132  1  0  0  0  0
 54133  1  0  0  0  0
 54134  1  0  0  0  0
M  CHG  2   9   1  12  -1
M  END
>  <DRUGBANK_ID>
DB04372

>  <SECONDARY_ACCESSION_NUMBERS>
EXPT01218

>  <COMMON_NAME>
L-Dilinoleoyllecithin

>  <CAS_NUMBER>
998-06-1

>  <UNII>
7L874P1M1O

>  <SYNONYMS>
(2R)-2,3-bis[(9Z,12Z)-octadeca-9,12-dienoyloxy]propyl 2-(trimethylammonio)ethyl phosphate; 1,2-di-(9Z,12Z-octadecadienoyl)-sn-glycero-3-phosphocholine; 1,2-di-O-linoleoyl-sn-glycero-3-phosphocholine; 1,2-dilinoleoyl-sn-glycero-3-phosphocholine; dilinoleoylphosphatidylcholine; DL-PC; DLNPC; DLPC; L-Dilinoleoyllecithin

$$$$
