
 OpenBabel10282417072D

 37 40  0  0  0  0  0  0  0  0999 V2000
    2.0701    1.1104    0.0000 C   0  0  0  0  0  0  0  0  0  0  0  0
    1.3556    0.6979    0.0000 C   0  0  0  0  0  0  0  0  0  0  0  0
    0.6411    1.1104    0.0000 C   0  0  0  0  0  0  0  0  0  0  0  0
    0.6411    1.9354    0.0000 C   0  0  0  0  0  0  0  0  0  0  0  0
   -0.1435    2.1904    0.0000 C   0  0  0  0  0  0  0  0  0  0  0  0
   -0.6284    1.5229    0.0000 C   0  0  0  0  0  0  0  0  0  0  0  0
   -0.1435    0.8555    0.0000 N   0  0  0  0  0  0  0  0  0  0  0  0
    1.3556    2.3479    0.0000 C   0  0  0  0  0  0  0  0  0  0  0  0
    2.0701    1.9354    0.0000 C   0  0  0  0  0  0  0  0  0  0  0  0
    2.7845    2.3479    0.0000 N   0  0  0  0  0  0  0  0  0  0  0  0
    2.7845    3.1729    0.0000 C   0  0  0  0  0  0  0  0  0  0  0  0
    2.0701    3.5854    0.0000 C   0  0  0  0  0  0  0  0  0  0  0  0
    2.0701    4.4104    0.0000 N   0  0  0  0  0  0  0  0  0  0  0  0
    2.7845    4.8229    0.0000 C   0  0  0  0  0  0  0  0  0  0  0  0
    3.4990    4.4104    0.0000 C   0  0  0  0  0  0  0  0  0  0  0  0
    3.4990    3.5854    0.0000 N   0  0  0  0  0  0  0  0  0  0  0  0
    4.2135    4.8229    0.0000 C   0  0  0  0  0  0  0  0  0  0  0  0
    4.2135    5.6479    0.0000 C   0  0  0  0  0  0  0  0  0  0  0  0
    4.9279    6.0604    0.0000 C   0  0  0  0  0  0  0  0  0  0  0  0
    5.6424    5.6479    0.0000 N   0  0  0  0  0  0  0  0  0  0  0  0
    5.6424    4.8229    0.0000 C   0  0  0  0  0  0  0  0  0  0  0  0
    4.9279    4.4104    0.0000 C   0  0  0  0  0  0  0  0  0  0  0  0
    1.3556    3.1729    0.0000 N   0  0  0  0  0  0  0  0  0  0  0  0
    2.9638    0.5944    0.0000 H   0  0  0  0  0  0  0  0  0  0  0  0
    1.3556   -0.3341    0.0000 H   0  0  0  0  0  0  0  0  0  0  0  0
   -0.4624    3.1719    0.0000 H   0  0  0  0  0  0  0  0  0  0  0  0
   -1.6604    1.5229    0.0000 H   0  0  0  0  0  0  0  0  0  0  0  0
   -0.4477   -0.0808    0.0000 H   0  0  0  0  0  0  0  0  0  0  0  0
    1.3556    3.3799    0.0000 H   0  0  0  0  0  0  0  0  0  0  0  0
    3.6371    1.8557    0.0000 H   0  0  0  0  0  0  0  0  0  0  0  0
    2.7845    5.8549    0.0000 H   0  0  0  0  0  0  0  0  0  0  0  0
    3.3198    6.1639    0.0000 H   0  0  0  0  0  0  0  0  0  0  0  0
    4.9279    7.0924    0.0000 H   0  0  0  0  0  0  0  0  0  0  0  0
    6.5361    4.3069    0.0000 H   0  0  0  0  0  0  0  0  0  0  0  0
    4.9279    3.3784    0.0000 H   0  0  0  0  0  0  0  0  0  0  0  0
    0.5030    3.6652    0.0000 H   0  0  0  0  0  0  0  0  0  0  0  0
    1.3556    2.1884    0.0000 H   0  0  0  0  0  0  0  0  0  0  0  0
  1  2  1  0  0  0  0
  1  9  2  0  0  0  0
  1 24  1  0  0  0  0
  2  3  2  0  0  0  0
  2 25  1  0  0  0  0
  3  4  1  0  0  0  0
  3  7  1  0  0  0  0
  4  5  1  0  0  0  0
  4  8  2  0  0  0  0
  5  6  2  0  0  0  0
  5 26  1  0  0  0  0
  6  7  1  0  0  0  0
  6 27  1  0  0  0  0
  7 28  1  0  0  0  0
  8  9  1  0  0  0  0
  8 29  1  0  0  0  0
  9 10  1  0  0  0  0
 10 11  1  0  0  0  0
 10 30  1  0  0  0  0
 11 12  2  0  0  0  0
 11 16  1  0  0  0  0
 12 13  1  0  0  0  0
 12 23  1  0  0  0  0
 13 14  2  0  0  0  0
 14 15  1  0  0  0  0
 14 31  1  0  0  0  0
 15 16  2  0  0  0  0
 15 17  1  0  0  0  0
 17 18  2  0  0  0  0
 17 22  1  0  0  0  0
 18 19  1  0  0  0  0
 18 32  1  0  0  0  0
 19 20  2  0  0  0  0
 19 33  1  0  0  0  0
 20 21  1  0  0  0  0
 21 22  2  0  0  0  0
 21 34  1  0  0  0  0
 22 35  1  0  0  0  0
 23 36  1  0  0  0  0
 23 37  1  0  0  0  0
M  END
>  <DRUGBANK_ID>
DB12746

>  <COMMON_NAME>
AKN-028

>  <CAS_NUMBER>
1175017-90-9

>  <UNII>
Y66IS3CS0R

$$$$
