
 OpenBabel10282417072D

 58 59  0  0  0  0  0  0  0  0999 V2000
   -0.9971   -0.4507    0.0000 C   0  0  0  0  0  0  0  0  0  0  0  0
   -0.9983   -1.2757    0.0000 O   0  0  0  0  0  0  0  0  0  0  0  0
   -0.2819   -0.0392    0.0000 N   0  0  0  0  0  0  0  0  0  0  0  0
    0.4319   -0.4527    0.0000 C   0  0  2  0  0  0  0  0  0  0  0  0
    1.1469   -0.0413    0.0000 C   0  0  0  0  0  0  0  0  0  0  0  0
    0.4307   -1.2777    0.0000 C   0  0  0  0  0  0  0  0  0  0  0  0
    1.1446   -1.6913    0.0000 C   0  0  0  0  0  0  0  0  0  0  0  0
    1.8608   -0.4548    0.0000 N   0  0  0  0  0  0  0  0  0  0  0  0
    1.1481    0.7836    0.0000 O   0  0  0  0  0  0  0  0  0  0  0  0
    2.5759   -0.0433    0.0000 C   0  0  2  0  0  0  0  0  0  0  0  0
    3.2898   -0.4569    0.0000 C   0  0  0  0  0  0  0  0  0  0  0  0
    4.0048   -0.0454    0.0000 O   0  0  0  0  0  0  0  0  0  0  0  0
    2.5771    0.7816    0.0000 C   0  0  0  0  0  0  0  0  0  0  0  0
    3.2924    1.1933    0.0000 C   0  0  3  0  0  0  0  0  0  0  0  0
    4.0685    0.9206    0.0000 C   0  0  0  0  0  0  0  0  0  0  0  0
    4.5682    1.5771    0.0000 C   0  0  0  0  0  0  0  0  0  0  0  0
    4.0982    2.2552    0.0000 N   0  0  0  0  0  0  0  0  0  0  0  0
    3.3082    2.0177    0.0000 C   0  0  0  0  0  0  0  0  0  0  0  0
    2.6508    2.5163    0.0000 O   0  0  0  0  0  0  0  0  0  0  0  0
   -1.7109   -0.0370    0.0000 O   0  0  0  0  0  0  0  0  0  0  0  0
   -2.4260   -0.4486    0.0000 C   0  0  0  0  0  0  0  0  0  0  0  0
   -3.1399   -0.0351    0.0000 C   0  0  0  0  0  0  0  0  0  0  0  0
   -3.1408    0.7888    0.0000 C   0  0  0  0  0  0  0  0  0  0  0  0
   -3.8538    1.2024    0.0000 C   0  0  0  0  0  0  0  0  0  0  0  0
   -4.5667    0.7909    0.0000 C   0  0  0  0  0  0  0  0  0  0  0  0
   -4.5682   -0.0383    0.0000 C   0  0  0  0  0  0  0  0  0  0  0  0
   -3.8548   -0.4481    0.0000 C   0  0  0  0  0  0  0  0  0  0  0  0
    1.1434   -2.5163    0.0000 C   0  0  0  0  0  0  0  0  0  0  0  0
    1.8596   -1.2798    0.0000 C   0  0  0  0  0  0  0  0  0  0  0  0
   -0.2804    0.9453    0.0000 H   0  0  0  0  0  0  0  0  0  0  0  0
   -0.4955   -0.9864    0.0000 H   0  0  0  0  0  0  0  0  0  0  0  0
   -0.4967   -1.8113    0.0000 H   0  0  0  0  0  0  0  0  0  0  0  0
    0.4291   -2.3477    0.0000 H   0  0  0  0  0  0  0  0  0  0  0  0
    2.0705   -2.2276    0.0000 H   0  0  0  0  0  0  0  0  0  0  0  0
    1.8594   -1.4393    0.0000 H   0  0  0  0  0  0  0  0  0  0  0  0
    1.6500    0.4930    0.0000 H   0  0  0  0  0  0  0  0  0  0  0  0
    3.2883   -1.4889    0.0000 H   0  0  0  0  0  0  0  0  0  0  0  0
    1.6512    1.3179    0.0000 H   0  0  0  0  0  0  0  0  0  0  0  0
    2.5786    1.8516    0.0000 H   0  0  0  0  0  0  0  0  0  0  0  0
    3.3909    0.1278    0.0000 H   0  0  0  0  0  0  0  0  0  0  0  0
    4.3756   -0.1044    0.0000 H   0  0  0  0  0  0  0  0  0  0  0  0
    5.1213    0.7293    0.0000 H   0  0  0  0  0  0  0  0  0  0  0  0
    5.6379    1.5533    0.0000 H   0  0  0  0  0  0  0  0  0  0  0  0
    5.0751    2.5194    0.0000 H   0  0  0  0  0  0  0  0  0  0  0  0
    4.4231    3.1845    0.0000 H   0  0  0  0  0  0  0  0  0  0  0  0
   -2.4275   -1.5186    0.0000 H   0  0  0  0  0  0  0  0  0  0  0  0
   -3.3534   -0.9823    0.0000 H   0  0  0  0  0  0  0  0  0  0  0  0
   -2.2468    1.3044    0.0000 H   0  0  0  0  0  0  0  0  0  0  0  0
   -3.8527    2.2344    0.0000 H   0  0  0  0  0  0  0  0  0  0  0  0
   -5.4599    1.3078    0.0000 H   0  0  0  0  0  0  0  0  0  0  0  0
   -5.4618   -0.5545    0.0000 H   0  0  0  0  0  0  0  0  0  0  0  0
   -3.8535   -1.4801    0.0000 H   0  0  0  0  0  0  0  0  0  0  0  0
    0.2160   -3.0500    0.0000 H   0  0  0  0  0  0  0  0  0  0  0  0
    2.0693   -3.0526    0.0000 H   0  0  0  0  0  0  0  0  0  0  0  0
    1.1418   -3.5863    0.0000 H   0  0  0  0  0  0  0  0  0  0  0  0
    2.7855   -1.8161    0.0000 H   0  0  0  0  0  0  0  0  0  0  0  0
    1.8611   -0.2098    0.0000 H   0  0  0  0  0  0  0  0  0  0  0  0
    2.7870   -0.7461    0.0000 H   0  0  0  0  0  0  0  0  0  0  0  0
  1  2  2  0  0  0  0
  1  3  1  0  0  0  0
  1 20  1  0  0  0  0
  3  4  1  0  0  0  0
  3 30  1  0  0  0  0
  4  5  1  0  0  0  0
  4  6  1  0  0  0  0
  4 31  1  1  0  0  0
  5  8  1  0  0  0  0
  5  9  2  0  0  0  0
  6  7  1  0  0  0  0
  6 32  1  0  0  0  0
  6 33  1  0  0  0  0
  7 28  1  0  0  0  0
  7 29  1  0  0  0  0
  7 34  1  0  0  0  0
  8 10  1  0  0  0  0
  8 35  1  0  0  0  0
 10 11  1  0  0  0  0
 10 13  1  0  0  0  0
 10 36  1  6  0  0  0
 11 12  2  0  0  0  0
 11 37  1  0  0  0  0
 13 14  1  0  0  0  0
 13 38  1  0  0  0  0
 13 39  1  0  0  0  0
 14 15  1  0  0  0  0
 14 40  1  0  0  0  0
 15 16  1  0  0  0  0
 15 41  1  0  0  0  0
 15 42  1  0  0  0  0
 16 17  1  0  0  0  0
 16 43  1  0  0  0  0
 16 44  1  0  0  0  0
 17 18  1  0  0  0  0
 17 45  1  0  0  0  0
 18 14  1  0  0  0  0
 18 19  2  0  0  0  0
 20 21  1  0  0  0  0
 21 22  1  0  0  0  0
 21 46  1  0  0  0  0
 21 47  1  0  0  0  0
 22 23  2  0  0  0  0
 23 24  1  0  0  0  0
 23 48  1  0  0  0  0
 24 25  2  0  0  0  0
 24 49  1  0  0  0  0
 25 26  1  0  0  0  0
 25 50  1  0  0  0  0
 26 27  2  0  0  0  0
 26 51  1  0  0  0  0
 27 22  1  0  0  0  0
 27 52  1  0  0  0  0
 28 53  1  0  0  0  0
 28 54  1  0  0  0  0
 28 55  1  0  0  0  0
 29 56  1  0  0  0  0
 29 57  1  0  0  0  0
 29 58  1  0  0  0  0
M  END
>  <DRUGBANK_ID>
DB15797

>  <COMMON_NAME>
GC-373

>  <UNII>
W9SVW656LQ

$$$$
