
 OpenBabel10282417072D

 76 80  0  0  1  0  0  0  0  0999 V2000
   -3.8837   -1.4124    0.0000 C   0  0  0  0  0  0  0  0  0  0  0  0
   -3.0587   -1.4124    0.0000 C   0  0  0  0  0  0  0  0  0  0  0  0
   -2.6462   -0.6979    0.0000 C   0  0  2  0  0  0  0  0  0  0  0  0
   -3.0587    0.0165    0.0000 C   0  0  0  0  0  0  0  0  0  0  0  0
   -1.8212   -0.6979    0.0000 C   0  0  2  0  0  0  0  0  0  0  0  0
   -1.4087   -1.4124    0.0000 C   0  0  0  0  0  0  0  0  0  0  0  0
   -1.8212   -2.1269    0.0000 O   0  0  0  0  0  0  0  0  0  0  0  0
   -0.5837   -1.4124    0.0000 N   0  0  0  0  0  0  0  0  0  0  0  0
   -0.1712   -0.6979    0.0000 C   0  0  1  0  0  0  0  0  0  0  0  0
   -0.5837    0.0165    0.0000 C   0  0  0  0  0  0  0  0  0  0  0  0
   -0.1712    0.7310    0.0000 O   0  0  0  0  0  0  0  0  0  0  0  0
   -1.4087    0.0165    0.0000 N   0  0  0  0  0  0  0  0  0  0  0  0
   -1.8212    0.7310    0.0000 C   0  0  2  0  0  0  0  0  0  0  0  0
   -1.4087    1.4455    0.0000 C   0  0  0  0  0  0  0  0  0  0  0  0
   -1.8212    2.1599    0.0000 C   0  0  0  0  0  0  0  0  0  0  0  0
   -1.4087    2.8744    0.0000 C   0  0  0  0  0  0  0  0  0  0  0  0
   -0.5837    2.8744    0.0000 C   0  0  0  0  0  0  0  0  0  0  0  0
   -0.1712    2.1599    0.0000 N   0  0  0  0  0  0  0  0  0  0  0  0
   -0.5837    1.4455    0.0000 C   0  0  0  0  0  0  0  0  0  0  0  0
    0.1700    1.1099    0.0000 C   0  0  0  0  0  0  0  0  0  0  0  0
   -0.1712    3.5889    0.0000 C   0  0  0  0  0  0  0  0  0  0  0  0
   -2.6462    0.7310    0.0000 C   0  0  0  0  0  0  0  0  0  0  0  0
   -3.3999    0.3954    0.0000 O   0  0  0  0  0  0  0  0  0  0  0  0
   -3.0587    1.4455    0.0000 N   0  0  0  0  0  0  0  0  0  0  0  0
   -3.8837    1.4455    0.0000 C   0  0  0  0  0  0  0  0  0  0  0  0
   -4.2962    2.1599    0.0000 C   0  0  0  0  0  0  0  0  0  0  0  0
   -3.8837    2.8744    0.0000 O   0  0  0  0  0  0  0  0  0  0  0  0
   -3.0587    2.8744    0.0000 C   0  0  0  0  0  0  0  0  0  0  0  0
   -2.6462    2.1599    0.0000 C   0  0  0  0  0  0  0  0  0  0  0  0
    0.6538   -0.6979    0.0000 C   0  0  0  0  0  0  0  0  0  0  0  0
    1.1387   -0.0305    0.0000 C   0  0  0  0  0  0  0  0  0  0  0  0
    1.9233   -0.2854    0.0000 C   0  0  0  0  0  0  0  0  0  0  0  0
    2.6378    0.1271    0.0000 C   0  0  0  0  0  0  0  0  0  0  0  0
    3.3523   -0.2854    0.0000 C   0  0  0  0  0  0  0  0  0  0  0  0
    3.3523   -1.1104    0.0000 C   0  0  0  0  0  0  0  0  0  0  0  0
    2.6378   -1.5229    0.0000 C   0  0  0  0  0  0  0  0  0  0  0  0
    1.9233   -1.1104    0.0000 C   0  0  0  0  0  0  0  0  0  0  0  0
    1.1387   -1.3654    0.0000 C   0  0  0  0  0  0  0  0  0  0  0  0
   -4.4187   -0.4858    0.0000 H   0  0  0  0  0  0  0  0  0  0  0  0
   -4.4187   -2.3390    0.0000 H   0  0  0  0  0  0  0  0  0  0  0  0
   -4.9537   -1.4124    0.0000 H   0  0  0  0  0  0  0  0  0  0  0  0
   -2.5237   -2.3390    0.0000 H   0  0  0  0  0  0  0  0  0  0  0  0
   -1.9887   -1.4124    0.0000 H   0  0  0  0  0  0  0  0  0  0  0  0
   -2.1112   -1.6245    0.0000 H   0  0  0  0  0  0  0  0  0  0  0  0
   -2.5237    0.9432    0.0000 H   0  0  0  0  0  0  0  0  0  0  0  0
   -4.1287    0.0165    0.0000 H   0  0  0  0  0  0  0  0  0  0  0  0
   -3.5937    0.9431    0.0000 H   0  0  0  0  0  0  0  0  0  0  0  0
   -2.3562   -1.6245    0.0000 H   0  0  0  0  0  0  0  0  0  0  0  0
   -0.0914   -2.2650    0.0000 H   0  0  0  0  0  0  0  0  0  0  0  0
    0.3638   -1.6245    0.0000 H   0  0  0  0  0  0  0  0  0  0  0  0
   -2.3562   -0.1956    0.0000 H   0  0  0  0  0  0  0  0  0  0  0  0
   -2.8532    2.1599    0.0000 H   0  0  0  0  0  0  0  0  0  0  0  0
   -1.9247    3.7681    0.0000 H   0  0  0  0  0  0  0  0  0  0  0  0
    0.2818    0.0458    0.0000 H   0  0  0  0  0  0  0  0  0  0  0  0
    1.0357    1.7388    0.0000 H   0  0  0  0  0  0  0  0  0  0  0  0
    1.1475    0.6747    0.0000 H   0  0  0  0  0  0  0  0  0  0  0  0
    0.8988    3.5889    0.0000 H   0  0  0  0  0  0  0  0  0  0  0  0
   -0.7062    4.5155    0.0000 H   0  0  0  0  0  0  0  0  0  0  0  0
    0.3638    4.5156    0.0000 H   0  0  0  0  0  0  0  0  0  0  0  0
   -4.4187    0.5188    0.0000 H   0  0  0  0  0  0  0  0  0  0  0  0
   -4.9537    1.4455    0.0000 H   0  0  0  0  0  0  0  0  0  0  0  0
   -5.3662    2.1599    0.0000 H   0  0  0  0  0  0  0  0  0  0  0  0
   -4.8312    3.0865    0.0000 H   0  0  0  0  0  0  0  0  0  0  0  0
   -2.5237    3.8010    0.0000 H   0  0  0  0  0  0  0  0  0  0  0  0
   -1.9887    2.8744    0.0000 H   0  0  0  0  0  0  0  0  0  0  0  0
   -1.5762    2.1599    0.0000 H   0  0  0  0  0  0  0  0  0  0  0  0
   -2.1112    1.2332    0.0000 H   0  0  0  0  0  0  0  0  0  0  0  0
    1.7238   -0.6979    0.0000 H   0  0  0  0  0  0  0  0  0  0  0  0
    0.8080    0.9871    0.0000 H   0  0  0  0  0  0  0  0  0  0  0  0
    1.8953    0.7261    0.0000 H   0  0  0  0  0  0  0  0  0  0  0  0
    2.6378    1.1591    0.0000 H   0  0  0  0  0  0  0  0  0  0  0  0
    4.2460    0.2306    0.0000 H   0  0  0  0  0  0  0  0  0  0  0  0
    4.2460   -1.6264    0.0000 H   0  0  0  0  0  0  0  0  0  0  0  0
    2.6378   -2.5549    0.0000 H   0  0  0  0  0  0  0  0  0  0  0  0
    0.8081   -2.3830    0.0000 H   0  0  0  0  0  0  0  0  0  0  0  0
    0.0819   -1.5328    0.0000 H   0  0  0  0  0  0  0  0  0  0  0  0
  1  2  1  0  0  0  0
  1 39  1  0  0  0  0
  1 40  1  0  0  0  0
  1 41  1  0  0  0  0
  2  3  1  0  0  0  0
  2 42  1  0  0  0  0
  2 43  1  0  0  0  0
  3  4  1  0  0  0  0
  3 44  1  1  0  0  0
  4 45  1  0  0  0  0
  4 46  1  0  0  0  0
  4 47  1  0  0  0  0
  5  3  1  0  0  0  0
  5  6  1  0  0  0  0
  5 12  1  0  0  0  0
  5 48  1  6  0  0  0
  6  7  2  0  0  0  0
  6  8  1  0  0  0  0
  8  9  1  0  0  0  0
  8 49  1  0  0  0  0
  9 10  1  0  0  0  0
  9 30  1  0  0  0  0
  9 50  1  6  0  0  0
 10 11  2  0  0  0  0
 10 12  1  0  0  0  0
 12 13  1  0  0  0  0
 13 14  1  0  0  0  0
 13 22  1  0  0  0  0
 13 51  1  6  0  0  0
 14 15  2  0  0  0  0
 14 19  1  0  0  0  0
 15 16  1  0  0  0  0
 15 52  1  0  0  0  0
 16 17  2  0  0  0  0
 16 53  1  0  0  0  0
 17 18  1  0  0  0  0
 17 21  1  0  0  0  0
 18 19  2  0  0  0  0
 19 20  1  0  0  0  0
 20 54  1  0  0  0  0
 20 55  1  0  0  0  0
 20 56  1  0  0  0  0
 21 57  1  0  0  0  0
 21 58  1  0  0  0  0
 21 59  1  0  0  0  0
 22 23  2  0  0  0  0
 22 24  1  0  0  0  0
 24 25  1  0  0  0  0
 24 29  1  0  0  0  0
 25 26  1  0  0  0  0
 25 60  1  0  0  0  0
 25 61  1  0  0  0  0
 26 27  1  0  0  0  0
 26 62  1  0  0  0  0
 26 63  1  0  0  0  0
 27 28  1  0  0  0  0
 28 29  1  0  0  0  0
 28 64  1  0  0  0  0
 28 65  1  0  0  0  0
 29 66  1  0  0  0  0
 29 67  1  0  0  0  0
 30 31  1  0  0  0  0
 30 38  1  0  0  0  0
 30 68  1  0  0  0  0
 31 32  1  0  0  0  0
 31 69  1  0  0  0  0
 31 70  1  0  0  0  0
 32 33  2  0  0  0  0
 32 37  1  0  0  0  0
 33 34  1  0  0  0  0
 33 71  1  0  0  0  0
 34 35  2  0  0  0  0
 34 72  1  0  0  0  0
 35 36  1  0  0  0  0
 35 73  1  0  0  0  0
 36 37  2  0  0  0  0
 36 74  1  0  0  0  0
 37 38  1  0  0  0  0
 38 75  1  0  0  0  0
 38 76  1  0  0  0  0
M  END
>  <DRUGBANK_ID>
DB11934

>  <COMMON_NAME>
Epelsiban

>  <CAS_NUMBER>
872599-83-2

>  <UNII>
T2EZ19HX73

>  <SYNONYMS>
Epelsiban

$$$$
