
 OpenBabel10282417072D

 60 62  0  0  0  0  0  0  0  0999 V2000
   -2.1050    0.2612    0.0000 C   0  0  0  0  0  0  0  0  0  0  0  0
   -2.9255    0.1750    0.0000 C   0  0  0  0  0  0  0  0  0  0  0  0
   -1.7695   -0.4923    0.0000 C   0  0  0  0  0  0  0  0  0  0  0  0
   -1.6925    0.9757    0.0000 C   0  0  0  0  0  0  0  0  0  0  0  0
   -3.0971   -0.6318    0.0000 C   0  0  0  0  0  0  0  0  0  0  0  0
   -3.5387    0.7269    0.0000 C   0  0  0  0  0  0  0  0  0  0  0  0
   -2.3826   -1.0445    0.0000 O   0  0  0  0  0  0  0  0  0  0  0  0
   -0.9624   -0.6639    0.0000 C   0  0  0  0  0  0  0  0  0  0  0  0
   -0.8675    0.9757    0.0000 C   0  0  0  0  0  0  0  0  0  0  0  0
   -2.1050    1.6902    0.0000 O   0  0  0  0  0  0  0  0  0  0  0  0
   -3.8817   -0.8869    0.0000 C   0  0  0  0  0  0  0  0  0  0  0  0
   -4.3233    0.4722    0.0000 C   0  0  0  0  0  0  0  0  0  0  0  0
   -0.7076   -1.4485    0.0000 C   0  0  0  0  0  0  0  0  0  0  0  0
   -0.4550    1.6902    0.0000 C   0  0  0  0  0  0  0  0  0  0  0  0
   -0.4550    0.2612    0.0000 C   0  0  0  0  0  0  0  0  0  0  0  0
   -4.4948   -0.3347    0.0000 C   0  0  0  0  0  0  0  0  0  0  0  0
    0.0993   -1.6200    0.0000 C   0  0  0  0  0  0  0  0  0  0  0  0
    0.3699    1.6902    0.0000 C   0  0  0  0  0  0  0  0  0  0  0  0
    0.3699    0.2612    0.0000 C   0  0  0  0  0  0  0  0  0  0  0  0
    0.3542   -2.4046    0.0000 C   0  0  0  0  0  0  0  0  0  0  0  0
    0.7824    0.9757    0.0000 C   0  0  0  0  0  0  0  0  0  0  0  0
    0.7824    2.4047    0.0000 I   0  0  0  0  0  0  0  0  0  0  0  0
    0.7824   -0.4532    0.0000 I   0  0  0  0  0  0  0  0  0  0  0  0
    1.6074    0.9757    0.0000 O   0  0  0  0  0  0  0  0  0  0  0  0
    2.0199    0.2612    0.0000 C   0  0  0  0  0  0  0  0  0  0  0  0
    2.8449    0.2612    0.0000 C   0  0  0  0  0  0  0  0  0  0  0  0
    3.2575   -0.4532    0.0000 N   0  0  0  0  0  0  0  0  0  0  0  0
    2.8449   -1.1677    0.0000 C   0  0  0  0  0  0  0  0  0  0  0  0
    4.0825   -0.4532    0.0000 C   0  0  0  0  0  0  0  0  0  0  0  0
    3.2575   -1.8822    0.0000 C   0  0  0  0  0  0  0  0  0  0  0  0
    4.4948   -1.1677    0.0000 C   0  0  0  0  0  0  0  0  0  0  0  0
   -3.3241    1.7363    0.0000 H   0  0  0  0  0  0  0  0  0  0  0  0
   -0.2463    0.1312    0.0000 H   0  0  0  0  0  0  0  0  0  0  0  0
    0.0842   -0.8865    0.0000 H   0  0  0  0  0  0  0  0  0  0  0  0
   -4.0962   -1.8964    0.0000 H   0  0  0  0  0  0  0  0  0  0  0  0
   -5.0901    1.1628    0.0000 H   0  0  0  0  0  0  0  0  0  0  0  0
   -1.4236   -2.2436    0.0000 H   0  0  0  0  0  0  0  0  0  0  0  0
   -0.3770   -2.4661    0.0000 H   0  0  0  0  0  0  0  0  0  0  0  0
   -0.9710    2.5839    0.0000 H   0  0  0  0  0  0  0  0  0  0  0  0
   -0.9710   -0.6325    0.0000 H   0  0  0  0  0  0  0  0  0  0  0  0
   -5.4763   -0.6535    0.0000 H   0  0  0  0  0  0  0  0  0  0  0  0
    0.8153   -0.8248    0.0000 H   0  0  0  0  0  0  0  0  0  0  0  0
    1.1459   -1.8425    0.0000 H   0  0  0  0  0  0  0  0  0  0  0  0
   -0.3618   -3.1997    0.0000 H   0  0  0  0  0  0  0  0  0  0  0  0
    1.4008   -2.6271    0.0000 H   0  0  0  0  0  0  0  0  0  0  0  0
    0.6848   -3.4222    0.0000 H   0  0  0  0  0  0  0  0  0  0  0  0
    1.4849   -0.6654    0.0000 H   0  0  0  0  0  0  0  0  0  0  0  0
    2.5549   -0.6654    0.0000 H   0  0  0  0  0  0  0  0  0  0  0  0
    3.3798    1.1879    0.0000 H   0  0  0  0  0  0  0  0  0  0  0  0
    3.9149    0.2613    0.0000 H   0  0  0  0  0  0  0  0  0  0  0  0
    1.7749   -1.1677    0.0000 H   0  0  0  0  0  0  0  0  0  0  0  0
    2.3099   -2.0944    0.0000 H   0  0  0  0  0  0  0  0  0  0  0  0
    4.6176    0.4734    0.0000 H   0  0  0  0  0  0  0  0  0  0  0  0
    5.1525   -0.4534    0.0000 H   0  0  0  0  0  0  0  0  0  0  0  0
    2.7226   -2.8089    0.0000 H   0  0  0  0  0  0  0  0  0  0  0  0
    4.3275   -1.8821    0.0000 H   0  0  0  0  0  0  0  0  0  0  0  0
    3.7926   -2.8088    0.0000 H   0  0  0  0  0  0  0  0  0  0  0  0
    3.9596   -2.0942    0.0000 H   0  0  0  0  0  0  0  0  0  0  0  0
    5.5648   -1.1679    0.0000 H   0  0  0  0  0  0  0  0  0  0  0  0
    5.0296   -2.0945    0.0000 H   0  0  0  0  0  0  0  0  0  0  0  0
  1  2  1  0  0  0  0
  1  3  2  0  0  0  0
  1  4  1  0  0  0  0
  2  5  2  0  0  0  0
  2  6  1  0  0  0  0
  3  7  1  0  0  0  0
  3  8  1  0  0  0  0
  4  9  1  0  0  0  0
  4 10  2  0  0  0  0
  5 11  1  0  0  0  0
  5  7  1  0  0  0  0
  6 12  2  0  0  0  0
  6 32  1  0  0  0  0
  8 13  1  0  0  0  0
  8 33  1  0  0  0  0
  8 34  1  0  0  0  0
  9 14  2  0  0  0  0
  9 15  1  0  0  0  0
 11 16  2  0  0  0  0
 11 35  1  0  0  0  0
 12 16  1  0  0  0  0
 12 36  1  0  0  0  0
 13 17  1  0  0  0  0
 13 37  1  0  0  0  0
 13 38  1  0  0  0  0
 14 18  1  0  0  0  0
 14 39  1  0  0  0  0
 15 19  2  0  0  0  0
 15 40  1  0  0  0  0
 16 41  1  0  0  0  0
 17 20  1  0  0  0  0
 17 42  1  0  0  0  0
 17 43  1  0  0  0  0
 18 21  2  0  0  0  0
 18 22  1  0  0  0  0
 19 23  1  0  0  0  0
 19 21  1  0  0  0  0
 20 44  1  0  0  0  0
 20 45  1  0  0  0  0
 20 46  1  0  0  0  0
 21 24  1  0  0  0  0
 24 25  1  0  0  0  0
 25 26  1  0  0  0  0
 25 47  1  0  0  0  0
 25 48  1  0  0  0  0
 26 27  1  0  0  0  0
 26 49  1  0  0  0  0
 26 50  1  0  0  0  0
 27 28  1  0  0  0  0
 27 29  1  0  0  0  0
 28 30  1  0  0  0  0
 28 51  1  0  0  0  0
 28 52  1  0  0  0  0
 29 31  1  0  0  0  0
 29 53  1  0  0  0  0
 29 54  1  0  0  0  0
 30 55  1  0  0  0  0
 30 56  1  0  0  0  0
 30 57  1  0  0  0  0
 31 58  1  0  0  0  0
 31 59  1  0  0  0  0
 31 60  1  0  0  0  0
M  END
>  <DRUGBANK_ID>
DB01118

>  <SECONDARY_ACCESSION_NUMBERS>
APRD00288

>  <COMMON_NAME>
Amiodarone

>  <CAS_NUMBER>
1951-25-3

>  <UNII>
N3RQ532IUT

>  <SYNONYMS>
2-Butyl-3-(3,5-diiodo-4-(2-diethylaminoethoxy)benzoyl)benzofuran; 2-Butyl-3-benzofuranyl 4-(2-(diethylamino)ethoxy)-3,5-diiodophenyl ketone; 2-n-Butyl-3',5'-diiodo-4'-N-diethylaminoethoxy-3-benzoylbenzofuran; Amiodarona; Amiodarone; Amiodaronum

$$$$
