DMA
 OpenBabel10282417072D

 26 25  0  0  0  0  0  0  0  0999 V2000
   -0.6836   -0.6145    0.0000 C   0  0  0  0  0  0  0  0  0  0  0  0
    0.0309   -0.2021    0.0000 O   0  0  0  0  0  0  0  0  0  0  0  0
   -1.3981   -0.2021    0.0000 C   0  0  0  0  0  0  0  0  0  0  0  0
   -1.3981    0.6228    0.0000 C   0  0  0  0  0  0  0  0  0  0  0  0
   -2.1125    1.0354    0.0000 C   0  0  0  0  0  0  0  0  0  0  0  0
   -0.6836    1.0354    0.0000 C   0  0  0  0  0  0  0  0  0  0  0  0
    0.7453   -0.6145    0.0000 P   0  0  1  0  0  0  0  0  0  0  0  0
    0.3328   -1.3290    0.0000 O   0  0  0  0  0  0  0  0  0  0  0  0
    1.1578    0.0999    0.0000 O   0  0  0  0  0  0  0  0  0  0  0  0
    1.4598   -1.0271    0.0000 O   0  0  0  0  0  0  0  0  0  0  0  0
    2.1743   -0.6145    0.0000 P   0  0  0  0  0  0  0  0  0  0  0  0
    2.8887   -0.2021    0.0000 O   0  0  0  0  0  0  0  0  0  0  0  0
    2.5868   -1.3290    0.0000 O   0  0  0  0  0  0  0  0  0  0  0  0
    1.7617    0.0999    0.0000 O   0  0  0  0  0  0  0  0  0  0  0  0
   -0.6836   -1.6845    0.0000 H   0  0  0  0  0  0  0  0  0  0  0  0
   -1.6102   -1.1496    0.0000 H   0  0  0  0  0  0  0  0  0  0  0  0
   -2.2918   -0.7182    0.0000 H   0  0  0  0  0  0  0  0  0  0  0  0
   -2.1123    2.1054    0.0000 H   0  0  0  0  0  0  0  0  0  0  0  0
   -3.0392    0.5005    0.0000 H   0  0  0  0  0  0  0  0  0  0  0  0
   -3.0391    1.5705    0.0000 H   0  0  0  0  0  0  0  0  0  0  0  0
    0.2431    0.5005    0.0000 H   0  0  0  0  0  0  0  0  0  0  0  0
   -0.6837    2.1054    0.0000 H   0  0  0  0  0  0  0  0  0  0  0  0
    0.2430    1.5705    0.0000 H   0  0  0  0  0  0  0  0  0  0  0  0
    2.1278    0.0999    0.0000 H   0  0  0  0  0  0  0  0  0  0  0  0
    2.1018   -2.1690    0.0000 H   0  0  0  0  0  0  0  0  0  0  0  0
    2.2466    0.9400    0.0000 H   0  0  0  0  0  0  0  0  0  0  0  0
  1  2  1  0  0  0  0
  1  3  1  0  0  0  0
  1 15  1  0  0  0  0
  1 16  1  0  0  0  0
  3  4  2  0  0  0  0
  3 17  1  0  0  0  0
  4  5  1  0  0  0  0
  4  6  1  0  0  0  0
  5 18  1  0  0  0  0
  5 19  1  0  0  0  0
  5 20  1  0  0  0  0
  6 21  1  0  0  0  0
  6 22  1  0  0  0  0
  6 23  1  0  0  0  0
  7  2  1  0  0  0  0
  7  8  2  6  0  0  0
  7  9  1  0  0  0  0
  7 10  1  0  0  0  0
  9 24  1  0  0  0  0
 10 11  1  0  0  0  0
 11 12  2  0  0  0  0
 11 13  1  0  0  0  0
 11 14  1  0  0  0  0
 13 25  1  0  0  0  0
 14 26  1  0  0  0  0
M  END
>  <DRUGBANK_ID>
DB01785

>  <SECONDARY_ACCESSION_NUMBERS>
EXPT01221

>  <COMMON_NAME>
Dimethylallyl Diphosphate

>  <CAS_NUMBER>
358-72-5

$$$$
