
 OpenBabel10282417072D

 54 55  0  0  0  0  0  0  0  0999 V2000
   -2.8579   -4.9500    0.0000 C   0  0  0  0  0  0  0  0  0  0  0  0
   -2.1434   -5.3625    0.0000 C   0  0  0  0  0  0  0  0  0  0  0  0
   -1.4289   -4.9500    0.0000 N   0  0  0  0  0  0  0  0  0  0  0  0
   -1.4289   -4.1250    0.0000 C   0  0  0  0  0  0  0  0  0  0  0  0
   -2.1434   -3.7125    0.0000 C   0  0  0  0  0  0  0  0  0  0  0  0
   -0.7145   -5.3625    0.0000 C   0  0  0  0  0  0  0  0  0  0  0  0
    0.0000   -4.9500    0.0000 C   0  0  0  0  0  0  0  0  0  0  0  0
    0.7145   -5.3625    0.0000 N   0  0  0  0  0  0  0  0  0  0  0  0
    1.4289   -4.9500    0.0000 C   0  0  0  0  0  0  0  0  0  0  0  0
    2.1434   -5.3625    0.0000 O   0  0  0  0  0  0  0  0  0  0  0  0
    1.4289   -4.1250    0.0000 C   0  0  0  0  0  0  0  0  0  0  0  0
    0.7145   -3.7125    0.0000 C   0  0  0  0  0  0  0  0  0  0  0  0
    0.0000   -4.1250    0.0000 O   0  0  0  0  0  0  0  0  0  0  0  0
   -0.7145   -3.7125    0.0000 C   0  0  0  0  0  0  0  0  0  0  0  0
    0.7145   -2.8875    0.0000 C   0  0  0  0  0  0  0  0  0  0  0  0
    1.4289   -2.4750    0.0000 C   0  0  0  0  0  0  0  0  0  0  0  0
    1.4289   -1.6500    0.0000 N   0  0  0  0  0  0  0  0  0  0  0  0
    0.7145   -1.2375    0.0000 C   0  0  0  0  0  0  0  0  0  0  0  0
    0.0000   -1.6500    0.0000 O   0  0  0  0  0  0  0  0  0  0  0  0
    0.7145   -0.4125    0.0000 C   0  0  0  0  0  0  0  0  0  0  0  0
    0.0000   -0.0000    0.0000 C   0  0  0  0  0  0  0  0  0  0  0  0
    0.0000    0.8250    0.0000 C   0  0  0  0  0  0  0  0  0  0  0  0
    0.7145    1.2375    0.0000 C   0  0  0  0  0  0  0  0  0  0  0  0
    0.7145    2.0625    0.0000 F   0  0  0  0  0  0  0  0  0  0  0  0
    1.4289    0.8250    0.0000 C   0  0  0  0  0  0  0  0  0  0  0  0
    1.4289   -0.0000    0.0000 C   0  0  0  0  0  0  0  0  0  0  0  0
    2.1434   -2.8875    0.0000 C   0  0  0  0  0  0  0  0  0  0  0  0
    2.8579   -2.4750    0.0000 I   0  0  0  0  0  0  0  0  0  0  0  0
    2.1434   -3.7125    0.0000 C   0  0  0  0  0  0  0  0  0  0  0  0
   -2.8579   -3.8800    0.0000 H   0  0  0  0  0  0  0  0  0  0  0  0
   -3.7845   -5.4850    0.0000 H   0  0  0  0  0  0  0  0  0  0  0  0
   -3.7846   -4.4150    0.0000 H   0  0  0  0  0  0  0  0  0  0  0  0
   -2.1434   -6.4325    0.0000 H   0  0  0  0  0  0  0  0  0  0  0  0
   -1.2168   -5.8975    0.0000 H   0  0  0  0  0  0  0  0  0  0  0  0
   -0.5023   -3.5900    0.0000 H   0  0  0  0  0  0  0  0  0  0  0  0
   -1.4289   -3.0550    0.0000 H   0  0  0  0  0  0  0  0  0  0  0  0
   -2.1434   -2.6425    0.0000 H   0  0  0  0  0  0  0  0  0  0  0  0
   -3.0700   -4.2475    0.0000 H   0  0  0  0  0  0  0  0  0  0  0  0
   -3.0701   -3.1775    0.0000 H   0  0  0  0  0  0  0  0  0  0  0  0
   -0.7145   -6.4325    0.0000 H   0  0  0  0  0  0  0  0  0  0  0  0
    0.2121   -5.8975    0.0000 H   0  0  0  0  0  0  0  0  0  0  0  0
    0.0000   -3.8800    0.0000 H   0  0  0  0  0  0  0  0  0  0  0  0
    0.9266   -4.4150    0.0000 H   0  0  0  0  0  0  0  0  0  0  0  0
    0.7145   -6.3470    0.0000 H   0  0  0  0  0  0  0  0  0  0  0  0
   -0.7145   -2.6425    0.0000 H   0  0  0  0  0  0  0  0  0  0  0  0
   -1.6411   -4.2475    0.0000 H   0  0  0  0  0  0  0  0  0  0  0  0
   -1.6412   -3.1775    0.0000 H   0  0  0  0  0  0  0  0  0  0  0  0
   -0.1792   -2.3715    0.0000 H   0  0  0  0  0  0  0  0  0  0  0  0
    2.2815   -1.1578    0.0000 H   0  0  0  0  0  0  0  0  0  0  0  0
   -0.8937   -0.5160    0.0000 H   0  0  0  0  0  0  0  0  0  0  0  0
   -0.8937    1.3410    0.0000 H   0  0  0  0  0  0  0  0  0  0  0  0
    2.3226    1.3410    0.0000 H   0  0  0  0  0  0  0  0  0  0  0  0
    2.3226   -0.5160    0.0000 H   0  0  0  0  0  0  0  0  0  0  0  0
    3.0371   -4.2285    0.0000 H   0  0  0  0  0  0  0  0  0  0  0  0
  1  2  1  0  0  0  0
  1 30  1  0  0  0  0
  1 31  1  0  0  0  0
  1 32  1  0  0  0  0
  2  3  1  0  0  0  0
  2 33  1  0  0  0  0
  2 34  1  0  0  0  0
  3  4  1  0  0  0  0
  3  6  1  0  0  0  0
  4  5  1  0  0  0  0
  4 35  1  0  0  0  0
  4 36  1  0  0  0  0
  5 37  1  0  0  0  0
  5 38  1  0  0  0  0
  5 39  1  0  0  0  0
  6  7  1  0  0  0  0
  6 40  1  0  0  0  0
  6 41  1  0  0  0  0
  7  8  1  0  0  0  0
  7 42  1  0  0  0  0
  7 43  1  0  0  0  0
  8  9  1  0  0  0  0
  8 44  1  0  0  0  0
  9 10  2  0  0  0  0
  9 11  1  0  0  0  0
 11 12  2  0  0  0  0
 11 29  1  0  0  0  0
 12 13  1  0  0  0  0
 12 15  1  0  0  0  0
 13 14  1  0  0  0  0
 14 45  1  0  0  0  0
 14 46  1  0  0  0  0
 14 47  1  0  0  0  0
 15 16  2  0  0  0  0
 15 48  1  0  0  0  0
 16 17  1  0  0  0  0
 16 27  1  0  0  0  0
 17 18  1  0  0  0  0
 17 49  1  0  0  0  0
 18 19  2  0  0  0  0
 18 20  1  0  0  0  0
 20 21  2  0  0  0  0
 20 26  1  0  0  0  0
 21 22  1  0  0  0  0
 21 50  1  0  0  0  0
 22 23  2  0  0  0  0
 22 51  1  0  0  0  0
 23 24  1  0  0  0  0
 23 25  1  0  0  0  0
 25 26  2  0  0  0  0
 25 52  1  0  0  0  0
 26 53  1  0  0  0  0
 27 28  1  0  0  0  0
 27 29  2  0  0  0  0
 29 54  1  0  0  0  0
M  ISO  1  28 131
M  END
>  <DRUGBANK_ID>
DB17102

>  <COMMON_NAME>
Ioflubenzamide I-131

>  <CAS_NUMBER>
1214283-52-9

>  <UNII>
65O1D58Z6V

>  <SYNONYMS>
(131i)-n-(2-(diethylamino) ethyl-4-(4 flurobenzamido)-5-(iodo)-2-methoxybenzamide; [131I]-N-(2-(diethylamino) ethyl-4-(4 flurobenzamido)-5-(iodo)-2-methoxybenzamide; Benzamide, n-(2-(diethylamino)ethyl)-4-((4-fluorobenzoyl)amino)-5-(iodo-131i)-2-methoxy-; Ioflubenzamide (131 i); Ioflubenzamide (131i); Ioflubenzamide i 131; Ioflubenzamide, I-131; N-(2-(diethylamino)ethyl)-4-((4-fluorobenzoyl)amino)-5-((sup 131)i)iodo-2-methoxybenzamide; N-(2-(diethylamino)ethyl)-4-((4-fluorobenzoyl)amino)-5-(iodo-131i)-2-methoxybenzamide

$$$$
