
 OpenBabel10282417072D

 35 36  0  0  1  0  0  0  0  0999 V2000
   16.8537   -6.8636    0.0000 C   0  0  0  0  0  0  0  0  0  0  0  0
   16.8537   -6.0579    0.0000 C   0  0  0  0  0  0  0  0  0  0  0  0
   16.1375   -7.2933    0.0000 S   0  0  0  0  0  0  0  0  0  0  0  0
   17.6415   -7.1322    0.0000 S   0  0  0  0  0  0  0  0  0  0  0  0
   16.1375   -5.6460    0.0000 C   0  0  2  0  0  0  0  0  0  0  0  0
   17.6415   -5.7893    0.0000 C   0  0  0  0  0  0  0  0  0  0  0  0
   15.4213   -6.8636    0.0000 C   0  0  2  0  0  0  0  0  0  0  0  0
   15.7257   -7.9916    0.0000 O   0  0  0  0  0  0  0  0  0  0  0  0
   16.5135   -7.9916    0.0000 O   0  0  0  0  0  0  0  0  0  0  0  0
   18.1071   -6.4697    0.0000 C   0  0  0  0  0  0  0  0  0  0  0  0
   15.4213   -6.0579    0.0000 C   0  0  0  0  0  0  0  0  0  0  0  0
   16.1375   -4.8045    0.0000 N   0  0  0  0  0  0  0  0  0  0  0  0
   14.7230   -7.2933    0.0000 C   0  0  0  0  0  0  0  0  0  0  0  0
   18.9307   -6.4697    0.0000 S   0  0  0  0  0  0  0  0  0  0  0  0
   19.3425   -7.1859    0.0000 N   0  0  0  0  0  0  0  0  0  0  0  0
   18.9307   -5.6460    0.0000 O   0  0  0  0  0  0  0  0  0  0  0  0
   19.6469   -6.0758    0.0000 O   0  0  0  0  0  0  0  0  0  0  0  0
   15.4182   -4.3995    0.0000 C   0  0  0  0  0  0  0  0  0  0  0  0
   14.7072   -4.8202    0.0000 C   0  0  0  0  0  0  0  0  0  0  0  0
   17.0637   -5.1102    0.0000 H   0  0  0  0  0  0  0  0  0  0  0  0
   17.9672   -4.8100    0.0000 H   0  0  0  0  0  0  0  0  0  0  0  0
   15.4273   -7.9336    0.0000 H   0  0  0  0  0  0  0  0  0  0  0  0
   14.4951   -5.5221    0.0000 H   0  0  0  0  0  0  0  0  0  0  0  0
   14.4944   -6.5925    0.0000 H   0  0  0  0  0  0  0  0  0  0  0  0
   17.0181   -4.2897    0.0000 H   0  0  0  0  0  0  0  0  0  0  0  0
   13.7817   -6.7845    0.0000 H   0  0  0  0  0  0  0  0  0  0  0  0
   14.7530   -8.3629    0.0000 H   0  0  0  0  0  0  0  0  0  0  0  0
   13.8117   -7.8541    0.0000 H   0  0  0  0  0  0  0  0  0  0  0  0
   18.8309   -8.0683    0.0000 H   0  0  0  0  0  0  0  0  0  0  0  0
   20.3625   -7.1877    0.0000 H   0  0  0  0  0  0  0  0  0  0  0  0
   15.4067   -3.3296    0.0000 H   0  0  0  0  0  0  0  0  0  0  0  0
   14.4859   -3.8745    0.0000 H   0  0  0  0  0  0  0  0  0  0  0  0
   13.7749   -4.2951    0.0000 H   0  0  0  0  0  0  0  0  0  0  0  0
   14.7186   -5.8901    0.0000 H   0  0  0  0  0  0  0  0  0  0  0  0
   13.7863   -5.3651    0.0000 H   0  0  0  0  0  0  0  0  0  0  0  0
  2  1  2  0  0  0  0
  3  1  1  0  0  0  0
  4  1  1  0  0  0  0
  5  2  1  0  0  0  0
  5 12  1  0  0  0  0
  5 20  1  1  0  0  0
  6  2  1  0  0  0  0
  6 21  1  0  0  0  0
  7  3  1  0  0  0  0
  7 13  1  0  0  0  0
  7 22  1  6  0  0  0
  8  3  2  0  0  0  0
  9  3  2  0  0  0  0
 10  4  1  0  0  0  0
 10  6  2  0  0  0  0
 11  5  1  0  0  0  0
 11  7  1  0  0  0  0
 11 23  1  0  0  0  0
 11 24  1  0  0  0  0
 12 18  1  0  0  0  0
 12 25  1  0  0  0  0
 13 26  1  0  0  0  0
 13 27  1  0  0  0  0
 13 28  1  0  0  0  0
 14 10  1  0  0  0  0
 15 14  1  0  0  0  0
 15 29  1  0  0  0  0
 15 30  1  0  0  0  0
 16 14  2  0  0  0  0
 17 14  2  0  0  0  0
 18 19  1  0  0  0  0
 18 31  1  0  0  0  0
 18 32  1  0  0  0  0
 19 33  1  0  0  0  0
 19 34  1  0  0  0  0
 19 35  1  0  0  0  0
M  END
>  <DRUGBANK_ID>
DB00869

>  <SECONDARY_ACCESSION_NUMBERS>
APRD00577; DB04507

>  <COMMON_NAME>
Dorzolamide

>  <CAS_NUMBER>
120279-96-1

>  <UNII>
9JDX055TW1

>  <SYNONYMS>
(4S,6S)-4-ethylamino-6-methyl-7,7-dioxo-4,5,6,7-tetrahydro-7lambda*6*-thieno[2,3-b]thiopyran-2-sulfonic acid amide; (4S,trans)-4-(ethylamino)-6-methyl-5,6-dihydro-4H-thieno[2,3-b]thiopyran-2-sulfonamide 7,7-dioxide; 4-Ethylamino-6-methyl-7,7-dioxo-4,5,6,7-tetrahydro-7lambda*6*-thieno[2,3-b]thiopyran-2-sulfonic acid amide; 4-ethylamino-6-methyl-7,7-dioxo-4,5,6,7-tetrahydro-7lambda6-thieno[2,3-b]thiopyran-2-sulfonic acid amide; 4S,6S-dorzolamide; Dorzolamid; Dorzolamida; Dorzolamide; Dorzolamidum

$$$$
