
 OpenBabel10282417072D

 33 34  0  0  0  0  0  0  0  0999 V2000
   -1.4760    0.7940    0.0000 N   0  0  0  0  0  0  0  0  0  0  0  0
   -0.7615    0.3815    0.0000 C   0  0  0  0  0  0  0  0  0  0  0  0
   -0.0470    0.7940    0.0000 N   0  0  0  0  0  0  0  0  0  0  0  0
    0.6673    0.3815    0.0000 C   0  0  0  0  0  0  0  0  0  0  0  0
    1.3818    0.7940    0.0000 C   0  0  0  0  0  0  0  0  0  0  0  0
    1.3818    1.6190    0.0000 C   0  0  0  0  0  0  0  0  0  0  0  0
    2.0963    2.0315    0.0000 C   0  0  0  0  0  0  0  0  0  0  0  0
    2.8107    1.6190    0.0000 C   0  0  0  0  0  0  0  0  0  0  0  0
    2.8107    0.7940    0.0000 C   0  0  0  0  0  0  0  0  0  0  0  0
    2.0963    0.3815    0.0000 C   0  0  0  0  0  0  0  0  0  0  0  0
    3.5252    2.0315    0.0000 O   0  0  0  0  0  0  0  0  0  0  0  0
    4.2397    1.6190    0.0000 C   0  0  0  0  0  0  0  0  0  0  0  0
   -0.7615   -0.4434    0.0000 O   0  0  0  0  0  0  0  0  0  0  0  0
   -2.1904    0.3815    0.0000 C   0  0  0  0  0  0  0  0  0  0  0  0
   -2.2767   -0.4389    0.0000 S   0  0  0  0  0  0  0  0  0  0  0  0
   -3.0837   -0.6104    0.0000 C   0  0  0  0  0  0  0  0  0  0  0  0
   -3.4961    0.1039    0.0000 C   0  0  0  0  0  0  0  0  0  0  0  0
   -2.9441    0.7171    0.0000 N   0  0  0  0  0  0  0  0  0  0  0  0
   -3.4192   -1.3641    0.0000 N   0  3  0  0  0  0  0  0  0  0  0  0
   -2.9343   -2.0315    0.0000 O   0  0  0  0  0  0  0  0  0  0  0  0
   -4.2397   -1.4503    0.0000 O   0  5  0  0  0  0  0  0  0  0  0  0
   -1.4760    1.7785    0.0000 H   0  0  0  0  0  0  0  0  0  0  0  0
   -0.0469    1.7785    0.0000 H   0  0  0  0  0  0  0  0  0  0  0  0
    0.6672   -0.6885    0.0000 H   0  0  0  0  0  0  0  0  0  0  0  0
    1.5939   -0.1535    0.0000 H   0  0  0  0  0  0  0  0  0  0  0  0
    0.4881    2.1350    0.0000 H   0  0  0  0  0  0  0  0  0  0  0  0
    2.0963    3.0635    0.0000 H   0  0  0  0  0  0  0  0  0  0  0  0
    3.7044    0.2780    0.0000 H   0  0  0  0  0  0  0  0  0  0  0  0
    2.0963   -0.6505    0.0000 H   0  0  0  0  0  0  0  0  0  0  0  0
    4.2397    0.5490    0.0000 H   0  0  0  0  0  0  0  0  0  0  0  0
    5.1663    2.1540    0.0000 H   0  0  0  0  0  0  0  0  0  0  0  0
    5.1664    1.0840    0.0000 H   0  0  0  0  0  0  0  0  0  0  0  0
   -4.5225    0.2117    0.0000 H   0  0  0  0  0  0  0  0  0  0  0  0
  1  2  1  0  0  0  0
  1 14  1  0  0  0  0
  1 22  1  0  0  0  0
  2  3  1  0  0  0  0
  2 13  2  0  0  0  0
  3  4  1  0  0  0  0
  3 23  1  0  0  0  0
  4  5  1  0  0  0  0
  4 24  1  0  0  0  0
  4 25  1  0  0  0  0
  5  6  2  0  0  0  0
  5 10  1  0  0  0  0
  6  7  1  0  0  0  0
  6 26  1  0  0  0  0
  7  8  2  0  0  0  0
  7 27  1  0  0  0  0
  8 11  1  0  0  0  0
  9  8  1  0  0  0  0
  9 28  1  0  0  0  0
 10  9  2  0  0  0  0
 10 29  1  0  0  0  0
 11 12  1  0  0  0  0
 12 30  1  0  0  0  0
 12 31  1  0  0  0  0
 12 32  1  0  0  0  0
 14 15  1  0  0  0  0
 14 18  2  0  0  0  0
 15 16  1  0  0  0  0
 16 17  2  0  0  0  0
 16 19  1  0  0  0  0
 17 33  1  0  0  0  0
 18 17  1  0  0  0  0
 19 20  2  0  0  0  0
 19 21  1  0  0  0  0
M  CHG  2  19   1  21  -1
M  END
>  <DRUGBANK_ID>
DB01950

>  <SECONDARY_ACCESSION_NUMBERS>
EXPT03075

>  <COMMON_NAME>
AR-AO-14418

>  <CAS_NUMBER>
487021-52-3

>  <UNII>
87KSH90Q6D

$$$$
