
 OpenBabel10282417072D

 13  9  0  0  0  0  0  0  0  0999 V2000
    3.5872    0.4125    0.0000 Ga  0  1  0  0  0  0  0  0  0  0  0  0
    1.4290    1.2375    0.0000 O   0  5  0  0  0  0  0  0  0  0  0  0
    0.0000    1.2375    0.0000 O   0  5  0  0  0  0  0  0  0  0  0  0
    4.5079    3.7125    0.0000 O   0  5  0  0  0  0  0  0  0  0  0  0
    3.0790    3.7125    0.0000 O   0  5  0  0  0  0  0  0  0  0  0  0
    1.4290    4.1250    0.0000 O   0  5  0  0  0  0  0  0  0  0  0  0
    0.0000    4.1250    0.0000 O   0  5  0  0  0  0  0  0  0  0  0  0
    0.7144    0.0000    0.0000 O   0  0  0  0  0  0  0  0  0  0  0  0
    3.7934    2.4750    0.0000 O   0  0  0  0  0  0  0  0  0  0  0  0
    0.7144    2.8875    0.0000 O   0  0  0  0  0  0  0  0  0  0  0  0
    0.7144    0.8250    0.0000 N   0  3  0  0  0  0  0  0  0  0  0  0
    3.7934    3.3000    0.0000 N   0  3  0  0  0  0  0  0  0  0  0  0
    0.7144    3.7125    0.0000 N   0  3  0  0  0  0  0  0  0  0  0  0
  2 11  1  0  0  0  0
  3 11  1  0  0  0  0
  4 12  1  0  0  0  0
  5 12  1  0  0  0  0
  6 13  1  0  0  0  0
  7 13  1  0  0  0  0
  8 11  2  0  0  0  0
  9 12  2  0  0  0  0
 10 13  2  0  0  0  0
M  CHG  8   1   3   2  -1   3  -1   4  -1   5  -1   6  -1   7  -1  11   1
M  CHG  2  12   1  13   1
M  END
>  <DRUGBANK_ID>
DB05260

>  <COMMON_NAME>
Gallium nitrate

>  <CAS_NUMBER>
13494-90-1

>  <UNII>
Y2V2R4W9TQ

>  <SYNONYMS>
Gallium nitrate (anhydrous); Gallium nitrate injection; Nitric acid, gallium salt, anhydrate

$$$$
