
 OpenBabel10282417072D

 52 54  0  0  0  0  0  0  0  0999 V2000
   -1.4207    2.9736    0.0000 S   0  0  0  0  0  0  0  0  0  0  0  0
    1.1233    0.1662    0.0000 O   0  0  0  0  0  0  0  0  0  0  0  0
    0.2982    3.0242    0.0000 O   0  0  0  0  0  0  0  0  0  0  0  0
    1.1233    1.5951    0.0000 N   0  0  0  0  0  0  0  0  0  0  0  0
   -1.4207    1.6457    0.0000 N   0  0  0  0  0  0  0  0  0  0  0  0
    0.2982   -1.2628    0.0000 N   0  0  0  0  0  0  0  0  0  0  0  0
   -0.9392   -1.9773    0.0000 N   0  0  0  0  0  0  0  0  0  0  0  0
    0.2982   -2.6917    0.0000 N   0  0  0  0  0  0  0  0  0  0  0  0
    2.3609    0.8807    0.0000 C   0  0  0  0  0  0  0  0  0  0  0  0
    2.8458    0.2132    0.0000 C   0  0  0  0  0  0  0  0  0  0  0  0
    2.8458    1.5481    0.0000 C   0  0  0  0  0  0  0  0  0  0  0  0
    3.6304    0.4681    0.0000 C   0  0  0  0  0  0  0  0  0  0  0  0
    3.6304    1.2932    0.0000 C   0  0  0  0  0  0  0  0  0  0  0  0
    1.5358    0.8807    0.0000 C   0  0  0  0  0  0  0  0  0  0  0  0
    0.2982    1.5951    0.0000 C   0  0  1  0  0  0  0  0  0  0  0  0
   -0.1142    0.8807    0.0000 C   0  0  0  0  0  0  0  0  0  0  0  0
    0.2982    0.1662    0.0000 C   0  0  0  0  0  0  0  0  0  0  0  0
   -0.1142    2.3097    0.0000 C   0  0  0  0  0  0  0  0  0  0  0  0
   -0.1142   -0.5481    0.0000 C   0  0  0  0  0  0  0  0  0  0  0  0
   -0.9392    2.3097    0.0000 C   0  0  0  0  0  0  0  0  0  0  0  0
   -2.2013    2.7222    0.0000 C   0  0  0  0  0  0  0  0  0  0  0  0
   -2.2013    1.8972    0.0000 C   0  0  0  0  0  0  0  0  0  0  0  0
   -2.9159    3.1348    0.0000 C   0  0  0  0  0  0  0  0  0  0  0  0
   -2.9159    1.4847    0.0000 C   0  0  0  0  0  0  0  0  0  0  0  0
   -0.1142   -1.9773    0.0000 C   0  0  0  0  0  0  0  0  0  0  0  0
   -3.6304    2.7222    0.0000 C   0  0  0  0  0  0  0  0  0  0  0  0
   -3.6304    1.8972    0.0000 C   0  0  0  0  0  0  0  0  0  0  0  0
    1.3790    2.0382    0.0000 H   0  0  0  0  0  0  0  0  0  0  0  0
   -1.1950   -2.4202    0.0000 H   0  0  0  0  0  0  0  0  0  0  0  0
   -1.1950   -1.5343    0.0000 H   0  0  0  0  0  0  0  0  0  0  0  0
    0.8098   -2.6917    0.0000 H   0  0  0  0  0  0  0  0  0  0  0  0
    0.0424   -3.1348    0.0000 H   0  0  0  0  0  0  0  0  0  0  0  0
    1.8751    1.8341    0.0000 H   0  0  0  0  0  0  0  0  0  0  0  0
    2.5151   -0.8044    0.0000 H   0  0  0  0  0  0  0  0  0  0  0  0
    3.6024   -0.5434    0.0000 H   0  0  0  0  0  0  0  0  0  0  0  0
    2.5151    2.5657    0.0000 H   0  0  0  0  0  0  0  0  0  0  0  0
    3.6024    2.3047    0.0000 H   0  0  0  0  0  0  0  0  0  0  0  0
    4.4960   -0.1608    0.0000 H   0  0  0  0  0  0  0  0  0  0  0  0
    4.5838    0.9539    0.0000 H   0  0  0  0  0  0  0  0  0  0  0  0
    4.4960    1.9221    0.0000 H   0  0  0  0  0  0  0  0  0  0  0  0
    4.5838    0.8074    0.0000 H   0  0  0  0  0  0  0  0  0  0  0  0
    0.8332    0.6685    0.0000 H   0  0  0  0  0  0  0  0  0  0  0  0
   -1.1842    0.8807    0.0000 H   0  0  0  0  0  0  0  0  0  0  0  0
   -0.6493   -0.0459    0.0000 H   0  0  0  0  0  0  0  0  0  0  0  0
    1.3682    0.1661    0.0000 H   0  0  0  0  0  0  0  0  0  0  0  0
    0.8332   -0.7605    0.0000 H   0  0  0  0  0  0  0  0  0  0  0  0
   -1.1842   -0.5480    0.0000 H   0  0  0  0  0  0  0  0  0  0  0  0
   -0.6491    0.3786    0.0000 H   0  0  0  0  0  0  0  0  0  0  0  0
   -2.9159    4.1668    0.0000 H   0  0  0  0  0  0  0  0  0  0  0  0
   -2.9159    0.4527    0.0000 H   0  0  0  0  0  0  0  0  0  0  0  0
   -4.5242    3.2382    0.0000 H   0  0  0  0  0  0  0  0  0  0  0  0
   -4.5241    1.3812    0.0000 H   0  0  0  0  0  0  0  0  0  0  0  0
  1 20  1  0  0  0  0
  1 21  1  0  0  0  0
  2 14  2  0  0  0  0
  3 18  2  0  0  0  0
  4 14  1  0  0  0  0
  4 28  1  0  0  0  0
  5 20  2  0  0  0  0
  5 22  1  0  0  0  0
  6 19  1  0  0  0  0
  6 25  2  0  0  0  0
  7 25  1  0  0  0  0
  7 29  1  0  0  0  0
  7 30  1  0  0  0  0
  8 25  1  0  0  0  0
  8 31  1  0  0  0  0
  8 32  1  0  0  0  0
  9 10  1  0  0  0  0
  9 11  1  0  0  0  0
  9 14  1  0  0  0  0
  9 33  1  0  0  0  0
 10 12  1  0  0  0  0
 10 34  1  0  0  0  0
 10 35  1  0  0  0  0
 11 13  1  0  0  0  0
 11 36  1  0  0  0  0
 11 37  1  0  0  0  0
 12 13  1  0  0  0  0
 12 38  1  0  0  0  0
 12 39  1  0  0  0  0
 13 40  1  0  0  0  0
 13 41  1  0  0  0  0
 15  4  1  0  0  0  0
 15 16  1  0  0  0  0
 15 18  1  0  0  0  0
 15 42  1  6  0  0  0
 16 17  1  0  0  0  0
 16 43  1  0  0  0  0
 16 44  1  0  0  0  0
 17 19  1  0  0  0  0
 17 45  1  0  0  0  0
 17 46  1  0  0  0  0
 18 20  1  0  0  0  0
 19 47  1  0  0  0  0
 19 48  1  0  0  0  0
 21 22  1  0  0  0  0
 21 23  2  0  0  0  0
 22 24  2  0  0  0  0
 23 26  1  0  0  0  0
 23 49  1  0  0  0  0
 24 27  1  0  0  0  0
 24 50  1  0  0  0  0
 26 27  2  0  0  0  0
 26 51  1  0  0  0  0
 27 52  1  0  0  0  0
M  END
>  <DRUGBANK_ID>
DB03251

>  <SECONDARY_ACCESSION_NUMBERS>
EXPT02826

>  <COMMON_NAME>
RWJ-51084

$$$$
