750
 OpenBabel10282417072D

 36 36  0  0  1  0  0  0  0  0999 V2000
    4.5080   -0.6188    0.0000 O   0  0  0  0  0  0  0  0  0  0  0  0
    4.5080    1.0313    0.0000 N   0  0  0  0  0  0  0  0  0  0  0  0
    3.0791   -0.6188    0.0000 N   0  0  0  0  0  0  0  0  0  0  0  0
    3.7935    0.6188    0.0000 C   0  0  3  0  0  0  0  0  0  0  0  0
    4.5080    1.8563    0.0000 C   0  0  0  0  0  0  0  0  0  0  0  0
    5.2224    2.2688    0.0000 C   0  0  0  0  0  0  0  0  0  0  0  0
    3.7935   -0.2063    0.0000 C   0  0  0  0  0  0  0  0  0  0  0  0
    3.0791    1.0313    0.0000 C   0  0  0  0  0  0  0  0  0  0  0  0
    3.0791   -1.4438    0.0000 C   0  0  0  0  0  0  0  0  0  0  0  0
    2.3645   -1.8563    0.0000 C   0  0  0  0  0  0  0  0  0  0  0  0
    5.2224    3.0938    0.0000 C   0  0  0  0  0  0  0  0  0  0  0  0
    3.7935   -1.8563    0.0000 C   0  0  0  0  0  0  0  0  0  0  0  0
    2.3645   -2.6813    0.0000 C   0  0  0  0  0  0  0  0  0  0  0  0
    1.6500   -1.4438    0.0000 C   0  0  0  0  0  0  0  0  0  0  0  0
    3.7935   -2.6813    0.0000 C   0  0  0  0  0  0  0  0  0  0  0  0
    3.0791   -3.0938    0.0000 C   0  0  0  0  0  0  0  0  0  0  0  0
    5.3913    0.5213    0.0000 H   0  0  0  0  0  0  0  0  0  0  0  0
    2.2265   -0.1266    0.0000 H   0  0  0  0  0  0  0  0  0  0  0  0
    4.7201    0.0838    0.0000 H   0  0  0  0  0  0  0  0  0  0  0  0
    3.5813    2.3913    0.0000 H   0  0  0  0  0  0  0  0  0  0  0  0
    4.5080    2.9263    0.0000 H   0  0  0  0  0  0  0  0  0  0  0  0
    6.1491    1.7338    0.0000 H   0  0  0  0  0  0  0  0  0  0  0  0
    6.1490    2.8038    0.0000 H   0  0  0  0  0  0  0  0  0  0  0  0
    3.0791    2.1013    0.0000 H   0  0  0  0  0  0  0  0  0  0  0  0
    2.1524    0.4963    0.0000 H   0  0  0  0  0  0  0  0  0  0  0  0
    2.1525    1.5663    0.0000 H   0  0  0  0  0  0  0  0  0  0  0  0
    6.1490    3.6288    0.0000 H   0  0  0  0  0  0  0  0  0  0  0  0
    4.2958    3.6288    0.0000 H   0  0  0  0  0  0  0  0  0  0  0  0
    5.2224    4.1638    0.0000 H   0  0  0  0  0  0  0  0  0  0  0  0
    4.6872   -1.3403    0.0000 H   0  0  0  0  0  0  0  0  0  0  0  0
    1.4708   -3.1973    0.0000 H   0  0  0  0  0  0  0  0  0  0  0  0
    1.6500   -0.3738    0.0000 H   0  0  0  0  0  0  0  0  0  0  0  0
    0.7234   -1.9788    0.0000 H   0  0  0  0  0  0  0  0  0  0  0  0
    0.7233   -0.9088    0.0000 H   0  0  0  0  0  0  0  0  0  0  0  0
    4.6872   -3.1973    0.0000 H   0  0  0  0  0  0  0  0  0  0  0  0
    3.0792   -4.1258    0.0000 H   0  0  0  0  0  0  0  0  0  0  0  0
  1  7  2  0  0  0  0
  2  4  1  0  0  0  0
  2  5  1  0  0  0  0
  2 17  1  0  0  0  0
  3  7  1  0  0  0  0
  3  9  1  0  0  0  0
  3 18  1  0  0  0  0
  4  7  1  0  0  0  0
  4  8  1  0  0  0  0
  4 19  1  0  0  0  0
  5  6  1  0  0  0  0
  5 20  1  0  0  0  0
  5 21  1  0  0  0  0
  6 11  1  0  0  0  0
  6 22  1  0  0  0  0
  6 23  1  0  0  0  0
  8 24  1  0  0  0  0
  8 25  1  0  0  0  0
  8 26  1  0  0  0  0
  9 10  1  0  0  0  0
  9 12  2  0  0  0  0
 10 13  2  0  0  0  0
 10 14  1  0  0  0  0
 11 27  1  0  0  0  0
 11 28  1  0  0  0  0
 11 29  1  0  0  0  0
 12 15  1  0  0  0  0
 12 30  1  0  0  0  0
 13 16  1  0  0  0  0
 13 31  1  0  0  0  0
 14 32  1  0  0  0  0
 14 33  1  0  0  0  0
 14 34  1  0  0  0  0
 15 16  2  0  0  0  0
 15 35  1  0  0  0  0
 16 36  1  0  0  0  0
M  END
>  <DRUGBANK_ID>
DB00750

>  <SECONDARY_ACCESSION_NUMBERS>
APRD00180

>  <COMMON_NAME>
Prilocaine

>  <CAS_NUMBER>
721-50-6

>  <UNII>
046O35D44R

>  <SYNONYMS>
2-(Propylamino)-o-propionotoluidide; 2-Methyl-alpha-propylaminopropionanilide; alpha-n-Propylamino-2-methylpropionanilide; N-(2-Methylphenyl)-2-(propylamino)propanamide; o-Methyl-2-propylaminopropionanilide; o-Methyl-alpha-propylaminopropionanilide; Prilocain; Prilocaina; Priloca√Øne; Prilocaine; Prilocaine base; Prilocainum; Propitocaine

$$$$
