CBP
 OpenBabel10282417072D

 48 50  0  0  0  0  0  0  0  0999 V2000
   -3.7455   -0.0884    0.0000 O   0  0  0  0  0  0  0  0  0  0  0  0
   -2.9331    0.0548    0.0000 N   0  0  0  0  0  0  0  0  0  0  0  0
   -2.4028   -0.5772    0.0000 C   0  0  0  0  0  0  0  0  0  0  0  0
   -2.6849   -1.3524    0.0000 O   0  0  0  0  0  0  0  0  0  0  0  0
   -1.5903   -0.4339    0.0000 C   0  0  0  0  0  0  0  0  0  0  0  0
   -1.0600   -1.0659    0.0000 C   0  0  0  0  0  0  0  0  0  0  0  0
   -0.3455   -1.4784    0.0000 C   0  0  0  0  0  0  0  0  0  0  0  0
   -0.3455   -2.3034    0.0000 C   0  0  0  0  0  0  0  0  0  0  0  0
   -1.0600   -2.7159    0.0000 O   0  0  0  0  0  0  0  0  0  0  0  0
   -1.7745   -2.3034    0.0000 C   0  0  0  0  0  0  0  0  0  0  0  0
   -1.7745   -1.4784    0.0000 C   0  0  0  0  0  0  0  0  0  0  0  0
   -0.5297   -0.4339    0.0000 S   0  0  0  0  0  0  0  0  0  0  0  0
    0.1023   -0.9642    0.0000 O   0  0  0  0  0  0  0  0  0  0  0  0
   -1.1617    0.0964    0.0000 O   0  0  0  0  0  0  0  0  0  0  0  0
    0.0006    0.1981    0.0000 C   0  0  0  0  0  0  0  0  0  0  0  0
   -0.2816    0.9733    0.0000 C   0  0  0  0  0  0  0  0  0  0  0  0
    0.2487    1.6053    0.0000 C   0  0  0  0  0  0  0  0  0  0  0  0
    1.0612    1.4621    0.0000 C   0  0  0  0  0  0  0  0  0  0  0  0
    1.3434    0.6868    0.0000 C   0  0  0  0  0  0  0  0  0  0  0  0
    0.8131    0.0548    0.0000 C   0  0  0  0  0  0  0  0  0  0  0  0
    1.5915    2.0941    0.0000 O   0  0  0  0  0  0  0  0  0  0  0  0
    2.4040    1.9508    0.0000 C   0  0  0  0  0  0  0  0  0  0  0  0
    2.9343    2.5828    0.0000 C   0  0  0  0  0  0  0  0  0  0  0  0
    3.7467    2.4395    0.0000 C   0  0  0  0  0  0  0  0  0  0  0  0
    4.0289    1.6643    0.0000 C   0  0  0  0  0  0  0  0  0  0  0  0
    3.4986    1.0323    0.0000 C   0  0  0  0  0  0  0  0  0  0  0  0
    2.6861    1.1755    0.0000 C   0  0  0  0  0  0  0  0  0  0  0  0
    4.8414    1.5210    0.0000 Cl  0  0  0  0  0  0  0  0  0  0  0  0
   -4.3690    0.6547    0.0000 H   0  0  0  0  0  0  0  0  0  0  0  0
   -2.5963    0.9799    0.0000 H   0  0  0  0  0  0  0  0  0  0  0  0
   -1.2244    0.5716    0.0000 H   0  0  0  0  0  0  0  0  0  0  0  0
   -0.5366   -0.2481    0.0000 H   0  0  0  0  0  0  0  0  0  0  0  0
    0.5811   -0.9434    0.0000 H   0  0  0  0  0  0  0  0  0  0  0  0
    0.5811   -2.0134    0.0000 H   0  0  0  0  0  0  0  0  0  0  0  0
    0.5811   -2.8384    0.0000 H   0  0  0  0  0  0  0  0  0  0  0  0
   -0.3455   -3.3734    0.0000 H   0  0  0  0  0  0  0  0  0  0  0  0
   -2.7011   -2.8384    0.0000 H   0  0  0  0  0  0  0  0  0  0  0  0
   -2.7011   -1.7684    0.0000 H   0  0  0  0  0  0  0  0  0  0  0  0
   -2.7011   -0.9434    0.0000 H   0  0  0  0  0  0  0  0  0  0  0  0
   -2.7011   -2.0134    0.0000 H   0  0  0  0  0  0  0  0  0  0  0  0
   -1.2979    1.1525    0.0000 H   0  0  0  0  0  0  0  0  0  0  0  0
   -0.1043    2.5750    0.0000 H   0  0  0  0  0  0  0  0  0  0  0  0
    2.3597    0.5076    0.0000 H   0  0  0  0  0  0  0  0  0  0  0  0
    1.1660   -0.9150    0.0000 H   0  0  0  0  0  0  0  0  0  0  0  0
    2.5814    3.5526    0.0000 H   0  0  0  0  0  0  0  0  0  0  0  0
    4.4101    3.2301    0.0000 H   0  0  0  0  0  0  0  0  0  0  0  0
    3.8516    0.0626    0.0000 H   0  0  0  0  0  0  0  0  0  0  0  0
    2.0227    0.3849    0.0000 H   0  0  0  0  0  0  0  0  0  0  0  0
  1  2  1  0  0  0  0
  1 29  1  0  0  0  0
  2  3  1  0  0  0  0
  2 30  1  0  0  0  0
  3  4  2  0  0  0  0
  3  5  1  0  0  0  0
  5  6  1  0  0  0  0
  5 31  1  0  0  0  0
  5 32  1  0  0  0  0
  6  7  1  0  0  0  0
  6 11  1  0  0  0  0
  6 12  1  0  0  0  0
  7  8  1  0  0  0  0
  7 33  1  0  0  0  0
  7 34  1  0  0  0  0
  8  9  1  0  0  0  0
  8 35  1  0  0  0  0
  8 36  1  0  0  0  0
  9 10  1  0  0  0  0
 10 11  1  0  0  0  0
 10 37  1  0  0  0  0
 10 38  1  0  0  0  0
 11 39  1  0  0  0  0
 11 40  1  0  0  0  0
 12 13  2  0  0  0  0
 12 14  2  0  0  0  0
 12 15  1  0  0  0  0
 15 16  2  0  0  0  0
 15 20  1  0  0  0  0
 16 17  1  0  0  0  0
 16 41  1  0  0  0  0
 17 18  2  0  0  0  0
 17 42  1  0  0  0  0
 18 19  1  0  0  0  0
 18 21  1  0  0  0  0
 19 20  2  0  0  0  0
 19 43  1  0  0  0  0
 20 44  1  0  0  0  0
 21 22  1  0  0  0  0
 22 23  2  0  0  0  0
 22 27  1  0  0  0  0
 23 24  1  0  0  0  0
 23 45  1  0  0  0  0
 24 25  2  0  0  0  0
 24 46  1  0  0  0  0
 25 26  1  0  0  0  0
 25 28  1  0  0  0  0
 26 27  2  0  0  0  0
 26 47  1  0  0  0  0
 27 48  1  0  0  0  0
M  END
>  <DRUGBANK_ID>
DB02049

>  <SECONDARY_ACCESSION_NUMBERS>
EXPT00849

>  <COMMON_NAME>
2-{4-[4-(4-Chloro-Phenoxy)-Benzenesulfonyl]-Tetrahydro-Pyran-4-Yl}-N-Hydroxy-Acetamide

$$$$
