248
 OpenBabel10282417072D

 70 73  0  0  1  0  0  0  0  0999 V2000
    2.3788   -0.1484    0.0000 O   0  0  0  0  0  0  0  0  0  0  0  0
    1.6596    1.0864    0.0000 O   0  0  0  0  0  0  0  0  0  0  0  0
    5.2928   -0.1486    0.0000 N   0  0  0  0  0  0  0  0  0  0  0  0
    6.2679   -3.5446    0.0000 N   0  0  0  0  0  0  0  0  0  0  0  0
    3.0885    1.0919    0.0000 N   0  0  0  0  0  0  0  0  0  0  0  0
    2.3692    2.3266    0.0000 N   0  0  0  0  0  0  0  0  0  0  0  0
    4.5079    3.5723    0.0000 N   0  0  0  0  0  0  0  0  0  0  0  0
    4.5651   -1.4203    0.0000 C   0  0  2  0  0  0  0  0  0  0  0  0
    5.2796   -1.0078    0.0000 C   0  0  1  0  0  0  0  0  0  0  0  0
    3.8143   -1.0022    0.0000 C   0  0  0  0  0  0  0  0  0  0  0  0
    3.8077   -0.1429    0.0000 C   0  0  2  0  0  0  0  0  0  0  0  0
    5.9940   -1.4203    0.0000 C   0  0  0  0  0  0  0  0  0  0  0  0
    4.5519    0.2868    0.0000 C   0  0  0  0  0  0  0  0  0  0  0  0
    4.5651   -2.2453    0.0000 C   0  0  0  0  0  0  0  0  0  0  0  0
    5.2796   -2.6578    0.0000 C   0  0  0  0  0  0  0  0  0  0  0  0
    5.9940   -2.2453    0.0000 C   0  0  0  0  0  0  0  0  0  0  0  0
    6.0120    0.2556    0.0000 C   0  0  0  0  0  0  0  0  0  0  0  0
    3.0917    0.2669    0.0000 C   0  0  0  0  0  0  0  0  0  0  0  0
    5.2928   -3.5171    0.0000 C   0  0  0  0  0  0  0  0  0  0  0  0
    3.8143   -2.6635    0.0000 C   0  0  0  0  0  0  0  0  0  0  0  0
    6.6021   -2.7957    0.0000 C   0  0  0  0  0  0  0  0  0  0  0  0
    4.5519   -3.9525    0.0000 C   0  0  0  0  0  0  0  0  0  0  0  0
    3.8077   -3.5228    0.0000 C   0  0  0  0  0  0  0  0  0  0  0  0
    6.0215    1.0806    0.0000 C   0  0  0  0  0  0  0  0  0  0  0  0
    3.8014    1.5071    0.0000 C   0  0  0  0  0  0  0  0  0  0  0  0
    2.3725    1.5016    0.0000 C   0  0  0  0  0  0  0  0  0  0  0  0
    3.7981    2.3321    0.0000 C   0  0  0  0  0  0  0  0  0  0  0  0
    6.7407    1.4848    0.0000 C   0  0  0  0  0  0  0  0  0  0  0  0
    4.5110    2.7473    0.0000 C   0  0  0  0  0  0  0  0  0  0  0  0
    1.6532    2.7364    0.0000 C   0  0  0  0  0  0  0  0  0  0  0  0
    5.2208    3.9876    0.0000 C   0  0  0  0  0  0  0  0  0  0  0  0
    3.7918    3.9821    0.0000 C   0  0  0  0  0  0  0  0  0  0  0  0
    1.6500    3.5614    0.0000 C   0  0  0  0  0  0  0  0  0  0  0  0
    3.9961   -1.7548    0.0000 H   0  0  0  0  0  0  0  0  0  0  0  0
    5.8536   -0.6823    0.0000 H   0  0  0  0  0  0  0  0  0  0  0  0
    6.7920   -4.3780    0.0000 H   0  0  0  0  0  0  0  0  0  0  0  0
    3.2199    2.8222    0.0000 H   0  0  0  0  0  0  0  0  0  0  0  0
    2.8939   -1.5479    0.0000 H   0  0  0  0  0  0  0  0  0  0  0  0
    2.8825   -0.4762    0.0000 H   0  0  0  0  0  0  0  0  0  0  0  0
    2.8841   -0.6832    0.0000 H   0  0  0  0  0  0  0  0  0  0  0  0
    6.9207   -0.8853    0.0000 H   0  0  0  0  0  0  0  0  0  0  0  0
    6.9206   -1.9553    0.0000 H   0  0  0  0  0  0  0  0  0  0  0  0
    4.5560    1.3568    0.0000 H   0  0  0  0  0  0  0  0  0  0  0  0
    3.6263    0.8236    0.0000 H   0  0  0  0  0  0  0  0  0  0  0  0
    6.9324   -0.2901    0.0000 H   0  0  0  0  0  0  0  0  0  0  0  0
    6.9448    0.7799    0.0000 H   0  0  0  0  0  0  0  0  0  0  0  0
    2.9266   -2.1372    0.0000 H   0  0  0  0  0  0  0  0  0  0  0  0
    7.6119   -2.5829    0.0000 H   0  0  0  0  0  0  0  0  0  0  0  0
    4.5559   -4.9845    0.0000 H   0  0  0  0  0  0  0  0  0  0  0  0
    2.9120   -4.0353    0.0000 H   0  0  0  0  0  0  0  0  0  0  0  0
    5.1338    1.6069    0.0000 H   0  0  0  0  0  0  0  0  0  0  0  0
    4.7301    0.9757    0.0000 H   0  0  0  0  0  0  0  0  0  0  0  0
    4.7259    2.0458    0.0000 H   0  0  0  0  0  0  0  0  0  0  0  0
    2.8694    2.8635    0.0000 H   0  0  0  0  0  0  0  0  0  0  0  0
    3.7940    3.4021    0.0000 H   0  0  0  0  0  0  0  0  0  0  0  0
    7.6284    0.9585    0.0000 H   0  0  0  0  0  0  0  0  0  0  0  0
    6.7526    2.5167    0.0000 H   0  0  0  0  0  0  0  0  0  0  0  0
    5.4397    2.2158    0.0000 H   0  0  0  0  0  0  0  0  0  0  0  0
    4.5150    1.6773    0.0000 H   0  0  0  0  0  0  0  0  0  0  0  0
    0.7286    2.1979    0.0000 H   0  0  0  0  0  0  0  0  0  0  0  0
    0.7245    3.2678    0.0000 H   0  0  0  0  0  0  0  0  0  0  0  0
    6.1495    3.4562    0.0000 H   0  0  0  0  0  0  0  0  0  0  0  0
    5.2166    5.0576    0.0000 H   0  0  0  0  0  0  0  0  0  0  0  0
    6.1454    4.5262    0.0000 H   0  0  0  0  0  0  0  0  0  0  0  0
    3.7877    5.0521    0.0000 H   0  0  0  0  0  0  0  0  0  0  0  0
    2.8672    3.4436    0.0000 H   0  0  0  0  0  0  0  0  0  0  0  0
    2.8631    4.5136    0.0000 H   0  0  0  0  0  0  0  0  0  0  0  0
    2.5746    4.1000    0.0000 H   0  0  0  0  0  0  0  0  0  0  0  0
    0.7213    4.0928    0.0000 H   0  0  0  0  0  0  0  0  0  0  0  0
    1.6458    4.6314    0.0000 H   0  0  0  0  0  0  0  0  0  0  0  0
  1 18  2  0  0  0  0
  2 26  2  0  0  0  0
  3  9  1  0  0  0  0
  3 13  1  0  0  0  0
  3 17  1  0  0  0  0
  4 19  1  0  0  0  0
  4 21  1  0  0  0  0
  4 36  1  0  0  0  0
  5 18  1  0  0  0  0
  5 25  1  0  0  0  0
  5 26  1  0  0  0  0
  6 26  1  0  0  0  0
  6 30  1  0  0  0  0
  6 37  1  0  0  0  0
  7 29  1  0  0  0  0
  7 31  1  0  0  0  0
  7 32  1  0  0  0  0
  8  9  1  0  0  0  0
  8 10  1  0  0  0  0
  8 14  1  0  0  0  0
  8 34  1  6  0  0  0
  9 12  1  0  0  0  0
  9 35  1  1  0  0  0
 10 11  1  0  0  0  0
 10 38  1  0  0  0  0
 10 39  1  0  0  0  0
 11 13  1  0  0  0  0
 11 18  1  0  0  0  0
 11 40  1  6  0  0  0
 12 16  1  0  0  0  0
 12 41  1  0  0  0  0
 12 42  1  0  0  0  0
 13 43  1  0  0  0  0
 13 44  1  0  0  0  0
 14 15  2  0  0  0  0
 14 20  1  0  0  0  0
 15 16  1  0  0  0  0
 15 19  1  0  0  0  0
 16 21  2  0  0  0  0
 17 24  1  0  0  0  0
 17 45  1  0  0  0  0
 17 46  1  0  0  0  0
 19 22  2  0  0  0  0
 20 23  2  0  0  0  0
 20 47  1  0  0  0  0
 21 48  1  0  0  0  0
 22 23  1  0  0  0  0
 22 49  1  0  0  0  0
 23 50  1  0  0  0  0
 24 28  2  0  0  0  0
 24 51  1  0  0  0  0
 25 27  1  0  0  0  0
 25 52  1  0  0  0  0
 25 53  1  0  0  0  0
 27 29  1  0  0  0  0
 27 54  1  0  0  0  0
 27 55  1  0  0  0  0
 28 56  1  0  0  0  0
 28 57  1  0  0  0  0
 29 58  1  0  0  0  0
 29 59  1  0  0  0  0
 30 33  1  0  0  0  0
 30 60  1  0  0  0  0
 30 61  1  0  0  0  0
 31 62  1  0  0  0  0
 31 63  1  0  0  0  0
 31 64  1  0  0  0  0
 32 65  1  0  0  0  0
 32 66  1  0  0  0  0
 32 67  1  0  0  0  0
 33 68  1  0  0  0  0
 33 69  1  0  0  0  0
 33 70  1  0  0  0  0
M  END
>  <DRUGBANK_ID>
DB00248

>  <SECONDARY_ACCESSION_NUMBERS>
APRD00836

>  <COMMON_NAME>
Cabergoline

>  <CAS_NUMBER>
81409-90-7

>  <UNII>
LL60K9J05T

>  <SYNONYMS>
(8R)-6-allyl-N-[3-(dimethylamino)propyl]-N-(ethylcarbamoyl)ergoline-8-carboxamide; (8β)-N-[3-(dimethylamino)propyl]-N-[(ethylamino)carbonyl]-6-(2-propenyl)-ergoline-8-carboxamide; 1-((6-allylergolin-8β-yl)carbonyl)-1-(3-(dimethylamino)propyl)-3-ethylurea; 1-[(6-allylergoline-8β-yl)carbonyl]-1-[3-(dimethylamino)propyl]-3-ethylurea; 1-ethyl-3-(3'-dimethylamionpropyl)-2-(6'-allylergoline-8'β-carbonyl)urea; Cabergolina; Cabergoline; Cabergolinum

$$$$
