
 OpenBabel10282417072D

210209  0  0  0  0  0  0  0  0999 V2000
   -7.8757    2.6772    0.0000 N   0  0  0  0  0  0  0  0  0  0  0  0
   -7.9514    3.4987    0.0000 C   0  0  0  0  0  0  0  0  0  0  0  0
   -8.5912    3.9074    0.0000 N   0  0  0  0  0  0  0  0  0  0  0  0
   -7.1625    3.9074    0.0000 N   0  0  0  0  0  0  0  0  0  0  0  0
   -9.9570   -0.1736    0.0000 N   0  0  0  0  0  0  0  0  0  0  0  0
   -9.3213    0.2387    0.0000 C   0  0  2  0  0  0  0  0  0  0  0  0
   -8.6090   -0.9968    0.0000 O   0  0  0  0  0  0  0  0  0  0  0  0
   -8.6090   -0.1717    0.0000 C   0  0  0  0  0  0  0  0  0  0  0  0
   -9.3213    1.0638    0.0000 C   0  0  0  0  0  0  0  0  0  0  0  0
   -8.6090    1.4742    0.0000 C   0  0  0  0  0  0  0  0  0  0  0  0
   -8.6090    2.2992    0.0000 C   0  0  0  0  0  0  0  0  0  0  0  0
   -5.7397   -2.6767    0.0000 N   0  0  0  0  0  0  0  0  0  0  0  0
   -5.8014   -3.4994    0.0000 C   0  0  0  0  0  0  0  0  0  0  0  0
   -6.4513   -3.9065    0.0000 N   0  0  0  0  0  0  0  0  0  0  0  0
   -5.0226   -3.9065    0.0000 N   0  0  0  0  0  0  0  0  0  0  0  0
   -7.8780    0.2107    0.0000 N   0  0  0  0  0  0  0  0  0  0  0  0
   -7.1821   -0.2323    0.0000 C   0  0  2  0  0  0  0  0  0  0  0  0
   -6.4698    1.0030    0.0000 O   0  0  0  0  0  0  0  0  0  0  0  0
   -6.4698    0.1781    0.0000 C   0  0  0  0  0  0  0  0  0  0  0  0
   -7.1821   -1.0572    0.0000 C   0  0  0  0  0  0  0  0  0  0  0  0
   -6.4698   -1.4677    0.0000 C   0  0  0  0  0  0  0  0  0  0  0  0
   -6.4698   -2.2926    0.0000 C   0  0  0  0  0  0  0  0  0  0  0  0
   -3.6015    2.6742    0.0000 N   0  0  0  0  0  0  0  0  0  0  0  0
   -3.6550    3.4974    0.0000 C   0  0  0  0  0  0  0  0  0  0  0  0
   -4.3133    3.9064    0.0000 N   0  0  0  0  0  0  0  0  0  0  0  0
   -2.8888    3.9064    0.0000 N   0  0  0  0  0  0  0  0  0  0  0  0
   -5.7422   -0.2105    0.0000 N   0  0  0  0  0  0  0  0  0  0  0  0
   -5.0416    0.2251    0.0000 C   0  0  2  0  0  0  0  0  0  0  0  0
   -4.3293   -1.0102    0.0000 O   0  0  0  0  0  0  0  0  0  0  0  0
   -4.3293   -0.1852    0.0000 C   0  0  0  0  0  0  0  0  0  0  0  0
   -5.0416    1.0501    0.0000 C   0  0  0  0  0  0  0  0  0  0  0  0
   -4.3293    1.4606    0.0000 C   0  0  0  0  0  0  0  0  0  0  0  0
   -4.3293    2.2856    0.0000 C   0  0  0  0  0  0  0  0  0  0  0  0
   -1.4594   -2.6777    0.0000 N   0  0  0  0  0  0  0  0  0  0  0  0
   -1.4984   -3.5018    0.0000 C   0  0  0  0  0  0  0  0  0  0  0  0
   -2.1713   -3.9089    0.0000 N   0  0  0  0  0  0  0  0  0  0  0  0
   -0.7467   -3.9089    0.0000 N   0  0  0  0  0  0  0  0  0  0  0  0
   -3.6040    0.2079    0.0000 N   0  0  0  0  0  0  0  0  0  0  0  0
   -2.9012   -0.2242    0.0000 C   0  0  2  0  0  0  0  0  0  0  0  0
   -2.1847    1.0112    0.0000 O   0  0  0  0  0  0  0  0  0  0  0  0
   -2.1847    0.1862    0.0000 C   0  0  0  0  0  0  0  0  0  0  0  0
   -2.9012   -1.0493    0.0000 C   0  0  0  0  0  0  0  0  0  0  0  0
   -2.1847   -1.4596    0.0000 C   0  0  0  0  0  0  0  0  0  0  0  0
   -2.1847   -2.2846    0.0000 C   0  0  0  0  0  0  0  0  0  0  0  0
    0.6813    2.6743    0.0000 N   0  0  0  0  0  0  0  0  0  0  0  0
    0.6506    3.4987    0.0000 C   0  0  0  0  0  0  0  0  0  0  0  0
   -0.0348    3.9076    0.0000 N   0  0  0  0  0  0  0  0  0  0  0  0
    1.3938    3.9076    0.0000 N   0  0  0  0  0  0  0  0  0  0  0  0
   -1.4606   -0.2090    0.0000 N   0  0  0  0  0  0  0  0  0  0  0  0
   -0.7546    0.2176    0.0000 C   0  0  2  0  0  0  0  0  0  0  0  0
   -0.0423   -1.0177    0.0000 O   0  0  0  0  0  0  0  0  0  0  0  0
   -0.0423   -0.1927    0.0000 C   0  0  0  0  0  0  0  0  0  0  0  0
   -0.7546    1.0427    0.0000 C   0  0  0  0  0  0  0  0  0  0  0  0
   -0.0423    1.4531    0.0000 C   0  0  0  0  0  0  0  0  0  0  0  0
   -0.0423    2.2781    0.0000 C   0  0  0  0  0  0  0  0  0  0  0  0
    2.8198   -2.6764    0.0000 N   0  0  0  0  0  0  0  0  0  0  0  0
    2.7976   -3.5011    0.0000 C   0  0  0  0  0  0  0  0  0  0  0  0
    2.1078   -3.9047    0.0000 N   0  0  0  0  0  0  0  0  0  0  0  0
    3.5365   -3.9047    0.0000 N   0  0  0  0  0  0  0  0  0  0  0  0
    0.6786    0.2082    0.0000 N   0  0  0  0  0  0  0  0  0  0  0  0
    1.3845   -0.2188    0.0000 C   0  0  2  0  0  0  0  0  0  0  0  0
    2.0967    1.0166    0.0000 O   0  0  0  0  0  0  0  0  0  0  0  0
    2.0967    0.1916    0.0000 C   0  0  0  0  0  0  0  0  0  0  0  0
    1.3845   -1.0438    0.0000 C   0  0  0  0  0  0  0  0  0  0  0  0
    2.0967   -1.4542    0.0000 C   0  0  0  0  0  0  0  0  0  0  0  0
    2.0967   -2.2792    0.0000 C   0  0  0  0  0  0  0  0  0  0  0  0
    4.9600    2.6721    0.0000 N   0  0  0  0  0  0  0  0  0  0  0  0
    4.9459    3.4970    0.0000 C   0  0  0  0  0  0  0  0  0  0  0  0
    4.2478    3.9094    0.0000 N   0  0  0  0  0  0  0  0  0  0  0  0
    5.6723    3.9094    0.0000 N   0  0  0  0  0  0  0  0  0  0  0  0
    2.8171   -0.2104    0.0000 N   0  0  0  0  0  0  0  0  0  0  0  0
    3.5303    0.2041    0.0000 C   0  0  2  0  0  0  0  0  0  0  0  0
    4.2426   -1.0312    0.0000 O   0  0  0  0  0  0  0  0  0  0  0  0
    4.2426   -0.2063    0.0000 C   0  0  0  0  0  0  0  0  0  0  0  0
    3.5303    1.0291    0.0000 C   0  0  0  0  0  0  0  0  0  0  0  0
    4.2426    1.4396    0.0000 C   0  0  0  0  0  0  0  0  0  0  0  0
    4.2426    2.2647    0.0000 C   0  0  0  0  0  0  0  0  0  0  0  0
    7.1015   -2.6790    0.0000 N   0  0  0  0  0  0  0  0  0  0  0  0
    7.0989   -3.5040    0.0000 C   0  0  0  0  0  0  0  0  0  0  0  0
    6.3851   -3.9094    0.0000 N   0  0  0  0  0  0  0  0  0  0  0  0
    7.8138   -3.9094    0.0000 N   0  0  0  0  0  0  0  0  0  0  0  0
    4.9587    0.2033    0.0000 N   0  0  0  0  0  0  0  0  0  0  0  0
    5.6706   -0.2134    0.0000 C   0  0  2  0  0  0  0  0  0  0  0  0
    6.3828    1.0220    0.0000 O   0  0  0  0  0  0  0  0  0  0  0  0
    6.3828    0.1969    0.0000 C   0  0  0  0  0  0  0  0  0  0  0  0
    5.6706   -1.0384    0.0000 C   0  0  0  0  0  0  0  0  0  0  0  0
    6.3828   -1.4489    0.0000 C   0  0  0  0  0  0  0  0  0  0  0  0
    6.3828   -2.2738    0.0000 C   0  0  0  0  0  0  0  0  0  0  0  0
    9.2406    2.6711    0.0000 N   0  0  0  0  0  0  0  0  0  0  0  0
    9.2463    3.4961    0.0000 C   0  0  0  0  0  0  0  0  0  0  0  0
    8.5283    3.9033    0.0000 N   0  0  0  0  0  0  0  0  0  0  0  0
    9.9570    3.9033    0.0000 N   0  0  0  0  0  0  0  0  0  0  0  0
    7.0987   -0.2130    0.0000 N   0  0  0  0  0  0  0  0  0  0  0  0
    7.8135    0.1988    0.0000 C   0  0  2  0  0  0  0  0  0  0  0  0
    8.5258   -1.0365    0.0000 O   0  0  0  0  0  0  0  0  0  0  0  0
    8.5258   -0.2116    0.0000 C   0  0  0  0  0  0  0  0  0  0  0  0
    7.8135    1.0238    0.0000 C   0  0  0  0  0  0  0  0  0  0  0  0
    8.5258    1.4342    0.0000 C   0  0  0  0  0  0  0  0  0  0  0  0
    8.5258    2.2592    0.0000 C   0  0  0  0  0  0  0  0  0  0  0  0
    9.2381    0.1988    0.0000 O   0  0  0  0  0  0  0  0  0  0  0  0
   -7.0124    2.2039    0.0000 H   0  0  0  0  0  0  0  0  0  0  0  0
   -8.5471    4.8909    0.0000 H   0  0  0  0  0  0  0  0  0  0  0  0
   -9.4650    3.4539    0.0000 H   0  0  0  0  0  0  0  0  0  0  0  0
   -6.3332    3.3768    0.0000 H   0  0  0  0  0  0  0  0  0  0  0  0
  -10.8656    0.2900    0.0000 H   0  0  0  0  0  0  0  0  0  0  0  0
   -9.9042   -1.1922    0.0000 H   0  0  0  0  0  0  0  0  0  0  0  0
  -10.2615    0.7495    0.0000 H   0  0  0  0  0  0  0  0  0  0  0  0
  -10.2477    1.5992    0.0000 H   0  0  0  0  0  0  0  0  0  0  0  0
   -9.3206    2.1338    0.0000 H   0  0  0  0  0  0  0  0  0  0  0  0
   -7.6826    0.9388    0.0000 H   0  0  0  0  0  0  0  0  0  0  0  0
   -7.6822    2.0090    0.0000 H   0  0  0  0  0  0  0  0  0  0  0  0
   -9.5226    2.8561    0.0000 H   0  0  0  0  0  0  0  0  0  0  0  0
   -8.5708    3.3685    0.0000 H   0  0  0  0  0  0  0  0  0  0  0  0
   -4.8785   -2.1997    0.0000 H   0  0  0  0  0  0  0  0  0  0  0  0
   -7.3211   -3.4453    0.0000 H   0  0  0  0  0  0  0  0  0  0  0  0
   -6.4159   -4.8904    0.0000 H   0  0  0  0  0  0  0  0  0  0  0  0
   -4.9813   -4.8901    0.0000 H   0  0  0  0  0  0  0  0  0  0  0  0
   -7.8362    1.1943    0.0000 H   0  0  0  0  0  0  0  0  0  0  0  0
   -8.1201   -0.7471    0.0000 H   0  0  0  0  0  0  0  0  0  0  0  0
   -8.1085   -1.5926    0.0000 H   0  0  0  0  0  0  0  0  0  0  0  0
   -7.1815   -2.1272    0.0000 H   0  0  0  0  0  0  0  0  0  0  0  0
   -5.5434   -0.9323    0.0000 H   0  0  0  0  0  0  0  0  0  0  0  0
   -5.5430   -2.0025    0.0000 H   0  0  0  0  0  0  0  0  0  0  0  0
   -7.3858   -2.8457    0.0000 H   0  0  0  0  0  0  0  0  0  0  0  0
   -6.4383   -3.3621    0.0000 H   0  0  0  0  0  0  0  0  0  0  0  0
   -2.7412    2.1955    0.0000 H   0  0  0  0  0  0  0  0  0  0  0  0
   -4.2815    4.8904    0.0000 H   0  0  0  0  0  0  0  0  0  0  0  0
   -5.1814    3.4420    0.0000 H   0  0  0  0  0  0  0  0  0  0  0  0
   -2.0530    3.3861    0.0000 H   0  0  0  0  0  0  0  0  0  0  0  0
   -5.7099   -1.1945    0.0000 H   0  0  0  0  0  0  0  0  0  0  0  0
   -5.9769    0.7449    0.0000 H   0  0  0  0  0  0  0  0  0  0  0  0
   -5.9680    1.5855    0.0000 H   0  0  0  0  0  0  0  0  0  0  0  0
   -5.0410    2.1201    0.0000 H   0  0  0  0  0  0  0  0  0  0  0  0
   -3.4029    0.9252    0.0000 H   0  0  0  0  0  0  0  0  0  0  0  0
   -3.4025    1.9954    0.0000 H   0  0  0  0  0  0  0  0  0  0  0  0
   -5.2469    2.8359    0.0000 H   0  0  0  0  0  0  0  0  0  0  0  0
   -4.3027    3.3553    0.0000 H   0  0  0  0  0  0  0  0  0  0  0  0
   -0.6018   -2.1942    0.0000 H   0  0  0  0  0  0  0  0  0  0  0  0
   -3.0338   -3.4342    0.0000 H   0  0  0  0  0  0  0  0  0  0  0  0
   -2.1511   -4.8932    0.0000 H   0  0  0  0  0  0  0  0  0  0  0  0
   -0.7199   -4.8930    0.0000 H   0  0  0  0  0  0  0  0  0  0  0  0
   -3.5771    1.1920    0.0000 H   0  0  0  0  0  0  0  0  0  0  0  0
   -3.8352   -0.7463    0.0000 H   0  0  0  0  0  0  0  0  0  0  0  0
   -3.8269   -1.5859    0.0000 H   0  0  0  0  0  0  0  0  0  0  0  0
   -2.8984   -2.1193    0.0000 H   0  0  0  0  0  0  0  0  0  0  0  0
   -1.2590   -0.9230    0.0000 H   0  0  0  0  0  0  0  0  0  0  0  0
   -1.2576   -1.9938    0.0000 H   0  0  0  0  0  0  0  0  0  0  0  0
   -3.1041   -2.8320    0.0000 H   0  0  0  0  0  0  0  0  0  0  0  0
   -2.1631   -3.3544    0.0000 H   0  0  0  0  0  0  0  0  0  0  0  0
    1.5375    2.1883    0.0000 H   0  0  0  0  0  0  0  0  0  0  0  0
   -0.0207    4.8920    0.0000 H   0  0  0  0  0  0  0  0  0  0  0  0
   -0.8944    3.4276    0.0000 H   0  0  0  0  0  0  0  0  0  0  0  0
    2.2361    3.3979    0.0000 H   0  0  0  0  0  0  0  0  0  0  0  0
   -1.4390   -1.1933    0.0000 H   0  0  0  0  0  0  0  0  0  0  0  0
   -1.6865    0.7433    0.0000 H   0  0  0  0  0  0  0  0  0  0  0  0
   -1.6810    1.5781    0.0000 H   0  0  0  0  0  0  0  0  0  0  0  0
   -0.7539    2.1127    0.0000 H   0  0  0  0  0  0  0  0  0  0  0  0
    0.8841    0.9177    0.0000 H   0  0  0  0  0  0  0  0  0  0  0  0
    0.8845    1.9879    0.0000 H   0  0  0  0  0  0  0  0  0  0  0  0
   -0.9628    2.8236    0.0000 H   0  0  0  0  0  0  0  0  0  0  0  0
   -0.0241    3.3479    0.0000 H   0  0  0  0  0  0  0  0  0  0  0  0
    3.6738   -2.1865    0.0000 H   0  0  0  0  0  0  0  0  0  0  0  0
    1.2524   -3.4174    0.0000 H   0  0  0  0  0  0  0  0  0  0  0  0
    2.1135   -4.8892    0.0000 H   0  0  0  0  0  0  0  0  0  0  0  0
    3.5598   -4.8889    0.0000 H   0  0  0  0  0  0  0  0  0  0  0  0
    0.6966    1.1925    0.0000 H   0  0  0  0  0  0  0  0  0  0  0  0
    0.4524   -0.7443    0.0000 H   0  0  0  0  0  0  0  0  0  0  0  0
    0.4581   -1.5792    0.0000 H   0  0  0  0  0  0  0  0  0  0  0  0
    1.3852   -2.1138    0.0000 H   0  0  0  0  0  0  0  0  0  0  0  0
    3.0231   -0.9188    0.0000 H   0  0  0  0  0  0  0  0  0  0  0  0
    3.0235   -1.9890    0.0000 H   0  0  0  0  0  0  0  0  0  0  0  0
    1.1758   -2.8240    0.0000 H   0  0  0  0  0  0  0  0  0  0  0  0
    2.1138   -3.3491    0.0000 H   0  0  0  0  0  0  0  0  0  0  0  0
    5.8150    2.1841    0.0000 H   0  0  0  0  0  0  0  0  0  0  0  0
    4.2576    4.8939    0.0000 H   0  0  0  0  0  0  0  0  0  0  0  0
    3.3903    3.4257    0.0000 H   0  0  0  0  0  0  0  0  0  0  0  0
    6.5213    3.4110    0.0000 H   0  0  0  0  0  0  0  0  0  0  0  0
    2.8257   -1.1949    0.0000 H   0  0  0  0  0  0  0  0  0  0  0  0
    2.6029    0.7378    0.0000 H   0  0  0  0  0  0  0  0  0  0  0  0
    2.6039    1.5645    0.0000 H   0  0  0  0  0  0  0  0  0  0  0  0
    3.5309    2.0991    0.0000 H   0  0  0  0  0  0  0  0  0  0  0  0
    5.1690    0.9042    0.0000 H   0  0  0  0  0  0  0  0  0  0  0  0
    5.1694    1.9744    0.0000 H   0  0  0  0  0  0  0  0  0  0  0  0
    3.3179    2.8030    0.0000 H   0  0  0  0  0  0  0  0  0  0  0  0
    4.2483    3.3347    0.0000 H   0  0  0  0  0  0  0  0  0  0  0  0
    7.9524   -2.1837    0.0000 H   0  0  0  0  0  0  0  0  0  0  0  0
    5.5360   -3.4111    0.0000 H   0  0  0  0  0  0  0  0  0  0  0  0
    6.3781   -4.8939    0.0000 H   0  0  0  0  0  0  0  0  0  0  0  0
    7.8214   -4.8939    0.0000 H   0  0  0  0  0  0  0  0  0  0  0  0
    4.9636    1.1878    0.0000 H   0  0  0  0  0  0  0  0  0  0  0  0
    4.7424   -0.7456    0.0000 H   0  0  0  0  0  0  0  0  0  0  0  0
    4.7441   -1.5737    0.0000 H   0  0  0  0  0  0  0  0  0  0  0  0
    5.6712   -2.1084    0.0000 H   0  0  0  0  0  0  0  0  0  0  0  0
    7.3093   -0.9136    0.0000 H   0  0  0  0  0  0  0  0  0  0  0  0
    7.3095   -1.9837    0.0000 H   0  0  0  0  0  0  0  0  0  0  0  0
    5.4589   -2.8135    0.0000 H   0  0  0  0  0  0  0  0  0  0  0  0
    6.3910   -3.3438    0.0000 H   0  0  0  0  0  0  0  0  0  0  0  0
   10.0913    2.1756    0.0000 H   0  0  0  0  0  0  0  0  0  0  0  0
    8.5207    4.8878    0.0000 H   0  0  0  0  0  0  0  0  0  0  0  0
    7.6795    3.4045    0.0000 H   0  0  0  0  0  0  0  0  0  0  0  0
   10.8080    3.4082    0.0000 H   0  0  0  0  0  0  0  0  0  0  0  0
    7.1000   -1.1975    0.0000 H   0  0  0  0  0  0  0  0  0  0  0  0
    6.8871    0.7342    0.0000 H   0  0  0  0  0  0  0  0  0  0  0  0
    6.8871    1.5592    0.0000 H   0  0  0  0  0  0  0  0  0  0  0  0
    7.8142    2.0938    0.0000 H   0  0  0  0  0  0  0  0  0  0  0  0
    9.4522    0.8988    0.0000 H   0  0  0  0  0  0  0  0  0  0  0  0
    9.4526    1.9690    0.0000 H   0  0  0  0  0  0  0  0  0  0  0  0
    7.5994    2.7946    0.0000 H   0  0  0  0  0  0  0  0  0  0  0  0
    8.5265    3.3292    0.0000 H   0  0  0  0  0  0  0  0  0  0  0  0
   10.0491   -0.2704    0.0000 H   0  0  0  0  0  0  0  0  0  0  0  0
  1  2  1  0  0  0  0
  1101  1  0  0  0  0
  2  3  1  0  0  0  0
  2  4  2  0  0  0  0
  3102  1  0  0  0  0
  3103  1  0  0  0  0
  4104  1  0  0  0  0
  5  6  1  0  0  0  0
  5105  1  0  0  0  0
  5106  1  0  0  0  0
  6  8  1  0  0  0  0
  6  9  1  0  0  0  0
  6107  1  6  0  0  0
  8 16  1  0  0  0  0
  8  7  2  0  0  0  0
  9 10  1  0  0  0  0
  9108  1  0  0  0  0
  9109  1  0  0  0  0
 10 11  1  0  0  0  0
 10110  1  0  0  0  0
 10111  1  0  0  0  0
 11  1  1  0  0  0  0
 11112  1  0  0  0  0
 11113  1  0  0  0  0
 12 13  1  0  0  0  0
 12114  1  0  0  0  0
 13 14  1  0  0  0  0
 13 15  2  0  0  0  0
 14115  1  0  0  0  0
 14116  1  0  0  0  0
 15117  1  0  0  0  0
 16 17  1  0  0  0  0
 16118  1  0  0  0  0
 17 19  1  0  0  0  0
 17 20  1  0  0  0  0
 17119  1  1  0  0  0
 19 27  1  0  0  0  0
 19 18  2  0  0  0  0
 20 21  1  0  0  0  0
 20120  1  0  0  0  0
 20121  1  0  0  0  0
 21 22  1  0  0  0  0
 21122  1  0  0  0  0
 21123  1  0  0  0  0
 22 12  1  0  0  0  0
 22124  1  0  0  0  0
 22125  1  0  0  0  0
 23 24  1  0  0  0  0
 23126  1  0  0  0  0
 24 25  1  0  0  0  0
 24 26  2  0  0  0  0
 25127  1  0  0  0  0
 25128  1  0  0  0  0
 26129  1  0  0  0  0
 27 28  1  0  0  0  0
 27130  1  0  0  0  0
 28 30  1  0  0  0  0
 28 31  1  0  0  0  0
 28131  1  6  0  0  0
 30 38  1  0  0  0  0
 30 29  2  0  0  0  0
 31 32  1  0  0  0  0
 31132  1  0  0  0  0
 31133  1  0  0  0  0
 32 33  1  0  0  0  0
 32134  1  0  0  0  0
 32135  1  0  0  0  0
 33 23  1  0  0  0  0
 33136  1  0  0  0  0
 33137  1  0  0  0  0
 34 35  1  0  0  0  0
 34138  1  0  0  0  0
 35 36  1  0  0  0  0
 35 37  2  0  0  0  0
 36139  1  0  0  0  0
 36140  1  0  0  0  0
 37141  1  0  0  0  0
 38 39  1  0  0  0  0
 38142  1  0  0  0  0
 39 41  1  0  0  0  0
 39 42  1  0  0  0  0
 39143  1  1  0  0  0
 41 49  1  0  0  0  0
 41 40  2  0  0  0  0
 42 43  1  0  0  0  0
 42144  1  0  0  0  0
 42145  1  0  0  0  0
 43 44  1  0  0  0  0
 43146  1  0  0  0  0
 43147  1  0  0  0  0
 44 34  1  0  0  0  0
 44148  1  0  0  0  0
 44149  1  0  0  0  0
 45 46  1  0  0  0  0
 45150  1  0  0  0  0
 46 47  1  0  0  0  0
 46 48  2  0  0  0  0
 47151  1  0  0  0  0
 47152  1  0  0  0  0
 48153  1  0  0  0  0
 49 50  1  0  0  0  0
 49154  1  0  0  0  0
 50 52  1  0  0  0  0
 50 53  1  0  0  0  0
 50155  1  6  0  0  0
 52 60  1  0  0  0  0
 52 51  2  0  0  0  0
 53 54  1  0  0  0  0
 53156  1  0  0  0  0
 53157  1  0  0  0  0
 54 55  1  0  0  0  0
 54158  1  0  0  0  0
 54159  1  0  0  0  0
 55 45  1  0  0  0  0
 55160  1  0  0  0  0
 55161  1  0  0  0  0
 56 57  1  0  0  0  0
 56162  1  0  0  0  0
 57 58  1  0  0  0  0
 57 59  2  0  0  0  0
 58163  1  0  0  0  0
 58164  1  0  0  0  0
 59165  1  0  0  0  0
 60 61  1  0  0  0  0
 60166  1  0  0  0  0
 61 63  1  0  0  0  0
 61 64  1  0  0  0  0
 61167  1  1  0  0  0
 63 71  1  0  0  0  0
 63 62  2  0  0  0  0
 64 65  1  0  0  0  0
 64168  1  0  0  0  0
 64169  1  0  0  0  0
 65 66  1  0  0  0  0
 65170  1  0  0  0  0
 65171  1  0  0  0  0
 66 56  1  0  0  0  0
 66172  1  0  0  0  0
 66173  1  0  0  0  0
 67 68  1  0  0  0  0
 67174  1  0  0  0  0
 68 69  1  0  0  0  0
 68 70  2  0  0  0  0
 69175  1  0  0  0  0
 69176  1  0  0  0  0
 70177  1  0  0  0  0
 71 72  1  0  0  0  0
 71178  1  0  0  0  0
 72 74  1  0  0  0  0
 72 75  1  0  0  0  0
 72179  1  6  0  0  0
 74 82  1  0  0  0  0
 74 73  2  0  0  0  0
 75 76  1  0  0  0  0
 75180  1  0  0  0  0
 75181  1  0  0  0  0
 76 77  1  0  0  0  0
 76182  1  0  0  0  0
 76183  1  0  0  0  0
 77 67  1  0  0  0  0
 77184  1  0  0  0  0
 77185  1  0  0  0  0
 78 79  1  0  0  0  0
 78186  1  0  0  0  0
 79 80  1  0  0  0  0
 79 81  2  0  0  0  0
 80187  1  0  0  0  0
 80188  1  0  0  0  0
 81189  1  0  0  0  0
 82 83  1  0  0  0  0
 82190  1  0  0  0  0
 83 85  1  0  0  0  0
 83 86  1  0  0  0  0
 83191  1  1  0  0  0
 85 93  1  0  0  0  0
 85 84  2  0  0  0  0
 86 87  1  0  0  0  0
 86192  1  0  0  0  0
 86193  1  0  0  0  0
 87 88  1  0  0  0  0
 87194  1  0  0  0  0
 87195  1  0  0  0  0
 88 78  1  0  0  0  0
 88196  1  0  0  0  0
 88197  1  0  0  0  0
 89 90  1  0  0  0  0
 89198  1  0  0  0  0
 90 91  1  0  0  0  0
 90 92  2  0  0  0  0
 91199  1  0  0  0  0
 91200  1  0  0  0  0
 92201  1  0  0  0  0
 93 94  1  0  0  0  0
 93202  1  0  0  0  0
 94 96  1  0  0  0  0
 94 97  1  0  0  0  0
 94203  1  6  0  0  0
 96100  1  0  0  0  0
 96 95  2  0  0  0  0
 97 98  1  0  0  0  0
 97204  1  0  0  0  0
 97205  1  0  0  0  0
 98 99  1  0  0  0  0
 98206  1  0  0  0  0
 98207  1  0  0  0  0
 99 89  1  0  0  0  0
 99208  1  0  0  0  0
 99209  1  0  0  0  0
100210  1  0  0  0  0
M  END
>  <DRUGBANK_ID>
DB12648

>  <COMMON_NAME>
Nona-arginine

>  <CAS_NUMBER>
143413-47-2

>  <UNII>
PK7O6W0U44

>  <SYNONYMS>
Nona-L-arginine

$$$$
