
 OpenBabel10282417072D

 57 60  0  0  0  0  0  0  0  0999 V2000
    2.9159   -0.6030    0.0000 N   0  0  0  0  0  0  0  0  0  0  0  0
    3.2515   -1.3567    0.0000 C   0  0  0  0  0  0  0  0  0  0  0  0
    2.1089   -0.4314    0.0000 C   0  0  0  0  0  0  0  0  0  0  0  0
    3.3284    0.1113    0.0000 C   0  0  0  0  0  0  0  0  0  0  0  0
    4.0720   -1.4429    0.0000 C   0  0  0  0  0  0  0  0  0  0  0  0
    2.7666   -2.0241    0.0000 C   0  0  0  0  0  0  0  0  0  0  0  0
    2.0227    0.3890    0.0000 C   0  0  0  0  0  0  0  0  0  0  0  0
    1.4958   -0.9835    0.0000 C   0  0  0  0  0  0  0  0  0  0  0  0
    2.7764    0.7244    0.0000 C   0  0  0  0  0  0  0  0  0  0  0  0
    4.1489    0.1976    0.0000 C   0  0  0  0  0  0  0  0  0  0  0  0
    4.4075   -2.1965    0.0000 C   0  0  0  0  0  0  0  0  0  0  0  0
    3.1021   -2.7778    0.0000 C   0  0  0  0  0  0  0  0  0  0  0  0
    1.3082    0.8014    0.0000 C   0  0  0  0  0  0  0  0  0  0  0  0
    3.9226   -2.8640    0.0000 C   0  0  0  0  0  0  0  0  0  0  0  0
    0.5938    0.3890    0.0000 C   0  0  0  0  0  0  0  0  0  0  0  0
   -0.1206    0.8014    0.0000 C   0  0  0  0  0  0  0  0  0  0  0  0
   -0.8351    0.3890    0.0000 N   0  3  0  0  0  0  0  0  0  0  0  0
   -0.1206    1.6265    0.0000 C   0  0  0  0  0  0  0  0  0  0  0  0
   -1.5495    0.8014    0.0000 C   0  0  0  0  0  0  0  0  0  0  0  0
   -0.8351   -0.4360    0.0000 C   0  0  0  0  0  0  0  0  0  0  0  0
   -0.8351    2.0390    0.0000 C   0  0  0  0  0  0  0  0  0  0  0  0
   -1.5495    1.6265    0.0000 C   0  0  0  0  0  0  0  0  0  0  0  0
   -2.2640    0.3890    0.0000 C   0  0  0  0  0  0  0  0  0  0  0  0
   -2.2640    2.0390    0.0000 C   0  0  0  0  0  0  0  0  0  0  0  0
   -2.9785    0.8014    0.0000 C   0  0  0  0  0  0  0  0  0  0  0  0
   -2.9785    1.6265    0.0000 C   0  0  0  0  0  0  0  0  0  0  0  0
   -3.6930    2.0390    0.0000 N   0  0  0  0  0  0  0  0  0  0  0  0
   -3.6930    2.8640    0.0000 C   0  0  0  0  0  0  0  0  0  0  0  0
   -4.4075    1.6265    0.0000 C   0  0  0  0  0  0  0  0  0  0  0  0
    4.6786   -0.6080    0.0000 H   0  0  0  0  0  0  0  0  0  0  0  0
    1.7403   -1.9162    0.0000 H   0  0  0  0  0  0  0  0  0  0  0  0
    0.4782   -0.6529    0.0000 H   0  0  0  0  0  0  0  0  0  0  0  0
    1.7183   -2.0301    0.0000 H   0  0  0  0  0  0  0  0  0  0  0  0
    0.7007   -1.6995    0.0000 H   0  0  0  0  0  0  0  0  0  0  0  0
    2.9911    1.7338    0.0000 H   0  0  0  0  0  0  0  0  0  0  0  0
    4.7779   -0.6680    0.0000 H   0  0  0  0  0  0  0  0  0  0  0  0
    4.5840    1.1751    0.0000 H   0  0  0  0  0  0  0  0  0  0  0  0
    5.2130    0.3095    0.0000 H   0  0  0  0  0  0  0  0  0  0  0  0
    5.4338   -2.3044    0.0000 H   0  0  0  0  0  0  0  0  0  0  0  0
    2.4955   -3.6127    0.0000 H   0  0  0  0  0  0  0  0  0  0  0  0
    1.3082    1.8334    0.0000 H   0  0  0  0  0  0  0  0  0  0  0  0
    4.3424   -3.8068    0.0000 H   0  0  0  0  0  0  0  0  0  0  0  0
    0.5938   -0.6430    0.0000 H   0  0  0  0  0  0  0  0  0  0  0  0
    0.7731    2.1425    0.0000 H   0  0  0  0  0  0  0  0  0  0  0  0
   -1.7617   -0.9710    0.0000 H   0  0  0  0  0  0  0  0  0  0  0  0
    0.0915   -0.9710    0.0000 H   0  0  0  0  0  0  0  0  0  0  0  0
   -0.8351   -1.5060    0.0000 H   0  0  0  0  0  0  0  0  0  0  0  0
   -0.8351    3.0710    0.0000 H   0  0  0  0  0  0  0  0  0  0  0  0
   -2.2640   -0.6430    0.0000 H   0  0  0  0  0  0  0  0  0  0  0  0
   -2.2640    3.0710    0.0000 H   0  0  0  0  0  0  0  0  0  0  0  0
   -3.8722    0.2853    0.0000 H   0  0  0  0  0  0  0  0  0  0  0  0
   -2.7664    3.3990    0.0000 H   0  0  0  0  0  0  0  0  0  0  0  0
   -4.6196    3.3990    0.0000 H   0  0  0  0  0  0  0  0  0  0  0  0
   -3.6930    3.9340    0.0000 H   0  0  0  0  0  0  0  0  0  0  0  0
   -5.3341    2.1615    0.0000 H   0  0  0  0  0  0  0  0  0  0  0  0
   -4.4075    0.5565    0.0000 H   0  0  0  0  0  0  0  0  0  0  0  0
   -5.3342    1.0915    0.0000 H   0  0  0  0  0  0  0  0  0  0  0  0
  1  2  1  0  0  0  0
  1  3  1  0  0  0  0
  1  4  1  0  0  0  0
  2  5  2  0  0  0  0
  2  6  1  0  0  0  0
  3  7  2  0  0  0  0
  3  8  1  0  0  0  0
  4  9  2  0  0  0  0
  4 10  1  0  0  0  0
  5 11  1  0  0  0  0
  5 30  1  0  0  0  0
  6 12  2  0  0  0  0
  6 31  1  0  0  0  0
  7 13  1  0  0  0  0
  7  9  1  0  0  0  0
  8 32  1  0  0  0  0
  8 33  1  0  0  0  0
  8 34  1  0  0  0  0
  9 35  1  0  0  0  0
 10 36  1  0  0  0  0
 10 37  1  0  0  0  0
 10 38  1  0  0  0  0
 11 14  2  0  0  0  0
 11 39  1  0  0  0  0
 12 14  1  0  0  0  0
 12 40  1  0  0  0  0
 13 15  2  0  0  0  0
 13 41  1  0  0  0  0
 14 42  1  0  0  0  0
 15 16  1  0  0  0  0
 15 43  1  0  0  0  0
 16 17  2  0  0  0  0
 16 18  1  0  0  0  0
 17 19  1  0  0  0  0
 17 20  1  0  0  0  0
 18 21  2  0  0  0  0
 18 44  1  0  0  0  0
 19 22  2  0  0  0  0
 19 23  1  0  0  0  0
 20 45  1  0  0  0  0
 20 46  1  0  0  0  0
 20 47  1  0  0  0  0
 21 22  1  0  0  0  0
 21 48  1  0  0  0  0
 22 24  1  0  0  0  0
 23 25  2  0  0  0  0
 23 49  1  0  0  0  0
 24 26  2  0  0  0  0
 24 50  1  0  0  0  0
 25 26  1  0  0  0  0
 25 51  1  0  0  0  0
 26 27  1  0  0  0  0
 27 28  1  0  0  0  0
 27 29  1  0  0  0  0
 28 52  1  0  0  0  0
 28 53  1  0  0  0  0
 28 54  1  0  0  0  0
 29 55  1  0  0  0  0
 29 56  1  0  0  0  0
 29 57  1  0  0  0  0
M  CHG  1  17   1
M  END
>  <DRUGBANK_ID>
DB06816

>  <COMMON_NAME>
Pyrvinium

>  <CAS_NUMBER>
7187-62-4

>  <UNII>
6B9991FLU3

$$$$
