
 OpenBabel10282417072D

 20 19  0  0  0  0  0  0  0  0999 V2000
   -1.4367   -0.4152    0.0000 C   0  0  0  0  0  0  0  0  0  0  0  0
    0.7212   -0.8224    0.0000 C   0  0  0  0  0  0  0  0  0  0  0  0
    0.0057   -0.4117    0.0000 C   0  0  2  0  0  0  0  0  0  0  0  0
   -0.7211   -0.8259    0.0000 N   0  0  0  0  0  0  0  0  0  0  0  0
    0.0170    0.4131    0.0000 C   0  0  0  0  0  0  0  0  0  0  0  0
    1.4480   -0.4082    0.0000 C   0  0  0  0  0  0  0  0  0  0  0  0
   -1.4232    0.4060    0.0000 O   0  0  0  0  0  0  0  0  0  0  0  0
   -0.6964    0.8202    0.0000 O   0  0  0  0  0  0  0  0  0  0  0  0
    1.4558    0.4146    0.0000 O   0  0  0  0  0  0  0  0  0  0  0  0
   -2.1599   -0.8273    0.0000 N   0  0  0  0  0  0  0  0  0  0  0  0
    0.7439    0.8273    0.0000 O   0  0  0  0  0  0  0  0  0  0  0  0
    2.1599   -0.8210    0.0000 O   0  0  0  0  0  0  0  0  0  0  0  0
    0.7195   -1.8924    0.0000 H   0  0  0  0  0  0  0  0  0  0  0  0
    1.6459   -1.3607    0.0000 H   0  0  0  0  0  0  0  0  0  0  0  0
    0.0040   -1.4817    0.0000 H   0  0  0  0  0  0  0  0  0  0  0  0
   -0.7226   -1.8104    0.0000 H   0  0  0  0  0  0  0  0  0  0  0  0
   -3.0097   -0.3302    0.0000 H   0  0  0  0  0  0  0  0  0  0  0  0
   -2.1655   -1.8118    0.0000 H   0  0  0  0  0  0  0  0  0  0  0  0
    1.5527    0.3542    0.0000 H   0  0  0  0  0  0  0  0  0  0  0  0
    2.1581   -1.7580    0.0000 H   0  0  0  0  0  0  0  0  0  0  0  0
  2  3  1  0  0  0  0
  2 13  1  0  0  0  0
  2 14  1  0  0  0  0
  3  4  1  0  0  0  0
  3 15  1  1  0  0  0
  4  1  1  0  0  0  0
  4 16  1  0  0  0  0
  5  3  1  0  0  0  0
  6  2  1  0  0  0  0
  7  1  2  0  0  0  0
  8  5  2  0  0  0  0
  9  6  2  0  0  0  0
 10  1  1  0  0  0  0
 10 17  1  0  0  0  0
 10 18  1  0  0  0  0
 11  5  1  0  0  0  0
 11 19  1  0  0  0  0
 12  6  1  0  0  0  0
 12 20  1  0  0  0  0
M  END
>  <DRUGBANK_ID>
DB04252

>  <SECONDARY_ACCESSION_NUMBERS>
EXPT02310

>  <COMMON_NAME>
N-Carbamoylaspartic acid

>  <CAS_NUMBER>
13184-27-5

>  <UNII>
R2521024DK

>  <SYNONYMS>
2-Ureidobutanedioic acid; L-N-Carbamoylaspartic acid; N-Carbamoyl-S-aspartic acid; N-Carbamoylaspartic acid; Ureidosuccinic acid

$$$$
