53N
 OpenBabel10282417072D

 30 31  0  0  0  0  0  0  0  0999 V2000
   -0.1195    1.1213    0.0000 C   0  0  0  0  0  0  0  0  0  0  0  0
   -0.8340    0.7088    0.0000 C   0  0  0  0  0  0  0  0  0  0  0  0
   -0.8340   -0.1162    0.0000 C   0  0  0  0  0  0  0  0  0  0  0  0
    0.0634   -2.0532    0.0000 C   0  0  0  0  0  0  0  0  0  0  0  0
   -1.2465   -1.3857    0.0000 C   0  0  0  0  0  0  0  0  0  0  0  0
   -1.5485    1.1213    0.0000 C   0  0  0  0  0  0  0  0  0  0  0  0
   -0.1195    1.9463    0.0000 C   0  0  0  0  0  0  0  0  0  0  0  0
    0.5949    2.3588    0.0000 N   0  3  0  0  0  0  0  0  0  0  0  0
    0.5949    3.1838    0.0000 O   0  5  0  0  0  0  0  0  0  0  0  0
    1.3094    1.9463    0.0000 O   0  0  0  0  0  0  0  0  0  0  0  0
   -0.1666   -0.6011    0.0000 S   0  0  0  0  0  0  0  0  0  0  0  0
   -0.4215   -1.3857    0.0000 C   0  0  0  0  0  0  0  0  0  0  0  0
    0.8839   -1.9669    0.0000 C   0  0  0  0  0  0  0  0  0  0  0  0
    1.3688   -2.6344    0.0000 C   0  0  0  0  0  0  0  0  0  0  0  0
    2.1893   -2.5481    0.0000 O   0  0  0  0  0  0  0  0  0  0  0  0
    1.0333   -3.3881    0.0000 O   0  0  0  0  0  0  0  0  0  0  0  0
   -1.5014   -0.6011    0.0000 C   0  0  0  0  0  0  0  0  0  0  0  0
   -1.5485    1.9463    0.0000 C   0  0  0  0  0  0  0  0  0  0  0  0
   -0.8340    2.3588    0.0000 C   0  0  0  0  0  0  0  0  0  0  0  0
    0.7742    0.6053    0.0000 H   0  0  0  0  0  0  0  0  0  0  0  0
   -0.3718   -3.0307    0.0000 H   0  0  0  0  0  0  0  0  0  0  0  0
    0.6924   -2.9188    0.0000 H   0  0  0  0  0  0  0  0  0  0  0  0
   -1.8531   -2.2206    0.0000 H   0  0  0  0  0  0  0  0  0  0  0  0
   -2.4422    0.6053    0.0000 H   0  0  0  0  0  0  0  0  0  0  0  0
    1.3191   -0.9894    0.0000 H   0  0  0  0  0  0  0  0  0  0  0  0
    1.9480   -1.8551    0.0000 H   0  0  0  0  0  0  0  0  0  0  0  0
    2.7401   -3.3061    0.0000 H   0  0  0  0  0  0  0  0  0  0  0  0
   -2.4829   -0.2822    0.0000 H   0  0  0  0  0  0  0  0  0  0  0  0
   -2.4422    2.4623    0.0000 H   0  0  0  0  0  0  0  0  0  0  0  0
   -0.8340    3.3908    0.0000 H   0  0  0  0  0  0  0  0  0  0  0  0
  1  2  2  0  0  0  0
  1  7  1  0  0  0  0
  1 20  1  0  0  0  0
  2  3  1  0  0  0  0
  2  6  1  0  0  0  0
  3 11  1  0  0  0  0
  3 17  2  0  0  0  0
  4 12  1  0  0  0  0
  4 13  1  0  0  0  0
  4 21  1  0  0  0  0
  4 22  1  0  0  0  0
  5 12  2  0  0  0  0
  5 17  1  0  0  0  0
  5 23  1  0  0  0  0
  6 18  2  0  0  0  0
  6 24  1  0  0  0  0
  7  8  1  0  0  0  0
  7 19  2  0  0  0  0
  8  9  1  0  0  0  0
  8 10  2  0  0  0  0
 11 12  1  0  0  0  0
 13 14  1  0  0  0  0
 13 25  1  0  0  0  0
 13 26  1  0  0  0  0
 14 15  1  0  0  0  0
 14 16  2  0  0  0  0
 15 27  1  0  0  0  0
 17 28  1  0  0  0  0
 18 19  1  0  0  0  0
 18 29  1  0  0  0  0
 19 30  1  0  0  0  0
M  CHG  2   8   1   9  -1
M  END
>  <DRUGBANK_ID>
DB07139

>  <COMMON_NAME>
3-[5-(3-nitrophenyl)thiophen-2-yl]propanoic acid

$$$$
