
 OpenBabel10282417072D

 58 61  0  0  0  0  0  0  0  0999 V2000
    0.3522    0.8344    0.0000 C   0  0  0  0  0  0  0  0  0  0  0  0
    0.3522    0.0092    0.0000 C   0  0  2  0  0  0  0  0  0  0  0  0
    0.3522   -0.8242    0.0000 C   0  0  2  0  0  0  0  0  0  0  0  0
    1.0669    0.4249    0.0000 C   0  0  2  0  0  0  0  0  0  0  0  0
   -0.3604    0.4249    0.0000 C   0  0  0  0  0  0  0  0  0  0  0  0
   -0.3604   -1.2398    0.0000 C   0  0  1  0  0  0  0  0  0  0  0  0
    1.7794   -0.8242    0.0000 C   0  0  0  0  0  0  0  0  0  0  0  0
    1.0669    1.2501    0.0000 C   0  0  0  0  0  0  0  0  0  0  0  0
    1.7814    0.8365    0.0000 O   0  0  0  0  0  0  0  0  0  0  0  0
    1.7794    0.0092    0.0000 C   0  0  0  0  0  0  0  0  0  0  0  0
   -1.0730    0.0092    0.0000 C   0  0  0  0  0  0  0  0  0  0  0  0
   -1.0730   -0.8242    0.0000 C   0  0  0  0  0  0  0  0  0  0  0  0
   -0.3604   -2.0712    0.0000 C   0  0  0  0  0  0  0  0  0  0  0  0
    1.7814    1.6617    0.0000 C   0  0  0  0  0  0  0  0  0  0  0  0
    0.3502    1.6617    0.0000 O   0  0  0  0  0  0  0  0  0  0  0  0
   -1.7855   -1.2398    0.0000 C   0  0  2  0  0  0  0  0  0  0  0  0
   -1.0730   -2.4869    0.0000 C   0  0  0  0  0  0  0  0  0  0  0  0
    2.4961    1.2501    0.0000 O   0  0  0  0  0  0  0  0  0  0  0  0
   -1.7855   -0.4146    0.0000 C   0  0  0  0  0  0  0  0  0  0  0  0
   -1.7855   -2.0712    0.0000 C   0  0  0  0  0  0  0  0  0  0  0  0
   -2.4981   -0.8242    0.0000 C   0  0  0  0  0  0  0  0  0  0  0  0
    3.2108    1.6617    0.0000 C   0  0  0  0  0  0  0  0  0  0  0  0
   -2.4981   -2.4869    0.0000 C   0  0  0  0  0  0  0  0  0  0  0  0
   -3.2108   -1.2398    0.0000 C   0  0  0  0  0  0  0  0  0  0  0  0
    3.9254    1.2501    0.0000 C   0  0  0  0  0  0  0  0  0  0  0  0
    3.2108    2.4869    0.0000 O   0  0  0  0  0  0  0  0  0  0  0  0
   -3.2108   -2.0712    0.0000 C   0  0  0  0  0  0  0  0  0  0  0  0
   -3.9254   -2.4828    0.0000 O   0  0  0  0  0  0  0  0  0  0  0  0
   -0.3604   -0.4146    0.0000 H   0  0  0  0  0  0  0  0  0  0  0  0
    0.3522   -1.6494    0.0000 H   0  0  0  0  0  0  0  0  0  0  0  0
    1.2788    1.3694    0.0000 H   0  0  0  0  0  0  0  0  0  0  0  0
   -0.5744    1.3694    0.0000 H   0  0  0  0  0  0  0  0  0  0  0  0
    0.3522    1.9044    0.0000 H   0  0  0  0  0  0  0  0  0  0  0  0
   -0.3604    1.4949    0.0000 H   0  0  0  0  0  0  0  0  0  0  0  0
   -1.2882    0.9578    0.0000 H   0  0  0  0  0  0  0  0  0  0  0  0
    2.5360   -1.5808    0.0000 H   0  0  0  0  0  0  0  0  0  0  0  0
    2.7680   -0.4147    0.0000 H   0  0  0  0  0  0  0  0  0  0  0  0
    2.6210    0.3507    0.0000 H   0  0  0  0  0  0  0  0  0  0  0  0
    2.7073    0.5421    0.0000 H   0  0  0  0  0  0  0  0  0  0  0  0
    2.7054   -0.5269    0.0000 H   0  0  0  0  0  0  0  0  0  0  0  0
   -1.9679    0.5232    0.0000 H   0  0  0  0  0  0  0  0  0  0  0  0
    0.5674   -2.6041    0.0000 H   0  0  0  0  0  0  0  0  0  0  0  0
   -0.3568   -3.1412    0.0000 H   0  0  0  0  0  0  0  0  0  0  0  0
    1.7813    2.7317    0.0000 H   0  0  0  0  0  0  0  0  0  0  0  0
    2.7077    2.1972    0.0000 H   0  0  0  0  0  0  0  0  0  0  0  0
   -1.0730   -3.5569    0.0000 H   0  0  0  0  0  0  0  0  0  0  0  0
   -2.0009   -3.0198    0.0000 H   0  0  0  0  0  0  0  0  0  0  0  0
   -0.8589    0.1204    0.0000 H   0  0  0  0  0  0  0  0  0  0  0  0
   -2.7121    0.1204    0.0000 H   0  0  0  0  0  0  0  0  0  0  0  0
   -1.7855    0.6554    0.0000 H   0  0  0  0  0  0  0  0  0  0  0  0
   -2.4981    0.2458    0.0000 H   0  0  0  0  0  0  0  0  0  0  0  0
   -3.4259   -0.2912    0.0000 H   0  0  0  0  0  0  0  0  0  0  0  0
   -2.4981   -3.5189    0.0000 H   0  0  0  0  0  0  0  0  0  0  0  0
   -4.1386   -0.7068    0.0000 H   0  0  0  0  0  0  0  0  0  0  0  0
   -4.1369   -1.7758    0.0000 H   0  0  0  0  0  0  0  0  0  0  0  0
    3.9265    0.1801    0.0000 H   0  0  0  0  0  0  0  0  0  0  0  0
    4.8515    1.7860    0.0000 H   0  0  0  0  0  0  0  0  0  0  0  0
    4.8526    0.7160    0.0000 H   0  0  0  0  0  0  0  0  0  0  0  0
  1 31  1  0  0  0  0
  1 32  1  0  0  0  0
  1 33  1  0  0  0  0
  2  1  1  1  0  0  0
  2  4  1  0  0  0  0
  2  5  1  0  0  0  0
  3  2  1  0  0  0  0
  3  7  1  0  0  0  0
  3 30  1  6  0  0  0
  4  8  1  1  0  0  0
  4  9  1  0  0  0  0
  4 10  1  0  0  0  0
  5 11  1  0  0  0  0
  5 34  1  0  0  0  0
  5 35  1  0  0  0  0
  6  3  1  0  0  0  0
  6 12  1  0  0  0  0
  6 13  1  0  0  0  0
  6 29  1  1  0  0  0
  7 10  1  0  0  0  0
  7 36  1  0  0  0  0
  7 37  1  0  0  0  0
  8 14  1  0  0  0  0
  8 15  2  0  0  0  0
  9 38  1  0  0  0  0
 10 39  1  0  0  0  0
 10 40  1  0  0  0  0
 11 12  2  0  0  0  0
 11 41  1  0  0  0  0
 13 17  1  0  0  0  0
 13 42  1  0  0  0  0
 13 43  1  0  0  0  0
 14 18  1  0  0  0  0
 14 44  1  0  0  0  0
 14 45  1  0  0  0  0
 16 12  1  0  0  0  0
 16 19  1  1  0  0  0
 16 20  1  0  0  0  0
 16 21  1  0  0  0  0
 17 20  1  0  0  0  0
 17 46  1  0  0  0  0
 17 47  1  0  0  0  0
 18 22  1  0  0  0  0
 19 48  1  0  0  0  0
 19 49  1  0  0  0  0
 19 50  1  0  0  0  0
 20 23  2  0  0  0  0
 21 24  1  0  0  0  0
 21 51  1  0  0  0  0
 21 52  1  0  0  0  0
 22 25  1  0  0  0  0
 22 26  2  0  0  0  0
 23 27  1  0  0  0  0
 23 53  1  0  0  0  0
 24 27  1  0  0  0  0
 24 54  1  0  0  0  0
 24 55  1  0  0  0  0
 25 56  1  0  0  0  0
 25 57  1  0  0  0  0
 25 58  1  0  0  0  0
 27 28  2  0  0  0  0
M  END
>  <DRUGBANK_ID>
DB05288

>  <COMMON_NAME>
Anecortave acetate

>  <CAS_NUMBER>
7753-60-8

>  <UNII>
Y0PC411K4T

>  <SYNONYMS>
Anecortave acetate

$$$$
