1244
 OpenBabel10282417072D

 61 63  0  0  1  0  0  0  0  0999 V2000
    5.2224   -1.0313    0.0000 O   0  0  0  0  0  0  0  0  0  0  0  0
    5.2224    0.6188    0.0000 N   0  0  0  0  0  0  0  0  0  0  0  0
    3.0791    0.2063    0.0000 N   0  0  0  0  0  0  0  0  0  0  0  0
    4.5080    0.2063    0.0000 C   0  0  3  0  0  0  0  0  0  0  0  0
    5.3087    1.4392    0.0000 C   0  0  0  0  0  0  0  0  0  0  0  0
    5.9762    0.2832    0.0000 C   0  0  0  0  0  0  0  0  0  0  0  0
    6.1157    1.6108    0.0000 C   0  0  0  0  0  0  0  0  0  0  0  0
    6.5282    0.8963    0.0000 C   0  0  0  0  0  0  0  0  0  0  0  0
    3.7935    0.6188    0.0000 C   0  0  0  0  0  0  0  0  0  0  0  0
    4.5080   -0.6188    0.0000 C   0  0  0  0  0  0  0  0  0  0  0  0
    2.3645    0.6188    0.0000 C   0  0  0  0  0  0  0  0  0  0  0  0
    3.0791   -0.6188    0.0000 C   0  0  0  0  0  0  0  0  0  0  0  0
    5.2224   -1.8563    0.0000 C   0  0  0  0  0  0  0  0  0  0  0  0
    5.9370   -2.2688    0.0000 C   0  0  0  0  0  0  0  0  0  0  0  0
    2.3645    1.4438    0.0000 C   0  0  0  0  0  0  0  0  0  0  0  0
    3.7935   -1.0313    0.0000 C   0  0  0  0  0  0  0  0  0  0  0  0
    2.3645   -1.0313    0.0000 C   0  0  0  0  0  0  0  0  0  0  0  0
    5.9370   -3.0938    0.0000 C   0  0  0  0  0  0  0  0  0  0  0  0
    6.6515   -1.8563    0.0000 C   0  0  0  0  0  0  0  0  0  0  0  0
    1.6500    1.8563    0.0000 C   0  0  0  0  0  0  0  0  0  0  0  0
    3.0791    1.8563    0.0000 C   0  0  0  0  0  0  0  0  0  0  0  0
    3.7935   -1.8563    0.0000 C   0  0  0  0  0  0  0  0  0  0  0  0
    2.3645   -1.8563    0.0000 C   0  0  0  0  0  0  0  0  0  0  0  0
    3.0791   -2.2688    0.0000 C   0  0  0  0  0  0  0  0  0  0  0  0
    1.6500    2.6813    0.0000 C   0  0  0  0  0  0  0  0  0  0  0  0
    3.0791    2.6813    0.0000 C   0  0  0  0  0  0  0  0  0  0  0  0
    2.3645    3.0938    0.0000 C   0  0  0  0  0  0  0  0  0  0  0  0
    4.5080    1.2763    0.0000 H   0  0  0  0  0  0  0  0  0  0  0  0
    4.5135    2.1552    0.0000 H   0  0  0  0  0  0  0  0  0  0  0  0
    5.5856    2.4728    0.0000 H   0  0  0  0  0  0  0  0  0  0  0  0
    6.1987   -0.7634    0.0000 H   0  0  0  0  0  0  0  0  0  0  0  0
    7.0097    0.0063    0.0000 H   0  0  0  0  0  0  0  0  0  0  0  0
    6.5509    2.5883    0.0000 H   0  0  0  0  0  0  0  0  0  0  0  0
    7.1842    1.6668    0.0000 H   0  0  0  0  0  0  0  0  0  0  0  0
    7.5923    0.7845    0.0000 H   0  0  0  0  0  0  0  0  0  0  0  0
    7.1110    1.7937    0.0000 H   0  0  0  0  0  0  0  0  0  0  0  0
    3.7935    1.6888    0.0000 H   0  0  0  0  0  0  0  0  0  0  0  0
    4.7201    1.1538    0.0000 H   0  0  0  0  0  0  0  0  0  0  0  0
    3.5813   -1.1538    0.0000 H   0  0  0  0  0  0  0  0  0  0  0  0
    3.5814   -0.0838    0.0000 H   0  0  0  0  0  0  0  0  0  0  0  0
    1.4379    0.0838    0.0000 H   0  0  0  0  0  0  0  0  0  0  0  0
    1.4378    1.1538    0.0000 H   0  0  0  0  0  0  0  0  0  0  0  0
    4.2958   -2.3913    0.0000 H   0  0  0  0  0  0  0  0  0  0  0  0
    5.2225   -2.9263    0.0000 H   0  0  0  0  0  0  0  0  0  0  0  0
    6.8636   -2.8038    0.0000 H   0  0  0  0  0  0  0  0  0  0  0  0
    4.6872   -0.5153    0.0000 H   0  0  0  0  0  0  0  0  0  0  0  0
    1.4708   -0.5153    0.0000 H   0  0  0  0  0  0  0  0  0  0  0  0
    5.0104   -3.6288    0.0000 H   0  0  0  0  0  0  0  0  0  0  0  0
    6.8636   -3.6288    0.0000 H   0  0  0  0  0  0  0  0  0  0  0  0
    5.9370   -4.1638    0.0000 H   0  0  0  0  0  0  0  0  0  0  0  0
    7.5781   -2.3913    0.0000 H   0  0  0  0  0  0  0  0  0  0  0  0
    6.6515   -0.7863    0.0000 H   0  0  0  0  0  0  0  0  0  0  0  0
    7.5782   -1.3213    0.0000 H   0  0  0  0  0  0  0  0  0  0  0  0
    0.7563    1.3403    0.0000 H   0  0  0  0  0  0  0  0  0  0  0  0
    3.9728    1.3403    0.0000 H   0  0  0  0  0  0  0  0  0  0  0  0
    4.6872   -2.3723    0.0000 H   0  0  0  0  0  0  0  0  0  0  0  0
    1.4708   -2.3723    0.0000 H   0  0  0  0  0  0  0  0  0  0  0  0
    3.0792   -3.3008    0.0000 H   0  0  0  0  0  0  0  0  0  0  0  0
    0.7563    3.1973    0.0000 H   0  0  0  0  0  0  0  0  0  0  0  0
    3.9728    3.1973    0.0000 H   0  0  0  0  0  0  0  0  0  0  0  0
    2.3645    4.1258    0.0000 H   0  0  0  0  0  0  0  0  0  0  0  0
  1 10  1  0  0  0  0
  1 13  1  0  0  0  0
  2  4  1  0  0  0  0
  2  5  1  0  0  0  0
  2  6  1  0  0  0  0
  3  9  1  0  0  0  0
  3 11  1  0  0  0  0
  3 12  1  0  0  0  0
  4  9  1  0  0  0  0
  4 10  1  0  0  0  0
  4 28  1  0  0  0  0
  5  7  1  0  0  0  0
  5 29  1  0  0  0  0
  5 30  1  0  0  0  0
  6  8  1  0  0  0  0
  6 31  1  0  0  0  0
  6 32  1  0  0  0  0
  7  8  1  0  0  0  0
  7 33  1  0  0  0  0
  7 34  1  0  0  0  0
  8 35  1  0  0  0  0
  8 36  1  0  0  0  0
  9 37  1  0  0  0  0
  9 38  1  0  0  0  0
 10 39  1  0  0  0  0
 10 40  1  0  0  0  0
 11 15  1  0  0  0  0
 11 41  1  0  0  0  0
 11 42  1  0  0  0  0
 12 16  2  0  0  0  0
 12 17  1  0  0  0  0
 13 14  1  0  0  0  0
 13 43  1  0  0  0  0
 13 44  1  0  0  0  0
 14 18  1  0  0  0  0
 14 19  1  0  0  0  0
 14 45  1  0  0  0  0
 15 20  2  0  0  0  0
 15 21  1  0  0  0  0
 16 22  1  0  0  0  0
 16 46  1  0  0  0  0
 17 23  2  0  0  0  0
 17 47  1  0  0  0  0
 18 48  1  0  0  0  0
 18 49  1  0  0  0  0
 18 50  1  0  0  0  0
 19 51  1  0  0  0  0
 19 52  1  0  0  0  0
 19 53  1  0  0  0  0
 20 25  1  0  0  0  0
 20 54  1  0  0  0  0
 21 26  2  0  0  0  0
 21 55  1  0  0  0  0
 22 24  2  0  0  0  0
 22 56  1  0  0  0  0
 23 24  1  0  0  0  0
 23 57  1  0  0  0  0
 24 58  1  0  0  0  0
 25 27  2  0  0  0  0
 25 59  1  0  0  0  0
 26 27  1  0  0  0  0
 26 60  1  0  0  0  0
 27 61  1  0  0  0  0
M  END
>  <DRUGBANK_ID>
DB01244

>  <SECONDARY_ACCESSION_NUMBERS>
APRD00727

>  <COMMON_NAME>
Bepridil

>  <CAS_NUMBER>
64706-54-3

>  <UNII>
755BO701MA

>  <SYNONYMS>
Bepadin; Bepridil

$$$$
