B18
 OpenBabel10282417072D

 55 58  0  0  0  0  0  0  0  0999 V2000
   -2.1335    1.2964    0.0000 C   0  0  0  0  0  0  0  0  0  0  0  0
   -2.4691    0.5427    0.0000 C   0  0  0  0  0  0  0  0  0  0  0  0
   -3.2896    0.4564    0.0000 C   0  0  0  0  0  0  0  0  0  0  0  0
   -3.7745    1.1239    0.0000 C   0  0  0  0  0  0  0  0  0  0  0  0
   -3.4389    1.8776    0.0000 C   0  0  0  0  0  0  0  0  0  0  0  0
   -2.6185    1.9638    0.0000 C   0  0  0  0  0  0  0  0  0  0  0  0
   -3.7745   -0.2110    0.0000 C   0  0  0  0  0  0  0  0  0  0  0  0
   -4.5591    0.0439    0.0000 C   0  0  0  0  0  0  0  0  0  0  0  0
   -4.5591    0.8689    0.0000 N   0  0  0  0  0  0  0  0  0  0  0  0
   -3.6030   -1.0180    0.0000 C   0  0  2  0  0  0  0  0  0  0  0  0
   -4.2161   -1.5700    0.0000 C   0  0  0  0  0  0  0  0  0  0  0  0
   -5.0007   -1.3151    0.0000 N   0  0  0  0  0  0  0  0  0  0  0  0
   -5.1722   -0.5081    0.0000 C   0  0  0  0  0  0  0  0  0  0  0  0
   -5.9568   -0.2532    0.0000 O   0  0  0  0  0  0  0  0  0  0  0  0
   -1.3131    1.3826    0.0000 C   0  0  0  0  0  0  0  0  0  0  0  0
   -0.9775    2.1363    0.0000 O   0  0  0  0  0  0  0  0  0  0  0  0
   -0.8281    0.7151    0.0000 N   0  0  0  0  0  0  0  0  0  0  0  0
   -0.0077    0.8014    0.0000 C   0  0  0  0  0  0  0  0  0  0  0  0
    0.4048    1.5159    0.0000 S   0  0  0  0  0  0  0  0  0  0  0  0
    1.2118    1.3443    0.0000 C   0  0  0  0  0  0  0  0  0  0  0  0
    1.2981    0.5238    0.0000 C   0  0  0  0  0  0  0  0  0  0  0  0
    0.5444    0.1883    0.0000 N   0  0  0  0  0  0  0  0  0  0  0  0
    2.0125    0.1113    0.0000 C   0  0  0  0  0  0  0  0  0  0  0  0
    2.7270    0.5238    0.0000 N   0  0  0  0  0  0  0  0  0  0  0  0
    2.0125   -0.7137    0.0000 O   0  0  0  0  0  0  0  0  0  0  0  0
    3.4415    0.1113    0.0000 C   0  0  0  0  0  0  0  0  0  0  0  0
    4.1559    0.5238    0.0000 C   0  0  0  0  0  0  0  0  0  0  0  0
    4.8704    0.1113    0.0000 N   0  0  0  0  0  0  0  0  0  0  0  0
    5.5849    0.5238    0.0000 C   0  0  0  0  0  0  0  0  0  0  0  0
    4.8704   -0.7137    0.0000 C   0  0  0  0  0  0  0  0  0  0  0  0
   -2.8184   -1.2729    0.0000 C   0  0  0  0  0  0  0  0  0  0  0  0
   -3.1690   -0.6272    0.0000 H   0  0  0  0  0  0  0  0  0  0  0  0
   -1.8625   -0.2922    0.0000 H   0  0  0  0  0  0  0  0  0  0  0  0
   -4.0455    2.7125    0.0000 H   0  0  0  0  0  0  0  0  0  0  0  0
   -2.1988    2.9066    0.0000 H   0  0  0  0  0  0  0  0  0  0  0  0
   -5.3556    1.4475    0.0000 H   0  0  0  0  0  0  0  0  0  0  0  0
   -3.9936   -2.6166    0.0000 H   0  0  0  0  0  0  0  0  0  0  0  0
   -5.0113   -2.2860    0.0000 H   0  0  0  0  0  0  0  0  0  0  0  0
   -5.7323   -1.9739    0.0000 H   0  0  0  0  0  0  0  0  0  0  0  0
   -1.2285   -0.1843    0.0000 H   0  0  0  0  0  0  0  0  0  0  0  0
    1.9787    2.0348    0.0000 H   0  0  0  0  0  0  0  0  0  0  0  0
    2.7270    1.5083    0.0000 H   0  0  0  0  0  0  0  0  0  0  0  0
    3.4415   -0.9587    0.0000 H   0  0  0  0  0  0  0  0  0  0  0  0
    4.3682   -0.4237    0.0000 H   0  0  0  0  0  0  0  0  0  0  0  0
    4.1559    1.5938    0.0000 H   0  0  0  0  0  0  0  0  0  0  0  0
    5.0825    1.0588    0.0000 H   0  0  0  0  0  0  0  0  0  0  0  0
    6.5115   -0.0112    0.0000 H   0  0  0  0  0  0  0  0  0  0  0  0
    5.5849    1.5938    0.0000 H   0  0  0  0  0  0  0  0  0  0  0  0
    6.5116    1.0588    0.0000 H   0  0  0  0  0  0  0  0  0  0  0  0
    3.9438   -1.2487    0.0000 H   0  0  0  0  0  0  0  0  0  0  0  0
    5.7970   -1.2487    0.0000 H   0  0  0  0  0  0  0  0  0  0  0  0
    4.8704   -1.7837    0.0000 H   0  0  0  0  0  0  0  0  0  0  0  0
   -2.5959   -2.3195    0.0000 H   0  0  0  0  0  0  0  0  0  0  0  0
   -2.0233   -0.5569    0.0000 H   0  0  0  0  0  0  0  0  0  0  0  0
   -1.8008   -1.6035    0.0000 H   0  0  0  0  0  0  0  0  0  0  0  0
  1 15  1  0  0  0  0
  1  6  2  0  0  0  0
  1  2  1  0  0  0  0
  2  3  2  0  0  0  0
  2 33  1  0  0  0  0
  3  4  1  0  0  0  0
  3  7  1  0  0  0  0
  4  5  2  0  0  0  0
  4  9  1  0  0  0  0
  5  6  1  0  0  0  0
  5 34  1  0  0  0  0
  6 35  1  0  0  0  0
  7 10  1  0  0  0  0
  7  8  2  0  0  0  0
  8  9  1  0  0  0  0
  8 13  1  0  0  0  0
  9 36  1  0  0  0  0
 10 31  1  0  0  0  0
 10 11  1  0  0  0  0
 10 32  1  6  0  0  0
 11 12  1  0  0  0  0
 11 37  1  0  0  0  0
 11 38  1  0  0  0  0
 12 13  1  0  0  0  0
 12 39  1  0  0  0  0
 13 14  2  0  0  0  0
 15 16  2  0  0  0  0
 15 17  1  0  0  0  0
 17 18  1  0  0  0  0
 17 40  1  0  0  0  0
 18 19  1  0  0  0  0
 18 22  2  0  0  0  0
 19 20  1  0  0  0  0
 20 21  2  0  0  0  0
 20 41  1  0  0  0  0
 21 23  1  0  0  0  0
 21 22  1  0  0  0  0
 23 25  2  0  0  0  0
 23 24  1  0  0  0  0
 24 26  1  0  0  0  0
 24 42  1  0  0  0  0
 26 27  1  0  0  0  0
 26 43  1  0  0  0  0
 26 44  1  0  0  0  0
 27 28  1  0  0  0  0
 27 45  1  0  0  0  0
 27 46  1  0  0  0  0
 28 30  1  0  0  0  0
 28 29  1  0  0  0  0
 29 47  1  0  0  0  0
 29 48  1  0  0  0  0
 29 49  1  0  0  0  0
 30 50  1  0  0  0  0
 30 51  1  0  0  0  0
 30 52  1  0  0  0  0
 31 53  1  0  0  0  0
 31 54  1  0  0  0  0
 31 55  1  0  0  0  0
M  END
>  <DRUGBANK_ID>
DB07406

>  <COMMON_NAME>
(4R)-N-[4-({[2-(DIMETHYLAMINO)ETHYL]AMINO}CARBONYL)-1,3-THIAZOL-2-YL]-4-METHYL-1-OXO-2,3,4,9-TETRAHYDRO-1H-BETA-CARBOLINE-6-CARBOXAMIDE

$$$$
