Q74
 OpenBabel10282417072D

 36 39  0  0  0  0  0  0  0  0999 V2000
    2.8212    2.9698    0.0000 F   0  0  0  0  0  0  0  0  0  0  0  0
    2.0365    2.7149    0.0000 C   0  0  0  0  0  0  0  0  0  0  0  0
    1.8650    1.9079    0.0000 C   0  0  0  0  0  0  0  0  0  0  0  0
    2.4781    1.3559    0.0000 F   0  0  0  0  0  0  0  0  0  0  0  0
    1.4234    3.2669    0.0000 C   0  0  0  0  0  0  0  0  0  0  0  0
    0.6388    3.0120    0.0000 C   0  0  0  0  0  0  0  0  0  0  0  0
    0.0257    3.5640    0.0000 F   0  0  0  0  0  0  0  0  0  0  0  0
    0.4673    2.2050    0.0000 C   0  0  0  0  0  0  0  0  0  0  0  0
    1.0804    1.6530    0.0000 C   0  0  0  0  0  0  0  0  0  0  0  0
    0.7448    0.8993    0.0000 N   0  0  0  0  0  0  0  0  0  0  0  0
   -0.2472    1.7925    0.0000 S   0  0  0  0  0  0  0  0  0  0  0  0
   -0.0757    0.9855    0.0000 C   0  0  0  0  0  0  0  0  0  0  0  0
   -0.6277    0.3724    0.0000 C   0  0  0  0  0  0  0  0  0  0  0  0
   -0.3727   -0.4122    0.0000 C   0  0  0  0  0  0  0  0  0  0  0  0
    0.4119   -0.6671    0.0000 C   0  0  0  0  0  0  0  0  0  0  0  0
    1.1263   -0.2546    0.0000 C   0  0  0  0  0  0  0  0  0  0  0  0
   -0.8577   -1.0796    0.0000 C   0  0  0  0  0  0  0  0  0  0  0  0
   -0.3727   -1.7471    0.0000 N   0  0  0  0  0  0  0  0  0  0  0  0
   -0.6277   -2.5317    0.0000 C   0  0  0  0  0  0  0  0  0  0  0  0
   -1.4347   -2.7032    0.0000 C   0  0  0  0  0  0  0  0  0  0  0  0
   -1.6896   -3.4878    0.0000 O   0  0  0  0  0  0  0  0  0  0  0  0
   -1.9867   -2.0901    0.0000 O   0  0  0  0  0  0  0  0  0  0  0  0
    0.4119   -1.4921    0.0000 C   0  0  0  0  0  0  0  0  0  0  0  0
    1.1263   -1.9046    0.0000 N   0  0  0  0  0  0  0  0  0  0  0  0
    1.8408   -1.4921    0.0000 C   0  0  0  0  0  0  0  0  0  0  0  0
    1.8408   -0.6671    0.0000 C   0  0  0  0  0  0  0  0  0  0  0  0
    1.6380    4.2763    0.0000 H   0  0  0  0  0  0  0  0  0  0  0  0
   -1.6743    0.5948    0.0000 H   0  0  0  0  0  0  0  0  0  0  0  0
   -1.3436   -0.4228    0.0000 H   0  0  0  0  0  0  0  0  0  0  0  0
    1.1263    0.7774    0.0000 H   0  0  0  0  0  0  0  0  0  0  0  0
   -1.8897   -1.0796    0.0000 H   0  0  0  0  0  0  0  0  0  0  0  0
    0.0882   -3.3269    0.0000 H   0  0  0  0  0  0  0  0  0  0  0  0
   -0.9584   -3.5493    0.0000 H   0  0  0  0  0  0  0  0  0  0  0  0
   -2.6061   -3.6826    0.0000 H   0  0  0  0  0  0  0  0  0  0  0  0
    2.7345   -2.0081    0.0000 H   0  0  0  0  0  0  0  0  0  0  0  0
    2.7345   -0.1511    0.0000 H   0  0  0  0  0  0  0  0  0  0  0  0
  1  2  1  0  0  0  0
  2  3  2  0  0  0  0
  2  5  1  0  0  0  0
  3  4  1  0  0  0  0
  3  9  1  0  0  0  0
  5  6  2  0  0  0  0
  5 27  1  0  0  0  0
  6  7  1  0  0  0  0
  6  8  1  0  0  0  0
  8  9  2  0  0  0  0
  8 11  1  0  0  0  0
  9 10  1  0  0  0  0
 10 12  2  0  0  0  0
 11 12  1  0  0  0  0
 12 13  1  0  0  0  0
 13 14  1  0  0  0  0
 13 28  1  0  0  0  0
 13 29  1  0  0  0  0
 14 15  1  0  0  0  0
 14 17  2  0  0  0  0
 15 16  2  0  0  0  0
 15 23  1  0  0  0  0
 16 26  1  0  0  0  0
 16 30  1  0  0  0  0
 17 18  1  0  0  0  0
 17 31  1  0  0  0  0
 18 19  1  0  0  0  0
 18 23  1  0  0  0  0
 19 20  1  0  0  0  0
 19 32  1  0  0  0  0
 19 33  1  0  0  0  0
 20 21  1  0  0  0  0
 20 22  2  0  0  0  0
 21 34  1  0  0  0  0
 23 24  2  0  0  0  0
 24 25  1  0  0  0  0
 25 26  2  0  0  0  0
 25 35  1  0  0  0  0
 26 36  1  0  0  0  0
M  END
>  <DRUGBANK_ID>
DB08449

>  <COMMON_NAME>
2-(3-((4,5,7-trifluorobenzo[d]thiazol-2-yl)methyl)-1H-pyrrolo[2,3-b]pyridin-1-yl)acetic acid

$$$$
