
 OpenBabel10282417072D

 18 17  0  0  1  0  0  0  0  0999 V2000
   -0.1914    0.7145    0.0000 N   0  0  0  0  0  0  0  0  0  0  0  0
    0.5230    1.1270    0.0000 C   0  0  0  0  0  0  0  0  0  0  0  0
    1.2375    0.7145    0.0000 C   0  0  0  0  0  0  0  0  0  0  0  0
    1.9520    1.1270    0.0000 C   0  0  2  0  0  0  0  0  0  0  0  0
    1.9520    1.9520    0.0000 N   0  0  0  0  0  0  0  0  0  0  0  0
    2.6664    0.7145    0.0000 C   0  0  0  0  0  0  0  0  0  0  0  0
    3.3809    1.1270    0.0000 O   0  0  0  0  0  0  0  0  0  0  0  0
    2.6664   -0.1105    0.0000 O   0  0  0  0  0  0  0  0  0  0  0  0
   -1.0748    1.2245    0.0000 H   0  0  0  0  0  0  0  0  0  0  0  0
   -0.1914   -0.3055    0.0000 H   0  0  0  0  0  0  0  0  0  0  0  0
    0.5230    2.1970    0.0000 H   0  0  0  0  0  0  0  0  0  0  0  0
    1.4496    1.6620    0.0000 H   0  0  0  0  0  0  0  0  0  0  0  0
    1.2375   -0.3555    0.0000 H   0  0  0  0  0  0  0  0  0  0  0  0
    2.1641    0.1795    0.0000 H   0  0  0  0  0  0  0  0  0  0  0  0
    1.0254    1.6620    0.0000 H   0  0  0  0  0  0  0  0  0  0  0  0
    2.8353    2.4620    0.0000 H   0  0  0  0  0  0  0  0  0  0  0  0
    1.0687    2.4620    0.0000 H   0  0  0  0  0  0  0  0  0  0  0  0
    4.1924    0.6585    0.0000 H   0  0  0  0  0  0  0  0  0  0  0  0
  1  2  1  0  0  0  0
  1  9  1  0  0  0  0
  1 10  1  0  0  0  0
  2  3  1  0  0  0  0
  2 11  1  0  0  0  0
  2 12  1  0  0  0  0
  3  4  1  0  0  0  0
  3 13  1  0  0  0  0
  3 14  1  0  0  0  0
  4  5  1  0  0  0  0
  4  6  1  0  0  0  0
  4 15  1  1  0  0  0
  5 16  1  0  0  0  0
  5 17  1  0  0  0  0
  6  7  1  0  0  0  0
  6  8  2  0  0  0  0
  7 18  1  0  0  0  0
M  END
>  <DRUGBANK_ID>
DB03817

>  <SECONDARY_ACCESSION_NUMBERS>
EXPT01102

>  <COMMON_NAME>
L-2,4-diaminobutyric acid

>  <CAS_NUMBER>
1758-80-1

>  <UNII>
61HPH2F0W7

>  <SYNONYMS>
(S)-2,4-Diaminobutanoic acid; alpha,gamma-Diaminobutyrate; Dbu; L-2,4-Diaminobutanoate; L-2,4-diaminobutanoic acid; L-2,4-Diaminobutyrate; L-Dbu; L-diaminobutyric acid

$$$$
