
 OpenBabel10282417072D

 60 64  0  0  0  0  0  0  0  0999 V2000
   -0.5270   -3.4685    0.0000 C   0  0  0  0  0  0  0  0  0  0  0  0
   -0.5388   -2.6320    0.0000 C   0  0  0  0  0  0  0  0  0  0  0  0
    0.1662   -2.2037    0.0000 C   0  0  0  0  0  0  0  0  0  0  0  0
    0.9250   -2.6112    0.0000 C   0  0  0  0  0  0  0  0  0  0  0  0
    0.9368   -3.4476    0.0000 C   0  0  0  0  0  0  0  0  0  0  0  0
    0.1899   -3.8767    0.0000 C   0  0  0  0  0  0  0  0  0  0  0  0
    1.7161   -2.3491    0.0000 C   0  0  0  0  0  0  0  0  0  0  0  0
    2.1856   -3.0116    0.0000 C   0  0  0  0  0  0  0  0  0  0  0  0
    1.7351   -3.6874    0.0000 O   0  0  0  0  0  0  0  0  0  0  0  0
   -1.2559   -2.2238    0.0000 N   0  0  0  0  0  0  0  0  0  0  0  0
   -1.9608   -2.6522    0.0000 C   0  0  0  0  0  0  0  0  0  0  0  0
   -2.7197   -2.2447    0.0000 C   0  0  0  0  0  0  0  0  0  0  0  0
   -2.7315   -1.4082    0.0000 N   0  0  0  0  0  0  0  0  0  0  0  0
   -2.0266   -0.9798    0.0000 C   0  0  0  0  0  0  0  0  0  0  0  0
   -1.2678   -1.3873    0.0000 C   0  0  0  0  0  0  0  0  0  0  0  0
   -3.4505   -1.0022    0.0000 C   0  0  0  0  0  0  0  0  0  0  0  0
   -3.4427   -0.1794    0.0000 C   0  0  0  0  0  0  0  0  0  0  0  0
   -2.7254    0.2172    0.0000 C   0  0  0  0  0  0  0  0  0  0  0  0
   -2.0087   -0.1911    0.0000 C   0  0  0  0  0  0  0  0  0  0  0  0
    3.0223   -2.9998    0.0000 C   0  0  0  0  0  0  0  0  0  0  0  0
    3.4505   -3.7048    0.0000 N   0  0  0  0  0  0  0  0  0  0  0  0
    3.4303   -2.2827    0.0000 O   0  0  0  0  0  0  0  0  0  0  0  0
   -1.2965    0.2247    0.0000 C   0  0  0  0  0  0  0  0  0  0  0  0
   -0.6291   -0.2602    0.0000 C   0  0  0  0  0  0  0  0  0  0  0  0
   -1.0414    1.0093    0.0000 C   0  0  0  0  0  0  0  0  0  0  0  0
    0.0383    0.2246    0.0000 N   0  0  0  0  0  0  0  0  0  0  0  0
   -0.2164    1.0093    0.0000 C   0  0  0  0  0  0  0  0  0  0  0  0
   -1.4458    1.7286    0.0000 C   0  0  0  0  0  0  0  0  0  0  0  0
   -1.0251    2.4383    0.0000 C   0  0  0  0  0  0  0  0  0  0  0  0
   -0.2002    2.4288    0.0000 C   0  0  0  0  0  0  0  0  0  0  0  0
    0.2040    1.7097    0.0000 C   0  0  0  0  0  0  0  0  0  0  0  0
   -1.4294    3.1574    0.0000 C   0  0  0  0  0  0  0  0  0  0  0  0
   -1.8336    3.8767    0.0000 N   0  0  0  0  0  0  0  0  0  0  0  0
   -1.4155   -3.9935    0.0000 H   0  0  0  0  0  0  0  0  0  0  0  0
    0.1388   -1.1721    0.0000 H   0  0  0  0  0  0  0  0  0  0  0  0
    0.1919   -4.9087    0.0000 H   0  0  0  0  0  0  0  0  0  0  0  0
    2.0380   -1.3686    0.0000 H   0  0  0  0  0  0  0  0  0  0  0  0
   -1.9323   -3.7218    0.0000 H   0  0  0  0  0  0  0  0  0  0  0  0
   -2.8717   -3.2136    0.0000 H   0  0  0  0  0  0  0  0  0  0  0  0
   -3.6341   -2.8004    0.0000 H   0  0  0  0  0  0  0  0  0  0  0  0
   -3.6560   -1.7267    0.0000 H   0  0  0  0  0  0  0  0  0  0  0  0
   -2.0551    0.0898    0.0000 H   0  0  0  0  0  0  0  0  0  0  0  0
   -1.1157   -0.4184    0.0000 H   0  0  0  0  0  0  0  0  0  0  0  0
   -0.3534   -0.8316    0.0000 H   0  0  0  0  0  0  0  0  0  0  0  0
   -0.3315   -1.9052    0.0000 H   0  0  0  0  0  0  0  0  0  0  0  0
   -4.3771   -1.5372    0.0000 H   0  0  0  0  0  0  0  0  0  0  0  0
   -4.3746   -0.4628    0.0000 H   0  0  0  0  0  0  0  0  0  0  0  0
   -4.3618    0.3685    0.0000 H   0  0  0  0  0  0  0  0  0  0  0  0
   -3.4253    0.8905    0.0000 H   0  0  0  0  0  0  0  0  0  0  0  0
   -2.7186    1.2872    0.0000 H   0  0  0  0  0  0  0  0  0  0  0  0
   -1.7986    0.7519    0.0000 H   0  0  0  0  0  0  0  0  0  0  0  0
   -2.0030   -1.2611    0.0000 H   0  0  0  0  0  0  0  0  0  0  0  0
   -1.0794   -0.7214    0.0000 H   0  0  0  0  0  0  0  0  0  0  0  0
    2.9773   -4.5681    0.0000 H   0  0  0  0  0  0  0  0  0  0  0  0
    4.4348   -3.6829    0.0000 H   0  0  0  0  0  0  0  0  0  0  0  0
   -0.6292   -1.2922    0.0000 H   0  0  0  0  0  0  0  0  0  0  0  0
    0.9746   -0.0798    0.0000 H   0  0  0  0  0  0  0  0  0  0  0  0
   -2.4777    1.7404    0.0000 H   0  0  0  0  0  0  0  0  0  0  0  0
    0.3261    3.3165    0.0000 H   0  0  0  0  0  0  0  0  0  0  0  0
    1.2359    1.6950    0.0000 H   0  0  0  0  0  0  0  0  0  0  0  0
  1  2  2  0  0  0  0
  1  6  1  0  0  0  0
  1 34  1  0  0  0  0
  2  3  1  0  0  0  0
  2 10  1  0  0  0  0
  3  4  2  0  0  0  0
  3 35  1  0  0  0  0
  4  5  1  0  0  0  0
  4  7  1  0  0  0  0
  5  6  2  0  0  0  0
  5  9  1  0  0  0  0
  6 36  1  0  0  0  0
  7  8  2  0  0  0  0
  7 37  1  0  0  0  0
  8  9  1  0  0  0  0
  8 20  1  0  0  0  0
 10 11  1  0  0  0  0
 10 15  1  0  0  0  0
 11 12  1  0  0  0  0
 11 38  1  0  0  0  0
 11 39  1  0  0  0  0
 12 13  1  0  0  0  0
 12 40  1  0  0  0  0
 12 41  1  0  0  0  0
 13 14  1  0  0  0  0
 13 16  1  0  0  0  0
 14 15  1  0  0  0  0
 14 42  1  0  0  0  0
 14 43  1  0  0  0  0
 15 44  1  0  0  0  0
 15 45  1  0  0  0  0
 16 17  1  0  0  0  0
 16 46  1  0  0  0  0
 16 47  1  0  0  0  0
 17 18  1  0  0  0  0
 17 48  1  0  0  0  0
 17 49  1  0  0  0  0
 18 19  1  0  0  0  0
 18 50  1  0  0  0  0
 18 51  1  0  0  0  0
 19 23  1  0  0  0  0
 19 52  1  0  0  0  0
 19 53  1  0  0  0  0
 20 21  1  0  0  0  0
 20 22  2  0  0  0  0
 21 54  1  0  0  0  0
 21 55  1  0  0  0  0
 24 23  2  0  0  0  0
 24 56  1  0  0  0  0
 25 23  1  0  0  0  0
 25 28  1  0  0  0  0
 26 24  1  0  0  0  0
 26 57  1  0  0  0  0
 27 26  1  0  0  0  0
 27 25  2  0  0  0  0
 28 58  1  0  0  0  0
 29 28  2  0  0  0  0
 29 32  1  0  0  0  0
 30 29  1  0  0  0  0
 30 59  1  0  0  0  0
 31 27  1  0  0  0  0
 31 30  2  0  0  0  0
 31 60  1  0  0  0  0
 33 32  3  0  0  0  0
M  END
>  <DRUGBANK_ID>
DB06684

>  <COMMON_NAME>
Vilazodone

>  <CAS_NUMBER>
163521-12-8

>  <UNII>
S239O2OOV3

>  <SYNONYMS>
Vilazodona; Vilazodone; Vilazodonum

$$$$
