
 OpenBabel10282417072D

 70 74  0  0  1  0  0  0  0  0999 V2000
    3.5905    1.4773    0.0000 C   0  0  0  0  0  0  0  0  0  0  0  0
    2.7394    1.4464    0.0000 O   0  0  0  0  0  0  0  0  0  0  0  0
    2.1692    0.7648    0.0000 C   0  0  0  0  0  0  0  0  0  0  0  0
    1.3488    0.8511    0.0000 C   0  0  0  0  0  0  0  0  0  0  0  0
    0.8638    0.1836    0.0000 C   0  0  0  0  0  0  0  0  0  0  0  0
    0.1188    0.4923    0.0000 O   0  0  0  0  0  0  0  0  0  0  0  0
   -0.2265    1.4302    0.0000 C   0  0  0  0  0  0  0  0  0  0  0  0
   -1.0527    1.6473    0.0000 C   0  0  0  0  0  0  0  0  0  0  0  0
   -0.1151    2.3215    0.0000 C   0  0  0  0  0  0  0  0  0  0  0  0
    1.1994   -0.5701    0.0000 C   0  0  0  0  0  0  0  0  0  0  0  0
    2.0199   -0.6563    0.0000 C   0  0  0  0  0  0  0  0  0  0  0  0
    2.5048    0.0111    0.0000 C   0  0  0  0  0  0  0  0  0  0  0  0
    0.7145   -1.2375    0.0000 C   0  0  0  0  0  0  0  0  0  0  0  0
    1.3819   -1.7224    0.0000 N   0  0  0  0  0  0  0  0  0  0  0  0
    1.1270   -2.5070    0.0000 C   0  0  2  0  0  0  0  0  0  0  0  0
    0.3020   -2.5070    0.0000 C   0  0  2  0  0  0  0  0  0  0  0  0
    0.0470   -1.7224    0.0000 N   0  0  0  0  0  0  0  0  0  0  0  0
   -0.8278   -1.5148    0.0000 C   0  0  0  0  0  0  0  0  0  0  0  0
   -1.7052   -1.6401    0.0000 O   0  0  0  0  0  0  0  0  0  0  0  0
   -0.9091   -0.6605    0.0000 N   0  0  0  0  0  0  0  0  0  0  0  0
   -1.6937   -0.4056    0.0000 C   0  0  0  0  0  0  0  0  0  0  0  0
   -1.8653    0.4014    0.0000 C   0  0  0  0  0  0  0  0  0  0  0  0
   -1.2522    0.9534    0.0000 N   0  0  0  0  0  0  0  0  0  0  0  0
   -0.4675    0.6985    0.0000 C   0  0  0  0  0  0  0  0  0  0  0  0
    0.3339    1.1737    0.0000 O   0  0  0  0  0  0  0  0  0  0  0  0
   -0.2960   -0.1085    0.0000 C   0  0  0  0  0  0  0  0  0  0  0  0
   -0.1830   -3.1745    0.0000 C   0  0  0  0  0  0  0  0  0  0  0  0
    0.1526   -3.9282    0.0000 C   0  0  0  0  0  0  0  0  0  0  0  0
   -0.3323   -4.5956    0.0000 C   0  0  0  0  0  0  0  0  0  0  0  0
   -1.1528   -4.5094    0.0000 C   0  0  0  0  0  0  0  0  0  0  0  0
   -1.6697   -5.1938    0.0000 Cl  0  0  0  0  0  0  0  0  0  0  0  0
   -1.4884   -3.7557    0.0000 C   0  0  0  0  0  0  0  0  0  0  0  0
   -1.0034   -3.0882    0.0000 C   0  0  0  0  0  0  0  0  0  0  0  0
    1.6119   -3.1745    0.0000 C   0  0  0  0  0  0  0  0  0  0  0  0
    2.4324   -3.0882    0.0000 C   0  0  0  0  0  0  0  0  0  0  0  0
    2.9173   -3.7557    0.0000 C   0  0  0  0  0  0  0  0  0  0  0  0
    2.5817   -4.5094    0.0000 C   0  0  0  0  0  0  0  0  0  0  0  0
    3.1026   -5.1901    0.0000 Cl  0  0  0  0  0  0  0  0  0  0  0  0
    1.7613   -4.5956    0.0000 C   0  0  0  0  0  0  0  0  0  0  0  0
    1.2763   -3.9282    0.0000 C   0  0  0  0  0  0  0  0  0  0  0  0
    4.1588    0.5707    0.0000 H   0  0  0  0  0  0  0  0  0  0  0  0
    4.0915    2.4227    0.0000 H   0  0  0  0  0  0  0  0  0  0  0  0
    4.6598    1.5161    0.0000 H   0  0  0  0  0  0  0  0  0  0  0  0
    0.9291    1.7939    0.0000 H   0  0  0  0  0  0  0  0  0  0  0  0
   -0.8260    2.3165    0.0000 H   0  0  0  0  0  0  0  0  0  0  0  0
   -1.3346    2.6795    0.0000 H   0  0  0  0  0  0  0  0  0  0  0  0
   -1.8056    0.8870    0.0000 H   0  0  0  0  0  0  0  0  0  0  0  0
   -2.0876    1.9192    0.0000 H   0  0  0  0  0  0  0  0  0  0  0  0
    0.8707    2.7374    0.0000 H   0  0  0  0  0  0  0  0  0  0  0  0
   -0.9682    2.9673    0.0000 H   0  0  0  0  0  0  0  0  0  0  0  0
    0.0176    3.3832    0.0000 H   0  0  0  0  0  0  0  0  0  0  0  0
    2.4397   -1.5991    0.0000 H   0  0  0  0  0  0  0  0  0  0  0  0
    3.5311   -0.0968    0.0000 H   0  0  0  0  0  0  0  0  0  0  0  0
    2.1838   -2.3396    0.0000 H   0  0  0  0  0  0  0  0  0  0  0  0
    0.7878   -3.4604    0.0000 H   0  0  0  0  0  0  0  0  0  0  0  0
   -2.4888   -1.1216    0.0000 H   0  0  0  0  0  0  0  0  0  0  0  0
   -2.7114   -0.0750    0.0000 H   0  0  0  0  0  0  0  0  0  0  0  0
   -2.8829    0.7320    0.0000 H   0  0  0  0  0  0  0  0  0  0  0  0
   -2.0878    1.4480    0.0000 H   0  0  0  0  0  0  0  0  0  0  0  0
   -1.4569    1.9164    0.0000 H   0  0  0  0  0  0  0  0  0  0  0  0
    0.7216   -0.4392    0.0000 H   0  0  0  0  0  0  0  0  0  0  0  0
   -0.0736   -1.1551    0.0000 H   0  0  0  0  0  0  0  0  0  0  0  0
    1.1789   -4.0361    0.0000 H   0  0  0  0  0  0  0  0  0  0  0  0
    0.0875   -5.5384    0.0000 H   0  0  0  0  0  0  0  0  0  0  0  0
   -2.5147   -3.6478    0.0000 H   0  0  0  0  0  0  0  0  0  0  0  0
   -1.4231   -2.1454    0.0000 H   0  0  0  0  0  0  0  0  0  0  0  0
    2.8521   -2.1454    0.0000 H   0  0  0  0  0  0  0  0  0  0  0  0
    3.9437   -3.6479    0.0000 H   0  0  0  0  0  0  0  0  0  0  0  0
    1.3416   -5.5384    0.0000 H   0  0  0  0  0  0  0  0  0  0  0  0
    0.2500   -4.0361    0.0000 H   0  0  0  0  0  0  0  0  0  0  0  0
  1  2  1  0  0  0  0
  1 41  1  0  0  0  0
  1 42  1  0  0  0  0
  1 43  1  0  0  0  0
  2  3  1  0  0  0  0
  3  4  2  0  0  0  0
  3 12  1  0  0  0  0
  4  5  1  0  0  0  0
  4 44  1  0  0  0  0
  5  6  1  0  0  0  0
  5 10  2  0  0  0  0
  6  7  1  0  0  0  0
  7  8  1  0  0  0  0
  7  9  1  0  0  0  0
  7 45  1  0  0  0  0
  8 46  1  0  0  0  0
  8 47  1  0  0  0  0
  8 48  1  0  0  0  0
  9 49  1  0  0  0  0
  9 50  1  0  0  0  0
  9 51  1  0  0  0  0
 10 11  1  0  0  0  0
 10 13  1  0  0  0  0
 11 12  2  0  0  0  0
 11 52  1  0  0  0  0
 12 53  1  0  0  0  0
 13 14  2  0  0  0  0
 13 17  1  0  0  0  0
 15 14  1  0  0  0  0
 15 16  1  0  0  0  0
 15 34  1  0  0  0  0
 15 54  1  6  0  0  0
 16 17  1  0  0  0  0
 16 27  1  0  0  0  0
 16 55  1  6  0  0  0
 17 18  1  0  0  0  0
 18 19  2  0  0  0  0
 18 20  1  0  0  0  0
 20 21  1  0  0  0  0
 20 26  1  0  0  0  0
 21 22  1  0  0  0  0
 21 56  1  0  0  0  0
 21 57  1  0  0  0  0
 22 23  1  0  0  0  0
 22 58  1  0  0  0  0
 22 59  1  0  0  0  0
 23 24  1  0  0  0  0
 23 60  1  0  0  0  0
 24 25  2  0  0  0  0
 24 26  1  0  0  0  0
 26 61  1  0  0  0  0
 26 62  1  0  0  0  0
 27 28  2  0  0  0  0
 27 33  1  0  0  0  0
 28 29  1  0  0  0  0
 28 63  1  0  0  0  0
 29 30  2  0  0  0  0
 29 64  1  0  0  0  0
 30 31  1  0  0  0  0
 30 32  1  0  0  0  0
 32 33  2  0  0  0  0
 32 65  1  0  0  0  0
 33 66  1  0  0  0  0
 34 35  2  0  0  0  0
 34 40  1  0  0  0  0
 35 36  1  0  0  0  0
 35 67  1  0  0  0  0
 36 37  2  0  0  0  0
 36 68  1  0  0  0  0
 37 38  1  0  0  0  0
 37 39  1  0  0  0  0
 39 40  2  0  0  0  0
 39 69  1  0  0  0  0
 40 70  1  0  0  0  0
M  END
>  <DRUGBANK_ID>
DB17039

>  <COMMON_NAME>
Nutlin-3

>  <CAS_NUMBER>
548472-68-0

>  <UNII>
53IA0V845C

>  <SYNONYMS>
2-piperazinone, 4-(((4r,5s)-4,5-bis(4-chlorophenyl)-4,5-dihydro-2-(4-methoxy-2-(1-methylethoxy)phenyl)-1h-imidazol-1-yl)carbonyl)-, rel-

$$$$
