
 OpenBabel10282417072D

 44 47  0  0  0  0  0  0  0  0999 V2000
   -1.5418   -0.7605    0.0000 C   0  0  0  0  0  0  0  0  0  0  0  0
   -1.5418   -1.5856    0.0000 N   0  0  0  0  0  0  0  0  0  0  0  0
   -0.8292   -0.3479    0.0000 C   0  0  0  0  0  0  0  0  0  0  0  0
    2.0669   -0.4230    0.0000 C   0  0  0  0  0  0  0  0  0  0  0  0
   -2.3294   -0.5064    0.0000 N   0  0  0  0  0  0  0  0  0  0  0  0
   -0.1125   -0.7605    0.0000 C   0  0  0  0  0  0  0  0  0  0  0  0
   -2.3294   -1.8398    0.0000 N   0  0  0  0  0  0  0  0  0  0  0  0
    1.3126   -0.7605    0.0000 N   0  0  0  0  0  0  0  0  0  0  0  0
    2.2419    0.3853    0.0000 C   0  0  0  0  0  0  0  0  0  0  0  0
   -0.1125   -1.5856    0.0000 N   0  0  0  0  0  0  0  0  0  0  0  0
   -0.8292   -1.9981    0.0000 C   0  0  0  0  0  0  0  0  0  0  0  0
   -2.8128   -1.1730    0.0000 C   0  0  0  0  0  0  0  0  0  0  0  0
    2.6211   -1.0355    0.0000 N   0  0  0  0  0  0  0  0  0  0  0  0
    0.6000   -0.3479    0.0000 C   0  0  0  0  0  0  0  0  0  0  0  0
    1.6251    0.9355    0.0000 N   0  0  0  0  0  0  0  0  0  0  0  0
    2.2086   -1.7523    0.0000 C   0  0  0  0  0  0  0  0  0  0  0  0
    1.4001   -1.5815    0.0000 C   0  0  0  0  0  0  0  0  0  0  0  0
    3.0253    0.6396    0.0000 C   0  0  0  0  0  0  0  0  0  0  0  0
   -0.8292    0.4771    0.0000 C   0  0  0  0  0  0  0  0  0  0  0  0
    3.6379    0.0853    0.0000 F   0  0  0  0  0  0  0  0  0  0  0  0
   -3.6379   -1.1730    0.0000 C   0  0  0  0  0  0  0  0  0  0  0  0
    1.8001    1.7439    0.0000 C   0  0  0  0  0  0  0  0  0  0  0  0
    3.1962    1.4438    0.0000 C   0  0  0  0  0  0  0  0  0  0  0  0
   -1.5418    0.8897    0.0000 C   0  0  0  0  0  0  0  0  0  0  0  0
    2.5836    1.9981    0.0000 C   0  0  0  0  0  0  0  0  0  0  0  0
   -1.5418    1.7147    0.0000 C   0  0  0  0  0  0  0  0  0  0  0  0
   -0.8305   -3.0301    0.0000 H   0  0  0  0  0  0  0  0  0  0  0  0
    0.6000    0.7221    0.0000 H   0  0  0  0  0  0  0  0  0  0  0  0
   -0.3270    0.1865    0.0000 H   0  0  0  0  0  0  0  0  0  0  0  0
    2.6296   -2.6945    0.0000 H   0  0  0  0  0  0  0  0  0  0  0  0
    0.6341   -2.2731    0.0000 H   0  0  0  0  0  0  0  0  0  0  0  0
    0.0978    1.0115    0.0000 H   0  0  0  0  0  0  0  0  0  0  0  0
   -0.8282    1.5471    0.0000 H   0  0  0  0  0  0  0  0  0  0  0  0
   -4.1729   -0.2464    0.0000 H   0  0  0  0  0  0  0  0  0  0  0  0
   -4.1729   -2.0996    0.0000 H   0  0  0  0  0  0  0  0  0  0  0  0
   -4.7079   -1.1730    0.0000 H   0  0  0  0  0  0  0  0  0  0  0  0
    1.0346    2.4360    0.0000 H   0  0  0  0  0  0  0  0  0  0  0  0
    4.1781    1.7615    0.0000 H   0  0  0  0  0  0  0  0  0  0  0  0
   -2.4688    0.3553    0.0000 H   0  0  0  0  0  0  0  0  0  0  0  0
   -2.4683    1.4250    0.0000 H   0  0  0  0  0  0  0  0  0  0  0  0
    2.7996    3.0072    0.0000 H   0  0  0  0  0  0  0  0  0  0  0  0
   -0.6152    2.2497    0.0000 H   0  0  0  0  0  0  0  0  0  0  0  0
   -2.4684    2.2497    0.0000 H   0  0  0  0  0  0  0  0  0  0  0  0
   -1.5418    2.7847    0.0000 H   0  0  0  0  0  0  0  0  0  0  0  0
  2  1  1  0  0  0  0
  3  1  1  0  0  0  0
  4  8  1  0  0  0  0
  5  1  2  0  0  0  0
  6  3  2  0  0  0  0
  7  2  1  0  0  0  0
  7 12  2  0  0  0  0
  8 14  1  0  0  0  0
  9  4  1  0  0  0  0
 10 11  2  0  0  0  0
 10  6  1  0  0  0  0
 11  2  1  0  0  0  0
 11 27  1  0  0  0  0
 12  5  1  0  0  0  0
 13  4  2  0  0  0  0
 14  6  1  0  0  0  0
 14 28  1  0  0  0  0
 14 29  1  0  0  0  0
 15  9  1  0  0  0  0
 16 17  2  0  0  0  0
 16 13  1  0  0  0  0
 16 30  1  0  0  0  0
 17  8  1  0  0  0  0
 17 31  1  0  0  0  0
 18  9  2  0  0  0  0
 19  3  1  0  0  0  0
 19 32  1  0  0  0  0
 19 33  1  0  0  0  0
 20 18  1  0  0  0  0
 21 12  1  0  0  0  0
 21 34  1  0  0  0  0
 21 35  1  0  0  0  0
 21 36  1  0  0  0  0
 22 15  2  0  0  0  0
 22 37  1  0  0  0  0
 23 18  1  0  0  0  0
 23 38  1  0  0  0  0
 24 19  1  0  0  0  0
 24 39  1  0  0  0  0
 24 40  1  0  0  0  0
 25 22  1  0  0  0  0
 25 23  2  0  0  0  0
 25 41  1  0  0  0  0
 26 24  1  0  0  0  0
 26 42  1  0  0  0  0
 26 43  1  0  0  0  0
 26 44  1  0  0  0  0
M  END
>  <DRUGBANK_ID>
DB06579

>  <COMMON_NAME>
Adipiplon

>  <CAS_NUMBER>
840486-93-3

>  <UNII>
OPL214POJ1

>  <SYNONYMS>
Adipiplon

$$$$
