
 OpenBabel10282417072D

 77 79  0  0  0  0  0  0  0  0999 V2000
   -3.8665    3.2727    0.0000 C   0  0  1  0  0  0  0  0  0  0  0  0
   -4.2790    2.5583    0.0000 C   0  0  0  0  0  0  0  0  0  0  0  0
   -3.8665    1.8438    0.0000 C   0  0  1  0  0  0  0  0  0  0  0  0
   -3.0415    1.8438    0.0000 C   0  0  0  0  0  0  0  0  0  0  0  0
   -2.6290    2.5583    0.0000 C   0  0  0  0  0  0  0  0  0  0  0  0
   -3.0415    3.2727    0.0000 C   0  0  0  0  0  0  0  0  0  0  0  0
   -4.2790    3.9873    0.0000 O   0  0  0  0  0  0  0  0  0  0  0  0
   -4.2790    1.1293    0.0000 O   0  0  0  0  0  0  0  0  0  0  0  0
   -1.8040    2.5583    0.0000 C   0  0  0  0  0  0  0  0  0  0  0  0
   -1.0896    2.1459    0.0000 C   0  0  0  0  0  0  0  0  0  0  0  0
    0.4094   -0.1715    0.0000 C   0  0  1  0  0  0  0  0  0  0  0  0
    0.8943    0.4958    0.0000 C   0  0  0  0  0  0  0  0  0  0  0  0
    0.4094    1.1632    0.0000 C   0  0  0  0  0  0  0  0  0  0  0  0
   -0.3751    0.9083    0.0000 C   0  0  1  0  0  0  0  0  0  0  0  0
   -1.0896    1.3208    0.0000 C   0  0  0  0  0  0  0  0  0  0  0  0
   -1.8040    0.9083    0.0000 C   0  0  0  0  0  0  0  0  0  0  0  0
   -1.8040    0.0833    0.0000 C   0  0  0  0  0  0  0  0  0  0  0  0
   -1.0896   -0.3291    0.0000 C   0  0  0  0  0  0  0  0  0  0  0  0
   -0.3751    0.0833    0.0000 C   0  0  2  0  0  0  0  0  0  0  0  0
   -0.2889   -0.7371    0.0000 C   0  0  0  0  0  0  0  0  0  0  0  0
    0.6644   -0.9562    0.0000 C   0  0  1  0  0  0  0  0  0  0  0  0
    1.4613   -1.1697    0.0000 C   0  0  0  0  0  0  0  0  0  0  0  0
    1.6748   -1.9666    0.0000 C   0  0  0  0  0  0  0  0  0  0  0  0
    2.4717   -2.1801    0.0000 C   0  0  0  0  0  0  0  0  0  0  0  0
    2.6852   -2.9770    0.0000 C   0  0  0  0  0  0  0  0  0  0  0  0
    3.4821   -3.1905    0.0000 C   0  0  0  0  0  0  0  0  0  0  0  0
    3.2686   -3.9874    0.0000 C   0  0  0  0  0  0  0  0  0  0  0  0
    4.2790   -3.4040    0.0000 C   0  0  0  0  0  0  0  0  0  0  0  0
    0.1124   -1.5692    0.0000 C   0  0  0  0  0  0  0  0  0  0  0  0
    3.6956   -2.3936    0.0000 O   0  0  0  0  0  0  0  0  0  0  0  0
   -2.6290    1.1293    0.0000 C   0  0  0  0  0  0  0  0  0  0  0  0
   -0.2889    1.7288    0.0000 H   0  0  0  0  0  0  0  0  0  0  0  0
    1.2333   -0.1283    0.0000 H   0  0  0  0  0  0  0  0  0  0  0  0
   -4.9365    3.2728    0.0000 H   0  0  0  0  0  0  0  0  0  0  0  0
   -5.3490    2.5583    0.0000 H   0  0  0  0  0  0  0  0  0  0  0  0
   -4.8140    1.6317    0.0000 H   0  0  0  0  0  0  0  0  0  0  0  0
   -4.9365    1.8438    0.0000 H   0  0  0  0  0  0  0  0  0  0  0  0
   -2.5065    4.1994    0.0000 H   0  0  0  0  0  0  0  0  0  0  0  0
   -3.5765    4.1993    0.0000 H   0  0  0  0  0  0  0  0  0  0  0  0
   -3.7939    4.8273    0.0000 H   0  0  0  0  0  0  0  0  0  0  0  0
   -5.2490    1.1293    0.0000 H   0  0  0  0  0  0  0  0  0  0  0  0
   -1.5369    3.5551    0.0000 H   0  0  0  0  0  0  0  0  0  0  0  0
   -0.1959    2.6619    0.0000 H   0  0  0  0  0  0  0  0  0  0  0  0
    1.9643    0.4958    0.0000 H   0  0  0  0  0  0  0  0  0  0  0  0
    1.3801    1.4492    0.0000 H   0  0  0  0  0  0  0  0  0  0  0  0
    0.7400    2.1808    0.0000 H   0  0  0  0  0  0  0  0  0  0  0  0
   -0.3472    1.9198    0.0000 H   0  0  0  0  0  0  0  0  0  0  0  0
   -2.7307    1.4433    0.0000 H   0  0  0  0  0  0  0  0  0  0  0  0
   -2.7306    0.3733    0.0000 H   0  0  0  0  0  0  0  0  0  0  0  0
   -2.7306   -0.4517    0.0000 H   0  0  0  0  0  0  0  0  0  0  0  0
   -1.8040   -0.9867    0.0000 H   0  0  0  0  0  0  0  0  0  0  0  0
   -1.0896   -1.3991    0.0000 H   0  0  0  0  0  0  0  0  0  0  0  0
   -0.1630   -0.8642    0.0000 H   0  0  0  0  0  0  0  0  0  0  0  0
   -1.1546   -1.3660    0.0000 H   0  0  0  0  0  0  0  0  0  0  0  0
    0.6886   -1.1723    0.0000 H   0  0  0  0  0  0  0  0  0  0  0  0
   -0.1771   -1.8012    0.0000 H   0  0  0  0  0  0  0  0  0  0  0  0
    0.9683   -1.9821    0.0000 H   0  0  0  0  0  0  0  0  0  0  0  0
    2.2179   -0.4131    0.0000 H   0  0  0  0  0  0  0  0  0  0  0  0
    2.4948   -1.4467    0.0000 H   0  0  0  0  0  0  0  0  0  0  0  0
    0.9182   -2.7232    0.0000 H   0  0  0  0  0  0  0  0  0  0  0  0
    1.9518   -3.0001    0.0000 H   0  0  0  0  0  0  0  0  0  0  0  0
    3.2283   -1.4235    0.0000 H   0  0  0  0  0  0  0  0  0  0  0  0
    3.5052   -2.4571    0.0000 H   0  0  0  0  0  0  0  0  0  0  0  0
    1.9286   -3.7336    0.0000 H   0  0  0  0  0  0  0  0  0  0  0  0
    2.9622   -4.0105    0.0000 H   0  0  0  0  0  0  0  0  0  0  0  0
    2.2351   -4.2644    0.0000 H   0  0  0  0  0  0  0  0  0  0  0  0
    4.0252   -4.7440    0.0000 H   0  0  0  0  0  0  0  0  0  0  0  0
    2.9917   -5.0209    0.0000 H   0  0  0  0  0  0  0  0  0  0  0  0
    4.5560   -4.4375    0.0000 H   0  0  0  0  0  0  0  0  0  0  0  0
    5.0356   -2.6474    0.0000 H   0  0  0  0  0  0  0  0  0  0  0  0
    5.3125   -3.6809    0.0000 H   0  0  0  0  0  0  0  0  0  0  0  0
   -0.9342   -1.3467    0.0000 H   0  0  0  0  0  0  0  0  0  0  0  0
    0.4430   -2.5868    0.0000 H   0  0  0  0  0  0  0  0  0  0  0  0
   -0.6036   -2.3643    0.0000 H   0  0  0  0  0  0  0  0  0  0  0  0
    4.6325   -2.1425    0.0000 H   0  0  0  0  0  0  0  0  0  0  0  0
   -3.1450    0.2356    0.0000 H   0  0  0  0  0  0  0  0  0  0  0  0
   -1.5970    1.1293    0.0000 H   0  0  0  0  0  0  0  0  0  0  0  0
  1  2  1  0  0  0  0
  1  6  1  0  0  0  0
  1  7  1  0  0  0  0
  1 34  1  1  0  0  0
  2  3  1  0  0  0  0
  2 35  1  0  0  0  0
  2 36  1  0  0  0  0
  3  4  1  0  0  0  0
  3  8  1  0  0  0  0
  3 37  1  6  0  0  0
  4  5  1  0  0  0  0
  4 31  2  0  0  0  0
  5  6  1  0  0  0  0
  5  9  2  0  0  0  0
  6 38  1  0  0  0  0
  6 39  1  0  0  0  0
  7 40  1  0  0  0  0
  8 41  1  0  0  0  0
  9 10  1  0  0  0  0
  9 42  1  0  0  0  0
 10 15  2  0  0  0  0
 10 43  1  0  0  0  0
 11 12  1  0  0  0  0
 11 19  1  0  0  0  0
 11 21  1  0  0  0  0
 11 33  1  1  0  0  0
 12 13  1  0  0  0  0
 12 44  1  0  0  0  0
 12 45  1  0  0  0  0
 13 14  1  0  0  0  0
 13 46  1  0  0  0  0
 13 47  1  0  0  0  0
 14 15  1  0  0  0  0
 14 19  1  0  0  0  0
 14 32  1  1  0  0  0
 15 16  1  0  0  0  0
 16 17  1  0  0  0  0
 16 48  1  0  0  0  0
 16 49  1  0  0  0  0
 17 18  1  0  0  0  0
 17 50  1  0  0  0  0
 17 51  1  0  0  0  0
 18 19  1  0  0  0  0
 18 52  1  0  0  0  0
 18 53  1  0  0  0  0
 19 20  1  6  0  0  0
 20 54  1  0  0  0  0
 20 55  1  0  0  0  0
 20 56  1  0  0  0  0
 21 22  1  0  0  0  0
 21 29  1  0  0  0  0
 21 57  1  6  0  0  0
 22 23  1  0  0  0  0
 22 58  1  0  0  0  0
 22 59  1  0  0  0  0
 23 24  1  0  0  0  0
 23 60  1  0  0  0  0
 23 61  1  0  0  0  0
 24 25  1  0  0  0  0
 24 62  1  0  0  0  0
 24 63  1  0  0  0  0
 25 26  1  0  0  0  0
 25 64  1  0  0  0  0
 25 65  1  0  0  0  0
 26 27  1  0  0  0  0
 26 28  1  0  0  0  0
 26 30  1  0  0  0  0
 27 66  1  0  0  0  0
 27 67  1  0  0  0  0
 27 68  1  0  0  0  0
 28 69  1  0  0  0  0
 28 70  1  0  0  0  0
 28 71  1  0  0  0  0
 29 72  1  0  0  0  0
 29 73  1  0  0  0  0
 29 74  1  0  0  0  0
 30 75  1  0  0  0  0
 31 76  1  0  0  0  0
 31 77  1  0  0  0  0
M  END
>  <DRUGBANK_ID>
DB15557

>  <COMMON_NAME>
24-Homo-1,25-dihydroxyvitamin D3

>  <CAS_NUMBER>
103656-40-2

>  <UNII>
F35KTH803S

>  <SYNONYMS>
24-Homo-calcitriol

$$$$
