
 OpenBabel10282417072D

 65 69  0  0  1  0  0  0  0  0999 V2000
   -2.8465   -7.7834    0.0000 C   0  0  0  0  0  0  0  0  0  0  0  0
   -2.5915   -6.9988    0.0000 N   0  0  0  0  0  0  0  0  0  0  0  0
   -3.1436   -6.3857    0.0000 C   0  0  0  0  0  0  0  0  0  0  0  0
   -2.8886   -5.6010    0.0000 C   0  0  0  0  0  0  0  0  0  0  0  0
   -2.0817   -5.4295    0.0000 N   0  0  0  0  0  0  0  0  0  0  0  0
   -1.5296   -6.0426    0.0000 C   0  0  0  0  0  0  0  0  0  0  0  0
   -1.7846   -6.8272    0.0000 C   0  0  0  0  0  0  0  0  0  0  0  0
   -1.8267   -4.6449    0.0000 C   0  0  0  0  0  0  0  0  0  0  0  0
   -2.3788   -4.0318    0.0000 C   0  0  0  0  0  0  0  0  0  0  0  0
   -2.1238   -3.2472    0.0000 C   0  0  0  0  0  0  0  0  0  0  0  0
   -1.3168   -3.0756    0.0000 C   0  0  0  0  0  0  0  0  0  0  0  0
   -0.7648   -3.6887    0.0000 C   0  0  0  0  0  0  0  0  0  0  0  0
   -1.0198   -4.4734    0.0000 C   0  0  0  0  0  0  0  0  0  0  0  0
   -1.0619   -2.2910    0.0000 C   0  0  0  0  0  0  0  0  0  0  0  0
   -1.6139   -1.6779    0.0000 O   0  0  0  0  0  0  0  0  0  0  0  0
   -0.2549   -2.1195    0.0000 N   0  0  0  0  0  0  0  0  0  0  0  0
   -0.0000   -1.3349    0.0000 C   0  0  0  0  0  0  0  0  0  0  0  0
    0.7846   -1.0799    0.0000 C   0  0  0  0  0  0  0  0  0  0  0  0
    0.7846   -0.2549    0.0000 C   0  0  0  0  0  0  0  0  0  0  0  0
   -0.0000    0.0000    0.0000 N   0  0  0  0  0  0  0  0  0  0  0  0
   -0.4849   -0.6674    0.0000 N   0  0  0  0  0  0  0  0  0  0  0  0
    1.5692    0.0000    0.0000 C   0  0  0  0  0  0  0  0  0  0  0  0
    2.0542   -0.6674    0.0000 N   0  0  0  0  0  0  0  0  0  0  0  0
    1.5692   -1.3349    0.0000 C   0  0  0  0  0  0  0  0  0  0  0  0
    2.8792   -0.6674    0.0000 C   0  0  0  0  0  0  0  0  0  0  0  0
    3.2917   -1.3819    0.0000 O   0  0  0  0  0  0  0  0  0  0  0  0
    3.2917    0.0470    0.0000 C   0  0  1  0  0  0  0  0  0  0  0  0
    4.1167    0.0470    0.0000 C   0  0  0  0  0  0  0  0  0  0  0  0
    4.5292    0.7615    0.0000 C   0  0  0  0  0  0  0  0  0  0  0  0
    5.3542    0.7615    0.0000 C   0  0  0  0  0  0  0  0  0  0  0  0
    5.7667    0.0470    0.0000 C   0  0  0  0  0  0  0  0  0  0  0  0
    5.3542   -0.6674    0.0000 C   0  0  0  0  0  0  0  0  0  0  0  0
    4.5292   -0.6674    0.0000 C   0  0  0  0  0  0  0  0  0  0  0  0
    2.8792    0.7615    0.0000 O   0  0  0  0  0  0  0  0  0  0  0  0
    3.2917    1.4760    0.0000 C   0  0  0  0  0  0  0  0  0  0  0  0
   -3.8931   -8.0058    0.0000 H   0  0  0  0  0  0  0  0  0  0  0  0
   -2.1306   -8.5786    0.0000 H   0  0  0  0  0  0  0  0  0  0  0  0
   -3.1772   -8.8010    0.0000 H   0  0  0  0  0  0  0  0  0  0  0  0
   -4.1902   -6.6082    0.0000 H   0  0  0  0  0  0  0  0  0  0  0  0
   -3.8596   -5.5905    0.0000 H   0  0  0  0  0  0  0  0  0  0  0  0
   -3.6045   -4.8058    0.0000 H   0  0  0  0  0  0  0  0  0  0  0  0
   -2.5579   -4.5834    0.0000 H   0  0  0  0  0  0  0  0  0  0  0  0
   -0.4830   -5.8201    0.0000 H   0  0  0  0  0  0  0  0  0  0  0  0
   -0.8137   -6.8378    0.0000 H   0  0  0  0  0  0  0  0  0  0  0  0
   -1.0686   -7.6224    0.0000 H   0  0  0  0  0  0  0  0  0  0  0  0
   -2.1152   -7.8448    0.0000 H   0  0  0  0  0  0  0  0  0  0  0  0
   -3.3883   -4.2464    0.0000 H   0  0  0  0  0  0  0  0  0  0  0  0
   -2.8143   -2.4803    0.0000 H   0  0  0  0  0  0  0  0  0  0  0  0
    0.2447   -3.4742    0.0000 H   0  0  0  0  0  0  0  0  0  0  0  0
   -0.3293   -5.2403    0.0000 H   0  0  0  0  0  0  0  0  0  0  0  0
    0.4039   -2.8511    0.0000 H   0  0  0  0  0  0  0  0  0  0  0  0
   -0.3042    0.9363    0.0000 H   0  0  0  0  0  0  0  0  0  0  0  0
    1.8998    1.0176    0.0000 H   0  0  0  0  0  0  0  0  0  0  0  0
    2.6260    0.1675    0.0000 H   0  0  0  0  0  0  0  0  0  0  0  0
    1.8998   -2.3525    0.0000 H   0  0  0  0  0  0  0  0  0  0  0  0
    0.8125   -2.0915    0.0000 H   0  0  0  0  0  0  0  0  0  0  0  0
    2.2217    0.0470    0.0000 H   0  0  0  0  0  0  0  0  0  0  0  0
    4.0132    1.6552    0.0000 H   0  0  0  0  0  0  0  0  0  0  0  0
    5.8702    1.6552    0.0000 H   0  0  0  0  0  0  0  0  0  0  0  0
    6.7987    0.0470    0.0000 H   0  0  0  0  0  0  0  0  0  0  0  0
    5.8702   -1.5611    0.0000 H   0  0  0  0  0  0  0  0  0  0  0  0
    4.0132   -1.5611    0.0000 H   0  0  0  0  0  0  0  0  0  0  0  0
    4.3617    1.4760    0.0000 H   0  0  0  0  0  0  0  0  0  0  0  0
    2.7567    2.4026    0.0000 H   0  0  0  0  0  0  0  0  0  0  0  0
    3.8267    2.4027    0.0000 H   0  0  0  0  0  0  0  0  0  0  0  0
  1  2  1  0  0  0  0
  1 36  1  0  0  0  0
  1 37  1  0  0  0  0
  1 38  1  0  0  0  0
  2  3  1  0  0  0  0
  2  7  1  0  0  0  0
  3  4  1  0  0  0  0
  3 39  1  0  0  0  0
  3 40  1  0  0  0  0
  4  5  1  0  0  0  0
  4 41  1  0  0  0  0
  4 42  1  0  0  0  0
  5  6  1  0  0  0  0
  5  8  1  0  0  0  0
  6  7  1  0  0  0  0
  6 43  1  0  0  0  0
  6 44  1  0  0  0  0
  7 45  1  0  0  0  0
  7 46  1  0  0  0  0
  8  9  2  0  0  0  0
  8 13  1  0  0  0  0
  9 10  1  0  0  0  0
  9 47  1  0  0  0  0
 10 11  2  0  0  0  0
 10 48  1  0  0  0  0
 11 12  1  0  0  0  0
 11 14  1  0  0  0  0
 12 13  2  0  0  0  0
 12 49  1  0  0  0  0
 13 50  1  0  0  0  0
 14 15  2  0  0  0  0
 14 16  1  0  0  0  0
 16 17  1  0  0  0  0
 16 51  1  0  0  0  0
 17 18  1  0  0  0  0
 17 21  2  0  0  0  0
 18 19  2  0  0  0  0
 18 24  1  0  0  0  0
 19 20  1  0  0  0  0
 19 22  1  0  0  0  0
 20 21  1  0  0  0  0
 20 52  1  0  0  0  0
 22 23  1  0  0  0  0
 22 53  1  0  0  0  0
 22 54  1  0  0  0  0
 23 24  1  0  0  0  0
 23 25  1  0  0  0  0
 24 55  1  0  0  0  0
 24 56  1  0  0  0  0
 25 26  2  0  0  0  0
 25 27  1  0  0  0  0
 27 28  1  0  0  0  0
 27 34  1  0  0  0  0
 27 57  1  1  0  0  0
 28 29  2  0  0  0  0
 28 33  1  0  0  0  0
 29 30  1  0  0  0  0
 29 58  1  0  0  0  0
 30 31  2  0  0  0  0
 30 59  1  0  0  0  0
 31 32  1  0  0  0  0
 31 60  1  0  0  0  0
 32 33  2  0  0  0  0
 32 61  1  0  0  0  0
 33 62  1  0  0  0  0
 34 35  1  0  0  0  0
 35 63  1  0  0  0  0
 35 64  1  0  0  0  0
 35 65  1  0  0  0  0
M  END
>  <DRUGBANK_ID>
DB11778

>  <COMMON_NAME>
Danusertib

>  <CAS_NUMBER>
827318-97-8

>  <UNII>
M3X659D0FY

>  <SYNONYMS>
Danusertib

$$$$
