
 OpenBabel10282417072D

 70 71  0  0  0  0  0  0  0  0999 V2000
   -6.2116   -2.1177    0.0000 C   0  0  0  0  0  0  0  0  0  0  0  0
   -5.4971   -1.7052    0.0000 C   0  0  0  0  0  0  0  0  0  0  0  0
   -4.7826   -2.1177    0.0000 C   0  0  0  0  0  0  0  0  0  0  0  0
   -4.0681   -1.7052    0.0000 C   0  0  0  0  0  0  0  0  0  0  0  0
   -3.3537   -2.1177    0.0000 C   0  0  0  0  0  0  0  0  0  0  0  0
   -2.6392   -1.7052    0.0000 C   0  0  0  0  0  0  0  0  0  0  0  0
   -1.9247   -2.1177    0.0000 C   0  0  0  0  0  0  0  0  0  0  0  0
   -1.2103   -1.7052    0.0000 C   0  0  0  0  0  0  0  0  0  0  0  0
   -0.4958   -2.1177    0.0000 N   0  0  0  0  0  0  0  0  0  0  0  0
   -0.4095   -2.9382    0.0000 C   0  0  0  0  0  0  0  0  0  0  0  0
    0.3974   -3.1097    0.0000 C   0  0  0  0  0  0  0  0  0  0  0  0
    0.8099   -2.3952    0.0000 C   0  0  0  0  0  0  0  0  0  0  0  0
    0.2579   -1.7821    0.0000 C   0  0  0  0  0  0  0  0  0  0  0  0
    0.5128   -0.9975    0.0000 C   0  0  0  0  0  0  0  0  0  0  0  0
    1.3198   -0.8260    0.0000 C   0  0  0  0  0  0  0  0  0  0  0  0
    1.8718   -1.4391    0.0000 C   0  0  0  0  0  0  0  0  0  0  0  0
    1.6169   -2.2237    0.0000 C   0  0  0  0  0  0  0  0  0  0  0  0
    2.1689   -2.8368    0.0000 C   0  0  0  0  0  0  0  0  0  0  0  0
    2.6788   -1.2676    0.0000 C   0  0  0  0  0  0  0  0  0  0  0  0
    3.2308   -1.8807    0.0000 C   0  0  0  0  0  0  0  0  0  0  0  0
    4.0378   -1.7091    0.0000 O   0  0  0  0  0  0  0  0  0  0  0  0
    2.9759   -2.6653    0.0000 O   0  0  0  0  0  0  0  0  0  0  0  0
    1.5747   -0.0414    0.0000 C   0  0  0  0  0  0  0  0  0  0  0  0
   -0.0392   -0.3844    0.0000 N   0  0  0  0  0  0  0  0  0  0  0  0
    0.2157    0.4002    0.0000 C   0  0  0  0  0  0  0  0  0  0  0  0
    1.0227    0.5717    0.0000 O   0  0  0  0  0  0  0  0  0  0  0  0
   -0.3363    1.0133    0.0000 C   0  0  0  0  0  0  0  0  0  0  0  0
    0.2768    1.5653    0.0000 C   0  0  0  0  0  0  0  0  0  0  0  0
   -0.9494    0.4612    0.0000 C   0  0  0  0  0  0  0  0  0  0  0  0
   -0.8883    1.6264    0.0000 C   0  0  0  0  0  0  0  0  0  0  0  0
   -7.1382   -1.5827    0.0000 H   0  0  0  0  0  0  0  0  0  0  0  0
   -6.2116   -3.1877    0.0000 H   0  0  0  0  0  0  0  0  0  0  0  0
   -7.1383   -2.6527    0.0000 H   0  0  0  0  0  0  0  0  0  0  0  0
   -5.4971   -0.6352    0.0000 H   0  0  0  0  0  0  0  0  0  0  0  0
   -4.5705   -1.1702    0.0000 H   0  0  0  0  0  0  0  0  0  0  0  0
   -4.7826   -3.1877    0.0000 H   0  0  0  0  0  0  0  0  0  0  0  0
   -3.8560   -2.6527    0.0000 H   0  0  0  0  0  0  0  0  0  0  0  0
   -4.0681   -0.6352    0.0000 H   0  0  0  0  0  0  0  0  0  0  0  0
   -3.1414   -1.1702    0.0000 H   0  0  0  0  0  0  0  0  0  0  0  0
   -3.3537   -3.1877    0.0000 H   0  0  0  0  0  0  0  0  0  0  0  0
   -2.4271   -2.6527    0.0000 H   0  0  0  0  0  0  0  0  0  0  0  0
   -2.6392   -0.6352    0.0000 H   0  0  0  0  0  0  0  0  0  0  0  0
   -1.7126   -1.1702    0.0000 H   0  0  0  0  0  0  0  0  0  0  0  0
   -1.9247   -3.1877    0.0000 H   0  0  0  0  0  0  0  0  0  0  0  0
   -0.9980   -2.6527    0.0000 H   0  0  0  0  0  0  0  0  0  0  0  0
   -1.2103   -0.6352    0.0000 H   0  0  0  0  0  0  0  0  0  0  0  0
   -0.2837   -1.1702    0.0000 H   0  0  0  0  0  0  0  0  0  0  0  0
   -1.2046   -3.6542    0.0000 H   0  0  0  0  0  0  0  0  0  0  0  0
   -0.1325   -3.9717    0.0000 H   0  0  0  0  0  0  0  0  0  0  0  0
    0.8326   -4.0872    0.0000 H   0  0  0  0  0  0  0  0  0  0  0  0
    1.4659   -3.1657    0.0000 H   0  0  0  0  0  0  0  0  0  0  0  0
    1.8382   -3.8544    0.0000 H   0  0  0  0  0  0  0  0  0  0  0  0
    3.2155   -2.6144    0.0000 H   0  0  0  0  0  0  0  0  0  0  0  0
    2.8848   -3.6320    0.0000 H   0  0  0  0  0  0  0  0  0  0  0  0
    3.0095   -0.2500    0.0000 H   0  0  0  0  0  0  0  0  0  0  0  0
    3.7254   -1.0452    0.0000 H   0  0  0  0  0  0  0  0  0  0  0  0
    2.0594   -2.8601    0.0000 H   0  0  0  0  0  0  0  0  0  0  0  0
    2.6213    0.1811    0.0000 H   0  0  0  0  0  0  0  0  0  0  0  0
    0.8587    0.7537    0.0000 H   0  0  0  0  0  0  0  0  0  0  0  0
    1.9053    0.9762    0.0000 H   0  0  0  0  0  0  0  0  0  0  0  0
   -1.0022   -0.5891    0.0000 H   0  0  0  0  0  0  0  0  0  0  0  0
    1.2944    1.2346    0.0000 H   0  0  0  0  0  0  0  0  0  0  0  0
    0.0544    2.6119    0.0000 H   0  0  0  0  0  0  0  0  0  0  0  0
    1.0720    2.2812    0.0000 H   0  0  0  0  0  0  0  0  0  0  0  0
   -1.9670    0.7918    0.0000 H   0  0  0  0  0  0  0  0  0  0  0  0
   -0.7269   -0.5854    0.0000 H   0  0  0  0  0  0  0  0  0  0  0  0
   -1.7445   -0.2548    0.0000 H   0  0  0  0  0  0  0  0  0  0  0  0
   -0.5576    2.6440    0.0000 H   0  0  0  0  0  0  0  0  0  0  0  0
   -1.9349    1.4040    0.0000 H   0  0  0  0  0  0  0  0  0  0  0  0
   -1.6042    2.4216    0.0000 H   0  0  0  0  0  0  0  0  0  0  0  0
  1  2  1  0  0  0  0
  1 31  1  0  0  0  0
  1 32  1  0  0  0  0
  1 33  1  0  0  0  0
  2  3  1  0  0  0  0
  2 34  1  0  0  0  0
  2 35  1  0  0  0  0
  3  4  1  0  0  0  0
  3 36  1  0  0  0  0
  3 37  1  0  0  0  0
  4  5  1  0  0  0  0
  4 38  1  0  0  0  0
  4 39  1  0  0  0  0
  5  6  1  0  0  0  0
  5 40  1  0  0  0  0
  5 41  1  0  0  0  0
  6  7  1  0  0  0  0
  6 42  1  0  0  0  0
  6 43  1  0  0  0  0
  7  8  1  0  0  0  0
  7 44  1  0  0  0  0
  7 45  1  0  0  0  0
  8  9  1  0  0  0  0
  8 46  1  0  0  0  0
  8 47  1  0  0  0  0
  9 10  1  0  0  0  0
  9 13  1  0  0  0  0
 10 11  1  0  0  0  0
 10 48  1  0  0  0  0
 10 49  1  0  0  0  0
 11 12  1  0  0  0  0
 11 50  1  0  0  0  0
 11 51  1  0  0  0  0
 12 13  2  0  0  0  0
 12 17  1  0  0  0  0
 13 14  1  0  0  0  0
 14 15  2  0  0  0  0
 14 24  1  0  0  0  0
 15 16  1  0  0  0  0
 15 23  1  0  0  0  0
 16 17  2  0  0  0  0
 16 19  1  0  0  0  0
 17 18  1  0  0  0  0
 18 52  1  0  0  0  0
 18 53  1  0  0  0  0
 18 54  1  0  0  0  0
 19 20  1  0  0  0  0
 19 55  1  0  0  0  0
 19 56  1  0  0  0  0
 20 21  2  0  0  0  0
 20 22  1  0  0  0  0
 22 57  1  0  0  0  0
 23 58  1  0  0  0  0
 23 59  1  0  0  0  0
 23 60  1  0  0  0  0
 24 25  1  0  0  0  0
 24 61  1  0  0  0  0
 25 26  2  0  0  0  0
 25 27  1  0  0  0  0
 27 28  1  0  0  0  0
 27 29  1  0  0  0  0
 27 30  1  0  0  0  0
 28 62  1  0  0  0  0
 28 63  1  0  0  0  0
 28 64  1  0  0  0  0
 29 65  1  0  0  0  0
 29 66  1  0  0  0  0
 29 67  1  0  0  0  0
 30 68  1  0  0  0  0
 30 69  1  0  0  0  0
 30 70  1  0  0  0  0
M  END
>  <DRUGBANK_ID>
DB12971

>  <COMMON_NAME>
Pactimibe

>  <CAS_NUMBER>
189198-30-9

>  <UNII>
D874R9PZ9T

>  <SYNONYMS>
Pactimibe

$$$$
