623
 OpenBabel10282417072D

 56 59  0  0  0  0  0  0  0  0999 V2000
    5.9361   -3.5410    0.0000 S   0  0  0  0  0  0  0  0  0  0  0  0
    8.4328   -1.1584    0.0000 F   0  0  0  0  0  0  0  0  0  0  0  0
    9.2631   -2.5840    0.0000 F   0  0  0  0  0  0  0  0  0  0  0  0
    9.5608   -1.4561    0.0000 F   0  0  0  0  0  0  0  0  0  0  0  0
    1.6498    3.0581    0.0000 O   0  0  0  0  0  0  0  0  0  0  0  0
    4.5073    0.5834    0.0000 N   0  0  0  0  0  0  0  0  0  0  0  0
    3.0786    1.4083    0.0000 N   0  0  0  0  0  0  0  0  0  0  0  0
    5.9361   -1.8912    0.0000 N   0  0  0  0  0  0  0  0  0  0  0  0
    3.7929    0.1710    0.0000 C   0  0  0  0  0  0  0  0  0  0  0  0
    4.5073    1.4083    0.0000 C   0  0  0  0  0  0  0  0  0  0  0  0
    3.0786    0.5834    0.0000 C   0  0  0  0  0  0  0  0  0  0  0  0
    3.7929    1.8208    0.0000 C   0  0  0  0  0  0  0  0  0  0  0  0
    5.2216    0.1710    0.0000 C   0  0  0  0  0  0  0  0  0  0  0  0
    5.2216   -0.6539    0.0000 C   0  0  0  0  0  0  0  0  0  0  0  0
    2.3641    1.8208    0.0000 C   0  0  0  0  0  0  0  0  0  0  0  0
    5.9361   -1.0664    0.0000 C   0  0  0  0  0  0  0  0  0  0  0  0
    2.3641    2.6456    0.0000 C   0  0  0  0  0  0  0  0  0  0  0  0
    6.6504   -2.3037    0.0000 C   0  0  0  0  0  0  0  0  0  0  0  0
    5.2216   -2.3037    0.0000 C   0  0  0  0  0  0  0  0  0  0  0  0
    6.6504   -3.1286    0.0000 C   0  0  0  0  0  0  0  0  0  0  0  0
    5.2216   -3.1286    0.0000 C   0  0  0  0  0  0  0  0  0  0  0  0
    7.3878   -1.8626    0.0000 C   0  0  0  0  0  0  0  0  0  0  0  0
    4.4843   -1.8626    0.0000 C   0  0  0  0  0  0  0  0  0  0  0  0
    8.1352   -2.2865    0.0000 C   0  0  0  0  0  0  0  0  0  0  0  0
    7.3878   -3.5695    0.0000 C   0  0  0  0  0  0  0  0  0  0  0  0
    4.4843   -3.5695    0.0000 C   0  0  0  0  0  0  0  0  0  0  0  0
    8.1352   -3.1457    0.0000 C   0  0  0  0  0  0  0  0  0  0  0  0
    3.7368   -2.2865    0.0000 C   0  0  0  0  0  0  0  0  0  0  0  0
    3.7368   -3.1457    0.0000 C   0  0  0  0  0  0  0  0  0  0  0  0
    8.8480   -1.8712    0.0000 C   0  0  0  0  0  0  0  0  0  0  0  0
    1.6499    4.0281    0.0000 H   0  0  0  0  0  0  0  0  0  0  0  0
    3.7929   -0.8990    0.0000 H   0  0  0  0  0  0  0  0  0  0  0  0
    2.8662   -0.3640    0.0000 H   0  0  0  0  0  0  0  0  0  0  0  0
    5.4340    1.9433    0.0000 H   0  0  0  0  0  0  0  0  0  0  0  0
    4.5073    2.4783    0.0000 H   0  0  0  0  0  0  0  0  0  0  0  0
    2.1520    0.0484    0.0000 H   0  0  0  0  0  0  0  0  0  0  0  0
    3.0786   -0.4866    0.0000 H   0  0  0  0  0  0  0  0  0  0  0  0
    3.7929    2.8908    0.0000 H   0  0  0  0  0  0  0  0  0  0  0  0
    4.7196    2.3558    0.0000 H   0  0  0  0  0  0  0  0  0  0  0  0
    6.1482    0.7060    0.0000 H   0  0  0  0  0  0  0  0  0  0  0  0
    6.1482   -0.3640    0.0000 H   0  0  0  0  0  0  0  0  0  0  0  0
    4.2950   -1.1889    0.0000 H   0  0  0  0  0  0  0  0  0  0  0  0
    5.2216   -1.7239    0.0000 H   0  0  0  0  0  0  0  0  0  0  0  0
    1.4375    1.2858    0.0000 H   0  0  0  0  0  0  0  0  0  0  0  0
    1.4375    2.3558    0.0000 H   0  0  0  0  0  0  0  0  0  0  0  0
    6.8627   -0.5314    0.0000 H   0  0  0  0  0  0  0  0  0  0  0  0
    5.9361    0.0036    0.0000 H   0  0  0  0  0  0  0  0  0  0  0  0
    3.2908    3.1806    0.0000 H   0  0  0  0  0  0  0  0  0  0  0  0
    3.2907    2.1106    0.0000 H   0  0  0  0  0  0  0  0  0  0  0  0
    7.3759   -0.8307    0.0000 H   0  0  0  0  0  0  0  0  0  0  0  0
    4.4963   -0.8307    0.0000 H   0  0  0  0  0  0  0  0  0  0  0  0
    7.3759   -4.6014    0.0000 H   0  0  0  0  0  0  0  0  0  0  0  0
    4.4963   -4.6014    0.0000 H   0  0  0  0  0  0  0  0  0  0  0  0
    9.0269   -3.6652    0.0000 H   0  0  0  0  0  0  0  0  0  0  0  0
    2.8451   -1.7670    0.0000 H   0  0  0  0  0  0  0  0  0  0  0  0
    2.8451   -3.6652    0.0000 H   0  0  0  0  0  0  0  0  0  0  0  0
  1 20  1  0  0  0  0
  1 21  1  0  0  0  0
  2 30  1  0  0  0  0
  3 30  1  0  0  0  0
  4 30  1  0  0  0  0
  5 17  1  0  0  0  0
  5 31  1  0  0  0  0
  6  9  1  0  0  0  0
  6 10  1  0  0  0  0
  6 13  1  0  0  0  0
  7 11  1  0  0  0  0
  7 12  1  0  0  0  0
  7 15  1  0  0  0  0
  8 16  1  0  0  0  0
  8 18  1  0  0  0  0
  8 19  1  0  0  0  0
  9 11  1  0  0  0  0
  9 32  1  0  0  0  0
  9 33  1  0  0  0  0
 10 12  1  0  0  0  0
 10 34  1  0  0  0  0
 10 35  1  0  0  0  0
 11 36  1  0  0  0  0
 11 37  1  0  0  0  0
 12 38  1  0  0  0  0
 12 39  1  0  0  0  0
 13 14  1  0  0  0  0
 13 40  1  0  0  0  0
 13 41  1  0  0  0  0
 14 16  1  0  0  0  0
 14 42  1  0  0  0  0
 14 43  1  0  0  0  0
 15 17  1  0  0  0  0
 15 44  1  0  0  0  0
 15 45  1  0  0  0  0
 16 46  1  0  0  0  0
 16 47  1  0  0  0  0
 17 48  1  0  0  0  0
 17 49  1  0  0  0  0
 18 20  2  0  0  0  0
 18 22  1  0  0  0  0
 19 21  1  0  0  0  0
 19 23  2  0  0  0  0
 20 25  1  0  0  0  0
 21 26  2  0  0  0  0
 22 24  2  0  0  0  0
 22 50  1  0  0  0  0
 23 28  1  0  0  0  0
 23 51  1  0  0  0  0
 24 27  1  0  0  0  0
 24 30  1  0  0  0  0
 25 27  2  0  0  0  0
 25 52  1  0  0  0  0
 26 29  1  0  0  0  0
 26 53  1  0  0  0  0
 27 54  1  0  0  0  0
 28 29  2  0  0  0  0
 28 55  1  0  0  0  0
 29 56  1  0  0  0  0
M  END
>  <DRUGBANK_ID>
DB00623

>  <SECONDARY_ACCESSION_NUMBERS>
APRD00633

>  <COMMON_NAME>
Fluphenazine

>  <CAS_NUMBER>
69-23-8

>  <UNII>
S79426A41Z

>  <SYNONYMS>
1-(2-hydroxyethyl)-4-(3-(trifluoromethyl-10-phenothiazinyl)propyl)-piperazine; 10-(3-(2-hydroxyethyl)piperazinopropyl)-2-(trifluoromethyl)phenothiazine; 10-(3'-(4''-(β-hydroxyethyl)-1''-piperazinyl)-propyl)-3-trifluoromethylphenothiazine; 2-(4-(3-[2-(trifluoromethyl)-10H-phenothiazin-10-yl]propyl)-1-piperazinyl)ethanol; 2-(trifluoromethyl)-10-(3-(1-(β-hydroxyethyl)-4-piperazinyl)propyl)phenothiazine; 4-(3-(-trifluoromethyl-10-phenothiazyl)-propyl)-1-piperazineethanol; 4-(3-(2-(trifluoromethyl)-10H-phenothiazin-10-yl)propyl)-1-piperazineethanol; 4-(3-(2-trifluoromethyl-10-phenothiazyl)-propyl)-1-piperazineethanol; Flufenazina; Fluorfenazine; Fluorophenazine; Fluorphenazine; Fluphenazin; Fluphénazine; Fluphenazine; Fluphenazinum; Triflumethazine

$$$$
