AUR
 OpenBabel10282417072D

 65 67  0  0  0  0  0  0  0  0999 V2000
   -1.7171   -0.6028    0.0000 C   0  0  0  0  0  0  0  0  0  0  0  0
   -1.8687    0.2241    0.0000 C   0  0  0  0  0  0  0  0  0  0  0  0
   -2.1093    1.0897    0.0000 C   0  0  2  0  0  0  0  0  0  0  0  0
   -1.7888    1.7983    0.0000 C   0  0  2  0  0  0  0  0  0  0  0  0
   -2.2669    1.9907    0.0000 C   0  0  2  0  0  0  0  0  0  0  0  0
   -2.2097    1.4251    0.0000 C   0  0  1  0  0  0  0  0  0  0  0  0
   -1.2380    1.4251    0.0000 C   0  0  2  0  0  0  0  0  0  0  0  0
   -0.7218    0.9964    0.0000 C   0  0  1  0  0  0  0  0  0  0  0  0
   -1.7476    2.7170    0.0000 C   0  0  0  0  0  0  0  0  0  0  0  0
   -3.1007    1.4397    0.0000 C   0  0  0  0  0  0  0  0  0  0  0  0
   -4.3334    2.6585    0.0000 C   0  0  0  0  0  0  0  0  0  0  0  0
   -3.6267    3.0842    0.0000 C   0  0  0  0  0  0  0  0  0  0  0  0
   -2.7296    0.7128    0.0000 O   0  0  0  0  0  0  0  0  0  0  0  0
   -0.8600    1.8138    0.0000 O   0  0  0  0  0  0  0  0  0  0  0  0
   -2.8633    2.6621    0.0000 O   0  0  0  0  0  0  0  0  0  0  0  0
   -0.9397    2.3776    0.0000 O   0  0  0  0  0  0  0  0  0  0  0  0
   -3.6420    3.9090    0.0000 O   0  0  0  0  0  0  0  0  0  0  0  0
   -0.1488    0.3295    0.0000 C   0  0  0  0  0  0  0  0  0  0  0  0
    0.7080    0.1968    0.0000 C   0  0  0  0  0  0  0  0  0  0  0  0
    1.0063   -0.5723    0.0000 C   0  0  0  0  0  0  0  0  0  0  0  0
    1.8216   -0.6986    0.0000 C   0  0  0  0  0  0  0  0  0  0  0  0
    2.1199   -1.4678    0.0000 C   0  0  0  0  0  0  0  0  0  0  0  0
    2.9352   -1.5940    0.0000 C   0  0  0  0  0  0  0  0  0  0  0  0
    3.2335   -2.3632    0.0000 C   0  0  0  0  0  0  0  0  0  0  0  0
    4.0488   -2.4895    0.0000 C   0  0  0  0  0  0  0  0  0  0  0  0
    4.3471   -3.2587    0.0000 C   0  0  0  0  0  0  0  0  0  0  0  0
    3.8301   -3.9016    0.0000 C   0  0  0  0  0  0  0  0  0  0  0  0
    3.0148   -3.7753    0.0000 C   0  0  0  0  0  0  0  0  0  0  0  0
    4.5658   -1.8466    0.0000 C   0  0  0  0  0  0  0  0  0  0  0  0
    5.6793   -2.7420    0.0000 C   0  0  0  0  0  0  0  0  0  0  0  0
    2.7165   -3.0061    0.0000 O   0  0  0  0  0  0  0  0  0  0  0  0
    5.1624   -3.3849    0.0000 O   0  0  0  0  0  0  0  0  0  0  0  0
    2.4978   -4.4183    0.0000 O   0  0  0  0  0  0  0  0  0  0  0  0
   -1.5271    1.0449    0.0000 H   0  0  0  0  0  0  0  0  0  0  0  0
   -2.8016    1.7560    0.0000 H   0  0  0  0  0  0  0  0  0  0  0  0
   -1.4019    1.9855    0.0000 H   0  0  0  0  0  0  0  0  0  0  0  0
   -0.9641    0.4651    0.0000 H   0  0  0  0  0  0  0  0  0  0  0  0
   -2.5321   -1.2961    0.0000 H   0  0  0  0  0  0  0  0  0  0  0  0
   -0.7092   -0.9619    0.0000 H   0  0  0  0  0  0  0  0  0  0  0  0
   -1.5241   -1.6553    0.0000 H   0  0  0  0  0  0  0  0  0  0  0  0
   -0.8260    0.4641    0.0000 H   0  0  0  0  0  0  0  0  0  0  0  0
   -1.3216    1.1436    0.0000 H   0  0  0  0  0  0  0  0  0  0  0  0
   -0.7979    3.2099    0.0000 H   0  0  0  0  0  0  0  0  0  0  0  0
   -2.6493    3.2930    0.0000 H   0  0  0  0  0  0  0  0  0  0  0  0
   -1.6997    3.7859    0.0000 H   0  0  0  0  0  0  0  0  0  0  0  0
   -3.6204    2.3750    0.0000 H   0  0  0  0  0  0  0  0  0  0  0  0
   -3.6508    0.5219    0.0000 H   0  0  0  0  0  0  0  0  0  0  0  0
   -4.1706    1.4572    0.0000 H   0  0  0  0  0  0  0  0  0  0  0  0
   -5.2698    3.1762    0.0000 H   0  0  0  0  0  0  0  0  0  0  0  0
   -4.3135    1.5887    0.0000 H   0  0  0  0  0  0  0  0  0  0  0  0
   -5.2500    2.1064    0.0000 H   0  0  0  0  0  0  0  0  0  0  0  0
    0.0069    2.5894    0.0000 H   0  0  0  0  0  0  0  0  0  0  0  0
   -0.6502   -0.5725    0.0000 H   0  0  0  0  0  0  0  0  0  0  0  0
    1.3547    1.0010    0.0000 H   0  0  0  0  0  0  0  0  0  0  0  0
    0.3596   -1.3765    0.0000 H   0  0  0  0  0  0  0  0  0  0  0  0
    2.4683    0.1056    0.0000 H   0  0  0  0  0  0  0  0  0  0  0  0
    1.4732   -2.2721    0.0000 H   0  0  0  0  0  0  0  0  0  0  0  0
    3.5819   -0.7897    0.0000 H   0  0  0  0  0  0  0  0  0  0  0  0
    4.2032   -4.8638    0.0000 H   0  0  0  0  0  0  0  0  0  0  0  0
    5.6232   -2.0104    0.0000 H   0  0  0  0  0  0  0  0  0  0  0  0
    4.1790   -0.8490    0.0000 H   0  0  0  0  0  0  0  0  0  0  0  0
    5.2363   -1.0128    0.0000 H   0  0  0  0  0  0  0  0  0  0  0  0
    6.7367   -2.9057    0.0000 H   0  0  0  0  0  0  0  0  0  0  0  0
    5.2924   -1.7444    0.0000 H   0  0  0  0  0  0  0  0  0  0  0  0
    6.3498   -1.9081    0.0000 H   0  0  0  0  0  0  0  0  0  0  0  0
  1  2  1  0  0  0  0
  1 38  1  0  0  0  0
  1 39  1  0  0  0  0
  1 40  1  0  0  0  0
  2 41  1  0  0  0  0
  2 42  1  0  0  0  0
  3  2  1  0  0  0  0
  3  4  1  0  0  0  0
  3 13  1  0  0  0  0
  3 34  1  6  0  0  0
  4  5  1  0  0  0  0
  4  9  1  6  0  0  0
  4 14  1  0  0  0  0
  5  6  1  0  0  0  0
  5 15  1  0  0  0  0
  5 35  1  1  0  0  0
  6  7  1  0  0  0  0
  6 10  1  1  0  0  0
  6 13  1  0  0  0  0
  7  8  1  0  0  0  0
  7 16  1  0  0  0  0
  7 36  1  6  0  0  0
  8 14  1  0  0  0  0
  8 18  1  0  0  0  0
  8 37  1  6  0  0  0
  9 43  1  0  0  0  0
  9 44  1  0  0  0  0
  9 45  1  0  0  0  0
 10 46  1  0  0  0  0
 10 47  1  0  0  0  0
 10 48  1  0  0  0  0
 11 12  1  0  0  0  0
 11 49  1  0  0  0  0
 11 50  1  0  0  0  0
 11 51  1  0  0  0  0
 12 15  1  0  0  0  0
 12 17  2  0  0  0  0
 16 52  1  0  0  0  0
 18 19  2  0  0  0  0
 18 53  1  0  0  0  0
 19 20  1  0  0  0  0
 19 54  1  0  0  0  0
 20 21  2  0  0  0  0
 20 55  1  0  0  0  0
 21 22  1  0  0  0  0
 21 56  1  0  0  0  0
 22 23  2  0  0  0  0
 22 57  1  0  0  0  0
 23 24  1  0  0  0  0
 23 58  1  0  0  0  0
 24 25  2  0  0  0  0
 24 31  1  0  0  0  0
 25 26  1  0  0  0  0
 25 29  1  0  0  0  0
 26 27  2  0  0  0  0
 26 32  1  0  0  0  0
 27 28  1  0  0  0  0
 27 59  1  0  0  0  0
 28 31  1  0  0  0  0
 28 33  2  0  0  0  0
 29 60  1  0  0  0  0
 29 61  1  0  0  0  0
 29 62  1  0  0  0  0
 30 32  1  0  0  0  0
 30 63  1  0  0  0  0
 30 64  1  0  0  0  0
 30 65  1  0  0  0  0
M  END
>  <DRUGBANK_ID>
DB07394

>  <COMMON_NAME>
AUROVERTIN B

$$$$
