
 OpenBabel10282417072D

 91 95  0  0  1  0  0  0  0  0999 V2000
    0.4452    4.4144    0.0000 C   0  0  0  0  0  0  0  0  0  0  0  0
   -0.4733    3.8841    0.0000 C   0  0  0  0  0  0  0  0  0  0  0  0
    5.6645    4.3164    0.0000 C   0  0  0  0  0  0  0  0  0  0  0  0
    5.9337    1.3606    0.0000 C   0  0  0  0  0  0  0  0  0  0  0  0
    1.9520    2.1730    0.0000 C   0  0  0  0  0  0  0  0  0  0  0  0
    3.1895    4.3164    0.0000 C   0  0  0  0  0  0  0  0  0  0  0  0
    2.6907    4.4225    0.0000 C   0  0  0  0  0  0  0  0  0  0  0  0
   -2.5855    4.3164    0.0000 C   0  0  0  0  0  0  0  0  0  0  0  0
   -2.1730    3.6020    0.0000 C   0  0  0  0  0  0  0  0  0  0  0  0
    1.5395    4.3164    0.0000 C   0  0  0  0  0  0  0  0  0  0  0  0
    0.3020    2.1730    0.0000 C   0  0  0  0  0  0  0  0  0  0  0  0
    1.1270    2.1730    0.0000 C   0  0  0  0  0  0  0  0  0  0  0  0
    2.3645    4.3164    0.0000 C   0  0  0  0  0  0  0  0  0  0  0  0
    6.0770    3.6020    0.0000 C   0  0  0  0  0  0  0  0  0  0  0  0
    6.4895    2.8875    0.0000 C   0  0  0  0  0  0  0  0  0  0  0  0
    4.8395    4.3164    0.0000 C   0  0  0  0  0  0  0  0  0  0  0  0
    4.0145    4.3164    0.0000 C   0  0  0  0  0  0  0  0  0  0  0  0
    3.6020    2.1730    0.0000 C   0  0  0  0  0  0  0  0  0  0  0  0
    5.2520    2.1730    0.0000 C   0  0  0  0  0  0  0  0  0  0  0  0
    4.0145    2.8875    0.0000 C   0  0  0  0  0  0  0  0  0  0  0  0
    4.8395    2.8875    0.0000 C   0  0  1  0  0  0  0  0  0  0  0  0
    2.7770    2.1730    0.0000 C   0  0  0  0  0  0  0  0  0  0  0  0
    1.1270    3.6020    0.0000 C   0  0  1  0  0  0  0  0  0  0  0  0
   -0.1105    2.8875    0.0000 C   0  0  1  0  0  0  0  0  0  0  0  0
   -3.4105    4.3164    0.0000 C   0  0  0  0  0  0  0  0  0  0  0  0
   -1.3480    3.6020    0.0000 C   0  0  0  0  0  0  0  0  0  0  0  0
    2.3645    2.8875    0.0000 C   0  0  2  0  0  0  0  0  0  0  0  0
    6.8522    1.8909    0.0000 C   0  0  0  0  0  0  0  0  0  0  0  0
    0.3020    3.6020    0.0000 C   0  0  0  0  0  0  0  0  0  0  0  0
    5.2520    3.6020    0.0000 C   0  0  1  0  0  0  0  0  0  0  0  0
    6.0770    2.1730    0.0000 C   0  0  2  0  0  0  0  0  0  0  0  0
    1.5395    2.8875    0.0000 C   0  0  2  0  0  0  0  0  0  0  0  0
    3.6020    3.6020    0.0000 C   0  0  1  0  0  0  0  0  0  0  0  0
    2.7770    3.6020    0.0000 C   0  0  1  0  0  0  0  0  0  0  0  0
    2.3645    1.4586    0.0000 O   0  0  0  0  0  0  0  0  0  0  0  0
   -3.8230    5.0309    0.0000 O   0  0  0  0  0  0  0  0  0  0  0  0
   -3.8230    3.6020    0.0000 O   0  0  0  0  0  0  0  0  0  0  0  0
   -0.9355    4.3164    0.0000 O   0  0  0  0  0  0  0  0  0  0  0  0
    7.4842    2.4212    0.0000 O   0  0  0  0  0  0  0  0  0  0  0  0
    6.9955    1.0784    0.0000 O   0  0  0  0  0  0  0  0  0  0  0  0
   -0.9355    2.8875    0.0000 O   0  0  0  0  0  0  0  0  0  0  0  0
    4.4270    2.1730    0.0000 H   0  0  0  0  0  0  0  0  0  0  0  0
    0.7145    4.3164    0.0000 H   0  0  0  0  0  0  0  0  0  0  0  0
   -0.5230    2.1730    0.0000 H   0  0  0  0  0  0  0  0  0  0  0  0
    2.2212    2.0750    0.0000 H   0  0  0  0  0  0  0  0  0  0  0  0
    1.4507    4.7804    0.0000 H   0  0  0  0  0  0  0  0  0  0  0  0
   -0.3745    5.1021    0.0000 H   0  0  0  0  0  0  0  0  0  0  0  0
    0.6309    5.4682    0.0000 H   0  0  0  0  0  0  0  0  0  0  0  0
   -0.6592    4.9378    0.0000 H   0  0  0  0  0  0  0  0  0  0  0  0
   -1.2929    3.1962    0.0000 H   0  0  0  0  0  0  0  0  0  0  0  0
   -1.4788    4.2500    0.0000 H   0  0  0  0  0  0  0  0  0  0  0  0
    6.7345    4.3164    0.0000 H   0  0  0  0  0  0  0  0  0  0  0  0
    5.1295    5.2431    0.0000 H   0  0  0  0  0  0  0  0  0  0  0  0
    6.1995    5.2430    0.0000 H   0  0  0  0  0  0  0  0  0  0  0  0
    4.9282    0.9947    0.0000 H   0  0  0  0  0  0  0  0  0  0  0  0
    6.7533    0.6728    0.0000 H   0  0  0  0  0  0  0  0  0  0  0  0
    5.7478    0.3069    0.0000 H   0  0  0  0  0  0  0  0  0  0  0  0
    1.4170    1.2464    0.0000 H   0  0  0  0  0  0  0  0  0  0  0  0
    3.0220    2.1730    0.0000 H   0  0  0  0  0  0  0  0  0  0  0  0
    2.4870    1.2463    0.0000 H   0  0  0  0  0  0  0  0  0  0  0  0
    3.7245    5.2431    0.0000 H   0  0  0  0  0  0  0  0  0  0  0  0
    2.1195    4.3164    0.0000 H   0  0  0  0  0  0  0  0  0  0  0  0
    2.6545    5.2430    0.0000 H   0  0  0  0  0  0  0  0  0  0  0  0
    3.5563    5.0515    0.0000 H   0  0  0  0  0  0  0  0  0  0  0  0
    1.7132    4.8576    0.0000 H   0  0  0  0  0  0  0  0  0  0  0  0
    2.5788    5.4866    0.0000 H   0  0  0  0  0  0  0  0  0  0  0  0
   -2.0505    5.2431    0.0000 H   0  0  0  0  0  0  0  0  0  0  0  0
   -3.1205    5.2430    0.0000 H   0  0  0  0  0  0  0  0  0  0  0  0
   -2.7080    2.6753    0.0000 H   0  0  0  0  0  0  0  0  0  0  0  0
   -1.6380    2.6754    0.0000 H   0  0  0  0  0  0  0  0  0  0  0  0
    1.0045    5.2431    0.0000 H   0  0  0  0  0  0  0  0  0  0  0  0
    0.4695    4.3164    0.0000 H   0  0  0  0  0  0  0  0  0  0  0  0
   -0.2330    1.2464    0.0000 H   0  0  0  0  0  0  0  0  0  0  0  0
   -0.7680    2.1730    0.0000 H   0  0  0  0  0  0  0  0  0  0  0  0
    1.6620    1.2464    0.0000 H   0  0  0  0  0  0  0  0  0  0  0  0
    2.1970    2.1730    0.0000 H   0  0  0  0  0  0  0  0  0  0  0  0
    2.8995    5.2431    0.0000 H   0  0  0  0  0  0  0  0  0  0  0  0
    3.4345    4.3164    0.0000 H   0  0  0  0  0  0  0  0  0  0  0  0
    6.6120    4.5286    0.0000 H   0  0  0  0  0  0  0  0  0  0  0  0
    5.5420    4.5286    0.0000 H   0  0  0  0  0  0  0  0  0  0  0  0
    7.5595    2.8875    0.0000 H   0  0  0  0  0  0  0  0  0  0  0  0
    7.0245    1.9609    0.0000 H   0  0  0  0  0  0  0  0  0  0  0  0
    5.3745    5.2431    0.0000 H   0  0  0  0  0  0  0  0  0  0  0  0
    5.9095    4.3164    0.0000 H   0  0  0  0  0  0  0  0  0  0  0  0
    3.4795    5.2431    0.0000 H   0  0  0  0  0  0  0  0  0  0  0  0
    2.9445    4.3164    0.0000 H   0  0  0  0  0  0  0  0  0  0  0  0
    4.1180    1.2793    0.0000 H   0  0  0  0  0  0  0  0  0  0  0  0
    4.7170    1.2464    0.0000 H   0  0  0  0  0  0  0  0  0  0  0  0
    5.7870    1.2464    0.0000 H   0  0  0  0  0  0  0  0  0  0  0  0
   -4.7600    3.6020    0.0000 H   0  0  0  0  0  0  0  0  0  0  0  0
    6.2777    0.4761    0.0000 H   0  0  0  0  0  0  0  0  0  0  0  0
  1 46  1  0  0  0  0
  1 47  1  0  0  0  0
  1 48  1  0  0  0  0
  2 49  1  0  0  0  0
  2 50  1  0  0  0  0
  2 51  1  0  0  0  0
  3 52  1  0  0  0  0
  3 53  1  0  0  0  0
  3 54  1  0  0  0  0
  4 55  1  0  0  0  0
  4 56  1  0  0  0  0
  4 57  1  0  0  0  0
  5 58  1  0  0  0  0
  5 59  1  0  0  0  0
  5 60  1  0  0  0  0
  6 61  1  0  0  0  0
  6 62  1  0  0  0  0
  6 63  1  0  0  0  0
  7 64  1  0  0  0  0
  7 65  1  0  0  0  0
  7 66  1  0  0  0  0
  8 67  1  0  0  0  0
  8 68  1  0  0  0  0
  9  8  1  0  0  0  0
  9 69  1  0  0  0  0
  9 70  1  0  0  0  0
 10 71  1  0  0  0  0
 10 72  1  0  0  0  0
 11 73  1  0  0  0  0
 11 74  1  0  0  0  0
 12 11  1  0  0  0  0
 12 75  1  0  0  0  0
 12 76  1  0  0  0  0
 13 10  1  0  0  0  0
 13 77  1  0  0  0  0
 13 78  1  0  0  0  0
 14 79  1  0  0  0  0
 14 80  1  0  0  0  0
 15 14  1  0  0  0  0
 15 81  1  0  0  0  0
 15 82  1  0  0  0  0
 16 83  1  0  0  0  0
 16 84  1  0  0  0  0
 17 16  1  0  0  0  0
 17 85  1  0  0  0  0
 17 86  1  0  0  0  0
 18 87  1  0  0  0  0
 19 88  1  0  0  0  0
 19 89  1  0  0  0  0
 20 18  2  0  0  0  0
 21 19  1  0  0  0  0
 21 20  1  0  0  0  0
 21 42  1  6  0  0  0
 22 18  1  0  0  0  0
 23 10  1  0  0  0  0
 23 43  1  1  0  0  0
 24 11  1  0  0  0  0
 24 41  1  0  0  0  0
 24 44  1  1  0  0  0
 25  8  1  0  0  0  0
 26  9  1  0  0  0  0
 27 22  1  0  0  0  0
 27 45  1  1  0  0  0
 29  1  1  0  0  0  0
 29  2  1  0  0  0  0
 29 23  1  0  0  0  0
 29 24  1  0  0  0  0
 30  3  1  6  0  0  0
 30 14  1  0  0  0  0
 30 16  1  0  0  0  0
 30 21  1  0  0  0  0
 31  4  1  0  0  0  0
 31 15  1  0  0  0  0
 31 19  1  0  0  0  0
 31 28  1  6  0  0  0
 32  5  1  6  0  0  0
 32 12  1  0  0  0  0
 32 23  1  0  0  0  0
 32 27  1  0  0  0  0
 33  6  1  1  0  0  0
 33 17  1  0  0  0  0
 33 20  1  0  0  0  0
 34  7  1  6  0  0  0
 34 13  1  0  0  0  0
 34 27  1  0  0  0  0
 34 33  1  0  0  0  0
 35 22  2  0  0  0  0
 36 25  2  0  0  0  0
 37 25  1  0  0  0  0
 37 90  1  0  0  0  0
 38 26  2  0  0  0  0
 39 28  2  0  0  0  0
 40 28  1  0  0  0  0
 40 91  1  0  0  0  0
 41 26  1  0  0  0  0
M  END
>  <DRUGBANK_ID>
DB02329

>  <SECONDARY_ACCESSION_NUMBERS>
EXPT00848

>  <COMMON_NAME>
Carbenoxolone

>  <CAS_NUMBER>
5697-56-3

>  <UNII>
MM6384NG73

>  <SYNONYMS>
Carbenoxolona; Carbenoxolone

$$$$
