
 OpenBabel10282417072D

 42 44  0  0  0  0  0  0  0  0999 V2000
   -3.1357    1.2567    0.0000 C   0  0  0  0  0  0  0  0  0  0  0  0
   -3.1371    0.4292    0.0000 C   0  0  0  0  0  0  0  0  0  0  0  0
   -2.4239    0.0162    0.0000 C   0  0  0  0  0  0  0  0  0  0  0  0
   -2.4259    1.6697    0.0000 C   0  0  0  0  0  0  0  0  0  0  0  0
   -0.2891    0.1208    0.0000 N   0  0  0  0  0  0  0  0  0  0  0  0
    0.0427    0.8815    0.0000 C   0  0  3  0  0  0  0  0  0  0  0  0
   -0.3339    1.5712    0.0000 C   0  0  0  0  0  0  0  0  0  0  0  0
   -1.0758   -0.0734    0.0000 C   0  0  0  0  0  0  0  0  0  0  0  0
   -1.7047    0.4240    0.0000 C   0  0  0  0  0  0  0  0  0  0  0  0
   -1.7079    1.2607    0.0000 C   0  0  0  0  0  0  0  0  0  0  0  0
   -1.1061    1.7419    0.0000 N   0  0  0  0  0  0  0  0  0  0  0  0
    0.1614    2.2309    0.0000 O   0  0  0  0  0  0  0  0  0  0  0  0
    0.8669    0.9179    0.0000 O   0  0  0  0  0  0  0  0  0  0  0  0
    1.3106    0.2224    0.0000 C   0  0  0  0  0  0  0  0  0  0  0  0
    2.1348    0.2588    0.0000 C   0  0  0  0  0  0  0  0  0  0  0  0
    0.9300   -0.5096    0.0000 O   0  0  0  0  0  0  0  0  0  0  0  0
    2.5784   -0.4367    0.0000 C   0  0  0  0  0  0  0  0  0  0  0  0
    3.4028   -0.4003    0.0000 C   0  0  0  0  0  0  0  0  0  0  0  0
    3.8464   -1.0959    0.0000 O   0  0  0  0  0  0  0  0  0  0  0  0
    3.7834    0.3316    0.0000 O   0  0  0  0  0  0  0  0  0  0  0  0
   -1.4808   -0.7951    0.0000 C   0  0  0  0  0  0  0  0  0  0  0  0
   -2.3070   -0.8019    0.0000 C   0  0  0  0  0  0  0  0  0  0  0  0
   -2.7122   -1.5196    0.0000 C   0  0  0  0  0  0  0  0  0  0  0  0
   -2.2925   -2.2309    0.0000 C   0  0  0  0  0  0  0  0  0  0  0  0
   -1.4634   -2.2200    0.0000 C   0  0  0  0  0  0  0  0  0  0  0  0
   -1.0617   -1.5018    0.0000 C   0  0  0  0  0  0  0  0  0  0  0  0
   -0.2367   -1.4913    0.0000 Cl  0  0  0  0  0  0  0  0  0  0  0  0
   -3.8464    0.0177    0.0000 Br  0  0  0  0  0  0  0  0  0  0  0  0
   -4.0299    1.7719    0.0000 H   0  0  0  0  0  0  0  0  0  0  0  0
   -2.4286   -1.0158    0.0000 H   0  0  0  0  0  0  0  0  0  0  0  0
   -2.4306    2.7017    0.0000 H   0  0  0  0  0  0  0  0  0  0  0  0
   -1.0263    0.8342    0.0000 H   0  0  0  0  0  0  0  0  0  0  0  0
   -1.3291    2.7008    0.0000 H   0  0  0  0  0  0  0  0  0  0  0  0
    2.6284    1.2082    0.0000 H   0  0  0  0  0  0  0  0  0  0  0  0
    3.2038    0.3060    0.0000 H   0  0  0  0  0  0  0  0  0  0  0  0
    2.0848   -1.3861    0.0000 H   0  0  0  0  0  0  0  0  0  0  0  0
    3.1538   -1.3388    0.0000 H   0  0  0  0  0  0  0  0  0  0  0  0
    3.4141   -1.9272    0.0000 H   0  0  0  0  0  0  0  0  0  0  0  0
   -2.8310    0.0872    0.0000 H   0  0  0  0  0  0  0  0  0  0  0  0
   -3.7442   -1.5295    0.0000 H   0  0  0  0  0  0  0  0  0  0  0  0
   -2.7984   -3.1304    0.0000 H   0  0  0  0  0  0  0  0  0  0  0  0
   -0.9355   -3.1067    0.0000 H   0  0  0  0  0  0  0  0  0  0  0  0
  1  2  2  0  0  0  0
  1 29  1  0  0  0  0
  2  3  1  0  0  0  0
  2 28  1  0  0  0  0
  3  9  2  0  0  0  0
  3 30  1  0  0  0  0
  4  1  1  0  0  0  0
  4 31  1  0  0  0  0
  5  6  1  0  0  0  0
  5  8  2  0  0  0  0
  6  7  1  0  0  0  0
  6 13  1  0  0  0  0
  6 32  1  0  0  0  0
  7 12  2  0  0  0  0
  8  9  1  0  0  0  0
  8 21  1  0  0  0  0
  9 10  1  0  0  0  0
 10  4  2  0  0  0  0
 10 11  1  0  0  0  0
 11  7  1  0  0  0  0
 11 33  1  0  0  0  0
 13 14  1  0  0  0  0
 14 15  1  0  0  0  0
 14 16  2  0  0  0  0
 15 17  1  0  0  0  0
 15 34  1  0  0  0  0
 15 35  1  0  0  0  0
 17 18  1  0  0  0  0
 17 36  1  0  0  0  0
 17 37  1  0  0  0  0
 18 19  1  0  0  0  0
 18 20  2  0  0  0  0
 19 38  1  0  0  0  0
 21 22  2  0  0  0  0
 22 23  1  0  0  0  0
 22 39  1  0  0  0  0
 23 24  2  0  0  0  0
 23 40  1  0  0  0  0
 24 25  1  0  0  0  0
 24 41  1  0  0  0  0
 25 26  2  0  0  0  0
 25 42  1  0  0  0  0
 26 21  1  0  0  0  0
 26 27  1  0  0  0  0
M  END
>  <DRUGBANK_ID>
DB14715

>  <COMMON_NAME>
Cinazepam

>  <CAS_NUMBER>
172986-25-3

>  <UNII>
U4SS7UFXC7

$$$$
