
 OpenBabel10282417072D

 40 41  0  0  1  0  0  0  0  0999 V2000
    1.2822    0.1478    0.0000 C   0  0  2  0  0  0  0  0  0  0  0  0
    2.0694    0.4056    0.0000 N   0  0  0  0  0  0  0  0  0  0  0  0
    0.6394    0.6187    0.0000 O   0  0  0  0  0  0  0  0  0  0  0  0
    1.0381   -0.6600    0.0000 C   0  0  1  0  0  0  0  0  0  0  0  0
    2.6881   -0.1443    0.0000 C   0  0  0  0  0  0  0  0  0  0  0  0
    2.2412    1.2134    0.0000 C   0  0  0  0  0  0  0  0  0  0  0  0
   -0.0344    0.1272    0.0000 C   0  0  1  0  0  0  0  0  0  0  0  0
    0.2131   -0.6600    0.0000 C   0  0  1  0  0  0  0  0  0  0  0  0
    1.5228   -1.3234    0.0000 O   0  0  0  0  0  0  0  0  0  0  0  0
    3.4787    0.1168    0.0000 N   0  0  0  0  0  0  0  0  0  0  0  0
    2.5265   -0.9487    0.0000 O   0  0  0  0  0  0  0  0  0  0  0  0
    3.0215    1.4747    0.0000 C   0  0  0  0  0  0  0  0  0  0  0  0
   -0.8181    0.3816    0.0000 C   0  0  0  0  0  0  0  0  0  0  0  0
   -0.2750   -1.3199    0.0000 O   0  0  0  0  0  0  0  0  0  0  0  0
    3.6471    0.9247    0.0000 C   0  0  0  0  0  0  0  0  0  0  0  0
   -1.4265   -0.1719    0.0000 O   0  0  0  0  0  0  0  0  0  0  0  0
    4.4308    1.1825    0.0000 N   0  0  0  0  0  0  0  0  0  0  0  0
   -2.2515   -0.1719    0.0000 P   0  0  3  0  0  0  0  0  0  0  0  0
   -3.0731   -0.1719    0.0000 O   0  0  0  0  0  0  0  0  0  0  0  0
   -2.2550   -0.9935    0.0000 O   0  0  0  0  0  0  0  0  0  0  0  0
   -2.2550    0.6497    0.0000 O   0  0  0  0  0  0  0  0  0  0  0  0
   -3.8946   -0.1685    0.0000 P   0  0  0  0  0  0  0  0  0  0  0  0
   -3.8980   -0.9900    0.0000 O   0  0  0  0  0  0  0  0  0  0  0  0
   -4.7161   -0.1685    0.0000 O   0  0  0  0  0  0  0  0  0  0  0  0
   -3.8980    0.6565    0.0000 O   0  0  0  0  0  0  0  0  0  0  0  0
    1.4504    1.2045    0.0000 H   0  0  0  0  0  0  0  0  0  0  0  0
    2.0929   -0.4803    0.0000 H   0  0  0  0  0  0  0  0  0  0  0  0
    1.4712    1.9005    0.0000 H   0  0  0  0  0  0  0  0  0  0  0  0
   -0.2029    1.1838    0.0000 H   0  0  0  0  0  0  0  0  0  0  0  0
    0.6948   -1.6154    0.0000 H   0  0  0  0  0  0  0  0  0  0  0  0
    1.1306   -2.2106    0.0000 H   0  0  0  0  0  0  0  0  0  0  0  0
    3.2255    2.4863    0.0000 H   0  0  0  0  0  0  0  0  0  0  0  0
   -1.0434    1.4276    0.0000 H   0  0  0  0  0  0  0  0  0  0  0  0
   -1.8370    0.7082    0.0000 H   0  0  0  0  0  0  0  0  0  0  0  0
   -1.2388   -1.2103    0.0000 H   0  0  0  0  0  0  0  0  0  0  0  0
    5.1648    0.5264    0.0000 H   0  0  0  0  0  0  0  0  0  0  0  0
    4.6320    2.1462    0.0000 H   0  0  0  0  0  0  0  0  0  0  0  0
   -3.0971   -1.4749    0.0000 H   0  0  0  0  0  0  0  0  0  0  0  0
   -4.7400   -1.4715    0.0000 H   0  0  0  0  0  0  0  0  0  0  0  0
   -5.2011    0.6715    0.0000 H   0  0  0  0  0  0  0  0  0  0  0  0
  1  2  1  0  0  0  0
  1  3  1  0  0  0  0
  1  4  1  0  0  0  0
  1 26  1  6  0  0  0
  2  5  1  0  0  0  0
  2  6  1  0  0  0  0
  3  7  1  0  0  0  0
  4  8  1  0  0  0  0
  4  9  1  0  0  0  0
  4 27  1  1  0  0  0
  5 10  1  0  0  0  0
  5 11  2  0  0  0  0
  6 12  2  0  0  0  0
  6 28  1  0  0  0  0
  7 13  1  0  0  0  0
  7  8  1  0  0  0  0
  7 29  1  6  0  0  0
  8 14  1  0  0  0  0
  8 30  1  1  0  0  0
  9 31  1  0  0  0  0
 10 15  2  0  0  0  0
 12 15  1  0  0  0  0
 12 32  1  0  0  0  0
 13 16  1  0  0  0  0
 13 33  1  0  0  0  0
 13 34  1  0  0  0  0
 14 35  1  0  0  0  0
 15 17  1  0  0  0  0
 16 18  1  0  0  0  0
 17 36  1  0  0  0  0
 17 37  1  0  0  0  0
 18 19  1  0  0  0  0
 18 20  1  0  0  0  0
 18 21  2  0  0  0  0
 19 22  1  0  0  0  0
 20 38  1  0  0  0  0
 22 23  1  0  0  0  0
 22 24  1  0  0  0  0
 22 25  2  0  0  0  0
 23 39  1  0  0  0  0
 24 40  1  0  0  0  0
M  END
>  <DRUGBANK_ID>
DB04555

>  <SECONDARY_ACCESSION_NUMBERS>
EXPT00868

>  <COMMON_NAME>
Cytidine-5'-Diphosphate

>  <CAS_NUMBER>
63-38-7

>  <UNII>
1ZH821MXU5

$$$$
