
 OpenBabel10282417072D

 33 33  0  0  0  0  0  0  0  0999 V2000
    1.3736    0.8250    0.0000 O   0  0  0  0  0  0  0  0  0  0  0  0
   -0.0552    0.8250    0.0000 N   0  0  0  0  0  0  0  0  0  0  0  0
   -0.0552    0.0000    0.0000 N   0  0  0  0  0  0  0  0  0  0  0  0
    0.6592    2.0625    0.0000 C   0  0  0  0  0  0  0  0  0  0  0  0
   -0.1657    2.0625    0.0000 C   0  0  0  0  0  0  0  0  0  0  0  0
    1.4842    2.0625    0.0000 C   0  0  0  0  0  0  0  0  0  0  0  0
    0.6592    2.8875    0.0000 C   0  0  0  0  0  0  0  0  0  0  0  0
    0.6592    1.2375    0.0000 C   0  0  0  0  0  0  0  0  0  0  0  0
   -0.7697   -0.4125    0.0000 C   0  0  0  0  0  0  0  0  0  0  0  0
   -0.7697   -1.2375    0.0000 C   0  0  0  0  0  0  0  0  0  0  0  0
   -0.0552   -1.6500    0.0000 C   0  0  0  0  0  0  0  0  0  0  0  0
   -1.4842   -1.6500    0.0000 C   0  0  0  0  0  0  0  0  0  0  0  0
   -0.0552   -2.4750    0.0000 C   0  0  0  0  0  0  0  0  0  0  0  0
   -1.4842   -2.4750    0.0000 C   0  0  0  0  0  0  0  0  0  0  0  0
   -0.7697   -2.8875    0.0000 C   0  0  0  0  0  0  0  0  0  0  0  0
   -0.4982    1.0807    0.0000 H   0  0  0  0  0  0  0  0  0  0  0  0
    0.3877   -0.2557    0.0000 H   0  0  0  0  0  0  0  0  0  0  0  0
   -0.7007    2.9891    0.0000 H   0  0  0  0  0  0  0  0  0  0  0  0
   -0.7007    1.1359    0.0000 H   0  0  0  0  0  0  0  0  0  0  0  0
   -1.2357    2.0625    0.0000 H   0  0  0  0  0  0  0  0  0  0  0  0
    2.0192    1.1359    0.0000 H   0  0  0  0  0  0  0  0  0  0  0  0
    2.0192    2.9891    0.0000 H   0  0  0  0  0  0  0  0  0  0  0  0
    2.5542    2.0625    0.0000 H   0  0  0  0  0  0  0  0  0  0  0  0
    1.5858    3.4225    0.0000 H   0  0  0  0  0  0  0  0  0  0  0  0
   -0.2674    3.4225    0.0000 H   0  0  0  0  0  0  0  0  0  0  0  0
    0.6592    3.9575    0.0000 H   0  0  0  0  0  0  0  0  0  0  0  0
   -1.6963    0.1225    0.0000 H   0  0  0  0  0  0  0  0  0  0  0  0
   -1.6963   -0.9475    0.0000 H   0  0  0  0  0  0  0  0  0  0  0  0
    0.8385   -1.1340    0.0000 H   0  0  0  0  0  0  0  0  0  0  0  0
   -2.3779   -1.1340    0.0000 H   0  0  0  0  0  0  0  0  0  0  0  0
    0.8385   -2.9910    0.0000 H   0  0  0  0  0  0  0  0  0  0  0  0
   -2.3779   -2.9910    0.0000 H   0  0  0  0  0  0  0  0  0  0  0  0
   -0.7697   -3.9195    0.0000 H   0  0  0  0  0  0  0  0  0  0  0  0
  1  8  2  0  0  0  0
  2  3  1  0  0  0  0
  2  8  1  0  0  0  0
  2 16  1  0  0  0  0
  3  9  1  0  0  0  0
  3 17  1  0  0  0  0
  4  5  1  0  0  0  0
  4  6  1  0  0  0  0
  4  7  1  0  0  0  0
  4  8  1  0  0  0  0
  5 18  1  0  0  0  0
  5 19  1  0  0  0  0
  5 20  1  0  0  0  0
  6 21  1  0  0  0  0
  6 22  1  0  0  0  0
  6 23  1  0  0  0  0
  7 24  1  0  0  0  0
  7 25  1  0  0  0  0
  7 26  1  0  0  0  0
  9 10  1  0  0  0  0
  9 27  1  0  0  0  0
  9 28  1  0  0  0  0
 10 11  2  0  0  0  0
 10 12  1  0  0  0  0
 11 13  1  0  0  0  0
 11 29  1  0  0  0  0
 12 14  2  0  0  0  0
 12 30  1  0  0  0  0
 13 15  2  0  0  0  0
 13 31  1  0  0  0  0
 14 15  1  0  0  0  0
 14 32  1  0  0  0  0
 15 33  1  0  0  0  0
M  END
>  <DRUGBANK_ID>
DB09252

>  <COMMON_NAME>
Pivhydrazine

>  <CAS_NUMBER>
306-19-4

>  <UNII>
TK1T520ASG

>  <SYNONYMS>
Pivalylbenzhydrazine; Pivazide

$$$$
