IIE
 OpenBabel10282417072D

 61 64  0  0  0  0  0  0  0  0999 V2000
    2.8867    0.2642    0.0000 C   0  0  0  0  0  0  0  0  0  0  0  0
    2.1722   -0.1483    0.0000 C   0  0  0  0  0  0  0  0  0  0  0  0
    1.4578    0.2642    0.0000 C   0  0  0  0  0  0  0  0  0  0  0  0
    1.4578    1.0892    0.0000 C   0  0  0  0  0  0  0  0  0  0  0  0
    2.1722    1.5017    0.0000 C   0  0  0  0  0  0  0  0  0  0  0  0
    2.8867    1.0892    0.0000 C   0  0  0  0  0  0  0  0  0  0  0  0
    0.6731    0.0093    0.0000 N   0  0  0  0  0  0  0  0  0  0  0  0
    0.1882    0.6767    0.0000 C   0  0  0  0  0  0  0  0  0  0  0  0
    0.6731    1.3442    0.0000 C   0  0  0  0  0  0  0  0  0  0  0  0
   -0.6368    0.6767    0.0000 C   0  0  0  0  0  0  0  0  0  0  0  0
   -1.0493    1.3912    0.0000 N   0  0  0  0  0  0  0  0  0  0  0  0
   -1.8743    1.3912    0.0000 C   0  0  0  0  0  0  0  0  0  0  0  0
   -2.2868    0.6767    0.0000 C   0  0  0  0  0  0  0  0  0  0  0  0
   -3.1118    0.6767    0.0000 C   0  0  0  0  0  0  0  0  0  0  0  0
   -3.5243    1.3912    0.0000 N   0  0  0  0  0  0  0  0  0  0  0  0
   -3.1118    2.1057    0.0000 C   0  0  0  0  0  0  0  0  0  0  0  0
   -2.2868    2.1057    0.0000 C   0  0  0  0  0  0  0  0  0  0  0  0
   -4.3493    1.3912    0.0000 C   0  0  0  0  0  0  0  0  0  0  0  0
   -4.7618    2.1057    0.0000 C   0  0  0  0  0  0  0  0  0  0  0  0
   -4.7618    0.6767    0.0000 C   0  0  0  0  0  0  0  0  0  0  0  0
    0.4182   -0.7753    0.0000 C   0  0  0  0  0  0  0  0  0  0  0  0
    0.9702   -1.3884    0.0000 C   0  0  0  0  0  0  0  0  0  0  0  0
    2.0743   -2.6146    0.0000 C   0  0  0  0  0  0  0  0  0  0  0  0
    2.6263   -3.2277    0.0000 C   0  0  0  0  0  0  0  0  0  0  0  0
    1.2673   -2.7861    0.0000 C   0  0  0  0  0  0  0  0  0  0  0  0
    2.3714   -4.0123    0.0000 C   0  0  0  0  0  0  0  0  0  0  0  0
    1.5644   -4.1838    0.0000 C   0  0  0  0  0  0  0  0  0  0  0  0
    1.0124   -3.5707    0.0000 C   0  0  0  0  0  0  0  0  0  0  0  0
    0.7153   -2.1730    0.0000 N   0  0  0  0  0  0  0  0  0  0  0  0
    1.7772   -1.2169    0.0000 O   0  0  0  0  0  0  0  0  0  0  0  0
    2.9234   -4.6254    0.0000 Cl  0  0  0  0  0  0  0  0  0  0  0  0
   -1.0493   -0.0377    0.0000 O   0  0  0  0  0  0  0  0  0  0  0  0
    3.7804   -0.2518    0.0000 H   0  0  0  0  0  0  0  0  0  0  0  0
    2.1722   -1.1803    0.0000 H   0  0  0  0  0  0  0  0  0  0  0  0
    2.1722    2.5337    0.0000 H   0  0  0  0  0  0  0  0  0  0  0  0
    3.7804    1.6052    0.0000 H   0  0  0  0  0  0  0  0  0  0  0  0
    0.3542    2.3257    0.0000 H   0  0  0  0  0  0  0  0  0  0  0  0
   -0.5570    2.2438    0.0000 H   0  0  0  0  0  0  0  0  0  0  0  0
   -2.9443    1.3912    0.0000 H   0  0  0  0  0  0  0  0  0  0  0  0
   -1.7518   -0.2499    0.0000 H   0  0  0  0  0  0  0  0  0  0  0  0
   -2.8218   -0.2499    0.0000 H   0  0  0  0  0  0  0  0  0  0  0  0
   -3.6468   -0.2499    0.0000 H   0  0  0  0  0  0  0  0  0  0  0  0
   -4.1818    0.6767    0.0000 H   0  0  0  0  0  0  0  0  0  0  0  0
   -3.6468    3.0323    0.0000 H   0  0  0  0  0  0  0  0  0  0  0  0
   -2.5768    3.0323    0.0000 H   0  0  0  0  0  0  0  0  0  0  0  0
   -1.7518    3.0323    0.0000 H   0  0  0  0  0  0  0  0  0  0  0  0
   -2.8218    3.0323    0.0000 H   0  0  0  0  0  0  0  0  0  0  0  0
   -5.4193    1.3912    0.0000 H   0  0  0  0  0  0  0  0  0  0  0  0
   -4.2268    3.0323    0.0000 H   0  0  0  0  0  0  0  0  0  0  0  0
   -5.8318    2.1057    0.0000 H   0  0  0  0  0  0  0  0  0  0  0  0
   -5.2968    3.0324    0.0000 H   0  0  0  0  0  0  0  0  0  0  0  0
   -5.8318    0.6767    0.0000 H   0  0  0  0  0  0  0  0  0  0  0  0
   -4.2268   -0.2499    0.0000 H   0  0  0  0  0  0  0  0  0  0  0  0
   -5.2968   -0.2500    0.0000 H   0  0  0  0  0  0  0  0  0  0  0  0
   -0.6284   -0.9978    0.0000 H   0  0  0  0  0  0  0  0  0  0  0  0
    0.0875   -1.7929    0.0000 H   0  0  0  0  0  0  0  0  0  0  0  0
    2.3932   -1.6331    0.0000 H   0  0  0  0  0  0  0  0  0  0  0  0
    3.6357   -3.0131    0.0000 H   0  0  0  0  0  0  0  0  0  0  0  0
    1.2455   -5.1653    0.0000 H   0  0  0  0  0  0  0  0  0  0  0  0
    0.0030   -3.7853    0.0000 H   0  0  0  0  0  0  0  0  0  0  0  0
   -0.2477   -2.3777    0.0000 H   0  0  0  0  0  0  0  0  0  0  0  0
  1  2  2  0  0  0  0
  1  6  1  0  0  0  0
  1 33  1  0  0  0  0
  2  3  1  0  0  0  0
  2 34  1  0  0  0  0
  3  4  2  0  0  0  0
  3  7  1  0  0  0  0
  4  5  1  0  0  0  0
  4  9  1  0  0  0  0
  5  6  2  0  0  0  0
  5 35  1  0  0  0  0
  6 36  1  0  0  0  0
  7  8  1  0  0  0  0
  7 21  1  0  0  0  0
  8  9  2  0  0  0  0
  8 10  1  0  0  0  0
  9 37  1  0  0  0  0
 10 11  1  0  0  0  0
 10 32  2  0  0  0  0
 11 12  1  0  0  0  0
 11 38  1  0  0  0  0
 12 13  1  0  0  0  0
 12 17  1  0  0  0  0
 12 39  1  0  0  0  0
 13 14  1  0  0  0  0
 13 40  1  0  0  0  0
 13 41  1  0  0  0  0
 14 15  1  0  0  0  0
 14 42  1  0  0  0  0
 14 43  1  0  0  0  0
 15 16  1  0  0  0  0
 15 18  1  0  0  0  0
 16 17  1  0  0  0  0
 16 44  1  0  0  0  0
 16 45  1  0  0  0  0
 17 46  1  0  0  0  0
 17 47  1  0  0  0  0
 18 19  1  0  0  0  0
 18 20  1  0  0  0  0
 18 48  1  0  0  0  0
 19 49  1  0  0  0  0
 19 50  1  0  0  0  0
 19 51  1  0  0  0  0
 20 52  1  0  0  0  0
 20 53  1  0  0  0  0
 20 54  1  0  0  0  0
 21 22  1  0  0  0  0
 21 55  1  0  0  0  0
 21 56  1  0  0  0  0
 22 29  1  0  0  0  0
 22 30  2  0  0  0  0
 23 24  1  0  0  0  0
 23 25  2  0  0  0  0
 23 57  1  0  0  0  0
 24 26  2  0  0  0  0
 24 58  1  0  0  0  0
 25 28  1  0  0  0  0
 25 29  1  0  0  0  0
 26 27  1  0  0  0  0
 26 31  1  0  0  0  0
 27 28  2  0  0  0  0
 27 59  1  0  0  0  0
 28 60  1  0  0  0  0
 29 61  1  0  0  0  0
M  END
>  <DRUGBANK_ID>
DB07974

>  <COMMON_NAME>
1-{2-[(4-CHLOROPHENYL)AMINO]-2-OXOETHYL}-N-(1-ISOPROPYLPIPERIDIN-4-YL)-1H-INDOLE-2-CARBOXAMIDE

$$$$
