
 OpenBabel10282417072D

 33 35  0  0  0  0  0  0  0  0999 V2000
   -0.8884    2.0924    0.0000 C   0  0  0  0  0  0  0  0  0  0  0  0
   -1.6029    1.6799    0.0000 N   0  0  0  0  0  0  0  0  0  0  0  0
   -0.8885    0.4424    0.0000 N   0  0  0  0  0  0  0  0  0  0  0  0
   -0.1740    0.8549    0.0000 C   0  0  0  0  0  0  0  0  0  0  0  0
   -0.1740    1.6799    0.0000 C   0  0  0  0  0  0  0  0  0  0  0  0
    0.6105    1.9348    0.0000 N   0  0  0  0  0  0  0  0  0  0  0  0
    1.0955    1.2673    0.0000 C   0  0  0  0  0  0  0  0  0  0  0  0
    0.6105    0.5999    0.0000 N   0  0  0  0  0  0  0  0  0  0  0  0
    0.8655   -0.1848    0.0000 C   0  0  2  0  0  0  0  0  0  0  0  0
    0.3805   -0.8521    0.0000 O   0  0  0  0  0  0  0  0  0  0  0  0
    0.8654   -1.5197    0.0000 C   0  0  2  0  0  0  0  0  0  0  0  0
    0.6104   -2.3043    0.0000 C   0  0  0  0  0  0  0  0  0  0  0  0
    1.1625   -2.9174    0.0000 O   0  0  0  0  0  0  0  0  0  0  0  0
    1.6500   -1.2647    0.0000 C   0  0  1  0  0  0  0  0  0  0  0  0
    2.3175   -1.7497    0.0000 O   0  0  0  0  0  0  0  0  0  0  0  0
    1.6501   -0.4397    0.0000 C   0  0  0  0  0  0  0  0  0  0  0  0
   -1.6030    0.8549    0.0000 C   0  0  0  0  0  0  0  0  0  0  0  0
   -2.3175    0.4424    0.0000 N   0  0  0  0  0  0  0  0  0  0  0  0
   -0.8884    2.9174    0.0000 O   0  0  0  0  0  0  0  0  0  0  0  0
    1.9205    1.2673    0.0000 O   0  0  0  0  0  0  0  0  0  0  0  0
   -2.4555    2.1722    0.0000 H   0  0  0  0  0  0  0  0  0  0  0  0
   -0.1913   -0.0173    0.0000 H   0  0  0  0  0  0  0  0  0  0  0  0
   -0.1914   -1.6870    0.0000 H   0  0  0  0  0  0  0  0  0  0  0  0
   -0.4362   -2.5268    0.0000 H   0  0  0  0  0  0  0  0  0  0  0  0
    0.2798   -3.3219    0.0000 H   0  0  0  0  0  0  0  0  0  0  0  0
    0.8628   -3.8399    0.0000 H   0  0  0  0  0  0  0  0  0  0  0  0
    1.4826   -2.3215    0.0000 H   0  0  0  0  0  0  0  0  0  0  0  0
    2.2161   -2.7144    0.0000 H   0  0  0  0  0  0  0  0  0  0  0  0
    2.5158    0.1892    0.0000 H   0  0  0  0  0  0  0  0  0  0  0  0
    2.6034   -0.9255    0.0000 H   0  0  0  0  0  0  0  0  0  0  0  0
   -3.1701    0.9347    0.0000 H   0  0  0  0  0  0  0  0  0  0  0  0
   -2.3175   -0.5421    0.0000 H   0  0  0  0  0  0  0  0  0  0  0  0
    2.3890    0.4558    0.0000 H   0  0  0  0  0  0  0  0  0  0  0  0
  1  2  1  0  0  0  0
  1  5  1  0  0  0  0
  2 17  1  0  0  0  0
  2 21  1  0  0  0  0
  3  4  1  0  0  0  0
  4  5  2  0  0  0  0
  4  8  1  0  0  0  0
  5  6  1  0  0  0  0
  6  7  2  0  0  0  0
  7  8  1  0  0  0  0
  7 20  1  0  0  0  0
  9  8  1  0  0  0  0
  9 10  1  0  0  0  0
  9 16  1  0  0  0  0
  9 22  1  6  0  0  0
 10 11  1  0  0  0  0
 11 12  1  0  0  0  0
 11 14  1  0  0  0  0
 11 23  1  6  0  0  0
 12 13  1  0  0  0  0
 12 24  1  0  0  0  0
 12 25  1  0  0  0  0
 13 26  1  0  0  0  0
 14 15  1  0  0  0  0
 14 16  1  0  0  0  0
 14 27  1  1  0  0  0
 15 28  1  0  0  0  0
 16 29  1  0  0  0  0
 16 30  1  0  0  0  0
 17  3  2  0  0  0  0
 17 18  1  0  0  0  0
 18 31  1  0  0  0  0
 18 32  1  0  0  0  0
 19  1  2  0  0  0  0
 20 33  1  0  0  0  0
M  END
>  <DRUGBANK_ID>
DB02502

>  <SECONDARY_ACCESSION_NUMBERS>
EXPT00333

>  <COMMON_NAME>
8-hydroxy-2'-deoxyguanosine

>  <CAS_NUMBER>
88847-89-6

>  <UNII>
4RGB38T3IB

>  <SYNONYMS>
8-Hydroxydeoxyguanosine; 8-OHdG; 8-Oxo-7,8-dihydro-2'-deoxyguanosine; 8-Oxo-dG; 8-Oxoguanosine

$$$$
