
 OpenBabel10282417072D

 53 54  0  0  0  0  0  0  0  0999 V2000
    6.0696    1.0607    0.0000 C   0  0  0  0  0  0  0  0  0  0  0  0
    5.3552    0.6482    0.0000 C   0  0  0  0  0  0  0  0  0  0  0  0
    5.3552   -0.1768    0.0000 C   0  0  0  0  0  0  0  0  0  0  0  0
    6.0696   -0.5893    0.0000 C   0  0  0  0  0  0  0  0  0  0  0  0
    6.7841   -0.1768    0.0000 C   0  0  0  0  0  0  0  0  0  0  0  0
    6.7841    0.6482    0.0000 C   0  0  0  0  0  0  0  0  0  0  0  0
    7.5810    0.8617    0.0000 Cl  0  0  0  0  0  0  0  0  0  0  0  0
    7.5810   -0.3903    0.0000 Cl  0  0  0  0  0  0  0  0  0  0  0  0
    6.0696   -1.4143    0.0000 C   0  0  3  0  0  0  0  0  0  0  0  0
    5.3552   -1.8268    0.0000 C   0  0  0  0  0  0  0  0  0  0  0  0
    4.6407   -1.4143    0.0000 C   0  0  0  0  0  0  0  0  0  0  0  0
    3.9262   -1.8268    0.0000 O   0  0  0  0  0  0  0  0  0  0  0  0
    3.2118   -1.4143    0.0000 C   0  0  0  0  0  0  0  0  0  0  0  0
    4.6407   -0.5893    0.0000 O   0  0  0  0  0  0  0  0  0  0  0  0
    5.3552   -2.6518    0.0000 C   0  0  0  0  0  0  0  0  0  0  0  0
    6.0696   -3.0643    0.0000 N   0  0  0  0  0  0  0  0  0  0  0  0
    6.7841   -2.6518    0.0000 C   0  0  0  0  0  0  0  0  0  0  0  0
    6.7841   -1.8268    0.0000 C   0  0  0  0  0  0  0  0  0  0  0  0
    4.7718   -3.2352    0.0000 C   0  0  0  0  0  0  0  0  0  0  0  0
    7.3675   -3.2352    0.0000 C   0  0  0  0  0  0  0  0  0  0  0  0
    7.4986   -1.4143    0.0000 C   0  0  0  0  0  0  0  0  0  0  0  0
    8.2130   -1.8268    0.0000 O   0  0  0  0  0  0  0  0  0  0  0  0
    8.9275   -1.4143    0.0000 C   0  0  0  0  0  0  0  0  0  0  0  0
    9.6420   -1.8268    0.0000 O   0  0  0  0  0  0  0  0  0  0  0  0
   10.3565   -1.4143    0.0000 C   0  0  0  0  0  0  0  0  0  0  0  0
   11.0709   -1.8268    0.0000 C   0  0  0  0  0  0  0  0  0  0  0  0
   11.7854   -1.4143    0.0000 C   0  0  0  0  0  0  0  0  0  0  0  0
   12.4999   -1.8268    0.0000 C   0  0  0  0  0  0  0  0  0  0  0  0
   10.3565   -0.5893    0.0000 O   0  0  0  0  0  0  0  0  0  0  0  0
    7.5134   -0.9134    0.0000 O   0  0  0  0  0  0  0  0  0  0  0  0
    6.0696    2.0927    0.0000 H   0  0  0  0  0  0  0  0  0  0  0  0
    4.4615    1.1642    0.0000 H   0  0  0  0  0  0  0  0  0  0  0  0
    4.4615   -0.6928    0.0000 H   0  0  0  0  0  0  0  0  0  0  0  0
    5.1429   -0.8793    0.0000 H   0  0  0  0  0  0  0  0  0  0  0  0
    3.2118   -0.3443    0.0000 H   0  0  0  0  0  0  0  0  0  0  0  0
    2.2851   -1.9493    0.0000 H   0  0  0  0  0  0  0  0  0  0  0  0
    2.2852   -0.8793    0.0000 H   0  0  0  0  0  0  0  0  0  0  0  0
    6.0696   -4.0488    0.0000 H   0  0  0  0  0  0  0  0  0  0  0  0
    3.7383   -2.9583    0.0000 H   0  0  0  0  0  0  0  0  0  0  0  0
    5.0487   -4.2687    0.0000 H   0  0  0  0  0  0  0  0  0  0  0  0
    4.0152   -3.9918    0.0000 H   0  0  0  0  0  0  0  0  0  0  0  0
    7.0906   -4.2687    0.0000 H   0  0  0  0  0  0  0  0  0  0  0  0
    8.4010   -2.9583    0.0000 H   0  0  0  0  0  0  0  0  0  0  0  0
    8.1241   -3.9918    0.0000 H   0  0  0  0  0  0  0  0  0  0  0  0
    8.9275   -0.3443    0.0000 H   0  0  0  0  0  0  0  0  0  0  0  0
    9.8541   -0.8793    0.0000 H   0  0  0  0  0  0  0  0  0  0  0  0
   11.0709   -2.8968    0.0000 H   0  0  0  0  0  0  0  0  0  0  0  0
   11.9975   -2.3618    0.0000 H   0  0  0  0  0  0  0  0  0  0  0  0
   11.7854   -0.3443    0.0000 H   0  0  0  0  0  0  0  0  0  0  0  0
   12.7120   -0.8793    0.0000 H   0  0  0  0  0  0  0  0  0  0  0  0
   12.4999   -2.8968    0.0000 H   0  0  0  0  0  0  0  0  0  0  0  0
   13.4265   -1.2918    0.0000 H   0  0  0  0  0  0  0  0  0  0  0  0
   13.4266   -2.3618    0.0000 H   0  0  0  0  0  0  0  0  0  0  0  0
  1  2  2  0  0  0  0
  1  6  1  0  0  0  0
  1 31  1  0  0  0  0
  2  3  1  0  0  0  0
  2 32  1  0  0  0  0
  3  4  2  0  0  0  0
  3 33  1  0  0  0  0
  4  5  1  0  0  0  0
  4  9  1  0  0  0  0
  5  6  2  0  0  0  0
  5  8  1  0  0  0  0
  6  7  1  0  0  0  0
  9 10  1  0  0  0  0
  9 18  1  0  0  0  0
  9 34  1  0  0  0  0
 10 11  1  0  0  0  0
 10 15  2  0  0  0  0
 11 12  1  0  0  0  0
 11 14  2  0  0  0  0
 12 13  1  0  0  0  0
 13 35  1  0  0  0  0
 13 36  1  0  0  0  0
 13 37  1  0  0  0  0
 15 16  1  0  0  0  0
 15 19  1  0  0  0  0
 16 17  1  0  0  0  0
 16 38  1  0  0  0  0
 17 18  2  0  0  0  0
 17 20  1  0  0  0  0
 18 21  1  0  0  0  0
 19 39  1  0  0  0  0
 19 40  1  0  0  0  0
 19 41  1  0  0  0  0
 20 42  1  0  0  0  0
 20 43  1  0  0  0  0
 20 44  1  0  0  0  0
 21 22  1  0  0  0  0
 21 30  2  0  0  0  0
 22 23  1  0  0  0  0
 23 24  1  0  0  0  0
 23 45  1  0  0  0  0
 23 46  1  0  0  0  0
 24 25  1  0  0  0  0
 25 26  1  0  0  0  0
 25 29  2  0  0  0  0
 26 27  1  0  0  0  0
 26 47  1  0  0  0  0
 26 48  1  0  0  0  0
 27 28  1  0  0  0  0
 27 49  1  0  0  0  0
 27 50  1  0  0  0  0
 28 51  1  0  0  0  0
 28 52  1  0  0  0  0
 28 53  1  0  0  0  0
M  END
>  <DRUGBANK_ID>
DB04920

>  <COMMON_NAME>
Clevidipine

>  <CAS_NUMBER>
167221-71-8

>  <UNII>
19O2GP3B7Q

>  <SYNONYMS>
Clevidipine; Clevidipine butyrate; Clevidipino

$$$$
