
 OpenBabel10282417072D

 57 60  0  0  0  0  0  0  0  0999 V2000
   -1.4997    1.4439    0.0000 C   0  0  0  0  0  0  0  0  0  0  0  0
   -1.4997    0.6189    0.0000 C   0  0  0  0  0  0  0  0  0  0  0  0
   -0.7835    0.2064    0.0000 C   0  0  0  0  0  0  0  0  0  0  0  0
   -0.0715    0.6189    0.0000 C   0  0  0  0  0  0  0  0  0  0  0  0
   -0.0715    1.4439    0.0000 C   0  0  0  0  0  0  0  0  0  0  0  0
   -0.7835    1.8564    0.0000 N   0  0  0  0  0  0  0  0  0  0  0  0
   -2.0824    0.0267    0.0000 C   0  0  0  0  0  0  0  0  0  0  0  0
   -2.9134    0.0267    0.0000 C   0  0  0  0  0  0  0  0  0  0  0  0
   -2.0824    2.0301    0.0000 C   0  0  0  0  0  0  0  0  0  0  0  0
   -3.4996    0.6164    0.0000 C   0  0  0  0  0  0  0  0  0  0  0  0
   -2.9134    2.0301    0.0000 C   0  0  0  0  0  0  0  0  0  0  0  0
   -3.4996    1.4439    0.0000 C   0  0  0  0  0  0  0  0  0  0  0  0
    0.6432    1.8559    0.0000 N   0  0  0  0  0  0  0  0  0  0  0  0
   -0.7825   -0.6185    0.0000 C   0  0  0  0  0  0  0  0  0  0  0  0
   -1.4958   -1.0309    0.0000 C   0  0  0  0  0  0  0  0  0  0  0  0
   -1.4948   -1.8559    0.0000 C   0  0  0  0  0  0  0  0  0  0  0  0
   -0.7798   -2.2675    0.0000 C   0  0  0  0  0  0  0  0  0  0  0  0
   -0.0658   -1.8541    0.0000 C   0  0  0  0  0  0  0  0  0  0  0  0
   -0.0669   -1.0291    0.0000 C   0  0  0  0  0  0  0  0  0  0  0  0
   -0.7787   -3.0925    0.0000 F   0  0  0  0  0  0  0  0  0  0  0  0
    1.3553    1.4425    0.0000 C   0  0  0  0  0  0  0  0  0  0  0  0
    2.0701    1.8545    0.0000 C   0  0  0  0  0  0  0  0  0  0  0  0
    2.0706    2.6795    0.0000 N   0  0  0  0  0  0  0  0  0  0  0  0
    1.3566    3.0925    0.0000 C   0  0  0  0  0  0  0  0  0  0  0  0
    0.6418    2.6806    0.0000 C   0  0  0  0  0  0  0  0  0  0  0  0
    2.7854    3.0915    0.0000 C   0  0  0  0  0  0  0  0  0  0  0  0
    3.4996    2.6784    0.0000 C   0  0  0  0  0  0  0  0  0  0  0  0
    0.8226    0.1036    0.0000 H   0  0  0  0  0  0  0  0  0  0  0  0
   -1.6689   -0.9602    0.0000 H   0  0  0  0  0  0  0  0  0  0  0  0
   -2.6751   -0.8642    0.0000 H   0  0  0  0  0  0  0  0  0  0  0  0
   -3.3243   -0.9612    0.0000 H   0  0  0  0  0  0  0  0  0  0  0  0
   -3.9633   -0.1797    0.0000 H   0  0  0  0  0  0  0  0  0  0  0  0
   -1.6714    3.0180    0.0000 H   0  0  0  0  0  0  0  0  0  0  0  0
   -2.6762    2.9202    0.0000 H   0  0  0  0  0  0  0  0  0  0  0  0
   -4.4888    0.2084    0.0000 H   0  0  0  0  0  0  0  0  0  0  0  0
   -4.3888    1.2115    0.0000 H   0  0  0  0  0  0  0  0  0  0  0  0
   -3.3229    3.0187    0.0000 H   0  0  0  0  0  0  0  0  0  0  0  0
   -3.9628    2.2388    0.0000 H   0  0  0  0  0  0  0  0  0  0  0  0
   -4.4882    1.8534    0.0000 H   0  0  0  0  0  0  0  0  0  0  0  0
   -3.7083    2.4933    0.0000 H   0  0  0  0  0  0  0  0  0  0  0  0
   -2.3900   -0.5157    0.0000 H   0  0  0  0  0  0  0  0  0  0  0  0
   -2.3879   -2.3730    0.0000 H   0  0  0  0  0  0  0  0  0  0  0  0
    0.8286   -2.3690    0.0000 H   0  0  0  0  0  0  0  0  0  0  0  0
    0.8258   -0.5113    0.0000 H   0  0  0  0  0  0  0  0  0  0  0  0
    1.3536    0.3725    0.0000 H   0  0  0  0  0  0  0  0  0  0  0  0
    2.2813    0.9064    0.0000 H   0  0  0  0  0  0  0  0  0  0  0  0
    2.9964    1.3189    0.0000 H   0  0  0  0  0  0  0  0  0  0  0  0
    2.9971    2.3889    0.0000 H   0  0  0  0  0  0  0  0  0  0  0  0
    1.3575    4.1625    0.0000 H   0  0  0  0  0  0  0  0  0  0  0  0
    0.4304    3.6283    0.0000 H   0  0  0  0  0  0  0  0  0  0  0  0
   -0.2851    3.2152    0.0000 H   0  0  0  0  0  0  0  0  0  0  0  0
   -0.2843    2.1446    0.0000 H   0  0  0  0  0  0  0  0  0  0  0  0
    2.7862    4.1615    0.0000 H   0  0  0  0  0  0  0  0  0  0  0  0
    3.7125    3.6258    0.0000 H   0  0  0  0  0  0  0  0  0  0  0  0
    3.4988    1.6084    0.0000 H   0  0  0  0  0  0  0  0  0  0  0  0
    4.4267    3.2127    0.0000 H   0  0  0  0  0  0  0  0  0  0  0  0
    4.4258    2.1427    0.0000 H   0  0  0  0  0  0  0  0  0  0  0  0
  1  2  2  0  0  0  0
  1  9  1  0  0  0  0
  2  3  1  0  0  0  0
  2  7  1  0  0  0  0
  3 14  1  0  0  0  0
  3  4  2  0  0  0  0
  4  5  1  0  0  0  0
  4 28  1  0  0  0  0
  5 13  1  0  0  0  0
  5  6  2  0  0  0  0
  6  1  1  0  0  0  0
  7  8  1  0  0  0  0
  7 29  1  0  0  0  0
  7 30  1  0  0  0  0
  8 10  1  0  0  0  0
  8 31  1  0  0  0  0
  8 32  1  0  0  0  0
  9 11  1  0  0  0  0
  9 33  1  0  0  0  0
  9 34  1  0  0  0  0
 10 12  1  0  0  0  0
 10 35  1  0  0  0  0
 10 36  1  0  0  0  0
 11 12  1  0  0  0  0
 11 37  1  0  0  0  0
 11 38  1  0  0  0  0
 12 39  1  0  0  0  0
 12 40  1  0  0  0  0
 13 21  1  0  0  0  0
 14 15  2  0  0  0  0
 15 16  1  0  0  0  0
 15 41  1  0  0  0  0
 16 17  2  0  0  0  0
 16 42  1  0  0  0  0
 17 18  1  0  0  0  0
 17 20  1  0  0  0  0
 18 19  2  0  0  0  0
 18 43  1  0  0  0  0
 19 14  1  0  0  0  0
 19 44  1  0  0  0  0
 21 22  1  0  0  0  0
 21 45  1  0  0  0  0
 21 46  1  0  0  0  0
 22 23  1  0  0  0  0
 22 47  1  0  0  0  0
 22 48  1  0  0  0  0
 23 24  1  0  0  0  0
 23 26  1  0  0  0  0
 24 25  1  0  0  0  0
 24 49  1  0  0  0  0
 24 50  1  0  0  0  0
 25 13  1  0  0  0  0
 25 51  1  0  0  0  0
 25 52  1  0  0  0  0
 26 27  1  0  0  0  0
 26 53  1  0  0  0  0
 26 54  1  0  0  0  0
 27 55  1  0  0  0  0
 27 56  1  0  0  0  0
 27 57  1  0  0  0  0
M  END
>  <DRUGBANK_ID>
DB09223

>  <COMMON_NAME>
Blonanserin

>  <CAS_NUMBER>
132810-10-7

>  <UNII>
AQ316B4F8C

>  <SYNONYMS>
Blonanserin

$$$$
