X99
 OpenBabel10282417072D

 50 53  0  0  0  0  0  0  0  0999 V2000
    0.1998    0.1513    0.0000 C   0  0  0  0  0  0  0  0  0  0  0  0
   -0.2127    0.8658    0.0000 O   0  0  0  0  0  0  0  0  0  0  0  0
    1.0248    0.1513    0.0000 C   0  0  0  0  0  0  0  0  0  0  0  0
    1.4373    0.8658    0.0000 C   0  0  0  0  0  0  0  0  0  0  0  0
    2.2623    0.8658    0.0000 N   0  0  0  0  0  0  0  0  0  0  0  0
    2.7472    0.1983    0.0000 C   0  0  0  0  0  0  0  0  0  0  0  0
    2.7472    1.5332    0.0000 C   0  0  0  0  0  0  0  0  0  0  0  0
    2.4923   -0.5863    0.0000 O   0  0  0  0  0  0  0  0  0  0  0  0
    2.4923    2.3178    0.0000 O   0  0  0  0  0  0  0  0  0  0  0  0
    3.5318    0.4533    0.0000 C   0  0  0  0  0  0  0  0  0  0  0  0
    4.2463    0.0408    0.0000 C   0  0  0  0  0  0  0  0  0  0  0  0
    4.9608    0.4533    0.0000 C   0  0  0  0  0  0  0  0  0  0  0  0
    4.9608    1.2783    0.0000 C   0  0  0  0  0  0  0  0  0  0  0  0
    4.2463    1.6908    0.0000 C   0  0  0  0  0  0  0  0  0  0  0  0
    3.5318    1.2783    0.0000 C   0  0  0  0  0  0  0  0  0  0  0  0
   -0.2127   -0.5632    0.0000 N   0  0  0  0  0  0  0  0  0  0  0  0
    0.1229   -1.3169    0.0000 C   0  0  0  0  0  0  0  0  0  0  0  0
   -1.0332   -0.6494    0.0000 C   0  0  1  0  0  0  0  0  0  0  0  0
   -1.2047   -1.4564    0.0000 C   0  0  0  0  0  0  0  0  0  0  0  0
   -0.4902   -1.8689    0.0000 C   0  0  0  0  0  0  0  0  0  0  0  0
   -1.5852   -0.0363    0.0000 C   0  0  0  0  0  0  0  0  0  0  0  0
   -1.3303    0.7483    0.0000 O   0  0  0  0  0  0  0  0  0  0  0  0
   -0.8179   -2.6260    0.0000 F   0  0  0  0  0  0  0  0  0  0  0  0
   -0.0123   -2.5414    0.0000 F   0  0  0  0  0  0  0  0  0  0  0  0
   -2.3922   -0.2078    0.0000 N   0  0  0  0  0  0  0  0  0  0  0  0
   -2.7277   -0.9615    0.0000 C   0  0  0  0  0  0  0  0  0  0  0  0
   -3.0053    0.3442    0.0000 C   0  0  0  0  0  0  0  0  0  0  0  0
   -3.7198   -0.0683    0.0000 C   0  0  0  0  0  0  0  0  0  0  0  0
   -3.5482   -0.8753    0.0000 C   0  0  0  0  0  0  0  0  0  0  0  0
   -0.8239   -0.1043    0.0000 H   0  0  0  0  0  0  0  0  0  0  0  0
    1.5598   -0.7753    0.0000 H   0  0  0  0  0  0  0  0  0  0  0  0
    2.0948    0.1513    0.0000 H   0  0  0  0  0  0  0  0  0  0  0  0
    0.9023    1.7924    0.0000 H   0  0  0  0  0  0  0  0  0  0  0  0
    1.9723    1.7924    0.0000 H   0  0  0  0  0  0  0  0  0  0  0  0
    4.2463   -0.9912    0.0000 H   0  0  0  0  0  0  0  0  0  0  0  0
    5.8545   -0.0627    0.0000 H   0  0  0  0  0  0  0  0  0  0  0  0
    5.8545    1.7943    0.0000 H   0  0  0  0  0  0  0  0  0  0  0  0
    4.2463    2.7228    0.0000 H   0  0  0  0  0  0  0  0  0  0  0  0
    1.1695   -1.5394    0.0000 H   0  0  0  0  0  0  0  0  0  0  0  0
    0.3998   -2.3504    0.0000 H   0  0  0  0  0  0  0  0  0  0  0  0
   -2.1822   -1.8916    0.0000 H   0  0  0  0  0  0  0  0  0  0  0  0
   -1.2607   -2.5249    0.0000 H   0  0  0  0  0  0  0  0  0  0  0  0
   -2.1926   -1.8881    0.0000 H   0  0  0  0  0  0  0  0  0  0  0  0
   -3.3104   -1.8589    0.0000 H   0  0  0  0  0  0  0  0  0  0  0  0
   -2.8935    1.4083    0.0000 H   0  0  0  0  0  0  0  0  0  0  0  0
   -3.9027    0.9270    0.0000 H   0  0  0  0  0  0  0  0  0  0  0  0
   -4.6973    0.3669    0.0000 H   0  0  0  0  0  0  0  0  0  0  0  0
   -4.5513   -0.7417    0.0000 H   0  0  0  0  0  0  0  0  0  0  0  0
   -4.2641   -1.6705    0.0000 H   0  0  0  0  0  0  0  0  0  0  0  0
   -4.5818   -0.5984    0.0000 H   0  0  0  0  0  0  0  0  0  0  0  0
  1  3  1  0  0  0  0
  1 16  1  0  0  0  0
  2  1  2  0  0  0  0
  3 31  1  0  0  0  0
  3 32  1  0  0  0  0
  4  3  1  0  0  0  0
  4  5  1  0  0  0  0
  4 33  1  0  0  0  0
  4 34  1  0  0  0  0
  5  6  1  0  0  0  0
  5  7  1  0  0  0  0
  6 10  1  0  0  0  0
  7 15  1  0  0  0  0
  8  6  2  0  0  0  0
  9  7  2  0  0  0  0
 10 15  2  0  0  0  0
 10 11  1  0  0  0  0
 11 12  2  0  0  0  0
 11 35  1  0  0  0  0
 12 13  1  0  0  0  0
 12 36  1  0  0  0  0
 13 37  1  0  0  0  0
 14 13  2  0  0  0  0
 14 38  1  0  0  0  0
 15 14  1  0  0  0  0
 16 17  1  0  0  0  0
 17 39  1  0  0  0  0
 17 40  1  0  0  0  0
 18 16  1  0  0  0  0
 18 19  1  0  0  0  0
 18 30  1  6  0  0  0
 18 21  1  0  0  0  0
 19 20  1  0  0  0  0
 19 41  1  0  0  0  0
 19 42  1  0  0  0  0
 20 17  1  0  0  0  0
 20 23  1  0  0  0  0
 21 22  2  0  0  0  0
 21 25  1  0  0  0  0
 24 20  1  0  0  0  0
 25 26  1  0  0  0  0
 25 27  1  0  0  0  0
 26 29  1  0  0  0  0
 26 43  1  0  0  0  0
 26 44  1  0  0  0  0
 27 28  1  0  0  0  0
 27 45  1  0  0  0  0
 27 46  1  0  0  0  0
 28 29  1  0  0  0  0
 28 47  1  0  0  0  0
 28 48  1  0  0  0  0
 29 49  1  0  0  0  0
 29 50  1  0  0  0  0
M  END
>  <DRUGBANK_ID>
DB08739

>  <COMMON_NAME>
2-{3-[(2S)-4,4-difluoro-2-(pyrrolidin-1-ylcarbonyl)pyrrolidin-1-yl]-3-oxopropyl}-isoindole-1,3(2H)-dione

$$$$
