455
 OpenBabel10282417072D

 50 53  0  0  0  0  0  0  0  0999 V2000
    1.6500    2.6662    0.0000 Cl  0  0  0  0  0  0  0  0  0  0  0  0
    5.5304   -2.1411    0.0000 O   0  0  0  0  0  0  0  0  0  0  0  0
    4.1014   -2.1411    0.0000 O   0  0  0  0  0  0  0  0  0  0  0  0
    4.8159   -0.9036    0.0000 N   0  0  0  0  0  0  0  0  0  0  0  0
    6.1801    1.3352    0.0000 N   0  0  0  0  0  0  0  0  0  0  0  0
    4.8159    0.7464    0.0000 C   0  0  0  0  0  0  0  0  0  0  0  0
    5.5304    0.3339    0.0000 C   0  0  0  0  0  0  0  0  0  0  0  0
    4.1014    0.3339    0.0000 C   0  0  0  0  0  0  0  0  0  0  0  0
    4.8159    1.5714    0.0000 C   0  0  0  0  0  0  0  0  0  0  0  0
    5.5304   -0.4911    0.0000 C   0  0  0  0  0  0  0  0  0  0  0  0
    4.1014   -0.4911    0.0000 C   0  0  0  0  0  0  0  0  0  0  0  0
    4.0727    1.9294    0.0000 C   0  0  0  0  0  0  0  0  0  0  0  0
    5.5592    1.9294    0.0000 C   0  0  0  0  0  0  0  0  0  0  0  0
    3.8890    2.7337    0.0000 C   0  0  0  0  0  0  0  0  0  0  0  0
    4.4034    3.3787    0.0000 C   0  0  0  0  0  0  0  0  0  0  0  0
    5.2284    3.3787    0.0000 C   0  0  0  0  0  0  0  0  0  0  0  0
    5.7428    2.7337    0.0000 C   0  0  0  0  0  0  0  0  0  0  0  0
    3.4518    1.3352    0.0000 C   0  0  0  0  0  0  0  0  0  0  0  0
    4.8159   -1.7286    0.0000 C   0  0  0  0  0  0  0  0  0  0  0  0
    3.0718    2.9996    0.0000 C   0  0  0  0  0  0  0  0  0  0  0  0
    6.5600    2.9996    0.0000 C   0  0  0  0  0  0  0  0  0  0  0  0
    2.6286    1.5822    0.0000 C   0  0  0  0  0  0  0  0  0  0  0  0
    2.4374    2.4200    0.0000 C   0  0  0  0  0  0  0  0  0  0  0  0
    7.1944    2.4199    0.0000 C   0  0  0  0  0  0  0  0  0  0  0  0
    7.0032    1.5821    0.0000 C   0  0  0  0  0  0  0  0  0  0  0  0
    5.5304   -2.9662    0.0000 C   0  0  0  0  0  0  0  0  0  0  0  0
    6.2448   -3.3787    0.0000 C   0  0  0  0  0  0  0  0  0  0  0  0
    6.4570    0.8689    0.0000 H   0  0  0  0  0  0  0  0  0  0  0  0
    6.4570   -0.2011    0.0000 H   0  0  0  0  0  0  0  0  0  0  0  0
    3.1748    0.8689    0.0000 H   0  0  0  0  0  0  0  0  0  0  0  0
    3.1748   -0.2011    0.0000 H   0  0  0  0  0  0  0  0  0  0  0  0
    6.4570   -1.0261    0.0000 H   0  0  0  0  0  0  0  0  0  0  0  0
    6.4570    0.0439    0.0000 H   0  0  0  0  0  0  0  0  0  0  0  0
    3.1748   -1.0261    0.0000 H   0  0  0  0  0  0  0  0  0  0  0  0
    3.1748    0.0439    0.0000 H   0  0  0  0  0  0  0  0  0  0  0  0
    3.9392    4.3427    0.0000 H   0  0  0  0  0  0  0  0  0  0  0  0
    4.9727    4.2847    0.0000 H   0  0  0  0  0  0  0  0  0  0  0  0
    5.6926    4.3427    0.0000 H   0  0  0  0  0  0  0  0  0  0  0  0
    6.2917    3.4985    0.0000 H   0  0  0  0  0  0  0  0  0  0  0  0
    3.6931    0.3318    0.0000 H   0  0  0  0  0  0  0  0  0  0  0  0
    2.8538    4.0083    0.0000 H   0  0  0  0  0  0  0  0  0  0  0  0
    6.7781    4.0083    0.0000 H   0  0  0  0  0  0  0  0  0  0  0  0
    1.8748    0.8774    0.0000 H   0  0  0  0  0  0  0  0  0  0  0  0
    8.1794    2.7279    0.0000 H   0  0  0  0  0  0  0  0  0  0  0  0
    7.7570    0.8772    0.0000 H   0  0  0  0  0  0  0  0  0  0  0  0
    4.6037   -3.5012    0.0000 H   0  0  0  0  0  0  0  0  0  0  0  0
    5.5304   -4.0362    0.0000 H   0  0  0  0  0  0  0  0  0  0  0  0
    6.2448   -4.4487    0.0000 H   0  0  0  0  0  0  0  0  0  0  0  0
    7.1715   -2.8437    0.0000 H   0  0  0  0  0  0  0  0  0  0  0  0
    7.1714   -3.9137    0.0000 H   0  0  0  0  0  0  0  0  0  0  0  0
  1 23  1  0  0  0  0
  2 19  1  0  0  0  0
  2 26  1  0  0  0  0
  3 19  2  0  0  0  0
  4 10  1  0  0  0  0
  4 11  1  0  0  0  0
  4 19  1  0  0  0  0
  5 13  1  0  0  0  0
  5 25  2  0  0  0  0
  6  7  1  0  0  0  0
  6  8  1  0  0  0  0
  6  9  2  0  0  0  0
  7 10  1  0  0  0  0
  7 28  1  0  0  0  0
  7 29  1  0  0  0  0
  8 11  1  0  0  0  0
  8 30  1  0  0  0  0
  8 31  1  0  0  0  0
  9 12  1  0  0  0  0
  9 13  1  0  0  0  0
 10 32  1  0  0  0  0
 10 33  1  0  0  0  0
 11 34  1  0  0  0  0
 11 35  1  0  0  0  0
 12 14  2  0  0  0  0
 12 18  1  0  0  0  0
 13 17  2  0  0  0  0
 14 15  1  0  0  0  0
 14 20  1  0  0  0  0
 15 16  1  0  0  0  0
 15 36  1  0  0  0  0
 15 37  1  0  0  0  0
 16 17  1  0  0  0  0
 16 38  1  0  0  0  0
 16 39  1  0  0  0  0
 17 21  1  0  0  0  0
 18 22  2  0  0  0  0
 18 40  1  0  0  0  0
 20 23  2  0  0  0  0
 20 41  1  0  0  0  0
 21 24  2  0  0  0  0
 21 42  1  0  0  0  0
 22 23  1  0  0  0  0
 22 43  1  0  0  0  0
 24 25  1  0  0  0  0
 24 44  1  0  0  0  0
 25 45  1  0  0  0  0
 26 27  1  0  0  0  0
 26 46  1  0  0  0  0
 26 47  1  0  0  0  0
 27 48  1  0  0  0  0
 27 49  1  0  0  0  0
 27 50  1  0  0  0  0
M  END
>  <DRUGBANK_ID>
DB00455

>  <SECONDARY_ACCESSION_NUMBERS>
APRD00384

>  <COMMON_NAME>
Loratadine

>  <CAS_NUMBER>
79794-75-5

>  <UNII>
7AJO3BO7QN

>  <SYNONYMS>
Loratadina; Loratadine; Loratadinum

$$$$
