
 OpenBabel10282417072D

 96 98  0  0  1  0  0  0  0  0999 V2000
   -1.4521    4.0399    0.0000 C   0  0  0  0  0  0  0  0  0  0  0  0
   -7.1817   -0.3703    0.0000 C   0  0  0  0  0  0  0  0  0  0  0  0
   -4.4838    3.5100    0.0000 C   0  0  0  0  0  0  0  0  0  0  0  0
    0.6914    3.6274    0.0000 C   0  0  0  0  0  0  0  0  0  0  0  0
    4.9782    1.1524    0.0000 C   0  0  0  0  0  0  0  0  0  0  0  0
   -2.3541    1.0173    0.0000 C   0  0  0  0  0  0  0  0  0  0  0  0
   -0.7376    3.6274    0.0000 C   0  0  0  0  0  0  0  0  0  0  0  0
   -5.3491   -0.4985    0.0000 C   0  0  0  0  0  0  0  0  0  0  0  0
   -2.1665    3.6274    0.0000 C   0  0  0  0  0  0  0  0  0  0  0  0
   -6.3886   -0.1429    0.0000 C   0  0  0  0  0  0  0  0  0  0  0  0
   -4.7387    2.7254    0.0000 C   0  0  0  0  0  0  0  0  0  0  0  0
    1.4058    2.3899    0.0000 C   0  0  0  0  0  0  0  0  0  0  0  0
    4.2637    2.3899    0.0000 C   0  0  0  0  0  0  0  0  0  0  0  0
    2.1203    2.8024    0.0000 C   0  0  0  0  0  0  0  0  0  0  0  0
    3.5492    2.8024    0.0000 C   0  0  0  0  0  0  0  0  0  0  0  0
   -5.6078    1.9630    0.0000 C   0  0  0  0  0  0  0  0  0  0  0  0
   -6.2753    1.4780    0.0000 C   0  0  0  0  0  0  0  0  0  0  0  0
   -3.7742    1.3979    0.0000 C   0  0  0  0  0  0  0  0  0  0  0  0
    0.6914    2.8024    0.0000 C   0  0  2  0  0  0  0  0  0  0  0  0
    4.2637    1.5649    0.0000 C   0  0  0  0  0  0  0  0  0  0  0  0
   -2.9672    1.5694    0.0000 C   0  0  1  0  0  0  0  0  0  0  0  0
   -0.7376    2.8024    0.0000 C   0  0  1  0  0  0  0  0  0  0  0  0
   -5.4354    0.3220    0.0000 C   0  0  1  0  0  0  0  0  0  0  0  0
    2.8348    2.3899    0.0000 C   0  0  0  0  0  0  0  0  0  0  0  0
   -2.1665    2.8024    0.0000 C   0  0  1  0  0  0  0  0  0  0  0  0
   -4.8541    1.6274    0.0000 C   0  0  2  0  0  0  0  0  0  0  0  0
    2.8348    1.5649    0.0000 C   0  0  0  0  0  0  0  0  0  0  0  0
   -0.0231    2.3899    0.0000 C   0  0  1  0  0  0  0  0  0  0  0  0
    3.5492    1.1524    0.0000 C   0  0  0  0  0  0  0  0  0  0  0  0
   -1.4521    2.3899    0.0000 C   0  0  0  0  0  0  0  0  0  0  0  0
   -2.8810    2.3899    0.0000 C   0  0  1  0  0  0  0  0  0  0  0  0
    2.1203    1.1524    0.0000 C   0  0  0  0  0  0  0  0  0  0  0  0
   -6.1890    0.6576    0.0000 C   0  0  1  0  0  0  0  0  0  0  0  0
   -4.1867    2.1123    0.0000 C   0  0  2  0  0  0  0  0  0  0  0  0
   -0.0231    1.5649    0.0000 O   0  0  0  0  0  0  0  0  0  0  0  0
    3.5492    0.3274    0.0000 O   0  0  0  0  0  0  0  0  0  0  0  0
   -1.4521    1.5649    0.0000 O   0  0  0  0  0  0  0  0  0  0  0  0
    2.1203    0.3274    0.0000 O   0  0  0  0  0  0  0  0  0  0  0  0
    1.4058    1.5649    0.0000 O   0  0  0  0  0  0  0  0  0  0  0  0
   -7.0120    0.7151    0.0000 O   0  0  0  0  0  0  0  0  0  0  0  0
   -4.7679    0.8069    0.0000 O   0  0  0  0  0  0  0  0  0  0  0  0
   -3.6347    2.7254    0.0000 O   0  0  0  0  0  0  0  0  0  0  0  0
    1.4058    3.2149    0.0000 H   0  0  0  0  0  0  0  0  0  0  0  0
   -2.1970    1.8650    0.0000 H   0  0  0  0  0  0  0  0  0  0  0  0
   -0.0231    3.2149    0.0000 H   0  0  0  0  0  0  0  0  0  0  0  0
   -6.1028   -0.1629    0.0000 H   0  0  0  0  0  0  0  0  0  0  0  0
   -1.4521    3.2149    0.0000 H   0  0  0  0  0  0  0  0  0  0  0  0
   -4.1005    1.2918    0.0000 H   0  0  0  0  0  0  0  0  0  0  0  0
    0.6914    1.9774    0.0000 H   0  0  0  0  0  0  0  0  0  0  0  0
   -2.9242    3.2137    0.0000 H   0  0  0  0  0  0  0  0  0  0  0  0
   -0.5254    3.5049    0.0000 H   0  0  0  0  0  0  0  0  0  0  0  0
   -1.4521    5.1099    0.0000 H   0  0  0  0  0  0  0  0  0  0  0  0
   -0.5255    4.5749    0.0000 H   0  0  0  0  0  0  0  0  0  0  0  0
   -7.9514    0.3730    0.0000 H   0  0  0  0  0  0  0  0  0  0  0  0
   -7.4406   -1.4085    0.0000 H   0  0  0  0  0  0  0  0  0  0  0  0
   -8.2103   -0.6652    0.0000 H   0  0  0  0  0  0  0  0  0  0  0  0
   -3.4372    3.7325    0.0000 H   0  0  0  0  0  0  0  0  0  0  0  0
   -5.1998    4.3051    0.0000 H   0  0  0  0  0  0  0  0  0  0  0  0
   -4.1532    4.5276    0.0000 H   0  0  0  0  0  0  0  0  0  0  0  0
    1.6180    4.1624    0.0000 H   0  0  0  0  0  0  0  0  0  0  0  0
   -0.2352    4.1624    0.0000 H   0  0  0  0  0  0  0  0  0  0  0  0
    0.6914    4.6974    0.0000 H   0  0  0  0  0  0  0  0  0  0  0  0
    4.9782    0.0824    0.0000 H   0  0  0  0  0  0  0  0  0  0  0  0
    5.9048    1.6874    0.0000 H   0  0  0  0  0  0  0  0  0  0  0  0
    5.9049    0.6174    0.0000 H   0  0  0  0  0  0  0  0  0  0  0  0
   -2.5766   -0.0293    0.0000 H   0  0  0  0  0  0  0  0  0  0  0  0
   -1.3365    1.3479    0.0000 H   0  0  0  0  0  0  0  0  0  0  0  0
   -1.5590    0.3013    0.0000 H   0  0  0  0  0  0  0  0  0  0  0  0
    0.1890    4.1624    0.0000 H   0  0  0  0  0  0  0  0  0  0  0  0
   -1.6642    4.1624    0.0000 H   0  0  0  0  0  0  0  0  0  0  0  0
   -0.7376    4.6974    0.0000 H   0  0  0  0  0  0  0  0  0  0  0  0
   -6.2147   -1.1275    0.0000 H   0  0  0  0  0  0  0  0  0  0  0  0
   -4.3716   -0.9336    0.0000 H   0  0  0  0  0  0  0  0  0  0  0  0
   -5.2372   -1.5626    0.0000 H   0  0  0  0  0  0  0  0  0  0  0  0
   -3.0932    4.1624    0.0000 H   0  0  0  0  0  0  0  0  0  0  0  0
   -3.0931    3.0924    0.0000 H   0  0  0  0  0  0  0  0  0  0  0  0
   -5.6189   -0.8862    0.0000 H   0  0  0  0  0  0  0  0  0  0  0  0
   -5.3600    0.1520    0.0000 H   0  0  0  0  0  0  0  0  0  0  0  0
   -5.7853    2.5029    0.0000 H   0  0  0  0  0  0  0  0  0  0  0  0
   -5.0694    1.7078    0.0000 H   0  0  0  0  0  0  0  0  0  0  0  0
    1.4058    1.3199    0.0000 H   0  0  0  0  0  0  0  0  0  0  0  0
    0.4791    1.8549    0.0000 H   0  0  0  0  0  0  0  0  0  0  0  0
    5.1574    2.9059    0.0000 H   0  0  0  0  0  0  0  0  0  0  0  0
    2.1203    3.8724    0.0000 H   0  0  0  0  0  0  0  0  0  0  0  0
    3.0469    3.3374    0.0000 H   0  0  0  0  0  0  0  0  0  0  0  0
    3.5492    3.8344    0.0000 H   0  0  0  0  0  0  0  0  0  0  0  0
   -5.7196    3.0271    0.0000 H   0  0  0  0  0  0  0  0  0  0  0  0
   -4.7421    2.5919    0.0000 H   0  0  0  0  0  0  0  0  0  0  0  0
   -7.2528    1.9131    0.0000 H   0  0  0  0  0  0  0  0  0  0  0  0
   -7.1409    0.8490    0.0000 H   0  0  0  0  0  0  0  0  0  0  0  0
   -4.2094    0.4204    0.0000 H   0  0  0  0  0  0  0  0  0  0  0  0
   -4.8427    1.3419    0.0000 H   0  0  0  0  0  0  0  0  0  0  0  0
   -0.8631    1.0799    0.0000 H   0  0  0  0  0  0  0  0  0  0  0  0
    2.7377   -0.1411    0.0000 H   0  0  0  0  0  0  0  0  0  0  0  0
    1.4058    2.5019    0.0000 H   0  0  0  0  0  0  0  0  0  0  0  0
   -7.4373    1.5869    0.0000 H   0  0  0  0  0  0  0  0  0  0  0  0
  1 51  1  0  0  0  0
  1 52  1  0  0  0  0
  1 53  1  0  0  0  0
  2 54  1  0  0  0  0
  2 55  1  0  0  0  0
  2 56  1  0  0  0  0
  3 57  1  0  0  0  0
  3 58  1  0  0  0  0
  3 59  1  0  0  0  0
  4 60  1  0  0  0  0
  4 61  1  0  0  0  0
  4 62  1  0  0  0  0
  5 63  1  0  0  0  0
  5 64  1  0  0  0  0
  5 65  1  0  0  0  0
  6 66  1  0  0  0  0
  6 67  1  0  0  0  0
  6 68  1  0  0  0  0
  7 69  1  0  0  0  0
  7 70  1  0  0  0  0
  7 71  1  0  0  0  0
  8 72  1  0  0  0  0
  8 73  1  0  0  0  0
  8 74  1  0  0  0  0
  9  1  1  0  0  0  0
  9 75  1  0  0  0  0
  9 76  1  0  0  0  0
 10  2  1  0  0  0  0
 10 77  1  0  0  0  0
 10 78  1  0  0  0  0
 11  3  1  0  0  0  0
 11 79  1  0  0  0  0
 11 80  1  0  0  0  0
 12 81  1  0  0  0  0
 12 82  1  0  0  0  0
 13 83  1  0  0  0  0
 14 12  1  0  0  0  0
 14 84  1  0  0  0  0
 14 85  1  0  0  0  0
 15 13  2  0  0  0  0
 15 86  1  0  0  0  0
 16 87  1  0  0  0  0
 16 88  1  0  0  0  0
 17 16  1  0  0  0  0
 17 89  1  0  0  0  0
 17 90  1  0  0  0  0
 18 91  1  0  0  0  0
 18 92  1  0  0  0  0
 19  4  1  0  0  0  0
 19 12  1  0  0  0  0
 19 43  1  1  0  0  0
 20  5  1  0  0  0  0
 20 13  1  0  0  0  0
 21  6  1  0  0  0  0
 21 18  1  0  0  0  0
 21 44  1  6  0  0  0
 22  7  1  0  0  0  0
 22 45  1  6  0  0  0
 23  8  1  0  0  0  0
 23 46  1  6  0  0  0
 24 14  1  0  0  0  0
 24 15  1  0  0  0  0
 25  9  1  0  0  0  0
 25 30  1  0  0  0  0
 25 47  1  6  0  0  0
 26 16  1  0  0  0  0
 26 34  1  0  0  0  0
 26 48  1  1  0  0  0
 27 24  2  0  0  0  0
 28 19  1  0  0  0  0
 28 22  1  0  0  0  0
 28 35  1  0  0  0  0
 28 49  1  1  0  0  0
 29 20  2  0  0  0  0
 29 27  1  0  0  0  0
 30 22  1  0  0  0  0
 31 21  1  0  0  0  0
 31 25  1  0  0  0  0
 31 50  1  1  0  0  0
 32 27  1  0  0  0  0
 33 10  1  0  0  0  0
 33 17  1  0  0  0  0
 33 23  1  0  0  0  0
 33 40  1  6  0  0  0
 34 11  1  6  0  0  0
 34 18  1  0  0  0  0
 35 93  1  0  0  0  0
 36 29  1  0  0  0  0
 36 94  1  0  0  0  0
 37 30  2  0  0  0  0
 38 32  2  0  0  0  0
 39 32  1  0  0  0  0
 39 95  1  0  0  0  0
 40 96  1  0  0  0  0
 41 23  1  0  0  0  0
 41 26  1  0  0  0  0
 42 31  1  0  0  0  0
 42 34  1  0  0  0  0
M  END
>  <DRUGBANK_ID>
DB11423

>  <COMMON_NAME>
Lasalocid

>  <CAS_NUMBER>
25999-31-9

>  <UNII>
W7V2ZZ2FWB

>  <SYNONYMS>
Lasalocid

$$$$
