L0I
 OpenBabel10282417072D

 52 56  0  0  0  0  0  0  0  0999 V2000
   -3.3887   -1.3194    0.0000 O   0  0  0  0  0  0  0  0  0  0  0  0
   -2.5818   -1.4909    0.0000 C   0  0  0  0  0  0  0  0  0  0  0  0
   -2.3268   -2.2756    0.0000 N   0  0  0  0  0  0  0  0  0  0  0  0
   -2.8789   -2.8887    0.0000 C   0  0  0  0  0  0  0  0  0  0  0  0
   -3.6635   -3.1436    0.0000 C   0  0  0  0  0  0  0  0  0  0  0  0
   -3.0504   -3.6956    0.0000 C   0  0  0  0  0  0  0  0  0  0  0  0
   -2.0297   -0.8778    0.0000 N   0  0  0  0  0  0  0  0  0  0  0  0
   -2.2847   -0.0932    0.0000 C   0  0  0  0  0  0  0  0  0  0  0  0
   -3.0693    0.1617    0.0000 C   0  0  0  0  0  0  0  0  0  0  0  0
   -3.0693    0.9867    0.0000 N   0  0  0  0  0  0  0  0  0  0  0  0
   -2.2847    1.2417    0.0000 N   0  0  0  0  0  0  0  0  0  0  0  0
   -1.7997    0.5742    0.0000 C   0  0  0  0  0  0  0  0  0  0  0  0
   -0.9747    0.5742    0.0000 C   0  0  0  0  0  0  0  0  0  0  0  0
   -0.4898   -0.0932    0.0000 N   0  0  0  0  0  0  0  0  0  0  0  0
    0.2948    0.1617    0.0000 C   0  0  0  0  0  0  0  0  0  0  0  0
    1.0093   -0.2508    0.0000 C   0  0  0  0  0  0  0  0  0  0  0  0
    1.7237    0.1617    0.0000 C   0  0  0  0  0  0  0  0  0  0  0  0
    1.7237    0.9867    0.0000 C   0  0  0  0  0  0  0  0  0  0  0  0
    2.4382    1.3992    0.0000 C   0  0  0  0  0  0  0  0  0  0  0  0
    3.1527    0.9867    0.0000 N   0  3  0  0  0  0  0  0  0  0  0  0
    3.8672    1.3992    0.0000 C   0  0  0  0  0  0  0  0  0  0  0  0
    4.5816    0.9867    0.0000 C   0  0  0  0  0  0  0  0  0  0  0  0
    4.5816    0.1617    0.0000 O   0  0  0  0  0  0  0  0  0  0  0  0
    3.8672   -0.2508    0.0000 C   0  0  0  0  0  0  0  0  0  0  0  0
    3.1527    0.1617    0.0000 C   0  0  0  0  0  0  0  0  0  0  0  0
    1.0093    1.3992    0.0000 C   0  0  0  0  0  0  0  0  0  0  0  0
    0.2948    0.9867    0.0000 C   0  0  0  0  0  0  0  0  0  0  0  0
   -0.4898    1.2417    0.0000 N   0  0  0  0  0  0  0  0  0  0  0  0
   -1.3638   -2.4803    0.0000 H   0  0  0  0  0  0  0  0  0  0  0  0
   -3.5949   -3.6839    0.0000 H   0  0  0  0  0  0  0  0  0  0  0  0
   -4.7101   -2.9211    0.0000 H   0  0  0  0  0  0  0  0  0  0  0  0
   -4.1493   -4.0970    0.0000 H   0  0  0  0  0  0  0  0  0  0  0  0
   -2.7197   -4.7132    0.0000 H   0  0  0  0  0  0  0  0  0  0  0  0
   -1.9819   -3.6396    0.0000 H   0  0  0  0  0  0  0  0  0  0  0  0
   -1.0667   -1.0825    0.0000 H   0  0  0  0  0  0  0  0  0  0  0  0
   -3.9042   -0.4449    0.0000 H   0  0  0  0  0  0  0  0  0  0  0  0
   -3.8658    1.5653    0.0000 H   0  0  0  0  0  0  0  0  0  0  0  0
    1.0093   -1.2828    0.0000 H   0  0  0  0  0  0  0  0  0  0  0  0
    2.6174   -0.3543    0.0000 H   0  0  0  0  0  0  0  0  0  0  0  0
    2.4382    2.4692    0.0000 H   0  0  0  0  0  0  0  0  0  0  0  0
    3.3648    1.9342    0.0000 H   0  0  0  0  0  0  0  0  0  0  0  0
    4.0360    0.4767    0.0000 H   0  0  0  0  0  0  0  0  0  0  0  0
    3.8672    2.4692    0.0000 H   0  0  0  0  0  0  0  0  0  0  0  0
    4.7939    1.9342    0.0000 H   0  0  0  0  0  0  0  0  0  0  0  0
    5.5083    1.5217    0.0000 H   0  0  0  0  0  0  0  0  0  0  0  0
    5.5082    0.4517    0.0000 H   0  0  0  0  0  0  0  0  0  0  0  0
    3.8672   -1.3208    0.0000 H   0  0  0  0  0  0  0  0  0  0  0  0
    2.9406   -0.7858    0.0000 H   0  0  0  0  0  0  0  0  0  0  0  0
    2.2261   -0.3733    0.0000 H   0  0  0  0  0  0  0  0  0  0  0  0
    2.2261    0.6967    0.0000 H   0  0  0  0  0  0  0  0  0  0  0  0
    1.0093    2.4312    0.0000 H   0  0  0  0  0  0  0  0  0  0  0  0
   -0.7940    2.1780    0.0000 H   0  0  0  0  0  0  0  0  0  0  0  0
  2  1  2  0  0  0  0
  2  7  1  0  0  0  0
  3  2  1  0  0  0  0
  3 29  1  0  0  0  0
  4  3  1  0  0  0  0
  4 30  1  0  0  0  0
  5  4  1  0  0  0  0
  5  6  1  0  0  0  0
  5 31  1  0  0  0  0
  5 32  1  0  0  0  0
  6  4  1  0  0  0  0
  6 33  1  0  0  0  0
  6 34  1  0  0  0  0
  7  8  1  0  0  0  0
  7 35  1  0  0  0  0
  8  9  2  0  0  0  0
  9 10  1  0  0  0  0
  9 36  1  0  0  0  0
 10 37  1  0  0  0  0
 11 10  1  0  0  0  0
 12  8  1  0  0  0  0
 12 11  2  0  0  0  0
 13 12  1  0  0  0  0
 13 28  1  0  0  0  0
 14 13  2  0  0  0  0
 15 14  1  0  0  0  0
 15 27  1  0  0  0  0
 16 15  2  0  0  0  0
 16 38  1  0  0  0  0
 17 16  1  0  0  0  0
 17 18  2  0  0  0  0
 17 39  1  0  0  0  0
 18 26  1  0  0  0  0
 19 18  1  0  0  0  0
 19 40  1  0  0  0  0
 19 41  1  0  0  0  0
 20 19  1  0  0  0  0
 20 21  1  0  0  0  0
 20 42  1  0  0  0  0
 21 43  1  0  0  0  0
 21 44  1  0  0  0  0
 22 21  1  0  0  0  0
 22 45  1  0  0  0  0
 22 46  1  0  0  0  0
 23 22  1  0  0  0  0
 24 23  1  0  0  0  0
 24 25  1  0  0  0  0
 24 47  1  0  0  0  0
 24 48  1  0  0  0  0
 25 20  1  0  0  0  0
 25 49  1  0  0  0  0
 25 50  1  0  0  0  0
 26 27  2  0  0  0  0
 26 51  1  0  0  0  0
 27 28  1  0  0  0  0
 28 52  1  0  0  0  0
M  CHG  1  20   1
M  END
>  <DRUGBANK_ID>
DB08067

>  <COMMON_NAME>
4-[(2-{4-[(CYCLOPROPYLCARBAMOYL)AMINO]-1H-PYRAZOL-3-YL}-1H-BENZIMIDAZOL-6-YL)METHYL]MORPHOLIN-4-IUM

$$$$
