
 OpenBabel10282417072D

 47 49  0  0  0  0  0  0  0  0999 V2000
   -3.2151   -1.9115    0.0000 C   0  0  0  0  0  0  0  0  0  0  0  0
   -2.5006   -1.4990    0.0000 C   0  0  0  0  0  0  0  0  0  0  0  0
   -2.0881   -2.2134    0.0000 C   0  0  0  0  0  0  0  0  0  0  0  0
   -2.9131   -0.7845    0.0000 C   0  0  0  0  0  0  0  0  0  0  0  0
   -1.7861   -1.0865    0.0000 C   0  0  3  0  0  0  0  0  0  0  0  0
   -1.7861   -0.2615    0.0000 C   0  0  0  0  0  0  0  0  0  0  0  0
   -1.0717    0.1509    0.0000 C   0  0  0  0  0  0  0  0  0  0  0  0
   -0.3572   -0.2615    0.0000 C   0  0  3  0  0  0  0  0  0  0  0  0
   -0.3572   -1.0865    0.0000 C   0  0  0  0  0  0  0  0  0  0  0  0
   -1.0717   -1.4990    0.0000 C   0  0  0  0  0  0  0  0  0  0  0  0
    0.3572    0.1509    0.0000 C   0  0  0  0  0  0  0  0  0  0  0  0
    0.3572    0.9759    0.0000 C   0  0  0  0  0  0  0  0  0  0  0  0
    1.0717    1.3884    0.0000 C   0  0  0  0  0  0  0  0  0  0  0  0
    1.0717    2.2134    0.0000 O   0  0  0  0  0  0  0  0  0  0  0  0
    1.7861    0.9759    0.0000 C   0  0  0  0  0  0  0  0  0  0  0  0
    2.5006    1.3884    0.0000 C   0  0  0  0  0  0  0  0  0  0  0  0
    3.2151    0.9759    0.0000 C   0  0  0  0  0  0  0  0  0  0  0  0
    3.2151    0.1509    0.0000 C   0  0  0  0  0  0  0  0  0  0  0  0
    2.5006   -0.2615    0.0000 C   0  0  0  0  0  0  0  0  0  0  0  0
    1.7861    0.1509    0.0000 C   0  0  0  0  0  0  0  0  0  0  0  0
    1.0717   -0.2615    0.0000 C   0  0  0  0  0  0  0  0  0  0  0  0
    1.0717   -1.0865    0.0000 O   0  0  0  0  0  0  0  0  0  0  0  0
   -0.3572    1.3884    0.0000 O   0  0  0  0  0  0  0  0  0  0  0  0
   -4.1417   -1.3765    0.0000 H   0  0  0  0  0  0  0  0  0  0  0  0
   -3.2151   -2.9815    0.0000 H   0  0  0  0  0  0  0  0  0  0  0  0
   -4.1418   -2.4465    0.0000 H   0  0  0  0  0  0  0  0  0  0  0  0
   -2.6231   -3.1401    0.0000 H   0  0  0  0  0  0  0  0  0  0  0  0
   -1.0181   -2.2134    0.0000 H   0  0  0  0  0  0  0  0  0  0  0  0
   -1.5531   -3.1400    0.0000 H   0  0  0  0  0  0  0  0  0  0  0  0
   -2.3781    0.1421    0.0000 H   0  0  0  0  0  0  0  0  0  0  0  0
   -3.9831   -0.7845    0.0000 H   0  0  0  0  0  0  0  0  0  0  0  0
   -3.4481    0.1422    0.0000 H   0  0  0  0  0  0  0  0  0  0  0  0
   -2.7127   -0.5515    0.0000 H   0  0  0  0  0  0  0  0  0  0  0  0
   -2.7127    0.2735    0.0000 H   0  0  0  0  0  0  0  0  0  0  0  0
   -1.7861    0.8085    0.0000 H   0  0  0  0  0  0  0  0  0  0  0  0
   -1.0717    1.2209    0.0000 H   0  0  0  0  0  0  0  0  0  0  0  0
   -0.1451    0.6860    0.0000 H   0  0  0  0  0  0  0  0  0  0  0  0
   -1.2838   -0.7966    0.0000 H   0  0  0  0  0  0  0  0  0  0  0  0
    0.5694   -1.6215    0.0000 H   0  0  0  0  0  0  0  0  0  0  0  0
   -0.3572   -2.1565    0.0000 H   0  0  0  0  0  0  0  0  0  0  0  0
   -1.0717   -2.5690    0.0000 H   0  0  0  0  0  0  0  0  0  0  0  0
   -1.9984   -2.0340    0.0000 H   0  0  0  0  0  0  0  0  0  0  0  0
    2.5006    2.4204    0.0000 H   0  0  0  0  0  0  0  0  0  0  0  0
    4.1088    1.4919    0.0000 H   0  0  0  0  0  0  0  0  0  0  0  0
    4.1088   -0.3652    0.0000 H   0  0  0  0  0  0  0  0  0  0  0  0
    2.5006   -1.2935    0.0000 H   0  0  0  0  0  0  0  0  0  0  0  0
   -0.3572    2.3254    0.0000 H   0  0  0  0  0  0  0  0  0  0  0  0
  1  2  1  0  0  0  0
  1 24  1  0  0  0  0
  1 25  1  0  0  0  0
  1 26  1  0  0  0  0
  2  3  1  0  0  0  0
  2  4  1  0  0  0  0
  2  5  1  0  0  0  0
  3 27  1  0  0  0  0
  3 28  1  0  0  0  0
  3 29  1  0  0  0  0
  4 30  1  0  0  0  0
  4 31  1  0  0  0  0
  4 32  1  0  0  0  0
  5  6  1  0  0  0  0
  5 10  1  0  0  0  0
  5 33  1  0  0  0  0
  6  7  1  0  0  0  0
  6 34  1  0  0  0  0
  6 35  1  0  0  0  0
  7  8  1  0  0  0  0
  7 36  1  0  0  0  0
  7 37  1  0  0  0  0
  8  9  1  0  0  0  0
  8 11  1  0  0  0  0
  8 38  1  0  0  0  0
  9 10  1  0  0  0  0
  9 39  1  0  0  0  0
  9 40  1  0  0  0  0
 10 41  1  0  0  0  0
 10 42  1  0  0  0  0
 11 12  2  0  0  0  0
 11 21  1  0  0  0  0
 12 13  1  0  0  0  0
 12 23  1  0  0  0  0
 13 14  2  0  0  0  0
 13 15  1  0  0  0  0
 15 16  2  0  0  0  0
 15 20  1  0  0  0  0
 16 17  1  0  0  0  0
 16 43  1  0  0  0  0
 17 18  2  0  0  0  0
 17 44  1  0  0  0  0
 18 19  1  0  0  0  0
 18 45  1  0  0  0  0
 19 20  2  0  0  0  0
 19 46  1  0  0  0  0
 20 21  1  0  0  0  0
 21 22  2  0  0  0  0
 23 47  1  0  0  0  0
M  END
>  <DRUGBANK_ID>
DB06740

>  <COMMON_NAME>
BW-A 58C

>  <CAS_NUMBER>
94015-46-0

>  <SYNONYMS>
2-(4-(1,1-Dimethylethyl)cyclohexyl)-3-hydroxy-1,4-naphthalenedione; 2-(4-tert-butylcyclohexyl)-3-hydroxy-1,4-naphthoquinone; 2-(4'-t-Butylcyclohexyl)-3-hydroxy-1,4-naphthoquinone; 2-[4-(1,1-Dimethylethyl)cyclohexyl]-3-hydroxy-1,4-naphthalenedione

$$$$
