
 OpenBabel10282417072D

148153  0  0  1  0  0  0  0  0999 V2000
   -2.9215   -2.6062    0.0000 C   0  0  0  0  0  0  0  0  0  0  0  0
   -5.6395   -3.4893    0.0000 C   0  0  0  0  0  0  0  0  0  0  0  0
    4.4024   -0.8018    0.0000 C   0  0  0  0  0  0  0  0  0  0  0  0
    3.1649    1.3416    0.0000 C   0  0  0  0  0  0  0  0  0  0  0  0
    6.8774    0.6272    0.0000 C   0  0  0  0  0  0  0  0  0  0  0  0
   -5.6444    1.3017    0.0000 C   0  0  0  0  0  0  0  0  0  0  0  0
    0.4863    0.4177    0.0000 C   0  0  0  0  0  0  0  0  0  0  0  0
   -1.7233    0.5866    0.0000 C   0  0  0  0  0  0  0  0  0  0  0  0
   -6.0708   -2.4789    0.0000 C   0  0  0  0  0  0  0  0  0  0  0  0
   -4.6320    4.0987    0.0000 C   0  0  0  0  0  0  0  0  0  0  0  0
    6.8774    2.0561    0.0000 C   0  0  0  0  0  0  0  0  0  0  0  0
   -6.2256    2.6071    0.0000 C   0  0  0  0  0  0  0  0  0  0  0  0
    4.8149    2.7706    0.0000 C   0  0  0  0  0  0  0  0  0  0  0  0
   -0.5751   -1.1900    0.0000 C   0  0  0  0  0  0  0  0  0  0  0  0
   -1.3821   -1.0185    0.0000 C   0  0  0  0  0  0  0  0  0  0  0  0
    0.6579   -1.2143    0.0000 C   0  0  0  0  0  0  0  0  0  0  0  0
    1.4425   -1.4692    0.0000 C   0  0  0  0  0  0  0  0  0  0  0  0
   -4.2805   -3.0478    0.0000 C   0  0  0  0  0  0  0  0  0  0  0  0
   -3.6029   -0.2300    0.0000 C   0  0  0  0  0  0  0  0  0  0  0  0
   -3.3834    2.3084    0.0000 C   0  0  0  0  0  0  0  0  0  0  0  0
    2.3399   -1.5162    0.0000 C   0  0  0  0  0  0  0  0  0  0  0  0
    5.4967   -0.8998    0.0000 C   0  0  0  0  0  0  0  0  0  0  0  0
   -3.7284   -2.4347    0.0000 C   0  0  1  0  0  0  0  0  0  0  0  0
   -5.0874   -2.8762    0.0000 C   0  0  2  0  0  0  0  0  0  0  0  0
    3.5774   -0.8018    0.0000 C   0  0  2  0  0  0  0  0  0  0  0  0
    3.5774    0.6272    0.0000 C   0  0  2  0  0  0  0  0  0  0  0  0
    6.0524    0.6272    0.0000 C   0  0  1  0  0  0  0  0  0  0  0  0
   -4.8907    1.6373    0.0000 C   0  0  1  0  0  0  0  0  0  0  0  0
    3.1649   -1.5162    0.0000 C   0  0  1  0  0  0  0  0  0  0  0  0
   -4.0508    2.7933    0.0000 C   0  0  1  0  0  0  0  0  0  0  0  0
   -3.4313   -1.0369    0.0000 C   0  0  2  0  0  0  0  0  0  0  0  0
   -2.8884    0.1825    0.0000 C   0  0  1  0  0  0  0  0  0  0  0  0
   -0.1626   -0.4755    0.0000 C   0  0  2  0  0  0  0  0  0  0  0  0
    6.1286   -1.4301    0.0000 C   0  0  0  0  0  0  0  0  0  0  0  0
   -3.4696    1.4879    0.0000 C   0  0  2  0  0  0  0  0  0  0  0  0
   -3.9834   -1.6500    0.0000 C   0  0  1  0  0  0  0  0  0  0  0  0
    3.1649   -0.0873    0.0000 C   0  0  1  0  0  0  0  0  0  0  0  0
    4.4024    0.6272    0.0000 C   0  0  1  0  0  0  0  0  0  0  0  0
    5.6399    1.3416    0.0000 C   0  0  1  0  0  0  0  0  0  0  0  0
   -4.8045    2.4578    0.0000 C   0  0  1  0  0  0  0  0  0  0  0  0
    4.8149    1.3416    0.0000 C   0  0  1  0  0  0  0  0  0  0  0  0
   -2.2753   -0.3695    0.0000 C   0  0  2  0  0  0  0  0  0  0  0  0
    0.6579   -0.3893    0.0000 C   0  0  2  0  0  0  0  0  0  0  0  0
   -1.4683   -0.1980    0.0000 C   0  0  2  0  0  0  0  0  0  0  0  0
   -5.3424   -2.0916    0.0000 C   0  0  2  0  0  0  0  0  0  0  0  0
    1.9274   -0.8018    0.0000 C   0  0  1  0  0  0  0  0  0  0  0  0
    5.6399   -0.0873    0.0000 C   0  0  1  0  0  0  0  0  0  0  0  0
    3.5774   -2.2307    0.0000 O   0  0  0  0  0  0  0  0  0  0  0  0
    6.9039   -1.1479    0.0000 O   0  0  0  0  0  0  0  0  0  0  0  0
    5.9854   -2.2425    0.0000 O   0  0  0  0  0  0  0  0  0  0  0  0
   -5.8503   -1.4415    0.0000 O   0  0  0  0  0  0  0  0  0  0  0  0
    6.4152   -0.3695    0.0000 O   0  0  0  0  0  0  0  0  0  0  0  0
   -3.9646    3.6138    0.0000 O   0  0  0  0  0  0  0  0  0  0  0  0
    6.0524    2.0561    0.0000 O   0  0  0  0  0  0  0  0  0  0  0  0
   -5.4719    2.9427    0.0000 O   0  0  0  0  0  0  0  0  0  0  0  0
    4.4024    2.0561    0.0000 O   0  0  0  0  0  0  0  0  0  0  0  0
   -4.2233    1.1524    0.0000 O   0  0  0  0  0  0  0  0  0  0  0  0
   -2.8022    1.0030    0.0000 O   0  0  0  0  0  0  0  0  0  0  0  0
   -2.6108   -1.1232    0.0000 O   0  0  0  0  0  0  0  0  0  0  0  0
   -0.7146    0.1376    0.0000 O   0  0  0  0  0  0  0  0  0  0  0  0
   -4.7903   -1.4785    0.0000 O   0  0  0  0  0  0  0  0  0  0  0  0
    2.3399   -0.0873    0.0000 O   0  0  0  0  0  0  0  0  0  0  0  0
    4.8149   -0.0873    0.0000 O   0  0  0  0  0  0  0  0  0  0  0  0
    1.4425   -0.1343    0.0000 O   0  0  0  0  0  0  0  0  0  0  0  0
    9.2610    0.0000    0.0000 N   0  0  0  0  0  0  0  0  0  0  0  0
   -3.1764   -1.8216    0.0000 H   0  0  0  0  0  0  0  0  0  0  0  0
   -5.8944   -2.7047    0.0000 H   0  0  0  0  0  0  0  0  0  0  0  0
    3.9899   -1.5162    0.0000 H   0  0  0  0  0  0  0  0  0  0  0  0
    2.7524    0.6272    0.0000 H   0  0  0  0  0  0  0  0  0  0  0  0
    6.4649    1.3416    0.0000 H   0  0  0  0  0  0  0  0  0  0  0  0
   -5.5581    2.1222    0.0000 H   0  0  0  0  0  0  0  0  0  0  0  0
    2.7524   -2.2307    0.0000 H   0  0  0  0  0  0  0  0  0  0  0  0
   -4.7182    3.2783    0.0000 H   0  0  0  0  0  0  0  0  0  0  0  0
   -4.2282   -0.8234    0.0000 H   0  0  0  0  0  0  0  0  0  0  0  0
   -2.1182    0.4782    0.0000 H   0  0  0  0  0  0  0  0  0  0  0  0
    0.1330    0.2947    0.0000 H   0  0  0  0  0  0  0  0  0  0  0  0
   -3.5558    0.6675    0.0000 H   0  0  0  0  0  0  0  0  0  0  0  0
   -4.5354   -2.2631    0.0000 H   0  0  0  0  0  0  0  0  0  0  0  0
    3.9899   -0.0873    0.0000 H   0  0  0  0  0  0  0  0  0  0  0  0
    3.9899    1.3416    0.0000 H   0  0  0  0  0  0  0  0  0  0  0  0
    5.2274    2.0561    0.0000 H   0  0  0  0  0  0  0  0  0  0  0  0
   -4.1370    1.9729    0.0000 H   0  0  0  0  0  0  0  0  0  0  0  0
    5.2274    0.6272    0.0000 H   0  0  0  0  0  0  0  0  0  0  0  0
   -1.7561   -1.0106    0.0000 H   0  0  0  0  0  0  0  0  0  0  0  0
   -2.5908   -3.6238    0.0000 H   0  0  0  0  0  0  0  0  0  0  0  0
   -2.2055   -1.8110    0.0000 H   0  0  0  0  0  0  0  0  0  0  0  0
   -1.8749   -2.8287    0.0000 H   0  0  0  0  0  0  0  0  0  0  0  0
   -6.6861   -3.2668    0.0000 H   0  0  0  0  0  0  0  0  0  0  0  0
   -5.3089   -4.5069    0.0000 H   0  0  0  0  0  0  0  0  0  0  0  0
   -6.3555   -4.2844    0.0000 H   0  0  0  0  0  0  0  0  0  0  0  0
    4.9374   -1.7284    0.0000 H   0  0  0  0  0  0  0  0  0  0  0  0
    4.9374    0.1248    0.0000 H   0  0  0  0  0  0  0  0  0  0  0  0
    5.4724   -0.8018    0.0000 H   0  0  0  0  0  0  0  0  0  0  0  0
    3.6999    2.2683    0.0000 H   0  0  0  0  0  0  0  0  0  0  0  0
    2.0949    1.3416    0.0000 H   0  0  0  0  0  0  0  0  0  0  0  0
    2.6299    2.2682    0.0000 H   0  0  0  0  0  0  0  0  0  0  0  0
    7.4124   -0.2994    0.0000 H   0  0  0  0  0  0  0  0  0  0  0  0
    7.4124    1.5538    0.0000 H   0  0  0  0  0  0  0  0  0  0  0  0
    7.9474    0.6272    0.0000 H   0  0  0  0  0  0  0  0  0  0  0  0
   -6.5101    1.9306    0.0000 H   0  0  0  0  0  0  0  0  0  0  0  0
   -5.7562    0.2376    0.0000 H   0  0  0  0  0  0  0  0  0  0  0  0
   -6.6219    0.8665    0.0000 H   0  0  0  0  0  0  0  0  0  0  0  0
    1.2814    1.1337    0.0000 H   0  0  0  0  0  0  0  0  0  0  0  0
   -0.5314    0.7483    0.0000 H   0  0  0  0  0  0  0  0  0  0  0  0
    0.2638    1.4643    0.0000 H   0  0  0  0  0  0  0  0  0  0  0  0
   -1.0074    1.3818    0.0000 H   0  0  0  0  0  0  0  0  0  0  0  0
   -2.7699    0.8090    0.0000 H   0  0  0  0  0  0  0  0  0  0  0  0
   -2.0540    1.6042    0.0000 H   0  0  0  0  0  0  0  0  0  0  0  0
   -6.9782   -1.9119    0.0000 H   0  0  0  0  0  0  0  0  0  0  0  0
   -6.1081   -3.5482    0.0000 H   0  0  0  0  0  0  0  0  0  0  0  0
   -7.0156   -2.9812    0.0000 H   0  0  0  0  0  0  0  0  0  0  0  0
   -4.5201    5.1628    0.0000 H   0  0  0  0  0  0  0  0  0  0  0  0
   -5.6095    3.6635    0.0000 H   0  0  0  0  0  0  0  0  0  0  0  0
   -5.4976    4.7276    0.0000 H   0  0  0  0  0  0  0  0  0  0  0  0
    7.4124    1.1295    0.0000 H   0  0  0  0  0  0  0  0  0  0  0  0
    7.4124    2.9827    0.0000 H   0  0  0  0  0  0  0  0  0  0  0  0
    7.9474    2.0561    0.0000 H   0  0  0  0  0  0  0  0  0  0  0  0
   -7.0913    3.2360    0.0000 H   0  0  0  0  0  0  0  0  0  0  0  0
   -6.3374    1.5430    0.0000 H   0  0  0  0  0  0  0  0  0  0  0  0
   -7.2031    2.1719    0.0000 H   0  0  0  0  0  0  0  0  0  0  0  0
    5.8849    2.7706    0.0000 H   0  0  0  0  0  0  0  0  0  0  0  0
    4.2799    3.6972    0.0000 H   0  0  0  0  0  0  0  0  0  0  0  0
    5.3499    3.6973    0.0000 H   0  0  0  0  0  0  0  0  0  0  0  0
   -0.1399   -2.1675    0.0000 H   0  0  0  0  0  0  0  0  0  0  0  0
    0.4934   -1.2460    0.0000 H   0  0  0  0  0  0  0  0  0  0  0  0
   -2.1773   -1.7345    0.0000 H   0  0  0  0  0  0  0  0  0  0  0  0
   -2.3810   -0.6350    0.0000 H   0  0  0  0  0  0  0  0  0  0  0  0
   -0.2077   -1.8432    0.0000 H   0  0  0  0  0  0  0  0  0  0  0  0
   -0.2955   -0.7285    0.0000 H   0  0  0  0  0  0  0  0  0  0  0  0
    1.7732   -2.4868    0.0000 H   0  0  0  0  0  0  0  0  0  0  0  0
    2.4993   -1.6366    0.0000 H   0  0  0  0  0  0  0  0  0  0  0  0
   -3.9499   -4.0655    0.0000 H   0  0  0  0  0  0  0  0  0  0  0  0
   -4.9965   -3.8429    0.0000 H   0  0  0  0  0  0  0  0  0  0  0  0
   -4.5804    0.2052    0.0000 H   0  0  0  0  0  0  0  0  0  0  0  0
   -3.6589    0.8385    0.0000 H   0  0  0  0  0  0  0  0  0  0  0  0
   -2.4059    2.7436    0.0000 H   0  0  0  0  0  0  0  0  0  0  0  0
   -2.5177    1.6795    0.0000 H   0  0  0  0  0  0  0  0  0  0  0  0
    1.8049   -2.4429    0.0000 H   0  0  0  0  0  0  0  0  0  0  0  0
    1.2699   -1.5162    0.0000 H   0  0  0  0  0  0  0  0  0  0  0  0
    4.4912   -1.2658    0.0000 H   0  0  0  0  0  0  0  0  0  0  0  0
    4.6770   -0.2121    0.0000 H   0  0  0  0  0  0  0  0  0  0  0  0
    3.0924   -3.0707    0.0000 H   0  0  0  0  0  0  0  0  0  0  0  0
    5.1049   -2.5630    0.0000 H   0  0  0  0  0  0  0  0  0  0  0  0
   -5.4869   -0.5421    0.0000 H   0  0  0  0  0  0  0  0  0  0  0  0
    6.5836   -1.3248    0.0000 H   0  0  0  0  0  0  0  0  0  0  0  0
   10.2810    0.0000    0.0000 H   0  0  0  0  0  0  0  0  0  0  0  0
    8.7510    0.8833    0.0000 H   0  0  0  0  0  0  0  0  0  0  0  0
    8.7510   -0.8833    0.0000 H   0  0  0  0  0  0  0  0  0  0  0  0
  1 85  1  0  0  0  0
  1 86  1  0  0  0  0
  1 87  1  0  0  0  0
  2 88  1  0  0  0  0
  2 89  1  0  0  0  0
  2 90  1  0  0  0  0
  3 91  1  0  0  0  0
  3 92  1  0  0  0  0
  3 93  1  0  0  0  0
  4 94  1  0  0  0  0
  4 95  1  0  0  0  0
  4 96  1  0  0  0  0
  5 97  1  0  0  0  0
  5 98  1  0  0  0  0
  5 99  1  0  0  0  0
  6100  1  0  0  0  0
  6101  1  0  0  0  0
  6102  1  0  0  0  0
  7103  1  0  0  0  0
  7104  1  0  0  0  0
  7105  1  0  0  0  0
  8106  1  0  0  0  0
  8107  1  0  0  0  0
  8108  1  0  0  0  0
  9109  1  0  0  0  0
  9110  1  0  0  0  0
  9111  1  0  0  0  0
 10112  1  0  0  0  0
 10113  1  0  0  0  0
 10114  1  0  0  0  0
 11115  1  0  0  0  0
 11116  1  0  0  0  0
 11117  1  0  0  0  0
 12118  1  0  0  0  0
 12119  1  0  0  0  0
 12120  1  0  0  0  0
 13121  1  0  0  0  0
 13122  1  0  0  0  0
 13123  1  0  0  0  0
 14124  1  0  0  0  0
 14125  1  0  0  0  0
 15 14  1  0  0  0  0
 15126  1  0  0  0  0
 15127  1  0  0  0  0
 16128  1  0  0  0  0
 16129  1  0  0  0  0
 17 16  1  0  0  0  0
 17130  1  0  0  0  0
 17131  1  0  0  0  0
 18132  1  0  0  0  0
 18133  1  0  0  0  0
 19134  1  0  0  0  0
 19135  1  0  0  0  0
 20136  1  0  0  0  0
 20137  1  0  0  0  0
 21138  1  0  0  0  0
 21139  1  0  0  0  0
 22140  1  0  0  0  0
 22141  1  0  0  0  0
 23  1  1  0  0  0  0
 23 18  1  0  0  0  0
 23 66  1  6  0  0  0
 24  2  1  0  0  0  0
 24 18  1  0  0  0  0
 24 67  1  6  0  0  0
 25  3  1  0  0  0  0
 25 68  1  1  0  0  0
 26  4  1  0  0  0  0
 26 69  1  6  0  0  0
 27  5  1  0  0  0  0
 27 70  1  1  0  0  0
 28  6  1  0  0  0  0
 28 71  1  6  0  0  0
 29 21  1  0  0  0  0
 29 25  1  0  0  0  0
 29 48  1  0  0  0  0
 29 72  1  6  0  0  0
 30 20  1  0  0  0  0
 30 53  1  0  0  0  0
 30 73  1  6  0  0  0
 31 19  1  0  0  0  0
 31 36  1  0  0  0  0
 31 74  1  6  0  0  0
 32 19  1  0  0  0  0
 32 58  1  0  0  0  0
 32 75  1  1  0  0  0
 33 14  1  0  0  0  0
 33 43  1  0  0  0  0
 33 76  1  6  0  0  0
 34 22  1  0  0  0  0
 35 20  1  0  0  0  0
 35 58  1  0  0  0  0
 35 77  1  6  0  0  0
 36 23  1  0  0  0  0
 36 78  1  1  0  0  0
 37 25  1  0  0  0  0
 37 26  1  0  0  0  0
 37 79  1  1  0  0  0
 38 26  1  0  0  0  0
 38 80  1  6  0  0  0
 39 27  1  0  0  0  0
 39 54  1  0  0  0  0
 39 81  1  6  0  0  0
 40 28  1  0  0  0  0
 40 30  1  0  0  0  0
 40 55  1  0  0  0  0
 40 82  1  1  0  0  0
 41 38  1  0  0  0  0
 41 39  1  0  0  0  0
 41 56  1  0  0  0  0
 41 83  1  1  0  0  0
 42 32  1  0  0  0  0
 42 44  1  0  0  0  0
 42 84  1  1  0  0  0
 43  7  1  6  0  0  0
 43 16  1  0  0  0  0
 44  8  1  6  0  0  0
 44 15  1  0  0  0  0
 45  9  1  0  0  0  0
 45 24  1  0  0  0  0
 45 51  1  1  0  0  0
 46 17  1  0  0  0  0
 46 21  1  0  0  0  0
 46 62  1  6  0  0  0
 46 64  1  0  0  0  0
 47 22  1  0  0  0  0
 47 27  1  0  0  0  0
 47 52  1  6  0  0  0
 48142  1  0  0  0  0
 49 34  2  0  0  0  0
 50 34  1  0  0  0  0
 50143  1  0  0  0  0
 51144  1  0  0  0  0
 52145  1  0  0  0  0
 53 10  1  0  0  0  0
 54 11  1  0  0  0  0
 55 12  1  0  0  0  0
 56 13  1  0  0  0  0
 57 28  1  0  0  0  0
 57 35  1  0  0  0  0
 59 31  1  0  0  0  0
 59 42  1  0  0  0  0
 60 33  1  0  0  0  0
 60 44  1  0  0  0  0
 61 36  1  0  0  0  0
 61 45  1  0  0  0  0
 62 37  1  0  0  0  0
 63 38  1  0  0  0  0
 63 47  1  0  0  0  0
 64 43  1  0  0  0  0
 65146  1  0  0  0  0
 65147  1  0  0  0  0
 65148  1  0  0  0  0
M  END
>  <DRUGBANK_ID>
DB11525

>  <COMMON_NAME>
Maduramicin

>  <CAS_NUMBER>
84878-61-5

>  <UNII>
5U912U22T2

>  <SYNONYMS>
Maduramicin

$$$$
