
 OpenBabel10282417072D

 81 84  0  0  1  0  0  0  0  0999 V2000
   -6.4302   -4.5375    0.0000 C   0  0  0  0  0  0  0  0  0  0  0  0
   -5.7158   -4.9500    0.0000 C   0  0  0  0  0  0  0  0  0  0  0  0
   -5.0013   -4.5375    0.0000 O   0  0  0  0  0  0  0  0  0  0  0  0
   -4.2868   -4.9500    0.0000 C   0  0  0  0  0  0  0  0  0  0  0  0
   -4.2868   -5.7750    0.0000 O   0  0  0  0  0  0  0  0  0  0  0  0
   -3.5724   -4.5375    0.0000 N   0  0  0  0  0  0  0  0  0  0  0  0
   -2.8579   -4.9500    0.0000 C   0  0  2  0  0  0  0  0  0  0  0  0
   -2.8579   -5.7750    0.0000 C   0  0  0  0  0  0  0  0  0  0  0  0
   -2.1434   -6.1875    0.0000 C   0  0  0  0  0  0  0  0  0  0  0  0
   -2.1434   -4.5375    0.0000 C   0  0  0  0  0  0  0  0  0  0  0  0
   -2.1434   -3.7125    0.0000 C   0  0  2  0  0  0  0  0  0  0  0  0
   -1.4289   -3.3000    0.0000 N   0  0  0  0  0  0  0  0  0  0  0  0
   -1.4289   -2.4750    0.0000 C   0  0  0  0  0  0  0  0  0  0  0  0
   -0.7145   -2.0625    0.0000 C   0  0  0  0  0  0  0  0  0  0  0  0
   -0.7145   -1.2375    0.0000 C   0  0  0  0  0  0  0  0  0  0  0  0
   -0.0000   -0.8250    0.0000 C   0  0  0  0  0  0  0  0  0  0  0  0
    0.7145   -1.2375    0.0000 C   0  0  0  0  0  0  0  0  0  0  0  0
    0.7145   -2.0625    0.0000 C   0  0  0  0  0  0  0  0  0  0  0  0
   -0.0000   -2.4750    0.0000 C   0  0  0  0  0  0  0  0  0  0  0  0
    1.4289   -2.4750    0.0000 C   0  0  0  0  0  0  0  0  0  0  0  0
    2.1434   -2.8875    0.0000 F   0  0  0  0  0  0  0  0  0  0  0  0
    1.0164   -3.1895    0.0000 F   0  0  0  0  0  0  0  0  0  0  0  0
    1.8414   -1.7605    0.0000 F   0  0  0  0  0  0  0  0  0  0  0  0
   -0.0000   -0.0000    0.0000 C   0  0  0  0  0  0  0  0  0  0  0  0
   -0.0000    0.8250    0.0000 F   0  0  0  0  0  0  0  0  0  0  0  0
    0.8250   -0.0000    0.0000 F   0  0  0  0  0  0  0  0  0  0  0  0
   -0.8250   -0.0000    0.0000 F   0  0  0  0  0  0  0  0  0  0  0  0
   -0.7145   -3.7125    0.0000 C   0  0  0  0  0  0  0  0  0  0  0  0
    0.0000   -3.3000    0.0000 N   0  0  0  0  0  0  0  0  0  0  0  0
    0.7145   -3.7125    0.0000 C   0  0  0  0  0  0  0  0  0  0  0  0
    0.7145   -4.5375    0.0000 C   0  0  0  0  0  0  0  0  0  0  0  0
    1.4289   -4.9500    0.0000 O   0  0  0  0  0  0  0  0  0  0  0  0
    2.1434   -4.5375    0.0000 C   0  0  0  0  0  0  0  0  0  0  0  0
    2.8579   -4.9500    0.0000 C   0  0  0  0  0  0  0  0  0  0  0  0
    3.5724   -4.5375    0.0000 C   0  0  0  0  0  0  0  0  0  0  0  0
    4.2868   -4.9500    0.0000 C   0  0  0  0  0  0  0  0  0  0  0  0
    5.0013   -4.5375    0.0000 O   0  0  0  0  0  0  0  0  0  0  0  0
    4.2868   -5.7750    0.0000 O   0  0  0  0  0  0  0  0  0  0  0  0
    0.0000   -4.9500    0.0000 C   0  0  0  0  0  0  0  0  0  0  0  0
   -0.7145   -4.5375    0.0000 N   0  0  0  0  0  0  0  0  0  0  0  0
   -2.8579   -3.3000    0.0000 C   0  0  0  0  0  0  0  0  0  0  0  0
   -3.5724   -3.7125    0.0000 C   0  0  0  0  0  0  0  0  0  0  0  0
   -4.2868   -3.3000    0.0000 C   0  0  0  0  0  0  0  0  0  0  0  0
   -4.2868   -2.4750    0.0000 C   0  0  0  0  0  0  0  0  0  0  0  0
   -3.5724   -2.0625    0.0000 C   0  0  0  0  0  0  0  0  0  0  0  0
   -2.8579   -2.4750    0.0000 C   0  0  0  0  0  0  0  0  0  0  0  0
   -3.5724   -1.2375    0.0000 C   0  0  0  0  0  0  0  0  0  0  0  0
   -3.5724   -0.4125    0.0000 F   0  0  0  0  0  0  0  0  0  0  0  0
   -2.7474   -1.2375    0.0000 F   0  0  0  0  0  0  0  0  0  0  0  0
   -4.3974   -1.2375    0.0000 F   0  0  0  0  0  0  0  0  0  0  0  0
   -6.4302   -3.4675    0.0000 H   0  0  0  0  0  0  0  0  0  0  0  0
   -7.3569   -5.0725    0.0000 H   0  0  0  0  0  0  0  0  0  0  0  0
   -7.3568   -4.0025    0.0000 H   0  0  0  0  0  0  0  0  0  0  0  0
   -5.7158   -6.0200    0.0000 H   0  0  0  0  0  0  0  0  0  0  0  0
   -4.7892   -5.4850    0.0000 H   0  0  0  0  0  0  0  0  0  0  0  0
   -3.7845   -5.4850    0.0000 H   0  0  0  0  0  0  0  0  0  0  0  0
   -3.7845   -6.3100    0.0000 H   0  0  0  0  0  0  0  0  0  0  0  0
   -2.8579   -6.8450    0.0000 H   0  0  0  0  0  0  0  0  0  0  0  0
   -2.1434   -7.2575    0.0000 H   0  0  0  0  0  0  0  0  0  0  0  0
   -1.2168   -5.6525    0.0000 H   0  0  0  0  0  0  0  0  0  0  0  0
   -1.2167   -6.7225    0.0000 H   0  0  0  0  0  0  0  0  0  0  0  0
   -1.2168   -5.0725    0.0000 H   0  0  0  0  0  0  0  0  0  0  0  0
   -1.2168   -4.0025    0.0000 H   0  0  0  0  0  0  0  0  0  0  0  0
   -1.2168   -4.2475    0.0000 H   0  0  0  0  0  0  0  0  0  0  0  0
   -2.3556   -1.9400    0.0000 H   0  0  0  0  0  0  0  0  0  0  0  0
   -1.4289   -1.4050    0.0000 H   0  0  0  0  0  0  0  0  0  0  0  0
   -1.6082   -0.7215    0.0000 H   0  0  0  0  0  0  0  0  0  0  0  0
    1.6082   -0.7215    0.0000 H   0  0  0  0  0  0  0  0  0  0  0  0
    0.0000   -3.5070    0.0000 H   0  0  0  0  0  0  0  0  0  0  0  0
    1.6082   -3.1965    0.0000 H   0  0  0  0  0  0  0  0  0  0  0  0
    2.1434   -3.4675    0.0000 H   0  0  0  0  0  0  0  0  0  0  0  0
    3.0700   -4.0025    0.0000 H   0  0  0  0  0  0  0  0  0  0  0  0
    2.8579   -6.0200    0.0000 H   0  0  0  0  0  0  0  0  0  0  0  0
    3.7845   -5.4850    0.0000 H   0  0  0  0  0  0  0  0  0  0  0  0
    3.5724   -3.4675    0.0000 H   0  0  0  0  0  0  0  0  0  0  0  0
    4.4991   -4.0025    0.0000 H   0  0  0  0  0  0  0  0  0  0  0  0
    5.8128   -5.0060    0.0000 H   0  0  0  0  0  0  0  0  0  0  0  0
    0.0000   -5.9820    0.0000 H   0  0  0  0  0  0  0  0  0  0  0  0
   -5.1805   -3.8160    0.0000 H   0  0  0  0  0  0  0  0  0  0  0  0
   -5.1805   -1.9590    0.0000 H   0  0  0  0  0  0  0  0  0  0  0  0
   -1.9642   -1.9590    0.0000 H   0  0  0  0  0  0  0  0  0  0  0  0
  1  2  1  0  0  0  0
  1 51  1  0  0  0  0
  1 52  1  0  0  0  0
  1 53  1  0  0  0  0
  2  3  1  0  0  0  0
  2 54  1  0  0  0  0
  2 55  1  0  0  0  0
  3  4  1  0  0  0  0
  4  5  2  0  0  0  0
  4  6  1  0  0  0  0
  6 42  1  0  0  0  0
  7  6  1  0  0  0  0
  7  8  1  0  0  0  0
  7 10  1  0  0  0  0
  7 56  1  6  0  0  0
  8  9  1  0  0  0  0
  8 57  1  0  0  0  0
  8 58  1  0  0  0  0
  9 59  1  0  0  0  0
  9 60  1  0  0  0  0
  9 61  1  0  0  0  0
 10 62  1  0  0  0  0
 10 63  1  0  0  0  0
 11 10  1  0  0  0  0
 11 12  1  0  0  0  0
 11 41  1  0  0  0  0
 11 64  1  6  0  0  0
 12 13  1  0  0  0  0
 12 28  1  0  0  0  0
 13 14  1  0  0  0  0
 13 65  1  0  0  0  0
 13 66  1  0  0  0  0
 14 15  2  0  0  0  0
 14 19  1  0  0  0  0
 15 16  1  0  0  0  0
 15 67  1  0  0  0  0
 16 17  2  0  0  0  0
 16 24  1  0  0  0  0
 17 18  1  0  0  0  0
 17 68  1  0  0  0  0
 18 19  2  0  0  0  0
 18 20  1  0  0  0  0
 19 69  1  0  0  0  0
 20 21  1  0  0  0  0
 20 22  1  0  0  0  0
 20 23  1  0  0  0  0
 24 25  1  0  0  0  0
 24 26  1  0  0  0  0
 24 27  1  0  0  0  0
 28 29  2  0  0  0  0
 28 40  1  0  0  0  0
 29 30  1  0  0  0  0
 30 31  2  0  0  0  0
 30 70  1  0  0  0  0
 31 32  1  0  0  0  0
 31 39  1  0  0  0  0
 32 33  1  0  0  0  0
 33 34  1  0  0  0  0
 33 71  1  0  0  0  0
 33 72  1  0  0  0  0
 34 35  1  0  0  0  0
 34 73  1  0  0  0  0
 34 74  1  0  0  0  0
 35 36  1  0  0  0  0
 35 75  1  0  0  0  0
 35 76  1  0  0  0  0
 36 37  1  0  0  0  0
 36 38  2  0  0  0  0
 37 77  1  0  0  0  0
 39 40  2  0  0  0  0
 39 78  1  0  0  0  0
 41 42  2  0  0  0  0
 41 46  1  0  0  0  0
 42 43  1  0  0  0  0
 43 44  2  0  0  0  0
 43 79  1  0  0  0  0
 44 45  1  0  0  0  0
 44 80  1  0  0  0  0
 45 46  2  0  0  0  0
 45 47  1  0  0  0  0
 46 81  1  0  0  0  0
 47 48  1  0  0  0  0
 47 49  1  0  0  0  0
 47 50  1  0  0  0  0
M  END
>  <DRUGBANK_ID>
DB14890

>  <COMMON_NAME>
Obicetrapib

>  <CAS_NUMBER>
866399-87-3

>  <UNII>
8O74K609HN

>  <SYNONYMS>
Obicetrapib

$$$$
