
 OpenBabel10282417072D

 33 33  0  0  1  0  0  0  0  0999 V2000
    0.0000    3.0809    0.0000 Cl  0  0  0  0  0  0  0  0  0  0  0  0
    2.4750    3.8435    0.0000 S   0  0  0  0  0  0  0  0  0  0  0  0
    3.6490    2.2339    0.0000 O   0  0  0  0  0  0  0  0  0  0  0  0
    5.2139    3.6860    0.0000 O   0  0  0  0  0  0  0  0  0  0  0  0
    3.1193    3.2735    0.0000 O   0  0  0  0  0  0  0  0  0  0  0  0
    5.7685    1.9790    0.0000 O   0  0  0  0  0  0  0  0  0  0  0  0
    3.6020    0.5115    0.0000 O   0  0  0  0  0  0  0  0  0  0  0  0
    3.9040    3.8435    0.0000 N   0  0  0  0  0  0  0  0  0  0  0  0
    3.1895    5.0810    0.0000 N   0  0  0  0  0  0  0  0  0  0  0  0
    3.9040    6.3185    0.0000 N   0  0  0  0  0  0  0  0  0  0  0  0
    4.7290    3.0185    0.0000 C   0  0  2  0  0  0  0  0  0  0  0  0
    3.9040    3.0185    0.0000 C   0  0  1  0  0  0  0  0  0  0  0  0
    4.9839    2.2339    0.0000 C   0  0  1  0  0  0  0  0  0  0  0  0
    4.3165    1.7490    0.0000 C   0  0  1  0  0  0  0  0  0  0  0  0
    4.3165    0.9240    0.0000 C   0  0  0  0  0  0  0  0  0  0  0  0
    4.6185    4.2560    0.0000 C   0  0  0  0  0  0  0  0  0  0  0  0
    3.1895    4.2560    0.0000 C   0  0  0  0  0  0  0  0  0  0  0  0
    4.6185    5.0810    0.0000 C   0  0  0  0  0  0  0  0  0  0  0  0
    3.9040    5.4935    0.0000 C   0  0  0  0  0  0  0  0  0  0  0  0
    1.2280    3.0809    0.0000 H   0  0  0  0  0  0  0  0  0  0  0  0
    6.1786    3.5847    0.0000 H   0  0  0  0  0  0  0  0  0  0  0  0
    2.9177    4.2223    0.0000 H   0  0  0  0  0  0  0  0  0  0  0  0
    5.9702    1.0302    0.0000 H   0  0  0  0  0  0  0  0  0  0  0  0
    2.7620    0.9965    0.0000 H   0  0  0  0  0  0  0  0  0  0  0  0
    4.7566    6.8108    0.0000 H   0  0  0  0  0  0  0  0  0  0  0  0
    3.0514    6.8108    0.0000 H   0  0  0  0  0  0  0  0  0  0  0  0
    4.2432    3.9719    0.0000 H   0  0  0  0  0  0  0  0  0  0  0  0
    5.7405    2.9905    0.0000 H   0  0  0  0  0  0  0  0  0  0  0  0
    3.3631    1.2632    0.0000 H   0  0  0  0  0  0  0  0  0  0  0  0
    5.2431    0.3890    0.0000 H   0  0  0  0  0  0  0  0  0  0  0  0
    5.2431    1.4590    0.0000 H   0  0  0  0  0  0  0  0  0  0  0  0
    5.5122    3.7400    0.0000 H   0  0  0  0  0  0  0  0  0  0  0  0
    5.5122    5.5970    0.0000 H   0  0  0  0  0  0  0  0  0  0  0  0
  1 20  1  0  0  0  0
  2 17  2  0  0  0  0
  3 12  1  0  0  0  0
  3 14  1  0  0  0  0
  4 21  1  0  0  0  0
  5 22  1  0  0  0  0
  6 23  1  0  0  0  0
  7 15  1  0  0  0  0
  7 24  1  0  0  0  0
  8 12  1  0  0  0  0
  8 16  1  0  0  0  0
  8 17  1  0  0  0  0
  9 17  1  0  0  0  0
  9 19  2  0  0  0  0
 10 19  1  0  0  0  0
 10 25  1  0  0  0  0
 10 26  1  0  0  0  0
 11  4  1  0  0  0  0
 11 12  1  0  0  0  0
 11 13  1  0  0  0  0
 11 27  1  6  0  0  0
 12  5  1  6  0  0  0
 13  6  1  0  0  0  0
 13 14  1  0  0  0  0
 13 28  1  1  0  0  0
 14 15  1  0  0  0  0
 14 29  1  6  0  0  0
 15 30  1  0  0  0  0
 15 31  1  0  0  0  0
 16 18  2  0  0  0  0
 16 32  1  0  0  0  0
 18 19  1  0  0  0  0
 18 33  1  0  0  0  0
M  END
>  <DRUGBANK_ID>
DB05837

>  <COMMON_NAME>
OSI-7836

>  <UNII>
YCO2764D5Z

$$$$
