
 OpenBabel10282417072D

 36 38  0  0  0  0  0  0  0  0999 V2000
    8.1314   -3.0423    0.0000 Cl  0  0  0  0  0  0  0  0  0  0  0  0
    5.6655    0.4683    0.0000 S   0  0  0  0  0  0  0  0  0  0  0  0
    2.8075    2.1183    0.0000 S   0  0  0  0  0  0  0  0  0  0  0  0
    5.2530   -0.2462    0.0000 O   0  0  0  0  0  0  0  0  0  0  0  0
    6.0780    1.1828    0.0000 O   0  0  0  0  0  0  0  0  0  0  0  0
    3.2200    2.8329    0.0000 O   0  0  0  0  0  0  0  0  0  0  0  0
    2.3950    1.4039    0.0000 O   0  0  0  0  0  0  0  0  0  0  0  0
    6.3799    0.0558    0.0000 N   0  0  0  0  0  0  0  0  0  0  0  0
    7.8750   -0.9303    0.0000 N   0  0  0  0  0  0  0  0  0  0  0  0
    2.0930    2.5308    0.0000 N   0  0  0  0  0  0  0  0  0  0  0  0
    7.0944   -1.1818    0.0000 C   0  0  0  0  0  0  0  0  0  0  0  0
    6.3799   -0.7692    0.0000 C   0  0  0  0  0  0  0  0  0  0  0  0
    7.0944   -2.0068    0.0000 C   0  0  0  0  0  0  0  0  0  0  0  0
    4.9509    0.8808    0.0000 C   0  0  0  0  0  0  0  0  0  0  0  0
    5.6655   -1.1818    0.0000 C   0  0  0  0  0  0  0  0  0  0  0  0
    7.8750   -2.2582    0.0000 C   0  0  0  0  0  0  0  0  0  0  0  0
    6.3799   -2.4193    0.0000 C   0  0  0  0  0  0  0  0  0  0  0  0
    3.5220    1.7058    0.0000 C   0  0  0  0  0  0  0  0  0  0  0  0
    4.9509    1.7058    0.0000 C   0  0  0  0  0  0  0  0  0  0  0  0
    4.2365    0.4683    0.0000 C   0  0  0  0  0  0  0  0  0  0  0  0
    8.3565   -1.5943    0.0000 C   0  0  0  0  0  0  0  0  0  0  0  0
    5.6655   -2.0068    0.0000 C   0  0  0  0  0  0  0  0  0  0  0  0
    4.2365    2.1183    0.0000 C   0  0  0  0  0  0  0  0  0  0  0  0
    3.5220    0.8808    0.0000 C   0  0  0  0  0  0  0  0  0  0  0  0
    7.2325    0.5480    0.0000 H   0  0  0  0  0  0  0  0  0  0  0  0
    8.1808    0.0055    0.0000 H   0  0  0  0  0  0  0  0  0  0  0  0
    2.0930    3.5508    0.0000 H   0  0  0  0  0  0  0  0  0  0  0  0
    1.2097    2.0208    0.0000 H   0  0  0  0  0  0  0  0  0  0  0  0
    4.7717   -0.6659    0.0000 H   0  0  0  0  0  0  0  0  0  0  0  0
    6.3799   -3.4513    0.0000 H   0  0  0  0  0  0  0  0  0  0  0  0
    5.8446    2.2218    0.0000 H   0  0  0  0  0  0  0  0  0  0  0  0
    4.2365   -0.5637    0.0000 H   0  0  0  0  0  0  0  0  0  0  0  0
    9.3885   -1.5943    0.0000 H   0  0  0  0  0  0  0  0  0  0  0  0
    4.7718   -2.5228    0.0000 H   0  0  0  0  0  0  0  0  0  0  0  0
    4.2365    3.1503    0.0000 H   0  0  0  0  0  0  0  0  0  0  0  0
    2.6283    0.3648    0.0000 H   0  0  0  0  0  0  0  0  0  0  0  0
  1 16  1  0  0  0  0
  2  4  2  0  0  0  0
  2  5  2  0  0  0  0
  2  8  1  0  0  0  0
  2 14  1  0  0  0  0
  3  6  2  0  0  0  0
  3  7  2  0  0  0  0
  3 10  1  0  0  0  0
  3 18  1  0  0  0  0
  8 12  1  0  0  0  0
  8 25  1  0  0  0  0
  9 11  1  0  0  0  0
  9 21  1  0  0  0  0
  9 26  1  0  0  0  0
 10 27  1  0  0  0  0
 10 28  1  0  0  0  0
 11 12  1  0  0  0  0
 11 13  2  0  0  0  0
 12 15  2  0  0  0  0
 13 16  1  0  0  0  0
 13 17  1  0  0  0  0
 14 19  2  0  0  0  0
 14 20  1  0  0  0  0
 15 22  1  0  0  0  0
 15 29  1  0  0  0  0
 16 21  2  0  0  0  0
 17 22  2  0  0  0  0
 17 30  1  0  0  0  0
 18 23  2  0  0  0  0
 18 24  1  0  0  0  0
 19 23  1  0  0  0  0
 19 31  1  0  0  0  0
 20 24  2  0  0  0  0
 20 32  1  0  0  0  0
 21 33  1  0  0  0  0
 22 34  1  0  0  0  0
 23 35  1  0  0  0  0
 24 36  1  0  0  0  0
M  END
>  <DRUGBANK_ID>
DB06370

>  <COMMON_NAME>
Indisulam

>  <CAS_NUMBER>
165668-41-7

>  <UNII>
WJ98J3NM90

>  <SYNONYMS>
Indisulam

$$$$
