
 OpenBabel10282417072D

 38 37  0  0  0  0  0  0  0  0999 V2000
    2.1486    2.0669    0.0000 O   0  5  0  0  0  0  0  0  0  0  0  0
    1.4310    0.8293    0.0000 O   0  0  0  0  0  0  0  0  0  0  0  0
    0.0000    0.8293    0.0000 N   0  0  0  0  0  0  0  0  0  0  0  0
    0.7175    2.0669    0.0000 N   0  0  0  0  0  0  0  0  0  0  0  0
   -0.7175    2.0669    0.0000 N   0  0  0  0  0  0  0  0  0  0  0  0
    1.4310    1.6544    0.0000 N   0  3  0  0  0  0  0  0  0  0  0  0
   -1.4310   -0.8250    0.0000 C   0  0  0  0  0  0  0  0  0  0  0  0
   -0.7175   -0.4125    0.0000 C   0  0  0  0  0  0  0  0  0  0  0  0
   -0.7175    0.4125    0.0000 C   0  0  0  0  0  0  0  0  0  0  0  0
    0.0000    1.6544    0.0000 C   0  0  0  0  0  0  0  0  0  0  0  0
   -1.4310   -1.6544    0.0000 C   0  0  1  0  0  0  0  0  0  0  0  0
   -0.7175   -2.0669    0.0000 C   0  0  0  0  0  0  0  0  0  0  0  0
    0.0000   -1.6544    0.0000 N   0  0  0  0  0  0  0  0  0  0  0  0
    0.7175   -2.0669    0.0000 C   0  0  0  0  0  0  0  0  0  0  0  0
    1.4310   -1.6544    0.0000 C   0  0  0  0  0  0  0  0  0  0  0  0
    2.1486   -2.0669    0.0000 N   0  0  0  0  0  0  0  0  0  0  0  0
   -2.1486   -2.0669    0.0000 N   0  0  0  0  0  0  0  0  0  0  0  0
    0.8533    0.3382    0.0000 H   0  0  0  0  0  0  0  0  0  0  0  0
    0.7187    3.0514    0.0000 H   0  0  0  0  0  0  0  0  0  0  0  0
   -0.7193    3.0514    0.0000 H   0  0  0  0  0  0  0  0  0  0  0  0
   -2.3578   -0.2903    0.0000 H   0  0  0  0  0  0  0  0  0  0  0  0
   -2.3576   -1.3601    0.0000 H   0  0  0  0  0  0  0  0  0  0  0  0
    0.2093   -0.9472    0.0000 H   0  0  0  0  0  0  0  0  0  0  0  0
    0.2091    0.1226    0.0000 H   0  0  0  0  0  0  0  0  0  0  0  0
   -1.6449    0.9463    0.0000 H   0  0  0  0  0  0  0  0  0  0  0  0
   -1.6438   -0.1231    0.0000 H   0  0  0  0  0  0  0  0  0  0  0  0
   -2.3571   -1.1185    0.0000 H   0  0  0  0  0  0  0  0  0  0  0  0
   -0.7188   -3.1369    0.0000 H   0  0  0  0  0  0  0  0  0  0  0  0
    0.2083   -2.6033    0.0000 H   0  0  0  0  0  0  0  0  0  0  0  0
    0.0000   -0.6344    0.0000 H   0  0  0  0  0  0  0  0  0  0  0  0
    0.7188   -3.1369    0.0000 H   0  0  0  0  0  0  0  0  0  0  0  0
    1.6446   -2.6011    0.0000 H   0  0  0  0  0  0  0  0  0  0  0  0
    1.4297   -0.5844    0.0000 H   0  0  0  0  0  0  0  0  0  0  0  0
    2.3568   -1.1180    0.0000 H   0  0  0  0  0  0  0  0  0  0  0  0
    2.1505   -3.0869    0.0000 H   0  0  0  0  0  0  0  0  0  0  0  0
    3.0310   -1.5552    0.0000 H   0  0  0  0  0  0  0  0  0  0  0  0
   -3.0310   -1.5552    0.0000 H   0  0  0  0  0  0  0  0  0  0  0  0
   -2.1505   -3.0869    0.0000 H   0  0  0  0  0  0  0  0  0  0  0  0
  1  6  1  0  0  0  0
  2  6  2  0  0  0  0
  3  9  1  0  0  0  0
  3 10  1  0  0  0  0
  3 18  1  0  0  0  0
  4  6  1  0  0  0  0
  4 10  1  0  0  0  0
  4 19  1  0  0  0  0
  5 10  2  0  0  0  0
  5 20  1  0  0  0  0
  7  8  1  0  0  0  0
  7 21  1  0  0  0  0
  7 22  1  0  0  0  0
  8  9  1  0  0  0  0
  8 23  1  0  0  0  0
  8 24  1  0  0  0  0
  9 25  1  0  0  0  0
  9 26  1  0  0  0  0
 11  7  1  0  0  0  0
 11 17  1  0  0  0  0
 11 12  1  0  0  0  0
 11 27  1  6  0  0  0
 12 13  1  0  0  0  0
 12 28  1  0  0  0  0
 12 29  1  0  0  0  0
 13 14  1  0  0  0  0
 13 30  1  0  0  0  0
 14 15  1  0  0  0  0
 14 31  1  0  0  0  0
 14 32  1  0  0  0  0
 15 16  1  0  0  0  0
 15 33  1  0  0  0  0
 15 34  1  0  0  0  0
 16 35  1  0  0  0  0
 16 36  1  0  0  0  0
 17 37  1  0  0  0  0
 17 38  1  0  0  0  0
M  CHG  2   1  -1   6   1
M  END
>  <DRUGBANK_ID>
DB02027

>  <SECONDARY_ACCESSION_NUMBERS>
EXPT01253

>  <COMMON_NAME>
N-{(4S)-4-Amino-5-[(2-aminoethyl)amino]pentyl}-N'-nitroguanidine

>  <CAS_NUMBER>
357965-98-1

>  <SYNONYMS>
1-{(4S)-4-Amino-5-[(2-aminoethyl)amino]pentyl}-3-nitroguanidine

$$$$
