
 OpenBabel10282417072D

 27 27  0  0  0  0  0  0  0  0999 V2000
    1.0674    1.8583    0.0000 O   0  0  0  0  0  0  0  0  0  0  0  0
    1.0683    1.0305    0.0000 C   0  0  0  0  0  0  0  0  0  0  0  0
    1.7830    0.6183    0.0000 O   0  0  0  0  0  0  0  0  0  0  0  0
    0.3575    0.6202    0.0000 C   0  0  0  0  0  0  0  0  0  0  0  0
    0.3583   -0.2076    0.0000 C   0  0  0  0  0  0  0  0  0  0  0  0
   -0.3556   -0.6208    0.0000 C   0  0  0  0  0  0  0  0  0  0  0  0
   -1.0734   -0.2083    0.0000 C   0  0  0  0  0  0  0  0  0  0  0  0
   -1.7830   -0.6208    0.0000 C   0  0  0  0  0  0  0  0  0  0  0  0
   -1.7830   -1.4458    0.0000 C   0  0  0  0  0  0  0  0  0  0  0  0
   -1.0734   -1.8583    0.0000 C   0  0  0  0  0  0  0  0  0  0  0  0
   -0.3556   -1.4458    0.0000 C   0  0  0  0  0  0  0  0  0  0  0  0
    1.7834   -0.3187    0.0000 H   0  0  0  0  0  0  0  0  0  0  0  0
   -0.5694    1.1548    0.0000 H   0  0  0  0  0  0  0  0  0  0  0  0
   -0.5688    0.0845    0.0000 H   0  0  0  0  0  0  0  0  0  0  0  0
    1.2855   -0.7417    0.0000 H   0  0  0  0  0  0  0  0  0  0  0  0
    0.3594   -1.2776    0.0000 H   0  0  0  0  0  0  0  0  0  0  0  0
   -1.2817   -1.1567    0.0000 H   0  0  0  0  0  0  0  0  0  0  0  0
   -1.0761    0.8617    0.0000 H   0  0  0  0  0  0  0  0  0  0  0  0
   -2.0015    0.3242    0.0000 H   0  0  0  0  0  0  0  0  0  0  0  0
   -2.7104   -0.0872    0.0000 H   0  0  0  0  0  0  0  0  0  0  0  0
   -2.7093   -1.1565    0.0000 H   0  0  0  0  0  0  0  0  0  0  0  0
   -2.7104   -1.9794    0.0000 H   0  0  0  0  0  0  0  0  0  0  0  0
   -1.7854   -2.5158    0.0000 H   0  0  0  0  0  0  0  0  0  0  0  0
   -1.0761   -2.9283    0.0000 H   0  0  0  0  0  0  0  0  0  0  0  0
   -0.1480   -2.3954    0.0000 H   0  0  0  0  0  0  0  0  0  0  0  0
    0.5705   -1.9817    0.0000 H   0  0  0  0  0  0  0  0  0  0  0  0
    0.5713   -0.9113    0.0000 H   0  0  0  0  0  0  0  0  0  0  0  0
  1  2  2  0  0  0  0
  2  3  1  0  0  0  0
  2  4  1  0  0  0  0
  3 12  1  0  0  0  0
  4  5  1  0  0  0  0
  4 13  1  0  0  0  0
  4 14  1  0  0  0  0
  5  6  1  0  0  0  0
  5 15  1  0  0  0  0
  5 16  1  0  0  0  0
  6  7  1  0  0  0  0
  6 17  1  0  0  0  0
  7  8  1  0  0  0  0
  7 18  1  0  0  0  0
  7 19  1  0  0  0  0
  8  9  1  0  0  0  0
  8 20  1  0  0  0  0
  8 21  1  0  0  0  0
  9 10  1  0  0  0  0
  9 22  1  0  0  0  0
  9 23  1  0  0  0  0
 10 11  1  0  0  0  0
 10 24  1  0  0  0  0
 10 25  1  0  0  0  0
 11  6  1  0  0  0  0
 11 26  1  0  0  0  0
 11 27  1  0  0  0  0
M  END
>  <DRUGBANK_ID>
DB02242

>  <SECONDARY_ACCESSION_NUMBERS>
EXPT01069

>  <COMMON_NAME>
Cyclohexanepropanoic acid

>  <CAS_NUMBER>
701-97-3

>  <UNII>
U36W9HNV6D

>  <SYNONYMS>
3-Cyclohexanepropionic acid; 3-Cyclohexylpropanoic acid; 3-Cyclohexylpropionic acid

$$$$
