5AP
 OpenBabel10282417072D

 45 47  0  0  0  0  0  0  0  0999 V2000
    1.5485   -0.0062    0.0000 Cl  0  0  0  0  0  0  0  0  0  0  0  0
    1.5485   -0.8312    0.0000 C   0  0  0  0  0  0  0  0  0  0  0  0
    2.2630   -1.2437    0.0000 C   0  0  0  0  0  0  0  0  0  0  0  0
    2.2630   -2.0687    0.0000 C   0  0  0  0  0  0  0  0  0  0  0  0
    2.9774   -2.4812    0.0000 Cl  0  0  0  0  0  0  0  0  0  0  0  0
    1.5485   -2.4812    0.0000 C   0  0  0  0  0  0  0  0  0  0  0  0
    0.8340   -2.0687    0.0000 C   0  0  0  0  0  0  0  0  0  0  0  0
    0.8340   -1.2437    0.0000 C   0  0  0  0  0  0  0  0  0  0  0  0
    0.1195   -0.8312    0.0000 C   0  0  0  0  0  0  0  0  0  0  0  0
   -0.5949   -1.2437    0.0000 C   0  0  0  0  0  0  0  0  0  0  0  0
   -0.5949   -2.0687    0.0000 C   0  0  0  0  0  0  0  0  0  0  0  0
   -1.3094   -2.4812    0.0000 N   0  0  0  0  0  0  0  0  0  0  0  0
   -1.3094   -0.8312    0.0000 C   0  0  0  0  0  0  0  0  0  0  0  0
   -2.0239   -1.2437    0.0000 N   0  0  0  0  0  0  0  0  0  0  0  0
    0.1195   -0.0062    0.0000 N   0  0  0  0  0  0  0  0  0  0  0  0
   -0.5949    0.4063    0.0000 C   0  0  0  0  0  0  0  0  0  0  0  0
   -1.3094   -0.0062    0.0000 N   0  0  0  0  0  0  0  0  0  0  0  0
   -0.5949    1.2313    0.0000 C   0  0  0  0  0  0  0  0  0  0  0  0
   -1.3094    1.6438    0.0000 C   0  0  0  0  0  0  0  0  0  0  0  0
   -1.3094    2.4688    0.0000 C   0  0  0  0  0  0  0  0  0  0  0  0
   -2.0239    2.8813    0.0000 O   0  0  0  0  0  0  0  0  0  0  0  0
   -2.7383    2.4688    0.0000 C   0  0  0  0  0  0  0  0  0  0  0  0
   -0.5949    2.8813    0.0000 C   0  0  0  0  0  0  0  0  0  0  0  0
    0.1195    2.4688    0.0000 C   0  0  0  0  0  0  0  0  0  0  0  0
    0.1195    1.6438    0.0000 C   0  0  0  0  0  0  0  0  0  0  0  0
    0.8340    2.8813    0.0000 O   0  0  0  0  0  0  0  0  0  0  0  0
    1.5485    2.4688    0.0000 C   0  0  0  0  0  0  0  0  0  0  0  0
    3.1567   -0.7277    0.0000 H   0  0  0  0  0  0  0  0  0  0  0  0
    1.5485   -3.5132    0.0000 H   0  0  0  0  0  0  0  0  0  0  0  0
   -0.0597   -2.5847    0.0000 H   0  0  0  0  0  0  0  0  0  0  0  0
    0.3317   -2.6037    0.0000 H   0  0  0  0  0  0  0  0  0  0  0  0
   -0.5949   -3.1387    0.0000 H   0  0  0  0  0  0  0  0  0  0  0  0
   -2.1927   -1.9712    0.0000 H   0  0  0  0  0  0  0  0  0  0  0  0
   -1.3094   -3.5012    0.0000 H   0  0  0  0  0  0  0  0  0  0  0  0
   -2.8765   -0.7514    0.0000 H   0  0  0  0  0  0  0  0  0  0  0  0
   -2.0239   -2.2282    0.0000 H   0  0  0  0  0  0  0  0  0  0  0  0
   -2.2031    1.1278    0.0000 H   0  0  0  0  0  0  0  0  0  0  0  0
   -3.6650    3.0038    0.0000 H   0  0  0  0  0  0  0  0  0  0  0  0
   -2.7383    1.3988    0.0000 H   0  0  0  0  0  0  0  0  0  0  0  0
   -3.6649    1.9338    0.0000 H   0  0  0  0  0  0  0  0  0  0  0  0
   -0.5949    3.9133    0.0000 H   0  0  0  0  0  0  0  0  0  0  0  0
    1.0132    1.1278    0.0000 H   0  0  0  0  0  0  0  0  0  0  0  0
    1.5485    1.3988    0.0000 H   0  0  0  0  0  0  0  0  0  0  0  0
    2.4751    3.0038    0.0000 H   0  0  0  0  0  0  0  0  0  0  0  0
    2.4752    1.9338    0.0000 H   0  0  0  0  0  0  0  0  0  0  0  0
  1  2  1  0  0  0  0
  2  3  2  0  0  0  0
  2  8  1  0  0  0  0
  3  4  1  0  0  0  0
  3 28  1  0  0  0  0
  4  5  1  0  0  0  0
  4  6  2  0  0  0  0
  6  7  1  0  0  0  0
  6 29  1  0  0  0  0
  7  8  2  0  0  0  0
  7 30  1  0  0  0  0
  8  9  1  0  0  0  0
  9 10  2  0  0  0  0
  9 15  1  0  0  0  0
 10 11  1  0  0  0  0
 10 13  1  0  0  0  0
 11 12  1  0  0  0  0
 11 31  1  0  0  0  0
 11 32  1  0  0  0  0
 12 33  1  0  0  0  0
 12 34  1  0  0  0  0
 13 14  1  0  0  0  0
 13 17  2  0  0  0  0
 14 35  1  0  0  0  0
 14 36  1  0  0  0  0
 15 16  2  0  0  0  0
 16 17  1  0  0  0  0
 16 18  1  0  0  0  0
 18 19  1  0  0  0  0
 18 25  2  0  0  0  0
 19 20  2  0  0  0  0
 19 37  1  0  0  0  0
 20 21  1  0  0  0  0
 20 23  1  0  0  0  0
 21 22  1  0  0  0  0
 22 38  1  0  0  0  0
 22 39  1  0  0  0  0
 22 40  1  0  0  0  0
 23 24  2  0  0  0  0
 23 41  1  0  0  0  0
 24 25  1  0  0  0  0
 24 26  1  0  0  0  0
 25 42  1  0  0  0  0
 26 27  1  0  0  0  0
 27 43  1  0  0  0  0
 27 44  1  0  0  0  0
 27 45  1  0  0  0  0
M  END
>  <DRUGBANK_ID>
DB02004

>  <SECONDARY_ACCESSION_NUMBERS>
EXPT00239

>  <COMMON_NAME>
5-(Aminomethyl)-6-(2,4-Dichlorophenyl)-2-(3,5-Dimethoxyphenyl)Pyrimidin-4-Amine

$$$$
