
 OpenBabel10282417072D

 55 59  0  0  0  0  0  0  0  0999 V2000
    0.0797   -0.0140    0.0000 C   0  0  0  0  0  0  0  0  0  0  0  0
    0.7942   -0.4264    0.0000 C   0  0  0  0  0  0  0  0  0  0  0  0
    0.7942    1.2235    0.0000 C   0  0  0  0  0  0  0  0  0  0  0  0
   -0.6347    1.2235    0.0000 O   0  0  0  0  0  0  0  0  0  0  0  0
   -0.6347    2.0484    0.0000 C   0  0  0  0  0  0  0  0  0  0  0  0
   -1.3492    2.4609    0.0000 O   0  0  0  0  0  0  0  0  0  0  0  0
    0.0797    2.4609    0.0000 C   0  0  0  0  0  0  0  0  0  0  0  0
    2.2933    1.0659    0.0000 C   0  0  0  0  0  0  0  0  0  0  0  0
    2.7782    0.3984    0.0000 C   0  0  0  0  0  0  0  0  0  0  0  0
    2.2933   -0.2689    0.0000 C   0  0  0  0  0  0  0  0  0  0  0  0
    2.5482    1.8505    0.0000 O   0  0  0  0  0  0  0  0  0  0  0  0
    0.7942   -1.2514    0.0000 C   0  0  0  0  0  0  0  0  0  0  0  0
    0.0797   -1.6640    0.0000 C   0  0  0  0  0  0  0  0  0  0  0  0
   -0.6347   -1.2514    0.0000 C   0  0  0  0  0  0  0  0  0  0  0  0
   -1.3492   -1.6640    0.0000 C   0  0  0  0  0  0  0  0  0  0  0  0
   -2.0637   -1.2514    0.0000 C   0  0  0  0  0  0  0  0  0  0  0  0
   -2.0637   -0.4264    0.0000 O   0  0  0  0  0  0  0  0  0  0  0  0
   -1.3492    0.8110    0.0000 C   0  0  0  0  0  0  0  0  0  0  0  0
   -2.0637    1.2235    0.0000 O   0  0  0  0  0  0  0  0  0  0  0  0
   -2.0637    2.0484    0.0000 C   0  0  0  0  0  0  0  0  0  0  0  0
   -2.7781   -1.6640    0.0000 O   0  0  0  0  0  0  0  0  0  0  0  0
   -1.1356   -2.4609    0.0000 C   0  0  0  0  0  0  0  0  0  0  0  0
   -0.1338   -2.4609    0.0000 O   0  0  0  0  0  0  0  0  0  0  0  0
    1.5086   -1.6640    0.0000 O   0  0  0  0  0  0  0  0  0  0  0  0
   -1.3492   -0.0140    0.0000 C   0  0  2  0  0  0  0  0  0  0  0  0
   -0.6347   -0.4264    0.0000 C   0  0  2  0  0  0  0  0  0  0  0  0
   -0.6347    0.3984    0.0000 C   0  0  0  0  0  0  0  0  0  0  0  0
    0.0797    0.8110    0.0000 C   0  0  1  0  0  0  0  0  0  0  0  0
    1.5086    0.8110    0.0000 C   0  0  1  0  0  0  0  0  0  0  0  0
    1.5039    1.6232    0.0000 C   0  0  0  0  0  0  0  0  0  0  0  0
    1.5086   -0.0140    0.0000 C   0  0  2  0  0  0  0  0  0  0  0  0
    1.5536   -0.8262    0.0000 H   0  0  0  0  0  0  0  0  0  0  0  0
    0.7942    2.2935    0.0000 H   0  0  0  0  0  0  0  0  0  0  0  0
    1.7209    1.7585    0.0000 H   0  0  0  0  0  0  0  0  0  0  0  0
    1.0064    1.9259    0.0000 H   0  0  0  0  0  0  0  0  0  0  0  0
    0.0797    3.5309    0.0000 H   0  0  0  0  0  0  0  0  0  0  0  0
    1.0063    2.9959    0.0000 H   0  0  0  0  0  0  0  0  0  0  0  0
    3.8482    0.3983    0.0000 H   0  0  0  0  0  0  0  0  0  0  0  0
    3.2639   -0.5550    0.0000 H   0  0  0  0  0  0  0  0  0  0  0  0
    2.6239   -1.2865    0.0000 H   0  0  0  0  0  0  0  0  0  0  0  0
    1.5367   -1.0255    0.0000 H   0  0  0  0  0  0  0  0  0  0  0  0
   -0.4226    1.3460    0.0000 H   0  0  0  0  0  0  0  0  0  0  0  0
   -0.4226    0.2760    0.0000 H   0  0  0  0  0  0  0  0  0  0  0  0
   -1.1371    2.5834    0.0000 H   0  0  0  0  0  0  0  0  0  0  0  0
   -2.9903    2.5834    0.0000 H   0  0  0  0  0  0  0  0  0  0  0  0
   -2.0637    3.1184    0.0000 H   0  0  0  0  0  0  0  0  0  0  0  0
   -1.7638   -3.2797    0.0000 H   0  0  0  0  0  0  0  0  0  0  0  0
   -2.2758    0.5211    0.0000 H   0  0  0  0  0  0  0  0  0  0  0  0
    0.2919    0.9334    0.0000 H   0  0  0  0  0  0  0  0  0  0  0  0
   -1.5613    0.9334    0.0000 H   0  0  0  0  0  0  0  0  0  0  0  0
   -0.6347    1.4684    0.0000 H   0  0  0  0  0  0  0  0  0  0  0  0
   -0.8470    0.2760    0.0000 H   0  0  0  0  0  0  0  0  0  0  0  0
    2.4274    2.1636    0.0000 H   0  0  0  0  0  0  0  0  0  0  0  0
    0.5742    2.1528    0.0000 H   0  0  0  0  0  0  0  0  0  0  0  0
    1.4977    2.6932    0.0000 H   0  0  0  0  0  0  0  0  0  0  0  0
  1  2  2  0  0  0  0
  1 28  1  0  0  0  0
  2 12  1  0  0  0  0
  2 31  1  0  0  0  0
  3 33  1  0  0  0  0
  3 34  1  0  0  0  0
  4  5  1  0  0  0  0
  5  6  2  0  0  0  0
  5  7  1  0  0  0  0
  7 35  1  0  0  0  0
  7 36  1  0  0  0  0
  7 37  1  0  0  0  0
  8  9  1  0  0  0  0
  8 11  2  0  0  0  0
  9 38  1  0  0  0  0
  9 39  1  0  0  0  0
 10  9  1  0  0  0  0
 10 40  1  0  0  0  0
 10 41  1  0  0  0  0
 12 24  2  0  0  0  0
 13 12  1  0  0  0  0
 13 23  1  0  0  0  0
 14 13  2  0  0  0  0
 14 15  1  0  0  0  0
 15 16  1  0  0  0  0
 15 22  2  0  0  0  0
 16 21  2  0  0  0  0
 17 16  1  0  0  0  0
 17 25  1  0  0  0  0
 18 19  1  0  0  0  0
 18 42  1  0  0  0  0
 18 43  1  0  0  0  0
 19 20  1  0  0  0  0
 20 44  1  0  0  0  0
 20 45  1  0  0  0  0
 20 46  1  0  0  0  0
 22 47  1  0  0  0  0
 23 22  1  0  0  0  0
 25 18  1  0  0  0  0
 25 26  1  0  0  0  0
 25 48  1  1  0  0  0
 26 14  1  0  0  0  0
 26  1  1  0  0  0  0
 26 27  1  1  0  0  0
 27 49  1  0  0  0  0
 27 50  1  0  0  0  0
 27 51  1  0  0  0  0
 28  3  1  0  0  0  0
 28  4  1  0  0  0  0
 28 52  1  1  0  0  0
 29  3  1  0  0  0  0
 29  8  1  0  0  0  0
 29 30  1  1  0  0  0
 30 53  1  0  0  0  0
 30 54  1  0  0  0  0
 30 55  1  0  0  0  0
 31 29  1  0  0  0  0
 31 10  1  0  0  0  0
 31 32  1  6  0  0  0
M  END
>  <DRUGBANK_ID>
DB08059

>  <COMMON_NAME>
Wortmannin

>  <CAS_NUMBER>
19545-26-7

>  <UNII>
XVA4O219QW

>  <SYNONYMS>
Wartmannin

$$$$
