
 OpenBabel10282417072D

 43 45  0  0  0  0  0  0  0  0999 V2000
   -1.3596    1.4570    0.0000 C   0  0  0  0  0  0  0  0  0  0  0  0
   -1.3596    0.6320    0.0000 N   0  0  0  0  0  0  0  0  0  0  0  0
   -0.6450    0.2195    0.0000 C   0  0  0  0  0  0  0  0  0  0  0  0
    0.0693    0.6320    0.0000 C   0  0  1  0  0  0  0  0  0  0  0  0
    0.0693    1.4570    0.0000 C   0  0  1  0  0  0  0  0  0  0  0  0
   -0.6450    1.8695    0.0000 C   0  0  0  0  0  0  0  0  0  0  0  0
   -2.0740    0.2195    0.0000 C   0  0  0  0  0  0  0  0  0  0  0  0
   -2.7786    0.6264    0.0000 C   0  0  0  0  0  0  0  0  0  0  0  0
   -2.7783    1.4344    0.0000 C   0  0  0  0  0  0  0  0  0  0  0  0
   -2.0740   -0.6053    0.0000 O   0  0  0  0  0  0  0  0  0  0  0  0
   -2.7780    2.2594    0.0000 N   0  0  0  0  0  0  0  0  0  0  0  0
    0.7948    1.8760    0.0000 C   0  0  0  0  0  0  0  0  0  0  0  0
    0.7948    0.2131    0.0000 N   0  0  0  0  0  0  0  0  0  0  0  0
    1.5051    0.6230    0.0000 C   0  0  0  0  0  0  0  0  0  0  0  0
    0.7946   -0.6053    0.0000 C   0  0  0  0  0  0  0  0  0  0  0  0
    0.0732   -1.0218    0.0000 N   0  0  0  0  0  0  0  0  0  0  0  0
    0.0730   -1.8468    0.0000 C   0  0  0  0  0  0  0  0  0  0  0  0
    0.7875   -2.2594    0.0000 N   0  0  0  0  0  0  0  0  0  0  0  0
    1.5090   -1.8430    0.0000 C   0  0  0  0  0  0  0  0  0  0  0  0
    1.5091   -1.0180    0.0000 C   0  0  0  0  0  0  0  0  0  0  0  0
    2.2936   -2.0980    0.0000 N   0  0  0  0  0  0  0  0  0  0  0  0
    2.7786   -1.4307    0.0000 C   0  0  0  0  0  0  0  0  0  0  0  0
    2.2938   -0.7631    0.0000 C   0  0  0  0  0  0  0  0  0  0  0  0
   -2.2862    1.9920    0.0000 H   0  0  0  0  0  0  0  0  0  0  0  0
   -1.3595    2.5270    0.0000 H   0  0  0  0  0  0  0  0  0  0  0  0
   -0.6449   -0.8505    0.0000 H   0  0  0  0  0  0  0  0  0  0  0  0
    0.2817   -0.3154    0.0000 H   0  0  0  0  0  0  0  0  0  0  0  0
    0.0693   -0.4380    0.0000 H   0  0  0  0  0  0  0  0  0  0  0  0
    0.9960    0.9221    0.0000 H   0  0  0  0  0  0  0  0  0  0  0  0
   -0.6449    2.9395    0.0000 H   0  0  0  0  0  0  0  0  0  0  0  0
   -1.5716    2.4046    0.0000 H   0  0  0  0  0  0  0  0  0  0  0  0
   -3.7054    0.0916    0.0000 H   0  0  0  0  0  0  0  0  0  0  0  0
   -3.7051    1.1617    0.0000 H   0  0  0  0  0  0  0  0  0  0  0  0
    1.7215    1.3411    0.0000 H   0  0  0  0  0  0  0  0  0  0  0  0
    0.7947    2.9460    0.0000 H   0  0  0  0  0  0  0  0  0  0  0  0
    1.7214    2.4111    0.0000 H   0  0  0  0  0  0  0  0  0  0  0  0
    2.4316    0.0878    0.0000 H   0  0  0  0  0  0  0  0  0  0  0  0
    1.5053    1.6930    0.0000 H   0  0  0  0  0  0  0  0  0  0  0  0
    2.4319    1.1578    0.0000 H   0  0  0  0  0  0  0  0  0  0  0  0
   -0.8208   -2.3627    0.0000 H   0  0  0  0  0  0  0  0  0  0  0  0
    2.5977   -3.0344    0.0000 H   0  0  0  0  0  0  0  0  0  0  0  0
    3.8106   -1.4309    0.0000 H   0  0  0  0  0  0  0  0  0  0  0  0
    2.6129    0.2183    0.0000 H   0  0  0  0  0  0  0  0  0  0  0  0
  1  2  1  0  0  0  0
  1  6  1  0  0  0  0
  1 24  1  0  0  0  0
  1 25  1  0  0  0  0
  2  3  1  0  0  0  0
  2  7  1  0  0  0  0
  3  4  1  0  0  0  0
  3 26  1  0  0  0  0
  3 27  1  0  0  0  0
  4  5  1  0  0  0  0
  4 13  1  0  0  0  0
  4 28  1  6  0  0  0
  5  6  1  0  0  0  0
  5 12  1  0  0  0  0
  5 29  1  6  0  0  0
  6 30  1  0  0  0  0
  6 31  1  0  0  0  0
  7  8  1  0  0  0  0
  7 10  2  0  0  0  0
  8  9  1  0  0  0  0
  8 32  1  0  0  0  0
  8 33  1  0  0  0  0
  9 11  3  0  0  0  0
 12 34  1  0  0  0  0
 12 35  1  0  0  0  0
 12 36  1  0  0  0  0
 13 14  1  0  0  0  0
 13 15  1  0  0  0  0
 14 37  1  0  0  0  0
 14 38  1  0  0  0  0
 14 39  1  0  0  0  0
 15 16  2  0  0  0  0
 15 20  1  0  0  0  0
 16 17  1  0  0  0  0
 17 18  2  0  0  0  0
 17 40  1  0  0  0  0
 18 19  1  0  0  0  0
 19 20  2  0  0  0  0
 19 21  1  0  0  0  0
 20 23  1  0  0  0  0
 21 22  1  0  0  0  0
 21 41  1  0  0  0  0
 22 23  2  0  0  0  0
 22 42  1  0  0  0  0
 23 43  1  0  0  0  0
M  END
>  <DRUGBANK_ID>
DB08895

>  <SECONDARY_ACCESSION_NUMBERS>
DB08183

>  <COMMON_NAME>
Tofacitinib

>  <CAS_NUMBER>
477600-75-2

>  <UNII>
87LA6FU830

>  <SYNONYMS>
Tasocitinib; Tofacitinib; Tofacitinibum

$$$$
