TFL
 OpenBabel10282417072D

 37 39  0  0  0  0  0  0  0  0999 V2000
   -3.7271    0.2774    0.0000 C   0  0  0  0  0  0  0  0  0  0  0  0
   -3.3146    0.9919    0.0000 C   0  0  0  0  0  0  0  0  0  0  0  0
   -2.4896    0.9919    0.0000 C   0  0  0  0  0  0  0  0  0  0  0  0
   -2.0771    0.2774    0.0000 C   0  0  0  0  0  0  0  0  0  0  0  0
   -2.4896   -0.4371    0.0000 C   0  0  0  0  0  0  0  0  0  0  0  0
   -3.3146   -0.4371    0.0000 C   0  0  0  0  0  0  0  0  0  0  0  0
   -1.2521    0.2774    0.0000 C   0  0  0  0  0  0  0  0  0  0  0  0
   -0.7672   -0.3900    0.0000 N   0  3  0  0  0  0  0  0  0  0  0  0
    0.0175   -0.1351    0.0000 C   0  0  0  0  0  0  0  0  0  0  0  0
   -0.7672    0.9448    0.0000 S   0  0  0  0  0  0  0  0  0  0  0  0
    0.0175    0.6899    0.0000 C   0  0  0  0  0  0  0  0  0  0  0  0
    0.7319    1.1024    0.0000 C   0  0  0  0  0  0  0  0  0  0  0  0
    1.4464    0.6899    0.0000 C   0  0  0  0  0  0  0  0  0  0  0  0
    1.4464   -0.1351    0.0000 C   0  0  0  0  0  0  0  0  0  0  0  0
    0.7319   -0.5476    0.0000 C   0  0  0  0  0  0  0  0  0  0  0  0
    2.1609    1.1024    0.0000 O   0  0  0  0  0  0  0  0  0  0  0  0
   -4.5521    0.2774    0.0000 N   0  0  0  0  0  0  0  0  0  0  0  0
   -4.9646   -0.4371    0.0000 C   0  0  0  0  0  0  0  0  0  0  0  0
   -4.9646    0.9919    0.0000 C   0  0  0  0  0  0  0  0  0  0  0  0
   -1.0221   -1.1747    0.0000 C   0  0  0  0  0  0  0  0  0  0  0  0
   -3.8306    1.8856    0.0000 H   0  0  0  0  0  0  0  0  0  0  0  0
   -1.9736    1.8856    0.0000 H   0  0  0  0  0  0  0  0  0  0  0  0
   -1.9736   -1.3308    0.0000 H   0  0  0  0  0  0  0  0  0  0  0  0
   -3.8306   -1.3308    0.0000 H   0  0  0  0  0  0  0  0  0  0  0  0
    0.7319    2.1344    0.0000 H   0  0  0  0  0  0  0  0  0  0  0  0
    2.3401   -0.6511    0.0000 H   0  0  0  0  0  0  0  0  0  0  0  0
    0.7319   -1.5796    0.0000 H   0  0  0  0  0  0  0  0  0  0  0  0
    2.9724    0.6339    0.0000 H   0  0  0  0  0  0  0  0  0  0  0  0
   -6.0346   -0.4371    0.0000 H   0  0  0  0  0  0  0  0  0  0  0  0
   -4.4296   -1.3637    0.0000 H   0  0  0  0  0  0  0  0  0  0  0  0
   -5.4996   -1.3638    0.0000 H   0  0  0  0  0  0  0  0  0  0  0  0
   -4.4296    1.9185    0.0000 H   0  0  0  0  0  0  0  0  0  0  0  0
   -6.0346    0.9919    0.0000 H   0  0  0  0  0  0  0  0  0  0  0  0
   -5.4996    1.9186    0.0000 H   0  0  0  0  0  0  0  0  0  0  0  0
   -2.0687   -1.3972    0.0000 H   0  0  0  0  0  0  0  0  0  0  0  0
   -0.3061   -1.9698    0.0000 H   0  0  0  0  0  0  0  0  0  0  0  0
   -1.3527   -2.1924    0.0000 H   0  0  0  0  0  0  0  0  0  0  0  0
  1  2  1  0  0  0  0
  1  6  2  0  0  0  0
  1 17  1  0  0  0  0
  2  3  2  0  0  0  0
  2 21  1  0  0  0  0
  3  4  1  0  0  0  0
  3 22  1  0  0  0  0
  4  5  2  0  0  0  0
  4  7  1  0  0  0  0
  5  6  1  0  0  0  0
  5 23  1  0  0  0  0
  6 24  1  0  0  0  0
  7  8  2  0  0  0  0
  7 10  1  0  0  0  0
  8  9  1  0  0  0  0
  8 20  1  0  0  0  0
  9 11  1  0  0  0  0
  9 15  2  0  0  0  0
 10 11  1  0  0  0  0
 11 12  2  0  0  0  0
 12 13  1  0  0  0  0
 12 25  1  0  0  0  0
 13 14  2  0  0  0  0
 13 16  1  0  0  0  0
 14 15  1  0  0  0  0
 14 26  1  0  0  0  0
 15 27  1  0  0  0  0
 16 28  1  0  0  0  0
 17 18  1  0  0  0  0
 17 19  1  0  0  0  0
 18 29  1  0  0  0  0
 18 30  1  0  0  0  0
 18 31  1  0  0  0  0
 19 32  1  0  0  0  0
 19 33  1  0  0  0  0
 19 34  1  0  0  0  0
 20 35  1  0  0  0  0
 20 36  1  0  0  0  0
 20 37  1  0  0  0  0
M  CHG  1   8   1
M  END
>  <DRUGBANK_ID>
DB08615

>  <COMMON_NAME>
2-[4-(DIMETHYLAMINO)PHENYL]-6-HYDROXY-3-METHYL-1,3-BENZOTHIAZOL-3-IUM

$$$$
