
 OpenBabel10282417072D

 37 40  0  0  0  0  0  0  0  0999 V2000
   -0.7145    2.0035    0.0000 C   0  0  0  0  0  0  0  0  0  0  0  0
   -1.4289    2.4161    0.0000 C   0  0  0  0  0  0  0  0  0  0  0  0
   -2.1436    2.0035    0.0000 C   0  0  0  0  0  0  0  0  0  0  0  0
   -2.1436    1.1786    0.0000 C   0  0  0  0  0  0  0  0  0  0  0  0
   -1.4289    0.7661    0.0000 C   0  0  0  0  0  0  0  0  0  0  0  0
   -0.7145    1.1786    0.0000 C   0  0  0  0  0  0  0  0  0  0  0  0
    0.0000    0.7661    0.0000 C   0  0  0  0  0  0  0  0  0  0  0  0
    0.7146    1.1786    0.0000 C   0  0  0  0  0  0  0  0  0  0  0  0
    0.7146    2.0035    0.0000 C   0  0  0  0  0  0  0  0  0  0  0  0
    0.0000    2.4161    0.0000 O   0  0  0  0  0  0  0  0  0  0  0  0
    1.4290    2.4161    0.0000 C   0  0  0  0  0  0  0  0  0  0  0  0
    1.4290    0.7661    0.0000 C   0  0  0  0  0  0  0  0  0  0  0  0
    2.1435    1.1786    0.0000 C   0  0  0  0  0  0  0  0  0  0  0  0
    2.1435    2.0035    0.0000 C   0  0  0  0  0  0  0  0  0  0  0  0
   -0.0001   -0.7661    0.0000 C   0  0  0  0  0  0  0  0  0  0  0  0
   -0.7145   -1.1786    0.0000 C   0  0  0  0  0  0  0  0  0  0  0  0
   -0.7145   -2.0036    0.0000 C   0  0  0  0  0  0  0  0  0  0  0  0
   -0.0001   -2.4162    0.0000 C   0  0  0  0  0  0  0  0  0  0  0  0
    0.7145   -2.0036    0.0000 C   0  0  0  0  0  0  0  0  0  0  0  0
    0.7145   -1.1786    0.0000 C   0  0  0  0  0  0  0  0  0  0  0  0
    1.4289   -0.7661    0.0000 C   0  0  0  0  0  0  0  0  0  0  0  0
    2.1434   -1.1786    0.0000 O   0  0  0  0  0  0  0  0  0  0  0  0
    1.4289    0.0589    0.0000 O   0  0  0  0  0  0  0  0  0  0  0  0
    2.8580    2.4161    0.0000 O   0  0  0  0  0  0  0  0  0  0  0  0
   -2.8580    2.4161    0.0000 O   0  0  0  0  0  0  0  0  0  0  0  0
   -1.4289   -0.7661    0.0000 Cl  0  0  0  0  0  0  0  0  0  0  0  0
   -1.4289   -2.4162    0.0000 Cl  0  0  0  0  0  0  0  0  0  0  0  0
   -0.0001   -3.2412    0.0000 Cl  0  0  0  0  0  0  0  0  0  0  0  0
    1.4289   -2.4162    0.0000 Cl  0  0  0  0  0  0  0  0  0  0  0  0
   -2.8580    0.7661    0.0000 I   0  0  0  0  0  0  0  0  0  0  0  0
   -1.4289    3.2412    0.0000 I   0  0  0  0  0  0  0  0  0  0  0  0
    1.4290    3.2412    0.0000 I   0  0  0  0  0  0  0  0  0  0  0  0
    2.8580    0.7661    0.0000 I   0  0  0  0  0  0  0  0  0  0  0  0
   -1.4288   -0.2659    0.0000 H   0  0  0  0  0  0  0  0  0  0  0  0
    1.4290   -0.2659    0.0000 H   0  0  0  0  0  0  0  0  0  0  0  0
    2.1434   -2.1156    0.0000 H   0  0  0  0  0  0  0  0  0  0  0  0
   -2.8579    3.3531    0.0000 H   0  0  0  0  0  0  0  0  0  0  0  0
  1  2  2  0  0  0  0
  1  6  1  0  0  0  0
  1 10  1  0  0  0  0
  2  3  1  0  0  0  0
  2 31  1  0  0  0  0
  3  4  2  0  0  0  0
  3 25  1  0  0  0  0
  4  5  1  0  0  0  0
  4 30  1  0  0  0  0
  5  6  2  0  0  0  0
  5 34  1  0  0  0  0
  6  7  1  0  0  0  0
  7  8  2  0  0  0  0
  7 15  1  0  0  0  0
  8 12  1  0  0  0  0
  9 10  1  0  0  0  0
  9  8  1  0  0  0  0
 11  9  2  0  0  0  0
 11 14  1  0  0  0  0
 11 32  1  0  0  0  0
 12 13  2  0  0  0  0
 12 35  1  0  0  0  0
 13 14  1  0  0  0  0
 13 33  1  0  0  0  0
 14 24  2  0  0  0  0
 15 16  2  0  0  0  0
 15 20  1  0  0  0  0
 16 17  1  0  0  0  0
 16 26  1  0  0  0  0
 17 18  2  0  0  0  0
 17 27  1  0  0  0  0
 18 19  1  0  0  0  0
 18 28  1  0  0  0  0
 19 20  2  0  0  0  0
 19 29  1  0  0  0  0
 20 21  1  0  0  0  0
 21 22  1  0  0  0  0
 21 23  2  0  0  0  0
 22 36  1  0  0  0  0
 25 37  1  0  0  0  0
M  END
>  <DRUGBANK_ID>
DB11182

>  <COMMON_NAME>
Rose bengal

$$$$
