ChEBI
 OpenBabel10282417072D

 82 84  0  0  1  0  0  0  0  0999 V2000
   15.2041  -13.6449    0.0000 C   0  0  2  0  0  0  0  0  0  0  0  0
   15.2041  -12.8200    0.0000 C   0  0  0  0  0  0  0  0  0  0  0  0
   14.4892  -12.4075    0.0000 C   0  0  0  0  0  0  0  0  0  0  0  0
   13.8017  -12.8200    0.0000 C   0  0  2  0  0  0  0  0  0  0  0  0
   13.8017  -13.6449    0.0000 C   0  0  2  0  0  0  0  0  0  0  0  0
   14.4892  -14.0574    0.0000 O   0  0  0  0  0  0  0  0  0  0  0  0
   13.0867  -14.0574    0.0000 O   0  0  0  0  0  0  0  0  0  0  0  0
   13.0867  -14.8823    0.0000 C   0  0  1  0  0  0  0  0  0  0  0  0
   12.3718  -15.2949    0.0000 C   0  0  1  0  0  0  0  0  0  0  0  0
   12.3718  -16.1198    0.0000 C   0  0  2  0  0  0  0  0  0  0  0  0
   13.0592  -16.5323    0.0000 C   0  0  1  0  0  0  0  0  0  0  0  0
   13.7742  -16.1198    0.0000 C   0  0  0  0  0  0  0  0  0  0  0  0
   13.7742  -15.2949    0.0000 C   0  0  2  0  0  0  0  0  0  0  0  0
   11.6568  -16.5323    0.0000 O   0  0  0  0  0  0  0  0  0  0  0  0
   15.9191  -14.0574    0.0000 C   0  0  0  0  0  0  0  0  0  0  0  0
   13.0867  -12.4075    0.0000 N   0  0  0  0  0  0  0  0  0  0  0  0
   14.4892  -14.8823    0.0000 N   0  0  0  0  0  0  0  0  0  0  0  0
   11.6568  -14.8823    0.0000 O   0  0  0  0  0  0  0  0  0  0  0  0
   15.9191  -14.8823    0.0000 N   0  0  0  0  0  0  0  0  0  0  0  0
   10.9143  -16.9448    0.0000 C   0  0  1  0  0  0  0  0  0  0  0  0
   10.2268  -16.5323    0.0000 O   0  0  0  0  0  0  0  0  0  0  0  0
    9.4844  -16.9448    0.0000 C   0  0  1  0  0  0  0  0  0  0  0  0
    9.4844  -17.7698    0.0000 C   0  0  2  0  0  0  0  0  0  0  0  0
   10.1994  -18.1822    0.0000 C   0  0  1  0  0  0  0  0  0  0  0  0
   10.9143  -17.7698    0.0000 C   0  0  1  0  0  0  0  0  0  0  0  0
    8.7969  -16.5048    0.0000 C   0  0  0  0  0  0  0  0  0  0  0  0
    8.0545  -16.9173    0.0000 O   0  0  0  0  0  0  0  0  0  0  0  0
    8.7694  -18.1547    0.0000 O   0  0  0  0  0  0  0  0  0  0  0  0
   10.1994  -19.0072    0.0000 N   0  0  0  0  0  0  0  0  0  0  0  0
   11.6293  -18.1822    0.0000 O   0  0  0  0  0  0  0  0  0  0  0  0
   13.0592  -17.3573    0.0000 N   0  0  0  0  0  0  0  0  0  0  0  0
   15.2026  -17.7698    0.0000 C   0  0  0  0  0  0  0  0  0  0  0  0
   15.9171  -17.3573    0.0000 C   0  0  0  0  0  0  0  0  0  0  0  0
   16.6316  -17.7698    0.0000 N   0  0  0  0  0  0  0  0  0  0  0  0
   13.7737  -17.7698    0.0000 C   0  0  0  0  0  0  0  0  0  0  0  0
   13.7737  -18.5948    0.0000 O   0  0  0  0  0  0  0  0  0  0  0  0
   14.4882  -17.3573    0.0000 C   0  0  1  0  0  0  0  0  0  0  0  0
   14.4882  -16.5323    0.0000 O   0  0  0  0  0  0  0  0  0  0  0  0
   15.2041  -14.7149    0.0000 H   0  0  0  0  0  0  0  0  0  0  0  0
   16.1307  -12.2849    0.0000 H   0  0  0  0  0  0  0  0  0  0  0  0
   15.2039  -11.7500    0.0000 H   0  0  0  0  0  0  0  0  0  0  0  0
   14.4801  -11.3375    0.0000 H   0  0  0  0  0  0  0  0  0  0  0  0
   13.5558  -11.8843    0.0000 H   0  0  0  0  0  0  0  0  0  0  0  0
   13.7925  -11.7500    0.0000 H   0  0  0  0  0  0  0  0  0  0  0  0
   12.8751  -13.1098    0.0000 H   0  0  0  0  0  0  0  0  0  0  0  0
   14.0178  -14.3552    0.0000 H   0  0  0  0  0  0  0  0  0  0  0  0
   12.3718  -14.2249    0.0000 H   0  0  0  0  0  0  0  0  0  0  0  0
   11.4452  -15.5847    0.0000 H   0  0  0  0  0  0  0  0  0  0  0  0
   13.9858  -17.0674    0.0000 H   0  0  0  0  0  0  0  0  0  0  0  0
   14.7008  -16.6549    0.0000 H   0  0  0  0  0  0  0  0  0  0  0  0
   14.7009  -15.5849    0.0000 H   0  0  0  0  0  0  0  0  0  0  0  0
   14.7008  -15.8300    0.0000 H   0  0  0  0  0  0  0  0  0  0  0  0
   16.8457  -13.5223    0.0000 H   0  0  0  0  0  0  0  0  0  0  0  0
   16.8458  -14.5923    0.0000 H   0  0  0  0  0  0  0  0  0  0  0  0
   13.0864  -11.3875    0.0000 H   0  0  0  0  0  0  0  0  0  0  0  0
   12.2035  -12.9178    0.0000 H   0  0  0  0  0  0  0  0  0  0  0  0
   15.3724  -15.3925    0.0000 H   0  0  0  0  0  0  0  0  0  0  0  0
   14.4894  -13.8623    0.0000 H   0  0  0  0  0  0  0  0  0  0  0  0
   11.6566  -13.9123    0.0000 H   0  0  0  0  0  0  0  0  0  0  0  0
   15.0358  -15.3923    0.0000 H   0  0  0  0  0  0  0  0  0  0  0  0
   16.8024  -15.3923    0.0000 H   0  0  0  0  0  0  0  0  0  0  0  0
   11.8365  -17.4874    0.0000 H   0  0  0  0  0  0  0  0  0  0  0  0
    9.5176  -15.8753    0.0000 H   0  0  0  0  0  0  0  0  0  0  0  0
    8.5658  -17.2211    0.0000 H   0  0  0  0  0  0  0  0  0  0  0  0
    9.2729  -18.7174    0.0000 H   0  0  0  0  0  0  0  0  0  0  0  0
   11.8408  -17.2346    0.0000 H   0  0  0  0  0  0  0  0  0  0  0  0
    8.8301  -15.4353    0.0000 H   0  0  0  0  0  0  0  0  0  0  0  0
    7.8832  -15.9479    0.0000 H   0  0  0  0  0  0  0  0  0  0  0  0
    7.2225  -16.4186    0.0000 H   0  0  0  0  0  0  0  0  0  0  0  0
    7.9442  -17.6449    0.0000 H   0  0  0  0  0  0  0  0  0  0  0  0
    9.3161  -19.5172    0.0000 H   0  0  0  0  0  0  0  0  0  0  0  0
   11.0827  -19.5172    0.0000 H   0  0  0  0  0  0  0  0  0  0  0  0
   11.6297  -19.1522    0.0000 H   0  0  0  0  0  0  0  0  0  0  0  0
   12.2066  -17.8496    0.0000 H   0  0  0  0  0  0  0  0  0  0  0  0
   15.2026  -18.8398    0.0000 H   0  0  0  0  0  0  0  0  0  0  0  0
   16.1292  -18.3048    0.0000 H   0  0  0  0  0  0  0  0  0  0  0  0
   15.9171  -16.2873    0.0000 H   0  0  0  0  0  0  0  0  0  0  0  0
   16.8437  -16.8223    0.0000 H   0  0  0  0  0  0  0  0  0  0  0  0
   16.6316  -18.7898    0.0000 H   0  0  0  0  0  0  0  0  0  0  0  0
   17.5149  -17.2598    0.0000 H   0  0  0  0  0  0  0  0  0  0  0  0
   13.5616  -16.8223    0.0000 H   0  0  0  0  0  0  0  0  0  0  0  0
   15.3282  -16.0473    0.0000 H   0  0  0  0  0  0  0  0  0  0  0  0
  1 15  1  0  0  0  0
  1  2  1  0  0  0  0
  1 39  1  6  0  0  0
  2  3  1  0  0  0  0
  2 40  1  0  0  0  0
  2 41  1  0  0  0  0
  3  4  1  0  0  0  0
  3 42  1  0  0  0  0
  3 43  1  0  0  0  0
  4 16  1  0  0  0  0
  4  5  1  0  0  0  0
  4 44  1  1  0  0  0
  5  7  1  0  0  0  0
  5  6  1  0  0  0  0
  5 45  1  1  0  0  0
  6  1  1  0  0  0  0
  8  7  1  0  0  0  0
  8  9  1  0  0  0  0
  8 46  1  1  0  0  0
  9 18  1  0  0  0  0
  9 10  1  0  0  0  0
  9 47  1  6  0  0  0
 10 14  1  0  0  0  0
 10 11  1  0  0  0  0
 10 48  1  1  0  0  0
 11 12  1  0  0  0  0
 11 31  1  0  0  0  0
 11 49  1  6  0  0  0
 12 13  1  0  0  0  0
 12 50  1  0  0  0  0
 12 51  1  0  0  0  0
 13  8  1  0  0  0  0
 13 17  1  0  0  0  0
 13 52  1  6  0  0  0
 15 19  1  0  0  0  0
 15 53  1  0  0  0  0
 15 54  1  0  0  0  0
 16 55  1  0  0  0  0
 16 56  1  0  0  0  0
 17 57  1  0  0  0  0
 17 58  1  0  0  0  0
 18 59  1  0  0  0  0
 19 60  1  0  0  0  0
 19 61  1  0  0  0  0
 20 14  1  0  0  0  0
 20 21  1  0  0  0  0
 20 62  1  1  0  0  0
 21 22  1  0  0  0  0
 22 26  1  0  0  0  0
 22 23  1  0  0  0  0
 22 63  1  6  0  0  0
 23 28  1  0  0  0  0
 23 24  1  0  0  0  0
 23 64  1  1  0  0  0
 24 29  1  0  0  0  0
 24 25  1  0  0  0  0
 24 65  1  6  0  0  0
 25 20  1  0  0  0  0
 25 30  1  0  0  0  0
 25 66  1  1  0  0  0
 26 27  1  0  0  0  0
 26 67  1  0  0  0  0
 26 68  1  0  0  0  0
 27 69  1  0  0  0  0
 28 70  1  0  0  0  0
 29 71  1  0  0  0  0
 29 72  1  0  0  0  0
 30 73  1  0  0  0  0
 31 35  1  0  0  0  0
 31 74  1  0  0  0  0
 32 33  1  0  0  0  0
 32 75  1  0  0  0  0
 32 76  1  0  0  0  0
 33 34  1  0  0  0  0
 33 77  1  0  0  0  0
 33 78  1  0  0  0  0
 34 79  1  0  0  0  0
 34 80  1  0  0  0  0
 35 37  1  0  0  0  0
 35 36  2  0  0  0  0
 37 32  1  0  0  0  0
 37 38  1  0  0  0  0
 37 81  1  6  0  0  0
 38 82  1  0  0  0  0
M  END
>  <DRUGBANK_ID>
DB06696

>  <COMMON_NAME>
Arbekacin

>  <CAS_NUMBER>
51025-85-5

>  <UNII>
G7V6SLI20L

>  <SYNONYMS>
ABK; Arbekacin; Arbekacina; Arbekacine; Arbekacinum; Haberacin

$$$$
