
 OpenBabel10282417072D

 20 21  0  0  0  0  0  0  0  0999 V2000
    4.5149    1.0305    0.0000 C   0  0  0  0  0  0  0  0  0  0  0  0
    4.1569    1.7738    0.0000 C   0  0  0  0  0  0  0  0  0  0  0  0
    4.1569    0.2872    0.0000 C   0  0  0  0  0  0  0  0  0  0  0  0
    3.3526    1.9574    0.0000 C   0  0  0  0  0  0  0  0  0  0  0  0
    3.3526    0.1036    0.0000 C   0  0  0  0  0  0  0  0  0  0  0  0
    2.7076    1.4430    0.0000 C   0  0  0  0  0  0  0  0  0  0  0  0
    1.9230    1.6979    0.0000 N   0  0  0  0  0  0  0  0  0  0  0  0
    1.4380    1.0305    0.0000 N   0  0  0  0  0  0  0  0  0  0  0  0
    1.9230    0.3631    0.0000 N   0  0  0  0  0  0  0  0  0  0  0  0
    2.7076    0.6180    0.0000 N   0  0  0  0  0  0  0  0  0  0  0  0
    5.5849    1.0305    0.0000 H   0  0  0  0  0  0  0  0  0  0  0  0
    5.0842    0.1245    0.0000 H   0  0  0  0  0  0  0  0  0  0  0  0
    4.8240    2.6104    0.0000 H   0  0  0  0  0  0  0  0  0  0  0  0
    3.8035    2.7838    0.0000 H   0  0  0  0  0  0  0  0  0  0  0  0
    4.8240   -0.5494    0.0000 H   0  0  0  0  0  0  0  0  0  0  0  0
    3.8035   -0.7228    0.0000 H   0  0  0  0  0  0  0  0  0  0  0  0
    3.1145    3.0006    0.0000 H   0  0  0  0  0  0  0  0  0  0  0  0
    2.3426    2.3108    0.0000 H   0  0  0  0  0  0  0  0  0  0  0  0
    3.1145   -0.9396    0.0000 H   0  0  0  0  0  0  0  0  0  0  0  0
    2.3426   -0.2498    0.0000 H   0  0  0  0  0  0  0  0  0  0  0  0
  1 11  1  0  0  0  0
  1 12  1  0  0  0  0
  2  1  1  0  0  0  0
  2 13  1  0  0  0  0
  2 14  1  0  0  0  0
  3  1  1  0  0  0  0
  3 15  1  0  0  0  0
  3 16  1  0  0  0  0
  4  2  1  0  0  0  0
  4 17  1  0  0  0  0
  4 18  1  0  0  0  0
  5  3  1  0  0  0  0
  5 19  1  0  0  0  0
  5 20  1  0  0  0  0
  6  4  1  0  0  0  0
  7  6  2  0  0  0  0
  8  7  1  0  0  0  0
  9  8  2  0  0  0  0
 10  5  1  0  0  0  0
 10  6  1  0  0  0  0
 10  9  1  0  0  0  0
M  END
>  <DRUGBANK_ID>
DB13415

>  <COMMON_NAME>
Pentetrazol

>  <CAS_NUMBER>
54-95-5

>  <UNII>
WM5Z385K7T

>  <SYNONYMS>
Pentetrazol; Pentylenetetrazol

$$$$
