
 OpenBabel10282417072D

 38 37  0  0  0  0  0  0  0  0999 V2000
   -0.7139    0.0050    0.0000 C   0  0  0  0  0  0  0  0  0  0  0  0
   -0.7139   -0.8197    0.0000 C   0  0  0  0  0  0  0  0  0  0  0  0
   -1.4284    0.4176    0.0000 C   0  0  0  0  0  0  0  0  0  0  0  0
   -1.4284   -1.2323    0.0000 C   0  0  0  0  0  0  0  0  0  0  0  0
   -2.1428    0.0050    0.0000 C   0  0  0  0  0  0  0  0  0  0  0  0
   -2.1428   -0.8197    0.0000 C   0  0  0  0  0  0  0  0  0  0  0  0
    0.7148    0.0050    0.0000 C   0  0  0  0  0  0  0  0  0  0  0  0
    0.7148   -0.8197    0.0000 C   0  0  0  0  0  0  0  0  0  0  0  0
    0.0004    0.4176    0.0000 C   0  0  0  0  0  0  0  0  0  0  0  0
    0.0004   -1.2323    0.0000 C   0  0  0  0  0  0  0  0  0  0  0  0
    1.4340    0.4075    0.0000 C   0  0  0  0  0  0  0  0  0  0  0  0
    2.1428   -0.0144    0.0000 O   0  0  0  0  0  0  0  0  0  0  0  0
    1.4450    1.2324    0.0000 O   0  0  0  0  0  0  0  0  0  0  0  0
    1.4293   -1.2324    0.0000 C   0  0  0  0  0  0  0  0  0  0  0  0
   -0.7138   -1.0650    0.0000 H   0  0  0  0  0  0  0  0  0  0  0  0
    0.2128   -0.5299    0.0000 H   0  0  0  0  0  0  0  0  0  0  0  0
   -0.7138    0.2503    0.0000 H   0  0  0  0  0  0  0  0  0  0  0  0
    0.2128   -0.2848    0.0000 H   0  0  0  0  0  0  0  0  0  0  0  0
   -1.4284    1.4876    0.0000 H   0  0  0  0  0  0  0  0  0  0  0  0
   -2.3551    0.9525    0.0000 H   0  0  0  0  0  0  0  0  0  0  0  0
   -1.4284   -2.3023    0.0000 H   0  0  0  0  0  0  0  0  0  0  0  0
   -2.3551   -1.7672    0.0000 H   0  0  0  0  0  0  0  0  0  0  0  0
   -3.0695    0.5399    0.0000 H   0  0  0  0  0  0  0  0  0  0  0  0
   -3.0694   -0.5300    0.0000 H   0  0  0  0  0  0  0  0  0  0  0  0
   -3.0695   -1.3546    0.0000 H   0  0  0  0  0  0  0  0  0  0  0  0
   -3.0694   -0.2847    0.0000 H   0  0  0  0  0  0  0  0  0  0  0  0
    0.7076   -1.0650    0.0000 H   0  0  0  0  0  0  0  0  0  0  0  0
    1.6360   -0.5393    0.0000 H   0  0  0  0  0  0  0  0  0  0  0  0
    0.7148    0.2503    0.0000 H   0  0  0  0  0  0  0  0  0  0  0  0
    1.6415   -0.2848    0.0000 H   0  0  0  0  0  0  0  0  0  0  0  0
    0.0004    1.4876    0.0000 H   0  0  0  0  0  0  0  0  0  0  0  0
   -0.9263    0.9525    0.0000 H   0  0  0  0  0  0  0  0  0  0  0  0
    0.0004   -2.3023    0.0000 H   0  0  0  0  0  0  0  0  0  0  0  0
   -0.9263   -1.7672    0.0000 H   0  0  0  0  0  0  0  0  0  0  0  0
    2.1303   -0.9513    0.0000 H   0  0  0  0  0  0  0  0  0  0  0  0
    1.4291   -2.3024    0.0000 H   0  0  0  0  0  0  0  0  0  0  0  0
    2.3561   -0.6976    0.0000 H   0  0  0  0  0  0  0  0  0  0  0  0
    2.3558   -1.7676    0.0000 H   0  0  0  0  0  0  0  0  0  0  0  0
  1  9  1  0  0  0  0
  1 15  1  0  0  0  0
  1 16  1  0  0  0  0
  2 10  1  0  0  0  0
  2 17  1  0  0  0  0
  2 18  1  0  0  0  0
  3  1  1  0  0  0  0
  3 19  1  0  0  0  0
  3 20  1  0  0  0  0
  4  2  1  0  0  0  0
  4 21  1  0  0  0  0
  4 22  1  0  0  0  0
  5  3  1  0  0  0  0
  5 23  1  0  0  0  0
  5 24  1  0  0  0  0
  6  4  1  0  0  0  0
  6  5  1  0  0  0  0
  6 25  1  0  0  0  0
  6 26  1  0  0  0  0
  7 11  1  0  0  0  0
  7 27  1  0  0  0  0
  7 28  1  0  0  0  0
  8 14  1  0  0  0  0
  8 29  1  0  0  0  0
  8 30  1  0  0  0  0
  9  7  1  0  0  0  0
  9 31  1  0  0  0  0
  9 32  1  0  0  0  0
 10  8  1  0  0  0  0
 10 33  1  0  0  0  0
 10 34  1  0  0  0  0
 11 12  1  0  0  0  0
 11 13  2  0  0  0  0
 12 35  1  0  0  0  0
 14 36  1  0  0  0  0
 14 37  1  0  0  0  0
 14 38  1  0  0  0  0
M  END
>  <DRUGBANK_ID>
DB03017

>  <SECONDARY_ACCESSION_NUMBERS>
EXPT01112; EXPT02006

>  <COMMON_NAME>
Lauric acid

>  <CAS_NUMBER>
143-07-7

>  <UNII>
1160N9NU9U

>  <SYNONYMS>
1-undecanecarboxylic acid; ABL; C12 fatty acid; C12:0; Coconut oil fatty acids; DAO; Dodecanoic acid; Dodecoic acid; Dodecylcarboxylate; Dodecylic acid; Duodecyclic acid; Duodecylic acid; Laurins√§ure; Laurostearic acid; n-dodecanoic acid; Undecane-1-carboxylic acid; Vulvic acid

$$$$
