I17
 OpenBabel10282417072D

 61 65  0  0  0  0  0  0  0  0999 V2000
   -1.8720    1.7963    0.0000 C   0  0  0  0  0  0  0  0  0  0  0  0
   -1.6170    1.0116    0.0000 N   0  0  0  0  0  0  0  0  0  0  0  0
   -0.8324    0.7567    0.0000 C   0  0  0  0  0  0  0  0  0  0  0  0
   -0.1179    1.1692    0.0000 N   0  0  0  0  0  0  0  0  0  0  0  0
    0.5965    0.7567    0.0000 C   0  0  0  0  0  0  0  0  0  0  0  0
   -0.1179   -0.4808    0.0000 C   0  0  0  0  0  0  0  0  0  0  0  0
    0.5965   -0.0683    0.0000 N   0  0  0  0  0  0  0  0  0  0  0  0
   -0.8324   -0.0683    0.0000 C   0  0  0  0  0  0  0  0  0  0  0  0
   -1.6170   -0.3232    0.0000 N   0  0  0  0  0  0  0  0  0  0  0  0
   -2.1020    0.3442    0.0000 C   0  0  0  0  0  0  0  0  0  0  0  0
   -0.1179   -1.3058    0.0000 N   0  0  0  0  0  0  0  0  0  0  0  0
   -0.8324   -1.7183    0.0000 C   0  0  0  0  0  0  0  0  0  0  0  0
   -0.1179   -2.9558    0.0000 C   0  0  0  0  0  0  0  0  0  0  0  0
   -0.1179   -3.7808    0.0000 C   0  0  0  0  0  0  0  0  0  0  0  0
   -0.8324   -4.1933    0.0000 C   0  0  0  0  0  0  0  0  0  0  0  0
   -1.5469   -3.7808    0.0000 C   0  0  0  0  0  0  0  0  0  0  0  0
   -1.5469   -2.9558    0.0000 C   0  0  0  0  0  0  0  0  0  0  0  0
   -0.8324   -2.5433    0.0000 C   0  0  0  0  0  0  0  0  0  0  0  0
    1.3110    1.1692    0.0000 N   0  0  0  0  0  0  0  0  0  0  0  0
    2.0255    0.7567    0.0000 C   0  0  1  0  0  0  0  0  0  0  0  0
    3.4544   -0.0683    0.0000 C   0  0  1  0  0  0  0  0  0  0  0  0
    3.4544    0.7567    0.0000 C   0  0  0  0  0  0  0  0  0  0  0  0
    2.7399    1.1692    0.0000 C   0  0  0  0  0  0  0  0  0  0  0  0
    2.0255   -0.0683    0.0000 C   0  0  0  0  0  0  0  0  0  0  0  0
    2.7399   -0.4808    0.0000 C   0  0  0  0  0  0  0  0  0  0  0  0
    4.1689   -0.4808    0.0000 N   0  0  0  0  0  0  0  0  0  0  0  0
   -2.6566    2.0512    0.0000 C   0  0  0  0  0  0  0  0  0  0  0  0
   -2.6566    2.8762    0.0000 C   0  0  0  0  0  0  0  0  0  0  0  0
   -1.3870    2.4637    0.0000 C   0  0  0  0  0  0  0  0  0  0  0  0
   -1.8720    3.1311    0.0000 C   0  0  0  0  0  0  0  0  0  0  0  0
    2.0255    1.3406    0.0000 H   0  0  0  0  0  0  0  0  0  0  0  0
    3.9601    0.2237    0.0000 H   0  0  0  0  0  0  0  0  0  0  0  0
   -2.2026    2.8139    0.0000 H   0  0  0  0  0  0  0  0  0  0  0  0
   -3.1340    0.3442    0.0000 H   0  0  0  0  0  0  0  0  0  0  0  0
    0.7347   -1.7981    0.0000 H   0  0  0  0  0  0  0  0  0  0  0  0
   -1.7590   -1.1833    0.0000 H   0  0  0  0  0  0  0  0  0  0  0  0
   -1.7590   -2.2533    0.0000 H   0  0  0  0  0  0  0  0  0  0  0  0
    0.7758   -2.4398    0.0000 H   0  0  0  0  0  0  0  0  0  0  0  0
    0.7758   -4.2968    0.0000 H   0  0  0  0  0  0  0  0  0  0  0  0
   -0.8324   -5.2253    0.0000 H   0  0  0  0  0  0  0  0  0  0  0  0
   -2.4406   -4.2968    0.0000 H   0  0  0  0  0  0  0  0  0  0  0  0
   -2.4406   -2.4398    0.0000 H   0  0  0  0  0  0  0  0  0  0  0  0
    1.3110    2.1537    0.0000 H   0  0  0  0  0  0  0  0  0  0  0  0
    4.3810    1.2917    0.0000 H   0  0  0  0  0  0  0  0  0  0  0  0
    3.4544    1.8267    0.0000 H   0  0  0  0  0  0  0  0  0  0  0  0
    2.7399    2.2392    0.0000 H   0  0  0  0  0  0  0  0  0  0  0  0
    3.6665    1.7042    0.0000 H   0  0  0  0  0  0  0  0  0  0  0  0
    1.0988   -0.6033    0.0000 H   0  0  0  0  0  0  0  0  0  0  0  0
    2.0255   -1.1383    0.0000 H   0  0  0  0  0  0  0  0  0  0  0  0
    2.7399   -1.5508    0.0000 H   0  0  0  0  0  0  0  0  0  0  0  0
    1.8132   -1.0158    0.0000 H   0  0  0  0  0  0  0  0  0  0  0  0
    4.1689   -1.5008    0.0000 H   0  0  0  0  0  0  0  0  0  0  0  0
    5.0522    0.0292    0.0000 H   0  0  0  0  0  0  0  0  0  0  0  0
   -3.5222    1.4223    0.0000 H   0  0  0  0  0  0  0  0  0  0  0  0
   -3.6100    2.5370    0.0000 H   0  0  0  0  0  0  0  0  0  0  0  0
   -3.5222    3.5051    0.0000 H   0  0  0  0  0  0  0  0  0  0  0  0
   -2.4892    3.9330    0.0000 H   0  0  0  0  0  0  0  0  0  0  0  0
   -0.3170    2.4637    0.0000 H   0  0  0  0  0  0  0  0  0  0  0  0
   -0.9013    3.4171    0.0000 H   0  0  0  0  0  0  0  0  0  0  0  0
   -1.5414    4.1487    0.0000 H   0  0  0  0  0  0  0  0  0  0  0  0
   -0.8152    3.2986    0.0000 H   0  0  0  0  0  0  0  0  0  0  0  0
  1  2  1  0  0  0  0
  1 27  1  0  0  0  0
  1 29  1  0  0  0  0
  1 33  1  0  0  0  0
  2  3  1  0  0  0  0
  2 10  1  0  0  0  0
  3  4  2  0  0  0  0
  3  8  1  0  0  0  0
  4  5  1  0  0  0  0
  5  7  2  0  0  0  0
  5 19  1  0  0  0  0
  6  7  1  0  0  0  0
  6  8  2  0  0  0  0
  6 11  1  0  0  0  0
  8  9  1  0  0  0  0
  9 10  2  0  0  0  0
 10 34  1  0  0  0  0
 11 12  1  0  0  0  0
 11 35  1  0  0  0  0
 12 18  1  0  0  0  0
 12 36  1  0  0  0  0
 12 37  1  0  0  0  0
 13 14  2  0  0  0  0
 13 18  1  0  0  0  0
 13 38  1  0  0  0  0
 14 15  1  0  0  0  0
 14 39  1  0  0  0  0
 15 16  2  0  0  0  0
 15 40  1  0  0  0  0
 16 17  1  0  0  0  0
 16 41  1  0  0  0  0
 17 18  2  0  0  0  0
 17 42  1  0  0  0  0
 19 43  1  0  0  0  0
 20 19  1  0  0  0  0
 20 23  1  0  0  0  0
 20 24  1  0  0  0  0
 20 31  1  6  0  0  0
 21 22  1  0  0  0  0
 21 25  1  0  0  0  0
 21 26  1  0  0  0  0
 21 32  1  1  0  0  0
 22 23  1  0  0  0  0
 22 44  1  0  0  0  0
 22 45  1  0  0  0  0
 23 46  1  0  0  0  0
 23 47  1  0  0  0  0
 24 25  1  0  0  0  0
 24 48  1  0  0  0  0
 24 49  1  0  0  0  0
 25 50  1  0  0  0  0
 25 51  1  0  0  0  0
 26 52  1  0  0  0  0
 26 53  1  0  0  0  0
 27 28  1  0  0  0  0
 27 54  1  0  0  0  0
 27 55  1  0  0  0  0
 28 30  1  0  0  0  0
 28 56  1  0  0  0  0
 28 57  1  0  0  0  0
 29 30  1  0  0  0  0
 29 58  1  0  0  0  0
 29 59  1  0  0  0  0
 30 60  1  0  0  0  0
 30 61  1  0  0  0  0
M  END
>  <DRUGBANK_ID>
DB04288

>  <SECONDARY_ACCESSION_NUMBERS>
EXPT01808

>  <COMMON_NAME>
2-[Trans-(4-Aminocyclohexyl)Amino]-6-(Benzyl-Amino)-9-Cyclopentylpurine

$$$$
