
 OpenBabel10282417072D

 35 36  0  0  0  0  0  0  0  0999 V2000
   -1.1208    2.5884    0.0000 P   0  0  0  0  0  0  0  0  0  0  0  0
   -1.1208    3.4134    0.0000 O   0  0  0  0  0  0  0  0  0  0  0  0
   -1.9458    2.5884    0.0000 O   0  0  0  0  0  0  0  0  0  0  0  0
   -0.2958    2.5884    0.0000 O   0  0  0  0  0  0  0  0  0  0  0  0
   -1.1208    1.7634    0.0000 O   0  0  0  0  0  0  0  0  0  0  0  0
   -0.4063    1.3508    0.0000 C   0  0  0  0  0  0  0  0  0  0  0  0
   -0.4063    0.5259    0.0000 C   0  0  1  0  0  0  0  0  0  0  0  0
    0.2610    0.0409    0.0000 O   0  0  0  0  0  0  0  0  0  0  0  0
   -1.0737    0.0409    0.0000 C   0  0  1  0  0  0  0  0  0  0  0  0
   -1.8584    0.2958    0.0000 O   0  0  0  0  0  0  0  0  0  0  0  0
   -0.8188   -0.7436    0.0000 C   0  0  1  0  0  0  0  0  0  0  0  0
   -1.3037   -1.4111    0.0000 O   0  0  0  0  0  0  0  0  0  0  0  0
    0.0061   -0.7436    0.0000 C   0  0  2  0  0  0  0  0  0  0  0  0
    0.4910   -1.4111    0.0000 N   0  0  0  0  0  0  0  0  0  0  0  0
    0.1555   -2.1648    0.0000 C   0  0  0  0  0  0  0  0  0  0  0  0
   -0.6649   -2.2510    0.0000 O   0  0  0  0  0  0  0  0  0  0  0  0
    0.6404   -2.8322    0.0000 N   0  0  0  0  0  0  0  0  0  0  0  0
    1.4609   -2.7460    0.0000 C   0  0  0  0  0  0  0  0  0  0  0  0
    1.9458   -3.4134    0.0000 O   0  0  0  0  0  0  0  0  0  0  0  0
    1.7964   -1.9923    0.0000 C   0  0  0  0  0  0  0  0  0  0  0  0
    1.3115   -1.3249    0.0000 C   0  0  0  0  0  0  0  0  0  0  0  0
    1.6471   -0.5712    0.0000 O   0  0  0  0  0  0  0  0  0  0  0  0
   -2.4308    3.4284    0.0000 H   0  0  0  0  0  0  0  0  0  0  0  0
    0.1892    1.7484    0.0000 H   0  0  0  0  0  0  0  0  0  0  0  0
    0.5204    1.8858    0.0000 H   0  0  0  0  0  0  0  0  0  0  0  0
    0.5203    0.8158    0.0000 H   0  0  0  0  0  0  0  0  0  0  0  0
    0.5471    1.0116    0.0000 H   0  0  0  0  0  0  0  0  0  0  0  0
   -1.2412    1.0977    0.0000 H   0  0  0  0  0  0  0  0  0  0  0  0
   -2.0601    1.2446    0.0000 H   0  0  0  0  0  0  0  0  0  0  0  0
   -1.8756   -0.5763    0.0000 H   0  0  0  0  0  0  0  0  0  0  0  0
   -2.2684   -1.3098    0.0000 H   0  0  0  0  0  0  0  0  0  0  0  0
    1.0629   -0.5763    0.0000 H   0  0  0  0  0  0  0  0  0  0  0  0
    0.2399   -3.7316    0.0000 H   0  0  0  0  0  0  0  0  0  0  0  0
    2.8605   -1.8804    0.0000 H   0  0  0  0  0  0  0  0  0  0  0  0
    2.2316   -1.0148    0.0000 H   0  0  0  0  0  0  0  0  0  0  0  0
  2  1  2  0  0  0  0
  3  1  1  0  0  0  0
  3 23  1  0  0  0  0
  4  1  1  0  0  0  0
  4 24  1  0  0  0  0
  5  1  1  0  0  0  0
  6  5  1  0  0  0  0
  6 25  1  0  0  0  0
  6 26  1  0  0  0  0
  7  6  1  0  0  0  0
  7  8  1  0  0  0  0
  7 27  1  6  0  0  0
  9  7  1  0  0  0  0
  9 10  1  0  0  0  0
  9 28  1  1  0  0  0
 10 29  1  0  0  0  0
 11  9  1  0  0  0  0
 11 12  1  0  0  0  0
 11 30  1  1  0  0  0
 12 31  1  0  0  0  0
 13  8  1  0  0  0  0
 13 11  1  0  0  0  0
 13 14  1  0  0  0  0
 13 32  1  6  0  0  0
 15 14  1  0  0  0  0
 15 16  2  0  0  0  0
 15 17  1  0  0  0  0
 17 33  1  0  0  0  0
 18 17  1  0  0  0  0
 18 19  2  0  0  0  0
 18 20  1  0  0  0  0
 20 21  1  0  0  0  0
 20 34  1  0  0  0  0
 20 35  1  0  0  0  0
 21 14  1  0  0  0  0
 21 22  2  0  0  0  0
M  END
>  <DRUGBANK_ID>
DB03668

>  <SECONDARY_ACCESSION_NUMBERS>
EXPT00725

>  <COMMON_NAME>
6-oxouridine 5'-phosphate

>  <SYNONYMS>
5,6-dihydro-6-oxouridine 5'-monophosphate; 5,6-dihydro-6-oxouridine 5'-phosphate

$$$$
