M2C
 OpenBabel10282417072D

 31 31  0  0  0  0  0  0  0  0999 V2000
    0.0518    0.6974    0.0000 O   0  0  0  0  0  0  0  0  0  0  0  0
   -0.3607   -0.0171    0.0000 C   0  0  0  0  0  0  0  0  0  0  0  0
   -0.7732   -0.7315    0.0000 O   0  0  0  0  0  0  0  0  0  0  0  0
    0.3537   -0.4296    0.0000 C   0  0  2  0  0  0  0  0  0  0  0  0
    1.0682   -0.0171    0.0000 C   0  0  0  0  0  0  0  0  0  0  0  0
    1.7827   -0.4296    0.0000 C   0  0  0  0  0  0  0  0  0  0  0  0
    2.4971   -0.0171    0.0000 S   0  0  0  0  0  0  0  0  0  0  0  0
    3.2116   -0.4296    0.0000 C   0  0  0  0  0  0  0  0  0  0  0  0
    0.3537   -1.2546    0.0000 N   0  0  0  0  0  0  0  0  0  0  0  0
   -1.0752    0.3954    0.0000 C   0  0  0  0  0  0  0  0  0  0  0  0
   -1.7897   -0.0171    0.0000 C   0  0  0  0  0  0  0  0  0  0  0  0
   -2.5042    0.3954    0.0000 C   0  0  0  0  0  0  0  0  0  0  0  0
   -2.5042    1.2204    0.0000 C   0  0  0  0  0  0  0  0  0  0  0  0
   -1.7897    1.6329    0.0000 C   0  0  0  0  0  0  0  0  0  0  0  0
   -1.0752    1.2204    0.0000 N   0  0  0  0  0  0  0  0  0  0  0  0
    0.3537    0.1544    0.0000 H   0  0  0  0  0  0  0  0  0  0  0  0
    0.9888    0.6974    0.0000 H   0  0  0  0  0  0  0  0  0  0  0  0
   -1.7102   -0.7315    0.0000 H   0  0  0  0  0  0  0  0  0  0  0  0
    1.0682    1.0529    0.0000 H   0  0  0  0  0  0  0  0  0  0  0  0
    1.9948    0.5179    0.0000 H   0  0  0  0  0  0  0  0  0  0  0  0
    1.7827   -1.4996    0.0000 H   0  0  0  0  0  0  0  0  0  0  0  0
    2.7094   -0.9646    0.0000 H   0  0  0  0  0  0  0  0  0  0  0  0
    3.2116   -1.4996    0.0000 H   0  0  0  0  0  0  0  0  0  0  0  0
    4.1382    0.1054    0.0000 H   0  0  0  0  0  0  0  0  0  0  0  0
    4.1383   -0.9646    0.0000 H   0  0  0  0  0  0  0  0  0  0  0  0
   -0.5296   -1.7646    0.0000 H   0  0  0  0  0  0  0  0  0  0  0  0
    1.2370   -1.7646    0.0000 H   0  0  0  0  0  0  0  0  0  0  0  0
   -1.7897   -1.0491    0.0000 H   0  0  0  0  0  0  0  0  0  0  0  0
   -3.3979   -0.1206    0.0000 H   0  0  0  0  0  0  0  0  0  0  0  0
   -3.3979    1.7364    0.0000 H   0  0  0  0  0  0  0  0  0  0  0  0
   -1.7897    2.6649    0.0000 H   0  0  0  0  0  0  0  0  0  0  0  0
  1  2  1  0  0  0  0
  1 17  1  0  0  0  0
  2  3  1  0  0  0  0
  2  4  1  0  0  0  0
  2 10  1  0  0  0  0
  3 18  1  0  0  0  0
  4  5  1  0  0  0  0
  4  9  1  0  0  0  0
  4 16  1  1  0  0  0
  5  6  1  0  0  0  0
  5 19  1  0  0  0  0
  5 20  1  0  0  0  0
  6  7  1  0  0  0  0
  6 21  1  0  0  0  0
  6 22  1  0  0  0  0
  7  8  1  0  0  0  0
  8 23  1  0  0  0  0
  8 24  1  0  0  0  0
  8 25  1  0  0  0  0
  9 26  1  0  0  0  0
  9 27  1  0  0  0  0
 10 11  2  0  0  0  0
 10 15  1  0  0  0  0
 11 12  1  0  0  0  0
 11 28  1  0  0  0  0
 12 13  2  0  0  0  0
 12 29  1  0  0  0  0
 13 14  1  0  0  0  0
 13 30  1  0  0  0  0
 14 15  2  0  0  0  0
 14 31  1  0  0  0  0
M  END
>  <DRUGBANK_ID>
DB01882

>  <SECONDARY_ACCESSION_NUMBERS>
EXPT02085

>  <COMMON_NAME>
(2s)-2-Amino-4-(Methylsulfanyl)-1-Pyridin-2-Ylbutane-1,1-Diol

$$$$
