
 OpenBabel10282417072D

 35 37  0  0  1  0  0  0  0  0999 V2000
    0.5483   -1.7471    0.0000 H   0  0  0  0  0  0  0  0  0  0  0  0
    0.6773   -0.9323    0.0000 C   0  0  2  0  0  0  0  0  0  0  0  0
   -0.1477   -0.9323    0.0000 C   0  0  0  0  0  0  0  0  0  0  0  0
   -0.1477   -0.1073    0.0000 C   0  0  0  0  0  0  0  0  0  0  0  0
   -0.7310    0.4761    0.0000 O   0  0  0  0  0  0  0  0  0  0  0  0
    0.6773   -0.1073    0.0000 N   0  0  0  0  0  0  0  0  0  0  0  0
    1.4620    0.1477    0.0000 C   0  0  1  0  0  0  0  0  0  0  0  0
    1.7169    0.9323    0.0000 C   0  0  0  0  0  0  0  0  0  0  0  0
    2.5239    1.1038    0.0000 O   0  5  0  0  0  0  0  0  0  0  0  0
    1.1649    1.5454    0.0000 O   0  0  0  0  0  0  0  0  0  0  0  0
    1.9469   -0.5198    0.0000 C   0  0  2  0  0  0  0  0  0  0  0  0
    2.5600    0.0323    0.0000 C   0  0  0  0  0  0  0  0  0  0  0  0
    2.5600   -1.0718    0.0000 C   0  0  0  0  0  0  0  0  0  0  0  0
    3.3446   -0.8169    0.0000 N   0  0  0  0  0  0  0  0  0  0  0  0
    3.5995   -0.0323    0.0000 C   0  0  0  0  0  0  0  0  0  0  0  0
    4.4245   -0.0323    0.0000 C   0  0  0  0  0  0  0  0  0  0  0  0
    4.6795   -0.8169    0.0000 N   0  3  0  0  0  0  0  0  0  0  0  0
    5.4641   -1.0718    0.0000 C   0  0  0  0  0  0  0  0  0  0  0  0
    4.0120   -1.3018    0.0000 N   0  0  0  0  0  0  0  0  0  0  0  0
    1.4620   -1.1872    0.0000 S   0  0  0  0  0  0  0  0  0  0  0  0
    2.0692   -1.7456    0.0000 O   0  0  0  0  0  0  0  0  0  0  0  0
    1.2989   -1.9959    0.0000 O   0  0  0  0  0  0  0  0  0  0  0  0
   -0.9043   -1.6889    0.0000 H   0  0  0  0  0  0  0  0  0  0  0  0
   -1.1363   -0.5228    0.0000 H   0  0  0  0  0  0  0  0  0  0  0  0
    0.7054    0.9043    0.0000 H   0  0  0  0  0  0  0  0  0  0  0  0
    3.5776   -0.2983    0.0000 H   0  0  0  0  0  0  0  0  0  0  0  0
    2.3375    1.0789    0.0000 H   0  0  0  0  0  0  0  0  0  0  0  0
    3.3551    0.7483    0.0000 H   0  0  0  0  0  0  0  0  0  0  0  0
    2.3375   -2.1184    0.0000 H   0  0  0  0  0  0  0  0  0  0  0  0
    3.3552   -1.7878    0.0000 H   0  0  0  0  0  0  0  0  0  0  0  0
    2.9929    0.8026    0.0000 H   0  0  0  0  0  0  0  0  0  0  0  0
    5.0311    0.8026    0.0000 H   0  0  0  0  0  0  0  0  0  0  0  0
    5.6866   -2.1184    0.0000 H   0  0  0  0  0  0  0  0  0  0  0  0
    6.2592   -0.3558    0.0000 H   0  0  0  0  0  0  0  0  0  0  0  0
    6.4817   -1.4024    0.0000 H   0  0  0  0  0  0  0  0  0  0  0  0
  2  1  1  1  0  0  0
  2  3  1  0  0  0  0
  2  6  1  0  0  0  0
  2 20  1  0  0  0  0
  3  4  1  0  0  0  0
  3 23  1  0  0  0  0
  3 24  1  0  0  0  0
  4  5  2  0  0  0  0
  4  6  1  0  0  0  0
  7  6  1  0  0  0  0
  7  8  1  0  0  0  0
  7 11  1  0  0  0  0
  7 25  1  6  0  0  0
  8  9  1  0  0  0  0
  8 10  2  0  0  0  0
 11 12  1  1  0  0  0
 11 13  1  0  0  0  0
 11 20  1  0  0  0  0
 12 26  1  0  0  0  0
 12 27  1  0  0  0  0
 12 28  1  0  0  0  0
 13 14  1  0  0  0  0
 13 29  1  0  0  0  0
 13 30  1  0  0  0  0
 14 15  1  0  0  0  0
 14 19  1  0  0  0  0
 15 16  2  0  0  0  0
 15 31  1  0  0  0  0
 16 17  1  0  0  0  0
 16 32  1  0  0  0  0
 17 18  1  0  0  0  0
 17 19  2  0  0  0  0
 18 33  1  0  0  0  0
 18 34  1  0  0  0  0
 18 35  1  0  0  0  0
 20 21  2  0  0  0  0
 20 22  2  0  0  0  0
M  CHG  2   9  -1  17   1
M  END
>  <DRUGBANK_ID>
DB18716

>  <COMMON_NAME>
Enmetazobactam

>  <CAS_NUMBER>
1001404-83-6

>  <UNII>
80VUN7L00C

>  <SYNONYMS>
(2s,3s,5r)-3-methyl-3-((3-methyltriazol-3-ium-1-yl)methyl)-4,4,7-trioxo-4^6-thia-1-azabicyclo(3.2.0)heptane-2-carboxylate; 1h-1,2,3-triazolium, 3-(((2s,3s,5r)-2-carboxy-3-methyl-4,4-dioxido-7-oxo-4-thia-1-azabicyclo(3.2.0)hept-3-yl)methyl)-1-methyl-, inner salt

$$$$
