1468
 OpenBabel10282417072D

 37 38  0  0  1  0  0  0  0  0999 V2000
    5.2616   -0.3195    0.0000 S   0  0  0  0  0  0  0  0  0  0  0  0
    3.1261   -1.7065    0.0000 S   0  0  0  0  0  0  0  0  0  0  0  0
    2.3645    1.2535    0.0000 N   0  0  0  0  0  0  0  0  0  0  0  0
    3.0791    0.8410    0.0000 C   0  0  3  0  0  0  0  0  0  0  0  0
    3.0791    0.0160    0.0000 C   0  0  0  0  0  0  0  0  0  0  0  0
    2.3645    2.0786    0.0000 C   0  0  0  0  0  0  0  0  0  0  0  0
    3.7935    1.2535    0.0000 C   0  0  0  0  0  0  0  0  0  0  0  0
    3.7935   -0.3965    0.0000 C   0  0  0  0  0  0  0  0  0  0  0  0
    1.6500    0.8410    0.0000 C   0  0  0  0  0  0  0  0  0  0  0  0
    1.6500    2.4911    0.0000 C   0  0  0  0  0  0  0  0  0  0  0  0
    4.5080    0.0160    0.0000 C   0  0  0  0  0  0  0  0  0  0  0  0
    3.7935   -1.2215    0.0000 C   0  0  0  0  0  0  0  0  0  0  0  0
    4.5942    0.8365    0.0000 C   0  0  0  0  0  0  0  0  0  0  0  0
    4.4610   -1.7065    0.0000 C   0  0  0  0  0  0  0  0  0  0  0  0
    5.4012    1.0081    0.0000 C   0  0  0  0  0  0  0  0  0  0  0  0
    4.2060   -2.4911    0.0000 C   0  0  0  0  0  0  0  0  0  0  0  0
    5.8137    0.2935    0.0000 C   0  0  0  0  0  0  0  0  0  0  0  0
    3.3810   -2.4911    0.0000 C   0  0  0  0  0  0  0  0  0  0  0  0
    2.1525    0.3060    0.0000 H   0  0  0  0  0  0  0  0  0  0  0  0
    2.1854   -0.5000    0.0000 H   0  0  0  0  0  0  0  0  0  0  0  0
    3.2911    2.6136    0.0000 H   0  0  0  0  0  0  0  0  0  0  0  0
    2.3645    3.1486    0.0000 H   0  0  0  0  0  0  0  0  0  0  0  0
    4.7202    0.7185    0.0000 H   0  0  0  0  0  0  0  0  0  0  0  0
    3.7935    2.3235    0.0000 H   0  0  0  0  0  0  0  0  0  0  0  0
    4.7201    1.7885    0.0000 H   0  0  0  0  0  0  0  0  0  0  0  0
    0.7234    1.3760    0.0000 H   0  0  0  0  0  0  0  0  0  0  0  0
    1.6500   -0.2290    0.0000 H   0  0  0  0  0  0  0  0  0  0  0  0
    0.7233    0.3060    0.0000 H   0  0  0  0  0  0  0  0  0  0  0  0
    1.6500    3.5611    0.0000 H   0  0  0  0  0  0  0  0  0  0  0  0
    0.7234    1.9561    0.0000 H   0  0  0  0  0  0  0  0  0  0  0  0
    0.7233    3.0261    0.0000 H   0  0  0  0  0  0  0  0  0  0  0  0
    3.8272    1.5270    0.0000 H   0  0  0  0  0  0  0  0  0  0  0  0
    5.4425   -1.3876    0.0000 H   0  0  0  0  0  0  0  0  0  0  0  0
    5.8210    1.9509    0.0000 H   0  0  0  0  0  0  0  0  0  0  0  0
    4.8126   -3.3260    0.0000 H   0  0  0  0  0  0  0  0  0  0  0  0
    6.8400    0.1855    0.0000 H   0  0  0  0  0  0  0  0  0  0  0  0
    2.7744   -3.3260    0.0000 H   0  0  0  0  0  0  0  0  0  0  0  0
  1 11  1  0  0  0  0
  1 17  1  0  0  0  0
  2 12  1  0  0  0  0
  2 18  1  0  0  0  0
  3  4  1  0  0  0  0
  3  6  1  0  0  0  0
  3  9  1  0  0  0  0
  4  5  1  0  0  0  0
  4  7  1  0  0  0  0
  4 19  1  0  0  0  0
  5  8  2  0  0  0  0
  5 20  1  0  0  0  0
  6 10  1  0  0  0  0
  6 21  1  0  0  0  0
  6 22  1  0  0  0  0
  7 23  1  0  0  0  0
  7 24  1  0  0  0  0
  7 25  1  0  0  0  0
  8 11  1  0  0  0  0
  8 12  1  0  0  0  0
  9 26  1  0  0  0  0
  9 27  1  0  0  0  0
  9 28  1  0  0  0  0
 10 29  1  0  0  0  0
 10 30  1  0  0  0  0
 10 31  1  0  0  0  0
 11 13  2  0  0  0  0
 12 14  2  0  0  0  0
 13 15  1  0  0  0  0
 13 32  1  0  0  0  0
 14 16  1  0  0  0  0
 14 33  1  0  0  0  0
 15 17  2  0  0  0  0
 15 34  1  0  0  0  0
 16 18  2  0  0  0  0
 16 35  1  0  0  0  0
 17 36  1  0  0  0  0
 18 37  1  0  0  0  0
M  END
>  <DRUGBANK_ID>
DB01468

>  <COMMON_NAME>
Ethylmethylthiambutene

>  <CAS_NUMBER>
441-61-2

>  <UNII>
722BFZ899Q

>  <SYNONYMS>
Ethylmethylthiambutene

$$$$
