
 OpenBabel10282417072D

 70 78  0  0  0  0  0  0  0  0999 V2000
   -3.2304   -3.0690    0.0000 N   0  0  0  0  0  0  0  0  0  0  0  0
   -3.9449   -2.6565    0.0000 C   0  0  0  0  0  0  0  0  0  0  0  0
   -3.9449   -1.8315    0.0000 N   0  0  0  0  0  0  0  0  0  0  0  0
   -3.2304   -1.4190    0.0000 C   0  0  0  0  0  0  0  0  0  0  0  0
   -2.5159   -1.8315    0.0000 C   0  0  0  0  0  0  0  0  0  0  0  0
   -2.5159   -2.6565    0.0000 C   0  0  0  0  0  0  0  0  0  0  0  0
   -3.2304   -0.5940    0.0000 N   0  0  0  0  0  0  0  0  0  0  0  0
   -2.5159   -0.1815    0.0000 C   0  0  3  0  0  0  0  0  0  0  0  0
   -1.8014   -0.5940    0.0000 C   0  0  3  0  0  0  0  0  0  0  0  0
   -1.8014   -1.4190    0.0000 N   0  0  0  0  0  0  0  0  0  0  0  0
   -2.5159    0.6435    0.0000 O   0  0  0  0  0  0  0  0  0  0  0  0
   -1.8014    1.0560    0.0000 C   0  0  3  0  0  0  0  0  0  0  0  0
   -1.8014    1.8810    0.0000 C   0  0  0  0  0  0  0  0  0  0  0  0
   -2.5159    2.2935    0.0000 O   0  0  0  0  0  0  0  0  0  0  0  0
   -4.6593   -3.0690    0.0000 N   0  0  0  0  0  0  0  0  0  0  0  0
   -1.8014   -3.0690    0.0000 O   0  0  0  0  0  0  0  0  0  0  0  0
   -2.5159    3.1185    0.0000 P   0  0  3  0  0  0  0  0  0  0  0  0
   -2.5159    3.9435    0.0000 O   0  5  0  0  0  0  0  0  0  0  0  0
   -3.3409    3.1185    0.0000 O   0  0  0  0  0  0  0  0  0  0  0  0
   -1.0870    0.6435    0.0000 C   0  0  0  0  0  0  0  0  0  0  0  0
   -0.3023    0.8984    0.0000 S   0  0  0  0  0  0  0  0  0  0  0  0
   -1.0870   -0.1815    0.0000 C   0  0  0  0  0  0  0  0  0  0  0  0
    0.1826    0.2310    0.0000 W   0  0  3  0  0  0  0  0  0  0  0  0
   -0.3023   -0.4364    0.0000 S   0  0  0  0  0  0  0  0  0  0  0  0
    0.6675   -0.4364    0.0000 S   0  0  0  0  0  0  0  0  0  0  0  0
    0.6675    0.8984    0.0000 S   0  0  0  0  0  0  0  0  0  0  0  0
    3.5955   -3.0690    0.0000 N   0  0  0  0  0  0  0  0  0  0  0  0
    4.3100   -2.6565    0.0000 C   0  0  0  0  0  0  0  0  0  0  0  0
    4.3100   -1.8315    0.0000 N   0  0  0  0  0  0  0  0  0  0  0  0
    3.5955   -1.4190    0.0000 C   0  0  0  0  0  0  0  0  0  0  0  0
    2.8811   -1.8315    0.0000 C   0  0  0  0  0  0  0  0  0  0  0  0
    2.8811   -2.6565    0.0000 C   0  0  0  0  0  0  0  0  0  0  0  0
    3.5955   -0.5940    0.0000 N   0  0  0  0  0  0  0  0  0  0  0  0
    2.8811   -0.1815    0.0000 C   0  0  3  0  0  0  0  0  0  0  0  0
    2.1666   -0.5940    0.0000 C   0  0  3  0  0  0  0  0  0  0  0  0
    2.1666   -1.4190    0.0000 N   0  0  0  0  0  0  0  0  0  0  0  0
    2.8811    0.6435    0.0000 O   0  0  0  0  0  0  0  0  0  0  0  0
    2.1666    1.0560    0.0000 C   0  0  3  0  0  0  0  0  0  0  0  0
    1.4521    0.6435    0.0000 C   0  0  0  0  0  0  0  0  0  0  0  0
    1.4521   -0.1815    0.0000 C   0  0  0  0  0  0  0  0  0  0  0  0
    2.1666    1.8810    0.0000 C   0  0  0  0  0  0  0  0  0  0  0  0
    5.0245   -3.0690    0.0000 N   0  0  0  0  0  0  0  0  0  0  0  0
    2.1666   -3.0690    0.0000 O   0  0  0  0  0  0  0  0  0  0  0  0
    1.4521    3.1185    0.0000 P   0  0  3  0  0  0  0  0  0  0  0  0
    0.6271    3.1185    0.0000 O   0  0  0  0  0  0  0  0  0  0  0  0
    2.2771    3.1185    0.0000 O   0  5  0  0  0  0  0  0  0  0  0  0
    1.4521    2.2935    0.0000 O   0  0  0  0  0  0  0  0  0  0  0  0
   -1.6909    3.1185    0.0000 O   0  0  0  0  0  0  0  0  0  0  0  0
    1.4521    3.9435    0.0000 O   0  0  0  0  0  0  0  0  0  0  0  0
   -0.5250    3.1185    0.0000 Mg  0  0  0  0  0  0  0  0  0  0  0  0
   -3.2304   -4.0535    0.0000 H   0  0  0  0  0  0  0  0  0  0  0  0
   -4.0830   -0.1017    0.0000 H   0  0  0  0  0  0  0  0  0  0  0  0
   -2.5159   -1.2515    0.0000 H   0  0  0  0  0  0  0  0  0  0  0  0
   -2.7280   -1.1290    0.0000 H   0  0  0  0  0  0  0  0  0  0  0  0
   -0.9488   -1.9113    0.0000 H   0  0  0  0  0  0  0  0  0  0  0  0
   -2.7280    1.5910    0.0000 H   0  0  0  0  0  0  0  0  0  0  0  0
   -0.8748    2.4160    0.0000 H   0  0  0  0  0  0  0  0  0  0  0  0
   -1.8014    2.9510    0.0000 H   0  0  0  0  0  0  0  0  0  0  0  0
   -5.5119   -2.5768    0.0000 H   0  0  0  0  0  0  0  0  0  0  0  0
   -4.6593   -4.0535    0.0000 H   0  0  0  0  0  0  0  0  0  0  0  0
    3.5955   -4.0535    0.0000 H   0  0  0  0  0  0  0  0  0  0  0  0
    4.4481   -0.1018    0.0000 H   0  0  0  0  0  0  0  0  0  0  0  0
    2.8811   -1.2515    0.0000 H   0  0  0  0  0  0  0  0  0  0  0  0
    3.0932   -1.1290    0.0000 H   0  0  0  0  0  0  0  0  0  0  0  0
    1.3140   -1.9113    0.0000 H   0  0  0  0  0  0  0  0  0  0  0  0
    2.1666   -0.0140    0.0000 H   0  0  0  0  0  0  0  0  0  0  0  0
    3.0932    2.4160    0.0000 H   0  0  0  0  0  0  0  0  0  0  0  0
    3.0932    1.3460    0.0000 H   0  0  0  0  0  0  0  0  0  0  0  0
    5.0245   -4.0535    0.0000 H   0  0  0  0  0  0  0  0  0  0  0  0
    5.8771   -2.5767    0.0000 H   0  0  0  0  0  0  0  0  0  0  0  0
  1  6  1  0  0  0  0
  1 51  1  0  0  0  0
  2  1  1  0  0  0  0
  3  2  2  0  0  0  0
  4  3  1  0  0  0  0
  5  4  2  0  0  0  0
  5  6  1  0  0  0  0
  5 10  1  0  0  0  0
  7  4  1  0  0  0  0
  7 52  1  0  0  0  0
  8  7  1  0  0  0  0
  8  9  1  0  0  0  0
  8 53  1  0  0  0  0
  9 54  1  0  0  0  0
 10  9  1  0  0  0  0
 10 55  1  0  0  0  0
 11  8  1  0  0  0  0
 12 11  1  0  0  0  0
 12 13  1  0  0  0  0
 12 20  1  0  0  0  0
 12 56  1  0  0  0  0
 13 57  1  0  0  0  0
 13 58  1  0  0  0  0
 14 13  1  0  0  0  0
 15  2  1  0  0  0  0
 15 59  1  0  0  0  0
 15 60  1  0  0  0  0
 16  6  2  0  0  0  0
 17 14  1  0  0  0  0
 18 17  1  0  0  0  0
 19 17  2  0  0  0  0
 21 20  1  0  0  0  0
 22  9  1  0  0  0  0
 22 20  2  0  0  0  0
 22 24  1  0  0  0  0
 23 21  1  0  0  0  0
 23 25  1  0  0  0  0
 23 26  1  0  0  0  0
 24 23  1  0  0  0  0
 26 39  1  0  0  0  0
 27 28  1  0  0  0  0
 27 61  1  0  0  0  0
 28 29  2  0  0  0  0
 28 42  1  0  0  0  0
 29 30  1  0  0  0  0
 30 31  2  0  0  0  0
 30 33  1  0  0  0  0
 31 32  1  0  0  0  0
 32 27  1  0  0  0  0
 32 43  2  0  0  0  0
 33 34  1  0  0  0  0
 33 62  1  0  0  0  0
 34 35  1  0  0  0  0
 34 37  1  0  0  0  0
 34 63  1  0  0  0  0
 35 36  1  0  0  0  0
 35 64  1  0  0  0  0
 36 31  1  0  0  0  0
 36 65  1  0  0  0  0
 37 38  1  0  0  0  0
 38 39  1  0  0  0  0
 38 41  1  0  0  0  0
 38 66  1  0  0  0  0
 39 40  2  0  0  0  0
 40 35  1  0  0  0  0
 40 25  1  0  0  0  0
 41 47  1  0  0  0  0
 41 67  1  0  0  0  0
 41 68  1  0  0  0  0
 42 69  1  0  0  0  0
 42 70  1  0  0  0  0
 44 47  1  0  0  0  0
 44 45  1  0  0  0  0
 44 46  1  0  0  0  0
 45 50  1  0  0  0  0
 48 17  1  0  0  0  0
 48 50  1  0  0  0  0
 49 44  2  0  0  0  0
M  CHG  2  18  -1  46  -1
M  END
>  <DRUGBANK_ID>
DB01794

>  <SECONDARY_ACCESSION_NUMBERS>
EXPT02688

>  <COMMON_NAME>
bis(molybdopterin)tungsten cofactor

>  <SYNONYMS>
Tungstopterin; W-molybdopterin cofactor

$$$$
