
 OpenBabel10282417072D

 20 20  0  0  1  0  0  0  0  0999 V2000
   -1.8897   -0.2077    0.0000 O   0  0  0  0  0  0  0  0  0  0  0  0
   -1.2766    0.3443    0.0000 C   0  0  0  0  0  0  0  0  0  0  0  0
   -0.4920    0.0894    0.0000 C   0  0  2  0  0  0  0  0  0  0  0  0
    0.1754    0.5743    0.0000 O   0  0  0  0  0  0  0  0  0  0  0  0
    0.8429    0.0894    0.0000 C   0  0  1  0  0  0  0  0  0  0  0  0
    1.6275    0.3443    0.0000 O   0  0  0  0  0  0  0  0  0  0  0  0
    0.5879   -0.6952    0.0000 C   0  0  2  0  0  0  0  0  0  0  0  0
    1.0729   -1.3627    0.0000 O   0  0  0  0  0  0  0  0  0  0  0  0
   -0.2371   -0.6952    0.0000 C   0  0  1  0  0  0  0  0  0  0  0  0
   -0.7220   -1.3627    0.0000 O   0  0  0  0  0  0  0  0  0  0  0  0
   -2.8122    0.0921    0.0000 H   0  0  0  0  0  0  0  0  0  0  0  0
   -1.4991    1.3909    0.0000 H   0  0  0  0  0  0  0  0  0  0  0  0
   -0.4814    1.0603    0.0000 H   0  0  0  0  0  0  0  0  0  0  0  0
   -0.6594    1.1462    0.0000 H   0  0  0  0  0  0  0  0  0  0  0  0
    1.0103    1.1462    0.0000 H   0  0  0  0  0  0  0  0  0  0  0  0
    2.3483   -0.3048    0.0000 H   0  0  0  0  0  0  0  0  0  0  0  0
    1.6447   -0.5278    0.0000 H   0  0  0  0  0  0  0  0  0  0  0  0
    0.6784   -2.2489    0.0000 H   0  0  0  0  0  0  0  0  0  0  0  0
    0.2487   -1.6486    0.0000 H   0  0  0  0  0  0  0  0  0  0  0  0
   -1.6867   -1.2614    0.0000 H   0  0  0  0  0  0  0  0  0  0  0  0
  1  2  1  0  0  0  0
  1 11  1  0  0  0  0
  2 12  1  0  0  0  0
  2 13  1  0  0  0  0
  3  2  1  0  0  0  0
  3  4  1  0  0  0  0
  3  9  1  0  0  0  0
  3 14  1  1  0  0  0
  4  5  1  0  0  0  0
  5  6  1  0  0  0  0
  5  7  1  0  0  0  0
  5 15  1  6  0  0  0
  6 16  1  0  0  0  0
  7  8  1  0  0  0  0
  7  9  1  0  0  0  0
  7 17  1  1  0  0  0
  8 18  1  0  0  0  0
  9 10  1  0  0  0  0
  9 19  1  6  0  0  0
 10 20  1  0  0  0  0
M  END
>  <DRUGBANK_ID>
DB03142

>  <SECONDARY_ACCESSION_NUMBERS>
EXPT00554; DB02769

>  <COMMON_NAME>
Alpha-L-Arabinose

>  <UNII>
R0L7IU6KYJ

$$$$
