
 OpenBabel10282417072D

136142  0  0  0  0  0  0  0  0999 V2000
    5.9317   -1.6417    0.0000 O   0  0  0  0  0  0  0  0  0  0  0  0
    5.2222    1.2457    0.0000 O   0  0  0  0  0  0  0  0  0  0  0  0
    1.4932   -2.4997    0.0000 O   0  0  0  0  0  0  0  0  0  0  0  0
    6.4102    1.6582    0.0000 O   0  0  0  0  0  0  0  0  0  0  0  0
    3.7867    1.2457    0.0000 O   0  0  0  0  0  0  0  0  0  0  0  0
    0.7837   -1.2622    0.0000 O   0  0  0  0  0  0  0  0  0  0  0  0
   -1.3612   -2.4997    0.0000 O   0  0  0  0  0  0  0  0  0  0  0  0
   -1.3612   -0.8497    0.0000 O   0  0  0  0  0  0  0  0  0  0  0  0
   -2.7802   -0.8497    0.0000 O   0  0  0  0  0  0  0  0  0  0  0  0
   -4.2157   -2.4832    0.0000 O   0  0  0  0  0  0  0  0  0  0  0  0
   -2.7967   -3.3082    0.0000 O   0  0  0  0  0  0  0  0  0  0  0  0
   -4.9252   -1.2457    0.0000 O   0  0  0  0  0  0  0  0  0  0  0  0
   -5.6512   -3.3082    0.0000 O   0  0  0  0  0  0  0  0  0  0  0  0
   -7.0702   -2.4667    0.0000 O   0  0  0  0  0  0  0  0  0  0  0  0
   -7.0702   -0.8332    0.0000 O   0  0  0  0  0  0  0  0  0  0  0  0
    5.9317   -0.8167    0.0000 C   0  0  2  0  0  0  0  0  0  0  0  0
    5.9317    0.0082    0.0000 C   0  0  2  0  0  0  0  0  0  0  0  0
    5.2222   -1.2292    0.0000 C   0  0  1  0  0  0  0  0  0  0  0  0
    4.5127   -0.8167    0.0000 C   0  0  1  0  0  0  0  0  0  0  0  0
    5.2222    0.4207    0.0000 C   0  0  1  0  0  0  0  0  0  0  0  0
    3.7537   -1.2292    0.0000 C   0  0  2  0  0  0  0  0  0  0  0  0
    6.7072    0.2557    0.0000 C   0  0  2  0  0  0  0  0  0  0  0  0
    4.5127    0.0082    0.0000 C   0  0  0  0  0  0  0  0  0  0  0  0
    6.7072   -1.0642    0.0000 C   0  0  0  0  0  0  0  0  0  0  0  0
    7.1856   -0.4042    0.0000 C   0  0  0  0  0  0  0  0  0  0  0  0
    5.2387   -2.0872    0.0000 C   0  0  0  0  0  0  0  0  0  0  0  0
    5.9317    0.8332    0.0000 C   0  0  0  0  0  0  0  0  0  0  0  0
    3.7537   -2.0872    0.0000 C   0  0  0  0  0  0  0  0  0  0  0  0
    2.9947   -0.7672    0.0000 C   0  0  0  0  0  0  0  0  0  0  0  0
    4.4962   -2.5162    0.0000 C   0  0  0  0  0  0  0  0  0  0  0  0
    3.7702   -0.4042    0.0000 C   0  0  0  0  0  0  0  0  0  0  0  0
    2.9782   -2.5492    0.0000 C   0  0  0  0  0  0  0  0  0  0  0  0
    6.9712    1.0477    0.0000 C   0  0  0  0  0  0  0  0  0  0  0  0
    2.2192   -1.1962    0.0000 C   0  0  0  0  0  0  0  0  0  0  0  0
    2.2027   -2.1037    0.0000 C   0  0  2  0  0  0  0  0  0  0  0  0
    7.7797    1.2127    0.0000 C   0  0  0  0  0  0  0  0  0  0  0  0
    4.5127    1.6582    0.0000 C   0  0  0  0  0  0  0  0  0  0  0  0
    0.7837   -2.0872    0.0000 C   0  0  2  0  0  0  0  0  0  0  0  0
    4.5127    2.4832    0.0000 C   0  0  0  0  0  0  0  0  0  0  0  0
    0.0577   -2.4997    0.0000 C   0  0  0  0  0  0  0  0  0  0  0  0
   -0.6517   -2.0872    0.0000 C   0  0  1  0  0  0  0  0  0  0  0  0
    5.2222    2.8957    0.0000 C   0  0  0  0  0  0  0  0  0  0  0  0
    0.0742   -0.8497    0.0000 C   0  0  1  0  0  0  0  0  0  0  0  0
    3.7867    2.8957    0.0000 C   0  0  0  0  0  0  0  0  0  0  0  0
   -0.6517   -1.2622    0.0000 C   0  0  1  0  0  0  0  0  0  0  0  0
    0.0742   -0.0247    0.0000 C   0  0  0  0  0  0  0  0  0  0  0  0
    3.7867    3.7207    0.0000 C   0  0  0  0  0  0  0  0  0  0  0  0
   -2.0707   -1.2622    0.0000 C   0  0  2  0  0  0  0  0  0  0  0  0
   -1.3612   -3.3247    0.0000 C   0  0  0  0  0  0  0  0  0  0  0  0
   -2.0707   -2.0872    0.0000 C   0  0  0  0  0  0  0  0  0  0  0  0
   -2.7967   -2.4832    0.0000 C   0  0  1  0  0  0  0  0  0  0  0  0
   -3.5062   -1.2457    0.0000 C   0  0  1  0  0  0  0  0  0  0  0  0
   -3.5062   -2.0707    0.0000 C   0  0  1  0  0  0  0  0  0  0  0  0
   -4.2157   -0.8332    0.0000 C   0  0  0  0  0  0  0  0  0  0  0  0
   -4.9252   -2.0707    0.0000 C   0  0  2  0  0  0  0  0  0  0  0  0
   -5.6512   -2.4832    0.0000 C   0  0  1  0  0  0  0  0  0  0  0  0
   -6.3607   -2.0707    0.0000 C   0  0  2  0  0  0  0  0  0  0  0  0
   -3.5062   -3.7207    0.0000 C   0  0  0  0  0  0  0  0  0  0  0  0
   -6.3607   -1.2457    0.0000 C   0  0  1  0  0  0  0  0  0  0  0  0
   -5.6347   -0.8332    0.0000 C   0  0  1  0  0  0  0  0  0  0  0  0
   -5.6347   -0.0082    0.0000 C   0  0  0  0  0  0  0  0  0  0  0  0
   -7.7797   -2.0542    0.0000 C   0  0  0  0  0  0  0  0  0  0  0  0
    5.7997   -1.5592    0.0000 H   0  0  0  0  0  0  0  0  0  0  0  0
    5.0737   -0.4867    0.0000 H   0  0  0  0  0  0  0  0  0  0  0  0
    5.0917   -2.1267    0.0000 H   0  0  0  0  0  0  0  0  0  0  0  0
   -6.4912   -3.7932    0.0000 H   0  0  0  0  0  0  0  0  0  0  0  0
   -7.0673    0.1368    0.0000 H   0  0  0  0  0  0  0  0  0  0  0  0
    6.1497    0.9543    0.0000 H   0  0  0  0  0  0  0  0  0  0  0  0
    5.9555    1.0171    0.0000 H   0  0  0  0  0  0  0  0  0  0  0  0
    3.5852    0.5418    0.0000 H   0  0  0  0  0  0  0  0  0  0  0  0
    4.5103    1.0782    0.0000 H   0  0  0  0  0  0  0  0  0  0  0  0
    7.0411   -2.0808    0.0000 H   0  0  0  0  0  0  0  0  0  0  0  0
    7.7644   -1.2293    0.0000 H   0  0  0  0  0  0  0  0  0  0  0  0
    8.2556   -0.4042    0.0000 H   0  0  0  0  0  0  0  0  0  0  0  0
    7.6719   -1.3573    0.0000 H   0  0  0  0  0  0  0  0  0  0  0  0
    6.1705   -2.6131    0.0000 H   0  0  0  0  0  0  0  0  0  0  0  0
    5.2441   -3.1572    0.0000 H   0  0  0  0  0  0  0  0  0  0  0  0
    6.8583    1.3682    0.0000 H   0  0  0  0  0  0  0  0  0  0  0  0
    5.0051    1.3682    0.0000 H   0  0  0  0  0  0  0  0  0  0  0  0
    5.9317    1.9032    0.0000 H   0  0  0  0  0  0  0  0  0  0  0  0
    3.0169    0.3026    0.0000 H   0  0  0  0  0  0  0  0  0  0  0  0
    2.0787   -0.2142    0.0000 H   0  0  0  0  0  0  0  0  0  0  0  0
    4.4962   -3.5482    0.0000 H   0  0  0  0  0  0  0  0  0  0  0  0
    4.7074    0.1122    0.0000 H   0  0  0  0  0  0  0  0  0  0  0  0
    2.8544    0.1492    0.0000 H   0  0  0  0  0  0  0  0  0  0  0  0
    3.7916    0.6656    0.0000 H   0  0  0  0  0  0  0  0  0  0  0  0
    2.9867   -3.6192    0.0000 H   0  0  0  0  0  0  0  0  0  0  0  0
    2.0543   -3.0889    0.0000 H   0  0  0  0  0  0  0  0  0  0  0  0
    1.3025   -0.6444    0.0000 H   0  0  0  0  0  0  0  0  0  0  0  0
    1.2830   -1.7142    0.0000 H   0  0  0  0  0  0  0  0  0  0  0  0
    2.1961   -3.1737    0.0000 H   0  0  0  0  0  0  0  0  0  0  0  0
    8.4892    0.4117    0.0000 H   0  0  0  0  0  0  0  0  0  0  0  0
    8.1186    2.2276    0.0000 H   0  0  0  0  0  0  0  0  0  0  0  0
    8.8281    1.4267    0.0000 H   0  0  0  0  0  0  0  0  0  0  0  0
    1.7112   -1.5536    0.0000 H   0  0  0  0  0  0  0  0  0  0  0  0
    0.0524   -3.5697    0.0000 H   0  0  0  0  0  0  0  0  0  0  0  0
   -0.8711   -3.0309    0.0000 H   0  0  0  0  0  0  0  0  0  0  0  0
   -0.6517   -3.1572    0.0000 H   0  0  0  0  0  0  0  0  0  0  0  0
    6.1505    2.3635    0.0000 H   0  0  0  0  0  0  0  0  0  0  0  0
    5.2190    3.9657    0.0000 H   0  0  0  0  0  0  0  0  0  0  0  0
    6.1472    3.4335    0.0000 H   0  0  0  0  0  0  0  0  0  0  0  0
    1.0017   -0.3161    0.0000 H   0  0  0  0  0  0  0  0  0  0  0  0
    2.8947    2.3766    0.0000 H   0  0  0  0  0  0  0  0  0  0  0  0
   -1.5792   -1.7958    0.0000 H   0  0  0  0  0  0  0  0  0  0  0  0
    1.0008    0.5103    0.0000 H   0  0  0  0  0  0  0  0  0  0  0  0
   -0.8524    0.5103    0.0000 H   0  0  0  0  0  0  0  0  0  0  0  0
    0.0742    1.0453    0.0000 H   0  0  0  0  0  0  0  0  0  0  0  0
    4.7133    4.2557    0.0000 H   0  0  0  0  0  0  0  0  0  0  0  0
    2.8601    4.2557    0.0000 H   0  0  0  0  0  0  0  0  0  0  0  0
    3.7867    4.7907    0.0000 H   0  0  0  0  0  0  0  0  0  0  0  0
   -2.0707   -0.1922    0.0000 H   0  0  0  0  0  0  0  0  0  0  0  0
   -2.2878   -3.8597    0.0000 H   0  0  0  0  0  0  0  0  0  0  0  0
   -0.4346   -3.8597    0.0000 H   0  0  0  0  0  0  0  0  0  0  0  0
   -1.3612   -4.3947    0.0000 H   0  0  0  0  0  0  0  0  0  0  0  0
   -1.1506   -2.6334    0.0000 H   0  0  0  0  0  0  0  0  0  0  0  0
   -2.0902   -3.1570    0.0000 H   0  0  0  0  0  0  0  0  0  0  0  0
   -1.8766   -3.0294    0.0000 H   0  0  0  0  0  0  0  0  0  0  0  0
   -3.4916   -0.1758    0.0000 H   0  0  0  0  0  0  0  0  0  0  0  0
   -3.5062   -3.1407    0.0000 H   0  0  0  0  0  0  0  0  0  0  0  0
   -4.2125    0.2368    0.0000 H   0  0  0  0  0  0  0  0  0  0  0  0
   -5.1440   -1.3654    0.0000 H   0  0  0  0  0  0  0  0  0  0  0  0
   -5.1407   -0.2954    0.0000 H   0  0  0  0  0  0  0  0  0  0  0  0
   -3.9977   -1.5371    0.0000 H   0  0  0  0  0  0  0  0  0  0  0  0
   -4.7264   -3.0214    0.0000 H   0  0  0  0  0  0  0  0  0  0  0  0
   -6.3701   -3.1407    0.0000 H   0  0  0  0  0  0  0  0  0  0  0  0
   -4.4345   -3.1885    0.0000 H   0  0  0  0  0  0  0  0  0  0  0  0
   -3.5030   -4.7907    0.0000 H   0  0  0  0  0  0  0  0  0  0  0  0
   -4.4312   -4.2585    0.0000 H   0  0  0  0  0  0  0  0  0  0  0  0
   -7.2882   -1.7793    0.0000 H   0  0  0  0  0  0  0  0  0  0  0  0
   -4.7072   -0.2996    0.0000 H   0  0  0  0  0  0  0  0  0  0  0  0
   -4.7081    0.5268    0.0000 H   0  0  0  0  0  0  0  0  0  0  0  0
   -6.5613    0.5268    0.0000 H   0  0  0  0  0  0  0  0  0  0  0  0
   -5.6347    1.0618    0.0000 H   0  0  0  0  0  0  0  0  0  0  0  0
   -7.7765   -0.9842    0.0000 H   0  0  0  0  0  0  0  0  0  0  0  0
   -8.7080   -2.5864    0.0000 H   0  0  0  0  0  0  0  0  0  0  0  0
   -8.7047   -1.5164    0.0000 H   0  0  0  0  0  0  0  0  0  0  0  0
  1 65  1  0  0  0  0
  2 37  1  0  0  0  0
  4 33  2  0  0  0  0
  5 37  2  0  0  0  0
  6 38  1  0  0  0  0
  6 43  1  0  0  0  0
  7 49  1  0  0  0  0
  9 48  1  0  0  0  0
  9 52  1  0  0  0  0
 11 58  1  0  0  0  0
 12 55  1  0  0  0  0
 12 60  1  0  0  0  0
 13 66  1  0  0  0  0
 14 62  1  0  0  0  0
 15 67  1  0  0  0  0
 16  1  1  1  0  0  0
 16 17  1  0  0  0  0
 16 18  1  0  0  0  0
 16 24  1  0  0  0  0
 17 20  1  0  0  0  0
 17 22  1  0  0  0  0
 17 27  1  1  0  0  0
 18 19  1  0  0  0  0
 18 26  1  0  0  0  0
 18 63  1  1  0  0  0
 19 21  1  0  0  0  0
 19 23  1  0  0  0  0
 19 64  1  6  0  0  0
 20  2  1  0  0  0  0
 20 23  1  0  0  0  0
 20 68  1  6  0  0  0
 21 28  1  0  0  0  0
 21 29  1  0  0  0  0
 21 31  1  1  0  0  0
 22 25  1  0  0  0  0
 22 33  1  0  0  0  0
 22 69  1  6  0  0  0
 23 70  1  0  0  0  0
 23 71  1  0  0  0  0
 24 25  1  0  0  0  0
 24 72  1  0  0  0  0
 24 73  1  0  0  0  0
 25 74  1  0  0  0  0
 25 75  1  0  0  0  0
 26 30  1  0  0  0  0
 26 76  1  0  0  0  0
 26 77  1  0  0  0  0
 27 78  1  0  0  0  0
 27 79  1  0  0  0  0
 27 80  1  0  0  0  0
 28 30  2  0  0  0  0
 28 32  1  0  0  0  0
 29 34  1  0  0  0  0
 29 81  1  0  0  0  0
 29 82  1  0  0  0  0
 30 83  1  0  0  0  0
 31 84  1  0  0  0  0
 31 85  1  0  0  0  0
 31 86  1  0  0  0  0
 32 35  1  0  0  0  0
 32 87  1  0  0  0  0
 32 88  1  0  0  0  0
 33 36  1  0  0  0  0
 34 35  1  0  0  0  0
 34 89  1  0  0  0  0
 34 90  1  0  0  0  0
 35  3  1  0  0  0  0
 35 91  1  6  0  0  0
 36 92  1  0  0  0  0
 36 93  1  0  0  0  0
 36 94  1  0  0  0  0
 37 39  1  0  0  0  0
 38  3  1  0  0  0  0
 38 40  1  0  0  0  0
 38 95  1  6  0  0  0
 39 42  1  0  0  0  0
 39 44  2  0  0  0  0
 40 41  1  0  0  0  0
 40 96  1  0  0  0  0
 40 97  1  0  0  0  0
 41  7  1  0  0  0  0
 41 45  1  0  0  0  0
 41 98  1  1  0  0  0
 42 99  1  0  0  0  0
 42100  1  0  0  0  0
 42101  1  0  0  0  0
 43 45  1  0  0  0  0
 43 46  1  0  0  0  0
 43102  1  6  0  0  0
 44 47  1  0  0  0  0
 44103  1  0  0  0  0
 45  8  1  0  0  0  0
 45104  1  1  0  0  0
 46105  1  0  0  0  0
 46106  1  0  0  0  0
 46107  1  0  0  0  0
 47108  1  0  0  0  0
 47109  1  0  0  0  0
 47110  1  0  0  0  0
 48  8  1  0  0  0  0
 48 50  1  0  0  0  0
 48111  1  6  0  0  0
 49112  1  0  0  0  0
 49113  1  0  0  0  0
 49114  1  0  0  0  0
 50 51  1  0  0  0  0
 50115  1  0  0  0  0
 50116  1  0  0  0  0
 51 11  1  0  0  0  0
 51 53  1  0  0  0  0
 51117  1  1  0  0  0
 52 53  1  0  0  0  0
 52 54  1  0  0  0  0
 52118  1  6  0  0  0
 53 10  1  0  0  0  0
 53119  1  1  0  0  0
 54120  1  0  0  0  0
 54121  1  0  0  0  0
 54122  1  0  0  0  0
 55 10  1  0  0  0  0
 55 56  1  0  0  0  0
 55123  1  6  0  0  0
 56 13  1  0  0  0  0
 56 57  1  0  0  0  0
 56124  1  1  0  0  0
 57 14  1  0  0  0  0
 57 59  1  0  0  0  0
 57125  1  6  0  0  0
 58126  1  0  0  0  0
 58127  1  0  0  0  0
 58128  1  0  0  0  0
 59 15  1  0  0  0  0
 59 60  1  0  0  0  0
 59129  1  1  0  0  0
 60 61  1  0  0  0  0
 60130  1  6  0  0  0
 61131  1  0  0  0  0
 61132  1  0  0  0  0
 61133  1  0  0  0  0
 62134  1  0  0  0  0
 62135  1  0  0  0  0
 62136  1  0  0  0  0
M  END
>  <DRUGBANK_ID>
DB06569

>  <COMMON_NAME>
P-57AS3

>  <CAS_NUMBER>
384329-61-7

>  <UNII>
870A6Q6XVJ

$$$$
