
 OpenBabel10282417072D

 40 40  0  0  0  0  0  0  0  0999 V2000
    5.2224    1.6005    0.0000 P   0  0  0  0  0  0  0  0  0  0  0  0
    3.7935   -0.0495    0.0000 O   0  0  0  0  0  0  0  0  0  0  0  0
    4.5080    1.1880    0.0000 O   0  0  0  0  0  0  0  0  0  0  0  0
    4.8099    2.3150    0.0000 O   0  0  0  0  0  0  0  0  0  0  0  0
    5.9370    2.0130    0.0000 O   0  0  0  0  0  0  0  0  0  0  0  0
    5.6350    0.8861    0.0000 O   0  0  0  0  0  0  0  0  0  0  0  0
    5.2224   -0.8745    0.0000 C   0  0  0  0  0  0  0  0  0  0  0  0
    2.3645   -0.8745    0.0000 C   0  0  0  0  0  0  0  0  0  0  0  0
    4.5080   -1.2870    0.0000 C   0  0  0  0  0  0  0  0  0  0  0  0
    3.0791   -1.2870    0.0000 C   0  0  0  0  0  0  0  0  0  0  0  0
    3.7935   -0.8745    0.0000 C   0  0  0  0  0  0  0  0  0  0  0  0
    4.5080   -2.1120    0.0000 C   0  0  0  0  0  0  0  0  0  0  0  0
    3.0791   -2.1120    0.0000 C   0  0  0  0  0  0  0  0  0  0  0  0
    5.9370   -1.2870    0.0000 C   0  0  0  0  0  0  0  0  0  0  0  0
    5.2224   -0.0495    0.0000 C   0  0  0  0  0  0  0  0  0  0  0  0
    1.6500   -1.2870    0.0000 C   0  0  0  0  0  0  0  0  0  0  0  0
    2.3645   -0.0495    0.0000 C   0  0  0  0  0  0  0  0  0  0  0  0
    3.7935   -2.5246    0.0000 C   0  0  0  0  0  0  0  0  0  0  0  0
    4.5080    0.3630    0.0000 C   0  0  0  0  0  0  0  0  0  0  0  0
    5.2949    3.1550    0.0000 H   0  0  0  0  0  0  0  0  0  0  0  0
    6.7770    1.5279    0.0000 H   0  0  0  0  0  0  0  0  0  0  0  0
    6.1490   -0.3395    0.0000 H   0  0  0  0  0  0  0  0  0  0  0  0
    1.4379   -0.3395    0.0000 H   0  0  0  0  0  0  0  0  0  0  0  0
    5.4018   -2.6280    0.0000 H   0  0  0  0  0  0  0  0  0  0  0  0
    2.1853   -2.6279    0.0000 H   0  0  0  0  0  0  0  0  0  0  0  0
    5.9371   -2.3570    0.0000 H   0  0  0  0  0  0  0  0  0  0  0  0
    6.8636   -0.7519    0.0000 H   0  0  0  0  0  0  0  0  0  0  0  0
    6.8637   -1.8219    0.0000 H   0  0  0  0  0  0  0  0  0  0  0  0
    6.1490    0.4855    0.0000 H   0  0  0  0  0  0  0  0  0  0  0  0
    4.2958    0.4855    0.0000 H   0  0  0  0  0  0  0  0  0  0  0  0
    5.2224    1.0205    0.0000 H   0  0  0  0  0  0  0  0  0  0  0  0
    0.7234   -0.7520    0.0000 H   0  0  0  0  0  0  0  0  0  0  0  0
    1.6500   -2.3570    0.0000 H   0  0  0  0  0  0  0  0  0  0  0  0
    0.7233   -1.8220    0.0000 H   0  0  0  0  0  0  0  0  0  0  0  0
    3.2911    0.4855    0.0000 H   0  0  0  0  0  0  0  0  0  0  0  0
    1.4379    0.4855    0.0000 H   0  0  0  0  0  0  0  0  0  0  0  0
    2.3645    1.0205    0.0000 H   0  0  0  0  0  0  0  0  0  0  0  0
    3.7935   -3.5566    0.0000 H   0  0  0  0  0  0  0  0  0  0  0  0
    5.4346   -0.1720    0.0000 H   0  0  0  0  0  0  0  0  0  0  0  0
    5.4346    0.8980    0.0000 H   0  0  0  0  0  0  0  0  0  0  0  0
  1  3  1  0  0  0  0
  1  4  1  0  0  0  0
  1  5  1  0  0  0  0
  1  6  2  0  0  0  0
  2 11  1  0  0  0  0
  2 19  1  0  0  0  0
  3 19  1  0  0  0  0
  4 20  1  0  0  0  0
  5 21  1  0  0  0  0
  7  9  1  0  0  0  0
  7 14  1  0  0  0  0
  7 15  1  0  0  0  0
  7 22  1  0  0  0  0
  8 10  1  0  0  0  0
  8 16  1  0  0  0  0
  8 17  1  0  0  0  0
  8 23  1  0  0  0  0
  9 11  2  0  0  0  0
  9 12  1  0  0  0  0
 10 11  1  0  0  0  0
 10 13  2  0  0  0  0
 12 18  2  0  0  0  0
 12 24  1  0  0  0  0
 13 18  1  0  0  0  0
 13 25  1  0  0  0  0
 14 26  1  0  0  0  0
 14 27  1  0  0  0  0
 14 28  1  0  0  0  0
 15 29  1  0  0  0  0
 15 30  1  0  0  0  0
 15 31  1  0  0  0  0
 16 32  1  0  0  0  0
 16 33  1  0  0  0  0
 16 34  1  0  0  0  0
 17 35  1  0  0  0  0
 17 36  1  0  0  0  0
 17 37  1  0  0  0  0
 18 38  1  0  0  0  0
 19 39  1  0  0  0  0
 19 40  1  0  0  0  0
M  END
>  <DRUGBANK_ID>
DB06716

>  <SECONDARY_ACCESSION_NUMBERS>
DB05279

>  <COMMON_NAME>
Fospropofol

>  <CAS_NUMBER>
258516-89-1

>  <UNII>
LZ257RZP7K

>  <SYNONYMS>
Fospropofol

$$$$
