CPU
 OpenBabel10282417072D

 43 44  0  0  0  0  0  0  0  0999 V2000
   -3.5898   -0.1425    0.0000 C   0  0  0  0  0  0  0  0  0  0  0  0
   -4.3043    0.2700    0.0000 C   0  0  0  0  0  0  0  0  0  0  0  0
   -4.3043    1.0950    0.0000 C   0  0  0  0  0  0  0  0  0  0  0  0
   -3.5898    1.5075    0.0000 C   0  0  0  0  0  0  0  0  0  0  0  0
   -2.8753    1.0950    0.0000 C   0  0  0  0  0  0  0  0  0  0  0  0
   -2.8753    0.2700    0.0000 C   0  0  0  0  0  0  0  0  0  0  0  0
   -0.0175    0.2700    0.0000 N   0  0  0  0  0  0  0  0  0  0  0  0
   -2.1609   -0.1425    0.0000 C   0  0  0  0  0  0  0  0  0  0  0  0
   -1.4464    0.2700    0.0000 C   0  0  0  0  0  0  0  0  0  0  0  0
   -0.7319   -0.1425    0.0000 C   0  0  0  0  0  0  0  0  0  0  0  0
    0.6970   -0.1425    0.0000 C   0  0  0  0  0  0  0  0  0  0  0  0
    0.6970   -0.9675    0.0000 O   0  0  0  0  0  0  0  0  0  0  0  0
    1.4115    0.2700    0.0000 N   0  0  0  0  0  0  0  0  0  0  0  0
    2.1260   -0.1425    0.0000 C   0  0  0  0  0  0  0  0  0  0  0  0
    2.8404    0.2700    0.0000 C   0  0  0  0  0  0  0  0  0  0  0  0
    3.5549   -0.1425    0.0000 C   0  0  0  0  0  0  0  0  0  0  0  0
    3.5549   -0.9675    0.0000 C   0  0  0  0  0  0  0  0  0  0  0  0
    2.8404   -1.3800    0.0000 C   0  0  0  0  0  0  0  0  0  0  0  0
    2.1260   -0.9675    0.0000 C   0  0  0  0  0  0  0  0  0  0  0  0
   -3.5898   -1.1745    0.0000 H   0  0  0  0  0  0  0  0  0  0  0  0
   -5.1980   -0.2460    0.0000 H   0  0  0  0  0  0  0  0  0  0  0  0
   -5.1980    1.6110    0.0000 H   0  0  0  0  0  0  0  0  0  0  0  0
   -3.5898    2.5395    0.0000 H   0  0  0  0  0  0  0  0  0  0  0  0
   -1.9816    1.6110    0.0000 H   0  0  0  0  0  0  0  0  0  0  0  0
   -0.0175    1.2545    0.0000 H   0  0  0  0  0  0  0  0  0  0  0  0
   -2.1609   -1.2125    0.0000 H   0  0  0  0  0  0  0  0  0  0  0  0
   -1.2343   -0.6775    0.0000 H   0  0  0  0  0  0  0  0  0  0  0  0
   -1.4464    1.3400    0.0000 H   0  0  0  0  0  0  0  0  0  0  0  0
   -0.5198    0.8050    0.0000 H   0  0  0  0  0  0  0  0  0  0  0  0
   -0.7319   -1.2125    0.0000 H   0  0  0  0  0  0  0  0  0  0  0  0
   -1.6585   -0.6775    0.0000 H   0  0  0  0  0  0  0  0  0  0  0  0
    1.4115    1.2545    0.0000 H   0  0  0  0  0  0  0  0  0  0  0  0
    3.0527   -0.6775    0.0000 H   0  0  0  0  0  0  0  0  0  0  0  0
    2.8404    1.3400    0.0000 H   0  0  0  0  0  0  0  0  0  0  0  0
    3.7670    0.8050    0.0000 H   0  0  0  0  0  0  0  0  0  0  0  0
    4.4815    0.3925    0.0000 H   0  0  0  0  0  0  0  0  0  0  0  0
    4.4815   -0.6775    0.0000 H   0  0  0  0  0  0  0  0  0  0  0  0
    4.4815   -1.5025    0.0000 H   0  0  0  0  0  0  0  0  0  0  0  0
    3.5549   -2.0375    0.0000 H   0  0  0  0  0  0  0  0  0  0  0  0
    2.8404   -2.4500    0.0000 H   0  0  0  0  0  0  0  0  0  0  0  0
    1.9137   -1.9150    0.0000 H   0  0  0  0  0  0  0  0  0  0  0  0
    1.1993   -1.5025    0.0000 H   0  0  0  0  0  0  0  0  0  0  0  0
    2.1260   -2.0375    0.0000 H   0  0  0  0  0  0  0  0  0  0  0  0
  1  2  2  0  0  0  0
  1  6  1  0  0  0  0
  1 20  1  0  0  0  0
  2  3  1  0  0  0  0
  2 21  1  0  0  0  0
  3  4  2  0  0  0  0
  3 22  1  0  0  0  0
  4  5  1  0  0  0  0
  4 23  1  0  0  0  0
  5  6  2  0  0  0  0
  5 24  1  0  0  0  0
  6  8  1  0  0  0  0
  7 10  1  0  0  0  0
  7 11  1  0  0  0  0
  7 25  1  0  0  0  0
  8  9  1  0  0  0  0
  8 26  1  0  0  0  0
  8 27  1  0  0  0  0
  9 10  1  0  0  0  0
  9 28  1  0  0  0  0
  9 29  1  0  0  0  0
 10 30  1  0  0  0  0
 10 31  1  0  0  0  0
 11 12  2  0  0  0  0
 11 13  1  0  0  0  0
 13 14  1  0  0  0  0
 13 32  1  0  0  0  0
 14 15  1  0  0  0  0
 14 19  1  0  0  0  0
 14 33  1  0  0  0  0
 15 16  1  0  0  0  0
 15 34  1  0  0  0  0
 15 35  1  0  0  0  0
 16 17  1  0  0  0  0
 16 36  1  0  0  0  0
 16 37  1  0  0  0  0
 17 18  1  0  0  0  0
 17 38  1  0  0  0  0
 17 39  1  0  0  0  0
 18 19  1  0  0  0  0
 18 40  1  0  0  0  0
 18 41  1  0  0  0  0
 19 42  1  0  0  0  0
 19 43  1  0  0  0  0
M  END
>  <DRUGBANK_ID>
DB04213

>  <SECONDARY_ACCESSION_NUMBERS>
EXPT01006

>  <COMMON_NAME>
N-Cyclohexyl-N'-(Propyl)Phenyl Urea

$$$$
