
 OpenBabel10282417072D

144145  0  0  0  0  0  0  0  0999 V2000
    4.0082    0.1123    0.0000 Lu  0  1  0  0  0  0  0  0  0  0  0  0
    3.7757   -5.9102    0.0000 O   0  0  0  0  0  0  0  0  0  0  0  0
    4.2597   -5.2407    0.0000 C   0  0  0  0  0  0  0  0  0  0  0  0
    3.9244   -4.4886    0.0000 C   0  0  0  0  0  0  0  0  0  0  0  0
    4.4084   -3.8190    0.0000 C   0  0  0  0  0  0  0  0  0  0  0  0
    4.0731   -3.0670    0.0000 C   0  0  0  0  0  0  0  0  0  0  0  0
    3.2623   -2.8964    0.0000 C   0  0  0  0  0  0  0  0  0  0  0  0
    3.1765   -2.0701    0.0000 C   0  0  0  0  0  0  0  0  0  0  0  0
    2.4475   -1.6532    0.0000 C   0  0  0  0  0  0  0  0  0  0  0  0
    2.4475   -0.8267    0.0000 N   0  0  0  0  0  0  0  0  0  0  0  0
    1.7330   -0.4093    0.0000 C   0  0  0  0  0  0  0  0  0  0  0  0
    1.0261   -0.8264    0.0000 C   0  0  0  0  0  0  0  0  0  0  0  0
    0.3143   -0.4124    0.0000 C   0  0  0  0  0  0  0  0  0  0  0  0
   -0.3951   -0.8337    0.0000 O   0  0  0  0  0  0  0  0  0  0  0  0
   -1.1104   -0.4216    0.0000 C   0  0  0  0  0  0  0  0  0  0  0  0
   -1.8210   -0.8385    0.0000 C   0  0  0  0  0  0  0  0  0  0  0  0
   -2.5364   -0.4264    0.0000 O   0  0  0  0  0  0  0  0  0  0  0  0
   -3.2468   -0.8385    0.0000 C   0  0  0  0  0  0  0  0  0  0  0  0
   -3.9622   -0.4216    0.0000 C   0  0  0  0  0  0  0  0  0  0  0  0
   -4.6727   -0.8337    0.0000 O   0  0  0  0  0  0  0  0  0  0  0  0
   -5.3879   -0.4216    0.0000 C   0  0  0  0  0  0  0  0  0  0  0  0
   -6.0986   -0.8385    0.0000 C   0  0  0  0  0  0  0  0  0  0  0  0
   -6.8139   -0.4264    0.0000 O   0  0  0  0  0  0  0  0  0  0  0  0
   -7.5244   -0.8385    0.0000 C   0  0  0  0  0  0  0  0  0  0  0  0
    0.3143    0.4028    0.0000 C   0  0  0  0  0  0  0  0  0  0  0  0
   -0.3998    0.8241    0.0000 O   0  0  0  0  0  0  0  0  0  0  0  0
   -1.1151    0.4119    0.0000 C   0  0  0  0  0  0  0  0  0  0  0  0
   -1.8257    0.8289    0.0000 C   0  0  0  0  0  0  0  0  0  0  0  0
   -2.5410    0.4167    0.0000 O   0  0  0  0  0  0  0  0  0  0  0  0
   -3.2515    0.8289    0.0000 C   0  0  0  0  0  0  0  0  0  0  0  0
   -3.9668    0.4119    0.0000 C   0  0  0  0  0  0  0  0  0  0  0  0
   -4.6774    0.8241    0.0000 O   0  0  0  0  0  0  0  0  0  0  0  0
   -5.3926    0.4119    0.0000 C   0  0  0  0  0  0  0  0  0  0  0  0
   -6.1032    0.8289    0.0000 C   0  0  0  0  0  0  0  0  0  0  0  0
   -6.8185    0.4167    0.0000 O   0  0  0  0  0  0  0  0  0  0  0  0
   -7.5290    0.8289    0.0000 C   0  0  0  0  0  0  0  0  0  0  0  0
    1.0189    0.8144    0.0000 C   0  0  0  0  0  0  0  0  0  0  0  0
    1.7330    0.4091    0.0000 C   0  0  0  0  0  0  0  0  0  0  0  0
    2.4475    0.8266    0.0000 N   0  0  0  0  0  0  0  0  0  0  0  0
    2.4475    1.6531    0.0000 C   0  0  0  0  0  0  0  0  0  0  0  0
    3.1717    2.0652    0.0000 C   0  0  0  0  0  0  0  0  0  0  0  0
    3.9263    1.7343    0.0000 N   0  0  0  0  0  0  0  0  0  0  0  0
    4.4807    2.3467    0.0000 C   0  0  0  0  0  0  0  0  0  0  0  0
    5.2997    2.2615    0.0000 C   0  0  0  0  0  0  0  0  0  0  0  0
    6.0731    0.7457    0.0000 C   0  0  0  0  0  0  0  0  0  0  0  0
    5.6639    0.0232    0.0000 N   0  5  0  0  0  0  0  0  0  0  0  0
    5.9667   -0.5496    0.0000 C   0  0  0  0  0  0  0  0  0  0  0  0
    5.3043   -2.2615    0.0000 C   0  0  0  0  0  0  0  0  0  0  0  0
    4.4855   -2.3467    0.0000 C   0  0  0  0  0  0  0  0  0  0  0  0
    3.9310   -1.7345    0.0000 N   0  0  0  0  0  0  0  0  0  0  0  0
    6.8523   -0.3522    0.0000 C   0  0  0  0  0  0  0  0  0  0  0  0
    7.4857   -0.8556    0.0000 C   0  0  0  0  0  0  0  0  0  0  0  0
    7.3791   -1.6721    0.0000 C   0  0  0  0  0  0  0  0  0  0  0  0
    6.8523    0.4689    0.0000 C   0  0  0  0  0  0  0  0  0  0  0  0
    7.5290    0.9407    0.0000 C   0  0  0  0  0  0  0  0  0  0  0  0
    7.4623    1.7619    0.0000 C   0  0  0  0  0  0  0  0  0  0  0  0
    4.0686    3.0669    0.0000 C   0  0  0  0  0  0  0  0  0  0  0  0
    4.4037    3.8190    0.0000 C   0  0  0  0  0  0  0  0  0  0  0  0
    3.9196    4.4883    0.0000 C   0  0  0  0  0  0  0  0  0  0  0  0
    4.2550    5.2407    0.0000 C   0  0  0  0  0  0  0  0  0  0  0  0
    3.7709    5.9102    0.0000 O   0  0  0  0  0  0  0  0  0  0  0  0
    3.2575    2.8963    0.0000 C   0  0  0  0  0  0  0  0  0  0  0  0
    2.6466    3.4490    0.0000 C   0  0  0  0  0  0  0  0  0  0  0  0
    2.6515   -3.4492    0.0000 C   0  0  0  0  0  0  0  0  0  0  0  0
   -0.6875    4.4466    0.0000 C   0  0  0  0  0  0  0  0  0  0  0  0
   -1.5015    4.9167    0.0000 C   0  0  0  0  0  0  0  0  0  0  0  0
   -1.5015    5.8566    0.0000 O   0  0  0  0  0  0  0  0  0  0  0  0
   -2.3156    4.4466    0.0000 O   0  5  0  0  0  0  0  0  0  0  0  0
   -0.6875    4.4466    0.0000 C   0  0  0  0  0  0  0  0  0  0  0  0
   -1.5015    4.9167    0.0000 C   0  0  0  0  0  0  0  0  0  0  0  0
   -1.5015    5.8566    0.0000 O   0  0  0  0  0  0  0  0  0  0  0  0
   -2.3156    4.4466    0.0000 O   0  5  0  0  0  0  0  0  0  0  0  0
    2.8108   -5.8111    0.0000 H   0  0  0  0  0  0  0  0  0  0  0  0
    5.3240   -5.3510    0.0000 H   0  0  0  0  0  0  0  0  0  0  0  0
    4.8878   -4.3744    0.0000 H   0  0  0  0  0  0  0  0  0  0  0  0
    2.8601   -4.3783    0.0000 H   0  0  0  0  0  0  0  0  0  0  0  0
    3.4873   -3.5120    0.0000 H   0  0  0  0  0  0  0  0  0  0  0  0
    5.4727   -3.9293    0.0000 H   0  0  0  0  0  0  0  0  0  0  0  0
    5.0365   -2.9527    0.0000 H   0  0  0  0  0  0  0  0  0  0  0  0
    1.5548   -2.1710    0.0000 H   0  0  0  0  0  0  0  0  0  0  0  0
    1.0293   -1.8584    0.0000 H   0  0  0  0  0  0  0  0  0  0  0  0
   -1.1146    0.6484    0.0000 H   0  0  0  0  0  0  0  0  0  0  0  0
   -2.0400    0.1083    0.0000 H   0  0  0  0  0  0  0  0  0  0  0  0
   -1.8167   -1.9085    0.0000 H   0  0  0  0  0  0  0  0  0  0  0  0
   -2.7463   -1.3758    0.0000 H   0  0  0  0  0  0  0  0  0  0  0  0
   -3.2479   -1.9085    0.0000 H   0  0  0  0  0  0  0  0  0  0  0  0
   -4.1748   -1.3712    0.0000 H   0  0  0  0  0  0  0  0  0  0  0  0
   -3.9611    0.6484    0.0000 H   0  0  0  0  0  0  0  0  0  0  0  0
   -4.8891    0.1129    0.0000 H   0  0  0  0  0  0  0  0  0  0  0  0
   -5.3921    0.6484    0.0000 H   0  0  0  0  0  0  0  0  0  0  0  0
   -6.3174    0.1084    0.0000 H   0  0  0  0  0  0  0  0  0  0  0  0
   -6.0944   -1.9085    0.0000 H   0  0  0  0  0  0  0  0  0  0  0  0
   -7.0239   -1.3757    0.0000 H   0  0  0  0  0  0  0  0  0  0  0  0
   -8.4521   -0.3054    0.0000 H   0  0  0  0  0  0  0  0  0  0  0  0
   -7.5223   -1.9085    0.0000 H   0  0  0  0  0  0  0  0  0  0  0  0
   -8.4500   -1.3753    0.0000 H   0  0  0  0  0  0  0  0  0  0  0  0
   -1.1193   -0.6581    0.0000 H   0  0  0  0  0  0  0  0  0  0  0  0
   -2.0447   -0.1180    0.0000 H   0  0  0  0  0  0  0  0  0  0  0  0
   -1.8215    1.8989    0.0000 H   0  0  0  0  0  0  0  0  0  0  0  0
   -2.7511    1.3661    0.0000 H   0  0  0  0  0  0  0  0  0  0  0  0
   -3.2526    1.8989    0.0000 H   0  0  0  0  0  0  0  0  0  0  0  0
   -4.1796    1.3615    0.0000 H   0  0  0  0  0  0  0  0  0  0  0  0
   -3.9656   -0.6581    0.0000 H   0  0  0  0  0  0  0  0  0  0  0  0
   -4.8937   -0.1227    0.0000 H   0  0  0  0  0  0  0  0  0  0  0  0
   -5.3968   -0.6581    0.0000 H   0  0  0  0  0  0  0  0  0  0  0  0
   -6.3222   -0.1180    0.0000 H   0  0  0  0  0  0  0  0  0  0  0  0
   -6.0990    1.8989    0.0000 H   0  0  0  0  0  0  0  0  0  0  0  0
   -7.0286    1.3661    0.0000 H   0  0  0  0  0  0  0  0  0  0  0  0
   -7.5268    1.8989    0.0000 H   0  0  0  0  0  0  0  0  0  0  0  0
   -8.4568    0.2958    0.0000 H   0  0  0  0  0  0  0  0  0  0  0  0
   -8.4545    1.3658    0.0000 H   0  0  0  0  0  0  0  0  0  0  0  0
    1.0125    1.8464    0.0000 H   0  0  0  0  0  0  0  0  0  0  0  0
    1.5554    2.1719    0.0000 H   0  0  0  0  0  0  0  0  0  0  0  0
    5.8835    3.1125    0.0000 H   0  0  0  0  0  0  0  0  0  0  0  0
    5.9310   -3.0814    0.0000 H   0  0  0  0  0  0  0  0  0  0  0  0
    8.4775   -0.4540    0.0000 H   0  0  0  0  0  0  0  0  0  0  0  0
    8.3323   -1.5099    0.0000 H   0  0  0  0  0  0  0  0  0  0  0  0
    6.3910   -2.0826    0.0000 H   0  0  0  0  0  0  0  0  0  0  0  0
    8.2287   -2.3226    0.0000 H   0  0  0  0  0  0  0  0  0  0  0  0
    7.2406   -2.7331    0.0000 H   0  0  0  0  0  0  0  0  0  0  0  0
    8.4969    0.4845    0.0000 H   0  0  0  0  0  0  0  0  0  0  0  0
    8.4087    1.5499    0.0000 H   0  0  0  0  0  0  0  0  0  0  0  0
    8.3426    2.3702    0.0000 H   0  0  0  0  0  0  0  0  0  0  0  0
    6.4954    2.2201    0.0000 H   0  0  0  0  0  0  0  0  0  0  0  0
    7.3757    2.8284    0.0000 H   0  0  0  0  0  0  0  0  0  0  0  0
    5.4680    3.9296    0.0000 H   0  0  0  0  0  0  0  0  0  0  0  0
    4.8405    4.7958    0.0000 H   0  0  0  0  0  0  0  0  0  0  0  0
    2.8553    4.3778    0.0000 H   0  0  0  0  0  0  0  0  0  0  0  0
    3.2914    5.3545    0.0000 H   0  0  0  0  0  0  0  0  0  0  0  0
    5.3193    5.3511    0.0000 H   0  0  0  0  0  0  0  0  0  0  0  0
    4.6920    6.2174    0.0000 H   0  0  0  0  0  0  0  0  0  0  0  0
    4.1674    6.7954    0.0000 H   0  0  0  0  0  0  0  0  0  0  0  0
    2.8716    4.4951    0.0000 H   0  0  0  0  0  0  0  0  0  0  0  0
    1.6282    3.1208    0.0000 H   0  0  0  0  0  0  0  0  0  0  0  0
    1.8531    4.1669    0.0000 H   0  0  0  0  0  0  0  0  0  0  0  0
    1.6330   -3.1212    0.0000 H   0  0  0  0  0  0  0  0  0  0  0  0
    2.8766   -4.4952    0.0000 H   0  0  0  0  0  0  0  0  0  0  0  0
    1.8582   -4.1672    0.0000 H   0  0  0  0  0  0  0  0  0  0  0  0
   -0.6876    3.3766    0.0000 H   0  0  0  0  0  0  0  0  0  0  0  0
    0.2392    4.9815    0.0000 H   0  0  0  0  0  0  0  0  0  0  0  0
    0.2391    3.9115    0.0000 H   0  0  0  0  0  0  0  0  0  0  0  0
   -0.6876    3.3766    0.0000 H   0  0  0  0  0  0  0  0  0  0  0  0
    0.2392    4.9815    0.0000 H   0  0  0  0  0  0  0  0  0  0  0  0
    0.2391    3.9115    0.0000 H   0  0  0  0  0  0  0  0  0  0  0  0
  2 73  1  0  0  0  0
  3  2  1  0  0  0  0
  3 74  1  0  0  0  0
  3 75  1  0  0  0  0
  4  3  1  0  0  0  0
  4 76  1  0  0  0  0
  4 77  1  0  0  0  0
  5  4  1  0  0  0  0
  5 78  1  0  0  0  0
  5 79  1  0  0  0  0
  6 49  1  0  0  0  0
  6  5  1  0  0  0  0
  7 64  1  0  0  0  0
  7  6  2  0  0  0  0
  8  7  1  0  0  0  0
  9  8  1  0  0  0  0
  9 80  1  0  0  0  0
 10  9  2  0  0  0  0
 11 10  1  0  0  0  0
 11 12  2  0  0  0  0
 12 13  1  0  0  0  0
 12 81  1  0  0  0  0
 13 14  1  0  0  0  0
 13 25  2  0  0  0  0
 14 15  1  0  0  0  0
 15 16  1  0  0  0  0
 15 82  1  0  0  0  0
 15 83  1  0  0  0  0
 16 17  1  0  0  0  0
 16 84  1  0  0  0  0
 16 85  1  0  0  0  0
 17 18  1  0  0  0  0
 18 19  1  0  0  0  0
 18 86  1  0  0  0  0
 18 87  1  0  0  0  0
 19 20  1  0  0  0  0
 19 88  1  0  0  0  0
 19 89  1  0  0  0  0
 20 21  1  0  0  0  0
 21 22  1  0  0  0  0
 21 90  1  0  0  0  0
 21 91  1  0  0  0  0
 22 23  1  0  0  0  0
 22 92  1  0  0  0  0
 22 93  1  0  0  0  0
 23 24  1  0  0  0  0
 24 94  1  0  0  0  0
 24 95  1  0  0  0  0
 24 96  1  0  0  0  0
 25 26  1  0  0  0  0
 25 37  1  0  0  0  0
 26 27  1  0  0  0  0
 27 28  1  0  0  0  0
 27 97  1  0  0  0  0
 27 98  1  0  0  0  0
 28 29  1  0  0  0  0
 28 99  1  0  0  0  0
 28100  1  0  0  0  0
 29 30  1  0  0  0  0
 30 31  1  0  0  0  0
 30101  1  0  0  0  0
 30102  1  0  0  0  0
 31 32  1  0  0  0  0
 31103  1  0  0  0  0
 31104  1  0  0  0  0
 32 33  1  0  0  0  0
 33 34  1  0  0  0  0
 33105  1  0  0  0  0
 33106  1  0  0  0  0
 34 35  1  0  0  0  0
 34107  1  0  0  0  0
 34108  1  0  0  0  0
 35 36  1  0  0  0  0
 36109  1  0  0  0  0
 36110  1  0  0  0  0
 36111  1  0  0  0  0
 37 38  2  0  0  0  0
 37112  1  0  0  0  0
 38 39  1  0  0  0  0
 38 11  1  0  0  0  0
 39 40  2  0  0  0  0
 40 41  1  0  0  0  0
 40113  1  0  0  0  0
 41 62  1  0  0  0  0
 42 41  2  0  0  0  0
 43 42  1  0  0  0  0
 43 44  2  0  0  0  0
 44 45  1  0  0  0  0
 44114  1  0  0  0  0
 45 46  1  0  0  0  0
 45 54  2  0  0  0  0
 46 47  1  0  0  0  0
 47 51  2  0  0  0  0
 48 47  1  0  0  0  0
 48115  1  0  0  0  0
 49 48  2  0  0  0  0
 49 50  1  0  0  0  0
 50  8  2  0  0  0  0
 51 52  1  0  0  0  0
 52 53  1  0  0  0  0
 52116  1  0  0  0  0
 52117  1  0  0  0  0
 53118  1  0  0  0  0
 53119  1  0  0  0  0
 53120  1  0  0  0  0
 54 51  1  0  0  0  0
 54 55  1  0  0  0  0
 55 56  1  0  0  0  0
 55121  1  0  0  0  0
 55122  1  0  0  0  0
 56123  1  0  0  0  0
 56124  1  0  0  0  0
 56125  1  0  0  0  0
 57 43  1  0  0  0  0
 57 58  1  0  0  0  0
 58 59  1  0  0  0  0
 58126  1  0  0  0  0
 58127  1  0  0  0  0
 59 60  1  0  0  0  0
 59128  1  0  0  0  0
 59129  1  0  0  0  0
 60 61  1  0  0  0  0
 60130  1  0  0  0  0
 60131  1  0  0  0  0
 61132  1  0  0  0  0
 62 57  2  0  0  0  0
 62 63  1  0  0  0  0
 63133  1  0  0  0  0
 63134  1  0  0  0  0
 63135  1  0  0  0  0
 64136  1  0  0  0  0
 64137  1  0  0  0  0
 64138  1  0  0  0  0
 65139  1  0  0  0  0
 65140  1  0  0  0  0
 65141  1  0  0  0  0
 66 65  1  0  0  0  0
 66 67  2  0  0  0  0
 68 66  1  0  0  0  0
 69142  1  0  0  0  0
 69143  1  0  0  0  0
 69144  1  0  0  0  0
 70 69  1  0  0  0  0
 70 71  2  0  0  0  0
 72 70  1  0  0  0  0
M  CHG  4   1   3  46  -1  68  -1  72  -1
M  END
>  <DRUGBANK_ID>
DB05296

>  <COMMON_NAME>
Motexafin lutetium

>  <CAS_NUMBER>
246252-04-0

>  <UNII>
0V38NF6N89

>  <SYNONYMS>
Lutetium texaphyrin anhydrous; Motexafin lutetium anhydrous

$$$$
