909
 OpenBabel10282417072D

 22 23  0  0  0  0  0  0  0  0999 V2000
    4.9232    0.8180    0.0000 S   0  0  0  0  0  0  0  0  0  0  0  0
    3.8596   -1.4641    0.0000 O   0  0  0  0  0  0  0  0  0  0  0  0
    4.7530    1.6253    0.0000 O   0  0  0  0  0  0  0  0  0  0  0  0
    5.0934    0.0107    0.0000 O   0  0  0  0  0  0  0  0  0  0  0  0
    4.3411   -0.8003    0.0000 N   0  0  0  0  0  0  0  0  0  0  0  0
    5.7304    0.9881    0.0000 N   0  0  0  0  0  0  0  0  0  0  0  0
    4.1159    0.6479    0.0000 C   0  0  0  0  0  0  0  0  0  0  0  0
    3.8596   -0.1364    0.0000 C   0  0  0  0  0  0  0  0  0  0  0  0
    3.0790   -0.3878    0.0000 C   0  0  0  0  0  0  0  0  0  0  0  0
    3.0790   -1.2128    0.0000 C   0  0  0  0  0  0  0  0  0  0  0  0
    2.3645    0.0248    0.0000 C   0  0  0  0  0  0  0  0  0  0  0  0
    2.3645   -1.6253    0.0000 C   0  0  0  0  0  0  0  0  0  0  0  0
    1.6500   -0.3878    0.0000 C   0  0  0  0  0  0  0  0  0  0  0  0
    1.6500   -1.2128    0.0000 C   0  0  0  0  0  0  0  0  0  0  0  0
    6.4116    0.2289    0.0000 H   0  0  0  0  0  0  0  0  0  0  0  0
    6.0473    1.9576    0.0000 H   0  0  0  0  0  0  0  0  0  0  0  0
    3.4013    1.4443    0.0000 H   0  0  0  0  0  0  0  0  0  0  0  0
    3.0689    0.4272    0.0000 H   0  0  0  0  0  0  0  0  0  0  0  0
    2.3645    1.0568    0.0000 H   0  0  0  0  0  0  0  0  0  0  0  0
    2.3645   -2.6573    0.0000 H   0  0  0  0  0  0  0  0  0  0  0  0
    0.7562    0.1282    0.0000 H   0  0  0  0  0  0  0  0  0  0  0  0
    0.7563   -1.7288    0.0000 H   0  0  0  0  0  0  0  0  0  0  0  0
  1  3  2  0  0  0  0
  1  4  2  0  0  0  0
  1  6  1  0  0  0  0
  1  7  1  0  0  0  0
  2  5  1  0  0  0  0
  2 10  1  0  0  0  0
  5  8  2  0  0  0  0
  6 15  1  0  0  0  0
  6 16  1  0  0  0  0
  7  8  1  0  0  0  0
  7 17  1  0  0  0  0
  7 18  1  0  0  0  0
  8  9  1  0  0  0  0
  9 10  1  0  0  0  0
  9 11  2  0  0  0  0
 10 12  2  0  0  0  0
 11 13  1  0  0  0  0
 11 19  1  0  0  0  0
 12 14  1  0  0  0  0
 12 20  1  0  0  0  0
 13 14  2  0  0  0  0
 13 21  1  0  0  0  0
 14 22  1  0  0  0  0
M  END
>  <DRUGBANK_ID>
DB00909

>  <SECONDARY_ACCESSION_NUMBERS>
APRD00004

>  <COMMON_NAME>
Zonisamide

>  <CAS_NUMBER>
68291-97-4

>  <UNII>
459384H98V

>  <SYNONYMS>
1,2-Benzisoxazole-3-methanesulfonamide; 3-(Sulfamoylmethyl)-1,2-benzisoxazole; Benzo[d]isoxazol-3-yl-methanesulfonamide; Zonisamida; Zonisamide; Zonisamidum

$$$$
