
 OpenBabel10282417072D

 57 60  0  0  0  0  0  0  0  0999 V2000
    1.4289   -3.3000    0.0000 C   0  0  0  0  0  0  0  0  0  0  0  0
    2.1434   -2.8875    0.0000 C   0  0  0  0  0  0  0  0  0  0  0  0
    2.5559   -3.6020    0.0000 C   0  0  0  0  0  0  0  0  0  0  0  0
    1.7309   -2.1730    0.0000 C   0  0  0  0  0  0  0  0  0  0  0  0
    2.8579   -2.4750    0.0000 N   0  0  0  0  0  0  0  0  0  0  0  0
    2.8579   -1.6500    0.0000 C   0  0  0  0  0  0  0  0  0  0  0  0
    3.5724   -1.2375    0.0000 C   0  0  0  0  0  0  0  0  0  0  0  0
    3.5724   -0.4125    0.0000 C   0  0  0  0  0  0  0  0  0  0  0  0
    4.2868    0.0000    0.0000 C   0  0  0  0  0  0  0  0  0  0  0  0
    4.2868    0.8250    0.0000 N   0  0  0  0  0  0  0  0  0  0  0  0
    3.5724    1.2375    0.0000 C   0  0  0  0  0  0  0  0  0  0  0  0
    2.8579    0.8250    0.0000 C   0  0  0  0  0  0  0  0  0  0  0  0
    2.1434    1.2375    0.0000 C   0  0  0  0  0  0  0  0  0  0  0  0
    2.1434    2.0625    0.0000 N   0  0  0  0  0  0  0  0  0  0  0  0
    2.8579    2.4750    0.0000 C   0  0  0  0  0  0  0  0  0  0  0  0
    2.8579    3.3000    0.0000 C   0  0  0  0  0  0  0  0  0  0  0  0
    3.5724    3.7125    0.0000 C   0  0  0  0  0  0  0  0  0  0  0  0
    3.5724    4.5375    0.0000 Cl  0  0  0  0  0  0  0  0  0  0  0  0
    4.2868    3.3000    0.0000 C   0  0  0  0  0  0  0  0  0  0  0  0
    4.2868    2.4750    0.0000 C   0  0  0  0  0  0  0  0  0  0  0  0
    3.5724    2.0625    0.0000 C   0  0  0  0  0  0  0  0  0  0  0  0
    5.0013   -0.4125    0.0000 C   0  0  0  0  0  0  0  0  0  0  0  0
    5.7158    0.0000    0.0000 C   0  0  0  0  0  0  0  0  0  0  0  0
    6.4302   -0.4125    0.0000 C   0  0  0  0  0  0  0  0  0  0  0  0
    6.4302   -1.2375    0.0000 C   0  0  0  0  0  0  0  0  0  0  0  0
    5.7158   -1.6500    0.0000 C   0  0  0  0  0  0  0  0  0  0  0  0
    5.0013   -1.2375    0.0000 C   0  0  0  0  0  0  0  0  0  0  0  0
    4.2868   -1.6500    0.0000 C   0  0  0  0  0  0  0  0  0  0  0  0
    4.2868   -2.4750    0.0000 O   0  0  0  0  0  0  0  0  0  0  0  0
    0.5023   -2.7650    0.0000 H   0  0  0  0  0  0  0  0  0  0  0  0
    1.4289   -4.3700    0.0000 H   0  0  0  0  0  0  0  0  0  0  0  0
    0.5022   -3.8350    0.0000 H   0  0  0  0  0  0  0  0  0  0  0  0
    2.0209   -4.5286    0.0000 H   0  0  0  0  0  0  0  0  0  0  0  0
    3.6259   -3.6020    0.0000 H   0  0  0  0  0  0  0  0  0  0  0  0
    3.0909   -4.5287    0.0000 H   0  0  0  0  0  0  0  0  0  0  0  0
    2.2659   -1.2464    0.0000 H   0  0  0  0  0  0  0  0  0  0  0  0
    0.6609   -2.1730    0.0000 H   0  0  0  0  0  0  0  0  0  0  0  0
    1.1959   -1.2463    0.0000 H   0  0  0  0  0  0  0  0  0  0  0  0
    3.7412   -2.9850    0.0000 H   0  0  0  0  0  0  0  0  0  0  0  0
    1.9313   -1.1150    0.0000 H   0  0  0  0  0  0  0  0  0  0  0  0
    2.8579   -0.5800    0.0000 H   0  0  0  0  0  0  0  0  0  0  0  0
    2.6787    0.1035    0.0000 H   0  0  0  0  0  0  0  0  0  0  0  0
    5.1394    1.3172    0.0000 H   0  0  0  0  0  0  0  0  0  0  0  0
    2.8579   -0.2070    0.0000 H   0  0  0  0  0  0  0  0  0  0  0  0
    1.2497    0.7215    0.0000 H   0  0  0  0  0  0  0  0  0  0  0  0
    1.9642    3.8160    0.0000 H   0  0  0  0  0  0  0  0  0  0  0  0
    5.1805    3.8160    0.0000 H   0  0  0  0  0  0  0  0  0  0  0  0
    5.1805    1.9590    0.0000 H   0  0  0  0  0  0  0  0  0  0  0  0
    5.7158    1.0700    0.0000 H   0  0  0  0  0  0  0  0  0  0  0  0
    6.6425    0.5350    0.0000 H   0  0  0  0  0  0  0  0  0  0  0  0
    7.3569    0.1225    0.0000 H   0  0  0  0  0  0  0  0  0  0  0  0
    7.3568   -0.9475    0.0000 H   0  0  0  0  0  0  0  0  0  0  0  0
    7.3569   -1.7725    0.0000 H   0  0  0  0  0  0  0  0  0  0  0  0
    6.4302   -2.3075    0.0000 H   0  0  0  0  0  0  0  0  0  0  0  0
    5.7158   -2.7200    0.0000 H   0  0  0  0  0  0  0  0  0  0  0  0
    4.7892   -2.1850    0.0000 H   0  0  0  0  0  0  0  0  0  0  0  0
    3.4753   -2.9435    0.0000 H   0  0  0  0  0  0  0  0  0  0  0  0
  1  2  1  0  0  0  0
  1 30  1  0  0  0  0
  1 31  1  0  0  0  0
  1 32  1  0  0  0  0
  2  3  1  0  0  0  0
  2  4  1  0  0  0  0
  2  5  1  0  0  0  0
  3 33  1  0  0  0  0
  3 34  1  0  0  0  0
  3 35  1  0  0  0  0
  4 36  1  0  0  0  0
  4 37  1  0  0  0  0
  4 38  1  0  0  0  0
  5  6  1  0  0  0  0
  5 39  1  0  0  0  0
  6  7  1  0  0  0  0
  6 40  1  0  0  0  0
  6 41  1  0  0  0  0
  7  8  2  0  0  0  0
  7 28  1  0  0  0  0
  8  9  1  0  0  0  0
  8 42  1  0  0  0  0
  9 10  1  0  0  0  0
  9 22  2  0  0  0  0
 10 11  1  0  0  0  0
 10 43  1  0  0  0  0
 11 12  2  0  0  0  0
 11 21  1  0  0  0  0
 12 13  1  0  0  0  0
 12 44  1  0  0  0  0
 13 14  2  0  0  0  0
 13 45  1  0  0  0  0
 14 15  1  0  0  0  0
 15 16  2  0  0  0  0
 15 21  1  0  0  0  0
 16 17  1  0  0  0  0
 16 46  1  0  0  0  0
 17 18  1  0  0  0  0
 17 19  2  0  0  0  0
 19 20  1  0  0  0  0
 19 47  1  0  0  0  0
 20 21  2  0  0  0  0
 20 48  1  0  0  0  0
 22 23  1  0  0  0  0
 22 27  1  0  0  0  0
 23 24  1  0  0  0  0
 23 49  1  0  0  0  0
 23 50  1  0  0  0  0
 24 25  1  0  0  0  0
 24 51  1  0  0  0  0
 24 52  1  0  0  0  0
 25 26  1  0  0  0  0
 25 53  1  0  0  0  0
 25 54  1  0  0  0  0
 26 27  1  0  0  0  0
 26 55  1  0  0  0  0
 26 56  1  0  0  0  0
 27 28  2  0  0  0  0
 28 29  1  0  0  0  0
 29 57  1  0  0  0  0
M  END
>  <DRUGBANK_ID>
DB16249

>  <COMMON_NAME>
Naphthoquine

>  <CAS_NUMBER>
173531-57-2

>  <UNII>
TRY8UD4E2H

$$$$
