
 OpenBabel10282417072D

 39 40  0  0  0  0  0  0  0  0999 V2000
   -0.9254    0.6544    0.0000 C   0  0  0  0  0  0  0  0  0  0  0  0
   -0.2108    1.0667    0.0000 C   0  0  0  0  0  0  0  0  0  0  0  0
    0.5009    0.6548    0.0000 C   0  0  0  0  0  0  0  0  0  0  0  0
    0.5009   -0.1702    0.0000 C   0  0  0  0  0  0  0  0  0  0  0  0
   -0.2090   -0.5820    0.0000 C   0  0  0  0  0  0  0  0  0  0  0  0
   -0.9254   -0.1739    0.0000 C   0  0  0  0  0  0  0  0  0  0  0  0
    1.2156    1.0673    0.0000 N   0  0  0  0  0  0  0  0  0  0  0  0
   -0.2090   -1.4065    0.0000 C   0  0  0  0  0  0  0  0  0  0  0  0
   -1.6429   -0.5881    0.0000 O   0  0  0  0  0  0  0  0  0  0  0  0
   -2.3604   -0.1739    0.0000 C   0  0  0  0  0  0  0  0  0  0  0  0
   -3.0779   -0.5881    0.0000 C   0  0  0  0  0  0  0  0  0  0  0  0
   -3.4639    0.0332    0.0000 C   0  0  0  0  0  0  0  0  0  0  0  0
   -2.6843   -1.2923    0.0000 C   0  0  0  0  0  0  0  0  0  0  0  0
   -3.7954   -1.0024    0.0000 C   0  0  0  0  0  0  0  0  0  0  0  0
    1.2156    1.9125    0.0000 N   0  0  0  0  0  0  0  0  0  0  0  0
    2.0392    2.1687    0.0000 C   0  0  0  0  0  0  0  0  0  0  0  0
    2.5213    1.4993    0.0000 C   0  0  0  0  0  0  0  0  0  0  0  0
    2.0174    0.8156    0.0000 C   0  0  0  0  0  0  0  0  0  0  0  0
    3.3707    1.4993    0.0000 C   0  0  0  0  0  0  0  0  0  0  0  0
    3.7954    2.2349    0.0000 O   0  0  0  0  0  0  0  0  0  0  0  0
    3.7954    0.7638    0.0000 O   0  0  0  0  0  0  0  0  0  0  0  0
   -0.2090   -2.2349    0.0000 N   0  0  0  0  0  0  0  0  0  0  0  0
   -1.8191    1.1705    0.0000 H   0  0  0  0  0  0  0  0  0  0  0  0
   -0.2101    2.0987    0.0000 H   0  0  0  0  0  0  0  0  0  0  0  0
    1.3952   -0.6853    0.0000 H   0  0  0  0  0  0  0  0  0  0  0  0
   -2.3604    0.8961    0.0000 H   0  0  0  0  0  0  0  0  0  0  0  0
   -3.2870    0.3611    0.0000 H   0  0  0  0  0  0  0  0  0  0  0  0
   -2.9591    0.9767    0.0000 H   0  0  0  0  0  0  0  0  0  0  0  0
   -4.5333   -0.0014    0.0000 H   0  0  0  0  0  0  0  0  0  0  0  0
   -4.0286    0.9421    0.0000 H   0  0  0  0  0  0  0  0  0  0  0  0
   -3.2322   -2.2114    0.0000 H   0  0  0  0  0  0  0  0  0  0  0  0
   -1.6144   -1.3072    0.0000 H   0  0  0  0  0  0  0  0  0  0  0  0
   -2.1623   -2.2263    0.0000 H   0  0  0  0  0  0  0  0  0  0  0  0
   -4.7221   -0.4674    0.0000 H   0  0  0  0  0  0  0  0  0  0  0  0
   -3.7953   -2.0724    0.0000 H   0  0  0  0  0  0  0  0  0  0  0  0
   -4.7220   -1.5374    0.0000 H   0  0  0  0  0  0  0  0  0  0  0  0
    2.3663    3.1475    0.0000 H   0  0  0  0  0  0  0  0  0  0  0  0
    2.3379   -0.1654    0.0000 H   0  0  0  0  0  0  0  0  0  0  0  0
    3.3269   -0.0477    0.0000 H   0  0  0  0  0  0  0  0  0  0  0  0
  1  6  1  0  0  0  0
  1 23  1  0  0  0  0
  2  1  2  0  0  0  0
  2 24  1  0  0  0  0
  3  2  1  0  0  0  0
  3  7  1  0  0  0  0
  4  3  2  0  0  0  0
  4 25  1  0  0  0  0
  5  4  1  0  0  0  0
  5  8  1  0  0  0  0
  6  5  2  0  0  0  0
  6  9  1  0  0  0  0
  7 18  1  0  0  0  0
  8 22  3  0  0  0  0
 10  9  1  0  0  0  0
 10 11  1  0  0  0  0
 10 26  1  0  0  0  0
 10 27  1  0  0  0  0
 11 13  1  0  0  0  0
 11 14  1  0  0  0  0
 12 11  1  0  0  0  0
 12 28  1  0  0  0  0
 12 29  1  0  0  0  0
 12 30  1  0  0  0  0
 13 31  1  0  0  0  0
 13 32  1  0  0  0  0
 13 33  1  0  0  0  0
 14 34  1  0  0  0  0
 14 35  1  0  0  0  0
 14 36  1  0  0  0  0
 15  7  1  0  0  0  0
 15 16  2  0  0  0  0
 16 17  1  0  0  0  0
 16 37  1  0  0  0  0
 17 19  1  0  0  0  0
 18 17  2  0  0  0  0
 18 38  1  0  0  0  0
 19 20  2  0  0  0  0
 19 21  1  0  0  0  0
 21 39  1  0  0  0  0
M  END
>  <DRUGBANK_ID>
DB03841

>  <SECONDARY_ACCESSION_NUMBERS>
EXPT03278

>  <COMMON_NAME>
Niraxostat

>  <CAS_NUMBER>
206884-98-2

>  <UNII>
246FR6022S

>  <SYNONYMS>
Niraxostat; Piraxostat

$$$$
