
 OpenBabel10282417072D

 52 54  0  0  0  0  0  0  0  0999 V2000
    3.2150    1.0312    0.0000 C   0  0  0  0  0  0  0  0  0  0  0  0
    3.2150    0.2062    0.0000 C   0  0  0  0  0  0  0  0  0  0  0  0
    2.5006   -0.2062    0.0000 C   0  0  0  0  0  0  0  0  0  0  0  0
    2.5006   -1.0312    0.0000 C   0  0  0  0  0  0  0  0  0  0  0  0
    3.2150   -1.4437    0.0000 C   0  0  0  0  0  0  0  0  0  0  0  0
    3.9295   -1.0312    0.0000 C   0  0  0  0  0  0  0  0  0  0  0  0
    3.9295   -0.2062    0.0000 C   0  0  0  0  0  0  0  0  0  0  0  0
    2.5006    1.4437    0.0000 O   0  0  0  0  0  0  0  0  0  0  0  0
    3.9295    1.4437    0.0000 O   0  0  0  0  0  0  0  0  0  0  0  0
    1.7861    0.2062    0.0000 C   0  0  0  0  0  0  0  0  0  0  0  0
    1.0716   -0.2062    0.0000 C   0  0  0  0  0  0  0  0  0  0  0  0
    1.0716   -1.0312    0.0000 C   0  0  0  0  0  0  0  0  0  0  0  0
    0.3572   -1.4437    0.0000 C   0  0  0  0  0  0  0  0  0  0  0  0
   -0.3572   -1.0312    0.0000 C   0  0  0  0  0  0  0  0  0  0  0  0
   -0.3572   -0.2062    0.0000 C   0  0  0  0  0  0  0  0  0  0  0  0
    0.3572    0.2062    0.0000 C   0  0  0  0  0  0  0  0  0  0  0  0
    1.7861    1.0312    0.0000 O   0  0  0  0  0  0  0  0  0  0  0  0
   -1.0717   -1.4437    0.0000 O   0  0  0  0  0  0  0  0  0  0  0  0
   -1.7861   -1.0312    0.0000 C   0  0  0  0  0  0  0  0  0  0  0  0
   -2.5007   -1.4437    0.0000 C   0  0  0  0  0  0  0  0  0  0  0  0
   -3.2151   -1.0312    0.0000 N   0  0  0  0  0  0  0  0  0  0  0  0
   -3.9296   -1.4437    0.0000 C   0  0  0  0  0  0  0  0  0  0  0  0
   -4.6440   -1.0312    0.0000 C   0  0  0  0  0  0  0  0  0  0  0  0
   -4.6440   -0.2062    0.0000 C   0  0  0  0  0  0  0  0  0  0  0  0
   -3.9296    0.2062    0.0000 C   0  0  0  0  0  0  0  0  0  0  0  0
   -3.2151   -0.2062    0.0000 C   0  0  0  0  0  0  0  0  0  0  0  0
    4.6440    1.0312    0.0000 C   0  0  0  0  0  0  0  0  0  0  0  0
    1.6069   -1.5472    0.0000 H   0  0  0  0  0  0  0  0  0  0  0  0
    3.2150   -2.4757    0.0000 H   0  0  0  0  0  0  0  0  0  0  0  0
    4.8232   -1.5472    0.0000 H   0  0  0  0  0  0  0  0  0  0  0  0
    4.8232    0.3099    0.0000 H   0  0  0  0  0  0  0  0  0  0  0  0
    1.9653   -1.5472    0.0000 H   0  0  0  0  0  0  0  0  0  0  0  0
    0.3572   -2.4757    0.0000 H   0  0  0  0  0  0  0  0  0  0  0  0
   -1.2509    0.3098    0.0000 H   0  0  0  0  0  0  0  0  0  0  0  0
    0.3572    1.2382    0.0000 H   0  0  0  0  0  0  0  0  0  0  0  0
   -1.7860    0.0388    0.0000 H   0  0  0  0  0  0  0  0  0  0  0  0
   -0.8594   -0.4962    0.0000 H   0  0  0  0  0  0  0  0  0  0  0  0
   -2.5008   -2.5137    0.0000 H   0  0  0  0  0  0  0  0  0  0  0  0
   -3.4274   -1.9787    0.0000 H   0  0  0  0  0  0  0  0  0  0  0  0
   -3.9296   -2.5137    0.0000 H   0  0  0  0  0  0  0  0  0  0  0  0
   -4.8563   -1.9787    0.0000 H   0  0  0  0  0  0  0  0  0  0  0  0
   -5.5707   -1.5662    0.0000 H   0  0  0  0  0  0  0  0  0  0  0  0
   -5.5706   -0.4962    0.0000 H   0  0  0  0  0  0  0  0  0  0  0  0
   -5.5706    0.3288    0.0000 H   0  0  0  0  0  0  0  0  0  0  0  0
   -4.6440    0.8638    0.0000 H   0  0  0  0  0  0  0  0  0  0  0  0
   -3.9296    1.2762    0.0000 H   0  0  0  0  0  0  0  0  0  0  0  0
   -3.0030    0.7413    0.0000 H   0  0  0  0  0  0  0  0  0  0  0  0
   -2.2885    0.3289    0.0000 H   0  0  0  0  0  0  0  0  0  0  0  0
   -2.2884   -0.7412    0.0000 H   0  0  0  0  0  0  0  0  0  0  0  0
    4.6440   -0.0388    0.0000 H   0  0  0  0  0  0  0  0  0  0  0  0
    5.5706    1.5662    0.0000 H   0  0  0  0  0  0  0  0  0  0  0  0
    5.5707    0.4962    0.0000 H   0  0  0  0  0  0  0  0  0  0  0  0
  1  2  1  0  0  0  0
  1  8  2  0  0  0  0
  1  9  1  0  0  0  0
  2  3  1  0  0  0  0
  2  7  2  0  0  0  0
  3  4  2  0  0  0  0
  3 10  1  0  0  0  0
  4  5  1  0  0  0  0
  4 28  1  0  0  0  0
  5  6  2  0  0  0  0
  5 29  1  0  0  0  0
  6  7  1  0  0  0  0
  6 30  1  0  0  0  0
  7 31  1  0  0  0  0
  9 27  1  0  0  0  0
 10 11  1  0  0  0  0
 10 17  2  0  0  0  0
 11 12  1  0  0  0  0
 11 16  2  0  0  0  0
 12 13  2  0  0  0  0
 12 32  1  0  0  0  0
 13 14  1  0  0  0  0
 13 33  1  0  0  0  0
 14 15  2  0  0  0  0
 14 18  1  0  0  0  0
 15 16  1  0  0  0  0
 15 34  1  0  0  0  0
 16 35  1  0  0  0  0
 18 19  1  0  0  0  0
 19 20  1  0  0  0  0
 19 36  1  0  0  0  0
 19 37  1  0  0  0  0
 20 21  1  0  0  0  0
 20 38  1  0  0  0  0
 20 39  1  0  0  0  0
 21 22  1  0  0  0  0
 21 26  1  0  0  0  0
 22 23  1  0  0  0  0
 22 40  1  0  0  0  0
 22 41  1  0  0  0  0
 23 24  1  0  0  0  0
 23 42  1  0  0  0  0
 23 43  1  0  0  0  0
 24 25  1  0  0  0  0
 24 44  1  0  0  0  0
 24 45  1  0  0  0  0
 25 26  1  0  0  0  0
 25 46  1  0  0  0  0
 25 47  1  0  0  0  0
 26 48  1  0  0  0  0
 26 49  1  0  0  0  0
 27 50  1  0  0  0  0
 27 51  1  0  0  0  0
 27 52  1  0  0  0  0
M  END
>  <DRUGBANK_ID>
DB15947

>  <COMMON_NAME>
Pitofenone

>  <CAS_NUMBER>
54063-52-4

>  <UNII>
M09N8K7YJY

>  <SYNONYMS>
Pitofenona; Pitofenone; Pitofenonum

$$$$
