CK9
 OpenBabel10282417072D

 53 55  0  0  0  0  0  0  0  0999 V2000
    0.7284   -2.7668    0.0000 O   0  0  0  0  0  0  0  0  0  0  0  0
    0.0140   -3.1793    0.0000 C   0  0  0  0  0  0  0  0  0  0  0  0
    0.0140   -4.0043    0.0000 C   0  0  0  0  0  0  0  0  0  0  0  0
   -0.7005   -4.4168    0.0000 C   0  0  0  0  0  0  0  0  0  0  0  0
   -1.4150   -4.0043    0.0000 C   0  0  0  0  0  0  0  0  0  0  0  0
   -1.4150   -3.1793    0.0000 C   0  0  0  0  0  0  0  0  0  0  0  0
   -0.7005   -2.7668    0.0000 C   0  0  0  0  0  0  0  0  0  0  0  0
   -0.7005   -1.9418    0.0000 C   0  0  0  0  0  0  0  0  0  0  0  0
    0.0140   -1.5293    0.0000 N   0  0  0  0  0  0  0  0  0  0  0  0
    0.0140   -0.7043    0.0000 C   0  0  0  0  0  0  0  0  0  0  0  0
   -0.7005   -0.2918    0.0000 C   0  0  0  0  0  0  0  0  0  0  0  0
   -1.4851   -0.5467    0.0000 N   0  0  0  0  0  0  0  0  0  0  0  0
   -1.9701    0.1207    0.0000 C   0  0  0  0  0  0  0  0  0  0  0  0
   -0.7005    0.5332    0.0000 C   0  0  0  0  0  0  0  0  0  0  0  0
   -1.4851    0.7881    0.0000 N   0  0  0  0  0  0  0  0  0  0  0  0
   -1.7401    1.5728    0.0000 C   0  0  0  0  0  0  0  0  0  0  0  0
   -1.1880    2.1859    0.0000 C   0  0  0  0  0  0  0  0  0  0  0  0
   -2.5470    1.7443    0.0000 C   0  0  0  0  0  0  0  0  0  0  0  0
    0.0140    0.9457    0.0000 N   0  0  0  0  0  0  0  0  0  0  0  0
    0.7284    0.5332    0.0000 C   0  0  0  0  0  0  0  0  0  0  0  0
    0.7284   -0.2918    0.0000 N   0  0  0  0  0  0  0  0  0  0  0  0
    1.4429    0.9457    0.0000 N   0  0  0  0  0  0  0  0  0  0  0  0
    1.4429    1.7707    0.0000 C   0  0  2  0  0  0  0  0  0  0  0  0
    2.1574    2.1832    0.0000 C   0  0  0  0  0  0  0  0  0  0  0  0
    2.1574    3.0082    0.0000 C   0  0  0  0  0  0  0  0  0  0  0  0
    0.7284    2.1832    0.0000 C   0  0  0  0  0  0  0  0  0  0  0  0
    0.7284    3.0082    0.0000 O   0  0  0  0  0  0  0  0  0  0  0  0
    1.9486    1.4787    0.0000 H   0  0  0  0  0  0  0  0  0  0  0  0
    1.5399   -3.2353    0.0000 H   0  0  0  0  0  0  0  0  0  0  0  0
    0.9077   -4.5203    0.0000 H   0  0  0  0  0  0  0  0  0  0  0  0
   -0.7005   -5.4488    0.0000 H   0  0  0  0  0  0  0  0  0  0  0  0
   -2.3087   -4.5203    0.0000 H   0  0  0  0  0  0  0  0  0  0  0  0
   -2.3087   -2.6633    0.0000 H   0  0  0  0  0  0  0  0  0  0  0  0
   -1.6271   -1.4068    0.0000 H   0  0  0  0  0  0  0  0  0  0  0  0
   -0.7005   -0.8718    0.0000 H   0  0  0  0  0  0  0  0  0  0  0  0
    0.8666   -2.0216    0.0000 H   0  0  0  0  0  0  0  0  0  0  0  0
   -3.0021    0.1207    0.0000 H   0  0  0  0  0  0  0  0  0  0  0  0
   -2.0707    2.5904    0.0000 H   0  0  0  0  0  0  0  0  0  0  0  0
   -0.1414    1.9634    0.0000 H   0  0  0  0  0  0  0  0  0  0  0  0
   -1.5186    3.2035    0.0000 H   0  0  0  0  0  0  0  0  0  0  0  0
   -0.4720    2.9810    0.0000 H   0  0  0  0  0  0  0  0  0  0  0  0
   -2.8777    2.7619    0.0000 H   0  0  0  0  0  0  0  0  0  0  0  0
   -3.2630    0.9491    0.0000 H   0  0  0  0  0  0  0  0  0  0  0  0
   -3.5936    1.9668    0.0000 H   0  0  0  0  0  0  0  0  0  0  0  0
    2.2955    0.4534    0.0000 H   0  0  0  0  0  0  0  0  0  0  0  0
    3.0840    1.6482    0.0000 H   0  0  0  0  0  0  0  0  0  0  0  0
    3.0840    2.7182    0.0000 H   0  0  0  0  0  0  0  0  0  0  0  0
    3.0840    3.5432    0.0000 H   0  0  0  0  0  0  0  0  0  0  0  0
    1.2308    3.5432    0.0000 H   0  0  0  0  0  0  0  0  0  0  0  0
    2.1574    4.0782    0.0000 H   0  0  0  0  0  0  0  0  0  0  0  0
   -0.1982    1.6482    0.0000 H   0  0  0  0  0  0  0  0  0  0  0  0
   -0.1982    2.7182    0.0000 H   0  0  0  0  0  0  0  0  0  0  0  0
    1.5684    3.4932    0.0000 H   0  0  0  0  0  0  0  0  0  0  0  0
  1  2  1  0  0  0  0
  1 29  1  0  0  0  0
  2  3  2  0  0  0  0
  2  7  1  0  0  0  0
  3  4  1  0  0  0  0
  3 30  1  0  0  0  0
  4  5  2  0  0  0  0
  4 31  1  0  0  0  0
  5  6  1  0  0  0  0
  5 32  1  0  0  0  0
  6  7  2  0  0  0  0
  6 33  1  0  0  0  0
  7  8  1  0  0  0  0
  8  9  1  0  0  0  0
  8 34  1  0  0  0  0
  8 35  1  0  0  0  0
  9 10  1  0  0  0  0
  9 36  1  0  0  0  0
 10 11  1  0  0  0  0
 10 21  2  0  0  0  0
 11 12  1  0  0  0  0
 11 14  2  0  0  0  0
 12 13  2  0  0  0  0
 13 15  1  0  0  0  0
 13 37  1  0  0  0  0
 14 15  1  0  0  0  0
 14 19  1  0  0  0  0
 15 16  1  0  0  0  0
 16 17  1  0  0  0  0
 16 18  1  0  0  0  0
 16 38  1  0  0  0  0
 17 39  1  0  0  0  0
 17 40  1  0  0  0  0
 17 41  1  0  0  0  0
 18 42  1  0  0  0  0
 18 43  1  0  0  0  0
 18 44  1  0  0  0  0
 19 20  2  0  0  0  0
 20 21  1  0  0  0  0
 20 22  1  0  0  0  0
 22 45  1  0  0  0  0
 23 22  1  0  0  0  0
 23 24  1  0  0  0  0
 23 26  1  0  0  0  0
 23 28  1  6  0  0  0
 24 25  1  0  0  0  0
 24 46  1  0  0  0  0
 24 47  1  0  0  0  0
 25 48  1  0  0  0  0
 25 49  1  0  0  0  0
 25 50  1  0  0  0  0
 26 27  1  0  0  0  0
 26 51  1  0  0  0  0
 26 52  1  0  0  0  0
 27 53  1  0  0  0  0
M  END
>  <DRUGBANK_ID>
DB04662

>  <COMMON_NAME>
OLOMOUCINE II

$$$$
