
 OpenBabel10282417072D

  5  3  0  0  0  0  0  0  0  0999 V2000
   -0.9503   -0.1869    0.0000 I   0  0  0  0  0  0  0  0  0  0  0  0
   -0.9639    0.7513    0.0000 O   0  0  0  0  0  0  0  0  0  0  0  0
   -1.5520   -0.7513    0.0000 O   0  0  0  0  0  0  0  0  0  0  0  0
   -0.1343   -0.1869    0.0000 O   0  5  0  0  0  0  0  0  0  0  0  0
    1.5520   -0.1360    0.0000 K   0  3  0  0  0  0  0  0  0  0  0  0
  1  2  2  0  0  0  0
  1  3  2  0  0  0  0
  1  4  1  0  0  0  0
M  CHG  2   4  -1   5   1
M  END
>  <DRUGBANK_ID>
DB15923

>  <COMMON_NAME>
Potassium iodate

>  <CAS_NUMBER>
7758-05-6

>  <UNII>
I139E44NHL

>  <SYNONYMS>
Iodic acid, potassium salt

$$$$
