AK1
 OpenBabel10282417072D

 46 49  0  0  0  0  0  0  0  0999 V2000
   -0.6406    1.1996    0.0000 C   0  0  0  0  0  0  0  0  0  0  0  0
    0.1131    0.8640    0.0000 C   0  0  0  0  0  0  0  0  0  0  0  0
   -0.6676   -5.1450    0.0000 C   0  0  0  0  0  0  0  0  0  0  0  0
   -0.8170   -3.7239    0.0000 C   0  0  0  0  0  0  0  0  0  0  0  0
    0.8240   -3.5514    0.0000 C   0  0  0  0  0  0  0  0  0  0  0  0
   -0.4814   -2.9702    0.0000 C   0  0  0  0  0  0  0  0  0  0  0  0
    0.8275    1.2765    0.0000 C   0  0  0  0  0  0  0  0  0  0  0  0
   -0.6308   -1.5491    0.0000 C   0  0  0  0  0  0  0  0  0  0  0  0
    0.8275    2.1015    0.0000 C   0  0  0  0  0  0  0  0  0  0  0  0
    1.5420    3.3390    0.0000 C   0  0  0  0  0  0  0  0  0  0  0  0
    2.2565    4.5765    0.0000 C   0  0  0  0  0  0  0  0  0  0  0  0
    0.8275    3.7515    0.0000 C   0  0  0  0  0  0  0  0  0  0  0  0
    0.8275    4.5765    0.0000 C   0  0  0  0  0  0  0  0  0  0  0  0
    0.0429    4.8315    0.0000 C   0  0  0  0  0  0  0  0  0  0  0  0
   -0.4420    4.1640    0.0000 C   0  0  0  0  0  0  0  0  0  0  0  0
   -1.0032   -5.8987    0.0000 F   0  0  0  0  0  0  0  0  0  0  0  0
   -1.1926    0.5865    0.0000 N   0  0  0  0  0  0  0  0  0  0  0  0
   -0.7801   -0.1280    0.0000 C   0  0  0  0  0  0  0  0  0  0  0  0
    0.0268    0.0435    0.0000 S   0  0  0  0  0  0  0  0  0  0  0  0
    1.5420    4.9890    0.0000 N   0  0  0  0  0  0  0  0  0  0  0  0
    1.5420    2.5140    0.0000 N   0  0  0  0  0  0  0  0  0  0  0  0
    2.2565    3.7515    0.0000 N   0  0  0  0  0  0  0  0  0  0  0  0
    0.0429    3.4966    0.0000 S   0  0  0  0  0  0  0  0  0  0  0  0
    0.0861   -5.4806    0.0000 F   0  0  0  0  0  0  0  0  0  0  0  0
   -1.4213   -4.8094    0.0000 F   0  0  0  0  0  0  0  0  0  0  0  0
   -0.3320   -4.3913    0.0000 C   0  0  0  0  0  0  0  0  0  0  0  0
    0.4884   -4.3051    0.0000 C   0  0  0  0  0  0  0  0  0  0  0  0
    0.3391   -2.8840    0.0000 C   0  0  0  0  0  0  0  0  0  0  0  0
   -0.9663   -2.3028    0.0000 N   0  0  0  0  0  0  0  0  0  0  0  0
   -1.1157   -0.8817    0.0000 N   0  0  0  0  0  0  0  0  0  0  0  0
    0.1897   -1.4629    0.0000 O   0  0  0  0  0  0  0  0  0  0  0  0
   -0.8552    2.2090    0.0000 H   0  0  0  0  0  0  0  0  0  0  0  0
   -1.8433   -3.8318    0.0000 H   0  0  0  0  0  0  0  0  0  0  0  0
    1.8503   -3.4435    0.0000 H   0  0  0  0  0  0  0  0  0  0  0  0
    1.7542    0.7415    0.0000 H   0  0  0  0  0  0  0  0  0  0  0  0
    1.7541    1.8115    0.0000 H   0  0  0  0  0  0  0  0  0  0  0  0
   -0.0991    2.6365    0.0000 H   0  0  0  0  0  0  0  0  0  0  0  0
    0.8275    3.1715    0.0000 H   0  0  0  0  0  0  0  0  0  0  0  0
    3.1502    5.0925    0.0000 H   0  0  0  0  0  0  0  0  0  0  0  0
   -0.2760    5.8130    0.0000 H   0  0  0  0  0  0  0  0  0  0  0  0
   -1.4740    4.1640    0.0000 H   0  0  0  0  0  0  0  0  0  0  0  0
    2.3946    2.0217    0.0000 H   0  0  0  0  0  0  0  0  0  0  0  0
    1.0950   -5.1400    0.0000 H   0  0  0  0  0  0  0  0  0  0  0  0
    0.7589   -1.9412    0.0000 H   0  0  0  0  0  0  0  0  0  0  0  0
   -1.9454   -2.4057    0.0000 H   0  0  0  0  0  0  0  0  0  0  0  0
   -2.0948   -0.9846    0.0000 H   0  0  0  0  0  0  0  0  0  0  0  0
  1  2  2  0  0  0  0
  1 32  1  0  0  0  0
  2 19  1  0  0  0  0
  2  7  1  0  0  0  0
  3 24  1  0  0  0  0
  3 26  1  0  0  0  0
  3 25  1  0  0  0  0
  4  6  2  0  0  0  0
  4 26  1  0  0  0  0
  4 33  1  0  0  0  0
  5 34  1  0  0  0  0
  6 28  1  0  0  0  0
  7  9  1  0  0  0  0
  7 35  1  0  0  0  0
  7 36  1  0  0  0  0
  8 31  2  0  0  0  0
  9 21  1  0  0  0  0
  9 37  1  0  0  0  0
  9 38  1  0  0  0  0
 10 21  1  0  0  0  0
 10 12  1  0  0  0  0
 11 22  1  0  0  0  0
 11 20  2  0  0  0  0
 11 39  1  0  0  0  0
 12 23  1  0  0  0  0
 13 12  2  0  0  0  0
 13 14  1  0  0  0  0
 14 15  2  0  0  0  0
 14 40  1  0  0  0  0
 15 23  1  0  0  0  0
 15 41  1  0  0  0  0
 16  3  1  0  0  0  0
 17  1  1  0  0  0  0
 17 18  2  0  0  0  0
 18 19  1  0  0  0  0
 20 13  1  0  0  0  0
 21 42  1  0  0  0  0
 22 10  2  0  0  0  0
 26 27  2  0  0  0  0
 27  5  1  0  0  0  0
 27 43  1  0  0  0  0
 28  5  2  0  0  0  0
 28 44  1  0  0  0  0
 29  6  1  0  0  0  0
 29  8  1  0  0  0  0
 29 45  1  0  0  0  0
 30  8  1  0  0  0  0
 30 18  1  0  0  0  0
 30 46  1  0  0  0  0
M  END
>  <DRUGBANK_ID>
DB07360

>  <COMMON_NAME>
1-{5-[2-(thieno[3,2-d]pyrimidin-4-ylamino)ethyl]-1,3-thiazol-2-yl}-3-[3-(trifluoromethyl)phenyl]urea

$$$$
