
 OpenBabel10282417072D

 96 98  0  0  1  0  0  0  0  0999 V2000
    5.1694  -12.1275    0.0000 C   0  0  0  0  0  0  0  0  0  0  0  0
    5.8840  -11.7150    0.0000 C   0  0  0  0  0  0  0  0  0  0  0  0
    6.5984  -12.1275    0.0000 S   0  0  0  0  0  0  0  0  0  0  0  0
    7.3129  -11.7150    0.0000 C   0  0  0  0  0  0  0  0  0  0  0  0
    8.0274  -12.1275    0.0000 C   0  0  0  0  0  0  0  0  0  0  0  0
    8.7418  -11.7150    0.0000 N   0  0  0  0  0  0  0  0  0  0  0  0
    9.4563  -12.1275    0.0000 C   0  0  0  0  0  0  0  0  0  0  0  0
   10.1708  -11.7150    0.0000 C   0  0  0  0  0  0  0  0  0  0  0  0
   10.8852  -12.1275    0.0000 C   0  0  0  0  0  0  0  0  0  0  0  0
   11.5997  -11.7150    0.0000 N   0  0  0  0  0  0  0  0  0  0  0  0
   12.3142  -12.1275    0.0000 C   0  0  0  0  0  0  0  0  0  0  0  0
   13.0286  -11.7150    0.0000 C   0  0  1  0  0  0  0  0  0  0  0  0
   13.7431  -12.1275    0.0000 C   0  0  0  0  0  0  0  0  0  0  0  0
   14.4576  -11.7150    0.0000 C   0  0  0  0  0  0  0  0  0  0  0  0
   15.1720  -12.1275    0.0000 O   0  0  0  0  0  0  0  0  0  0  0  0
    5.8840  -10.8901    0.0000 O   0  0  0  0  0  0  0  0  0  0  0  0
    9.4563  -12.9524    0.0000 O   0  0  0  0  0  0  0  0  0  0  0  0
   12.3142  -12.9523    0.0000 O   0  0  0  0  0  0  0  0  0  0  0  0
   13.0286  -10.8900    0.0000 O   0  0  0  0  0  0  0  0  0  0  0  0
   13.7431  -11.3025    0.0000 C   0  0  0  0  0  0  0  0  0  0  0  0
   13.7431  -12.9525    0.0000 C   0  0  0  0  0  0  0  0  0  0  0  0
   15.9970  -12.1275    0.0000 P   0  0  3  0  0  0  0  0  0  0  0  0
   16.8220  -12.1275    0.0000 O   0  0  0  0  0  0  0  0  0  0  0  0
   15.9970  -12.9525    0.0000 O   0  0  0  0  0  0  0  0  0  0  0  0
   12.1687   -9.1987    0.0000 C   0  0  2  0  0  0  0  0  0  0  0  0
   12.9937   -9.1987    0.0000 C   0  0  1  0  0  0  0  0  0  0  0  0
   13.2487   -8.4141    0.0000 C   0  0  2  0  0  0  0  0  0  0  0  0
   12.5812   -7.9292    0.0000 O   0  0  0  0  0  0  0  0  0  0  0  0
   11.9138   -8.4141    0.0000 C   0  0  1  0  0  0  0  0  0  0  0  0
   14.0263   -8.1614    0.0000 C   0  0  0  0  0  0  0  0  0  0  0  0
   11.6838   -9.8662    0.0000 O   0  0  0  0  0  0  0  0  0  0  0  0
   13.4787   -9.8662    0.0000 O   0  0  0  0  0  0  0  0  0  0  0  0
   14.3037   -9.8662    0.0000 P   0  0  0  0  0  0  0  0  0  0  0  0
   14.3037   -9.0412    0.0000 O   0  0  0  0  0  0  0  0  0  0  0  0
   15.1287   -9.8662    0.0000 O   0  0  0  0  0  0  0  0  0  0  0  0
   14.3037  -10.6912    0.0000 O   0  0  0  0  0  0  0  0  0  0  0  0
    9.4875   -7.3425    0.0000 C   0  0  0  0  0  0  0  0  0  0  0  0
    9.4875   -8.1675    0.0000 C   0  0  0  0  0  0  0  0  0  0  0  0
   10.9165   -8.1675    0.0000 N   0  0  0  0  0  0  0  0  0  0  0  0
   10.9165   -7.3425    0.0000 C   0  0  0  0  0  0  0  0  0  0  0  0
   10.2019   -6.9300    0.0000 N   0  0  0  0  0  0  0  0  0  0  0  0
    8.7730   -6.9300    0.0000 C   0  0  0  0  0  0  0  0  0  0  0  0
    8.0585   -7.3425    0.0000 N   0  0  0  0  0  0  0  0  0  0  0  0
    8.0585   -8.1675    0.0000 C   0  0  0  0  0  0  0  0  0  0  0  0
    8.7730   -8.5800    0.0000 N   0  0  0  0  0  0  0  0  0  0  0  0
    8.7730   -6.1051    0.0000 N   0  0  0  0  0  0  0  0  0  0  0  0
   15.1944   -8.4162    0.0000 O   0  0  0  0  0  0  0  0  0  0  0  0
   16.0194   -8.4162    0.0000 P   0  0  3  0  0  0  0  0  0  0  0  0
   16.0194   -7.5912    0.0000 O   0  0  0  0  0  0  0  0  0  0  0  0
   16.8444   -8.4162    0.0000 O   0  0  0  0  0  0  0  0  0  0  0  0
   16.0194  -10.3137    0.0000 O   0  0  0  0  0  0  0  0  0  0  0  0
    4.4418  -11.7150    0.0000 C   0  0  3  0  0  0  0  0  0  0  0  0
    3.7273  -12.1275    0.0000 C   0  0  0  0  0  0  0  0  0  0  0  0
    4.4385  -10.8902    0.0000 O   0  0  0  0  0  0  0  0  0  0  0  0
    5.1736  -13.1975    0.0000 H   0  0  0  0  0  0  0  0  0  0  0  0
    4.2459  -12.6679    0.0000 H   0  0  0  0  0  0  0  0  0  0  0  0
    7.3129  -10.6450    0.0000 H   0  0  0  0  0  0  0  0  0  0  0  0
    8.2395  -11.1800    0.0000 H   0  0  0  0  0  0  0  0  0  0  0  0
    8.0274  -13.1975    0.0000 H   0  0  0  0  0  0  0  0  0  0  0  0
    8.9541  -12.6625    0.0000 H   0  0  0  0  0  0  0  0  0  0  0  0
    8.7418  -10.7305    0.0000 H   0  0  0  0  0  0  0  0  0  0  0  0
   10.1708  -10.6450    0.0000 H   0  0  0  0  0  0  0  0  0  0  0  0
   11.0975  -11.1800    0.0000 H   0  0  0  0  0  0  0  0  0  0  0  0
   10.8852  -13.1975    0.0000 H   0  0  0  0  0  0  0  0  0  0  0  0
   11.8118  -12.6625    0.0000 H   0  0  0  0  0  0  0  0  0  0  0  0
   11.5997  -10.7305    0.0000 H   0  0  0  0  0  0  0  0  0  0  0  0
   12.1019  -11.1800    0.0000 H   0  0  0  0  0  0  0  0  0  0  0  0
   14.4576  -10.6450    0.0000 H   0  0  0  0  0  0  0  0  0  0  0  0
   15.3843  -11.1800    0.0000 H   0  0  0  0  0  0  0  0  0  0  0  0
   13.8686  -10.4050    0.0000 H   0  0  0  0  0  0  0  0  0  0  0  0
   14.6697  -10.7675    0.0000 H   0  0  0  0  0  0  0  0  0  0  0  0
   12.8165  -10.7675    0.0000 H   0  0  0  0  0  0  0  0  0  0  0  0
   13.7431  -10.2325    0.0000 H   0  0  0  0  0  0  0  0  0  0  0  0
   12.8165  -13.4875    0.0000 H   0  0  0  0  0  0  0  0  0  0  0  0
   14.6697  -13.4875    0.0000 H   0  0  0  0  0  0  0  0  0  0  0  0
   13.7431  -14.0225    0.0000 H   0  0  0  0  0  0  0  0  0  0  0  0
   15.1570  -13.4375    0.0000 H   0  0  0  0  0  0  0  0  0  0  0  0
   12.6545  -10.1521    0.0000 H   0  0  0  0  0  0  0  0  0  0  0  0
   12.5079  -10.1521    0.0000 H   0  0  0  0  0  0  0  0  0  0  0  0
   14.0053   -9.1707    0.0000 H   0  0  0  0  0  0  0  0  0  0  0  0
   11.7086   -7.3640    0.0000 H   0  0  0  0  0  0  0  0  0  0  0  0
   13.9731   -7.0927    0.0000 H   0  0  0  0  0  0  0  0  0  0  0  0
   14.8427   -7.4697    0.0000 H   0  0  0  0  0  0  0  0  0  0  0  0
   10.7191   -9.7649    0.0000 H   0  0  0  0  0  0  0  0  0  0  0  0
   15.1437   -8.5562    0.0000 H   0  0  0  0  0  0  0  0  0  0  0  0
   15.6137  -10.7062    0.0000 H   0  0  0  0  0  0  0  0  0  0  0  0
   11.8102   -6.8265    0.0000 H   0  0  0  0  0  0  0  0  0  0  0  0
    7.1648   -8.6835    0.0000 H   0  0  0  0  0  0  0  0  0  0  0  0
    9.6256   -5.6128    0.0000 H   0  0  0  0  0  0  0  0  0  0  0  0
    7.9204   -5.6128    0.0000 H   0  0  0  0  0  0  0  0  0  0  0  0
   16.8594   -7.1062    0.0000 H   0  0  0  0  0  0  0  0  0  0  0  0
    4.4460  -12.7850    0.0000 H   0  0  0  0  0  0  0  0  0  0  0  0
    2.8007  -11.5925    0.0000 H   0  0  0  0  0  0  0  0  0  0  0  0
    3.7273  -13.1975    0.0000 H   0  0  0  0  0  0  0  0  0  0  0  0
    2.8006  -12.6625    0.0000 H   0  0  0  0  0  0  0  0  0  0  0  0
    5.2766  -10.4018    0.0000 H   0  0  0  0  0  0  0  0  0  0  0  0
  1  2  1  0  0  0  0
  1 52  1  0  0  0  0
  1 55  1  0  0  0  0
  1 56  1  0  0  0  0
  2  3  1  0  0  0  0
  2 16  2  0  0  0  0
  3  4  1  0  0  0  0
  4  5  1  0  0  0  0
  4 57  1  0  0  0  0
  4 58  1  0  0  0  0
  5  6  1  0  0  0  0
  5 59  1  0  0  0  0
  5 60  1  0  0  0  0
  6  7  1  0  0  0  0
  6 61  1  0  0  0  0
  7  8  1  0  0  0  0
  7 17  2  0  0  0  0
  8  9  1  0  0  0  0
  8 62  1  0  0  0  0
  8 63  1  0  0  0  0
  9 10  1  0  0  0  0
  9 64  1  0  0  0  0
  9 65  1  0  0  0  0
 10 11  1  0  0  0  0
 10 66  1  0  0  0  0
 11 12  1  0  0  0  0
 11 18  2  0  0  0  0
 12 13  1  0  0  0  0
 12 19  1  0  0  0  0
 12 67  1  1  0  0  0
 13 14  1  0  0  0  0
 13 20  1  0  0  0  0
 13 21  1  0  0  0  0
 14 15  1  0  0  0  0
 14 68  1  0  0  0  0
 14 69  1  0  0  0  0
 15 22  1  0  0  0  0
 19 70  1  0  0  0  0
 20 71  1  0  0  0  0
 20 72  1  0  0  0  0
 20 73  1  0  0  0  0
 21 74  1  0  0  0  0
 21 75  1  0  0  0  0
 21 76  1  0  0  0  0
 22 23  2  0  0  0  0
 22 24  1  0  0  0  0
 22 51  1  0  0  0  0
 24 77  1  0  0  0  0
 25 26  1  0  0  0  0
 25 29  1  0  0  0  0
 25 31  1  0  0  0  0
 25 78  1  6  0  0  0
 26 27  1  0  0  0  0
 26 32  1  0  0  0  0
 26 79  1  6  0  0  0
 27 28  1  0  0  0  0
 27 30  1  0  0  0  0
 27 80  1  1  0  0  0
 28 29  1  0  0  0  0
 29 39  1  0  0  0  0
 29 81  1  1  0  0  0
 30 47  1  0  0  0  0
 30 82  1  0  0  0  0
 30 83  1  0  0  0  0
 31 84  1  0  0  0  0
 32 33  1  0  0  0  0
 33 34  1  0  0  0  0
 33 35  1  0  0  0  0
 33 36  2  0  0  0  0
 34 85  1  0  0  0  0
 35 86  1  0  0  0  0
 37 38  2  0  0  0  0
 37 41  1  0  0  0  0
 37 42  1  0  0  0  0
 38 39  1  0  0  0  0
 38 45  1  0  0  0  0
 39 40  1  0  0  0  0
 40 41  2  0  0  0  0
 40 87  1  0  0  0  0
 42 43  2  0  0  0  0
 42 46  1  0  0  0  0
 43 44  1  0  0  0  0
 44 45  2  0  0  0  0
 44 88  1  0  0  0  0
 46 89  1  0  0  0  0
 46 90  1  0  0  0  0
 47 48  1  0  0  0  0
 48 49  1  0  0  0  0
 48 50  2  0  0  0  0
 48 51  1  0  0  0  0
 49 91  1  0  0  0  0
 52 53  1  0  0  0  0
 52 54  1  0  0  0  0
 52 92  1  0  0  0  0
 53 93  1  0  0  0  0
 53 94  1  0  0  0  0
 53 95  1  0  0  0  0
 54 96  1  0  0  0  0
M  END
>  <DRUGBANK_ID>
DB03612

>  <SECONDARY_ACCESSION_NUMBERS>
EXPT00172

>  <COMMON_NAME>
3-Hydroxybutyryl-Coenzyme A

$$$$
