
 OpenBabel10282417072D

 52 52  0  0  0  0  0  0  0  0999 V2000
    1.7861   -0.9207    0.0000 O   0  0  0  0  0  0  0  0  0  0  0  0
    3.6276   -0.2062    0.0000 O   0  0  0  0  0  0  0  0  0  0  0  0
    0.6591    1.0312    0.0000 O   0  0  0  0  0  0  0  0  0  0  0  0
   -1.4842    1.4437    0.0000 O   0  0  0  0  0  0  0  0  0  0  0  0
   -1.4842   -1.0312    0.0000 O   0  0  0  0  0  0  0  0  0  0  0  0
    2.9132    1.0312    0.0000 O   0  0  0  0  0  0  0  0  0  0  0  0
   -3.6277   -1.4437    0.0000 O   0  0  0  0  0  0  0  0  0  0  0  0
   -2.1987   -1.4437    0.0000 O   0  0  0  0  0  0  0  0  0  0  0  0
   -0.0552   -0.2062    0.0000 N   0  0  0  0  0  0  0  0  0  0  0  0
   -2.1987    0.2062    0.0000 N   0  0  0  0  0  0  0  0  0  0  0  0
    1.3736   -0.2062    0.0000 C   0  0  1  0  0  0  0  0  0  0  0  0
    2.1986   -0.2062    0.0000 C   0  0  1  0  0  0  0  0  0  0  0  0
   -0.7697    0.2062    0.0000 C   0  0  1  0  0  0  0  0  0  0  0  0
   -3.6277    0.2062    0.0000 C   0  0  2  0  0  0  0  0  0  0  0  0
    0.6591    0.2062    0.0000 C   0  0  0  0  0  0  0  0  0  0  0  0
   -2.9132   -0.2062    0.0000 C   0  0  1  0  0  0  0  0  0  0  0  0
   -0.7697    1.0312    0.0000 C   0  0  1  0  0  0  0  0  0  0  0  0
   -1.4842   -0.2062    0.0000 C   0  0  0  0  0  0  0  0  0  0  0  0
   -4.3422   -0.2062    0.0000 C   0  0  0  0  0  0  0  0  0  0  0  0
    2.9132    0.2062    0.0000 C   0  0  0  0  0  0  0  0  0  0  0  0
   -3.6277    1.0312    0.0000 C   0  0  0  0  0  0  0  0  0  0  0  0
   -2.9132   -1.0312    0.0000 C   0  0  0  0  0  0  0  0  0  0  0  0
   -0.0552    1.4437    0.0000 C   0  0  0  0  0  0  0  0  0  0  0  0
   -5.0567    0.2062    0.0000 C   0  0  0  0  0  0  0  0  0  0  0  0
    4.3421    0.2062    0.0000 C   0  0  0  0  0  0  0  0  0  0  0  0
    5.0566   -0.2062    0.0000 C   0  0  0  0  0  0  0  0  0  0  0  0
   -1.4842    2.4137    0.0000 H   0  0  0  0  0  0  0  0  0  0  0  0
   -4.4392   -0.9752    0.0000 H   0  0  0  0  0  0  0  0  0  0  0  0
   -0.0551   -1.1907    0.0000 H   0  0  0  0  0  0  0  0  0  0  0  0
   -2.1987    1.1907    0.0000 H   0  0  0  0  0  0  0  0  0  0  0  0
    0.6170   -0.9628    0.0000 H   0  0  0  0  0  0  0  0  0  0  0  0
    2.9551   -0.9629    0.0000 H   0  0  0  0  0  0  0  0  0  0  0  0
    0.1569    0.7413    0.0000 H   0  0  0  0  0  0  0  0  0  0  0  0
   -2.7011    0.7413    0.0000 H   0  0  0  0  0  0  0  0  0  0  0  0
   -2.9132    0.8638    0.0000 H   0  0  0  0  0  0  0  0  0  0  0  0
   -1.6963    0.4962    0.0000 H   0  0  0  0  0  0  0  0  0  0  0  0
   -4.3422   -1.2762    0.0000 H   0  0  0  0  0  0  0  0  0  0  0  0
   -5.2688   -0.7413    0.0000 H   0  0  0  0  0  0  0  0  0  0  0  0
   -2.7011    1.5662    0.0000 H   0  0  0  0  0  0  0  0  0  0  0  0
   -4.5543    1.5662    0.0000 H   0  0  0  0  0  0  0  0  0  0  0  0
   -3.6277    2.1012    0.0000 H   0  0  0  0  0  0  0  0  0  0  0  0
    0.8714    0.9087    0.0000 H   0  0  0  0  0  0  0  0  0  0  0  0
   -0.0552    2.5137    0.0000 H   0  0  0  0  0  0  0  0  0  0  0  0
    0.8715    1.9787    0.0000 H   0  0  0  0  0  0  0  0  0  0  0  0
   -5.0568    1.2762    0.0000 H   0  0  0  0  0  0  0  0  0  0  0  0
   -5.9833   -0.3289    0.0000 H   0  0  0  0  0  0  0  0  0  0  0  0
   -5.9834    0.7411    0.0000 H   0  0  0  0  0  0  0  0  0  0  0  0
    4.3421    1.2762    0.0000 H   0  0  0  0  0  0  0  0  0  0  0  0
    5.2687    0.7413    0.0000 H   0  0  0  0  0  0  0  0  0  0  0  0
    5.0567   -1.2762    0.0000 H   0  0  0  0  0  0  0  0  0  0  0  0
    5.9832    0.3289    0.0000 H   0  0  0  0  0  0  0  0  0  0  0  0
    5.9833   -0.7411    0.0000 H   0  0  0  0  0  0  0  0  0  0  0  0
  1 11  1  0  0  0  0
  1 12  1  0  0  0  0
  2 20  1  0  0  0  0
  2 25  1  0  0  0  0
  3 15  2  0  0  0  0
  4 27  1  0  0  0  0
  5 18  2  0  0  0  0
  6 20  2  0  0  0  0
  7 22  1  0  0  0  0
  7 28  1  0  0  0  0
  8 22  2  0  0  0  0
  9 15  1  0  0  0  0
  9 29  1  0  0  0  0
 10 18  1  0  0  0  0
 10 30  1  0  0  0  0
 11 12  1  0  0  0  0
 11 15  1  0  0  0  0
 11 31  1  1  0  0  0
 12 20  1  0  0  0  0
 12 32  1  6  0  0  0
 13  9  1  0  0  0  0
 13 17  1  0  0  0  0
 13 18  1  0  0  0  0
 13 33  1  1  0  0  0
 14 16  1  0  0  0  0
 14 19  1  0  0  0  0
 14 21  1  0  0  0  0
 14 34  1  1  0  0  0
 16 10  1  0  0  0  0
 16 22  1  0  0  0  0
 16 35  1  1  0  0  0
 17  4  1  0  0  0  0
 17 23  1  0  0  0  0
 17 36  1  1  0  0  0
 19 24  1  0  0  0  0
 19 37  1  0  0  0  0
 19 38  1  0  0  0  0
 21 39  1  0  0  0  0
 21 40  1  0  0  0  0
 21 41  1  0  0  0  0
 23 42  1  0  0  0  0
 23 43  1  0  0  0  0
 23 44  1  0  0  0  0
 24 45  1  0  0  0  0
 24 46  1  0  0  0  0
 24 47  1  0  0  0  0
 25 26  1  0  0  0  0
 25 48  1  0  0  0  0
 25 49  1  0  0  0  0
 26 50  1  0  0  0  0
 26 51  1  0  0  0  0
 26 52  1  0  0  0  0
M  END
>  <DRUGBANK_ID>
DB04579

>  <COMMON_NAME>
N-{[(2S,3S)-3-(Ethoxycarbonyl)-2-oxiranyl]carbonyl}-L-threonyl-L-isoleucine

$$$$
