
 OpenBabel10282417072D

 26 27  0  0  0  0  0  0  0  0999 V2000
    2.1429   -0.8268    0.0000 C   0  0  0  0  0  0  0  0  0  0  0  0
    2.1466   -0.0017    0.0000 C   0  0  0  0  0  0  0  0  0  0  0  0
    1.4265   -1.2359    0.0000 C   0  0  0  0  0  0  0  0  0  0  0  0
    1.4340    0.4139    0.0000 C   0  0  0  0  0  0  0  0  0  0  0  0
    0.7139   -0.8202    0.0000 C   0  0  0  0  0  0  0  0  0  0  0  0
   -1.4314   -1.2229    0.0000 C   0  0  0  0  0  0  0  0  0  0  0  0
   -0.7150   -0.8138    0.0000 C   0  0  0  0  0  0  0  0  0  0  0  0
   -2.1401    0.0176    0.0000 C   0  0  0  0  0  0  0  0  0  0  0  0
    0.7177    0.0046    0.0000 C   0  0  0  0  0  0  0  0  0  0  0  0
   -2.1026   -0.8072    0.0000 C   0  0  0  0  0  0  0  0  0  0  0  0
   -0.7112    0.0111    0.0000 C   0  0  0  0  0  0  0  0  0  0  0  0
   -1.4238    0.4270    0.0000 C   0  0  0  0  0  0  0  0  0  0  0  0
    0.0050    0.4205    0.0000 C   0  0  0  0  0  0  0  0  0  0  0  0
   -2.8602   -1.2165    0.0000 O   0  0  0  0  0  0  0  0  0  0  0  0
    0.0088    1.2453    0.0000 O   0  0  0  0  0  0  0  0  0  0  0  0
    2.8602   -1.2453    0.0000 O   0  0  0  0  0  0  0  0  0  0  0  0
    3.0426    0.5103    0.0000 H   0  0  0  0  0  0  0  0  0  0  0  0
    1.4217   -2.2679    0.0000 H   0  0  0  0  0  0  0  0  0  0  0  0
    1.4386    1.4459    0.0000 H   0  0  0  0  0  0  0  0  0  0  0  0
   -0.1822   -1.3321    0.0000 H   0  0  0  0  0  0  0  0  0  0  0  0
   -1.4498   -2.2547    0.0000 H   0  0  0  0  0  0  0  0  0  0  0  0
    0.1763   -1.3340    0.0000 H   0  0  0  0  0  0  0  0  0  0  0  0
   -3.0442    0.5151    0.0000 H   0  0  0  0  0  0  0  0  0  0  0  0
   -1.4191    1.4590    0.0000 H   0  0  0  0  0  0  0  0  0  0  0  0
   -3.6581   -0.7253    0.0000 H   0  0  0  0  0  0  0  0  0  0  0  0
    2.8559   -2.1823    0.0000 H   0  0  0  0  0  0  0  0  0  0  0  0
  1  2  2  0  0  0  0
  1  3  1  0  0  0  0
  1 16  1  0  0  0  0
  2  4  1  0  0  0  0
  2 17  1  0  0  0  0
  3  5  2  0  0  0  0
  3 18  1  0  0  0  0
  4  9  2  0  0  0  0
  4 19  1  0  0  0  0
  5  9  1  0  0  0  0
  5 20  1  0  0  0  0
  6  7  2  0  0  0  0
  6 10  1  0  0  0  0
  6 21  1  0  0  0  0
  7 11  1  0  0  0  0
  7 22  1  0  0  0  0
  8 10  2  0  0  0  0
  8 12  1  0  0  0  0
  8 23  1  0  0  0  0
  9 13  1  0  0  0  0
 10 14  1  0  0  0  0
 11 12  2  0  0  0  0
 11 13  1  0  0  0  0
 12 24  1  0  0  0  0
 13 15  2  0  0  0  0
 14 25  1  0  0  0  0
 16 26  1  0  0  0  0
M  END
>  <DRUGBANK_ID>
DB07635

>  <COMMON_NAME>
4,4'-Dihydroxybenzophenone

>  <CAS_NUMBER>
611-99-4

>  <UNII>
HZR7D31SBY

>  <SYNONYMS>
4,4-Dihydroxybenzophenone; 4,4'-Dihydroxydiphenyl ketone; Bis(4-hydroxyphenyl) ketone; Bis(p-hydroxy)benzophenone; p,p'-Dihydroxybenzophenone

$$$$
