74M
 OpenBabel10282417072D

 59 60  0  0  0  0  0  0  0  0999 V2000
   -2.2434   -0.8073    0.0000 C   0  0  1  0  0  0  0  0  0  0  0  0
   -2.2434    0.0177    0.0000 O   0  0  0  0  0  0  0  0  0  0  0  0
   -1.5290   -0.3948    0.0000 C   0  0  2  0  0  0  0  0  0  0  0  0
   -0.7040   -0.3948    0.0000 C   0  0  0  0  0  0  0  0  0  0  0  0
   -0.2915   -1.1092    0.0000 O   0  0  0  0  0  0  0  0  0  0  0  0
   -0.2915    0.3197    0.0000 N   0  0  0  0  0  0  0  0  0  0  0  0
    0.5335    0.3197    0.0000 C   0  0  2  0  0  0  0  0  0  0  0  0
    0.9460    1.0342    0.0000 C   0  0  0  0  0  0  0  0  0  0  0  0
    0.5335    1.7487    0.0000 O   0  0  0  0  0  0  0  0  0  0  0  0
    0.9460   -0.3948    0.0000 C   0  0  2  0  0  0  0  0  0  0  0  0
    1.7710   -0.3948    0.0000 C   0  0  0  0  0  0  0  0  0  0  0  0
    0.5335   -1.1092    0.0000 C   0  0  0  0  0  0  0  0  0  0  0  0
    2.1835   -1.1092    0.0000 C   0  0  0  0  0  0  0  0  0  0  0  0
    1.7710    1.0342    0.0000 N   0  0  0  0  0  0  0  0  0  0  0  0
    2.2560    1.7016    0.0000 C   0  0  2  0  0  0  0  0  0  0  0  0
    2.0010    2.4862    0.0000 C   0  0  0  0  0  0  0  0  0  0  0  0
    1.1940    2.6578    0.0000 O   0  0  0  0  0  0  0  0  0  0  0  0
    3.0406    1.4467    0.0000 C   0  0  0  0  0  0  0  0  0  0  0  0
    3.0406    0.6217    0.0000 C   0  0  0  0  0  0  0  0  0  0  0  0
    2.2560    0.3667    0.0000 C   0  0  0  0  0  0  0  0  0  0  0  0
    2.5530    3.0993    0.0000 O   0  0  0  0  0  0  0  0  0  0  0  0
    2.2981    3.8840    0.0000 C   0  0  0  0  0  0  0  0  0  0  0  0
   -3.4809   -1.5217    0.0000 N   0  0  0  0  0  0  0  0  0  0  0  0
   -3.8934   -2.2362    0.0000 C   0  0  0  0  0  0  0  0  0  0  0  0
   -4.7184   -2.2362    0.0000 C   0  0  0  0  0  0  0  0  0  0  0  0
   -5.1309   -2.9507    0.0000 C   0  0  0  0  0  0  0  0  0  0  0  0
   -2.6559   -1.5217    0.0000 C   0  0  0  0  0  0  0  0  0  0  0  0
   -2.2434   -2.2362    0.0000 O   0  0  0  0  0  0  0  0  0  0  0  0
   -2.8075   -0.6561    0.0000 H   0  0  0  0  0  0  0  0  0  0  0  0
   -1.3778   -0.9588    0.0000 H   0  0  0  0  0  0  0  0  0  0  0  0
    0.2416    0.8254    0.0000 H   0  0  0  0  0  0  0  0  0  0  0  0
    1.2380    0.1109    0.0000 H   0  0  0  0  0  0  0  0  0  0  0  0
    1.6792    1.7930    0.0000 H   0  0  0  0  0  0  0  0  0  0  0  0
   -0.7838    1.1723    0.0000 H   0  0  0  0  0  0  0  0  0  0  0  0
    2.3060    0.5319    0.0000 H   0  0  0  0  0  0  0  0  0  0  0  0
    2.8410   -0.3948    0.0000 H   0  0  0  0  0  0  0  0  0  0  0  0
   -0.5365   -1.1092    0.0000 H   0  0  0  0  0  0  0  0  0  0  0  0
    1.0685   -2.0359    0.0000 H   0  0  0  0  0  0  0  0  0  0  0  0
   -0.0015   -2.0358    0.0000 H   0  0  0  0  0  0  0  0  0  0  0  0
    1.6485   -2.0359    0.0000 H   0  0  0  0  0  0  0  0  0  0  0  0
    3.2535   -1.1092    0.0000 H   0  0  0  0  0  0  0  0  0  0  0  0
    2.7185   -2.0358    0.0000 H   0  0  0  0  0  0  0  0  0  0  0  0
    3.9062    2.0756    0.0000 H   0  0  0  0  0  0  0  0  0  0  0  0
    3.9940    0.9609    0.0000 H   0  0  0  0  0  0  0  0  0  0  0  0
    3.9063   -0.0072    0.0000 H   0  0  0  0  0  0  0  0  0  0  0  0
    2.8733   -0.4351    0.0000 H   0  0  0  0  0  0  0  0  0  0  0  0
    1.9254   -0.6509    0.0000 H   0  0  0  0  0  0  0  0  0  0  0  0
    3.0127   -0.3899    0.0000 H   0  0  0  0  0  0  0  0  0  0  0  0
    3.0141    4.6791    0.0000 H   0  0  0  0  0  0  0  0  0  0  0  0
    1.2515    4.1065    0.0000 H   0  0  0  0  0  0  0  0  0  0  0  0
    1.9675    4.9017    0.0000 H   0  0  0  0  0  0  0  0  0  0  0  0
   -3.9732   -0.6691    0.0000 H   0  0  0  0  0  0  0  0  0  0  0  0
   -3.3584   -3.1628    0.0000 H   0  0  0  0  0  0  0  0  0  0  0  0
   -4.4284   -3.1628    0.0000 H   0  0  0  0  0  0  0  0  0  0  0  0
   -5.2534   -1.3096    0.0000 H   0  0  0  0  0  0  0  0  0  0  0  0
   -5.7884   -2.2362    0.0000 H   0  0  0  0  0  0  0  0  0  0  0  0
   -6.2009   -2.9507    0.0000 H   0  0  0  0  0  0  0  0  0  0  0  0
   -4.5959   -3.8773    0.0000 H   0  0  0  0  0  0  0  0  0  0  0  0
   -5.6659   -3.8774    0.0000 H   0  0  0  0  0  0  0  0  0  0  0  0
  1  2  1  0  0  0  0
  1  3  1  0  0  0  0
  1 27  1  0  0  0  0
  1 29  1  6  0  0  0
  2  3  1  0  0  0  0
  3  4  1  0  0  0  0
  3 30  1  1  0  0  0
  4  5  2  0  0  0  0
  4  6  1  0  0  0  0
  6 34  1  0  0  0  0
  7  6  1  0  0  0  0
  7  8  1  0  0  0  0
  7 10  1  0  0  0  0
  7 31  1  1  0  0  0
  8  9  2  0  0  0  0
  8 14  1  0  0  0  0
 10 11  1  0  0  0  0
 10 12  1  0  0  0  0
 10 32  1  1  0  0  0
 11 13  1  0  0  0  0
 11 35  1  0  0  0  0
 11 36  1  0  0  0  0
 12 37  1  0  0  0  0
 12 38  1  0  0  0  0
 12 39  1  0  0  0  0
 13 40  1  0  0  0  0
 13 41  1  0  0  0  0
 13 42  1  0  0  0  0
 14 15  1  0  0  0  0
 14 20  1  0  0  0  0
 15 16  1  0  0  0  0
 15 18  1  0  0  0  0
 15 33  1  1  0  0  0
 16 17  2  0  0  0  0
 16 21  1  0  0  0  0
 18 19  1  0  0  0  0
 18 43  1  0  0  0  0
 18 44  1  0  0  0  0
 19 20  1  0  0  0  0
 19 45  1  0  0  0  0
 19 46  1  0  0  0  0
 20 47  1  0  0  0  0
 20 48  1  0  0  0  0
 21 22  1  0  0  0  0
 22 49  1  0  0  0  0
 22 50  1  0  0  0  0
 22 51  1  0  0  0  0
 23 24  1  0  0  0  0
 23 27  1  0  0  0  0
 23 52  1  0  0  0  0
 24 25  1  0  0  0  0
 24 53  1  0  0  0  0
 24 54  1  0  0  0  0
 25 26  1  0  0  0  0
 25 55  1  0  0  0  0
 25 56  1  0  0  0  0
 26 57  1  0  0  0  0
 26 58  1  0  0  0  0
 26 59  1  0  0  0  0
 27 28  2  0  0  0  0
M  END
>  <DRUGBANK_ID>
DB07223

>  <COMMON_NAME>
CA-074 methyl ester

>  <CAS_NUMBER>
147859-80-1

>  <SYNONYMS>
(S)-methyl 1-((2S,3S)-3-methyl-2-((2S,3S)-3-(propylcarbamoyl)oxirane-2-carboxamido)pentanoyl)pyrrolidine-2-carboxylate; CA 074 Me ester; CA 074 methyl ester; L-Proline, 1-[N-[[3-[(propylamino)carbonyl]oxiranyl]carbonyl]-L-isoleucyl]-, methyl ester, (2S-trans)-; L-Proline, N-[[(2S,3S)-3-[(propylamino)carbonyl]oxiranyl]carbonyl]-L-isoleucyl-, methyl ester; Methyl (2S)-1-[(2S,3S)-3-methyl-2-[[(2S,3S)-3-(propylcarbamoyl)oxirane-2-carbonyl]amino]pentanoyl]pyrrolidine-2-carboxylate; Methyl N-({(2s,3s)-3-[(propylamino)carbonyl]oxiran-2-Yl}carbonyl)-L-isoleucyl-L-prolinate

$$$$
