
 OpenBabel10282417072D

 64 68  0  0  0  0  0  0  0  0999 V2000
    2.2473   -0.3279    0.0000 C   0  0  0  0  0  0  0  0  0  0  0  0
    1.9887    0.4555    0.0000 C   0  0  0  0  0  0  0  0  0  0  0  0
    1.1809    0.6232    0.0000 N   0  0  0  0  0  0  0  0  0  0  0  0
    0.5705    0.0683    0.0000 C   0  0  0  0  0  0  0  0  0  0  0  0
   -0.1459    0.4774    0.0000 C   0  0  0  0  0  0  0  0  0  0  0  0
    0.0218    1.2852    0.0000 C   0  0  0  0  0  0  0  0  0  0  0  0
    0.8419    1.3753    0.0000 C   0  0  0  0  0  0  0  0  0  0  0  0
    3.0551   -0.4957    0.0000 O   0  0  0  0  0  0  0  0  0  0  0  0
    3.3137   -1.2791    0.0000 C   0  0  0  0  0  0  0  0  0  0  0  0
    4.1215   -1.4468    0.0000 C   0  0  0  0  0  0  0  0  0  0  0  0
    4.6706   -0.8311    0.0000 C   0  0  0  0  0  0  0  0  0  0  0  0
    4.4120   -0.0477    0.0000 O   0  0  0  0  0  0  0  0  0  0  0  0
    4.9612    0.5680    0.0000 C   0  0  0  0  0  0  0  0  0  0  0  0
    5.7689    0.4002    0.0000 C   0  0  0  0  0  0  0  0  0  0  0  0
    6.3181    1.0159    0.0000 C   0  0  0  0  0  0  0  0  0  0  0  0
    7.1259    0.8482    0.0000 C   0  0  0  0  0  0  0  0  0  0  0  0
    7.3845    0.0648    0.0000 O   0  0  0  0  0  0  0  0  0  0  0  0
    6.8353   -0.5509    0.0000 C   0  0  0  0  0  0  0  0  0  0  0  0
    7.0940   -1.3343    0.0000 C   0  0  0  0  0  0  0  0  0  0  0  0
    7.8104   -1.7435    0.0000 C   0  0  0  0  0  0  0  0  0  0  0  0
    7.6426   -2.5512    0.0000 C   0  0  0  0  0  0  0  0  0  0  0  0
    6.8034   -2.7334    0.0000 C   0  0  0  0  0  0  0  0  0  0  0  0
    6.5448   -1.9500    0.0000 O   0  0  0  0  0  0  0  0  0  0  0  0
    6.2543   -3.3491    0.0000 C   0  0  0  0  0  0  0  0  0  0  0  0
    6.5129   -4.1325    0.0000 C   0  0  0  0  0  0  0  0  0  0  0  0
    5.9638   -4.7482    0.0000 C   0  0  0  0  0  0  0  0  0  0  0  0
    5.1560   -4.5805    0.0000 N   0  0  0  0  0  0  0  0  0  0  0  0
    4.8974   -3.7971    0.0000 C   0  0  0  0  0  0  0  0  0  0  0  0
    4.0896   -3.6293    0.0000 N   0  0  0  0  0  0  0  0  0  0  0  0
    3.8310   -2.8459    0.0000 C   0  0  0  0  0  0  0  0  0  0  0  0
    3.0232   -2.6782    0.0000 C   0  0  0  0  0  0  0  0  0  0  0  0
    2.7646   -1.8948    0.0000 C   0  0  0  0  0  0  0  0  0  0  0  0
    4.3801   -2.2302    0.0000 C   0  0  0  0  0  0  0  0  0  0  0  0
    5.4465   -3.1814    0.0000 N   0  0  0  0  0  0  0  0  0  0  0  0
    1.5350   -1.1264    0.0000 H   0  0  0  0  0  0  0  0  0  0  0  0
    2.5827   -1.3440    0.0000 H   0  0  0  0  0  0  0  0  0  0  0  0
    2.7009    1.2540    0.0000 H   0  0  0  0  0  0  0  0  0  0  0  0
    1.6532    1.4716    0.0000 H   0  0  0  0  0  0  0  0  0  0  0  0
    0.6874   -0.9953    0.0000 H   0  0  0  0  0  0  0  0  0  0  0  0
   -0.3241   -0.5187    0.0000 H   0  0  0  0  0  0  0  0  0  0  0  0
   -1.1213    0.0376    0.0000 H   0  0  0  0  0  0  0  0  0  0  0  0
   -0.9806    1.1468    0.0000 H   0  0  0  0  0  0  0  0  0  0  0  0
   -0.6979    2.0770    0.0000 H   0  0  0  0  0  0  0  0  0  0  0  0
    0.4005    2.2859    0.0000 H   0  0  0  0  0  0  0  0  0  0  0  0
    1.3726    2.3044    0.0000 H   0  0  0  0  0  0  0  0  0  0  0  0
    1.9107    1.3242    0.0000 H   0  0  0  0  0  0  0  0  0  0  0  0
    5.7183   -1.0486    0.0000 H   0  0  0  0  0  0  0  0  0  0  0  0
    5.3828   -0.0326    0.0000 H   0  0  0  0  0  0  0  0  0  0  0  0
    4.6258    1.5841    0.0000 H   0  0  0  0  0  0  0  0  0  0  0  0
    5.6735    1.3665    0.0000 H   0  0  0  0  0  0  0  0  0  0  0  0
    6.0924   -0.5798    0.0000 H   0  0  0  0  0  0  0  0  0  0  0  0
    5.9946    1.9959    0.0000 H   0  0  0  0  0  0  0  0  0  0  0  0
    7.8381    1.6467    0.0000 H   0  0  0  0  0  0  0  0  0  0  0  0
    8.1736    0.6307    0.0000 H   0  0  0  0  0  0  0  0  0  0  0  0
    5.7876   -0.3334    0.0000 H   0  0  0  0  0  0  0  0  0  0  0  0
    6.1231   -1.3495    0.0000 H   0  0  0  0  0  0  0  0  0  0  0  0
    8.7512   -1.3194    0.0000 H   0  0  0  0  0  0  0  0  0  0  0  0
    8.3756   -3.2777    0.0000 H   0  0  0  0  0  0  0  0  0  0  0  0
    7.5233   -4.3423    0.0000 H   0  0  0  0  0  0  0  0  0  0  0  0
    6.2874   -5.7282    0.0000 H   0  0  0  0  0  0  0  0  0  0  0  0
    3.4343   -4.3640    0.0000 H   0  0  0  0  0  0  0  0  0  0  0  0
    2.3363   -3.4484    0.0000 H   0  0  0  0  0  0  0  0  0  0  0  0
    1.7542   -1.6850    0.0000 H   0  0  0  0  0  0  0  0  0  0  0  0
    5.3905   -2.4400    0.0000 H   0  0  0  0  0  0  0  0  0  0  0  0
  1  2  1  0  0  0  0
  1  8  1  0  0  0  0
  1 35  1  0  0  0  0
  1 36  1  0  0  0  0
  2  3  1  0  0  0  0
  2 37  1  0  0  0  0
  2 38  1  0  0  0  0
  3  4  1  0  0  0  0
  3  7  1  0  0  0  0
  4  5  1  0  0  0  0
  4 39  1  0  0  0  0
  4 40  1  0  0  0  0
  5  6  1  0  0  0  0
  5 41  1  0  0  0  0
  5 42  1  0  0  0  0
  6  7  1  0  0  0  0
  6 43  1  0  0  0  0
  6 44  1  0  0  0  0
  7 45  1  0  0  0  0
  7 46  1  0  0  0  0
  8  9  1  0  0  0  0
  9 10  2  0  0  0  0
  9 32  1  0  0  0  0
 10 11  1  0  0  0  0
 10 33  1  0  0  0  0
 11 12  1  0  0  0  0
 11 47  1  0  0  0  0
 11 48  1  0  0  0  0
 12 13  1  0  0  0  0
 13 14  1  0  0  0  0
 13 49  1  0  0  0  0
 13 50  1  0  0  0  0
 14 15  2  0  0  0  0
 14 51  1  0  0  0  0
 15 16  1  0  0  0  0
 15 52  1  0  0  0  0
 16 17  1  0  0  0  0
 16 53  1  0  0  0  0
 16 54  1  0  0  0  0
 17 18  1  0  0  0  0
 18 19  1  0  0  0  0
 18 55  1  0  0  0  0
 18 56  1  0  0  0  0
 19 20  2  0  0  0  0
 19 23  1  0  0  0  0
 20 21  1  0  0  0  0
 20 57  1  0  0  0  0
 21 22  2  0  0  0  0
 21 58  1  0  0  0  0
 22 23  1  0  0  0  0
 22 24  1  0  0  0  0
 24 25  2  0  0  0  0
 24 34  1  0  0  0  0
 25 26  1  0  0  0  0
 25 59  1  0  0  0  0
 26 27  2  0  0  0  0
 26 60  1  0  0  0  0
 27 28  1  0  0  0  0
 28 29  1  0  0  0  0
 28 34  2  0  0  0  0
 29 30  1  0  0  0  0
 29 61  1  0  0  0  0
 30 31  1  0  0  0  0
 30 33  2  0  0  0  0
 31 32  2  0  0  0  0
 31 62  1  0  0  0  0
 32 63  1  0  0  0  0
 33 64  1  0  0  0  0
M  END
>  <DRUGBANK_ID>
DB15294

>  <COMMON_NAME>
SB-1578

>  <CAS_NUMBER>
937273-04-6

>  <UNII>
4T71DC0G0A

$$$$
