SMG
 OpenBabel10282417072D

 31 30  0  0  0  0  0  0  0  0999 V2000
   -3.6435   -0.0156    0.0000 O   0  0  0  0  0  0  0  0  0  0  0  0
   -2.9290   -1.2531    0.0000 O   0  0  0  0  0  0  0  0  0  0  0  0
   -2.9290   -0.4281    0.0000 C   0  0  0  0  0  0  0  0  0  0  0  0
   -2.2145   -0.0156    0.0000 C   0  0  0  0  0  0  0  0  0  0  0  0
   -1.5000   -0.4281    0.0000 C   0  0  0  0  0  0  0  0  0  0  0  0
   -0.7856    0.8094    0.0000 O   0  0  0  0  0  0  0  0  0  0  0  0
   -0.7856   -0.0156    0.0000 C   0  0  0  0  0  0  0  0  0  0  0  0
   -0.0711   -0.4281    0.0000 N   0  0  0  0  0  0  0  0  0  0  0  0
    1.3578    1.2219    0.0000 O   0  0  0  0  0  0  0  0  0  0  0  0
   -0.0711    1.2219    0.0000 O   0  0  0  0  0  0  0  0  0  0  0  0
    0.6434    0.8094    0.0000 C   0  0  0  0  0  0  0  0  0  0  0  0
    0.6434   -0.0156    0.0000 C   0  0  1  0  0  0  0  0  0  0  0  0
    1.3578   -0.4281    0.0000 C   0  0  0  0  0  0  0  0  0  0  0  0
    2.0723   -0.0156    0.0000 C   0  0  0  0  0  0  0  0  0  0  0  0
    2.7868   -0.4281    0.0000 S   0  0  0  0  0  0  0  0  0  0  0  0
    3.5013   -0.0156    0.0000 C   0  0  0  0  0  0  0  0  0  0  0  0
    0.1377    0.2763    0.0000 H   0  0  0  0  0  0  0  0  0  0  0  0
   -3.6435    0.9214    0.0000 H   0  0  0  0  0  0  0  0  0  0  0  0
   -2.2145    1.0544    0.0000 H   0  0  0  0  0  0  0  0  0  0  0  0
   -1.2879    0.5194    0.0000 H   0  0  0  0  0  0  0  0  0  0  0  0
   -1.5000   -1.4981    0.0000 H   0  0  0  0  0  0  0  0  0  0  0  0
   -0.5733   -0.9631    0.0000 H   0  0  0  0  0  0  0  0  0  0  0  0
   -0.0711   -1.4126    0.0000 H   0  0  0  0  0  0  0  0  0  0  0  0
   -0.0711    2.1589    0.0000 H   0  0  0  0  0  0  0  0  0  0  0  0
    1.3578   -1.4981    0.0000 H   0  0  0  0  0  0  0  0  0  0  0  0
    2.2844   -0.9631    0.0000 H   0  0  0  0  0  0  0  0  0  0  0  0
    2.0723    1.0544    0.0000 H   0  0  0  0  0  0  0  0  0  0  0  0
    2.9989    0.5194    0.0000 H   0  0  0  0  0  0  0  0  0  0  0  0
    4.4279   -0.5506    0.0000 H   0  0  0  0  0  0  0  0  0  0  0  0
    3.5013    1.0544    0.0000 H   0  0  0  0  0  0  0  0  0  0  0  0
    4.4280    0.5194    0.0000 H   0  0  0  0  0  0  0  0  0  0  0  0
  1  3  1  0  0  0  0
  1 18  1  0  0  0  0
  2  3  2  0  0  0  0
  3  4  1  0  0  0  0
  4  5  1  0  0  0  0
  4 19  1  0  0  0  0
  4 20  1  0  0  0  0
  5  7  1  0  0  0  0
  5 21  1  0  0  0  0
  5 22  1  0  0  0  0
  6  7  2  0  0  0  0
  7  8  1  0  0  0  0
  8 23  1  0  0  0  0
  9 11  2  0  0  0  0
 10 11  1  0  0  0  0
 10 24  1  0  0  0  0
 11 12  1  0  0  0  0
 12  8  1  0  0  0  0
 12 13  1  0  0  0  0
 12 17  1  6  0  0  0
 13 14  1  0  0  0  0
 13 25  1  0  0  0  0
 13 26  1  0  0  0  0
 14 15  1  0  0  0  0
 14 27  1  0  0  0  0
 14 28  1  0  0  0  0
 15 16  1  0  0  0  0
 16 29  1  0  0  0  0
 16 30  1  0  0  0  0
 16 31  1  0  0  0  0
M  END
>  <DRUGBANK_ID>
DB04511

>  <SECONDARY_ACCESSION_NUMBERS>
EXPT02922

>  <COMMON_NAME>
N-Succinyl Methionine

$$$$
