
 OpenBabel10282417072D

 50 54  0  0  0  0  0  0  0  0999 V2000
    3.4911   -2.0223    0.0000 C   0  0  0  0  0  0  0  0  0  0  0  0
    2.7743   -2.4307    0.0000 C   0  0  0  0  0  0  0  0  0  0  0  0
    2.0622   -2.0143    0.0000 C   0  0  0  0  0  0  0  0  0  0  0  0
    2.0668   -1.1892    0.0000 C   0  0  0  0  0  0  0  0  0  0  0  0
    2.7836   -0.7808    0.0000 C   0  0  0  0  0  0  0  0  0  0  0  0
    3.4957   -1.1974    0.0000 N   0  0  0  0  0  0  0  0  0  0  0  0
    1.3547   -0.7727    0.0000 C   0  0  0  0  0  0  0  0  0  0  0  0
    0.6379   -1.1813    0.0000 C   0  0  2  0  0  0  0  0  0  0  0  0
    0.1837   -1.8699    0.0000 N   0  0  3  0  0  0  0  0  0  0  0  0
   -0.8226   -1.5774    0.0000 C   0  0  0  0  0  0  0  0  0  0  0  0
   -1.4581   -1.7294    0.0000 C   0  0  0  0  0  0  0  0  0  0  0  0
   -0.5775   -1.8998    0.0000 C   0  0  3  0  0  0  0  0  0  0  0  0
   -0.1392   -1.2188    0.0000 C   0  0  1  0  0  0  0  0  0  0  0  0
    0.4074   -0.3891    0.0000 H   0  0  0  0  0  0  0  0  0  0  0  0
   -0.5517   -0.5043    0.0000 N   0  0  0  0  0  0  0  0  0  0  0  0
   -0.9640   -1.1989    0.0000 H   0  0  0  0  0  0  0  0  0  0  0  0
    0.4139   -2.7533    0.0000 C   0  0  0  0  0  0  0  0  0  0  0  0
   -0.3490   -2.7471    0.0000 C   0  0  0  0  0  0  0  0  0  0  0  0
   -1.3767   -0.5043    0.0000 C   0  0  0  0  0  0  0  0  0  0  0  0
   -1.7892   -1.2188    0.0000 O   0  0  0  0  0  0  0  0  0  0  0  0
   -1.7892    0.2101    0.0000 C   0  0  0  0  0  0  0  0  0  0  0  0
   -1.4536    0.9637    0.0000 C   0  0  0  0  0  0  0  0  0  0  0  0
   -2.6097    0.2963    0.0000 O   0  0  0  0  0  0  0  0  0  0  0  0
   -2.7812    1.1033    0.0000 C   0  0  0  0  0  0  0  0  0  0  0  0
   -2.0667    1.5158    0.0000 C   0  0  0  0  0  0  0  0  0  0  0  0
   -3.4957    1.5158    0.0000 C   0  0  0  0  0  0  0  0  0  0  0  0
   -3.4957    2.3408    0.0000 C   0  0  0  0  0  0  0  0  0  0  0  0
   -2.7812    2.7533    0.0000 C   0  0  0  0  0  0  0  0  0  0  0  0
   -2.0667    2.3408    0.0000 C   0  0  0  0  0  0  0  0  0  0  0  0
    4.3819   -2.5433    0.0000 H   0  0  0  0  0  0  0  0  0  0  0  0
    2.7685   -3.4627    0.0000 H   0  0  0  0  0  0  0  0  0  0  0  0
    1.1656   -2.5253    0.0000 H   0  0  0  0  0  0  0  0  0  0  0  0
    2.7895    0.2512    0.0000 H   0  0  0  0  0  0  0  0  0  0  0  0
    1.3607    0.2973    0.0000 H   0  0  0  0  0  0  0  0  0  0  0  0
    0.4310   -0.2326    0.0000 H   0  0  0  0  0  0  0  0  0  0  0  0
   -0.7969   -0.5077    0.0000 H   0  0  0  0  0  0  0  0  0  0  0  0
   -1.6546   -0.9046    0.0000 H   0  0  0  0  0  0  0  0  0  0  0  0
   -2.5278   -1.7527    0.0000 H   0  0  0  0  0  0  0  0  0  0  0  0
   -1.5486   -2.7956    0.0000 H   0  0  0  0  0  0  0  0  0  0  0  0
   -0.9980   -0.9159    0.0000 H   0  0  0  0  0  0  0  0  0  0  0  0
   -0.0594    0.3483    0.0000 H   0  0  0  0  0  0  0  0  0  0  0  0
    1.2579   -3.4110    0.0000 H   0  0  0  0  0  0  0  0  0  0  0  0
    0.0621   -3.7638    0.0000 H   0  0  0  0  0  0  0  0  0  0  0  0
   -1.0031   -3.5939    0.0000 H   0  0  0  0  0  0  0  0  0  0  0  0
   -1.3983   -2.5375    0.0000 H   0  0  0  0  0  0  0  0  0  0  0  0
   -0.4441    1.1782    0.0000 H   0  0  0  0  0  0  0  0  0  0  0  0
   -4.3894    0.9998    0.0000 H   0  0  0  0  0  0  0  0  0  0  0  0
   -4.3894    2.8568    0.0000 H   0  0  0  0  0  0  0  0  0  0  0  0
   -2.7812    3.7853    0.0000 H   0  0  0  0  0  0  0  0  0  0  0  0
   -1.1730    2.8568    0.0000 H   0  0  0  0  0  0  0  0  0  0  0  0
  1  2  2  0  0  0  0
  1  6  1  0  0  0  0
  1 30  1  0  0  0  0
  2  3  1  0  0  0  0
  2 31  1  0  0  0  0
  3  4  2  0  0  0  0
  3 32  1  0  0  0  0
  4  5  1  0  0  0  0
  4  7  1  0  0  0  0
  5  6  2  0  0  0  0
  5 33  1  0  0  0  0
  7 34  1  0  0  0  0
  7 35  1  0  0  0  0
  8  7  1  0  0  0  0
  8 14  1  1  0  0  0
  9  8  1  0  0  0  0
  9 10  1  0  0  0  0
  9 17  1  0  0  0  0
 10 11  1  0  0  0  0
 10 36  1  0  0  0  0
 10 37  1  0  0  0  0
 11 12  1  0  0  0  0
 11 38  1  0  0  0  0
 11 39  1  0  0  0  0
 12 13  1  0  0  0  0
 12 40  1  0  0  0  0
 13  8  1  0  0  0  0
 13 15  1  0  0  0  0
 13 16  1  6  0  0  0
 15 19  1  0  0  0  0
 15 41  1  0  0  0  0
 17 18  1  0  0  0  0
 17 42  1  0  0  0  0
 17 43  1  0  0  0  0
 18 12  1  0  0  0  0
 18 44  1  0  0  0  0
 18 45  1  0  0  0  0
 19 20  2  0  0  0  0
 19 21  1  0  0  0  0
 21 23  1  0  0  0  0
 22 21  2  0  0  0  0
 22 25  1  0  0  0  0
 22 46  1  0  0  0  0
 23 24  1  0  0  0  0
 24 26  1  0  0  0  0
 25 29  1  0  0  0  0
 25 24  2  0  0  0  0
 26 27  2  0  0  0  0
 26 47  1  0  0  0  0
 27 28  1  0  0  0  0
 27 48  1  0  0  0  0
 28 29  2  0  0  0  0
 28 49  1  0  0  0  0
 29 50  1  0  0  0  0
M  END
>  <DRUGBANK_ID>
DB06090

>  <COMMON_NAME>
Bradanicline

>  <CAS_NUMBER>
639489-84-2

>  <UNII>
UM3821998K

>  <SYNONYMS>
Bradanicline

$$$$
