
 OpenBabel10282417072D

 69 71  0  0  0  0  0  0  0  0999 V2000
   -2.7329   -0.4348    0.0000 C   0  0  0  0  0  0  0  0  0  0  0  0
   -2.7329   -1.2629    0.0000 N   0  0  0  0  0  0  0  0  0  0  0  0
   -2.0289   -1.6770    0.0000 C   0  0  0  0  0  0  0  0  0  0  0  0
   -1.2836   -1.2629    0.0000 C   0  0  0  0  0  0  0  0  0  0  0  0
   -1.2836   -0.4348    0.0000 C   0  0  0  0  0  0  0  0  0  0  0  0
   -2.0289   -0.0207    0.0000 N   0  0  0  0  0  0  0  0  0  0  0  0
   -0.4969   -1.5114    0.0000 N   0  0  0  0  0  0  0  0  0  0  0  0
   -0.0414   -0.8488    0.0000 C   0  0  0  0  0  0  0  0  0  0  0  0
   -0.4969   -0.1863    0.0000 N   0  0  0  0  0  0  0  0  0  0  0  0
   -3.4368   -0.0207    0.0000 S   0  0  0  0  0  0  0  0  0  0  0  0
   -4.1408   -0.4348    0.0000 C   0  0  0  0  0  0  0  0  0  0  0  0
   -4.8447   -0.0207    0.0000 C   0  0  0  0  0  0  0  0  0  0  0  0
   -5.5487   -0.4348    0.0000 C   0  0  0  0  0  0  0  0  0  0  0  0
   -2.0289   -2.5052    0.0000 N   0  0  0  0  0  0  0  0  0  0  0  0
   -2.7329   -2.9192    0.0000 C   0  0  0  0  0  0  0  0  0  0  0  0
   -0.2070    0.6004    0.0000 C   0  0  2  0  0  0  0  0  0  0  0  0
    0.5797    0.8488    0.0000 O   0  0  0  0  0  0  0  0  0  0  0  0
    0.5797    1.6770    0.0000 C   0  0  1  0  0  0  0  0  0  0  0  0
   -0.2070    1.9668    0.0000 C   0  0  2  0  0  0  0  0  0  0  0  0
   -0.7039    1.3043    0.0000 C   0  0  1  0  0  0  0  0  0  0  0  0
   -1.5320    1.3043    0.0000 O   0  0  0  0  0  0  0  0  0  0  0  0
   -0.4554    2.7536    0.0000 O   0  0  0  0  0  0  0  0  0  0  0  0
    2.6915    2.0911    0.0000 P   0  0  3  0  0  0  0  0  0  0  0  0
    1.9876    1.6770    0.0000 O   0  0  0  0  0  0  0  0  0  0  0  0
    1.2836    2.0911    0.0000 C   0  0  0  0  0  0  0  0  0  0  0  0
   -3.4368   -2.5052    0.0000 C   0  0  0  0  0  0  0  0  0  0  0  0
   -4.1408   -2.9192    0.0000 S   0  0  0  0  0  0  0  0  0  0  0  0
   -4.8447   -2.5052    0.0000 C   0  0  0  0  0  0  0  0  0  0  0  0
   -6.2526   -0.8488    0.0000 F   0  0  0  0  0  0  0  0  0  0  0  0
   -5.9627    0.2691    0.0000 F   0  0  0  0  0  0  0  0  0  0  0  0
   -5.1346   -1.1386    0.0000 F   0  0  0  0  0  0  0  0  0  0  0  0
    3.3955    1.6770    0.0000 O   0  0  0  0  0  0  0  0  0  0  0  0
    4.0993    2.0911    0.0000 P   0  0  3  0  0  0  0  0  0  0  0  0
    4.8033    1.6770    0.0000 C   0  0  0  0  0  0  0  0  0  0  0  0
    5.5072    2.0911    0.0000 P   0  0  0  0  0  0  0  0  0  0  0  0
    6.2526    1.6770    0.0000 O   0  0  0  0  0  0  0  0  0  0  0  0
    2.6915    2.9192    0.0000 O   0  0  0  0  0  0  0  0  0  0  0  0
    2.6915    1.2629    0.0000 O   0  0  0  0  0  0  0  0  0  0  0  0
    4.0993    2.9192    0.0000 O   0  0  0  0  0  0  0  0  0  0  0  0
    4.0993    1.2629    0.0000 O   0  0  0  0  0  0  0  0  0  0  0  0
    4.8033    0.8488    0.0000 Cl  0  0  0  0  0  0  0  0  0  0  0  0
    4.8033    2.5052    0.0000 Cl  0  0  0  0  0  0  0  0  0  0  0  0
    5.5072    2.9192    0.0000 O   0  0  0  0  0  0  0  0  0  0  0  0
    5.5072    1.2629    0.0000 O   0  0  0  0  0  0  0  0  0  0  0  0
    0.9906   -0.8488    0.0000 H   0  0  0  0  0  0  0  0  0  0  0  0
   -4.1408   -1.5048    0.0000 H   0  0  0  0  0  0  0  0  0  0  0  0
   -5.0696   -0.9660    0.0000 H   0  0  0  0  0  0  0  0  0  0  0  0
   -4.8447    1.0493    0.0000 H   0  0  0  0  0  0  0  0  0  0  0  0
   -5.7735    0.5106    0.0000 H   0  0  0  0  0  0  0  0  0  0  0  0
   -1.1743   -2.9940    0.0000 H   0  0  0  0  0  0  0  0  0  0  0  0
   -2.7329   -3.9892    0.0000 H   0  0  0  0  0  0  0  0  0  0  0  0
   -3.6617   -3.4504    0.0000 H   0  0  0  0  0  0  0  0  0  0  0  0
    0.5315   -0.1739    0.0000 H   0  0  0  0  0  0  0  0  0  0  0  0
    1.5085    1.1458    0.0000 H   0  0  0  0  0  0  0  0  0  0  0  0
    0.5672    2.7054    0.0000 H   0  0  0  0  0  0  0  0  0  0  0  0
   -1.1824    2.2613    0.0000 H   0  0  0  0  0  0  0  0  0  0  0  0
   -2.0170    2.1443    0.0000 H   0  0  0  0  0  0  0  0  0  0  0  0
    0.1997    3.4690    0.0000 H   0  0  0  0  0  0  0  0  0  0  0  0
    1.2836    3.1611    0.0000 H   0  0  0  0  0  0  0  0  0  0  0  0
    0.3548    2.6223    0.0000 H   0  0  0  0  0  0  0  0  0  0  0  0
   -3.4368   -1.4352    0.0000 H   0  0  0  0  0  0  0  0  0  0  0  0
   -4.3656   -1.9739    0.0000 H   0  0  0  0  0  0  0  0  0  0  0  0
   -4.8361   -1.4352    0.0000 H   0  0  0  0  0  0  0  0  0  0  0  0
   -5.7756   -3.0327    0.0000 H   0  0  0  0  0  0  0  0  0  0  0  0
   -5.7670   -1.9627    0.0000 H   0  0  0  0  0  0  0  0  0  0  0  0
    6.2686    0.7071    0.0000 H   0  0  0  0  0  0  0  0  0  0  0  0
    3.5315    3.4042    0.0000 H   0  0  0  0  0  0  0  0  0  0  0  0
    4.9393    3.4042    0.0000 H   0  0  0  0  0  0  0  0  0  0  0  0
    6.3472    3.4042    0.0000 H   0  0  0  0  0  0  0  0  0  0  0  0
  1  2  2  0  0  0  0
  1  6  1  0  0  0  0
  1 10  1  0  0  0  0
  2  3  1  0  0  0  0
  3  4  2  0  0  0  0
  3 14  1  0  0  0  0
  4  5  1  0  0  0  0
  4  7  1  0  0  0  0
  5  6  2  0  0  0  0
  5  9  1  0  0  0  0
  7  8  2  0  0  0  0
  8  9  1  0  0  0  0
  8 45  1  0  0  0  0
 10 11  1  0  0  0  0
 11 12  1  0  0  0  0
 11 46  1  0  0  0  0
 11 47  1  0  0  0  0
 12 13  1  0  0  0  0
 12 48  1  0  0  0  0
 12 49  1  0  0  0  0
 13 29  1  0  0  0  0
 13 30  1  0  0  0  0
 13 31  1  0  0  0  0
 14 50  1  0  0  0  0
 15 14  1  0  0  0  0
 15 26  1  0  0  0  0
 15 51  1  0  0  0  0
 15 52  1  0  0  0  0
 16  9  1  0  0  0  0
 16 17  1  0  0  0  0
 16 20  1  0  0  0  0
 16 53  1  6  0  0  0
 17 18  1  0  0  0  0
 18 19  1  0  0  0  0
 18 25  1  0  0  0  0
 18 54  1  6  0  0  0
 19 20  1  0  0  0  0
 19 22  1  0  0  0  0
 19 55  1  1  0  0  0
 20 21  1  0  0  0  0
 20 56  1  1  0  0  0
 21 57  1  0  0  0  0
 22 58  1  0  0  0  0
 23 24  1  0  0  0  0
 23 32  1  0  0  0  0
 23 37  1  0  0  0  0
 23 38  2  0  0  0  0
 24 25  1  0  0  0  0
 25 59  1  0  0  0  0
 25 60  1  0  0  0  0
 26 27  1  0  0  0  0
 26 61  1  0  0  0  0
 26 62  1  0  0  0  0
 27 28  1  0  0  0  0
 28 63  1  0  0  0  0
 28 64  1  0  0  0  0
 28 65  1  0  0  0  0
 32 33  1  0  0  0  0
 33 34  1  0  0  0  0
 33 39  1  0  0  0  0
 33 40  2  0  0  0  0
 34 35  1  0  0  0  0
 34 41  1  0  0  0  0
 34 42  1  0  0  0  0
 35 36  1  0  0  0  0
 35 43  1  0  0  0  0
 35 44  2  0  0  0  0
 36 66  1  0  0  0  0
 37 67  1  0  0  0  0
 39 68  1  0  0  0  0
 43 69  1  0  0  0  0
M  END
>  <DRUGBANK_ID>
DB06441

>  <COMMON_NAME>
Cangrelor

>  <CAS_NUMBER>
163706-06-7

>  <UNII>
6AQ1Y404U7

>  <SYNONYMS>
[dichloro-[[[(2R,3S,4R,5R)-3,4-dihydroxy-5-[6-(2-methylsulfanylethylamino)-2-(3,3,3-trifluoropropylsulfanyl)purin-9-yl]oxolan-2-yl]methoxy-hydroxyphosphoryl]oxy-hydroxyphosphoryl]methyl]phosphonic acid; Cangrelor

$$$$
