ET0
 OpenBabel10282417072D

 29 30  0  0  0  0  0  0  0  0999 V2000
   -0.5018   -1.5713    0.0000 N   0  0  0  0  0  0  0  0  0  0  0  0
    0.2828   -1.3164    0.0000 C   0  0  0  0  0  0  0  0  0  0  0  0
   -1.8186    1.5043    0.0000 C   0  0  0  0  0  0  0  0  0  0  0  0
    0.9973   -0.0789    0.0000 C   0  0  0  0  0  0  0  0  0  0  0  0
   -0.7567    0.5482    0.0000 C   0  0  0  0  0  0  0  0  0  0  0  0
    0.9973   -1.7289    0.0000 C   0  0  0  0  0  0  0  0  0  0  0  0
    1.7118   -0.4914    0.0000 C   0  0  0  0  0  0  0  0  0  0  0  0
   -2.6256    1.6759    0.0000 O   0  0  0  0  0  0  0  0  0  0  0  0
   -1.2666    2.1174    0.0000 O   0  0  0  0  0  0  0  0  0  0  0  0
   -1.5637    0.7197    0.0000 C   0  0  0  0  0  0  0  0  0  0  0  0
   -0.5018   -0.2364    0.0000 C   0  0  0  0  0  0  0  0  0  0  0  0
   -0.9867   -0.9039    0.0000 C   0  0  0  0  0  0  0  0  0  0  0  0
    0.2828   -0.4914    0.0000 C   0  0  0  0  0  0  0  0  0  0  0  0
    1.7118   -1.3164    0.0000 C   0  0  0  0  0  0  0  0  0  0  0  0
    2.4263   -0.0789    0.0000 O   0  0  0  0  0  0  0  0  0  0  0  0
    2.4263    0.7461    0.0000 C   0  0  0  0  0  0  0  0  0  0  0  0
   -0.8060   -2.5076    0.0000 H   0  0  0  0  0  0  0  0  0  0  0  0
    0.9973    0.9531    0.0000 H   0  0  0  0  0  0  0  0  0  0  0  0
   -0.0407    1.3434    0.0000 H   0  0  0  0  0  0  0  0  0  0  0  0
    0.2899    0.3257    0.0000 H   0  0  0  0  0  0  0  0  0  0  0  0
    0.9973   -2.7609    0.0000 H   0  0  0  0  0  0  0  0  0  0  0  0
   -0.3501    1.9226    0.0000 H   0  0  0  0  0  0  0  0  0  0  0  0
   -2.2797   -0.0755    0.0000 H   0  0  0  0  0  0  0  0  0  0  0  0
   -2.6103    0.9422    0.0000 H   0  0  0  0  0  0  0  0  0  0  0  0
   -2.0187   -0.9039    0.0000 H   0  0  0  0  0  0  0  0  0  0  0  0
    2.6055   -1.8324    0.0000 H   0  0  0  0  0  0  0  0  0  0  0  0
    3.3529    1.2811    0.0000 H   0  0  0  0  0  0  0  0  0  0  0  0
    1.4997    1.2811    0.0000 H   0  0  0  0  0  0  0  0  0  0  0  0
    2.4263    1.8161    0.0000 H   0  0  0  0  0  0  0  0  0  0  0  0
  1 12  1  0  0  0  0
  1 17  1  0  0  0  0
  2  1  1  0  0  0  0
  2 13  1  0  0  0  0
  3  8  2  0  0  0  0
  3  9  1  0  0  0  0
  4 13  2  0  0  0  0
  4 18  1  0  0  0  0
  5 10  1  0  0  0  0
  5 19  1  0  0  0  0
  5 20  1  0  0  0  0
  6  2  2  0  0  0  0
  6 21  1  0  0  0  0
  7  4  1  0  0  0  0
  9 22  1  0  0  0  0
 10  3  1  0  0  0  0
 10 23  1  0  0  0  0
 10 24  1  0  0  0  0
 11  5  1  0  0  0  0
 11 12  2  0  0  0  0
 12 25  1  0  0  0  0
 13 11  1  0  0  0  0
 14  6  1  0  0  0  0
 14  7  2  0  0  0  0
 14 26  1  0  0  0  0
 15  7  1  0  0  0  0
 16 15  1  0  0  0  0
 16 27  1  0  0  0  0
 16 28  1  0  0  0  0
 16 29  1  0  0  0  0
M  END
>  <DRUGBANK_ID>
DB07723

>  <COMMON_NAME>
3-(5-methoxy-1H-indol-3-yl)propanoic acid

>  <UNII>
CS268A9K9W

$$$$
