
 OpenBabel10282417072D

 43 45  0  0  0  0  0  0  0  0999 V2000
    0.0000   -0.4124    0.0000 C   0  0  0  0  0  0  0  0  0  0  0  0
    0.0000    0.4126    0.0000 C   0  0  0  0  0  0  0  0  0  0  0  0
   -0.7126   -0.8251    0.0000 C   0  0  0  0  0  0  0  0  0  0  0  0
   -0.7126    0.8251    0.0000 C   0  0  0  0  0  0  0  0  0  0  0  0
   -1.4294   -0.4124    0.0000 C   0  0  0  0  0  0  0  0  0  0  0  0
   -1.4294    0.4126    0.0000 C   0  0  0  0  0  0  0  0  0  0  0  0
    0.7167   -0.8251    0.0000 C   0  0  0  0  0  0  0  0  0  0  0  0
    0.7167    0.8251    0.0000 C   0  0  0  0  0  0  0  0  0  0  0  0
   -0.7126   -1.6501    0.0000 O   0  0  0  0  0  0  0  0  0  0  0  0
   -0.7126    1.6502    0.0000 O   0  0  0  0  0  0  0  0  0  0  0  0
   -2.8586   -0.4124    0.0000 N   0  0  0  0  0  0  0  0  0  0  0  0
    1.4293    0.4126    0.0000 C   0  0  0  0  0  0  0  0  0  0  0  0
    1.4293   -0.4124    0.0000 C   0  0  0  0  0  0  0  0  0  0  0  0
   -2.1420   -0.8251    0.0000 C   0  0  0  0  0  0  0  0  0  0  0  0
    0.7167   -1.6501    0.0000 N   0  0  0  0  0  0  0  0  0  0  0  0
    0.7167    1.6502    0.0000 N   0  0  0  0  0  0  0  0  0  0  0  0
   -2.1420    0.8251    0.0000 C   0  0  0  0  0  0  0  0  0  0  0  0
    2.8586    2.0628    0.0000 N   0  0  0  0  0  0  0  0  0  0  0  0
    2.8586   -2.0628    0.0000 N   0  0  0  0  0  0  0  0  0  0  0  0
   -2.8586    0.4126    0.0000 C   0  0  0  0  0  0  0  0  0  0  0  0
    1.4293   -2.0628    0.0000 C   0  0  0  0  0  0  0  0  0  0  0  0
    1.4293    2.0628    0.0000 C   0  0  0  0  0  0  0  0  0  0  0  0
    2.1460   -1.6501    0.0000 C   0  0  0  0  0  0  0  0  0  0  0  0
    2.1460    1.6502    0.0000 C   0  0  0  0  0  0  0  0  0  0  0  0
    2.3233    0.9281    0.0000 H   0  0  0  0  0  0  0  0  0  0  0  0
    2.3234   -0.9278    0.0000 H   0  0  0  0  0  0  0  0  0  0  0  0
   -2.1407   -1.8571    0.0000 H   0  0  0  0  0  0  0  0  0  0  0  0
   -0.1362   -2.1418    0.0000 H   0  0  0  0  0  0  0  0  0  0  0  0
   -0.1362    2.1419    0.0000 H   0  0  0  0  0  0  0  0  0  0  0  0
   -2.1407    1.8571    0.0000 H   0  0  0  0  0  0  0  0  0  0  0  0
    3.7426    1.5539    0.0000 H   0  0  0  0  0  0  0  0  0  0  0  0
    2.8573    3.0828    0.0000 H   0  0  0  0  0  0  0  0  0  0  0  0
    2.8572   -3.0828    0.0000 H   0  0  0  0  0  0  0  0  0  0  0  0
    3.7426   -1.5540    0.0000 H   0  0  0  0  0  0  0  0  0  0  0  0
   -3.7520    0.9292    0.0000 H   0  0  0  0  0  0  0  0  0  0  0  0
    1.4280   -3.1328    0.0000 H   0  0  0  0  0  0  0  0  0  0  0  0
    2.3553   -2.5989    0.0000 H   0  0  0  0  0  0  0  0  0  0  0  0
    1.4280    3.1328    0.0000 H   0  0  0  0  0  0  0  0  0  0  0  0
    2.3553    2.5990    0.0000 H   0  0  0  0  0  0  0  0  0  0  0  0
    2.1473   -0.5801    0.0000 H   0  0  0  0  0  0  0  0  0  0  0  0
    1.2200   -1.1140    0.0000 H   0  0  0  0  0  0  0  0  0  0  0  0
    2.1473    0.5802    0.0000 H   0  0  0  0  0  0  0  0  0  0  0  0
    1.2200    1.1140    0.0000 H   0  0  0  0  0  0  0  0  0  0  0  0
  2  1  2  0  0  0  0
  3  1  1  0  0  0  0
  4  2  1  0  0  0  0
  5  3  1  0  0  0  0
  6  5  2  0  0  0  0
  6  4  1  0  0  0  0
  7  1  1  0  0  0  0
  8 12  2  0  0  0  0
  8  2  1  0  0  0  0
  9  3  2  0  0  0  0
 10  4  2  0  0  0  0
 11 20  1  0  0  0  0
 11 14  2  0  0  0  0
 12 13  1  0  0  0  0
 12 25  1  0  0  0  0
 13  7  2  0  0  0  0
 13 26  1  0  0  0  0
 14  5  1  0  0  0  0
 14 27  1  0  0  0  0
 15  7  1  0  0  0  0
 15 28  1  0  0  0  0
 16  8  1  0  0  0  0
 16 29  1  0  0  0  0
 17  6  1  0  0  0  0
 17 30  1  0  0  0  0
 18 24  1  0  0  0  0
 18 31  1  0  0  0  0
 18 32  1  0  0  0  0
 19 23  1  0  0  0  0
 19 33  1  0  0  0  0
 19 34  1  0  0  0  0
 20 17  2  0  0  0  0
 20 35  1  0  0  0  0
 21 15  1  0  0  0  0
 21 36  1  0  0  0  0
 21 37  1  0  0  0  0
 22 16  1  0  0  0  0
 22 38  1  0  0  0  0
 22 39  1  0  0  0  0
 23 21  1  0  0  0  0
 23 40  1  0  0  0  0
 23 41  1  0  0  0  0
 24 22  1  0  0  0  0
 24 42  1  0  0  0  0
 24 43  1  0  0  0  0
M  END
>  <DRUGBANK_ID>
DB06193

>  <COMMON_NAME>
Pixantrone

>  <CAS_NUMBER>
144510-96-3

>  <UNII>
F5SXN2KNMR

>  <SYNONYMS>
6,9-bis((2-aminoethyl)amino)benzo(g)isoquinoline-5,10-dione; Pixantrona; Pixantrone

$$$$
