
 OpenBabel10282417072D

 50 49  0  0  0  0  0  0  0  0999 V2000
   -0.7658    4.5079    0.0000 C   0  0  0  0  0  0  0  0  0  0  0  0
   -0.0513    4.0954    0.0000 C   0  0  0  0  0  0  0  0  0  0  0  0
   -0.0513    3.2704    0.0000 C   0  0  0  0  0  0  0  0  0  0  0  0
    0.6632    2.8579    0.0000 C   0  0  0  0  0  0  0  0  0  0  0  0
    1.3776    3.2704    0.0000 C   0  0  0  0  0  0  0  0  0  0  0  0
    2.0921    2.8579    0.0000 C   0  0  0  0  0  0  0  0  0  0  0  0
    2.8066    3.2704    0.0000 C   0  0  0  0  0  0  0  0  0  0  0  0
    3.5211    2.8579    0.0000 C   0  0  0  0  0  0  0  0  0  0  0  0
    4.2355    3.2704    0.0000 C   0  0  0  0  0  0  0  0  0  0  0  0
    4.9500    2.8579    0.0000 C   0  0  0  0  0  0  0  0  0  0  0  0
    5.6645    3.2704    0.0000 C   0  0  0  0  0  0  0  0  0  0  0  0
    6.3789    2.8579    0.0000 C   0  0  0  0  0  0  0  0  0  0  0  0
    7.0934    3.2704    0.0000 C   0  0  0  0  0  0  0  0  0  0  0  0
    7.8079    2.8579    0.0000 C   0  0  0  0  0  0  0  0  0  0  0  0
    8.5224    3.2704    0.0000 C   0  0  0  0  0  0  0  0  0  0  0  0
    9.2368    2.8579    0.0000 C   0  0  0  0  0  0  0  0  0  0  0  0
    9.9513    3.2704    0.0000 C   0  0  0  0  0  0  0  0  0  0  0  0
   10.6658    2.8579    0.0000 C   0  0  0  0  0  0  0  0  0  0  0  0
   11.3802    3.2704    0.0000 O   0  0  0  0  0  0  0  0  0  0  0  0
   10.6658    2.0329    0.0000 O   0  0  0  0  0  0  0  0  0  0  0  0
   -0.7658    5.5779    0.0000 H   0  0  0  0  0  0  0  0  0  0  0  0
   -1.6924    3.9729    0.0000 H   0  0  0  0  0  0  0  0  0  0  0  0
   -1.6925    5.0429    0.0000 H   0  0  0  0  0  0  0  0  0  0  0  0
    0.8753    4.6304    0.0000 H   0  0  0  0  0  0  0  0  0  0  0  0
    0.8753    3.5604    0.0000 H   0  0  0  0  0  0  0  0  0  0  0  0
   -0.9450    2.7544    0.0000 H   0  0  0  0  0  0  0  0  0  0  0  0
    0.6632    1.8259    0.0000 H   0  0  0  0  0  0  0  0  0  0  0  0
    1.3776    4.3024    0.0000 H   0  0  0  0  0  0  0  0  0  0  0  0
    2.0921    1.8259    0.0000 H   0  0  0  0  0  0  0  0  0  0  0  0
    2.8066    4.3024    0.0000 H   0  0  0  0  0  0  0  0  0  0  0  0
    3.5211    1.8259    0.0000 H   0  0  0  0  0  0  0  0  0  0  0  0
    4.2355    4.3404    0.0000 H   0  0  0  0  0  0  0  0  0  0  0  0
    5.1621    3.8054    0.0000 H   0  0  0  0  0  0  0  0  0  0  0  0
    4.9500    1.7879    0.0000 H   0  0  0  0  0  0  0  0  0  0  0  0
    5.8766    2.3229    0.0000 H   0  0  0  0  0  0  0  0  0  0  0  0
    5.6645    4.3404    0.0000 H   0  0  0  0  0  0  0  0  0  0  0  0
    6.5912    3.8054    0.0000 H   0  0  0  0  0  0  0  0  0  0  0  0
    6.3789    1.7879    0.0000 H   0  0  0  0  0  0  0  0  0  0  0  0
    7.3055    2.3229    0.0000 H   0  0  0  0  0  0  0  0  0  0  0  0
    7.0934    4.3404    0.0000 H   0  0  0  0  0  0  0  0  0  0  0  0
    8.0200    3.8054    0.0000 H   0  0  0  0  0  0  0  0  0  0  0  0
    7.8079    1.7879    0.0000 H   0  0  0  0  0  0  0  0  0  0  0  0
    8.7345    2.3229    0.0000 H   0  0  0  0  0  0  0  0  0  0  0  0
    8.5224    4.3404    0.0000 H   0  0  0  0  0  0  0  0  0  0  0  0
    9.4491    3.8054    0.0000 H   0  0  0  0  0  0  0  0  0  0  0  0
    9.2368    1.7879    0.0000 H   0  0  0  0  0  0  0  0  0  0  0  0
   10.1634    2.3229    0.0000 H   0  0  0  0  0  0  0  0  0  0  0  0
    9.9513    4.3404    0.0000 H   0  0  0  0  0  0  0  0  0  0  0  0
   10.8779    3.8054    0.0000 H   0  0  0  0  0  0  0  0  0  0  0  0
   12.1917    2.8019    0.0000 H   0  0  0  0  0  0  0  0  0  0  0  0
  1  2  1  0  0  0  0
  1 21  1  0  0  0  0
  1 22  1  0  0  0  0
  1 23  1  0  0  0  0
  2  3  1  0  0  0  0
  2 24  1  0  0  0  0
  2 25  1  0  0  0  0
  3  4  2  0  0  0  0
  3 26  1  0  0  0  0
  4  5  1  0  0  0  0
  4 27  1  0  0  0  0
  5  6  2  0  0  0  0
  5 28  1  0  0  0  0
  6  7  1  0  0  0  0
  6 29  1  0  0  0  0
  7  8  2  0  0  0  0
  7 30  1  0  0  0  0
  8  9  1  0  0  0  0
  8 31  1  0  0  0  0
  9 10  1  0  0  0  0
  9 32  1  0  0  0  0
  9 33  1  0  0  0  0
 10 11  1  0  0  0  0
 10 34  1  0  0  0  0
 10 35  1  0  0  0  0
 11 12  1  0  0  0  0
 11 36  1  0  0  0  0
 11 37  1  0  0  0  0
 12 13  1  0  0  0  0
 12 38  1  0  0  0  0
 12 39  1  0  0  0  0
 13 14  1  0  0  0  0
 13 40  1  0  0  0  0
 13 41  1  0  0  0  0
 14 15  1  0  0  0  0
 14 42  1  0  0  0  0
 14 43  1  0  0  0  0
 15 16  1  0  0  0  0
 15 44  1  0  0  0  0
 15 45  1  0  0  0  0
 16 17  1  0  0  0  0
 16 46  1  0  0  0  0
 16 47  1  0  0  0  0
 17 18  1  0  0  0  0
 17 48  1  0  0  0  0
 17 49  1  0  0  0  0
 18 19  1  0  0  0  0
 18 20  2  0  0  0  0
 19 50  1  0  0  0  0
M  END
>  <DRUGBANK_ID>
DB04747

>  <COMMON_NAME>
11-TRANS-13-TRANS-15-CIS-OCTADECATRIENOIC ACID

$$$$
