059
 OpenBabel10282417072D

 63 64  0  0  0  0  0  0  0  0999 V2000
   -3.6483   -1.6913    0.0000 C   0  0  0  0  0  0  0  0  0  0  0  0
   -4.3265   -2.1611    0.0000 C   0  0  0  0  0  0  0  0  0  0  0  0
   -5.0724   -1.8087    0.0000 C   0  0  0  0  0  0  0  0  0  0  0  0
   -5.1402   -0.9865    0.0000 C   0  0  0  0  0  0  0  0  0  0  0  0
   -4.4621   -0.5167    0.0000 C   0  0  0  0  0  0  0  0  0  0  0  0
   -3.7161   -0.8691    0.0000 C   0  0  0  0  0  0  0  0  0  0  0  0
   -3.0380   -0.3992    0.0000 C   0  0  0  0  0  0  0  0  0  0  0  0
   -2.2920   -0.7516    0.0000 C   0  0  0  0  0  0  0  0  0  0  0  0
   -1.6139   -0.2818    0.0000 S   0  0  0  0  0  0  0  0  0  0  0  0
   -2.0837    0.3964    0.0000 O   0  0  0  0  0  0  0  0  0  0  0  0
   -1.1440   -0.9599    0.0000 O   0  0  0  0  0  0  0  0  0  0  0  0
   -0.9357    0.1881    0.0000 N   0  0  0  0  0  0  0  0  0  0  0  0
   -0.1898   -0.1643    0.0000 C   0  0  1  0  0  0  0  0  0  0  0  0
   -0.1219   -0.9865    0.0000 C   0  0  0  0  0  0  0  0  0  0  0  0
    0.6240   -1.3389    0.0000 C   0  0  0  0  0  0  0  0  0  0  0  0
   -0.8001   -1.4564    0.0000 C   0  0  0  0  0  0  0  0  0  0  0  0
    0.4884    0.3055    0.0000 P   0  0  2  0  0  0  0  0  0  0  0  0
    0.0185    0.9837    0.0000 O   0  0  0  0  0  0  0  0  0  0  0  0
    0.9582   -0.3726    0.0000 O   0  0  0  0  0  0  0  0  0  0  0  0
    1.1665    0.7754    0.0000 C   0  0  0  0  0  0  0  0  0  0  0  0
    1.9125    0.4230    0.0000 C   0  0  2  0  0  0  0  0  0  0  0  0
    1.9803   -0.3992    0.0000 C   0  0  0  0  0  0  0  0  0  0  0  0
    2.7263   -0.7516    0.0000 O   0  0  0  0  0  0  0  0  0  0  0  0
    1.3022   -0.8691    0.0000 O   0  0  0  0  0  0  0  0  0  0  0  0
    2.5906    0.8928    0.0000 C   0  0  0  0  0  0  0  0  0  0  0  0
    3.3366    0.5404    0.0000 C   0  0  0  0  0  0  0  0  0  0  0  0
    2.5228    1.7150    0.0000 C   0  0  0  0  0  0  0  0  0  0  0  0
    3.2010    2.1849    0.0000 C   0  0  0  0  0  0  0  0  0  0  0  0
    3.9469    1.8325    0.0000 C   0  0  0  0  0  0  0  0  0  0  0  0
    4.0147    1.0103    0.0000 C   0  0  0  0  0  0  0  0  0  0  0  0
    4.7607    0.6579    0.0000 C   0  0  0  0  0  0  0  0  0  0  0  0
    5.4388    1.1277    0.0000 N   0  0  0  0  0  0  0  0  0  0  0  0
   -0.2378    0.4176    0.0000 H   0  0  0  0  0  0  0  0  0  0  0  0
    1.8645    1.0049    0.0000 H   0  0  0  0  0  0  0  0  0  0  0  0
   -2.7152   -2.1321    0.0000 H   0  0  0  0  0  0  0  0  0  0  0  0
   -4.2417   -3.1896    0.0000 H   0  0  0  0  0  0  0  0  0  0  0  0
   -5.9207   -2.3964    0.0000 H   0  0  0  0  0  0  0  0  0  0  0  0
   -6.0733   -0.5457    0.0000 H   0  0  0  0  0  0  0  0  0  0  0  0
   -4.5469    0.5118    0.0000 H   0  0  0  0  0  0  0  0  0  0  0  0
   -3.1260    0.6672    0.0000 H   0  0  0  0  0  0  0  0  0  0  0  0
   -2.1585    0.2102    0.0000 H   0  0  0  0  0  0  0  0  0  0  0  0
   -2.2041   -1.8180    0.0000 H   0  0  0  0  0  0  0  0  0  0  0  0
   -1.3245   -1.2086    0.0000 H   0  0  0  0  0  0  0  0  0  0  0  0
   -1.0195    1.2046    0.0000 H   0  0  0  0  0  0  0  0  0  0  0  0
   -0.0340   -2.0529    0.0000 H   0  0  0  0  0  0  0  0  0  0  0  0
    0.7119   -2.4053    0.0000 H   0  0  0  0  0  0  0  0  0  0  0  0
    1.5036   -0.7296    0.0000 H   0  0  0  0  0  0  0  0  0  0  0  0
    1.5915   -1.7960    0.0000 H   0  0  0  0  0  0  0  0  0  0  0  0
   -1.7676   -0.9994    0.0000 H   0  0  0  0  0  0  0  0  0  0  0  0
   -0.7121   -2.5228    0.0000 H   0  0  0  0  0  0  0  0  0  0  0  0
   -1.6796   -2.0658    0.0000 H   0  0  0  0  0  0  0  0  0  0  0  0
    0.4328    1.8608    0.0000 H   0  0  0  0  0  0  0  0  0  0  0  0
    1.0785    1.8418    0.0000 H   0  0  0  0  0  0  0  0  0  0  0  0
    2.0460    1.3848    0.0000 H   0  0  0  0  0  0  0  0  0  0  0  0
    0.4549   -0.4690    0.0000 H   0  0  0  0  0  0  0  0  0  0  0  0
    3.4215   -0.4881    0.0000 H   0  0  0  0  0  0  0  0  0  0  0  0
    1.5897    2.1558    0.0000 H   0  0  0  0  0  0  0  0  0  0  0  0
    3.1162    3.2134    0.0000 H   0  0  0  0  0  0  0  0  0  0  0  0
    4.7952    2.4202    0.0000 H   0  0  0  0  0  0  0  0  0  0  0  0
    4.8486   -0.4085    0.0000 H   0  0  0  0  0  0  0  0  0  0  0  0
    5.7282    0.2009    0.0000 H   0  0  0  0  0  0  0  0  0  0  0  0
    6.3611    0.6920    0.0000 H   0  0  0  0  0  0  0  0  0  0  0  0
    5.3550    2.1442    0.0000 H   0  0  0  0  0  0  0  0  0  0  0  0
  1  2  2  0  0  0  0
  1  6  1  0  0  0  0
  1 35  1  0  0  0  0
  2  3  1  0  0  0  0
  2 36  1  0  0  0  0
  3  4  2  0  0  0  0
  3 37  1  0  0  0  0
  4  5  1  0  0  0  0
  4 38  1  0  0  0  0
  5  6  2  0  0  0  0
  5 39  1  0  0  0  0
  6  7  1  0  0  0  0
  7  8  1  0  0  0  0
  7 40  1  0  0  0  0
  7 41  1  0  0  0  0
  8  9  1  0  0  0  0
  8 42  1  0  0  0  0
  8 43  1  0  0  0  0
  9 12  1  0  0  0  0
  9 11  2  0  0  0  0
  9 10  2  0  0  0  0
 12 44  1  0  0  0  0
 13 12  1  0  0  0  0
 13 17  1  0  0  0  0
 13 14  1  0  0  0  0
 13 33  1  1  0  0  0
 14 15  1  0  0  0  0
 14 16  1  0  0  0  0
 14 45  1  0  0  0  0
 15 46  1  0  0  0  0
 15 47  1  0  0  0  0
 15 48  1  0  0  0  0
 16 49  1  0  0  0  0
 16 50  1  0  0  0  0
 16 51  1  0  0  0  0
 17 20  1  0  0  0  0
 17 19  2  6  0  0  0
 17 18  1  0  0  0  0
 18 52  1  0  0  0  0
 20 21  1  0  0  0  0
 20 53  1  0  0  0  0
 20 54  1  0  0  0  0
 21 25  1  0  0  0  0
 21 22  1  0  0  0  0
 21 34  1  6  0  0  0
 22 23  2  0  0  0  0
 22 24  1  0  0  0  0
 24 55  1  0  0  0  0
 25 27  2  0  0  0  0
 25 26  1  0  0  0  0
 26 30  2  0  0  0  0
 26 56  1  0  0  0  0
 27 28  1  0  0  0  0
 27 57  1  0  0  0  0
 28 29  2  0  0  0  0
 28 58  1  0  0  0  0
 29 30  1  0  0  0  0
 29 59  1  0  0  0  0
 30 31  1  0  0  0  0
 31 32  1  0  0  0  0
 31 60  1  0  0  0  0
 31 61  1  0  0  0  0
 32 62  1  0  0  0  0
 32 63  1  0  0  0  0
M  END
>  <DRUGBANK_ID>
DB06835

>  <COMMON_NAME>
(2S)-2-[3-(AMINOMETHYL)PHENYL]-3-{(S)-HYDROXY[(1R)-2-METHYL-1-{[(2-PHENYLETHYL)SULFONYL]AMINO}PROPYL]PHOSPHORYL}PROPANOIC ACID

$$$$
