
 OpenBabel10282417072D

 15 14  0  0  0  0  0  0  0  0999 V2000
    1.7862   -0.0783    0.0000 O   0  0  0  0  0  0  0  0  0  0  0  0
    1.0717    1.1592    0.0000 O   0  0  0  0  0  0  0  0  0  0  0  0
   -0.3572    0.3341    0.0000 N   0  0  0  0  0  0  0  0  0  0  0  0
   -1.7862    0.3341    0.0000 N   0  0  0  0  0  0  0  0  0  0  0  0
   -1.0717   -0.9034    0.0000 N   0  0  0  0  0  0  0  0  0  0  0  0
    0.3572   -0.0783    0.0000 C   0  0  0  0  0  0  0  0  0  0  0  0
   -1.0717   -0.0783    0.0000 C   0  0  0  0  0  0  0  0  0  0  0  0
    1.0717    0.3341    0.0000 C   0  0  0  0  0  0  0  0  0  0  0  0
    1.7863   -1.0153    0.0000 H   0  0  0  0  0  0  0  0  0  0  0  0
   -1.7863    1.3186    0.0000 H   0  0  0  0  0  0  0  0  0  0  0  0
   -2.6387   -0.1583    0.0000 H   0  0  0  0  0  0  0  0  0  0  0  0
   -1.9243   -1.3957    0.0000 H   0  0  0  0  0  0  0  0  0  0  0  0
   -0.2191   -1.3956    0.0000 H   0  0  0  0  0  0  0  0  0  0  0  0
    0.3572   -1.1483    0.0000 H   0  0  0  0  0  0  0  0  0  0  0  0
    1.2838   -0.6134    0.0000 H   0  0  0  0  0  0  0  0  0  0  0  0
  1  8  1  0  0  0  0
  1  9  1  0  0  0  0
  2  8  2  0  0  0  0
  3  6  1  0  0  0  0
  3  7  2  0  0  0  0
  4  7  1  0  0  0  0
  4 10  1  0  0  0  0
  4 11  1  0  0  0  0
  5  7  1  0  0  0  0
  5 12  1  0  0  0  0
  5 13  1  0  0  0  0
  6  8  1  0  0  0  0
  6 14  1  0  0  0  0
  6 15  1  0  0  0  0
M  END
>  <DRUGBANK_ID>
DB02751

>  <SECONDARY_ACCESSION_NUMBERS>
EXPT02364

>  <COMMON_NAME>
Glycocyamine

>  <CAS_NUMBER>
352-97-6

>  <UNII>
GO52O1A04E

>  <SYNONYMS>
Amidinoglycine; Betacyamine; Guanidineacetic acid; Guanidoacetic acid; Guanyl glycine; N-(aminoiminomethyl)glycine; N-amidinoglycine

$$$$
