
 OpenBabel10282417072D

 31 30  0  0  1  0  0  0  0  0999 V2000
    9.9513    4.0954    0.0000 N   0  0  0  0  0  0  0  0  0  0  0  0
    9.9513    3.2704    0.0000 C   0  0  1  0  0  0  0  0  0  0  0  0
    9.2368    2.8579    0.0000 C   0  0  0  0  0  0  0  0  0  0  0  0
    8.5224    3.2704    0.0000 C   0  0  0  0  0  0  0  0  0  0  0  0
    7.8079    2.8579    0.0000 C   0  0  0  0  0  0  0  0  0  0  0  0
    7.0934    3.2704    0.0000 N   0  0  0  0  0  0  0  0  0  0  0  0
    6.3789    2.8579    0.0000 C   0  0  0  0  0  0  0  0  0  0  0  0
    6.3789    2.0329    0.0000 O   0  0  0  0  0  0  0  0  0  0  0  0
    5.6645    3.2704    0.0000 C   0  0  0  0  0  0  0  0  0  0  0  0
    4.9500    2.8579    0.0000 P   0  0  0  0  0  0  0  0  0  0  0  0
    4.2355    2.4454    0.0000 O   0  0  0  0  0  0  0  0  0  0  0  0
    5.3625    2.1434    0.0000 O   0  0  0  0  0  0  0  0  0  0  0  0
    4.5375    3.5724    0.0000 O   0  0  0  0  0  0  0  0  0  0  0  0
   10.6658    2.8579    0.0000 C   0  0  0  0  0  0  0  0  0  0  0  0
   11.3802    3.2704    0.0000 O   0  0  0  0  0  0  0  0  0  0  0  0
   10.6658    2.0329    0.0000 O   0  0  0  0  0  0  0  0  0  0  0  0
   10.8346    4.6054    0.0000 H   0  0  0  0  0  0  0  0  0  0  0  0
    9.0680    4.6054    0.0000 H   0  0  0  0  0  0  0  0  0  0  0  0
    9.0247    3.8054    0.0000 H   0  0  0  0  0  0  0  0  0  0  0  0
    9.2368    1.7879    0.0000 H   0  0  0  0  0  0  0  0  0  0  0  0
    8.3101    2.3229    0.0000 H   0  0  0  0  0  0  0  0  0  0  0  0
    8.5224    4.3404    0.0000 H   0  0  0  0  0  0  0  0  0  0  0  0
    7.5958    3.8054    0.0000 H   0  0  0  0  0  0  0  0  0  0  0  0
    7.8079    1.7879    0.0000 H   0  0  0  0  0  0  0  0  0  0  0  0
    6.8813    2.3229    0.0000 H   0  0  0  0  0  0  0  0  0  0  0  0
    7.0934    4.2549    0.0000 H   0  0  0  0  0  0  0  0  0  0  0  0
    5.6645    4.3404    0.0000 H   0  0  0  0  0  0  0  0  0  0  0  0
    4.7379    3.8054    0.0000 H   0  0  0  0  0  0  0  0  0  0  0  0
    3.3955    2.9304    0.0000 H   0  0  0  0  0  0  0  0  0  0  0  0
    4.8775    1.3034    0.0000 H   0  0  0  0  0  0  0  0  0  0  0  0
   12.1917    2.8019    0.0000 H   0  0  0  0  0  0  0  0  0  0  0  0
  1 17  1  0  0  0  0
  1 18  1  0  0  0  0
  2  1  1  0  0  0  0
  2  3  1  0  0  0  0
  2 14  1  0  0  0  0
  2 19  1  1  0  0  0
  3  4  1  0  0  0  0
  3 20  1  0  0  0  0
  3 21  1  0  0  0  0
  4  5  1  0  0  0  0
  4 22  1  0  0  0  0
  4 23  1  0  0  0  0
  5  6  1  0  0  0  0
  5 24  1  0  0  0  0
  5 25  1  0  0  0  0
  6  7  1  0  0  0  0
  6 26  1  0  0  0  0
  7  8  2  0  0  0  0
  7  9  1  0  0  0  0
  9 10  1  0  0  0  0
  9 27  1  0  0  0  0
  9 28  1  0  0  0  0
 10 11  1  0  0  0  0
 10 12  1  0  0  0  0
 10 13  2  0  0  0  0
 11 29  1  0  0  0  0
 12 30  1  0  0  0  0
 14 15  1  0  0  0  0
 14 16  2  0  0  0  0
 15 31  1  0  0  0  0
M  END
>  <DRUGBANK_ID>
DB02011

>  <SECONDARY_ACCESSION_NUMBERS>
EXPT02497

>  <COMMON_NAME>
N-(Phosphonoacetyl)-L-Ornithine

>  <CAS_NUMBER>
63446-55-9

$$$$
