BRC
 OpenBabel10282417072D

 38 37  0  0  0  0  0  0  0  0999 V2000
   -4.0710    0.1832    0.0000 C   0  0  0  0  0  0  0  0  0  0  0  0
   -4.7855   -0.2293    0.0000 O   0  0  0  0  0  0  0  0  0  0  0  0
   -4.0710    1.0083    0.0000 O   0  0  0  0  0  0  0  0  0  0  0  0
   -3.3565   -0.2293    0.0000 C   0  0  0  0  0  0  0  0  0  0  0  0
   -2.6419    0.1832    0.0000 C   0  0  0  0  0  0  0  0  0  0  0  0
   -1.9273   -0.2293    0.0000 C   0  0  0  0  0  0  0  0  0  0  0  0
   -1.2129    0.1832    0.0000 C   0  0  0  0  0  0  0  0  0  0  0  0
   -0.4983   -0.2293    0.0000 C   0  0  0  0  0  0  0  0  0  0  0  0
    0.2162    0.1832    0.0000 C   0  0  0  0  0  0  0  0  0  0  0  0
    0.9307   -0.2293    0.0000 C   0  0  0  0  0  0  0  0  0  0  0  0
    1.6452    0.1832    0.0000 C   0  0  0  0  0  0  0  0  0  0  0  0
    2.3598   -0.2293    0.0000 C   0  0  0  0  0  0  0  0  0  0  0  0
    3.0743    0.1832    0.0000 C   0  0  0  0  0  0  0  0  0  0  0  0
    3.7888   -0.2293    0.0000 C   0  0  0  0  0  0  0  0  0  0  0  0
    4.5033    0.1832    0.0000 Br  0  0  0  0  0  0  0  0  0  0  0  0
   -3.2595    1.4768    0.0000 H   0  0  0  0  0  0  0  0  0  0  0  0
   -3.3565   -1.2993    0.0000 H   0  0  0  0  0  0  0  0  0  0  0  0
   -2.4299   -0.7644    0.0000 H   0  0  0  0  0  0  0  0  0  0  0  0
   -2.6419    1.2532    0.0000 H   0  0  0  0  0  0  0  0  0  0  0  0
   -1.7153    0.7182    0.0000 H   0  0  0  0  0  0  0  0  0  0  0  0
   -1.9272   -1.2993    0.0000 H   0  0  0  0  0  0  0  0  0  0  0  0
   -1.0006   -0.7643    0.0000 H   0  0  0  0  0  0  0  0  0  0  0  0
   -1.2130    1.2532    0.0000 H   0  0  0  0  0  0  0  0  0  0  0  0
   -0.2863    0.7183    0.0000 H   0  0  0  0  0  0  0  0  0  0  0  0
   -0.4983   -1.2993    0.0000 H   0  0  0  0  0  0  0  0  0  0  0  0
    0.4284   -0.7643    0.0000 H   0  0  0  0  0  0  0  0  0  0  0  0
    0.2162    1.2532    0.0000 H   0  0  0  0  0  0  0  0  0  0  0  0
    1.1428    0.7182    0.0000 H   0  0  0  0  0  0  0  0  0  0  0  0
    0.9307   -1.2993    0.0000 H   0  0  0  0  0  0  0  0  0  0  0  0
    1.8573   -0.7643    0.0000 H   0  0  0  0  0  0  0  0  0  0  0  0
    1.6452    1.2532    0.0000 H   0  0  0  0  0  0  0  0  0  0  0  0
    2.5718    0.7183    0.0000 H   0  0  0  0  0  0  0  0  0  0  0  0
    2.3598   -1.2993    0.0000 H   0  0  0  0  0  0  0  0  0  0  0  0
    3.2865   -0.7643    0.0000 H   0  0  0  0  0  0  0  0  0  0  0  0
    3.0743    1.2532    0.0000 H   0  0  0  0  0  0  0  0  0  0  0  0
    4.0009    0.7182    0.0000 H   0  0  0  0  0  0  0  0  0  0  0  0
    3.7888   -1.2993    0.0000 H   0  0  0  0  0  0  0  0  0  0  0  0
    4.7154   -0.7643    0.0000 H   0  0  0  0  0  0  0  0  0  0  0  0
  1  2  2  0  0  0  0
  1  3  1  0  0  0  0
  1  4  1  0  0  0  0
  3 16  1  0  0  0  0
  4  5  1  0  0  0  0
  4 17  1  0  0  0  0
  4 18  1  0  0  0  0
  5  6  1  0  0  0  0
  5 19  1  0  0  0  0
  5 20  1  0  0  0  0
  6  7  1  0  0  0  0
  6 21  1  0  0  0  0
  6 22  1  0  0  0  0
  7  8  1  0  0  0  0
  7 23  1  0  0  0  0
  7 24  1  0  0  0  0
  8  9  1  0  0  0  0
  8 25  1  0  0  0  0
  8 26  1  0  0  0  0
  9 10  1  0  0  0  0
  9 27  1  0  0  0  0
  9 28  1  0  0  0  0
 10 11  1  0  0  0  0
 10 29  1  0  0  0  0
 10 30  1  0  0  0  0
 11 12  1  0  0  0  0
 11 31  1  0  0  0  0
 11 32  1  0  0  0  0
 12 13  1  0  0  0  0
 12 33  1  0  0  0  0
 12 34  1  0  0  0  0
 13 14  1  0  0  0  0
 13 35  1  0  0  0  0
 13 36  1  0  0  0  0
 14 15  1  0  0  0  0
 14 37  1  0  0  0  0
 14 38  1  0  0  0  0
M  END
>  <DRUGBANK_ID>
DB02405

>  <SECONDARY_ACCESSION_NUMBERS>
EXPT00749

>  <COMMON_NAME>
12-Bromododecanoic Acid

>  <CAS_NUMBER>
73367-80-3

>  <UNII>
RP072ZQ00E

$$$$
