
 OpenBabel10282417072D

 44 48  0  0  1  0  0  0  0  0999 V2000
    8.2802   -3.3000    0.0000 H   0  0  0  0  0  0  0  0  0  0  0  0
    8.2802   -2.4750    0.0000 C   0  0  1  0  0  0  0  0  0  0  0  0
    8.4518   -1.6680    0.0000 C   0  0  0  0  0  0  0  0  0  0  0  0
    9.2722   -1.5818    0.0000 C   0  0  0  0  0  0  0  0  0  0  0  0
    9.6078   -2.3355    0.0000 C   0  0  0  0  0  0  0  0  0  0  0  0
    8.9947   -2.8875    0.0000 C   0  0  1  0  0  0  0  0  0  0  0  0
    9.7484   -3.2231    0.0000 H   0  0  0  0  0  0  0  0  0  0  0  0
    8.9947   -3.7125    0.0000 C   0  0  0  0  0  0  0  0  0  0  0  0
    9.7092   -4.1250    0.0000 C   0  0  0  0  0  0  0  0  0  0  0  0
    9.7092   -4.9500    0.0000 C   0  0  0  0  0  0  0  0  0  0  0  0
    8.9947   -5.3625    0.0000 C   0  0  0  0  0  0  0  0  0  0  0  0
    8.2802   -4.9500    0.0000 C   0  0  0  0  0  0  0  0  0  0  0  0
    8.2802   -4.1250    0.0000 C   0  0  0  0  0  0  0  0  0  0  0  0
    7.5658   -3.7125    0.0000 N   0  0  0  0  0  0  0  0  0  0  0  0
    7.5658   -2.8875    0.0000 C   0  0  1  0  0  0  0  0  0  0  0  0
    6.8513   -2.4750    0.0000 C   0  0  0  0  0  0  0  0  0  0  0  0
    6.1368   -2.8875    0.0000 C   0  0  0  0  0  0  0  0  0  0  0  0
    5.4223   -2.4750    0.0000 C   0  0  0  0  0  0  0  0  0  0  0  0
    4.6377   -2.7299    0.0000 O   0  0  0  0  0  0  0  0  0  0  0  0
    4.1528   -2.0625    0.0000 C   0  0  0  0  0  0  0  0  0  0  0  0
    4.6377   -1.3951    0.0000 O   0  0  0  0  0  0  0  0  0  0  0  0
    5.4223   -1.6500    0.0000 C   0  0  0  0  0  0  0  0  0  0  0  0
    6.1368   -1.2375    0.0000 C   0  0  0  0  0  0  0  0  0  0  0  0
    6.8513   -1.6500    0.0000 C   0  0  0  0  0  0  0  0  0  0  0  0
    7.5658   -1.2375    0.0000 Br  0  0  0  0  0  0  0  0  0  0  0  0
   10.4236   -5.3625    0.0000 C   0  0  0  0  0  0  0  0  0  0  0  0
   11.1381   -4.9500    0.0000 C   0  0  0  0  0  0  0  0  0  0  0  0
   10.4236   -6.1875    0.0000 O   0  0  0  0  0  0  0  0  0  0  0  0
    7.7359   -0.8728    0.0000 H   0  0  0  0  0  0  0  0  0  0  0  0
    8.8353   -0.6691    0.0000 H   0  0  0  0  0  0  0  0  0  0  0  0
    9.7882   -0.6881    0.0000 H   0  0  0  0  0  0  0  0  0  0  0  0
   10.6172   -2.5501    0.0000 H   0  0  0  0  0  0  0  0  0  0  0  0
   10.6029   -3.6090    0.0000 H   0  0  0  0  0  0  0  0  0  0  0  0
    8.9947   -6.3945    0.0000 H   0  0  0  0  0  0  0  0  0  0  0  0
    7.3865   -5.4660    0.0000 H   0  0  0  0  0  0  0  0  0  0  0  0
    6.7132   -4.2047    0.0000 H   0  0  0  0  0  0  0  0  0  0  0  0
    6.6392   -3.4225    0.0000 H   0  0  0  0  0  0  0  0  0  0  0  0
    6.1368   -3.9195    0.0000 H   0  0  0  0  0  0  0  0  0  0  0  0
    3.0828   -2.0625    0.0000 H   0  0  0  0  0  0  0  0  0  0  0  0
    3.6670   -1.1091    0.0000 H   0  0  0  0  0  0  0  0  0  0  0  0
    6.1368   -0.2055    0.0000 H   0  0  0  0  0  0  0  0  0  0  0  0
   12.0647   -5.4850    0.0000 H   0  0  0  0  0  0  0  0  0  0  0  0
   11.1381   -3.8800    0.0000 H   0  0  0  0  0  0  0  0  0  0  0  0
   12.0648   -4.4150    0.0000 H   0  0  0  0  0  0  0  0  0  0  0  0
  2  1  1  6  0  0  0
  2  3  1  0  0  0  0
  2  6  1  0  0  0  0
  2 15  1  0  0  0  0
  3  4  1  0  0  0  0
  3 29  1  0  0  0  0
  3 30  1  0  0  0  0
  4  5  2  0  0  0  0
  4 31  1  0  0  0  0
  5 32  1  0  0  0  0
  6  5  1  0  0  0  0
  6  7  1  6  0  0  0
  6  8  1  0  0  0  0
  8  9  2  0  0  0  0
  8 13  1  0  0  0  0
  9 10  1  0  0  0  0
  9 33  1  0  0  0  0
 10 11  2  0  0  0  0
 10 26  1  0  0  0  0
 11 12  1  0  0  0  0
 11 34  1  0  0  0  0
 12 13  2  0  0  0  0
 12 35  1  0  0  0  0
 13 14  1  0  0  0  0
 14 36  1  0  0  0  0
 15 14  1  0  0  0  0
 15 16  1  0  0  0  0
 15 37  1  6  0  0  0
 16 17  2  0  0  0  0
 16 24  1  0  0  0  0
 17 18  1  0  0  0  0
 17 38  1  0  0  0  0
 18 19  1  0  0  0  0
 18 22  2  0  0  0  0
 19 20  1  0  0  0  0
 20 21  1  0  0  0  0
 20 39  1  0  0  0  0
 20 40  1  0  0  0  0
 21 22  1  0  0  0  0
 22 23  1  0  0  0  0
 23 24  2  0  0  0  0
 23 41  1  0  0  0  0
 24 25  1  0  0  0  0
 26 27  1  0  0  0  0
 26 28  2  0  0  0  0
 27 42  1  0  0  0  0
 27 43  1  0  0  0  0
 27 44  1  0  0  0  0
M  END
>  <DRUGBANK_ID>
DB18091

>  <COMMON_NAME>
LNS-8801

>  <CAS_NUMBER>
881639-98-1

>  <UNII>
Y3V5BV7OKM

>  <SYNONYMS>
Ethanone, 1-((3ar,4s,9bs)-4-(6-bromo-1,3-benzodioxol-5-yl)-3a,4,5,9b-tetrahydro-3h-cyclopenta(c)quinolin-8-yl)-, rel-; G 1 (anti-tumor agent); G 1 (g protein-coupled estrogen receptor agonist); G 1 (gper agonist)

$$$$
