BC1
 OpenBabel10282417072D

 42 44  0  0  0  0  0  0  0  0999 V2000
   -3.9985    0.2339    0.0000 O   0  0  0  0  0  0  0  0  0  0  0  0
   -3.2840   -0.1786    0.0000 C   0  0  0  0  0  0  0  0  0  0  0  0
   -3.2840   -1.0036    0.0000 O   0  0  0  0  0  0  0  0  0  0  0  0
   -2.5695    0.2339    0.0000 C   0  0  0  0  0  0  0  0  0  0  0  0
   -1.8551   -0.1786    0.0000 C   0  0  0  0  0  0  0  0  0  0  0  0
   -1.1406    0.2339    0.0000 N   0  0  0  0  0  0  0  0  0  0  0  0
   -0.4261   -0.1786    0.0000 C   0  0  0  0  0  0  0  0  0  0  0  0
   -0.4261   -1.0036    0.0000 O   0  0  0  0  0  0  0  0  0  0  0  0
    0.2884    0.2339    0.0000 C   0  0  0  0  0  0  0  0  0  0  0  0
   -0.2419    0.8658    0.0000 C   0  0  0  0  0  0  0  0  0  0  0  0
   -0.7722    1.4978    0.0000 N   0  0  0  0  0  0  0  0  0  0  0  0
    0.5705   -0.5414    0.0000 C   0  0  0  0  0  0  0  0  0  0  0  0
    0.0402   -1.1734    0.0000 C   0  0  0  0  0  0  0  0  0  0  0  0
    0.3224   -1.9486    0.0000 C   0  0  0  0  0  0  0  0  0  0  0  0
    1.1349   -2.0919    0.0000 C   0  0  0  0  0  0  0  0  0  0  0  0
    1.6652   -1.4599    0.0000 C   0  0  0  0  0  0  0  0  0  0  0  0
    1.3830   -0.6847    0.0000 C   0  0  0  0  0  0  0  0  0  0  0  0
    1.9133   -0.0527    0.0000 N   0  0  0  0  0  0  0  0  0  0  0  0
    1.6311    0.7226    0.0000 C   0  0  0  0  0  0  0  0  0  0  0  0
    0.8187    0.8658    0.0000 C   0  0  0  0  0  0  0  0  0  0  0  0
    0.5365    1.6411    0.0000 C   0  0  0  0  0  0  0  0  0  0  0  0
    1.0668    2.2731    0.0000 C   0  0  0  0  0  0  0  0  0  0  0  0
    1.8793    2.1298    0.0000 C   0  0  0  0  0  0  0  0  0  0  0  0
    2.1614    1.3546    0.0000 C   0  0  0  0  0  0  0  0  0  0  0  0
    2.7258   -0.1959    0.0000 C   0  0  0  0  0  0  0  0  0  0  0  0
   -3.9985    1.1709    0.0000 H   0  0  0  0  0  0  0  0  0  0  0  0
   -2.5695    1.3039    0.0000 H   0  0  0  0  0  0  0  0  0  0  0  0
   -1.6428    0.7689    0.0000 H   0  0  0  0  0  0  0  0  0  0  0  0
   -1.8551   -1.2486    0.0000 H   0  0  0  0  0  0  0  0  0  0  0  0
   -0.9285   -0.7136    0.0000 H   0  0  0  0  0  0  0  0  0  0  0  0
   -1.1406    1.2184    0.0000 H   0  0  0  0  0  0  0  0  0  0  0  0
   -0.9761   -0.9942    0.0000 H   0  0  0  0  0  0  0  0  0  0  0  0
   -0.3410   -2.7392    0.0000 H   0  0  0  0  0  0  0  0  0  0  0  0
    1.4878   -3.0617    0.0000 H   0  0  0  0  0  0  0  0  0  0  0  0
    2.6815   -1.6391    0.0000 H   0  0  0  0  0  0  0  0  0  0  0  0
   -0.4798    1.8203    0.0000 H   0  0  0  0  0  0  0  0  0  0  0  0
    0.7139    3.2429    0.0000 H   0  0  0  0  0  0  0  0  0  0  0  0
    2.5427    2.9203    0.0000 H   0  0  0  0  0  0  0  0  0  0  0  0
    3.1777    1.1754    0.0000 H   0  0  0  0  0  0  0  0  0  0  0  0
    3.0918   -1.2013    0.0000 H   0  0  0  0  0  0  0  0  0  0  0  0
    3.4135    0.6238    0.0000 H   0  0  0  0  0  0  0  0  0  0  0  0
    3.7796   -0.3816    0.0000 H   0  0  0  0  0  0  0  0  0  0  0  0
  1  2  1  0  0  0  0
  1 26  1  0  0  0  0
  2  3  2  0  0  0  0
  2  4  1  0  0  0  0
  4  5  1  0  0  0  0
  4 27  1  0  0  0  0
  4 28  1  0  0  0  0
  5  6  1  0  0  0  0
  5 29  1  0  0  0  0
  5 30  1  0  0  0  0
  6  7  1  0  0  0  0
  6 31  1  0  0  0  0
  7  8  2  0  0  0  0
  7  9  1  0  0  0  0
  9 10  1  0  0  0  0
  9 12  1  0  0  0  0
  9 20  1  0  0  0  0
 10 11  3  0  0  0  0
 12 13  2  0  0  0  0
 12 17  1  0  0  0  0
 13 14  1  0  0  0  0
 13 32  1  0  0  0  0
 14 15  2  0  0  0  0
 14 33  1  0  0  0  0
 15 16  1  0  0  0  0
 15 34  1  0  0  0  0
 16 17  2  0  0  0  0
 16 35  1  0  0  0  0
 17 18  1  0  0  0  0
 18 19  1  0  0  0  0
 18 25  1  0  0  0  0
 19 20  2  0  0  0  0
 19 24  1  0  0  0  0
 20 21  1  0  0  0  0
 21 22  2  0  0  0  0
 21 36  1  0  0  0  0
 22 23  1  0  0  0  0
 22 37  1  0  0  0  0
 23 24  2  0  0  0  0
 23 38  1  0  0  0  0
 24 39  1  0  0  0  0
 25 40  1  0  0  0  0
 25 41  1  0  0  0  0
 25 42  1  0  0  0  0
M  END
>  <DRUGBANK_ID>
DB07441

>  <COMMON_NAME>
3-{[(9-CYANO-9,10-DIHYDRO-10-METHYLACRIDIN-9-YL)CARBONYL]AMINO}PROPANOIC ACID

$$$$
