
 OpenBabel10282417072D

 57 57  0  0  0  0  0  0  0  0999 V2000
    0.7111    1.2376    0.0000 C   0  0  0  0  0  0  0  0  0  0  0  0
    1.4275    1.6500    0.0000 N   0  0  0  0  0  0  0  0  0  0  0  0
   -0.0041    1.6518    0.0000 O   0  0  0  0  0  0  0  0  0  0  0  0
    2.1385    1.2376    0.0000 C   0  0  0  0  0  0  0  0  0  0  0  0
    2.8524    1.6509    0.0000 C   0  0  3  0  0  0  0  0  0  0  0  0
    3.5664    1.2376    0.0000 C   0  0  0  0  0  0  0  0  0  0  0  0
    4.2803    1.6509    0.0000 O   0  0  0  0  0  0  0  0  0  0  0  0
    2.8524    2.4776    0.0000 O   0  0  0  0  0  0  0  0  0  0  0  0
    0.7105    0.4151    0.0000 C   0  0  0  0  0  0  0  0  0  0  0  0
    1.4287    0.0018    0.0000 C   0  0  0  0  0  0  0  0  0  0  0  0
    1.4287   -0.8248    0.0000 C   0  0  0  0  0  0  0  0  0  0  0  0
    0.7110   -1.2381    0.0000 C   0  0  0  0  0  0  0  0  0  0  0  0
   -0.0023   -0.8248    0.0000 C   0  0  0  0  0  0  0  0  0  0  0  0
   -0.0023    0.0018    0.0000 C   0  0  0  0  0  0  0  0  0  0  0  0
    0.7100   -2.0647    0.0000 I   0  0  0  0  0  0  0  0  0  0  0  0
   -0.7186    0.4146    0.0000 I   0  0  0  0  0  0  0  0  0  0  0  0
    2.1444    0.4154    0.0000 I   0  0  0  0  0  0  0  0  0  0  0  0
   -0.7186   -1.2376    0.0000 C   0  0  0  0  0  0  0  0  0  0  0  0
   -1.4312   -0.8206    0.0000 N   0  0  0  0  0  0  0  0  0  0  0  0
   -2.1451   -1.2340    0.0000 C   0  0  0  0  0  0  0  0  0  0  0  0
   -2.8591   -0.8206    0.0000 C   0  0  3  0  0  0  0  0  0  0  0  0
   -3.5730   -1.2340    0.0000 C   0  0  0  0  0  0  0  0  0  0  0  0
   -4.2870   -0.8206    0.0000 O   0  0  0  0  0  0  0  0  0  0  0  0
   -0.6800   -2.0643    0.0000 O   0  0  0  0  0  0  0  0  0  0  0  0
   -2.8591    0.0059    0.0000 O   0  0  0  0  0  0  0  0  0  0  0  0
    2.1426   -1.2381    0.0000 N   0  0  0  0  0  0  0  0  0  0  0  0
    2.8566   -0.8290    0.0000 C   0  0  0  0  0  0  0  0  0  0  0  0
    3.5705   -1.2423    0.0000 C   0  0  0  0  0  0  0  0  0  0  0  0
    2.1384   -2.0607    0.0000 C   0  0  0  0  0  0  0  0  0  0  0  0
    1.4205   -2.4704    0.0000 O   0  0  0  0  0  0  0  0  0  0  0  0
    2.8523   -2.4776    0.0000 C   0  0  0  0  0  0  0  0  0  0  0  0
    4.2870   -0.8298    0.0000 O   0  0  0  0  0  0  0  0  0  0  0  0
    3.5764   -2.0644    0.0000 O   0  0  0  0  0  0  0  0  0  0  0  0
    1.4291    2.6345    0.0000 H   0  0  0  0  0  0  0  0  0  0  0  0
    2.1381    0.1676    0.0000 H   0  0  0  0  0  0  0  0  0  0  0  0
    3.0654    0.7030    0.0000 H   0  0  0  0  0  0  0  0  0  0  0  0
    1.9254    2.1854    0.0000 H   0  0  0  0  0  0  0  0  0  0  0  0
    3.5664    0.1676    0.0000 H   0  0  0  0  0  0  0  0  0  0  0  0
    2.6395    0.7031    0.0000 H   0  0  0  0  0  0  0  0  0  0  0  0
    5.1209    1.1669    0.0000 H   0  0  0  0  0  0  0  0  0  0  0  0
    3.6924    2.9626    0.0000 H   0  0  0  0  0  0  0  0  0  0  0  0
   -1.4290    0.1639    0.0000 H   0  0  0  0  0  0  0  0  0  0  0  0
   -2.1451   -2.3040    0.0000 H   0  0  0  0  0  0  0  0  0  0  0  0
   -3.0721   -1.7684    0.0000 H   0  0  0  0  0  0  0  0  0  0  0  0
   -1.9321   -0.2862    0.0000 H   0  0  0  0  0  0  0  0  0  0  0  0
   -3.5730   -2.3040    0.0000 H   0  0  0  0  0  0  0  0  0  0  0  0
   -4.5000   -1.7684    0.0000 H   0  0  0  0  0  0  0  0  0  0  0  0
   -4.2858    0.1494    0.0000 H   0  0  0  0  0  0  0  0  0  0  0  0
   -2.0191    0.4909    0.0000 H   0  0  0  0  0  0  0  0  0  0  0  0
    2.8590    0.2410    0.0000 H   0  0  0  0  0  0  0  0  0  0  0  0
    3.7842   -0.2956    0.0000 H   0  0  0  0  0  0  0  0  0  0  0  0
    3.5692   -2.3123    0.0000 H   0  0  0  0  0  0  0  0  0  0  0  0
    4.4965   -1.7784    0.0000 H   0  0  0  0  0  0  0  0  0  0  0  0
    2.8469   -3.5476    0.0000 H   0  0  0  0  0  0  0  0  0  0  0  0
    3.7762   -3.0172    0.0000 H   0  0  0  0  0  0  0  0  0  0  0  0
    5.1264   -1.3158    0.0000 H   0  0  0  0  0  0  0  0  0  0  0  0
    4.4140   -2.5536    0.0000 H   0  0  0  0  0  0  0  0  0  0  0  0
  1  2  1  0  0  0  0
  1  3  2  0  0  0  0
  2  4  1  0  0  0  0
  2 34  1  0  0  0  0
  4  5  1  0  0  0  0
  4 35  1  0  0  0  0
  4 36  1  0  0  0  0
  5  8  1  0  0  0  0
  5  6  1  0  0  0  0
  5 37  1  0  0  0  0
  6  7  1  0  0  0  0
  6 38  1  0  0  0  0
  6 39  1  0  0  0  0
  7 40  1  0  0  0  0
  8 41  1  0  0  0  0
  9  1  1  0  0  0  0
  9 10  1  0  0  0  0
 10 17  1  0  0  0  0
 10 11  2  0  0  0  0
 11 12  1  0  0  0  0
 11 26  1  0  0  0  0
 12 13  2  0  0  0  0
 12 15  1  0  0  0  0
 13 18  1  0  0  0  0
 13 14  1  0  0  0  0
 14  9  2  0  0  0  0
 14 16  1  0  0  0  0
 18 19  1  0  0  0  0
 18 24  2  0  0  0  0
 19 20  1  0  0  0  0
 19 42  1  0  0  0  0
 20 21  1  0  0  0  0
 20 43  1  0  0  0  0
 20 44  1  0  0  0  0
 21 25  1  0  0  0  0
 21 22  1  0  0  0  0
 21 45  1  0  0  0  0
 22 23  1  0  0  0  0
 22 46  1  0  0  0  0
 22 47  1  0  0  0  0
 23 48  1  0  0  0  0
 25 49  1  0  0  0  0
 26 27  1  0  0  0  0
 26 29  1  0  0  0  0
 27 28  1  0  0  0  0
 27 50  1  0  0  0  0
 27 51  1  0  0  0  0
 28 32  1  0  0  0  0
 28 52  1  0  0  0  0
 28 53  1  0  0  0  0
 29 30  2  0  0  0  0
 29 31  1  0  0  0  0
 31 33  1  0  0  0  0
 31 54  1  0  0  0  0
 31 55  1  0  0  0  0
 32 56  1  0  0  0  0
 33 57  1  0  0  0  0
M  END
>  <DRUGBANK_ID>
DB09134

>  <COMMON_NAME>
Ioversol

>  <CAS_NUMBER>
87771-40-2

>  <UNII>
N3RIB7X24K

>  <SYNONYMS>
Ioversol; N,N'-Bis (2,3-dihydroxypropyl)-5-[N-(2-hydroxyethyl) -glycolamido] -2,4,6-triiodoisophthalamide; Optiray

$$$$
