
 OpenBabel10282417072D

 44 46  0  0  0  0  0  0  0  0999 V2000
   -2.5006   -0.8250    0.0000 Br  0  0  0  0  0  0  0  0  0  0  0  0
   -1.0716   -1.6500    0.0000 O   0  0  0  0  0  0  0  0  0  0  0  0
    1.0717    2.8875    0.0000 O   0  0  0  0  0  0  0  0  0  0  0  0
    0.3572    3.3000    0.0000 O   0  0  0  0  0  0  0  0  0  0  0  0
   -1.0716    3.3000    0.0000 O   0  0  0  0  0  0  0  0  0  0  0  0
    0.3572    1.6500    0.0000 N   0  0  0  0  0  0  0  0  0  0  0  0
   -1.0716    0.8250    0.0000 C   0  0  0  0  0  0  0  0  0  0  0  0
   -1.0716   -0.8250    0.0000 C   0  0  0  0  0  0  0  0  0  0  0  0
   -0.3572    0.4125    0.0000 C   0  0  0  0  0  0  0  0  0  0  0  0
   -1.7861    0.4125    0.0000 C   0  0  0  0  0  0  0  0  0  0  0  0
   -1.0716    1.6500    0.0000 C   0  0  0  0  0  0  0  0  0  0  0  0
   -0.3572   -0.4125    0.0000 C   0  0  0  0  0  0  0  0  0  0  0  0
   -1.7861   -0.4125    0.0000 C   0  0  0  0  0  0  0  0  0  0  0  0
   -0.3572    2.0625    0.0000 C   0  0  0  0  0  0  0  0  0  0  0  0
    1.7862    1.6500    0.0000 C   0  0  0  0  0  0  0  0  0  0  0  0
   -1.7861   -2.0625    0.0000 C   0  0  0  0  0  0  0  0  0  0  0  0
    1.0717    2.0625    0.0000 C   0  0  0  0  0  0  0  0  0  0  0  0
    2.5006    2.0625    0.0000 C   0  0  0  0  0  0  0  0  0  0  0  0
    1.7862    0.8250    0.0000 C   0  0  0  0  0  0  0  0  0  0  0  0
   -2.5006   -1.6500    0.0000 C   0  0  0  0  0  0  0  0  0  0  0  0
   -1.7861   -2.8875    0.0000 C   0  0  0  0  0  0  0  0  0  0  0  0
    3.2151    1.6500    0.0000 C   0  0  0  0  0  0  0  0  0  0  0  0
    2.5006    0.4125    0.0000 C   0  0  0  0  0  0  0  0  0  0  0  0
   -0.3572    2.8875    0.0000 C   0  0  0  0  0  0  0  0  0  0  0  0
    3.2151    0.8250    0.0000 C   0  0  0  0  0  0  0  0  0  0  0  0
   -3.2151   -2.0625    0.0000 C   0  0  0  0  0  0  0  0  0  0  0  0
   -2.5006   -3.3000    0.0000 C   0  0  0  0  0  0  0  0  0  0  0  0
   -3.2151   -2.8875    0.0000 C   0  0  0  0  0  0  0  0  0  0  0  0
    0.3572    1.1385    0.0000 H   0  0  0  0  0  0  0  0  0  0  0  0
    1.1687    2.8315    0.0000 H   0  0  0  0  0  0  0  0  0  0  0  0
    0.5365    0.9285    0.0000 H   0  0  0  0  0  0  0  0  0  0  0  0
   -2.6798    0.9285    0.0000 H   0  0  0  0  0  0  0  0  0  0  0  0
   -1.9653    2.1660    0.0000 H   0  0  0  0  0  0  0  0  0  0  0  0
    0.5365   -0.9285    0.0000 H   0  0  0  0  0  0  0  0  0  0  0  0
   -2.6798   -0.9285    0.0000 H   0  0  0  0  0  0  0  0  0  0  0  0
    2.5006    3.0945    0.0000 H   0  0  0  0  0  0  0  0  0  0  0  0
    0.8925    0.3090    0.0000 H   0  0  0  0  0  0  0  0  0  0  0  0
   -0.8924   -3.4035    0.0000 H   0  0  0  0  0  0  0  0  0  0  0  0
    4.1088    2.1660    0.0000 H   0  0  0  0  0  0  0  0  0  0  0  0
    2.5006   -0.6195    0.0000 H   0  0  0  0  0  0  0  0  0  0  0  0
    4.1088    0.3090    0.0000 H   0  0  0  0  0  0  0  0  0  0  0  0
   -4.1088   -1.5465    0.0000 H   0  0  0  0  0  0  0  0  0  0  0  0
   -2.5006   -4.3320    0.0000 H   0  0  0  0  0  0  0  0  0  0  0  0
   -4.1088   -3.4035    0.0000 H   0  0  0  0  0  0  0  0  0  0  0  0
  1 20  1  0  0  0  0
  2  8  1  0  0  0  0
  2 16  1  0  0  0  0
  3 17  2  0  0  0  0
  4 24  1  0  0  0  0
  4 30  1  0  0  0  0
  5 24  2  0  0  0  0
  6 14  1  0  0  0  0
  6 17  1  0  0  0  0
  6 29  1  0  0  0  0
  7  9  2  0  0  0  0
  7 10  1  0  0  0  0
  7 11  1  0  0  0  0
  8 12  2  0  0  0  0
  8 13  1  0  0  0  0
  9 12  1  0  0  0  0
  9 31  1  0  0  0  0
 10 13  2  0  0  0  0
 10 32  1  0  0  0  0
 11 14  2  0  0  0  0
 11 33  1  0  0  0  0
 12 34  1  0  0  0  0
 13 35  1  0  0  0  0
 14 24  1  0  0  0  0
 15 17  1  0  0  0  0
 15 18  2  0  0  0  0
 15 19  1  0  0  0  0
 16 20  1  0  0  0  0
 16 21  2  0  0  0  0
 18 22  1  0  0  0  0
 18 36  1  0  0  0  0
 19 23  2  0  0  0  0
 19 37  1  0  0  0  0
 20 26  2  0  0  0  0
 21 27  1  0  0  0  0
 21 38  1  0  0  0  0
 22 25  2  0  0  0  0
 22 39  1  0  0  0  0
 23 25  1  0  0  0  0
 23 40  1  0  0  0  0
 25 41  1  0  0  0  0
 26 28  1  0  0  0  0
 26 42  1  0  0  0  0
 27 28  2  0  0  0  0
 27 43  1  0  0  0  0
 28 44  1  0  0  0  0
M  END
>  <DRUGBANK_ID>
DB01720

>  <SECONDARY_ACCESSION_NUMBERS>
EXPT02579

>  <COMMON_NAME>
(2Z)-2-(Benzoylamino)-3-[4-(2-bromophenoxy)phenyl]acrylic acid

>  <CAS_NUMBER>
639517-90-1

>  <SYNONYMS>
(2Z)-2-(benzoylamino)-3-[4-(2-bromophenoxy)phenyl]-2-propenoic acid

$$$$
