
 OpenBabel10282417072D

 52 53  0  0  0  0  0  0  0  0999 V2000
    4.4641    0.6466    0.0000 P   0  0  0  0  0  0  0  0  0  0  0  0
    1.6143    0.1195    0.0000 O   0  0  0  0  0  0  0  0  0  0  0  0
    0.7169    2.0565    0.0000 O   0  0  0  0  0  0  0  0  0  0  0  0
    2.5118    2.0565    0.0000 O   0  0  0  0  0  0  0  0  0  0  0  0
    3.6795    0.9016    0.0000 O   0  0  0  0  0  0  0  0  0  0  0  0
    1.1769   -0.8475    0.0000 O   0  0  0  0  0  0  0  0  0  0  0  0
   -1.1725    0.8594    0.0000 O   0  0  0  0  0  0  0  0  0  0  0  0
    5.2488    0.3917    0.0000 O   0  0  0  0  0  0  0  0  0  0  0  0
    4.7191    1.4312    0.0000 O   0  0  0  0  0  0  0  0  0  0  0  0
    4.2092   -0.1379    0.0000 O   0  0  0  0  0  0  0  0  0  0  0  0
   -2.8931   -2.7636    0.0000 O   0  0  0  0  0  0  0  0  0  0  0  0
   -3.8998   -0.5026    0.0000 O   0  0  0  0  0  0  0  0  0  0  0  0
   -2.5944    0.0785    0.0000 O   0  0  0  0  0  0  0  0  0  0  0  0
   -4.5341   -2.5911    0.0000 O   0  0  0  0  0  0  0  0  0  0  0  0
    0.2795    1.0894    0.0000 N   0  0  0  0  0  0  0  0  0  0  0  0
   -0.1330   -0.1801    0.0000 N   0  0  0  0  0  0  0  0  0  0  0  0
   -3.2287   -2.0100    0.0000 N   0  0  0  0  0  0  0  0  0  0  0  0
    0.9469    0.6044    0.0000 C   0  0  1  0  0  0  0  0  0  0  0  0
    1.2018    1.3890    0.0000 C   0  0  1  0  0  0  0  0  0  0  0  0
    2.0268    1.3891    0.0000 C   0  0  1  0  0  0  0  0  0  0  0  0
    2.2818    0.6044    0.0000 C   0  0  1  0  0  0  0  0  0  0  0  0
    0.6920   -0.1801    0.0000 C   0  0  0  0  0  0  0  0  0  0  0  0
    3.0664    0.3495    0.0000 C   0  0  0  0  0  0  0  0  0  0  0  0
   -0.3879    0.6044    0.0000 C   0  0  0  0  0  0  0  0  0  0  0  0
   -0.6179   -0.8475    0.0000 C   0  0  0  0  0  0  0  0  0  0  0  0
   -1.4384   -0.7613    0.0000 C   0  0  0  0  0  0  0  0  0  0  0  0
   -1.9233   -1.4287    0.0000 C   0  0  0  0  0  0  0  0  0  0  0  0
   -2.7438   -1.3425    0.0000 C   0  0  1  0  0  0  0  0  0  0  0  0
   -3.0793   -0.5888    0.0000 C   0  0  0  0  0  0  0  0  0  0  0  0
   -4.0492   -1.9237    0.0000 C   0  0  0  0  0  0  0  0  0  0  0  0
    0.2795    1.6009    0.0000 H   0  0  0  0  0  0  0  0  0  0  0  0
    1.1115    2.9426    0.0000 H   0  0  0  0  0  0  0  0  0  0  0  0
    3.4765    1.9550    0.0000 H   0  0  0  0  0  0  0  0  0  0  0  0
    5.4505   -0.5571    0.0000 H   0  0  0  0  0  0  0  0  0  0  0  0
    5.6679    1.6328    0.0000 H   0  0  0  0  0  0  0  0  0  0  0  0
   -3.4632   -3.5484    0.0000 H   0  0  0  0  0  0  0  0  0  0  0  0
   -4.2810    0.3534    0.0000 H   0  0  0  0  0  0  0  0  0  0  0  0
   -5.4988   -2.4897    0.0000 H   0  0  0  0  0  0  0  0  0  0  0  0
    0.1450    1.2216    0.0000 H   0  0  0  0  0  0  0  0  0  0  0  0
    1.5410    2.3425    0.0000 H   0  0  0  0  0  0  0  0  0  0  0  0
    2.4492   -0.4524    0.0000 H   0  0  0  0  0  0  0  0  0  0  0  0
    3.2889   -0.6971    0.0000 H   0  0  0  0  0  0  0  0  0  0  0  0
    2.2713   -0.3665    0.0000 H   0  0  0  0  0  0  0  0  0  0  0  0
   -0.1827   -1.8250    0.0000 H   0  0  0  0  0  0  0  0  0  0  0  0
   -1.2468   -1.7132    0.0000 H   0  0  0  0  0  0  0  0  0  0  0  0
   -1.8736    0.2162    0.0000 H   0  0  0  0  0  0  0  0  0  0  0  0
   -2.5025   -0.6495    0.0000 H   0  0  0  0  0  0  0  0  0  0  0  0
   -1.4881   -2.4062    0.0000 H   0  0  0  0  0  0  0  0  0  0  0  0
   -2.5522   -2.2944    0.0000 H   0  0  0  0  0  0  0  0  0  0  0  0
   -2.3085   -2.3200    0.0000 H   0  0  0  0  0  0  0  0  0  0  0  0
   -4.4844   -0.9462    0.0000 H   0  0  0  0  0  0  0  0  0  0  0  0
   -3.4202   -1.0581    0.0000 H   0  0  0  0  0  0  0  0  0  0  0  0
  1  5  1  0  0  0  0
  1  8  1  0  0  0  0
  1  9  1  0  0  0  0
  1 10  2  0  0  0  0
  2 21  1  0  0  0  0
  3 32  1  0  0  0  0
  4 33  1  0  0  0  0
  5 23  1  0  0  0  0
  6 22  2  0  0  0  0
  7 24  2  0  0  0  0
  8 34  1  0  0  0  0
  9 35  1  0  0  0  0
 11 17  1  0  0  0  0
 11 36  1  0  0  0  0
 12 29  1  0  0  0  0
 12 37  1  0  0  0  0
 13 29  2  0  0  0  0
 14 30  1  0  0  0  0
 14 38  1  0  0  0  0
 15 24  1  0  0  0  0
 15 31  1  0  0  0  0
 16 22  1  0  0  0  0
 16 24  1  0  0  0  0
 16 25  1  0  0  0  0
 17 30  1  0  0  0  0
 18  2  1  1  0  0  0
 18 15  1  0  0  0  0
 18 19  1  0  0  0  0
 18 22  1  0  0  0  0
 19  3  1  0  0  0  0
 19 20  1  0  0  0  0
 19 39  1  1  0  0  0
 20  4  1  0  0  0  0
 20 21  1  0  0  0  0
 20 40  1  1  0  0  0
 21 23  1  0  0  0  0
 21 41  1  6  0  0  0
 23 42  1  0  0  0  0
 23 43  1  0  0  0  0
 25 26  1  0  0  0  0
 25 44  1  0  0  0  0
 25 45  1  0  0  0  0
 26 27  1  0  0  0  0
 26 46  1  0  0  0  0
 26 47  1  0  0  0  0
 27 28  1  0  0  0  0
 27 48  1  0  0  0  0
 27 49  1  0  0  0  0
 28 17  1  0  0  0  0
 28 29  1  0  0  0  0
 28 50  1  1  0  0  0
 30 51  1  0  0  0  0
 30 52  1  0  0  0  0
M  END
>  <DRUGBANK_ID>
DB04460

>  <SECONDARY_ACCESSION_NUMBERS>
EXPT02811

>  <COMMON_NAME>
(C8-S)-Hydantocidin 5'-phosphate

$$$$
