
 OpenBabel10282417072D

 61 68  0  0  1  0  0  0  0  0999 V2000
    3.2355    0.4869    0.0000 C   0  0  0  0  0  0  0  0  0  0  0  0
    3.9030   -2.0497    0.0000 C   0  0  0  0  0  0  0  0  0  0  0  0
    2.5959   -0.2391    0.0000 C   0  0  0  0  0  0  0  0  0  0  0  0
    7.9685    2.6969    0.0000 C   0  0  0  0  0  0  0  0  0  0  0  0
    1.7283    2.6797    0.0000 C   0  0  0  0  0  0  0  0  0  0  0  0
    8.0433    1.8753    0.0000 C   0  0  0  0  0  0  0  0  0  0  0  0
    1.6744    1.8565    0.0000 C   0  0  0  0  0  0  0  0  0  0  0  0
    7.2196    3.0430    0.0000 C   0  0  0  0  0  0  0  0  0  0  0  0
    2.4682    3.0446    0.0000 C   0  0  0  0  0  0  0  0  0  0  0  0
    7.3692    1.3998    0.0000 C   0  0  0  0  0  0  0  0  0  0  0  0
    2.3603    1.3981    0.0000 C   0  0  0  0  0  0  0  0  0  0  0  0
    5.4575   -0.4503    0.0000 C   0  0  0  0  0  0  0  0  0  0  0  0
    4.1679    4.3035    0.0000 C   0  0  0  0  0  0  0  0  0  0  0  0
    6.5455    2.5674    0.0000 C   0  0  0  0  0  0  0  0  0  0  0  0
    3.1542    2.5863    0.0000 C   0  0  0  0  0  0  0  0  0  0  0  0
    4.4279    3.5206    0.0000 C   0  0  0  0  0  0  0  0  0  0  0  0
    4.7023   -0.8653    0.0000 C   0  0  2  0  0  0  0  0  0  0  0  0
    6.6203    1.7458    0.0000 C   0  0  0  0  0  0  0  0  0  0  0  0
    3.1002    1.7630    0.0000 C   0  0  0  0  0  0  0  0  0  0  0  0
    5.5537    0.4714    0.0000 C   0  0  2  0  0  0  0  0  0  0  0  0
    3.9801    2.8112    0.0000 C   0  0  0  0  0  0  0  0  0  0  0  0
    5.7175    2.7901    0.0000 C   0  0  0  0  0  0  0  0  0  0  0  0
    5.2529    3.5259    0.0000 C   0  0  0  0  0  0  0  0  0  0  0  0
    5.2782    2.0767    0.0000 C   0  0  0  0  0  0  0  0  0  0  0  0
    4.4333    2.1138    0.0000 C   0  0  0  0  0  0  0  0  0  0  0  0
    4.0202   -0.3547    0.0000 C   0  0  2  0  0  0  0  0  0  0  0  0
    5.5027    4.3121    0.0000 C   0  0  0  0  0  0  0  0  0  0  0  0
    4.0587    0.5409    0.0000 C   0  0  2  0  0  0  0  0  0  0  0  0
    4.6446   -1.6882    0.0000 N   0  0  0  0  0  0  0  0  0  0  0  0
    4.8322    4.7927    0.0000 N   0  0  0  0  0  0  0  0  0  0  0  0
    5.8024    1.3750    0.0000 N   0  0  0  0  0  0  0  0  0  0  0  0
    3.9010    1.4376    0.0000 N   0  0  0  0  0  0  0  0  0  0  0  0
    6.2857    4.5721    0.0000 O   0  0  0  0  0  0  0  0  0  0  0  0
    3.2747   -0.7080    0.0000 O   0  0  0  0  0  0  0  0  0  0  0  0
    4.8024    0.5575    0.0000 O   0  0  0  0  0  0  0  0  0  0  0  0
    5.3973   -1.3099    0.0000 H   0  0  0  0  0  0  0  0  0  0  0  0
    6.3644    0.3186    0.0000 H   0  0  0  0  0  0  0  0  0  0  0  0
    3.9378   -1.1755    0.0000 H   0  0  0  0  0  0  0  0  0  0  0  0
    2.6410    1.3765    0.0000 H   0  0  0  0  0  0  0  0  0  0  0  0
    2.7623   -0.4728    0.0000 H   0  0  0  0  0  0  0  0  0  0  0  0
    2.1678    0.4169    0.0000 H   0  0  0  0  0  0  0  0  0  0  0  0
    3.0161   -1.4512    0.0000 H   0  0  0  0  0  0  0  0  0  0  0  0
    3.8281   -3.1171    0.0000 H   0  0  0  0  0  0  0  0  0  0  0  0
    2.9412   -2.5185    0.0000 H   0  0  0  0  0  0  0  0  0  0  0  0
    2.6824    0.8274    0.0000 H   0  0  0  0  0  0  0  0  0  0  0  0
    1.6290   -0.6975    0.0000 H   0  0  0  0  0  0  0  0  0  0  0  0
    1.7155    0.3690    0.0000 H   0  0  0  0  0  0  0  0  0  0  0  0
    8.8118    3.2918    0.0000 H   0  0  0  0  0  0  0  0  0  0  0  0
    0.8702    3.2530    0.0000 H   0  0  0  0  0  0  0  0  0  0  0  0
    8.9801    1.4424    0.0000 H   0  0  0  0  0  0  0  0  0  0  0  0
    0.7488    1.4001    0.0000 H   0  0  0  0  0  0  0  0  0  0  0  0
    7.1261    4.0708    0.0000 H   0  0  0  0  0  0  0  0  0  0  0  0
    2.5356    4.0744    0.0000 H   0  0  0  0  0  0  0  0  0  0  0  0
    7.4627    0.3720    0.0000 H   0  0  0  0  0  0  0  0  0  0  0  0
    2.2928    0.3683    0.0000 H   0  0  0  0  0  0  0  0  0  0  0  0
    6.3489   -1.0422    0.0000 H   0  0  0  0  0  0  0  0  0  0  0  0
    6.4254    0.0058    0.0000 H   0  0  0  0  0  0  0  0  0  0  0  0
    3.1482    4.6276    0.0000 H   0  0  0  0  0  0  0  0  0  0  0  0
    3.9937    5.3592    0.0000 H   0  0  0  0  0  0  0  0  0  0  0  0
    5.4901   -2.2588    0.0000 H   0  0  0  0  0  0  0  0  0  0  0  0
    4.8259    5.7772    0.0000 H   0  0  0  0  0  0  0  0  0  0  0  0
  1 39  1  0  0  0  0
  1 40  1  0  0  0  0
  1 41  1  0  0  0  0
  2 42  1  0  0  0  0
  2 43  1  0  0  0  0
  2 44  1  0  0  0  0
  3 45  1  0  0  0  0
  3 46  1  0  0  0  0
  3 47  1  0  0  0  0
  4 48  1  0  0  0  0
  5 49  1  0  0  0  0
  6  4  2  0  0  0  0
  6 50  1  0  0  0  0
  7  5  2  0  0  0  0
  7 51  1  0  0  0  0
  8  4  1  0  0  0  0
  8 52  1  0  0  0  0
  9  5  1  0  0  0  0
  9 53  1  0  0  0  0
 10  6  1  0  0  0  0
 10 54  1  0  0  0  0
 11  7  1  0  0  0  0
 11 55  1  0  0  0  0
 12 56  1  0  0  0  0
 12 57  1  0  0  0  0
 13 58  1  0  0  0  0
 13 59  1  0  0  0  0
 14  8  2  0  0  0  0
 15  9  2  0  0  0  0
 16 13  1  0  0  0  0
 17 12  1  0  0  0  0
 17 29  1  0  0  0  0
 17 36  1  6  0  0  0
 18 10  2  0  0  0  0
 18 14  1  0  0  0  0
 19 11  2  0  0  0  0
 19 15  1  0  0  0  0
 20 12  1  0  0  0  0
 20 37  1  6  0  0  0
 21 15  1  0  0  0  0
 21 16  2  0  0  0  0
 22 14  1  0  0  0  0
 23 16  1  0  0  0  0
 23 22  2  0  0  0  0
 24 22  1  0  0  0  0
 25 21  1  0  0  0  0
 25 24  2  0  0  0  0
 26 17  1  0  0  0  0
 26 34  1  0  0  0  0
 26 38  1  6  0  0  0
 27 23  1  0  0  0  0
 28  1  1  6  0  0  0
 28 26  1  0  0  0  0
 29  2  1  0  0  0  0
 29 60  1  0  0  0  0
 30 13  1  0  0  0  0
 30 27  1  0  0  0  0
 30 61  1  0  0  0  0
 31 18  1  0  0  0  0
 31 20  1  0  0  0  0
 31 24  1  0  0  0  0
 32 19  1  0  0  0  0
 32 25  1  0  0  0  0
 32 28  1  0  0  0  0
 33 27  2  0  0  0  0
 34  3  1  0  0  0  0
 35 20  1  0  0  0  0
 35 28  1  0  0  0  0
M  END
>  <DRUGBANK_ID>
DB02010

>  <SECONDARY_ACCESSION_NUMBERS>
EXPT02970; EXPT02972

>  <COMMON_NAME>
Staurosporine

>  <CAS_NUMBER>
62996-74-1

>  <UNII>
H88EPA0A3N

$$$$
