FYX
 OpenBabel10282417072D

 27 29  0  0  0  0  0  0  0  0999 V2000
   -1.3813    1.8127    0.0000 C   0  0  0  0  0  0  0  0  0  0  0  0
   -1.3813    2.6377    0.0000 C   0  0  0  0  0  0  0  0  0  0  0  0
   -0.6668    3.0502    0.0000 N   0  0  0  0  0  0  0  0  0  0  0  0
    0.0477    2.6377    0.0000 C   0  0  0  0  0  0  0  0  0  0  0  0
    0.0477    1.8127    0.0000 C   0  0  0  0  0  0  0  0  0  0  0  0
   -0.6668    1.4002    0.0000 C   0  0  0  0  0  0  0  0  0  0  0  0
   -0.6668    0.5752    0.0000 C   0  0  0  0  0  0  0  0  0  0  0  0
    0.0006    0.0903    0.0000 N   0  0  0  0  0  0  0  0  0  0  0  0
   -1.3342    0.0903    0.0000 N   0  0  0  0  0  0  0  0  0  0  0  0
   -1.0793   -0.6943    0.0000 N   0  0  0  0  0  0  0  0  0  0  0  0
   -0.2543   -0.6943    0.0000 C   0  0  0  0  0  0  0  0  0  0  0  0
    0.2306   -1.3618    0.0000 C   0  0  0  0  0  0  0  0  0  0  0  0
    1.0511   -1.2755    0.0000 C   0  0  0  0  0  0  0  0  0  0  0  0
   -0.1049   -2.1154    0.0000 C   0  0  0  0  0  0  0  0  0  0  0  0
    0.3800   -2.7829    0.0000 C   0  0  0  0  0  0  0  0  0  0  0  0
    1.2005   -2.6967    0.0000 N   0  0  0  0  0  0  0  0  0  0  0  0
    1.5360   -1.9430    0.0000 C   0  0  0  0  0  0  0  0  0  0  0  0
    2.3565   -1.8567    0.0000 C   0  0  0  0  0  0  0  0  0  0  0  0
    3.1770   -1.7705    0.0000 N   0  0  0  0  0  0  0  0  0  0  0  0
   -2.2750    1.2967    0.0000 H   0  0  0  0  0  0  0  0  0  0  0  0
   -2.2750    3.1537    0.0000 H   0  0  0  0  0  0  0  0  0  0  0  0
    0.9414    3.1537    0.0000 H   0  0  0  0  0  0  0  0  0  0  0  0
    0.9414    1.2967    0.0000 H   0  0  0  0  0  0  0  0  0  0  0  0
   -2.2705    0.3945    0.0000 H   0  0  0  0  0  0  0  0  0  0  0  0
    1.4708   -0.3327    0.0000 H   0  0  0  0  0  0  0  0  0  0  0  0
   -1.1312   -2.2233    0.0000 H   0  0  0  0  0  0  0  0  0  0  0  0
   -0.0398   -3.7257    0.0000 H   0  0  0  0  0  0  0  0  0  0  0  0
  1  2  1  0  0  0  0
  1  6  2  0  0  0  0
  1 20  1  0  0  0  0
  2  3  2  0  0  0  0
  2 21  1  0  0  0  0
  3  4  1  0  0  0  0
  4  5  2  0  0  0  0
  4 22  1  0  0  0  0
  5  6  1  0  0  0  0
  5 23  1  0  0  0  0
  6  7  1  0  0  0  0
  7  8  2  0  0  0  0
  7  9  1  0  0  0  0
  8 11  1  0  0  0  0
  9 10  1  0  0  0  0
  9 24  1  0  0  0  0
 10 11  2  0  0  0  0
 11 12  1  0  0  0  0
 12 13  2  0  0  0  0
 12 14  1  0  0  0  0
 13 17  1  0  0  0  0
 13 25  1  0  0  0  0
 14 15  2  0  0  0  0
 14 26  1  0  0  0  0
 15 16  1  0  0  0  0
 15 27  1  0  0  0  0
 16 17  2  0  0  0  0
 17 18  1  0  0  0  0
 18 19  3  0  0  0  0
M  END
>  <DRUGBANK_ID>
DB01685

>  <SECONDARY_ACCESSION_NUMBERS>
EXPT01517

>  <COMMON_NAME>
Topiroxostat

>  <CAS_NUMBER>
577778-58-6

>  <UNII>
0J877412JV

>  <SYNONYMS>
4-(5-(pyridin-4-yl)-1H-1,2,4-triazol-3-yl)pyridine-2-carbonitrile; Topiroxostat

$$$$
