
 OpenBabel10282417072D

 34 34  0  0  1  0  0  0  0  0999 V2000
   18.5693   -4.0947    0.0000 P   0  0  0  0  0  0  0  0  0  0  0  0
   16.4258   -7.8072    0.0000 P   0  0  0  0  0  0  0  0  0  0  0  0
   17.8548   -4.5072    0.0000 O   0  0  0  0  0  0  0  0  0  0  0  0
   16.4258   -6.9821    0.0000 O   0  0  0  0  0  0  0  0  0  0  0  0
   16.4258   -5.3322    0.0000 O   0  0  0  0  0  0  0  0  0  0  0  0
   19.2838   -5.3322    0.0000 O   0  0  0  0  0  0  0  0  0  0  0  0
   17.8548   -7.8072    0.0000 O   0  0  0  0  0  0  0  0  0  0  0  0
   19.2838   -6.9821    0.0000 O   0  0  0  0  0  0  0  0  0  0  0  0
   19.2838   -3.6822    0.0000 O   0  0  0  0  0  0  0  0  0  0  0  0
   18.1568   -3.3802    0.0000 O   0  0  0  0  0  0  0  0  0  0  0  0
   15.6009   -7.8072    0.0000 O   0  0  0  0  0  0  0  0  0  0  0  0
   16.4258   -8.6322    0.0000 O   0  0  0  0  0  0  0  0  0  0  0  0
   18.9818   -4.8090    0.0000 O   0  0  0  0  0  0  0  0  0  0  0  0
   17.2508   -7.8072    0.0000 O   0  0  0  0  0  0  0  0  0  0  0  0
   17.8548   -5.3322    0.0000 C   0  0  1  0  0  0  0  0  0  0  0  0
   17.1404   -6.5697    0.0000 C   0  0  2  0  0  0  0  0  0  0  0  0
   17.1404   -5.7447    0.0000 C   0  0  2  0  0  0  0  0  0  0  0  0
   18.5693   -5.7447    0.0000 C   0  0  2  0  0  0  0  0  0  0  0  0
   17.8548   -6.9821    0.0000 C   0  0  1  0  0  0  0  0  0  0  0  0
   18.5693   -6.5697    0.0000 C   0  0  1  0  0  0  0  0  0  0  0  0
   16.4257   -4.3622    0.0000 H   0  0  0  0  0  0  0  0  0  0  0  0
   20.1238   -5.8172    0.0000 H   0  0  0  0  0  0  0  0  0  0  0  0
   17.0148   -8.2922    0.0000 H   0  0  0  0  0  0  0  0  0  0  0  0
   19.2839   -7.9521    0.0000 H   0  0  0  0  0  0  0  0  0  0  0  0
   20.1238   -4.1672    0.0000 H   0  0  0  0  0  0  0  0  0  0  0  0
   18.6418   -2.5402    0.0000 H   0  0  0  0  0  0  0  0  0  0  0  0
   15.1159   -6.9672    0.0000 H   0  0  0  0  0  0  0  0  0  0  0  0
   15.5858   -9.1172    0.0000 H   0  0  0  0  0  0  0  0  0  0  0  0
   16.9281   -4.7972    0.0000 H   0  0  0  0  0  0  0  0  0  0  0  0
   16.2138   -6.0346    0.0000 H   0  0  0  0  0  0  0  0  0  0  0  0
   17.1403   -4.6747    0.0000 H   0  0  0  0  0  0  0  0  0  0  0  0
   18.5693   -4.6747    0.0000 H   0  0  0  0  0  0  0  0  0  0  0  0
   16.9282   -7.5171    0.0000 H   0  0  0  0  0  0  0  0  0  0  0  0
   19.4959   -6.0346    0.0000 H   0  0  0  0  0  0  0  0  0  0  0  0
  1  3  1  0  0  0  0
  1  9  1  0  0  0  0
  1 10  1  0  0  0  0
  1 13  2  0  0  0  0
  2  4  1  0  0  0  0
  2 11  1  0  0  0  0
  2 12  1  0  0  0  0
  2 14  2  0  0  0  0
  5 21  1  0  0  0  0
  6 22  1  0  0  0  0
  7 23  1  0  0  0  0
  8 24  1  0  0  0  0
  9 25  1  0  0  0  0
 10 26  1  0  0  0  0
 11 27  1  0  0  0  0
 12 28  1  0  0  0  0
 15  3  1  0  0  0  0
 15 17  1  0  0  0  0
 15 18  1  0  0  0  0
 15 29  1  1  0  0  0
 16  4  1  0  0  0  0
 16 17  1  0  0  0  0
 16 19  1  0  0  0  0
 16 30  1  1  0  0  0
 17  5  1  0  0  0  0
 17 31  1  1  0  0  0
 18  6  1  0  0  0  0
 18 20  1  0  0  0  0
 18 32  1  6  0  0  0
 19  7  1  0  0  0  0
 19 20  1  0  0  0  0
 19 33  1  6  0  0  0
 20  8  1  0  0  0  0
 20 34  1  1  0  0  0
M  END
>  <DRUGBANK_ID>
DB02942

>  <SECONDARY_ACCESSION_NUMBERS>
EXPT01941

>  <COMMON_NAME>
Inositol 1,3-Bisphosphate

$$$$
