INV
 OpenBabel10282417072D

 34 35  0  0  0  0  0  0  0  0999 V2000
    0.6722   -0.6036    0.0000 C   0  0  0  0  0  0  0  0  0  0  0  0
    1.3867   -1.0161    0.0000 C   0  0  0  0  0  0  0  0  0  0  0  0
    1.3867   -1.8411    0.0000 C   0  0  0  0  0  0  0  0  0  0  0  0
    0.6722   -2.2536    0.0000 C   0  0  0  0  0  0  0  0  0  0  0  0
   -0.0422   -1.8411    0.0000 C   0  0  0  0  0  0  0  0  0  0  0  0
   -0.0422   -1.0161    0.0000 C   0  0  0  0  0  0  0  0  0  0  0  0
   -0.7567   -0.6036    0.0000 C   0  0  0  0  0  0  0  0  0  0  0  0
   -1.4712   -1.0161    0.0000 O   0  0  0  0  0  0  0  0  0  0  0  0
   -0.7567    0.2214    0.0000 N   0  0  0  0  0  0  0  0  0  0  0  0
   -1.4712    0.6339    0.0000 C   0  0  0  0  0  0  0  0  0  0  0  0
    2.1012   -2.2536    0.0000 S   0  0  0  0  0  0  0  0  0  0  0  0
    2.8157   -2.6661    0.0000 N   0  0  0  0  0  0  0  0  0  0  0  0
    2.5137   -1.5391    0.0000 O   0  0  0  0  0  0  0  0  0  0  0  0
    1.6887   -2.9680    0.0000 O   0  0  0  0  0  0  0  0  0  0  0  0
   -1.4712    1.4589    0.0000 C   0  0  0  0  0  0  0  0  0  0  0  0
   -2.1856    1.8714    0.0000 C   0  0  0  0  0  0  0  0  0  0  0  0
   -2.1856    2.6964    0.0000 C   0  0  0  0  0  0  0  0  0  0  0  0
   -1.4712    3.1089    0.0000 C   0  0  0  0  0  0  0  0  0  0  0  0
   -0.7567    2.6964    0.0000 C   0  0  0  0  0  0  0  0  0  0  0  0
   -0.7567    1.8714    0.0000 C   0  0  0  0  0  0  0  0  0  0  0  0
   -1.4712    3.9339    0.0000 F   0  0  0  0  0  0  0  0  0  0  0  0
    0.6722    0.4284    0.0000 H   0  0  0  0  0  0  0  0  0  0  0  0
    2.2804   -0.5001    0.0000 H   0  0  0  0  0  0  0  0  0  0  0  0
    0.6722   -3.2856    0.0000 H   0  0  0  0  0  0  0  0  0  0  0  0
   -0.9359   -2.3571    0.0000 H   0  0  0  0  0  0  0  0  0  0  0  0
    0.0959    0.7137    0.0000 H   0  0  0  0  0  0  0  0  0  0  0  0
   -2.3978    0.0989    0.0000 H   0  0  0  0  0  0  0  0  0  0  0  0
   -2.3978    1.1689    0.0000 H   0  0  0  0  0  0  0  0  0  0  0  0
    2.8157   -3.6861    0.0000 H   0  0  0  0  0  0  0  0  0  0  0  0
    3.6990   -2.1561    0.0000 H   0  0  0  0  0  0  0  0  0  0  0  0
   -3.0793    1.3554    0.0000 H   0  0  0  0  0  0  0  0  0  0  0  0
   -3.0793    3.2124    0.0000 H   0  0  0  0  0  0  0  0  0  0  0  0
    0.1370    3.2124    0.0000 H   0  0  0  0  0  0  0  0  0  0  0  0
    0.1370    1.3554    0.0000 H   0  0  0  0  0  0  0  0  0  0  0  0
  1  2  2  0  0  0  0
  1  6  1  0  0  0  0
  1 22  1  0  0  0  0
  2  3  1  0  0  0  0
  2 23  1  0  0  0  0
  3  4  2  0  0  0  0
  3 11  1  0  0  0  0
  4  5  1  0  0  0  0
  4 24  1  0  0  0  0
  5  6  2  0  0  0  0
  5 25  1  0  0  0  0
  6  7  1  0  0  0  0
  7  8  2  0  0  0  0
  7  9  1  0  0  0  0
  9 10  1  0  0  0  0
  9 26  1  0  0  0  0
 10 15  1  0  0  0  0
 10 27  1  0  0  0  0
 10 28  1  0  0  0  0
 11 12  1  0  0  0  0
 11 13  2  0  0  0  0
 11 14  2  0  0  0  0
 12 29  1  0  0  0  0
 12 30  1  0  0  0  0
 15 16  2  0  0  0  0
 15 20  1  0  0  0  0
 16 17  1  0  0  0  0
 16 31  1  0  0  0  0
 17 18  2  0  0  0  0
 17 32  1  0  0  0  0
 18 19  1  0  0  0  0
 18 21  1  0  0  0  0
 19 20  2  0  0  0  0
 19 33  1  0  0  0  0
 20 34  1  0  0  0  0
M  END
>  <DRUGBANK_ID>
DB02429

>  <SECONDARY_ACCESSION_NUMBERS>
EXPT01895

>  <COMMON_NAME>
4-(Aminosulfonyl)-N-[(4-Fluorophenyl)Methyl]-Benzamide

$$$$
