DID
 OpenBabel10282417072D

 52 53  0  0  0  0  0  0  0  0999 V2000
   -4.6558    1.0312    0.0000 C   0  0  0  0  0  0  0  0  0  0  0  0
   -3.9413    1.4437    0.0000 C   0  0  0  0  0  0  0  0  0  0  0  0
   -3.2268    1.0312    0.0000 C   0  0  0  0  0  0  0  0  0  0  0  0
   -3.2268    0.2062    0.0000 C   0  0  0  0  0  0  0  0  0  0  0  0
   -3.9413   -0.2063    0.0000 C   0  0  0  0  0  0  0  0  0  0  0  0
   -4.6558    0.2062    0.0000 C   0  0  0  0  0  0  0  0  0  0  0  0
   -5.3702    1.4437    0.0000 C   0  0  0  0  0  0  0  0  0  0  0  0
   -6.0847    1.0312    0.0000 N   0  0  0  0  0  0  0  0  0  0  0  0
   -5.3702    2.2687    0.0000 N   0  0  0  0  0  0  0  0  0  0  0  0
   -2.5124   -0.2063    0.0000 O   0  0  0  0  0  0  0  0  0  0  0  0
   -1.7979    0.2062    0.0000 C   0  0  0  0  0  0  0  0  0  0  0  0
   -1.0834   -0.2063    0.0000 C   0  0  0  0  0  0  0  0  0  0  0  0
   -0.3689    0.2062    0.0000 C   0  0  0  0  0  0  0  0  0  0  0  0
    0.3455   -0.2063    0.0000 C   0  0  0  0  0  0  0  0  0  0  0  0
    1.0600    0.2062    0.0000 C   0  0  0  0  0  0  0  0  0  0  0  0
    1.7745   -0.2063    0.0000 C   0  0  0  0  0  0  0  0  0  0  0  0
    2.4889    0.2062    0.0000 O   0  0  0  0  0  0  0  0  0  0  0  0
    3.2034   -0.2063    0.0000 C   0  0  0  0  0  0  0  0  0  0  0  0
    3.9179    0.2062    0.0000 C   0  0  0  0  0  0  0  0  0  0  0  0
    4.6324   -0.2063    0.0000 C   0  0  0  0  0  0  0  0  0  0  0  0
    4.6324   -1.0313    0.0000 C   0  0  0  0  0  0  0  0  0  0  0  0
    3.9179   -1.4438    0.0000 C   0  0  0  0  0  0  0  0  0  0  0  0
    3.2034   -1.0313    0.0000 C   0  0  0  0  0  0  0  0  0  0  0  0
    5.3468   -1.4438    0.0000 C   0  0  0  0  0  0  0  0  0  0  0  0
    6.0613   -1.0313    0.0000 N   0  0  0  0  0  0  0  0  0  0  0  0
    5.3468   -2.2688    0.0000 N   0  0  0  0  0  0  0  0  0  0  0  0
   -3.9413    2.4757    0.0000 H   0  0  0  0  0  0  0  0  0  0  0  0
   -2.3331    1.5472    0.0000 H   0  0  0  0  0  0  0  0  0  0  0  0
   -3.9413   -1.2383    0.0000 H   0  0  0  0  0  0  0  0  0  0  0  0
   -5.5495   -0.3098    0.0000 H   0  0  0  0  0  0  0  0  0  0  0  0
   -6.9373    1.5235    0.0000 H   0  0  0  0  0  0  0  0  0  0  0  0
   -6.0847    0.0467    0.0000 H   0  0  0  0  0  0  0  0  0  0  0  0
   -4.5176    2.7610    0.0000 H   0  0  0  0  0  0  0  0  0  0  0  0
   -1.7979    1.2762    0.0000 H   0  0  0  0  0  0  0  0  0  0  0  0
   -0.8713    0.7412    0.0000 H   0  0  0  0  0  0  0  0  0  0  0  0
   -1.0834   -1.2763    0.0000 H   0  0  0  0  0  0  0  0  0  0  0  0
   -0.1568   -0.7413    0.0000 H   0  0  0  0  0  0  0  0  0  0  0  0
   -0.3689    1.2762    0.0000 H   0  0  0  0  0  0  0  0  0  0  0  0
    0.5578    0.7412    0.0000 H   0  0  0  0  0  0  0  0  0  0  0  0
    0.3455   -1.2763    0.0000 H   0  0  0  0  0  0  0  0  0  0  0  0
    1.2721   -0.7413    0.0000 H   0  0  0  0  0  0  0  0  0  0  0  0
    1.0600    1.2762    0.0000 H   0  0  0  0  0  0  0  0  0  0  0  0
    1.9866    0.7412    0.0000 H   0  0  0  0  0  0  0  0  0  0  0  0
    1.7745   -1.2763    0.0000 H   0  0  0  0  0  0  0  0  0  0  0  0
    2.7012   -0.7413    0.0000 H   0  0  0  0  0  0  0  0  0  0  0  0
    3.9179    1.2382    0.0000 H   0  0  0  0  0  0  0  0  0  0  0  0
    5.5261    0.3097    0.0000 H   0  0  0  0  0  0  0  0  0  0  0  0
    3.9179   -2.4758    0.0000 H   0  0  0  0  0  0  0  0  0  0  0  0
    2.3097   -1.5473    0.0000 H   0  0  0  0  0  0  0  0  0  0  0  0
    6.9139   -1.5236    0.0000 H   0  0  0  0  0  0  0  0  0  0  0  0
    6.0613   -0.0468    0.0000 H   0  0  0  0  0  0  0  0  0  0  0  0
    4.4942   -2.7611    0.0000 H   0  0  0  0  0  0  0  0  0  0  0  0
  1  2  2  0  0  0  0
  1  6  1  0  0  0  0
  1  7  1  0  0  0  0
  2  3  1  0  0  0  0
  2 27  1  0  0  0  0
  3  4  2  0  0  0  0
  3 28  1  0  0  0  0
  4  5  1  0  0  0  0
  4 10  1  0  0  0  0
  5  6  2  0  0  0  0
  5 29  1  0  0  0  0
  6 30  1  0  0  0  0
  7  8  1  0  0  0  0
  7  9  2  0  0  0  0
  8 31  1  0  0  0  0
  8 32  1  0  0  0  0
  9 33  1  0  0  0  0
 10 11  1  0  0  0  0
 11 12  1  0  0  0  0
 11 34  1  0  0  0  0
 11 35  1  0  0  0  0
 12 13  1  0  0  0  0
 12 36  1  0  0  0  0
 12 37  1  0  0  0  0
 13 14  1  0  0  0  0
 13 38  1  0  0  0  0
 13 39  1  0  0  0  0
 14 15  1  0  0  0  0
 14 40  1  0  0  0  0
 14 41  1  0  0  0  0
 15 16  1  0  0  0  0
 15 42  1  0  0  0  0
 15 43  1  0  0  0  0
 16 17  1  0  0  0  0
 16 44  1  0  0  0  0
 16 45  1  0  0  0  0
 17 18  1  0  0  0  0
 18 19  2  0  0  0  0
 18 23  1  0  0  0  0
 19 20  1  0  0  0  0
 19 46  1  0  0  0  0
 20 21  2  0  0  0  0
 20 47  1  0  0  0  0
 21 22  1  0  0  0  0
 21 24  1  0  0  0  0
 22 23  2  0  0  0  0
 22 48  1  0  0  0  0
 23 49  1  0  0  0  0
 24 25  1  0  0  0  0
 24 26  2  0  0  0  0
 25 50  1  0  0  0  0
 25 51  1  0  0  0  0
 26 52  1  0  0  0  0
M  END
>  <DRUGBANK_ID>
DB03808

>  <SECONDARY_ACCESSION_NUMBERS>
EXPT01203

>  <COMMON_NAME>
Hexamidine

>  <CAS_NUMBER>
3811-75-4

>  <UNII>
3483C2H13H

>  <SYNONYMS>
hexamidina; Hexamidine

$$$$
