
 OpenBabel10282417072D

 33 34  0  0  1  0  0  0  0  0999 V2000
    5.9370   -0.8250    0.0000 O   0  0  0  0  0  0  0  0  0  0  0  0
    5.9370    1.6500    0.0000 O   0  0  0  0  0  0  0  0  0  0  0  0
    7.3659   -0.8250    0.0000 O   0  0  0  0  0  0  0  0  0  0  0  0
    5.2224   -0.4125    0.0000 C   0  0  3  0  0  0  0  0  0  0  0  0
    5.2224    0.4125    0.0000 C   0  0  0  0  0  0  0  0  0  0  0  0
    4.5080   -0.8250    0.0000 C   0  0  0  0  0  0  0  0  0  0  0  0
    1.6500   -0.8250    0.0000 C   0  0  0  0  0  0  0  0  0  0  0  0
    5.9370    0.8250    0.0000 C   0  0  0  0  0  0  0  0  0  0  0  0
    3.0791   -0.8250    0.0000 C   0  0  0  0  0  0  0  0  0  0  0  0
    1.6500   -1.6500    0.0000 C   0  0  0  0  0  0  0  0  0  0  0  0
    3.7935   -0.4125    0.0000 C   0  0  0  0  0  0  0  0  0  0  0  0
    2.3645   -0.4125    0.0000 C   0  0  0  0  0  0  0  0  0  0  0  0
    3.0791   -1.6500    0.0000 C   0  0  0  0  0  0  0  0  0  0  0  0
    2.3645   -2.0625    0.0000 C   0  0  0  0  0  0  0  0  0  0  0  0
    6.6515    0.4125    0.0000 C   0  0  0  0  0  0  0  0  0  0  0  0
    6.6515   -0.4125    0.0000 C   0  0  0  0  0  0  0  0  0  0  0  0
    6.6515    2.0625    0.0000 C   0  0  0  0  0  0  0  0  0  0  0  0
    6.1490    0.1225    0.0000 H   0  0  0  0  0  0  0  0  0  0  0  0
    4.2958    0.9475    0.0000 H   0  0  0  0  0  0  0  0  0  0  0  0
    5.2225    1.4825    0.0000 H   0  0  0  0  0  0  0  0  0  0  0  0
    4.5080   -1.8570    0.0000 H   0  0  0  0  0  0  0  0  0  0  0  0
    0.7234   -0.2900    0.0000 H   0  0  0  0  0  0  0  0  0  0  0  0
    1.6500    0.2450    0.0000 H   0  0  0  0  0  0  0  0  0  0  0  0
    0.7234   -2.1850    0.0000 H   0  0  0  0  0  0  0  0  0  0  0  0
    1.6500   -2.7200    0.0000 H   0  0  0  0  0  0  0  0  0  0  0  0
    3.7935    0.6195    0.0000 H   0  0  0  0  0  0  0  0  0  0  0  0
    2.3645    0.6195    0.0000 H   0  0  0  0  0  0  0  0  0  0  0  0
    3.9728   -2.1660    0.0000 H   0  0  0  0  0  0  0  0  0  0  0  0
    2.3645   -3.0945    0.0000 H   0  0  0  0  0  0  0  0  0  0  0  0
    7.5452    0.9285    0.0000 H   0  0  0  0  0  0  0  0  0  0  0  0
    7.5781    1.5275    0.0000 H   0  0  0  0  0  0  0  0  0  0  0  0
    6.6515    3.1325    0.0000 H   0  0  0  0  0  0  0  0  0  0  0  0
    7.5782    2.5975    0.0000 H   0  0  0  0  0  0  0  0  0  0  0  0
  1  4  1  0  0  0  0
  1 16  1  0  0  0  0
  2  8  1  0  0  0  0
  2 17  1  0  0  0  0
  3 16  2  0  0  0  0
  4  5  1  0  0  0  0
  4  6  1  0  0  0  0
  4 18  1  0  0  0  0
  5  8  1  0  0  0  0
  5 19  1  0  0  0  0
  5 20  1  0  0  0  0
  6 11  2  0  0  0  0
  6 21  1  0  0  0  0
  7 10  1  0  0  0  0
  7 12  1  0  0  0  0
  7 22  1  0  0  0  0
  7 23  1  0  0  0  0
  8 15  2  0  0  0  0
  9 11  1  0  0  0  0
  9 12  2  0  0  0  0
  9 13  1  0  0  0  0
 10 14  1  0  0  0  0
 10 24  1  0  0  0  0
 10 25  1  0  0  0  0
 11 26  1  0  0  0  0
 12 27  1  0  0  0  0
 13 14  2  0  0  0  0
 13 28  1  0  0  0  0
 14 29  1  0  0  0  0
 15 16  1  0  0  0  0
 15 30  1  0  0  0  0
 17 31  1  0  0  0  0
 17 32  1  0  0  0  0
 17 33  1  0  0  0  0
M  END
>  <DRUGBANK_ID>
DB01322

>  <COMMON_NAME>
Kava

>  <CAS_NUMBER>
9000-38-8

>  <UNII>
BOW48C81XP

$$$$
