1CD
 OpenBabel10282417072D

 51 56  0  0  0  0  0  0  0  0999 V2000
    5.7035    3.1305    0.0000 C   0  0  0  0  0  0  0  0  0  0  0  0
    4.2980    2.6993    0.0000 N   0  0  3  0  0  0  0  0  0  0  0  0
    3.9114    1.9705    0.0000 C   0  0  0  0  0  0  0  0  0  0  0  0
    4.4851    1.3776    0.0000 C   0  0  2  0  0  0  0  0  0  0  0  0
    5.2262    1.7399    0.0000 C   0  0  0  0  0  0  0  0  0  0  0  0
    5.1106    2.5568    0.0000 C   0  0  1  0  0  0  0  0  0  0  0  0
    2.5939   -0.0836    0.0000 C   0  0  0  0  0  0  0  0  0  0  0  0
    3.4187   -0.0628    0.0000 C   0  0  0  0  0  0  0  0  0  0  0  0
    2.1996   -0.8083    0.0000 C   0  0  0  0  0  0  0  0  0  0  0  0
    2.1635    0.6202    0.0000 N   0  0  0  0  0  0  0  0  0  0  0  0
    3.8491   -0.7666    0.0000 C   0  0  0  0  0  0  0  0  0  0  0  0
    4.1045    0.3958    0.0000 O   0  0  0  0  0  0  0  0  0  0  0  0
    2.6300   -1.5121    0.0000 C   0  0  0  0  0  0  0  0  0  0  0  0
    1.3749   -0.8291    0.0000 N   0  0  0  0  0  0  0  0  0  0  0  0
    1.3388    0.5994    0.0000 C   0  0  0  0  0  0  0  0  0  0  0  0
    3.4548   -1.4913    0.0000 C   0  0  0  0  0  0  0  0  0  0  0  0
    0.9445   -0.1253    0.0000 C   0  0  0  0  0  0  0  0  0  0  0  0
    0.9215    1.4091    0.0000 C   0  0  0  0  0  0  0  0  0  0  0  0
    0.1197   -0.1461    0.0000 O   0  0  0  0  0  0  0  0  0  0  0  0
    1.2452    2.1680    0.0000 C   0  0  0  0  0  0  0  0  0  0  0  0
    0.1025    1.3099    0.0000 C   0  0  0  0  0  0  0  0  0  0  0  0
    0.7498    2.8277    0.0000 C   0  0  0  0  0  0  0  0  0  0  0  0
    2.0257    2.4353    0.0000 N   0  0  0  0  0  0  0  0  0  0  0  0
   -0.3929    1.9696    0.0000 C   0  0  0  0  0  0  0  0  0  0  0  0
    1.2241    3.5027    0.0000 C   0  0  0  0  0  0  0  0  0  0  0  0
   -0.0693    2.7285    0.0000 C   0  0  0  0  0  0  0  0  0  0  0  0
    2.0126    3.2602    0.0000 N   0  0  0  0  0  0  0  0  0  0  0  0
    2.9122    3.5161    0.0000 C   0  0  0  0  0  0  0  0  0  0  0  0
    0.9568    4.2832    0.0000 O   0  0  0  0  0  0  0  0  0  0  0  0
    3.6983    3.2658    0.0000 C   0  0  0  0  0  0  0  0  0  0  0  0
    4.9151    0.9826    0.0000 H   0  0  0  0  0  0  0  0  0  0  0  0
    4.9394    3.1150    0.0000 H   0  0  0  0  0  0  0  0  0  0  0  0
    6.7323    2.8366    0.0000 H   0  0  0  0  0  0  0  0  0  0  0  0
    5.4436    4.1685    0.0000 H   0  0  0  0  0  0  0  0  0  0  0  0
    6.4725    3.8746    0.0000 H   0  0  0  0  0  0  0  0  0  0  0  0
    2.8520    1.8205    0.0000 H   0  0  0  0  0  0  0  0  0  0  0  0
    3.5640    0.9585    0.0000 H   0  0  0  0  0  0  0  0  0  0  0  0
    6.1714    1.2384    0.0000 H   0  0  0  0  0  0  0  0  0  0  0  0
    6.1021    2.3545    0.0000 H   0  0  0  0  0  0  0  0  0  0  0  0
    4.8808   -0.7405    0.0000 H   0  0  0  0  0  0  0  0  0  0  0  0
    2.1367   -2.4186    0.0000 H   0  0  0  0  0  0  0  0  0  0  0  0
    0.9043   -1.6939    0.0000 H   0  0  0  0  0  0  0  0  0  0  0  0
    3.9932   -2.3717    0.0000 H   0  0  0  0  0  0  0  0  0  0  0  0
   -0.3023    0.3606    0.0000 H   0  0  0  0  0  0  0  0  0  0  0  0
    2.8312    1.8693    0.0000 H   0  0  0  0  0  0  0  0  0  0  0  0
   -1.4174    1.8455    0.0000 H   0  0  0  0  0  0  0  0  0  0  0  0
   -0.6890    3.5537    0.0000 H   0  0  0  0  0  0  0  0  0  0  0  0
    2.9288    4.5860    0.0000 H   0  0  0  0  0  0  0  0  0  0  0  0
    3.7809    4.1408    0.0000 H   0  0  0  0  0  0  0  0  0  0  0  0
    4.2416    4.1876    0.0000 H   0  0  0  0  0  0  0  0  0  0  0  0
    3.3164    4.2653    0.0000 H   0  0  0  0  0  0  0  0  0  0  0  0
  1 33  1  0  0  0  0
  1 34  1  0  0  0  0
  1 35  1  0  0  0  0
  2  3  1  0  0  0  0
  2  6  1  0  0  0  0
  2 30  1  0  0  0  0
  3  4  1  0  0  0  0
  3 36  1  0  0  0  0
  3 37  1  0  0  0  0
  4  5  1  0  0  0  0
  4 12  1  0  0  0  0
  4 31  1  1  0  0  0
  5  6  1  0  0  0  0
  5 38  1  0  0  0  0
  5 39  1  0  0  0  0
  6  1  1  0  0  0  0
  6 32  1  1  0  0  0
  7  8  1  0  0  0  0
  7  9  2  0  0  0  0
  7 10  1  0  0  0  0
  8 11  2  0  0  0  0
  8 12  1  0  0  0  0
  9 13  1  0  0  0  0
  9 14  1  0  0  0  0
 10 15  2  0  0  0  0
 11 16  1  0  0  0  0
 11 40  1  0  0  0  0
 13 16  2  0  0  0  0
 13 41  1  0  0  0  0
 14 17  1  0  0  0  0
 14 42  1  0  0  0  0
 15 17  1  0  0  0  0
 15 18  1  0  0  0  0
 16 43  1  0  0  0  0
 17 19  2  0  0  0  0
 18 20  2  0  0  0  0
 18 21  1  0  0  0  0
 20 22  1  0  0  0  0
 20 23  1  0  0  0  0
 21 24  2  0  0  0  0
 21 44  1  0  0  0  0
 22 25  1  0  0  0  0
 22 26  2  0  0  0  0
 23 27  1  0  0  0  0
 23 45  1  0  0  0  0
 24 26  1  0  0  0  0
 24 46  1  0  0  0  0
 25 27  1  0  0  0  0
 25 29  2  0  0  0  0
 26 47  1  0  0  0  0
 27 28  1  0  0  0  0
 28 30  1  0  0  0  0
 28 48  1  0  0  0  0
 28 49  1  0  0  0  0
 30 50  1  0  0  0  0
 30 51  1  0  0  0  0
M  END
>  <DRUGBANK_ID>
DB06888

>  <COMMON_NAME>
(13R,15S)-13-METHYL-16-OXA-8,9,12,22,24-PENTAAZAHEXACYCLO[15.6.2.16,9.1,12,15.0,2,7.0,21,25]HEPTACOSA-1(24),2,4,6,17(25),18,20-HEPTAENE-23,26-DIONE

$$$$
