F21
 OpenBabel10282417072D

 40 42  0  0  0  0  0  0  0  0999 V2000
   -2.7005    0.3101    0.0000 C   0  0  0  0  0  0  0  0  0  0  0  0
   -3.4150    0.7226    0.0000 C   0  0  0  0  0  0  0  0  0  0  0  0
   -3.4150    1.5476    0.0000 S   0  0  0  0  0  0  0  0  0  0  0  0
   -2.7005    1.9601    0.0000 C   0  0  0  0  0  0  0  0  0  0  0  0
   -1.9860    1.5476    0.0000 C   0  0  0  0  0  0  0  0  0  0  0  0
   -1.9860    0.7226    0.0000 N   0  0  0  0  0  0  0  0  0  0  0  0
   -1.2716    0.3101    0.0000 S   0  0  0  0  0  0  0  0  0  0  0  0
   -1.6841   -0.4043    0.0000 O   0  0  0  0  0  0  0  0  0  0  0  0
   -0.8591    1.0246    0.0000 O   0  0  0  0  0  0  0  0  0  0  0  0
   -0.5571   -0.1024    0.0000 C   0  0  0  0  0  0  0  0  0  0  0  0
    0.1574    0.3101    0.0000 C   0  0  0  0  0  0  0  0  0  0  0  0
    0.8719   -0.1024    0.0000 C   0  0  0  0  0  0  0  0  0  0  0  0
    1.5863    0.3101    0.0000 C   0  0  0  0  0  0  0  0  0  0  0  0
    2.3008   -0.1024    0.0000 N   0  0  0  0  0  0  0  0  0  0  0  0
    2.3008   -0.9274    0.0000 C   0  0  1  0  0  0  0  0  0  0  0  0
    3.0153   -1.3399    0.0000 C   0  0  0  0  0  0  0  0  0  0  0  0
    3.7297   -0.9274    0.0000 F   0  0  0  0  0  0  0  0  0  0  0  0
    1.5863   -1.3399    0.0000 C   0  0  0  0  0  0  0  0  0  0  0  0
    0.8719   -0.9274    0.0000 C   0  0  0  0  0  0  0  0  0  0  0  0
    0.1574   -1.3399    0.0000 C   0  0  0  0  0  0  0  0  0  0  0  0
   -0.5571   -0.9274    0.0000 C   0  0  0  0  0  0  0  0  0  0  0  0
    2.8065   -0.6354    0.0000 H   0  0  0  0  0  0  0  0  0  0  0  0
   -2.7005   -0.7599    0.0000 H   0  0  0  0  0  0  0  0  0  0  0  0
   -1.7739   -0.2249    0.0000 H   0  0  0  0  0  0  0  0  0  0  0  0
   -4.3416    0.1876    0.0000 H   0  0  0  0  0  0  0  0  0  0  0  0
   -4.3416    1.2576    0.0000 H   0  0  0  0  0  0  0  0  0  0  0  0
   -2.7005    3.0301    0.0000 H   0  0  0  0  0  0  0  0  0  0  0  0
   -1.7739    2.4951    0.0000 H   0  0  0  0  0  0  0  0  0  0  0  0
   -1.0594    2.0826    0.0000 H   0  0  0  0  0  0  0  0  0  0  0  0
   -1.0594    1.0126    0.0000 H   0  0  0  0  0  0  0  0  0  0  0  0
    0.1574    1.3421    0.0000 H   0  0  0  0  0  0  0  0  0  0  0  0
    1.5863    1.3801    0.0000 H   0  0  0  0  0  0  0  0  0  0  0  0
    2.5129    0.8451    0.0000 H   0  0  0  0  0  0  0  0  0  0  0  0
    3.1841    0.4076    0.0000 H   0  0  0  0  0  0  0  0  0  0  0  0
    3.0153   -2.4099    0.0000 H   0  0  0  0  0  0  0  0  0  0  0  0
    3.9420   -1.8749    0.0000 H   0  0  0  0  0  0  0  0  0  0  0  0
    1.5863   -2.4099    0.0000 H   0  0  0  0  0  0  0  0  0  0  0  0
    0.6596   -1.8749    0.0000 H   0  0  0  0  0  0  0  0  0  0  0  0
    0.1574   -2.3719    0.0000 H   0  0  0  0  0  0  0  0  0  0  0  0
   -1.4508   -1.4434    0.0000 H   0  0  0  0  0  0  0  0  0  0  0  0
  1  2  1  0  0  0  0
  1  6  1  0  0  0  0
  1 23  1  0  0  0  0
  1 24  1  0  0  0  0
  2  3  1  0  0  0  0
  2 25  1  0  0  0  0
  2 26  1  0  0  0  0
  3  4  1  0  0  0  0
  4  5  1  0  0  0  0
  4 27  1  0  0  0  0
  4 28  1  0  0  0  0
  5  6  1  0  0  0  0
  5 29  1  0  0  0  0
  5 30  1  0  0  0  0
  6  7  1  0  0  0  0
  7  8  2  0  0  0  0
  7  9  2  0  0  0  0
  7 10  1  0  0  0  0
 10 11  1  0  0  0  0
 10 21  2  0  0  0  0
 11 12  2  0  0  0  0
 11 31  1  0  0  0  0
 12 13  1  0  0  0  0
 12 19  1  0  0  0  0
 13 14  1  0  0  0  0
 13 32  1  0  0  0  0
 13 33  1  0  0  0  0
 14 15  1  0  0  0  0
 14 34  1  0  0  0  0
 15 16  1  0  0  0  0
 15 18  1  0  0  0  0
 15 22  1  6  0  0  0
 16 17  1  0  0  0  0
 16 35  1  0  0  0  0
 16 36  1  0  0  0  0
 18 19  1  0  0  0  0
 18 37  1  0  0  0  0
 18 38  1  0  0  0  0
 19 20  2  0  0  0  0
 20 21  1  0  0  0  0
 20 39  1  0  0  0  0
 21 40  1  0  0  0  0
M  END
>  <DRUGBANK_ID>
DB07739

>  <COMMON_NAME>
(3R)-3-(FLUOROMETHYL)-7-(THIOMORPHOLIN-4-YLSULFONYL)-1,2,3,4-TETRAHYDROISOQUINOLINE

$$$$
