
 OpenBabel10282417072D

 28 28  0  0  0  0  0  0  0  0999 V2000
   -2.5028    0.4113    0.0000 O   0  0  0  0  0  0  0  0  0  0  0  0
   -2.5053    1.2381    0.0000 C   0  0  0  0  0  0  0  0  0  0  0  0
   -0.3527   -0.0019    0.0000 C   0  0  0  0  0  0  0  0  0  0  0  0
   -1.0626    0.4113    0.0000 C   0  0  0  0  0  0  0  0  0  0  0  0
   -0.3527   -0.8194    0.0000 C   0  0  0  0  0  0  0  0  0  0  0  0
    0.3625    0.4092    0.0000 C   0  0  0  0  0  0  0  0  0  0  0  0
   -1.7817   -0.0019    0.0000 C   0  0  0  0  0  0  0  0  0  0  0  0
   -1.0626   -1.2382    0.0000 C   0  0  0  0  0  0  0  0  0  0  0  0
    1.0763   -0.0045    0.0000 C   0  0  0  0  0  0  0  0  0  0  0  0
   -1.7817   -0.8194    0.0000 C   0  0  0  0  0  0  0  0  0  0  0  0
    1.7915    0.4065    0.0000 C   0  0  0  0  0  0  0  0  0  0  0  0
   -2.5028   -1.2382    0.0000 O   0  0  0  0  0  0  0  0  0  0  0  0
    1.7930    1.2317    0.0000 O   0  0  0  0  0  0  0  0  0  0  0  0
    2.5053   -0.0072    0.0000 C   0  0  0  0  0  0  0  0  0  0  0  0
   -1.5803    1.7759    0.0000 H   0  0  0  0  0  0  0  0  0  0  0  0
   -3.4336    1.7703    0.0000 H   0  0  0  0  0  0  0  0  0  0  0  0
   -2.5085    2.3081    0.0000 H   0  0  0  0  0  0  0  0  0  0  0  0
   -1.0597    1.4433    0.0000 H   0  0  0  0  0  0  0  0  0  0  0  0
    0.5435   -1.3312    0.0000 H   0  0  0  0  0  0  0  0  0  0  0  0
    0.3644    1.4792    0.0000 H   0  0  0  0  0  0  0  0  0  0  0  0
    1.2901    0.9426    0.0000 H   0  0  0  0  0  0  0  0  0  0  0  0
   -1.0597   -2.2702    0.0000 H   0  0  0  0  0  0  0  0  0  0  0  0
    1.0743   -1.0745    0.0000 H   0  0  0  0  0  0  0  0  0  0  0  0
    2.0019   -0.5413    0.0000 H   0  0  0  0  0  0  0  0  0  0  0  0
   -3.3155   -0.7718    0.0000 H   0  0  0  0  0  0  0  0  0  0  0  0
    2.5035   -1.0772    0.0000 H   0  0  0  0  0  0  0  0  0  0  0  0
    3.4328    0.5263    0.0000 H   0  0  0  0  0  0  0  0  0  0  0  0
    3.4311   -0.5437    0.0000 H   0  0  0  0  0  0  0  0  0  0  0  0
  1  2  1  0  0  0  0
  2 15  1  0  0  0  0
  2 16  1  0  0  0  0
  2 17  1  0  0  0  0
  3  6  1  0  0  0  0
  3  4  1  0  0  0  0
  3  5  2  0  0  0  0
  4  7  2  0  0  0  0
  4 18  1  0  0  0  0
  5  8  1  0  0  0  0
  5 19  1  0  0  0  0
  6  9  1  0  0  0  0
  6 20  1  0  0  0  0
  6 21  1  0  0  0  0
  7 10  1  0  0  0  0
  7  1  1  0  0  0  0
  8 10  2  0  0  0  0
  8 22  1  0  0  0  0
  9 11  1  0  0  0  0
  9 23  1  0  0  0  0
  9 24  1  0  0  0  0
 10 12  1  0  0  0  0
 11 13  2  0  0  0  0
 11 14  1  0  0  0  0
 12 25  1  0  0  0  0
 14 26  1  0  0  0  0
 14 27  1  0  0  0  0
 14 28  1  0  0  0  0
M  END
>  <DRUGBANK_ID>
DB15589

>  <COMMON_NAME>
Zingerone

>  <CAS_NUMBER>
122-48-5

>  <UNII>
4MMW850892

>  <SYNONYMS>
Gingerone; Vanillyl acetone; Vanillylacetone; Zingerone; Zingherone; Zingiberone

$$$$
