CHD
 OpenBabel10282417072D

 69 72  0  0  0  0  0  0  0  0999 V2000
    2.3153   -0.2050    0.0000 C   0  0  0  0  0  0  0  0  0  0  0  0
    3.1274   -0.0597    0.0000 C   0  0  0  0  0  0  0  0  0  0  0  0
    3.4077    0.7162    0.0000 C   0  0  1  0  0  0  0  0  0  0  0  0
    4.2198    0.8614    0.0000 O   0  0  0  0  0  0  0  0  0  0  0  0
    2.8759    1.3469    0.0000 C   0  0  0  0  0  0  0  0  0  0  0  0
    2.0637    1.2017    0.0000 C   0  0  1  0  0  0  0  0  0  0  0  0
    1.5319    1.8324    0.0000 C   0  0  0  0  0  0  0  0  0  0  0  0
    0.7198    1.6872    0.0000 C   0  0  1  0  0  0  0  0  0  0  0  0
    0.1880    2.3179    0.0000 O   0  0  0  0  0  0  0  0  0  0  0  0
    0.4395    0.9112    0.0000 C   0  0  2  0  0  0  0  0  0  0  0  0
    0.9713    0.2805    0.0000 C   0  0  1  0  0  0  0  0  0  0  0  0
    1.7834    0.4257    0.0000 C   0  0  1  0  0  0  0  0  0  0  0  0
    0.6910   -0.4954    0.0000 C   0  0  0  0  0  0  0  0  0  0  0  0
   -0.1211   -0.6406    0.0000 C   0  0  2  0  0  0  0  0  0  0  0  0
   -0.4014   -1.4165    0.0000 O   0  0  0  0  0  0  0  0  0  0  0  0
   -0.6529   -0.0099    0.0000 C   0  0  1  0  0  0  0  0  0  0  0  0
   -0.3726    0.7660    0.0000 C   0  0  1  0  0  0  0  0  0  0  0  0
   -1.0239    1.2724    0.0000 C   0  0  0  0  0  0  0  0  0  0  0  0
   -1.7068    0.8094    0.0000 C   0  0  0  0  0  0  0  0  0  0  0  0
   -1.4775    0.0169    0.0000 C   0  0  2  0  0  0  0  0  0  0  0  0
   -1.0128   -0.7523    0.0000 C   0  0  0  0  0  0  0  0  0  0  0  0
    1.5031   -0.3502    0.0000 C   0  0  0  0  0  0  0  0  0  0  0  0
   -1.9838   -0.6344    0.0000 C   0  0  2  0  0  0  0  0  0  0  0  0
   -1.6729   -1.3986    0.0000 C   0  0  0  0  0  0  0  0  0  0  0  0
   -2.8011   -0.5216    0.0000 C   0  0  0  0  0  0  0  0  0  0  0  0
   -3.3074   -1.1729    0.0000 C   0  0  0  0  0  0  0  0  0  0  0  0
   -4.6310   -1.7114    0.0000 O   0  0  0  0  0  0  0  0  0  0  0  0
   -4.1247   -1.0601    0.0000 C   0  0  0  0  0  0  0  0  0  0  0  0
   -4.4356   -0.2959    0.0000 O   0  0  0  0  0  0  0  0  0  0  0  0
    3.7841    0.2698    0.0000 H   0  0  0  0  0  0  0  0  0  0  0  0
    2.2621    1.7509    0.0000 H   0  0  0  0  0  0  0  0  0  0  0  0
    0.9182    2.2364    0.0000 H   0  0  0  0  0  0  0  0  0  0  0  0
    0.0631    1.3576    0.0000 H   0  0  0  0  0  0  0  0  0  0  0  0
    1.1724   -0.2677    0.0000 H   0  0  0  0  0  0  0  0  0  0  0  0
    0.2553   -1.0870    0.0000 H   0  0  0  0  0  0  0  0  0  0  0  0
   -0.2327    1.3329    0.0000 H   0  0  0  0  0  0  0  0  0  0  0  0
   -1.0636   -0.3950    0.0000 H   0  0  0  0  0  0  0  0  0  0  0  0
   -1.4054   -0.7143    0.0000 H   0  0  0  0  0  0  0  0  0  0  0  0
    1.9519   -1.2114    0.0000 H   0  0  0  0  0  0  0  0  0  0  0  0
    1.2620   -0.3934    0.0000 H   0  0  0  0  0  0  0  0  0  0  0  0
    3.8172   -0.8777    0.0000 H   0  0  0  0  0  0  0  0  0  0  0  0
    4.1807    0.1287    0.0000 H   0  0  0  0  0  0  0  0  0  0  0  0
    4.8451    0.1198    0.0000 H   0  0  0  0  0  0  0  0  0  0  0  0
    3.2395    2.3532    0.0000 H   0  0  0  0  0  0  0  0  0  0  0  0
    2.1862    2.1649    0.0000 H   0  0  0  0  0  0  0  0  0  0  0  0
    1.8955    2.8387    0.0000 H   0  0  0  0  0  0  0  0  0  0  0  0
    0.8422    2.6504    0.0000 H   0  0  0  0  0  0  0  0  0  0  0  0
    0.5176    3.2302    0.0000 H   0  0  0  0  0  0  0  0  0  0  0  0
    1.3807   -1.3134    0.0000 H   0  0  0  0  0  0  0  0  0  0  0  0
    0.3274   -1.5017    0.0000 H   0  0  0  0  0  0  0  0  0  0  0  0
   -1.3563   -1.5872    0.0000 H   0  0  0  0  0  0  0  0  0  0  0  0
   -0.9891    2.3418    0.0000 H   0  0  0  0  0  0  0  0  0  0  0  0
   -1.9610    1.7889    0.0000 H   0  0  0  0  0  0  0  0  0  0  0  0
   -2.7131    1.1730    0.0000 H   0  0  0  0  0  0  0  0  0  0  0  0
   -2.4876    0.0778    0.0000 H   0  0  0  0  0  0  0  0  0  0  0  0
   -2.0800   -0.8295    0.0000 H   0  0  0  0  0  0  0  0  0  0  0  0
   -0.4123   -1.6379    0.0000 H   0  0  0  0  0  0  0  0  0  0  0  0
   -1.4796   -1.7151    0.0000 H   0  0  0  0  0  0  0  0  0  0  0  0
    0.4498   -0.5385    0.0000 H   0  0  0  0  0  0  0  0  0  0  0  0
    2.1928   -1.1682    0.0000 H   0  0  0  0  0  0  0  0  0  0  0  0
    1.1395   -1.3565    0.0000 H   0  0  0  0  0  0  0  0  0  0  0  0
   -2.3296   -2.2434    0.0000 H   0  0  0  0  0  0  0  0  0  0  0  0
   -0.6130   -1.5450    0.0000 H   0  0  0  0  0  0  0  0  0  0  0  0
   -1.2697   -2.3897    0.0000 H   0  0  0  0  0  0  0  0  0  0  0  0
   -3.2044    0.4695    0.0000 H   0  0  0  0  0  0  0  0  0  0  0  0
   -3.8610   -0.3753    0.0000 H   0  0  0  0  0  0  0  0  0  0  0  0
   -2.9041   -2.1640    0.0000 H   0  0  0  0  0  0  0  0  0  0  0  0
   -3.9641   -2.0177    0.0000 H   0  0  0  0  0  0  0  0  0  0  0  0
   -3.8605    0.4439    0.0000 H   0  0  0  0  0  0  0  0  0  0  0  0
  1  2  1  0  0  0  0
  1 12  1  0  0  0  0
  1 39  1  0  0  0  0
  1 40  1  0  0  0  0
  2  3  1  0  0  0  0
  2 41  1  0  0  0  0
  2 42  1  0  0  0  0
  3  4  1  0  0  0  0
  3  5  1  0  0  0  0
  3 30  1  1  0  0  0
  4 43  1  0  0  0  0
  5  6  1  0  0  0  0
  5 44  1  0  0  0  0
  5 45  1  0  0  0  0
  6  7  1  0  0  0  0
  6 12  1  0  0  0  0
  6 31  1  1  0  0  0
  7  8  1  0  0  0  0
  7 46  1  0  0  0  0
  7 47  1  0  0  0  0
  8  9  1  0  0  0  0
  8 10  1  0  0  0  0
  8 32  1  1  0  0  0
  9 48  1  0  0  0  0
 10 11  1  0  0  0  0
 10 17  1  0  0  0  0
 10 33  1  1  0  0  0
 11 12  1  0  0  0  0
 11 13  1  0  0  0  0
 11 34  1  6  0  0  0
 12 22  1  1  0  0  0
 13 14  1  0  0  0  0
 13 49  1  0  0  0  0
 13 50  1  0  0  0  0
 14 15  1  0  0  0  0
 14 16  1  0  0  0  0
 14 35  1  1  0  0  0
 15 51  1  0  0  0  0
 16 17  1  0  0  0  0
 16 20  1  0  0  0  0
 16 21  1  1  0  0  0
 17 18  1  0  0  0  0
 17 36  1  6  0  0  0
 18 19  1  0  0  0  0
 18 52  1  0  0  0  0
 18 53  1  0  0  0  0
 19 20  1  0  0  0  0
 19 54  1  0  0  0  0
 19 55  1  0  0  0  0
 20 23  1  0  0  0  0
 20 37  1  6  0  0  0
 21 56  1  0  0  0  0
 21 57  1  0  0  0  0
 21 58  1  0  0  0  0
 22 59  1  0  0  0  0
 22 60  1  0  0  0  0
 22 61  1  0  0  0  0
 23 24  1  0  0  0  0
 23 25  1  0  0  0  0
 23 38  1  1  0  0  0
 24 62  1  0  0  0  0
 24 63  1  0  0  0  0
 24 64  1  0  0  0  0
 25 26  1  0  0  0  0
 25 65  1  0  0  0  0
 25 66  1  0  0  0  0
 26 28  1  0  0  0  0
 26 67  1  0  0  0  0
 26 68  1  0  0  0  0
 27 28  2  0  0  0  0
 28 29  1  0  0  0  0
 29 69  1  0  0  0  0
M  END
>  <DRUGBANK_ID>
DB02659

>  <SECONDARY_ACCESSION_NUMBERS>
EXPT00906

>  <COMMON_NAME>
Cholic Acid

>  <CAS_NUMBER>
81-25-4

>  <UNII>
G1JO7801AE

>  <SYNONYMS>
Cholic Acid

$$$$
