774
 OpenBabel10282417072D

 28 29  0  0  0  0  0  0  0  0999 V2000
    5.3809   -0.6133    0.0000 S   0  0  0  0  0  0  0  0  0  0  0  0
    2.6841   -0.8041    0.0000 S   0  0  0  0  0  0  0  0  0  0  0  0
    2.0522    0.7546    0.0000 F   0  0  0  0  0  0  0  0  0  0  0  0
    3.3162    1.8151    0.0000 F   0  0  0  0  0  0  0  0  0  0  0  0
    2.1538    1.9168    0.0000 F   0  0  0  0  0  0  0  0  0  0  0  0
    5.7851   -1.3325    0.0000 O   0  0  0  0  0  0  0  0  0  0  0  0
    4.9602   -1.3229    0.0000 O   0  0  0  0  0  0  0  0  0  0  0  0
    2.0522   -0.2739    0.0000 O   0  0  0  0  0  0  0  0  0  0  0  0
    3.3162   -1.3345    0.0000 O   0  0  0  0  0  0  0  0  0  0  0  0
    5.3809    1.0940    0.0000 N   0  0  0  0  0  0  0  0  0  0  0  0
    6.1285   -0.1893    0.0000 N   0  0  0  0  0  0  0  0  0  0  0  0
    2.1538   -1.4362    0.0000 N   0  0  0  0  0  0  0  0  0  0  0  0
    4.6434   -0.1722    0.0000 C   0  0  0  0  0  0  0  0  0  0  0  0
    4.6434    0.6528    0.0000 C   0  0  0  0  0  0  0  0  0  0  0  0
    3.2144   -0.1722    0.0000 C   0  0  0  0  0  0  0  0  0  0  0  0
    3.2144    0.6528    0.0000 C   0  0  0  0  0  0  0  0  0  0  0  0
    3.9289   -0.5847    0.0000 C   0  0  0  0  0  0  0  0  0  0  0  0
    6.1285    0.6700    0.0000 C   0  0  0  0  0  0  0  0  0  0  0  0
    3.9289    1.0653    0.0000 C   0  0  0  0  0  0  0  0  0  0  0  0
    2.6841    1.2848    0.0000 C   0  0  0  0  0  0  0  0  0  0  0  0
    5.3695    2.0784    0.0000 H   0  0  0  0  0  0  0  0  0  0  0  0
    7.0099   -0.7027    0.0000 H   0  0  0  0  0  0  0  0  0  0  0  0
    1.1493   -1.2592    0.0000 H   0  0  0  0  0  0  0  0  0  0  0  0
    2.5027   -2.3947    0.0000 H   0  0  0  0  0  0  0  0  0  0  0  0
    3.9289   -1.6167    0.0000 H   0  0  0  0  0  0  0  0  0  0  0  0
    7.0531    1.2086    0.0000 H   0  0  0  0  0  0  0  0  0  0  0  0
    7.0562    0.1368    0.0000 H   0  0  0  0  0  0  0  0  0  0  0  0
    3.9289    2.0973    0.0000 H   0  0  0  0  0  0  0  0  0  0  0  0
  1  6  2  0  0  0  0
  1  7  2  0  0  0  0
  1 11  1  0  0  0  0
  1 13  1  0  0  0  0
  2  8  2  0  0  0  0
  2  9  2  0  0  0  0
  2 12  1  0  0  0  0
  2 15  1  0  0  0  0
  3 20  1  0  0  0  0
  4 20  1  0  0  0  0
  5 20  1  0  0  0  0
 10 14  1  0  0  0  0
 10 18  1  0  0  0  0
 10 21  1  0  0  0  0
 11 18  1  0  0  0  0
 11 22  1  0  0  0  0
 12 23  1  0  0  0  0
 12 24  1  0  0  0  0
 13 14  2  0  0  0  0
 13 17  1  0  0  0  0
 14 19  1  0  0  0  0
 15 16  1  0  0  0  0
 15 17  2  0  0  0  0
 16 19  2  0  0  0  0
 16 20  1  0  0  0  0
 17 25  1  0  0  0  0
 18 26  1  0  0  0  0
 18 27  1  0  0  0  0
 19 28  1  0  0  0  0
M  END
>  <DRUGBANK_ID>
DB00774

>  <SECONDARY_ACCESSION_NUMBERS>
APRD01020

>  <COMMON_NAME>
Hydroflumethiazide

>  <CAS_NUMBER>
135-09-1

>  <UNII>
501CFL162R

>  <SYNONYMS>
Dihydroflumethazide; Hidroflumetiazid; Hidroflumetiazida; Hydroflum√©thiazide; Hydroflumethiazide; Hydroflumethiazidum; Idroflumetiazide; Metforylthiadiazin

$$$$
