
 OpenBabel10282417072D

160163  0  0  1  0  0  0  0  0999 V2000
   -5.7158  -14.8500    0.0000 C   0  0  0  0  0  0  0  0  0  0  0  0
   -5.0013  -14.4375    0.0000 O   0  0  0  0  0  0  0  0  0  0  0  0
   -4.2868  -14.8500    0.0000 C   0  0  0  0  0  0  0  0  0  0  0  0
   -3.5724  -14.4375    0.0000 C   0  0  0  0  0  0  0  0  0  0  0  0
   -2.8579  -14.8500    0.0000 C   0  0  0  0  0  0  0  0  0  0  0  0
   -2.8579  -15.6750    0.0000 C   0  0  0  0  0  0  0  0  0  0  0  0
   -3.5724  -16.0875    0.0000 C   0  0  0  0  0  0  0  0  0  0  0  0
   -4.2868  -15.6750    0.0000 C   0  0  0  0  0  0  0  0  0  0  0  0
   -5.0013  -16.0875    0.0000 C   0  0  0  0  0  0  0  0  0  0  0  0
   -5.0013  -16.9125    0.0000 O   0  0  0  0  0  0  0  0  0  0  0  0
   -5.7158  -15.6750    0.0000 N   0  0  0  0  0  0  0  0  0  0  0  0
   -6.4302  -16.0875    0.0000 C   0  0  1  0  0  0  0  0  0  0  0  0
   -6.4302  -16.9125    0.0000 C   0  0  0  0  0  0  0  0  0  0  0  0
   -5.7158  -17.3250    0.0000 C   0  0  0  0  0  0  0  0  0  0  0  0
   -5.7158  -18.1500    0.0000 C   0  0  0  0  0  0  0  0  0  0  0  0
   -5.0013  -18.5625    0.0000 C   0  0  0  0  0  0  0  0  0  0  0  0
   -5.0013  -19.3875    0.0000 N   0  0  0  0  0  0  0  0  0  0  0  0
   -7.1447  -15.6750    0.0000 C   0  0  0  0  0  0  0  0  0  0  0  0
   -7.1447  -14.8500    0.0000 O   0  0  0  0  0  0  0  0  0  0  0  0
   -7.8592  -16.0875    0.0000 N   0  0  0  0  0  0  0  0  0  0  0  0
   -8.5737  -15.6750    0.0000 C   0  0  0  0  0  0  0  0  0  0  0  0
   -9.2881  -16.0875    0.0000 C   0  0  0  0  0  0  0  0  0  0  0  0
  -10.0026  -15.6750    0.0000 C   0  0  0  0  0  0  0  0  0  0  0  0
  -10.0026  -14.8500    0.0000 C   0  0  0  0  0  0  0  0  0  0  0  0
   -9.2881  -14.4375    0.0000 C   0  0  0  0  0  0  0  0  0  0  0  0
   -8.5737  -14.8500    0.0000 C   0  0  0  0  0  0  0  0  0  0  0  0
   -9.2881  -13.6125    0.0000 C   0  0  0  0  0  0  0  0  0  0  0  0
   -8.5737  -13.2000    0.0000 O   0  0  0  0  0  0  0  0  0  0  0  0
  -10.0026  -13.2000    0.0000 N   0  0  0  0  0  0  0  0  0  0  0  0
  -10.0026  -12.3750    0.0000 C   0  0  1  0  0  0  0  0  0  0  0  0
   -9.2881  -11.9625    0.0000 C   0  0  0  0  0  0  0  0  0  0  0  0
   -9.2881  -11.1375    0.0000 C   0  0  0  0  0  0  0  0  0  0  0  0
   -8.5737  -10.7250    0.0000 C   0  0  0  0  0  0  0  0  0  0  0  0
   -8.5737   -9.9000    0.0000 C   0  0  0  0  0  0  0  0  0  0  0  0
   -7.8592   -9.4875    0.0000 N   0  0  0  0  0  0  0  0  0  0  0  0
  -10.7171  -11.9625    0.0000 C   0  0  0  0  0  0  0  0  0  0  0  0
  -11.4315  -12.3750    0.0000 O   0  0  0  0  0  0  0  0  0  0  0  0
  -10.7171  -11.1375    0.0000 N   0  0  0  0  0  0  0  0  0  0  0  0
  -11.4315  -10.7250    0.0000 C   0  0  0  0  0  0  0  0  0  0  0  0
  -12.1460  -11.1375    0.0000 C   0  0  0  0  0  0  0  0  0  0  0  0
  -12.8605  -10.7250    0.0000 C   0  0  0  0  0  0  0  0  0  0  0  0
  -12.8605   -9.9000    0.0000 C   0  0  0  0  0  0  0  0  0  0  0  0
  -12.1460   -9.4875    0.0000 C   0  0  0  0  0  0  0  0  0  0  0  0
  -11.4315   -9.9000    0.0000 C   0  0  0  0  0  0  0  0  0  0  0  0
  -12.1460   -8.6625    0.0000 C   0  0  0  0  0  0  0  0  0  0  0  0
  -11.4315   -8.2500    0.0000 O   0  0  0  0  0  0  0  0  0  0  0  0
  -12.8605   -8.2500    0.0000 N   0  0  0  0  0  0  0  0  0  0  0  0
  -12.8605   -7.4250    0.0000 C   0  0  1  0  0  0  0  0  0  0  0  0
  -12.1460   -7.0125    0.0000 C   0  0  0  0  0  0  0  0  0  0  0  0
  -12.1460   -6.1875    0.0000 C   0  0  0  0  0  0  0  0  0  0  0  0
  -11.4315   -5.7750    0.0000 C   0  0  0  0  0  0  0  0  0  0  0  0
  -11.4315   -4.9500    0.0000 C   0  0  0  0  0  0  0  0  0  0  0  0
  -10.7171   -4.5375    0.0000 N   0  0  0  0  0  0  0  0  0  0  0  0
  -13.5749   -7.0125    0.0000 C   0  0  0  0  0  0  0  0  0  0  0  0
  -14.2894   -7.4250    0.0000 O   0  0  0  0  0  0  0  0  0  0  0  0
  -13.5749   -6.1875    0.0000 N   0  0  0  0  0  0  0  0  0  0  0  0
  -14.2894   -5.7750    0.0000 C   0  0  0  0  0  0  0  0  0  0  0  0
  -15.0039   -6.1875    0.0000 C   0  0  0  0  0  0  0  0  0  0  0  0
  -15.7184   -5.7750    0.0000 C   0  0  0  0  0  0  0  0  0  0  0  0
  -15.7184   -4.9500    0.0000 C   0  0  0  0  0  0  0  0  0  0  0  0
  -15.0039   -4.5375    0.0000 C   0  0  0  0  0  0  0  0  0  0  0  0
  -14.2894   -4.9500    0.0000 C   0  0  0  0  0  0  0  0  0  0  0  0
  -15.0039   -3.7125    0.0000 C   0  0  0  0  0  0  0  0  0  0  0  0
  -14.2894   -3.3000    0.0000 O   0  0  0  0  0  0  0  0  0  0  0  0
  -15.7184   -3.3000    0.0000 N   0  0  0  0  0  0  0  0  0  0  0  0
  -16.4328   -4.5375    0.0000 O   0  0  0  0  0  0  0  0  0  0  0  0
  -16.4328   -3.7125    0.0000 C   0  0  0  0  0  0  0  0  0  0  0  0
  -13.5749   -9.4875    0.0000 O   0  0  0  0  0  0  0  0  0  0  0  0
  -13.5749   -8.6625    0.0000 C   0  0  0  0  0  0  0  0  0  0  0  0
  -10.7171  -14.4375    0.0000 O   0  0  0  0  0  0  0  0  0  0  0  0
  -10.7171  -13.6125    0.0000 C   0  0  0  0  0  0  0  0  0  0  0  0
   -2.1434  -16.0875    0.0000 N   0  0  0  0  0  0  0  0  0  0  0  0
   -1.4289  -15.6750    0.0000 C   0  0  0  0  0  0  0  0  0  0  0  0
   -1.4289  -14.8500    0.0000 O   0  0  0  0  0  0  0  0  0  0  0  0
   -0.7145  -16.0875    0.0000 C   0  0  2  0  0  0  0  0  0  0  0  0
    0.0000  -15.6750    0.0000 C   0  0  0  0  0  0  0  0  0  0  0  0
    0.7145  -16.0875    0.0000 C   0  0  0  0  0  0  0  0  0  0  0  0
    1.4289  -15.6750    0.0000 C   0  0  0  0  0  0  0  0  0  0  0  0
    2.1434  -16.0875    0.0000 C   0  0  0  0  0  0  0  0  0  0  0  0
    2.8579  -15.6750    0.0000 N   0  0  0  0  0  0  0  0  0  0  0  0
   -0.7145  -16.9125    0.0000 N   0  0  0  0  0  0  0  0  0  0  0  0
   -6.6424  -14.3150    0.0000 H   0  0  0  0  0  0  0  0  0  0  0  0
   -5.7158  -15.9200    0.0000 H   0  0  0  0  0  0  0  0  0  0  0  0
   -6.6425  -15.3850    0.0000 H   0  0  0  0  0  0  0  0  0  0  0  0
   -3.5724  -13.4055    0.0000 H   0  0  0  0  0  0  0  0  0  0  0  0
   -1.9642  -14.3340    0.0000 H   0  0  0  0  0  0  0  0  0  0  0  0
   -3.5724  -17.1195    0.0000 H   0  0  0  0  0  0  0  0  0  0  0  0
   -5.7158  -14.6905    0.0000 H   0  0  0  0  0  0  0  0  0  0  0  0
   -5.5035  -16.6225    0.0000 H   0  0  0  0  0  0  0  0  0  0  0  0
   -7.3569  -17.4475    0.0000 H   0  0  0  0  0  0  0  0  0  0  0  0
   -6.4302  -17.9825    0.0000 H   0  0  0  0  0  0  0  0  0  0  0  0
   -4.7891  -16.7900    0.0000 H   0  0  0  0  0  0  0  0  0  0  0  0
   -4.7892  -17.8600    0.0000 H   0  0  0  0  0  0  0  0  0  0  0  0
   -6.6424  -18.6850    0.0000 H   0  0  0  0  0  0  0  0  0  0  0  0
   -5.7158  -19.2200    0.0000 H   0  0  0  0  0  0  0  0  0  0  0  0
   -4.0747  -18.0275    0.0000 H   0  0  0  0  0  0  0  0  0  0  0  0
   -4.0747  -19.0975    0.0000 H   0  0  0  0  0  0  0  0  0  0  0  0
   -5.8846  -19.8975    0.0000 H   0  0  0  0  0  0  0  0  0  0  0  0
   -4.1180  -19.8975    0.0000 H   0  0  0  0  0  0  0  0  0  0  0  0
   -7.8592  -17.0720    0.0000 H   0  0  0  0  0  0  0  0  0  0  0  0
   -9.2881  -17.1195    0.0000 H   0  0  0  0  0  0  0  0  0  0  0  0
  -10.8963  -16.1910    0.0000 H   0  0  0  0  0  0  0  0  0  0  0  0
   -7.6800  -14.3340    0.0000 H   0  0  0  0  0  0  0  0  0  0  0  0
  -10.8552  -13.6923    0.0000 H   0  0  0  0  0  0  0  0  0  0  0  0
   -9.0760  -12.9100    0.0000 H   0  0  0  0  0  0  0  0  0  0  0  0
   -8.3615  -12.4975    0.0000 H   0  0  0  0  0  0  0  0  0  0  0  0
   -8.3615  -11.4275    0.0000 H   0  0  0  0  0  0  0  0  0  0  0  0
  -10.2148  -10.6025    0.0000 H   0  0  0  0  0  0  0  0  0  0  0  0
   -9.2881  -10.0675    0.0000 H   0  0  0  0  0  0  0  0  0  0  0  0
   -7.6470  -11.2600    0.0000 H   0  0  0  0  0  0  0  0  0  0  0  0
   -7.6471  -10.1900    0.0000 H   0  0  0  0  0  0  0  0  0  0  0  0
   -9.5003   -9.3650    0.0000 H   0  0  0  0  0  0  0  0  0  0  0  0
   -8.5737   -8.8300    0.0000 H   0  0  0  0  0  0  0  0  0  0  0  0
   -6.9759   -9.9975    0.0000 H   0  0  0  0  0  0  0  0  0  0  0  0
   -7.8592   -8.4675    0.0000 H   0  0  0  0  0  0  0  0  0  0  0  0
   -9.8645  -10.6453    0.0000 H   0  0  0  0  0  0  0  0  0  0  0  0
  -12.1460  -12.1695    0.0000 H   0  0  0  0  0  0  0  0  0  0  0  0
  -13.7542  -11.2410    0.0000 H   0  0  0  0  0  0  0  0  0  0  0  0
  -10.5378   -9.3840    0.0000 H   0  0  0  0  0  0  0  0  0  0  0  0
  -13.7131   -8.7423    0.0000 H   0  0  0  0  0  0  0  0  0  0  0  0
  -11.9339   -7.9600    0.0000 H   0  0  0  0  0  0  0  0  0  0  0  0
  -11.2194   -7.5475    0.0000 H   0  0  0  0  0  0  0  0  0  0  0  0
  -11.2194   -6.4775    0.0000 H   0  0  0  0  0  0  0  0  0  0  0  0
  -13.0726   -5.6525    0.0000 H   0  0  0  0  0  0  0  0  0  0  0  0
  -12.1460   -5.1175    0.0000 H   0  0  0  0  0  0  0  0  0  0  0  0
  -10.5049   -6.3100    0.0000 H   0  0  0  0  0  0  0  0  0  0  0  0
  -10.5049   -5.2400    0.0000 H   0  0  0  0  0  0  0  0  0  0  0  0
  -12.3582   -4.4150    0.0000 H   0  0  0  0  0  0  0  0  0  0  0  0
  -11.4315   -3.8800    0.0000 H   0  0  0  0  0  0  0  0  0  0  0  0
   -9.8337   -5.0475    0.0000 H   0  0  0  0  0  0  0  0  0  0  0  0
  -10.7171   -3.5175    0.0000 H   0  0  0  0  0  0  0  0  0  0  0  0
  -12.7223   -5.6952    0.0000 H   0  0  0  0  0  0  0  0  0  0  0  0
  -15.0039   -7.2195    0.0000 H   0  0  0  0  0  0  0  0  0  0  0  0
  -16.6121   -6.2910    0.0000 H   0  0  0  0  0  0  0  0  0  0  0  0
  -13.3957   -4.4340    0.0000 H   0  0  0  0  0  0  0  0  0  0  0  0
  -15.7184   -2.3155    0.0000 H   0  0  0  0  0  0  0  0  0  0  0  0
  -16.5710   -3.7923    0.0000 H   0  0  0  0  0  0  0  0  0  0  0  0
  -15.5062   -3.1775    0.0000 H   0  0  0  0  0  0  0  0  0  0  0  0
  -17.3594   -3.1775    0.0000 H   0  0  0  0  0  0  0  0  0  0  0  0
  -16.4328   -2.6425    0.0000 H   0  0  0  0  0  0  0  0  0  0  0  0
  -12.6483   -8.1275    0.0000 H   0  0  0  0  0  0  0  0  0  0  0  0
  -14.5015   -8.1275    0.0000 H   0  0  0  0  0  0  0  0  0  0  0  0
  -13.5749   -7.5925    0.0000 H   0  0  0  0  0  0  0  0  0  0  0  0
   -9.7905  -13.0775    0.0000 H   0  0  0  0  0  0  0  0  0  0  0  0
  -11.6437  -13.0775    0.0000 H   0  0  0  0  0  0  0  0  0  0  0  0
  -10.7171  -12.5425    0.0000 H   0  0  0  0  0  0  0  0  0  0  0  0
   -2.1434  -17.0720    0.0000 H   0  0  0  0  0  0  0  0  0  0  0  0
   -1.6412  -16.6225    0.0000 H   0  0  0  0  0  0  0  0  0  0  0  0
    0.0000  -14.6050    0.0000 H   0  0  0  0  0  0  0  0  0  0  0  0
    0.9266  -15.1400    0.0000 H   0  0  0  0  0  0  0  0  0  0  0  0
    0.7145  -17.1575    0.0000 H   0  0  0  0  0  0  0  0  0  0  0  0
    1.6412  -16.6225    0.0000 H   0  0  0  0  0  0  0  0  0  0  0  0
    1.4289  -14.6050    0.0000 H   0  0  0  0  0  0  0  0  0  0  0  0
    2.3555  -15.1400    0.0000 H   0  0  0  0  0  0  0  0  0  0  0  0
    2.1434  -17.1575    0.0000 H   0  0  0  0  0  0  0  0  0  0  0  0
    3.0700  -16.6225    0.0000 H   0  0  0  0  0  0  0  0  0  0  0  0
    3.7412  -16.1850    0.0000 H   0  0  0  0  0  0  0  0  0  0  0  0
    2.8579  -14.6550    0.0000 H   0  0  0  0  0  0  0  0  0  0  0  0
   -1.5978  -17.4225    0.0000 H   0  0  0  0  0  0  0  0  0  0  0  0
    0.1688  -17.4225    0.0000 H   0  0  0  0  0  0  0  0  0  0  0  0
  1  2  1  0  0  0  0
  1 82  1  0  0  0  0
  1 83  1  0  0  0  0
  1 84  1  0  0  0  0
  2  3  1  0  0  0  0
  3  4  2  0  0  0  0
  3  8  1  0  0  0  0
  4  5  1  0  0  0  0
  4 85  1  0  0  0  0
  5  6  2  0  0  0  0
  5 86  1  0  0  0  0
  6  7  1  0  0  0  0
  6 72  1  0  0  0  0
  7  8  2  0  0  0  0
  7 87  1  0  0  0  0
  8  9  1  0  0  0  0
  9 10  2  0  0  0  0
  9 11  1  0  0  0  0
 11 88  1  0  0  0  0
 12 11  1  0  0  0  0
 12 13  1  0  0  0  0
 12 18  1  0  0  0  0
 12 89  1  6  0  0  0
 13 14  1  0  0  0  0
 13 90  1  0  0  0  0
 13 91  1  0  0  0  0
 14 15  1  0  0  0  0
 14 92  1  0  0  0  0
 14 93  1  0  0  0  0
 15 16  1  0  0  0  0
 15 94  1  0  0  0  0
 15 95  1  0  0  0  0
 16 17  1  0  0  0  0
 16 96  1  0  0  0  0
 16 97  1  0  0  0  0
 17 98  1  0  0  0  0
 17 99  1  0  0  0  0
 18 19  2  0  0  0  0
 18 20  1  0  0  0  0
 20 21  1  0  0  0  0
 20100  1  0  0  0  0
 21 22  2  0  0  0  0
 21 26  1  0  0  0  0
 22 23  1  0  0  0  0
 22101  1  0  0  0  0
 23 24  2  0  0  0  0
 23102  1  0  0  0  0
 24 25  1  0  0  0  0
 24 70  1  0  0  0  0
 25 26  2  0  0  0  0
 25 27  1  0  0  0  0
 26103  1  0  0  0  0
 27 28  2  0  0  0  0
 27 29  1  0  0  0  0
 29104  1  0  0  0  0
 30 29  1  0  0  0  0
 30 31  1  0  0  0  0
 30 36  1  0  0  0  0
 30105  1  1  0  0  0
 31 32  1  0  0  0  0
 31106  1  0  0  0  0
 31107  1  0  0  0  0
 32 33  1  0  0  0  0
 32108  1  0  0  0  0
 32109  1  0  0  0  0
 33 34  1  0  0  0  0
 33110  1  0  0  0  0
 33111  1  0  0  0  0
 34 35  1  0  0  0  0
 34112  1  0  0  0  0
 34113  1  0  0  0  0
 35114  1  0  0  0  0
 35115  1  0  0  0  0
 36 37  2  0  0  0  0
 36 38  1  0  0  0  0
 38 39  1  0  0  0  0
 38116  1  0  0  0  0
 39 40  2  0  0  0  0
 39 44  1  0  0  0  0
 40 41  1  0  0  0  0
 40117  1  0  0  0  0
 41 42  2  0  0  0  0
 41118  1  0  0  0  0
 42 43  1  0  0  0  0
 42 68  1  0  0  0  0
 43 44  2  0  0  0  0
 43 45  1  0  0  0  0
 44119  1  0  0  0  0
 45 46  2  0  0  0  0
 45 47  1  0  0  0  0
 47120  1  0  0  0  0
 48 47  1  0  0  0  0
 48 49  1  0  0  0  0
 48 54  1  0  0  0  0
 48121  1  1  0  0  0
 49 50  1  0  0  0  0
 49122  1  0  0  0  0
 49123  1  0  0  0  0
 50 51  1  0  0  0  0
 50124  1  0  0  0  0
 50125  1  0  0  0  0
 51 52  1  0  0  0  0
 51126  1  0  0  0  0
 51127  1  0  0  0  0
 52 53  1  0  0  0  0
 52128  1  0  0  0  0
 52129  1  0  0  0  0
 53130  1  0  0  0  0
 53131  1  0  0  0  0
 54 55  2  0  0  0  0
 54 56  1  0  0  0  0
 56 57  1  0  0  0  0
 56132  1  0  0  0  0
 57 58  2  0  0  0  0
 57 62  1  0  0  0  0
 58 59  1  0  0  0  0
 58133  1  0  0  0  0
 59 60  2  0  0  0  0
 59134  1  0  0  0  0
 60 61  1  0  0  0  0
 60 66  1  0  0  0  0
 61 62  2  0  0  0  0
 61 63  1  0  0  0  0
 62135  1  0  0  0  0
 63 64  2  0  0  0  0
 63 65  1  0  0  0  0
 65136  1  0  0  0  0
 65137  1  0  0  0  0
 66 67  1  0  0  0  0
 67138  1  0  0  0  0
 67139  1  0  0  0  0
 67140  1  0  0  0  0
 68 69  1  0  0  0  0
 69141  1  0  0  0  0
 69142  1  0  0  0  0
 69143  1  0  0  0  0
 70 71  1  0  0  0  0
 71144  1  0  0  0  0
 71145  1  0  0  0  0
 71146  1  0  0  0  0
 72 73  1  0  0  0  0
 72147  1  0  0  0  0
 73 74  2  0  0  0  0
 73 75  1  0  0  0  0
 75 76  1  0  0  0  0
 75 81  1  0  0  0  0
 75148  1  1  0  0  0
 76 77  1  0  0  0  0
 76149  1  0  0  0  0
 76150  1  0  0  0  0
 77 78  1  0  0  0  0
 77151  1  0  0  0  0
 77152  1  0  0  0  0
 78 79  1  0  0  0  0
 78153  1  0  0  0  0
 78154  1  0  0  0  0
 79 80  1  0  0  0  0
 79155  1  0  0  0  0
 79156  1  0  0  0  0
 80157  1  0  0  0  0
 80158  1  0  0  0  0
 81159  1  0  0  0  0
 81160  1  0  0  0  0
M  END
>  <DRUGBANK_ID>
DB12955

>  <COMMON_NAME>
Delparantag

>  <CAS_NUMBER>
872454-31-4

>  <UNII>
FSY46235ZO

>  <SYNONYMS>
Delparantag

$$$$
