5282443
 OpenBabel10282417072D

 43 45  0  0  0  0  0  0  0  0999 V2000
    2.9558    1.2375    0.0000 N   0  0  0  0  0  0  0  0  0  0  0  0
    6.5282    0.8250    0.0000 N   0  0  0  0  0  0  0  0  0  0  0  0
    2.8696    2.0580    0.0000 C   0  0  0  0  0  0  0  0  0  0  0  0
    2.2021    0.9020    0.0000 C   0  0  0  0  0  0  0  0  0  0  0  0
    1.6500    1.5151    0.0000 C   0  0  0  0  0  0  0  0  0  0  0  0
    2.0625    2.2295    0.0000 C   0  0  0  0  0  0  0  0  0  0  0  0
    3.6703    0.8250    0.0000 C   0  0  0  0  0  0  0  0  0  0  0  0
    4.3847    1.2375    0.0000 C   0  0  0  0  0  0  0  0  0  0  0  0
    5.0993    0.8250    0.0000 C   0  0  0  0  0  0  0  0  0  0  0  0
    5.0993    0.0000    0.0000 C   0  0  0  0  0  0  0  0  0  0  0  0
    5.8137    1.2375    0.0000 C   0  0  0  0  0  0  0  0  0  0  0  0
    5.8137   -0.4125    0.0000 C   0  0  0  0  0  0  0  0  0  0  0  0
    4.3847   -0.4125    0.0000 C   0  0  0  0  0  0  0  0  0  0  0  0
    5.8137    2.0625    0.0000 C   0  0  0  0  0  0  0  0  0  0  0  0
    5.0993   -1.6500    0.0000 C   0  0  0  0  0  0  0  0  0  0  0  0
    5.8137   -1.2375    0.0000 C   0  0  0  0  0  0  0  0  0  0  0  0
    4.3847   -1.2375    0.0000 C   0  0  0  0  0  0  0  0  0  0  0  0
    6.5282    2.4751    0.0000 C   0  0  0  0  0  0  0  0  0  0  0  0
    5.0993   -2.4751    0.0000 C   0  0  0  0  0  0  0  0  0  0  0  0
    7.2427    1.2375    0.0000 C   0  0  0  0  0  0  0  0  0  0  0  0
    7.2427    2.0625    0.0000 C   0  0  0  0  0  0  0  0  0  0  0  0
    3.6648    2.7740    0.0000 H   0  0  0  0  0  0  0  0  0  0  0  0
    2.5926    3.0915    0.0000 H   0  0  0  0  0  0  0  0  0  0  0  0
    1.9796   -0.1446    0.0000 H   0  0  0  0  0  0  0  0  0  0  0  0
    1.1686    0.6250    0.0000 H   0  0  0  0  0  0  0  0  0  0  0  0
    0.5859    1.4032    0.0000 H   0  0  0  0  0  0  0  0  0  0  0  0
    1.0673    2.4125    0.0000 H   0  0  0  0  0  0  0  0  0  0  0  0
    1.6273    3.2070    0.0000 H   0  0  0  0  0  0  0  0  0  0  0  0
    0.9940    2.2855    0.0000 H   0  0  0  0  0  0  0  0  0  0  0  0
    3.6703   -0.2450    0.0000 H   0  0  0  0  0  0  0  0  0  0  0  0
    4.5970    0.2900    0.0000 H   0  0  0  0  0  0  0  0  0  0  0  0
    4.3846    2.2695    0.0000 H   0  0  0  0  0  0  0  0  0  0  0  0
    6.7074    0.1035    0.0000 H   0  0  0  0  0  0  0  0  0  0  0  0
    3.4910    0.1035    0.0000 H   0  0  0  0  0  0  0  0  0  0  0  0
    4.9199    2.5785    0.0000 H   0  0  0  0  0  0  0  0  0  0  0  0
    6.7074   -1.7535    0.0000 H   0  0  0  0  0  0  0  0  0  0  0  0
    3.4910   -1.7535    0.0000 H   0  0  0  0  0  0  0  0  0  0  0  0
    6.5282    3.5071    0.0000 H   0  0  0  0  0  0  0  0  0  0  0  0
    4.1727   -3.0101    0.0000 H   0  0  0  0  0  0  0  0  0  0  0  0
    6.0259   -3.0101    0.0000 H   0  0  0  0  0  0  0  0  0  0  0  0
    5.0993   -3.5451    0.0000 H   0  0  0  0  0  0  0  0  0  0  0  0
    8.1364    0.7215    0.0000 H   0  0  0  0  0  0  0  0  0  0  0  0
    8.1365    2.5785    0.0000 H   0  0  0  0  0  0  0  0  0  0  0  0
  1  3  1  0  0  0  0
  1  4  1  0  0  0  0
  1  7  1  0  0  0  0
  2 11  1  0  0  0  0
  2 20  2  0  0  0  0
  3  6  1  0  0  0  0
  3 22  1  0  0  0  0
  3 23  1  0  0  0  0
  4  5  1  0  0  0  0
  4 24  1  0  0  0  0
  4 25  1  0  0  0  0
  5  6  1  0  0  0  0
  5 26  1  0  0  0  0
  5 27  1  0  0  0  0
  6 28  1  0  0  0  0
  6 29  1  0  0  0  0
  7  8  1  0  0  0  0
  7 30  1  0  0  0  0
  7 31  1  0  0  0  0
  8  9  2  0  0  0  0
  8 32  1  0  0  0  0
  9 10  1  0  0  0  0
  9 11  1  0  0  0  0
 10 12  2  0  0  0  0
 10 13  1  0  0  0  0
 11 14  2  0  0  0  0
 12 16  1  0  0  0  0
 12 33  1  0  0  0  0
 13 17  2  0  0  0  0
 13 34  1  0  0  0  0
 14 18  1  0  0  0  0
 14 35  1  0  0  0  0
 15 16  2  0  0  0  0
 15 17  1  0  0  0  0
 15 19  1  0  0  0  0
 16 36  1  0  0  0  0
 17 37  1  0  0  0  0
 18 21  2  0  0  0  0
 18 38  1  0  0  0  0
 19 39  1  0  0  0  0
 19 40  1  0  0  0  0
 19 41  1  0  0  0  0
 20 21  1  0  0  0  0
 20 42  1  0  0  0  0
 21 43  1  0  0  0  0
M  END
>  <DRUGBANK_ID>
DB00427

>  <SECONDARY_ACCESSION_NUMBERS>
APRD00306

>  <COMMON_NAME>
Triprolidine

>  <CAS_NUMBER>
486-12-4

>  <UNII>
2L8T9S52QM

>  <SYNONYMS>
(E)-2-[3-(1-pyrrolidinyl)-1-p-toluenepropenyl]pyridine; trans-1-(2-pyridyl)-3-pyrrolidino-1-p-tolylprop-1-ene; trans-1-(4-methylphenyl)-1-(2-pyridyl)-3-pyrrolidinoprop-1-ene; Tripolidina; Triprolidin; Triprolidina; Triprolidine; Triprolidinum

$$$$
