
 OpenBabel10282417072D

220227  0  0  0  0  0  0  0  0999 V2000
    7.1739   -1.2936    0.0000 N   0  0  0  0  0  0  0  0  0  0  0  0
    1.8080    5.6679    0.0000 N   0  0  0  0  0  0  0  0  0  0  0  0
    6.4616   -0.8893    0.0000 C   0  0  0  0  0  0  0  0  0  0  0  0
    0.9747    5.6804    0.0000 C   0  0  0  0  0  0  0  0  0  0  0  0
    8.6071   -1.2936    0.0000 C   0  0  0  0  0  0  0  0  0  0  0  0
    0.5498    4.9680    0.0000 N   0  0  0  0  0  0  0  0  0  0  0  0
    2.2080    4.9430    0.0000 C   0  0  0  0  0  0  0  0  0  0  0  0
   -2.1247   -0.8810    0.0000 C   0  0  0  0  0  0  0  0  0  0  0  0
    7.8946   -0.8810    0.0000 C   0  0  2  0  0  0  0  0  0  0  0  0
    0.9497    4.2474    0.0000 C   0  0  2  0  0  0  0  0  0  0  0  0
   -4.2744   -1.2936    0.0000 C   0  0  0  0  0  0  0  0  0  0  0  0
    4.3202   -1.3018    0.0000 C   0  0  0  0  0  0  0  0  0  0  0  0
    2.1747   -0.8893    0.0000 C   0  0  0  0  0  0  0  0  0  0  0  0
   -6.4282   -0.8810    0.0000 C   0  0  0  0  0  0  0  0  0  0  0  0
    0.0332   -1.3018    0.0000 C   0  0  0  0  0  0  0  0  0  0  0  0
   -8.5862   -1.2936    0.0000 C   0  0  0  0  0  0  0  0  0  0  0  0
    0.5248    3.5350    0.0000 C   0  0  0  0  0  0  0  0  0  0  0  0
   -3.5494   -0.8810    0.0000 N   0  0  0  0  0  0  0  0  0  0  0  0
   -2.8370   -1.3018    0.0000 C   0  0  1  0  0  0  0  0  0  0  0  0
   -1.3997   -1.3018    0.0000 N   0  0  0  0  0  0  0  0  0  0  0  0
    0.7498   -0.8893    0.0000 N   0  0  0  0  0  0  0  0  0  0  0  0
   -5.7116   -1.2936    0.0000 N   0  0  0  0  0  0  0  0  0  0  0  0
    2.8953   -1.3018    0.0000 N   0  0  0  0  0  0  0  0  0  0  0  0
   -7.8656   -0.8810    0.0000 N   0  0  0  0  0  0  0  0  0  0  0  0
    5.0367   -0.8893    0.0000 N   0  0  0  0  0  0  0  0  0  0  0  0
    1.7747    4.2306    0.0000 C   0  0  0  0  0  0  0  0  0  0  0  0
    9.3194   -0.8893    0.0000 N   0  0  0  0  0  0  0  0  0  0  0  0
   -0.6874   -0.8810    0.0000 C   0  0  1  0  0  0  0  0  0  0  0  0
    1.4623   -1.3018    0.0000 C   0  0  2  0  0  0  0  0  0  0  0  0
   -7.1489   -1.2936    0.0000 C   0  0  2  0  0  0  0  0  0  0  0  0
   -4.9910   -0.8810    0.0000 C   0  0  2  0  0  0  0  0  0  0  0  0
    3.6077   -0.8893    0.0000 C   0  0  1  0  0  0  0  0  0  0  0  0
    2.6703   -5.6887    0.0000 C   0  0  0  0  0  0  0  0  0  0  0  0
    5.7492   -1.3018    0.0000 C   0  0  1  0  0  0  0  0  0  0  0  0
   -9.2987   -0.8810    0.0000 C   0  0  2  0  0  0  0  0  0  0  0  0
   10.7485   -0.8893    0.0000 C   0  0  0  0  0  0  0  0  0  0  0  0
  -10.0153   -1.2936    0.0000 N   0  0  0  0  0  0  0  0  0  0  0  0
    0.9455    2.8225    0.0000 N   0  0  0  0  0  0  0  0  0  0  0  0
  -10.7359   -0.8768    0.0000 C   0  0  0  0  0  0  0  0  0  0  0  0
   10.0361   -1.3018    0.0000 C   0  0  1  0  0  0  0  0  0  0  0  0
    3.0870   -4.9763    0.0000 N   0  0  0  0  0  0  0  0  0  0  0  0
    6.4616   -0.0562    0.0000 O   0  0  0  0  0  0  0  0  0  0  0  0
    0.5749    6.4053    0.0000 O   0  0  0  0  0  0  0  0  0  0  0  0
    8.6071   -2.1184    0.0000 O   0  0  0  0  0  0  0  0  0  0  0  0
   -9.2987   -0.0520    0.0000 C   0  0  0  0  0  0  0  0  0  0  0  0
   -2.1247   -0.0562    0.0000 O   0  0  0  0  0  0  0  0  0  0  0  0
   -6.4282   -0.0520    0.0000 O   0  0  0  0  0  0  0  0  0  0  0  0
   -4.2744   -2.1267    0.0000 O   0  0  0  0  0  0  0  0  0  0  0  0
    4.3202   -2.1267    0.0000 O   0  0  0  0  0  0  0  0  0  0  0  0
    0.0332   -2.1309    0.0000 O   0  0  0  0  0  0  0  0  0  0  0  0
   -8.5862   -2.1267    0.0000 O   0  0  0  0  0  0  0  0  0  0  0  0
    2.1747   -0.0562    0.0000 O   0  0  0  0  0  0  0  0  0  0  0  0
   -0.3041    3.5557    0.0000 O   0  0  0  0  0  0  0  0  0  0  0  0
   -8.9112    2.0934    0.0000 C   0  0  0  0  0  0  0  0  0  0  0  0
    3.0370    4.9222    0.0000 O   0  0  0  0  0  0  0  0  0  0  0  0
   -7.1489   -2.1267    0.0000 C   0  0  0  0  0  0  0  0  0  0  0  0
    1.4623   -2.1267    0.0000 C   0  0  0  0  0  0  0  0  0  0  0  0
   -0.6874   -0.0562    0.0000 C   0  0  0  0  0  0  0  0  0  0  0  0
   -8.8904    0.6687    0.0000 C   0  0  0  0  0  0  0  0  0  0  0  0
   -4.9910   -0.0520    0.0000 C   0  0  0  0  0  0  0  0  0  0  0  0
   -9.3112    1.3811    0.0000 C   0  0  0  0  0  0  0  0  0  0  0  0
    1.8455   -5.6804    0.0000 O   0  0  0  0  0  0  0  0  0  0  0  0
   10.7485   -0.0562    0.0000 O   0  0  0  0  0  0  0  0  0  0  0  0
    3.6077   -0.0562    0.0000 C   0  0  0  0  0  0  0  0  0  0  0  0
   -4.6035    2.0851    0.0000 N   0  0  0  0  0  0  0  0  0  0  0  0
  -10.7359   -0.0437    0.0000 O   0  0  0  0  0  0  0  0  0  0  0  0
   -8.0780    2.1059    0.0000 C   0  0  0  0  0  0  0  0  0  0  0  0
    0.5374    2.1059    0.0000 C   0  0  0  0  0  0  0  0  0  0  0  0
    3.0745   -6.4053    0.0000 N   0  0  0  0  0  0  0  0  0  0  0  0
   -7.6614    1.3977    0.0000 C   0  0  0  0  0  0  0  0  0  0  0  0
   11.4608   -1.2936    0.0000 N   0  0  0  0  0  0  0  0  0  0  0  0
    7.1739   -0.4687    0.0000 C   0  0  0  0  0  0  0  0  0  0  0  0
    2.6745   -4.2556    0.0000 C   0  0  0  0  0  0  0  0  0  0  0  0
   -0.2749    0.6687    0.0000 C   0  0  0  0  0  0  0  0  0  0  0  0
    1.8746   -2.8391    0.0000 C   0  0  0  0  0  0  0  0  0  0  0  0
   -6.9365   -2.9266    0.0000 C   0  0  0  0  0  0  0  0  0  0  0  0
   -8.0655    0.6811    0.0000 C   0  0  0  0  0  0  0  0  0  0  0  0
   -6.5115   -4.5180    0.0000 C   0  0  0  0  0  0  0  0  0  0  0  0
   -4.5868    0.6687    0.0000 C   0  0  0  0  0  0  0  0  0  0  0  0
    7.1739   -4.6013    0.0000 N   0  0  0  0  0  0  0  0  0  0  0  0
   -6.2991   -5.3179    0.0000 Cl  0  0  0  0  0  0  0  0  0  0  0  0
   -2.8370   -2.1309    0.0000 C   0  0  0  0  0  0  0  0  0  0  0  0
   -0.2916    2.0934    0.0000 C   0  0  0  0  0  0  0  0  0  0  0  0
    0.9581    1.3935    0.0000 C   0  0  0  0  0  0  0  0  0  0  0  0
    1.8579   -4.2556    0.0000 C   0  0  0  0  0  0  0  0  0  0  0  0
    3.0953   -3.5515    0.0000 C   0  0  0  0  0  0  0  0  0  0  0  0
   -7.5239   -3.5057    0.0000 C   0  0  0  0  0  0  0  0  0  0  0  0
   -6.1407   -3.1307    0.0000 C   0  0  0  0  0  0  0  0  0  0  0  0
    0.5498    0.6729    0.0000 C   0  0  0  0  0  0  0  0  0  0  0  0
    2.6871   -2.8391    0.0000 C   0  0  0  0  0  0  0  0  0  0  0  0
   -0.6999    1.3727    0.0000 C   0  0  0  0  0  0  0  0  0  0  0  0
    1.4498   -3.5432    0.0000 C   0  0  0  0  0  0  0  0  0  0  0  0
   -5.9242   -3.9306    0.0000 C   0  0  0  0  0  0  0  0  0  0  0  0
   -7.3115   -4.3014    0.0000 C   0  0  0  0  0  0  0  0  0  0  0  0
    7.8946   -0.0562    0.0000 C   0  0  0  0  0  0  0  0  0  0  0  0
   -2.1164   -2.5433    0.0000 O   0  0  0  0  0  0  0  0  0  0  0  0
   -5.0034    1.3685    0.0000 C   0  0  0  0  0  0  0  0  0  0  0  0
    7.3864    0.3312    0.0000 C   0  0  0  0  0  0  0  0  0  0  0  0
    5.7492   -2.1267    0.0000 C   0  0  0  0  0  0  0  0  0  0  0  0
    4.0119    0.6561    0.0000 C   0  0  0  0  0  0  0  0  0  0  0  0
  -11.4608   -1.2893    0.0000 C   0  0  0  0  0  0  0  0  0  0  0  0
   -3.7744    2.0976    0.0000 C   0  0  0  0  0  0  0  0  0  0  0  0
    6.4616   -5.0138    0.0000 C   0  0  0  0  0  0  0  0  0  0  0  0
   10.0361   -2.1267    0.0000 C   0  0  0  0  0  0  0  0  0  0  0  0
   -9.3362    2.8059    0.0000 C   0  0  0  0  0  0  0  0  0  0  0  0
    7.1739   -3.7765    0.0000 C   0  0  0  0  0  0  0  0  0  0  0  0
   -7.6739    2.8308    0.0000 C   0  0  0  0  0  0  0  0  0  0  0  0
   -3.7620    0.6729    0.0000 C   0  0  0  0  0  0  0  0  0  0  0  0
    6.4616   -2.5390    0.0000 C   0  0  0  0  0  0  0  0  0  0  0  0
    6.4616   -3.3640    0.0000 C   0  0  0  0  0  0  0  0  0  0  0  0
    4.8367    0.6603    0.0000 C   0  0  0  0  0  0  0  0  0  0  0  0
    3.5952    1.3685    0.0000 C   0  0  0  0  0  0  0  0  0  0  0  0
    6.4616   -5.8387    0.0000 C   0  0  0  0  0  0  0  0  0  0  0  0
    5.7492   -4.6013    0.0000 C   0  0  0  0  0  0  0  0  0  0  0  0
   -3.3620    1.3935    0.0000 C   0  0  0  0  0  0  0  0  0  0  0  0
   -8.9362    3.5307    0.0000 C   0  0  0  0  0  0  0  0  0  0  0  0
   -8.0988    3.5433    0.0000 C   0  0  0  0  0  0  0  0  0  0  0  0
    2.3148    6.5119    0.0000 H   0  0  0  0  0  0  0  0  0  0  0  0
   -0.4346    4.9833    0.0000 H   0  0  0  0  0  0  0  0  0  0  0  0
    7.8920   -1.9510    0.0000 H   0  0  0  0  0  0  0  0  0  0  0  0
   -0.1202    4.2641    0.0000 H   0  0  0  0  0  0  0  0  0  0  0  0
   -3.5415    0.1035    0.0000 H   0  0  0  0  0  0  0  0  0  0  0  0
   -2.8370   -0.2318    0.0000 H   0  0  0  0  0  0  0  0  0  0  0  0
   -1.3959   -2.2863    0.0000 H   0  0  0  0  0  0  0  0  0  0  0  0
    0.7510    0.0952    0.0000 H   0  0  0  0  0  0  0  0  0  0  0  0
   -5.7128   -2.2781    0.0000 H   0  0  0  0  0  0  0  0  0  0  0  0
    2.8977   -2.2863    0.0000 H   0  0  0  0  0  0  0  0  0  0  0  0
   -7.8644    0.1035    0.0000 H   0  0  0  0  0  0  0  0  0  0  0  0
    5.0379    0.0952    0.0000 H   0  0  0  0  0  0  0  0  0  0  0  0
    2.2896    3.2926    0.0000 H   0  0  0  0  0  0  0  0  0  0  0  0
    1.2204    3.3154    0.0000 H   0  0  0  0  0  0  0  0  0  0  0  0
    9.3224    0.0952    0.0000 H   0  0  0  0  0  0  0  0  0  0  0  0
   -0.6847   -1.9510    0.0000 H   0  0  0  0  0  0  0  0  0  0  0  0
    1.4623   -0.2318    0.0000 H   0  0  0  0  0  0  0  0  0  0  0  0
   -7.1476   -0.2236    0.0000 H   0  0  0  0  0  0  0  0  0  0  0  0
   -4.9923   -1.9510    0.0000 H   0  0  0  0  0  0  0  0  0  0  0  0
    3.6077   -1.9593    0.0000 H   0  0  0  0  0  0  0  0  0  0  0  0
    5.7492   -0.2318    0.0000 H   0  0  0  0  0  0  0  0  0  0  0  0
   -9.3000   -1.9510    0.0000 H   0  0  0  0  0  0  0  0  0  0  0  0
  -10.0163   -2.2781    0.0000 H   0  0  0  0  0  0  0  0  0  0  0  0
    1.9300    2.8302    0.0000 H   0  0  0  0  0  0  0  0  0  0  0  0
   10.9631   -1.8362    0.0000 H   0  0  0  0  0  0  0  0  0  0  0  0
    4.0715   -4.9809    0.0000 H   0  0  0  0  0  0  0  0  0  0  0  0
  -10.3334    0.2207    0.0000 H   0  0  0  0  0  0  0  0  0  0  0  0
   -9.7142    0.9340    0.0000 H   0  0  0  0  0  0  0  0  0  0  0  0
   -8.2099   -2.2652    0.0000 H   0  0  0  0  0  0  0  0  0  0  0  0
   -7.7449   -3.0154    0.0000 H   0  0  0  0  0  0  0  0  0  0  0  0
    0.4289   -2.4042    0.0000 H   0  0  0  0  0  0  0  0  0  0  0  0
    1.0536   -3.1156    0.0000 H   0  0  0  0  0  0  0  0  0  0  0  0
   -1.7218    0.2175    0.0000 H   0  0  0  0  0  0  0  0  0  0  0  0
   -1.1015    0.9304    0.0000 H   0  0  0  0  0  0  0  0  0  0  0  0
   -6.0262    0.2185    0.0000 H   0  0  0  0  0  0  0  0  0  0  0  0
   -5.4097    0.9327    0.0000 H   0  0  0  0  0  0  0  0  0  0  0  0
  -10.3431    1.3698    0.0000 H   0  0  0  0  0  0  0  0  0  0  0  0
    2.5731    0.2169    0.0000 H   0  0  0  0  0  0  0  0  0  0  0  0
    3.1927    0.9300    0.0000 H   0  0  0  0  0  0  0  0  0  0  0  0
    2.5737   -7.2529    0.0000 H   0  0  0  0  0  0  0  0  0  0  0  0
    4.0590   -6.4152    0.0000 H   0  0  0  0  0  0  0  0  0  0  0  0
   -6.6294    1.4071    0.0000 H   0  0  0  0  0  0  0  0  0  0  0  0
   11.4680   -2.2781    0.0000 H   0  0  0  0  0  0  0  0  0  0  0  0
   12.3098   -0.7951    0.0000 H   0  0  0  0  0  0  0  0  0  0  0  0
    6.1129   -0.3302    0.0000 H   0  0  0  0  0  0  0  0  0  0  0  0
    6.5780    0.4200    0.0000 H   0  0  0  0  0  0  0  0  0  0  0  0
   -7.5383   -0.2061    0.0000 H   0  0  0  0  0  0  0  0  0  0  0  0
    8.0576   -5.1107    0.0000 H   0  0  0  0  0  0  0  0  0  0  0  0
   -3.7626   -2.6677    0.0000 H   0  0  0  0  0  0  0  0  0  0  0  0
   -2.8340   -3.2009    0.0000 H   0  0  0  0  0  0  0  0  0  0  0  0
   -0.8179    2.9811    0.0000 H   0  0  0  0  0  0  0  0  0  0  0  0
    1.9901    1.4028    0.0000 H   0  0  0  0  0  0  0  0  0  0  0  0
    1.3404   -5.1485    0.0000 H   0  0  0  0  0  0  0  0  0  0  0  0
    4.1273   -3.5610    0.0000 H   0  0  0  0  0  0  0  0  0  0  0  0
   -8.5197   -3.2346    0.0000 H   0  0  0  0  0  0  0  0  0  0  0  0
   -5.4158   -2.3961    0.0000 H   0  0  0  0  0  0  0  0  0  0  0  0
    1.0717   -0.2174    0.0000 H   0  0  0  0  0  0  0  0  0  0  0  0
    3.2046   -1.9462    0.0000 H   0  0  0  0  0  0  0  0  0  0  0  0
   -1.7318    1.3584    0.0000 H   0  0  0  0  0  0  0  0  0  0  0  0
    0.4179   -3.5315    0.0000 H   0  0  0  0  0  0  0  0  0  0  0  0
   -4.9270   -4.1964    0.0000 H   0  0  0  0  0  0  0  0  0  0  0  0
   -8.0425   -5.0298    0.0000 H   0  0  0  0  0  0  0  0  0  0  0  0
    8.8535    0.4186    0.0000 H   0  0  0  0  0  0  0  0  0  0  0  0
    7.9969    1.0089    0.0000 H   0  0  0  0  0  0  0  0  0  0  0  0
   -2.1127   -3.5133    0.0000 H   0  0  0  0  0  0  0  0  0  0  0  0
   -6.0353    1.3541    0.0000 H   0  0  0  0  0  0  0  0  0  0  0  0
    7.0398    1.3435    0.0000 H   0  0  0  0  0  0  0  0  0  0  0  0
    8.2543    0.9570    0.0000 H   0  0  0  0  0  0  0  0  0  0  0  0
    4.8223   -2.6612    0.0000 H   0  0  0  0  0  0  0  0  0  0  0  0
    5.7484   -3.1967    0.0000 H   0  0  0  0  0  0  0  0  0  0  0  0
    4.5419    1.5856    0.0000 H   0  0  0  0  0  0  0  0  0  0  0  0
  -12.3841   -0.7485    0.0000 H   0  0  0  0  0  0  0  0  0  0  0  0
  -11.4675   -2.3593    0.0000 H   0  0  0  0  0  0  0  0  0  0  0  0
  -12.3908   -1.8185    0.0000 H   0  0  0  0  0  0  0  0  0  0  0  0
   -3.2680    2.9968    0.0000 H   0  0  0  0  0  0  0  0  0  0  0  0
    5.5346   -5.5482    0.0000 H   0  0  0  0  0  0  0  0  0  0  0  0
    9.1095   -2.6617    0.0000 H   0  0  0  0  0  0  0  0  0  0  0  0
   10.9627   -2.6617    0.0000 H   0  0  0  0  0  0  0  0  0  0  0  0
   10.0361   -3.1967    0.0000 H   0  0  0  0  0  0  0  0  0  0  0  0
  -10.3681    2.7886    0.0000 H   0  0  0  0  0  0  0  0  0  0  0  0
    8.1009   -3.2421    0.0000 H   0  0  0  0  0  0  0  0  0  0  0  0
    7.1750   -2.7065    0.0000 H   0  0  0  0  0  0  0  0  0  0  0  0
   -6.6420    2.8459    0.0000 H   0  0  0  0  0  0  0  0  0  0  0  0
   -3.2362   -0.2151    0.0000 H   0  0  0  0  0  0  0  0  0  0  0  0
    7.3885   -2.0045    0.0000 H   0  0  0  0  0  0  0  0  0  0  0  0
    7.3881   -3.0742    0.0000 H   0  0  0  0  0  0  0  0  0  0  0  0
    5.5346   -3.8984    0.0000 H   0  0  0  0  0  0  0  0  0  0  0  0
    5.5351   -2.8287    0.0000 H   0  0  0  0  0  0  0  0  0  0  0  0
    5.3764   -0.2636    0.0000 H   0  0  0  0  0  0  0  0  0  0  0  0
    5.3670    1.5897    0.0000 H   0  0  0  0  0  0  0  0  0  0  0  0
    5.9067    0.6657    0.0000 H   0  0  0  0  0  0  0  0  0  0  0  0
    4.1249    2.2982    0.0000 H   0  0  0  0  0  0  0  0  0  0  0  0
    2.5252    1.3624    0.0000 H   0  0  0  0  0  0  0  0  0  0  0  0
    3.0550    2.2921    0.0000 H   0  0  0  0  0  0  0  0  0  0  0  0
    5.5350   -6.3737    0.0000 H   0  0  0  0  0  0  0  0  0  0  0  0
    7.3882   -6.3737    0.0000 H   0  0  0  0  0  0  0  0  0  0  0  0
    6.4616   -6.9087    0.0000 H   0  0  0  0  0  0  0  0  0  0  0  0
    5.7505   -3.5313    0.0000 H   0  0  0  0  0  0  0  0  0  0  0  0
    4.8219   -5.1351    0.0000 H   0  0  0  0  0  0  0  0  0  0  0  0
    4.8232   -4.0651    0.0000 H   0  0  0  0  0  0  0  0  0  0  0  0
   -2.3301    1.4054    0.0000 H   0  0  0  0  0  0  0  0  0  0  0  0
   -9.4675    4.4154    0.0000 H   0  0  0  0  0  0  0  0  0  0  0  0
   -7.5959    4.4445    0.0000 H   0  0  0  0  0  0  0  0  0  0  0  0
  2  7  1  0  0  0  0
  2  4  1  0  0  0  0
  2118  1  0  0  0  0
  3  1  1  0  0  0  0
  4  6  1  0  0  0  0
  6 10  1  0  0  0  0
  6119  1  0  0  0  0
  7 26  1  0  0  0  0
  8 20  1  0  0  0  0
  9  5  1  0  0  0  0
  9  1  1  0  0  0  0
  9 95  1  0  0  0  0
  9120  1  6  0  0  0
 10 17  1  0  0  0  0
 10 26  1  0  0  0  0
 10121  1  6  0  0  0
 11 18  1  0  0  0  0
 12 25  1  0  0  0  0
 13 23  1  0  0  0  0
 14 22  1  0  0  0  0
 15 21  1  0  0  0  0
 16 24  1  0  0  0  0
 17 38  1  0  0  0  0
 18122  1  0  0  0  0
 19 18  1  0  0  0  0
 19  8  1  0  0  0  0
 19 82  1  0  0  0  0
 19123  1  1  0  0  0
 20124  1  0  0  0  0
 21125  1  0  0  0  0
 22126  1  0  0  0  0
 23127  1  0  0  0  0
 24128  1  0  0  0  0
 25129  1  0  0  0  0
 26130  1  0  0  0  0
 26131  1  0  0  0  0
 27  5  1  0  0  0  0
 27132  1  0  0  0  0
 28 20  1  0  0  0  0
 28 15  1  0  0  0  0
 28 58  1  0  0  0  0
 28133  1  6  0  0  0
 29 21  1  0  0  0  0
 29 13  1  0  0  0  0
 29 57  1  0  0  0  0
 29134  1  6  0  0  0
 30 24  1  0  0  0  0
 30 14  1  0  0  0  0
 30 56  1  0  0  0  0
 30135  1  6  0  0  0
 31 22  1  0  0  0  0
 31 11  1  0  0  0  0
 31 60  1  0  0  0  0
 31136  1  1  0  0  0
 32 23  1  0  0  0  0
 32 12  1  0  0  0  0
 32 64  1  0  0  0  0
 32137  1  6  0  0  0
 33 41  1  0  0  0  0
 34 25  1  0  0  0  0
 34  3  1  0  0  0  0
 34 99  1  0  0  0  0
 34138  1  1  0  0  0
 35 16  1  0  0  0  0
 35 37  1  0  0  0  0
 35 45  1  0  0  0  0
 35139  1  1  0  0  0
 36 40  1  0  0  0  0
 37140  1  0  0  0  0
 38 68  1  0  0  0  0
 38141  1  0  0  0  0
 39 37  1  0  0  0  0
 40 27  1  0  0  0  0
 40104  1  0  0  0  0
 40142  1  6  0  0  0
 41 73  1  0  0  0  0
 41143  1  0  0  0  0
 42  3  2  0  0  0  0
 43  4  2  0  0  0  0
 44  5  2  0  0  0  0
 45144  1  0  0  0  0
 45145  1  0  0  0  0
 46  8  2  0  0  0  0
 47 14  2  0  0  0  0
 48 11  2  0  0  0  0
 49 12  2  0  0  0  0
 50 15  2  0  0  0  0
 51 16  2  0  0  0  0
 52 13  2  0  0  0  0
 53 17  2  0  0  0  0
 54 61  2  0  0  0  0
 55  7  2  0  0  0  0
 56146  1  0  0  0  0
 56147  1  0  0  0  0
 57148  1  0  0  0  0
 57149  1  0  0  0  0
 58150  1  0  0  0  0
 58151  1  0  0  0  0
 59 45  1  0  0  0  0
 60152  1  0  0  0  0
 60153  1  0  0  0  0
 61 59  1  0  0  0  0
 61154  1  0  0  0  0
 62 33  2  0  0  0  0
 63 36  2  0  0  0  0
 64155  1  0  0  0  0
 64156  1  0  0  0  0
 65 97  2  0  0  0  0
 66 39  2  0  0  0  0
 67 70  2  0  0  0  0
 67 54  1  0  0  0  0
 68 83  1  0  0  0  0
 68 84  2  0  0  0  0
 69 33  1  0  0  0  0
 69157  1  0  0  0  0
 69158  1  0  0  0  0
 70 77  1  0  0  0  0
 70159  1  0  0  0  0
 71 36  1  0  0  0  0
 71160  1  0  0  0  0
 71161  1  0  0  0  0
 72  1  1  0  0  0  0
 72162  1  0  0  0  0
 72163  1  0  0  0  0
 73 85  2  0  0  0  0
 73 86  1  0  0  0  0
 74 58  1  0  0  0  0
 75 57  1  0  0  0  0
 76 56  1  0  0  0  0
 77 59  2  0  0  0  0
 77164  1  0  0  0  0
 78 93  1  0  0  0  0
 78 94  2  0  0  0  0
 79 60  1  0  0  0  0
 80106  1  0  0  0  0
 80165  1  0  0  0  0
 81 78  1  0  0  0  0
 82166  1  0  0  0  0
 82167  1  0  0  0  0
 83 91  2  0  0  0  0
 83168  1  0  0  0  0
 84 89  1  0  0  0  0
 84169  1  0  0  0  0
 85 92  1  0  0  0  0
 85170  1  0  0  0  0
 86 90  2  0  0  0  0
 86171  1  0  0  0  0
 87 76  2  0  0  0  0
 87172  1  0  0  0  0
 88 76  1  0  0  0  0
 88173  1  0  0  0  0
 89 74  2  0  0  0  0
 89174  1  0  0  0  0
 90 75  1  0  0  0  0
 90175  1  0  0  0  0
 91 74  1  0  0  0  0
 91176  1  0  0  0  0
 92 75  2  0  0  0  0
 92177  1  0  0  0  0
 93 88  2  0  0  0  0
 93178  1  0  0  0  0
 94 87  1  0  0  0  0
 94179  1  0  0  0  0
 95180  1  0  0  0  0
 95181  1  0  0  0  0
 96 82  1  0  0  0  0
 96182  1  0  0  0  0
 97 79  1  0  0  0  0
 97183  1  0  0  0  0
 98 72  1  0  0  0  0
 98 95  1  0  0  0  0
 98184  1  0  0  0  0
 98185  1  0  0  0  0
 99186  1  0  0  0  0
 99187  1  0  0  0  0
100 64  1  0  0  0  0
100188  1  0  0  0  0
101 39  1  0  0  0  0
101189  1  0  0  0  0
101190  1  0  0  0  0
101191  1  0  0  0  0
102115  2  0  0  0  0
102 65  1  0  0  0  0
102192  1  0  0  0  0
103 80  1  0  0  0  0
103193  1  0  0  0  0
104194  1  0  0  0  0
104195  1  0  0  0  0
104196  1  0  0  0  0
105 54  1  0  0  0  0
105197  1  0  0  0  0
106110  1  0  0  0  0
106198  1  0  0  0  0
106199  1  0  0  0  0
107 67  1  0  0  0  0
107200  1  0  0  0  0
108 79  2  0  0  0  0
108201  1  0  0  0  0
109 99  1  0  0  0  0
109202  1  0  0  0  0
109203  1  0  0  0  0
110109  1  0  0  0  0
110204  1  0  0  0  0
110205  1  0  0  0  0
111100  1  0  0  0  0
111206  1  0  0  0  0
111207  1  0  0  0  0
111208  1  0  0  0  0
112100  1  0  0  0  0
112209  1  0  0  0  0
112210  1  0  0  0  0
112211  1  0  0  0  0
113103  1  0  0  0  0
113212  1  0  0  0  0
113213  1  0  0  0  0
113214  1  0  0  0  0
114103  1  0  0  0  0
114215  1  0  0  0  0
114216  1  0  0  0  0
114217  1  0  0  0  0
115108  1  0  0  0  0
115218  1  0  0  0  0
116105  2  0  0  0  0
116219  1  0  0  0  0
117107  2  0  0  0  0
117116  1  0  0  0  0
117220  1  0  0  0  0
M  END
>  <DRUGBANK_ID>
DB06699

>  <COMMON_NAME>
Degarelix

>  <CAS_NUMBER>
214766-78-6

>  <UNII>
SX0XJI3A11

>  <SYNONYMS>
Degarelix

$$$$
