L20
 OpenBabel10282417072D

 53 57  0  0  0  0  0  0  0  0999 V2000
    0.1093   -2.9809    0.0000 C   0  0  0  0  0  0  0  0  0  0  0  0
   -0.3756   -3.6483    0.0000 C   0  0  0  0  0  0  0  0  0  0  0  0
   -0.1206   -4.4329    0.0000 N   0  0  0  0  0  0  0  0  0  0  0  0
   -0.7881   -4.9178    0.0000 N   0  0  0  0  0  0  0  0  0  0  0  0
   -1.4555   -4.4329    0.0000 C   0  0  0  0  0  0  0  0  0  0  0  0
   -2.2625   -4.6045    0.0000 C   0  0  0  0  0  0  0  0  0  0  0  0
   -2.8145   -3.9914    0.0000 C   0  0  0  0  0  0  0  0  0  0  0  0
   -2.5596   -3.2067    0.0000 C   0  0  0  0  0  0  0  0  0  0  0  0
   -1.7526   -3.0352    0.0000 C   0  0  0  0  0  0  0  0  0  0  0  0
   -1.2006   -3.6483    0.0000 C   0  0  0  0  0  0  0  0  0  0  0  0
   -3.1116   -2.5936    0.0000 C   0  0  0  0  0  0  0  0  0  0  0  0
   -3.9186   -2.7652    0.0000 C   0  0  0  0  0  0  0  0  0  0  0  0
   -4.4706   -2.1521    0.0000 N   0  0  0  0  0  0  0  0  0  0  0  0
   -4.2157   -1.3675    0.0000 C   0  0  0  0  0  0  0  0  0  0  0  0
   -3.4087   -1.1959    0.0000 C   0  0  0  0  0  0  0  0  0  0  0  0
   -3.1538   -0.4113    0.0000 O   0  0  0  0  0  0  0  0  0  0  0  0
   -2.3468   -0.2398    0.0000 C   0  0  0  0  0  0  0  0  0  0  0  0
   -2.0919    0.5448    0.0000 C   0  0  1  0  0  0  0  0  0  0  0  0
   -2.6439    1.1579    0.0000 N   0  0  0  0  0  0  0  0  0  0  0  0
   -1.2849    0.7164    0.0000 C   0  0  0  0  0  0  0  0  0  0  0  0
   -1.0300    1.5010    0.0000 C   0  0  0  0  0  0  0  0  0  0  0  0
   -1.5149    2.1684    0.0000 C   0  0  0  0  0  0  0  0  0  0  0  0
   -1.0300    2.8359    0.0000 N   0  0  0  0  0  0  0  0  0  0  0  0
   -0.2453    2.5809    0.0000 C   0  0  0  0  0  0  0  0  0  0  0  0
    0.4691    2.9934    0.0000 C   0  0  0  0  0  0  0  0  0  0  0  0
    1.1836    2.5809    0.0000 C   0  0  0  0  0  0  0  0  0  0  0  0
    1.1836    1.7559    0.0000 C   0  0  0  0  0  0  0  0  0  0  0  0
    0.4691    1.3434    0.0000 C   0  0  0  0  0  0  0  0  0  0  0  0
   -0.2453    1.7559    0.0000 C   0  0  0  0  0  0  0  0  0  0  0  0
   -2.8567   -1.8090    0.0000 C   0  0  0  0  0  0  0  0  0  0  0  0
   -2.6630    0.4234    0.0000 H   0  0  0  0  0  0  0  0  0  0  0  0
    1.1734   -3.0928    0.0000 H   0  0  0  0  0  0  0  0  0  0  0  0
   -0.3259   -2.0034    0.0000 H   0  0  0  0  0  0  0  0  0  0  0  0
    0.7382   -2.1153    0.0000 H   0  0  0  0  0  0  0  0  0  0  0  0
   -0.7881   -5.9023    0.0000 H   0  0  0  0  0  0  0  0  0  0  0  0
   -2.5814   -5.5860    0.0000 H   0  0  0  0  0  0  0  0  0  0  0  0
   -3.8239   -4.2060    0.0000 H   0  0  0  0  0  0  0  0  0  0  0  0
   -1.4337   -2.0537    0.0000 H   0  0  0  0  0  0  0  0  0  0  0  0
   -4.2375   -3.7467    0.0000 H   0  0  0  0  0  0  0  0  0  0  0  0
   -4.9063   -0.6006    0.0000 H   0  0  0  0  0  0  0  0  0  0  0  0
   -1.6308   -1.0350    0.0000 H   0  0  0  0  0  0  0  0  0  0  0  0
   -1.3002   -0.0173    0.0000 H   0  0  0  0  0  0  0  0  0  0  0  0
   -2.3287    2.1280    0.0000 H   0  0  0  0  0  0  0  0  0  0  0  0
   -3.6416    0.9459    0.0000 H   0  0  0  0  0  0  0  0  0  0  0  0
   -0.5689   -0.0787    0.0000 H   0  0  0  0  0  0  0  0  0  0  0  0
   -0.2383    0.9389    0.0000 H   0  0  0  0  0  0  0  0  0  0  0  0
   -2.5469    2.1684    0.0000 H   0  0  0  0  0  0  0  0  0  0  0  0
   -1.3342    3.7722    0.0000 H   0  0  0  0  0  0  0  0  0  0  0  0
    0.4691    4.0254    0.0000 H   0  0  0  0  0  0  0  0  0  0  0  0
    2.0773    3.0969    0.0000 H   0  0  0  0  0  0  0  0  0  0  0  0
    2.0773    1.2399    0.0000 H   0  0  0  0  0  0  0  0  0  0  0  0
    0.4691    0.3114    0.0000 H   0  0  0  0  0  0  0  0  0  0  0  0
   -1.8473   -1.5944    0.0000 H   0  0  0  0  0  0  0  0  0  0  0  0
  1  2  1  0  0  0  0
  1 32  1  0  0  0  0
  1 33  1  0  0  0  0
  1 34  1  0  0  0  0
  2  3  2  0  0  0  0
  2 10  1  0  0  0  0
  3  4  1  0  0  0  0
  4  5  1  0  0  0  0
  4 35  1  0  0  0  0
  5  6  2  0  0  0  0
  5 10  1  0  0  0  0
  6  7  1  0  0  0  0
  6 36  1  0  0  0  0
  7  8  2  0  0  0  0
  7 37  1  0  0  0  0
  8  9  1  0  0  0  0
  8 11  1  0  0  0  0
  9 10  2  0  0  0  0
  9 38  1  0  0  0  0
 11 12  1  0  0  0  0
 11 30  2  0  0  0  0
 12 13  2  0  0  0  0
 12 39  1  0  0  0  0
 13 14  1  0  0  0  0
 14 15  2  0  0  0  0
 14 40  1  0  0  0  0
 15 16  1  0  0  0  0
 15 30  1  0  0  0  0
 16 17  1  0  0  0  0
 17 18  1  0  0  0  0
 17 41  1  0  0  0  0
 17 42  1  0  0  0  0
 18 19  1  0  0  0  0
 18 20  1  0  0  0  0
 18 31  1  6  0  0  0
 19 43  1  0  0  0  0
 19 44  1  0  0  0  0
 20 21  1  0  0  0  0
 20 45  1  0  0  0  0
 20 46  1  0  0  0  0
 21 22  2  0  0  0  0
 21 29  1  0  0  0  0
 22 23  1  0  0  0  0
 22 47  1  0  0  0  0
 23 24  1  0  0  0  0
 23 48  1  0  0  0  0
 24 25  2  0  0  0  0
 24 29  1  0  0  0  0
 25 26  1  0  0  0  0
 25 49  1  0  0  0  0
 26 27  2  0  0  0  0
 26 50  1  0  0  0  0
 27 28  1  0  0  0  0
 27 51  1  0  0  0  0
 28 29  2  0  0  0  0
 28 52  1  0  0  0  0
 30 53  1  0  0  0  0
M  END
>  <DRUGBANK_ID>
DB08073

>  <COMMON_NAME>
(2S)-1-(1H-INDOL-3-YL)-3-{[5-(3-METHYL-1H-INDAZOL-5-YL)PYRIDIN-3-YL]OXY}PROPAN-2-AMINE

>  <UNII>
Q4UG565ZYH

$$$$
