
 OpenBabel10282417072D

 48 50  0  0  0  0  0  0  0  0999 V2000
   -2.8579   -7.4250    0.0000 C   0  0  0  0  0  0  0  0  0  0  0  0
   -2.8579   -6.6000    0.0000 C   0  0  0  0  0  0  0  0  0  0  0  0
   -2.1434   -6.1875    0.0000 C   0  0  0  0  0  0  0  0  0  0  0  0
   -1.4289   -6.6000    0.0000 C   0  0  0  0  0  0  0  0  0  0  0  0
   -1.4289   -7.4250    0.0000 C   0  0  0  0  0  0  0  0  0  0  0  0
   -2.1434   -7.8375    0.0000 C   0  0  0  0  0  0  0  0  0  0  0  0
   -0.7145   -7.8375    0.0000 N   0  0  0  0  0  0  0  0  0  0  0  0
   -0.7145   -6.1875    0.0000 N   0  0  0  0  0  0  0  0  0  0  0  0
   -0.7145   -5.3625    0.0000 C   0  0  0  0  0  0  0  0  0  0  0  0
   -1.4289   -4.9500    0.0000 O   0  0  0  0  0  0  0  0  0  0  0  0
    0.0000   -4.9500    0.0000 C   0  0  0  0  0  0  0  0  0  0  0  0
    0.0000   -4.1250    0.0000 C   0  0  0  0  0  0  0  0  0  0  0  0
    0.7145   -3.7125    0.0000 C   0  0  0  0  0  0  0  0  0  0  0  0
    1.4289   -4.1250    0.0000 C   0  0  0  0  0  0  0  0  0  0  0  0
    1.4289   -4.9500    0.0000 C   0  0  0  0  0  0  0  0  0  0  0  0
    0.7145   -5.3625    0.0000 C   0  0  0  0  0  0  0  0  0  0  0  0
    2.1434   -3.7125    0.0000 C   0  0  0  0  0  0  0  0  0  0  0  0
    2.8579   -4.1250    0.0000 N   0  0  0  0  0  0  0  0  0  0  0  0
    3.5724   -3.7125    0.0000 C   0  0  0  0  0  0  0  0  0  0  0  0
    3.5724   -2.8875    0.0000 O   0  0  0  0  0  0  0  0  0  0  0  0
    4.2868   -4.1250    0.0000 O   0  0  0  0  0  0  0  0  0  0  0  0
    5.0013   -3.7125    0.0000 C   0  0  0  0  0  0  0  0  0  0  0  0
    5.7158   -4.1250    0.0000 C   0  0  0  0  0  0  0  0  0  0  0  0
    6.4302   -3.7125    0.0000 C   0  0  0  0  0  0  0  0  0  0  0  0
    7.1447   -4.1250    0.0000 N   0  0  0  0  0  0  0  0  0  0  0  0
    7.1447   -4.9500    0.0000 C   0  0  0  0  0  0  0  0  0  0  0  0
    6.4302   -5.3625    0.0000 C   0  0  0  0  0  0  0  0  0  0  0  0
    5.7158   -4.9500    0.0000 C   0  0  0  0  0  0  0  0  0  0  0  0
   -3.7516   -7.9410    0.0000 H   0  0  0  0  0  0  0  0  0  0  0  0
   -3.7516   -6.0840    0.0000 H   0  0  0  0  0  0  0  0  0  0  0  0
   -2.1434   -5.1555    0.0000 H   0  0  0  0  0  0  0  0  0  0  0  0
   -2.1434   -8.8695    0.0000 H   0  0  0  0  0  0  0  0  0  0  0  0
   -0.7145   -8.8220    0.0000 H   0  0  0  0  0  0  0  0  0  0  0  0
    0.1381   -7.3453    0.0000 H   0  0  0  0  0  0  0  0  0  0  0  0
    0.1381   -6.6797    0.0000 H   0  0  0  0  0  0  0  0  0  0  0  0
   -0.8937   -3.6090    0.0000 H   0  0  0  0  0  0  0  0  0  0  0  0
    0.7145   -2.6805    0.0000 H   0  0  0  0  0  0  0  0  0  0  0  0
    2.3226   -5.4660    0.0000 H   0  0  0  0  0  0  0  0  0  0  0  0
    0.7145   -6.3945    0.0000 H   0  0  0  0  0  0  0  0  0  0  0  0
    2.1434   -2.6425    0.0000 H   0  0  0  0  0  0  0  0  0  0  0  0
    3.0700   -3.1775    0.0000 H   0  0  0  0  0  0  0  0  0  0  0  0
    2.8579   -5.1095    0.0000 H   0  0  0  0  0  0  0  0  0  0  0  0
    5.0013   -2.6425    0.0000 H   0  0  0  0  0  0  0  0  0  0  0  0
    5.9279   -3.1775    0.0000 H   0  0  0  0  0  0  0  0  0  0  0  0
    6.4302   -2.6805    0.0000 H   0  0  0  0  0  0  0  0  0  0  0  0
    8.0384   -5.4660    0.0000 H   0  0  0  0  0  0  0  0  0  0  0  0
    6.4302   -6.3945    0.0000 H   0  0  0  0  0  0  0  0  0  0  0  0
    4.8221   -5.4660    0.0000 H   0  0  0  0  0  0  0  0  0  0  0  0
  1  2  2  0  0  0  0
  1  6  1  0  0  0  0
  1 29  1  0  0  0  0
  2  3  1  0  0  0  0
  2 30  1  0  0  0  0
  3  4  2  0  0  0  0
  3 31  1  0  0  0  0
  4  5  1  0  0  0  0
  4  8  1  0  0  0  0
  5  6  2  0  0  0  0
  5  7  1  0  0  0  0
  6 32  1  0  0  0  0
  7 33  1  0  0  0  0
  7 34  1  0  0  0  0
  8  9  1  0  0  0  0
  8 35  1  0  0  0  0
  9 10  2  0  0  0  0
  9 11  1  0  0  0  0
 11 12  2  0  0  0  0
 11 16  1  0  0  0  0
 12 13  1  0  0  0  0
 12 36  1  0  0  0  0
 13 14  2  0  0  0  0
 13 37  1  0  0  0  0
 14 15  1  0  0  0  0
 14 17  1  0  0  0  0
 15 16  2  0  0  0  0
 15 38  1  0  0  0  0
 16 39  1  0  0  0  0
 17 18  1  0  0  0  0
 17 40  1  0  0  0  0
 17 41  1  0  0  0  0
 18 19  1  0  0  0  0
 18 42  1  0  0  0  0
 19 20  2  0  0  0  0
 19 21  1  0  0  0  0
 21 22  1  0  0  0  0
 22 23  1  0  0  0  0
 22 43  1  0  0  0  0
 22 44  1  0  0  0  0
 23 24  2  0  0  0  0
 23 28  1  0  0  0  0
 24 25  1  0  0  0  0
 24 45  1  0  0  0  0
 25 26  2  0  0  0  0
 26 27  1  0  0  0  0
 26 46  1  0  0  0  0
 27 28  2  0  0  0  0
 27 47  1  0  0  0  0
 28 48  1  0  0  0  0
M  END
>  <DRUGBANK_ID>
DB11841

>  <COMMON_NAME>
Entinostat

>  <CAS_NUMBER>
209783-80-2

>  <UNII>
1ZNY4FKK9H

>  <SYNONYMS>
Entinostat; Entinostatum; N-(2-aminophenyl)-4-(N-(pyridin-3-ylmethoxycarbonyl)aminomethyl)benzamide; N-[[4-[(2-aminoanilino)-oxomethyl]phenyl]methyl]carbamic acid 3-pyridinylmethyl ester

$$$$
