888
 OpenBabel10282417072D

 19 18  0  0  0  0  0  0  0  0999 V2000
    5.9370    0.6188    0.0000 Cl  0  0  0  0  0  0  0  0  0  0  0  0
    1.6500    0.6188    0.0000 Cl  0  0  0  0  0  0  0  0  0  0  0  0
    3.7935    0.2063    0.0000 N   0  0  0  0  0  0  0  0  0  0  0  0
    4.5080    0.6188    0.0000 C   0  0  0  0  0  0  0  0  0  0  0  0
    3.0791    0.6188    0.0000 C   0  0  0  0  0  0  0  0  0  0  0  0
    3.7935   -0.6188    0.0000 C   0  0  0  0  0  0  0  0  0  0  0  0
    5.2224    0.2063    0.0000 C   0  0  0  0  0  0  0  0  0  0  0  0
    2.3645    0.2063    0.0000 C   0  0  0  0  0  0  0  0  0  0  0  0
    4.5080    1.6888    0.0000 H   0  0  0  0  0  0  0  0  0  0  0  0
    5.4347    1.1538    0.0000 H   0  0  0  0  0  0  0  0  0  0  0  0
    3.0792    1.6888    0.0000 H   0  0  0  0  0  0  0  0  0  0  0  0
    2.1525    1.1539    0.0000 H   0  0  0  0  0  0  0  0  0  0  0  0
    2.8669   -1.1538    0.0000 H   0  0  0  0  0  0  0  0  0  0  0  0
    4.7201   -1.1538    0.0000 H   0  0  0  0  0  0  0  0  0  0  0  0
    3.7935   -1.6888    0.0000 H   0  0  0  0  0  0  0  0  0  0  0  0
    5.2223   -0.8637    0.0000 H   0  0  0  0  0  0  0  0  0  0  0  0
    4.2957   -0.3287    0.0000 H   0  0  0  0  0  0  0  0  0  0  0  0
    2.3645   -0.8637    0.0000 H   0  0  0  0  0  0  0  0  0  0  0  0
    3.2911   -0.3288    0.0000 H   0  0  0  0  0  0  0  0  0  0  0  0
  1  7  1  0  0  0  0
  2  8  1  0  0  0  0
  3  4  1  0  0  0  0
  3  5  1  0  0  0  0
  3  6  1  0  0  0  0
  4  7  1  0  0  0  0
  4  9  1  0  0  0  0
  4 10  1  0  0  0  0
  5  8  1  0  0  0  0
  5 11  1  0  0  0  0
  5 12  1  0  0  0  0
  6 13  1  0  0  0  0
  6 14  1  0  0  0  0
  6 15  1  0  0  0  0
  7 16  1  0  0  0  0
  7 17  1  0  0  0  0
  8 18  1  0  0  0  0
  8 19  1  0  0  0  0
M  END
>  <DRUGBANK_ID>
DB00888

>  <SECONDARY_ACCESSION_NUMBERS>
APRD00249

>  <COMMON_NAME>
Mechlorethamine

>  <CAS_NUMBER>
51-75-2

>  <UNII>
50D9XSG0VR

>  <SYNONYMS>
2,2'-dichloro-N-methyldiethylamine; bis(2-chloroethyl)methylamine; bis(β-chloroethyl)methylamine; Chlormethine; Chlormethinum; Clormetina; Mechlorethamine; methylbis(2-chloroethyl)amine; methylbis(β-chloroethyl)amine; Mustine; N-methyl-bis(2-chloroethyl)amine; N-methyl-bis(β-chloroethyl)amine; Nitrogen mustard; β,β'-dichlorodiethyl-N-methylamine

$$$$
