
 OpenBabel10282417072D

 41 43  0  0  0  0  0  0  0  0999 V2000
   -1.0187   -0.2312    0.0000 C   0  0  0  0  0  0  0  0  0  0  0  0
    2.4187    0.4687    0.0000 N   0  0  0  0  0  0  0  0  0  0  0  0
    2.0062    1.1812    0.0000 C   0  0  0  0  0  0  0  0  0  0  0  0
    0.4062   -0.2312    0.0000 C   0  0  0  0  0  0  0  0  0  0  0  0
   -0.3062    0.1812    0.0000 C   0  0  0  0  0  0  0  0  0  0  0  0
    1.1187    0.1854    0.0000 C   0  0  3  0  0  0  0  0  0  0  0  0
   -1.7437    0.1812    0.0000 O   0  0  0  0  0  0  0  0  0  0  0  0
    1.2020    1.0062    0.0000 C   0  0  0  0  0  0  0  0  0  0  0  0
   -1.0187   -1.0562    0.0000 C   0  0  0  0  0  0  0  0  0  0  0  0
    1.8687   -0.1437    0.0000 C   0  0  0  0  0  0  0  0  0  0  0  0
    2.3437    1.9438    0.0000 O   0  0  0  0  0  0  0  0  0  0  0  0
    0.4062   -1.0562    0.0000 C   0  0  0  0  0  0  0  0  0  0  0  0
   -0.3062   -1.4687    0.0000 C   0  0  0  0  0  0  0  0  0  0  0  0
   -1.7437    1.0062    0.0000 C   0  0  0  0  0  0  0  0  0  0  0  0
   -1.7312   -1.4687    0.0000 O   0  0  0  0  0  0  0  0  0  0  0  0
   -1.7312   -2.2937    0.0000 C   0  0  0  0  0  0  0  0  0  0  0  0
   -1.0812    1.5062    0.0000 C   0  0  0  0  0  0  0  0  0  0  0  0
   -2.4187    1.4937    0.0000 C   0  0  0  0  0  0  0  0  0  0  0  0
   -2.1687    2.2812    0.0000 C   0  0  0  0  0  0  0  0  0  0  0  0
   -1.3437    2.2937    0.0000 C   0  0  0  0  0  0  0  0  0  0  0  0
    3.3979    0.3670    0.0000 H   0  0  0  0  0  0  0  0  0  0  0  0
   -0.3062    1.2132    0.0000 H   0  0  0  0  0  0  0  0  0  0  0  0
    0.2187    0.7641    0.0000 H   0  0  0  0  0  0  0  0  0  0  0  0
    0.4038    1.7188    0.0000 H   0  0  0  0  0  0  0  0  0  0  0  0
    0.2046    0.6189    0.0000 H   0  0  0  0  0  0  0  0  0  0  0  0
    2.0946   -1.1896    0.0000 H   0  0  0  0  0  0  0  0  0  0  0  0
    1.0401   -0.8207    0.0000 H   0  0  0  0  0  0  0  0  0  0  0  0
    1.3003   -1.5716    0.0000 H   0  0  0  0  0  0  0  0  0  0  0  0
   -0.3062   -2.5007    0.0000 H   0  0  0  0  0  0  0  0  0  0  0  0
   -1.7549    2.0761    0.0000 H   0  0  0  0  0  0  0  0  0  0  0  0
   -2.6578   -2.8287    0.0000 H   0  0  0  0  0  0  0  0  0  0  0  0
   -0.8046   -2.8287    0.0000 H   0  0  0  0  0  0  0  0  0  0  0  0
   -1.7312   -3.3637    0.0000 H   0  0  0  0  0  0  0  0  0  0  0  0
   -0.0594    1.1887    0.0000 H   0  0  0  0  0  0  0  0  0  0  0  0
   -0.3324    2.2705    0.0000 H   0  0  0  0  0  0  0  0  0  0  0  0
   -3.4347    1.1582    0.0000 H   0  0  0  0  0  0  0  0  0  0  0  0
   -3.1797    2.2459    0.0000 H   0  0  0  0  0  0  0  0  0  0  0  0
   -2.8071    3.1399    0.0000 H   0  0  0  0  0  0  0  0  0  0  0  0
   -1.6954    3.2408    0.0000 H   0  0  0  0  0  0  0  0  0  0  0  0
   -0.7247    3.1664    0.0000 H   0  0  0  0  0  0  0  0  0  0  0  0
   -1.8421    3.2406    0.0000 H   0  0  0  0  0  0  0  0  0  0  0  0
  2 10  1  0  0  0  0
  2  3  1  0  0  0  0
  2 21  1  0  0  0  0
  3  8  1  0  0  0  0
  4  5  2  0  0  0  0
  5  1  1  0  0  0  0
  5 22  1  0  0  0  0
  6  4  1  0  0  0  0
  6  8  1  0  0  0  0
  6 10  1  0  0  0  0
  6 23  1  0  0  0  0
  7  1  1  0  0  0  0
  8 24  1  0  0  0  0
  8 25  1  0  0  0  0
  9  1  2  0  0  0  0
 10 26  1  0  0  0  0
 10 27  1  0  0  0  0
 11  3  2  0  0  0  0
 12 13  2  0  0  0  0
 12  4  1  0  0  0  0
 12 28  1  0  0  0  0
 13  9  1  0  0  0  0
 13 29  1  0  0  0  0
 14  7  1  0  0  0  0
 14 30  1  0  0  0  0
 15  9  1  0  0  0  0
 16 15  1  0  0  0  0
 16 31  1  0  0  0  0
 16 32  1  0  0  0  0
 16 33  1  0  0  0  0
 17 14  1  0  0  0  0
 17 34  1  0  0  0  0
 17 35  1  0  0  0  0
 18 14  1  0  0  0  0
 18 36  1  0  0  0  0
 18 37  1  0  0  0  0
 19 18  1  0  0  0  0
 19 38  1  0  0  0  0
 19 39  1  0  0  0  0
 20 17  1  0  0  0  0
 20 19  1  0  0  0  0
 20 40  1  0  0  0  0
 20 41  1  0  0  0  0
M  END
>  <DRUGBANK_ID>
DB01954

>  <SECONDARY_ACCESSION_NUMBERS>
EXPT02804

>  <COMMON_NAME>
Rolipram

>  <CAS_NUMBER>
61413-54-5

>  <UNII>
K676NL63N7

>  <SYNONYMS>
4-(3-(Cyclopentyloxy)-4-methoxyphenyl)-2-pyrrolidinone; Rolipram; Rolipramum

$$$$
