
 OpenBabel10282417072D

155156  0  0  1  0  0  0  0  0999 V2000
    4.7558    1.8725    0.0000 C   0  0  0  0  0  0  0  0  0  0  0  0
    4.9540    2.6733    0.0000 O   0  0  0  0  0  0  0  0  0  0  0  0
    4.3595    3.2453    0.0000 C   0  0  2  0  0  0  0  0  0  0  0  0
    3.5669    3.0165    0.0000 C   0  0  0  0  0  0  0  0  0  0  0  0
    3.3687    2.2157    0.0000 C   0  0  0  0  0  0  0  0  0  0  0  0
    3.9632    1.6436    0.0000 C   0  0  0  0  0  0  0  0  0  0  0  0
    2.5761    1.9869    0.0000 C   0  0  0  0  0  0  0  0  0  0  0  0
    2.3779    1.1860    0.0000 C   0  0  0  0  0  0  0  0  0  0  0  0
    1.5853    0.9572    0.0000 C   0  0  0  0  0  0  0  0  0  0  0  0
    1.3871    0.1564    0.0000 C   0  0  0  0  0  0  0  0  0  0  0  0
    1.9816   -0.4157    0.0000 O   0  0  0  0  0  0  0  0  0  0  0  0
    0.5945   -0.0725    0.0000 O   0  0  0  0  0  0  0  0  0  0  0  0
    0.3963   -0.8733    0.0000 C   0  0  1  0  0  0  0  0  0  0  0  0
   -0.3963   -1.1021    0.0000 C   0  0  1  0  0  0  0  0  0  0  0  0
   -0.5945   -1.9030    0.0000 C   0  0  0  0  0  0  0  0  0  0  0  0
   -0.9908   -0.5301    0.0000 C   0  0  0  0  0  0  0  0  0  0  0  0
   -1.7834   -0.7589    0.0000 C   0  0  0  0  0  0  0  0  0  0  0  0
   -2.3779   -0.1869    0.0000 C   0  0  1  0  0  0  0  0  0  0  0  0
   -2.1797    0.6140    0.0000 C   0  0  0  0  0  0  0  0  0  0  0  0
   -1.3871    0.8428    0.0000 C   0  0  2  0  0  0  0  0  0  0  0  0
   -1.9816    1.4148    0.0000 O   0  0  0  0  0  0  0  0  0  0  0  0
   -2.7742    1.1860    0.0000 C   0  0  0  0  0  0  0  0  0  0  0  0
   -1.1890    1.6436    0.0000 C   0  0  1  0  0  0  0  0  0  0  0  0
   -1.7834    2.2157    0.0000 C   0  0  0  0  0  0  0  0  0  0  0  0
   -0.3963    1.8725    0.0000 C   0  0  0  0  0  0  0  0  0  0  0  0
   -0.1982    2.6733    0.0000 C   0  0  0  0  0  0  0  0  0  0  0  0
    0.5945    2.9021    0.0000 C   0  0  2  0  0  0  0  0  0  0  0  0
    0.7926    3.7030    0.0000 C   0  0  0  0  0  0  0  0  0  0  0  0
    1.5853    3.9318    0.0000 C   0  0  2  0  0  0  0  0  0  0  0  0
    0.9908    4.5038    0.0000 O   0  0  0  0  0  0  0  0  0  0  0  0
    0.1982    4.2750    0.0000 C   0  0  0  0  0  0  0  0  0  0  0  0
    1.7834    4.7326    0.0000 C   0  0  1  0  0  0  0  0  0  0  0  0
    1.1890    5.3047    0.0000 C   0  0  0  0  0  0  0  0  0  0  0  0
    2.5761    4.9614    0.0000 C   0  0  1  0  0  0  0  0  0  0  0  0
    3.1705    4.3894    0.0000 C   0  0  0  0  0  0  0  0  0  0  0  0
    3.9632    4.6182    0.0000 C   0  0  0  0  0  0  0  0  0  0  0  0
    4.5576    4.0462    0.0000 C   0  0  0  0  0  0  0  0  0  0  0  0
    4.1613    5.4191    0.0000 C   0  0  0  0  0  0  0  0  0  0  0  0
    3.5669    5.9911    0.0000 C   0  0  0  0  0  0  0  0  0  0  0  0
    3.7650    6.7920    0.0000 O   0  0  0  0  0  0  0  0  0  0  0  0
    2.7742    5.7623    0.0000 O   0  0  0  0  0  0  0  0  0  0  0  0
    0.0000    3.4742    0.0000 O   0  0  0  0  0  0  0  0  0  0  0  0
   -0.7926    3.2453    0.0000 C   0  0  0  0  0  0  0  0  0  0  0  0
   -3.1705   -0.4157    0.0000 O   0  0  0  0  0  0  0  0  0  0  0  0
   -3.7650    0.1564    0.0000 C   0  0  0  0  0  0  0  0  0  0  0  0
    0.9908   -1.4453    0.0000 C   0  0  1  0  0  0  0  0  0  0  0  0
    1.7834   -1.2165    0.0000 C   0  0  0  0  0  0  0  0  0  0  0  0
    0.7926   -2.2462    0.0000 C   0  0  1  0  0  0  0  0  0  0  0  0
    0.0000   -2.4750    0.0000 O   0  0  0  0  0  0  0  0  0  0  0  0
   -0.1982   -3.2758    0.0000 C   0  0  0  0  0  0  0  0  0  0  0  0
    1.3871   -2.8182    0.0000 C   0  0  1  0  0  0  0  0  0  0  0  0
    1.1890   -3.6191    0.0000 C   0  0  0  0  0  0  0  0  0  0  0  0
    2.1797   -2.5894    0.0000 C   0  0  0  0  0  0  0  0  0  0  0  0
    2.7742   -3.1614    0.0000 C   0  0  0  0  0  0  0  0  0  0  0  0
    3.5669   -2.9326    0.0000 C   0  0  0  0  0  0  0  0  0  0  0  0
    3.7650   -2.1318    0.0000 O   0  0  0  0  0  0  0  0  0  0  0  0
    4.1613   -3.5047    0.0000 C   0  0  2  0  0  0  0  0  0  0  0  0
    3.9632   -4.3055    0.0000 C   0  0  0  0  0  0  0  0  0  0  0  0
    4.9540   -3.2758    0.0000 C   0  0  1  0  0  0  0  0  0  0  0  0
    5.5484   -3.8479    0.0000 C   0  0  0  0  0  0  0  0  0  0  0  0
    6.3411   -3.6191    0.0000 C   0  0  0  0  0  0  0  0  0  0  0  0
    6.9356   -4.1911    0.0000 C   0  0  0  0  0  0  0  0  0  0  0  0
    7.7282   -3.9623    0.0000 N   0  0  0  0  0  0  0  0  0  0  0  0
    7.9263   -3.1614    0.0000 C   0  0  0  0  0  0  0  0  0  0  0  0
    8.3227   -4.5343    0.0000 C   0  0  0  0  0  0  0  0  0  0  0  0
    9.1153   -4.3055    0.0000 O   0  0  0  0  0  0  0  0  0  0  0  0
    5.1521   -2.4750    0.0000 O   0  0  0  0  0  0  0  0  0  0  0  0
    5.9448   -2.2462    0.0000 C   0  0  0  0  0  0  0  0  0  0  0  0
    3.7278    1.5758    0.0000 H   0  0  0  0  0  0  0  0  0  0  0  0
    5.5268    1.1305    0.0000 H   0  0  0  0  0  0  0  0  0  0  0  0
    4.4987    0.8338    0.0000 H   0  0  0  0  0  0  0  0  0  0  0  0
    4.1025    2.2066    0.0000 H   0  0  0  0  0  0  0  0  0  0  0  0
    2.7959    3.7584    0.0000 H   0  0  0  0  0  0  0  0  0  0  0  0
    2.5389    2.7198    0.0000 H   0  0  0  0  0  0  0  0  0  0  0  0
    3.7062    0.6049    0.0000 H   0  0  0  0  0  0  0  0  0  0  0  0
    4.9912    1.9403    0.0000 H   0  0  0  0  0  0  0  0  0  0  0  0
    4.7342    0.9017    0.0000 H   0  0  0  0  0  0  0  0  0  0  0  0
    1.8325    2.7025    0.0000 H   0  0  0  0  0  0  0  0  0  0  0  0
    3.1215    0.4704    0.0000 H   0  0  0  0  0  0  0  0  0  0  0  0
    0.8417    1.6728    0.0000 H   0  0  0  0  0  0  0  0  0  0  0  0
    1.4243   -0.5765    0.0000 H   0  0  0  0  0  0  0  0  0  0  0  0
    0.3747   -1.8440    0.0000 H   0  0  0  0  0  0  0  0  0  0  0  0
   -1.6225   -2.1997    0.0000 H   0  0  0  0  0  0  0  0  0  0  0  0
    0.1765   -2.6449    0.0000 H   0  0  0  0  0  0  0  0  0  0  0  0
   -0.8515   -2.9417    0.0000 H   0  0  0  0  0  0  0  0  0  0  0  0
   -0.7429    0.4717    0.0000 H   0  0  0  0  0  0  0  0  0  0  0  0
   -2.0313   -1.7607    0.0000 H   0  0  0  0  0  0  0  0  0  0  0  0
   -2.6349   -1.2256    0.0000 H   0  0  0  0  0  0  0  0  0  0  0  0
   -2.9507    1.3559    0.0000 H   0  0  0  0  0  0  0  0  0  0  0  0
   -1.9227    1.6527    0.0000 H   0  0  0  0  0  0  0  0  0  0  0  0
   -2.4258    1.0998    0.0000 H   0  0  0  0  0  0  0  0  0  0  0  0
   -3.5452    1.9279    0.0000 H   0  0  0  0  0  0  0  0  0  0  0  0
   -3.0312    0.1473    0.0000 H   0  0  0  0  0  0  0  0  0  0  0  0
   -3.8022    0.8892    0.0000 H   0  0  0  0  0  0  0  0  0  0  0  0
   -2.2170    1.3469    0.0000 H   0  0  0  0  0  0  0  0  0  0  0  0
   -1.5263    3.2543    0.0000 H   0  0  0  0  0  0  0  0  0  0  0  0
   -2.8115    1.9191    0.0000 H   0  0  0  0  0  0  0  0  0  0  0  0
   -2.5543    2.9577    0.0000 H   0  0  0  0  0  0  0  0  0  0  0  0
    0.3474    1.1570    0.0000 H   0  0  0  0  0  0  0  0  0  0  0  0
   -0.9418    3.3889    0.0000 H   0  0  0  0  0  0  0  0  0  0  0  0
   -0.4442    3.1591    0.0000 H   0  0  0  0  0  0  0  0  0  0  0  0
    0.0216    4.4449    0.0000 H   0  0  0  0  0  0  0  0  0  0  0  0
    1.0496    4.7417    0.0000 H   0  0  0  0  0  0  0  0  0  0  0  0
    0.5466    4.1888    0.0000 H   0  0  0  0  0  0  0  0  0  0  0  0
   -0.5728    5.0169    0.0000 H   0  0  0  0  0  0  0  0  0  0  0  0
   -0.0588    3.2363    0.0000 H   0  0  0  0  0  0  0  0  0  0  0  0
   -0.8298    3.9782    0.0000 H   0  0  0  0  0  0  0  0  0  0  0  0
    0.7554    4.4359    0.0000 H   0  0  0  0  0  0  0  0  0  0  0  0
    1.4461    6.3433    0.0000 H   0  0  0  0  0  0  0  0  0  0  0  0
    0.1609    5.0081    0.0000 H   0  0  0  0  0  0  0  0  0  0  0  0
    0.4181    6.0467    0.0000 H   0  0  0  0  0  0  0  0  0  0  0  0
    1.8051    5.7033    0.0000 H   0  0  0  0  0  0  0  0  0  0  0  0
    2.9135    3.3507    0.0000 H   0  0  0  0  0  0  0  0  0  0  0  0
    3.9415    3.6475    0.0000 H   0  0  0  0  0  0  0  0  0  0  0  0
    5.5856    4.3430    0.0000 H   0  0  0  0  0  0  0  0  0  0  0  0
    5.3287    3.3043    0.0000 H   0  0  0  0  0  0  0  0  0  0  0  0
    5.1528    5.7054    0.0000 H   0  0  0  0  0  0  0  0  0  0  0  0
   -1.5637    3.9871    0.0000 H   0  0  0  0  0  0  0  0  0  0  0  0
   -1.0495    2.2066    0.0000 H   0  0  0  0  0  0  0  0  0  0  0  0
   -1.8206    2.9484    0.0000 H   0  0  0  0  0  0  0  0  0  0  0  0
   -3.5080    1.1951    0.0000 H   0  0  0  0  0  0  0  0  0  0  0  0
   -4.7930   -0.1403    0.0000 H   0  0  0  0  0  0  0  0  0  0  0  0
   -4.5360    0.8983    0.0000 H   0  0  0  0  0  0  0  0  0  0  0  0
    1.7618   -2.1872    0.0000 H   0  0  0  0  0  0  0  0  0  0  0  0
    2.5544   -1.9584    0.0000 H   0  0  0  0  0  0  0  0  0  0  0  0
    2.0404   -0.1778    0.0000 H   0  0  0  0  0  0  0  0  0  0  0  0
    2.8114   -0.9197    0.0000 H   0  0  0  0  0  0  0  0  0  0  0  0
    0.0216   -1.5043    0.0000 H   0  0  0  0  0  0  0  0  0  0  0  0
   -1.2262   -3.5725    0.0000 H   0  0  0  0  0  0  0  0  0  0  0  0
    0.5728   -4.0178    0.0000 H   0  0  0  0  0  0  0  0  0  0  0  0
   -0.4553   -4.3145    0.0000 H   0  0  0  0  0  0  0  0  0  0  0  0
    0.3591   -3.1150    0.0000 H   0  0  0  0  0  0  0  0  0  0  0  0
    0.1610   -3.9160    0.0000 H   0  0  0  0  0  0  0  0  0  0  0  0
    1.9601   -4.3609    0.0000 H   0  0  0  0  0  0  0  0  0  0  0  0
    0.9321   -4.6578    0.0000 H   0  0  0  0  0  0  0  0  0  0  0  0
    2.4367   -1.5507    0.0000 H   0  0  0  0  0  0  0  0  0  0  0  0
    3.2077   -2.2926    0.0000 H   0  0  0  0  0  0  0  0  0  0  0  0
    2.5172   -4.2001    0.0000 H   0  0  0  0  0  0  0  0  0  0  0  0
    3.5452   -3.9033    0.0000 H   0  0  0  0  0  0  0  0  0  0  0  0
    3.1333   -3.8014    0.0000 H   0  0  0  0  0  0  0  0  0  0  0  0
    2.9352   -4.6023    0.0000 H   0  0  0  0  0  0  0  0  0  0  0  0
    4.7343   -5.0474    0.0000 H   0  0  0  0  0  0  0  0  0  0  0  0
    3.7063   -5.3442    0.0000 H   0  0  0  0  0  0  0  0  0  0  0  0
    4.1829   -2.5339    0.0000 H   0  0  0  0  0  0  0  0  0  0  0  0
    5.2913   -4.8866    0.0000 H   0  0  0  0  0  0  0  0  0  0  0  0
    6.3194   -4.5899    0.0000 H   0  0  0  0  0  0  0  0  0  0  0  0
    6.5890   -2.6173    0.0000 H   0  0  0  0  0  0  0  0  0  0  0  0
    6.6877   -5.1929    0.0000 H   0  0  0  0  0  0  0  0  0  0  0  0
    8.9543   -2.8645    0.0000 H   0  0  0  0  0  0  0  0  0  0  0  0
    7.1552   -2.4196    0.0000 H   0  0  0  0  0  0  0  0  0  0  0  0
    8.1832   -2.1227    0.0000 H   0  0  0  0  0  0  0  0  0  0  0  0
    8.0748   -5.5361    0.0000 H   0  0  0  0  0  0  0  0  0  0  0  0
    6.7158   -2.9881    0.0000 H   0  0  0  0  0  0  0  0  0  0  0  0
    6.2018   -1.2075    0.0000 H   0  0  0  0  0  0  0  0  0  0  0  0
    6.9728   -1.9495    0.0000 H   0  0  0  0  0  0  0  0  0  0  0  0
  1  2  1  0  0  0  0
  1 69  1  0  0  0  0
  1 70  1  0  0  0  0
  1 71  1  0  0  0  0
  3  2  1  0  0  0  0
  3  4  1  0  0  0  0
  3 37  1  0  0  0  0
  3 72  1  1  0  0  0
  4  5  1  0  0  0  0
  4 73  1  0  0  0  0
  4 74  1  0  0  0  0
  5  6  1  0  0  0  0
  5  7  2  0  0  0  0
  6 75  1  0  0  0  0
  6 76  1  0  0  0  0
  6 77  1  0  0  0  0
  7  8  1  0  0  0  0
  7 78  1  0  0  0  0
  8  9  2  0  0  0  0
  8 79  1  0  0  0  0
  9 10  1  0  0  0  0
  9 80  1  0  0  0  0
 10 11  2  0  0  0  0
 10 12  1  0  0  0  0
 12 13  1  0  0  0  0
 13 14  1  0  0  0  0
 13 46  1  0  0  0  0
 13 81  1  1  0  0  0
 14 15  1  0  0  0  0
 14 16  1  0  0  0  0
 14 82  1  6  0  0  0
 15 83  1  0  0  0  0
 15 84  1  0  0  0  0
 15 85  1  0  0  0  0
 16 17  2  0  0  0  0
 16 86  1  0  0  0  0
 17 18  1  0  0  0  0
 17 87  1  0  0  0  0
 18 19  1  0  0  0  0
 18 44  1  0  0  0  0
 18 88  1  1  0  0  0
 19 20  1  0  0  0  0
 19 89  1  0  0  0  0
 19 90  1  0  0  0  0
 20 21  1  0  0  0  0
 20 23  1  0  0  0  0
 20 91  1  1  0  0  0
 21 22  1  0  0  0  0
 22 92  1  0  0  0  0
 22 93  1  0  0  0  0
 22 94  1  0  0  0  0
 23 24  1  0  0  0  0
 23 25  1  0  0  0  0
 23 95  1  6  0  0  0
 24 96  1  0  0  0  0
 24 97  1  0  0  0  0
 24 98  1  0  0  0  0
 25 26  2  0  0  0  0
 25 99  1  0  0  0  0
 26 27  1  0  0  0  0
 26100  1  0  0  0  0
 27 28  1  0  0  0  0
 27 42  1  0  0  0  0
 27101  1  6  0  0  0
 28 29  1  0  0  0  0
 28102  1  0  0  0  0
 28103  1  0  0  0  0
 29 30  1  0  0  0  0
 29 32  1  0  0  0  0
 29104  1  1  0  0  0
 30 31  1  0  0  0  0
 31105  1  0  0  0  0
 31106  1  0  0  0  0
 31107  1  0  0  0  0
 32 33  1  0  0  0  0
 32 34  1  0  0  0  0
 32108  1  6  0  0  0
 33109  1  0  0  0  0
 33110  1  0  0  0  0
 33111  1  0  0  0  0
 34 35  1  0  0  0  0
 34 41  1  0  0  0  0
 34112  1  1  0  0  0
 35 36  1  0  0  0  0
 35113  1  0  0  0  0
 35114  1  0  0  0  0
 36 37  1  0  0  0  0
 36 38  2  0  0  0  0
 37115  1  0  0  0  0
 37116  1  0  0  0  0
 38 39  1  0  0  0  0
 38117  1  0  0  0  0
 39 40  2  0  0  0  0
 39 41  1  0  0  0  0
 42 43  1  0  0  0  0
 43118  1  0  0  0  0
 43119  1  0  0  0  0
 43120  1  0  0  0  0
 44 45  1  0  0  0  0
 45121  1  0  0  0  0
 45122  1  0  0  0  0
 45123  1  0  0  0  0
 46 47  1  0  0  0  0
 46 48  1  0  0  0  0
 46124  1  6  0  0  0
 47125  1  0  0  0  0
 47126  1  0  0  0  0
 47127  1  0  0  0  0
 48 49  1  0  0  0  0
 48 51  1  0  0  0  0
 48128  1  1  0  0  0
 49 50  1  0  0  0  0
 50129  1  0  0  0  0
 50130  1  0  0  0  0
 50131  1  0  0  0  0
 51 52  1  0  0  0  0
 51 53  1  0  0  0  0
 51132  1  1  0  0  0
 52133  1  0  0  0  0
 52134  1  0  0  0  0
 52135  1  0  0  0  0
 53 54  1  0  0  0  0
 53136  1  0  0  0  0
 53137  1  0  0  0  0
 54 55  1  0  0  0  0
 54138  1  0  0  0  0
 54139  1  0  0  0  0
 55 56  2  0  0  0  0
 55 57  1  0  0  0  0
 57 58  1  0  0  0  0
 57 59  1  0  0  0  0
 57140  1  6  0  0  0
 58141  1  0  0  0  0
 58142  1  0  0  0  0
 58143  1  0  0  0  0
 59 60  1  0  0  0  0
 59 67  1  0  0  0  0
 59144  1  1  0  0  0
 60 61  1  0  0  0  0
 60145  1  0  0  0  0
 60146  1  0  0  0  0
 61 62  2  0  0  0  0
 61147  1  0  0  0  0
 62 63  1  0  0  0  0
 62148  1  0  0  0  0
 63 64  1  0  0  0  0
 63 65  1  0  0  0  0
 64149  1  0  0  0  0
 64150  1  0  0  0  0
 64151  1  0  0  0  0
 65 66  2  0  0  0  0
 65152  1  0  0  0  0
 67 68  1  0  0  0  0
 68153  1  0  0  0  0
 68154  1  0  0  0  0
 68155  1  0  0  0  0
M  END
>  <DRUGBANK_ID>
DB04774

>  <COMMON_NAME>
Reidispongiolide A

$$$$
