
 OpenBabel10282417072D

 63 64  0  0  1  0  0  0  0  0999 V2000
    4.8946    2.8259    0.0000 C   0  0  0  0  0  0  0  0  0  0  0  0
    4.8946    2.0009    0.0000 S   0  0  0  0  0  0  0  0  0  0  0  0
    4.0696    2.0009    0.0000 O   0  0  0  0  0  0  0  0  0  0  0  0
    5.7196    2.0009    0.0000 O   0  0  0  0  0  0  0  0  0  0  0  0
    4.8946    1.1759    0.0000 N   0  0  0  0  0  0  0  0  0  0  0  0
    4.1801    0.7634    0.0000 C   0  0  0  0  0  0  0  0  0  0  0  0
    3.4656    1.1759    0.0000 O   0  0  0  0  0  0  0  0  0  0  0  0
    4.1801   -0.0616    0.0000 C   0  0  0  0  0  0  0  0  0  0  0  0
    3.4656   -0.4741    0.0000 C   0  0  0  0  0  0  0  0  0  0  0  0
    3.4656   -1.2991    0.0000 C   0  0  0  0  0  0  0  0  0  0  0  0
    2.7512   -1.7116    0.0000 C   0  0  0  0  0  0  0  0  0  0  0  0
    2.7512   -2.5366    0.0000 C   0  0  0  0  0  0  0  0  0  0  0  0
    3.4656   -2.9491    0.0000 C   0  0  0  0  0  0  0  0  0  0  0  0
    3.4656   -3.7741    0.0000 C   0  0  2  0  0  0  0  0  0  0  0  0
    4.1331   -4.2590    0.0000 C   0  0  2  0  0  0  0  0  0  0  0  0
    3.8781   -5.0437    0.0000 C   0  0  1  0  0  0  0  0  0  0  0  0
    3.0531   -5.0437    0.0000 C   0  0  0  0  0  0  0  0  0  0  0  0
    2.7982   -4.2590    0.0000 C   0  0  0  0  0  0  0  0  0  0  0  0
    2.0136   -4.0041    0.0000 O   0  0  0  0  0  0  0  0  0  0  0  0
    4.3631   -5.7111    0.0000 O   0  0  0  0  0  0  0  0  0  0  0  0
    4.9177   -4.0041    0.0000 C   0  0  0  0  0  0  0  0  0  0  0  0
    5.5308   -4.5561    0.0000 C   0  0  0  0  0  0  0  0  0  0  0  0
    6.3154   -4.3012    0.0000 C   0  0  2  0  0  0  0  0  0  0  0  0
    6.9285   -4.8532    0.0000 C   0  0  0  0  0  0  0  0  0  0  0  0
    7.7131   -4.5983    0.0000 O   0  0  0  0  0  0  0  0  0  0  0  0
    8.3262   -5.1503    0.0000 C   0  0  0  0  0  0  0  0  0  0  0  0
    9.1109   -4.8954    0.0000 C   0  0  0  0  0  0  0  0  0  0  0  0
    9.7240   -5.4474    0.0000 C   0  0  0  0  0  0  0  0  0  0  0  0
    9.5524   -6.2544    0.0000 C   0  0  0  0  0  0  0  0  0  0  0  0
    8.7678   -6.5093    0.0000 C   0  0  0  0  0  0  0  0  0  0  0  0
    8.1547   -5.9573    0.0000 C   0  0  0  0  0  0  0  0  0  0  0  0
    6.4870   -3.4942    0.0000 O   0  0  0  0  0  0  0  0  0  0  0  0
    5.8212    3.3609    0.0000 H   0  0  0  0  0  0  0  0  0  0  0  0
    3.9680    3.3609    0.0000 H   0  0  0  0  0  0  0  0  0  0  0  0
    4.8946    3.8959    0.0000 H   0  0  0  0  0  0  0  0  0  0  0  0
    5.7472    0.6836    0.0000 H   0  0  0  0  0  0  0  0  0  0  0  0
    5.1067   -0.5966    0.0000 H   0  0  0  0  0  0  0  0  0  0  0  0
    4.1801   -1.1316    0.0000 H   0  0  0  0  0  0  0  0  0  0  0  0
    2.5390    0.0609    0.0000 H   0  0  0  0  0  0  0  0  0  0  0  0
    2.5390   -1.0091    0.0000 H   0  0  0  0  0  0  0  0  0  0  0  0
    4.3923   -1.8341    0.0000 H   0  0  0  0  0  0  0  0  0  0  0  0
    3.4656   -2.3691    0.0000 H   0  0  0  0  0  0  0  0  0  0  0  0
    1.8575   -1.1956    0.0000 H   0  0  0  0  0  0  0  0  0  0  0  0
    1.8575   -3.0526    0.0000 H   0  0  0  0  0  0  0  0  0  0  0  0
    4.3923   -2.4141    0.0000 H   0  0  0  0  0  0  0  0  0  0  0  0
    4.3922   -3.4841    0.0000 H   0  0  0  0  0  0  0  0  0  0  0  0
    4.4190   -3.2883    0.0000 H   0  0  0  0  0  0  0  0  0  0  0  0
    4.3005   -3.2022    0.0000 H   0  0  0  0  0  0  0  0  0  0  0  0
    4.9349   -4.8763    0.0000 H   0  0  0  0  0  0  0  0  0  0  0  0
    2.4241   -5.9093    0.0000 H   0  0  0  0  0  0  0  0  0  0  0  0
    1.9963   -4.8763    0.0000 H   0  0  0  0  0  0  0  0  0  0  0  0
    3.9687   -6.5973    0.0000 H   0  0  0  0  0  0  0  0  0  0  0  0
    5.1323   -2.9947    0.0000 H   0  0  0  0  0  0  0  0  0  0  0  0
    5.3162   -5.5655    0.0000 H   0  0  0  0  0  0  0  0  0  0  0  0
    5.5203   -3.5852    0.0000 H   0  0  0  0  0  0  0  0  0  0  0  0
    6.7060   -5.8998    0.0000 H   0  0  0  0  0  0  0  0  0  0  0  0
    7.7237   -5.5692    0.0000 H   0  0  0  0  0  0  0  0  0  0  0  0
    9.3255   -3.8860    0.0000 H   0  0  0  0  0  0  0  0  0  0  0  0
   10.7055   -5.1285    0.0000 H   0  0  0  0  0  0  0  0  0  0  0  0
   10.3193   -6.9450    0.0000 H   0  0  0  0  0  0  0  0  0  0  0  0
    8.5532   -7.5187    0.0000 H   0  0  0  0  0  0  0  0  0  0  0  0
    7.1732   -6.2762    0.0000 H   0  0  0  0  0  0  0  0  0  0  0  0
    7.4095   -3.1945    0.0000 H   0  0  0  0  0  0  0  0  0  0  0  0
  1  2  1  0  0  0  0
  1 33  1  0  0  0  0
  1 34  1  0  0  0  0
  1 35  1  0  0  0  0
  2  3  2  0  0  0  0
  2  4  2  0  0  0  0
  2  5  1  0  0  0  0
  5  6  1  0  0  0  0
  5 36  1  0  0  0  0
  6  7  2  0  0  0  0
  6  8  1  0  0  0  0
  8  9  1  0  0  0  0
  8 37  1  0  0  0  0
  8 38  1  0  0  0  0
  9 10  1  0  0  0  0
  9 39  1  0  0  0  0
  9 40  1  0  0  0  0
 10 11  1  0  0  0  0
 10 41  1  0  0  0  0
 10 42  1  0  0  0  0
 11 12  2  0  0  0  0
 11 43  1  0  0  0  0
 12 13  1  0  0  0  0
 12 44  1  0  0  0  0
 13 45  1  0  0  0  0
 13 46  1  0  0  0  0
 14 13  1  0  0  0  0
 14 15  1  0  0  0  0
 14 18  1  0  0  0  0
 14 47  1  1  0  0  0
 15 16  1  0  0  0  0
 15 21  1  0  0  0  0
 15 48  1  6  0  0  0
 16 17  1  0  0  0  0
 16 20  1  0  0  0  0
 16 49  1  1  0  0  0
 17 18  1  0  0  0  0
 17 50  1  0  0  0  0
 17 51  1  0  0  0  0
 18 19  2  0  0  0  0
 20 52  1  0  0  0  0
 21 22  2  0  0  0  0
 21 53  1  0  0  0  0
 22 23  1  0  0  0  0
 22 54  1  0  0  0  0
 23 24  1  0  0  0  0
 23 32  1  0  0  0  0
 23 55  1  6  0  0  0
 24 25  1  0  0  0  0
 24 56  1  0  0  0  0
 24 57  1  0  0  0  0
 25 26  1  0  0  0  0
 26 27  2  0  0  0  0
 26 31  1  0  0  0  0
 27 28  1  0  0  0  0
 27 58  1  0  0  0  0
 28 29  2  0  0  0  0
 28 59  1  0  0  0  0
 29 30  1  0  0  0  0
 29 60  1  0  0  0  0
 30 31  2  0  0  0  0
 30 61  1  0  0  0  0
 31 62  1  0  0  0  0
 32 63  1  0  0  0  0
M  END
>  <DRUGBANK_ID>
DB12708

>  <COMMON_NAME>
Sulprostone

>  <CAS_NUMBER>
60325-46-4

>  <UNII>
501Q5EQ1GM

>  <SYNONYMS>
Sulprostone

$$$$
