
 OpenBabel10282417072D

 68 71  0  0  1  0  0  0  0  0999 V2000
   -3.2995    0.4274    0.0000 C   0  0  0  0  0  0  0  0  0  0  0  0
   -2.4790    0.3412    0.0000 C   0  0  0  0  0  0  0  0  0  0  0  0
   -1.9940    1.0086    0.0000 C   0  0  0  0  0  0  0  0  0  0  0  0
   -2.1434   -0.4125    0.0000 C   0  0  2  0  0  0  0  0  0  0  0  0
   -1.6585   -1.0799    0.0000 C   0  0  0  0  0  0  0  0  0  0  0  0
   -2.1434   -1.7474    0.0000 C   0  0  0  0  0  0  0  0  0  0  0  0
   -2.9280   -1.4924    0.0000 C   0  0  2  0  0  0  0  0  0  0  0  0
   -2.9280   -0.6674    0.0000 C   0  0  0  0  0  0  0  0  0  0  0  0
   -3.5955   -1.9774    0.0000 N   0  0  0  0  0  0  0  0  0  0  0  0
   -3.5092   -2.7978    0.0000 C   0  0  1  0  0  0  0  0  0  0  0  0
   -2.7556   -3.1334    0.0000 C   0  0  0  0  0  0  0  0  0  0  0  0
   -2.6693   -3.9539    0.0000 C   0  0  0  0  0  0  0  0  0  0  0  0
   -3.3368   -4.4388    0.0000 O   0  0  0  0  0  0  0  0  0  0  0  0
   -4.0904   -4.1032    0.0000 C   0  0  0  0  0  0  0  0  0  0  0  0
   -4.1767   -3.2828    0.0000 C   0  0  1  0  0  0  0  0  0  0  0  0
   -4.9304   -2.9472    0.0000 O   0  0  0  0  0  0  0  0  0  0  0  0
   -5.0166   -2.1267    0.0000 C   0  0  0  0  0  0  0  0  0  0  0  0
   -1.4289    0.0000    0.0000 C   0  0  0  0  0  0  0  0  0  0  0  0
   -0.7145   -0.4125    0.0000 N   0  0  0  0  0  0  0  0  0  0  0  0
   -0.7145   -1.2375    0.0000 C   0  0  0  0  0  0  0  0  0  0  0  0
    0.0000   -1.6500    0.0000 C   0  0  0  0  0  0  0  0  0  0  0  0
    0.7145   -1.2375    0.0000 C   0  0  0  0  0  0  0  0  0  0  0  0
    0.7145   -0.4125    0.0000 C   0  0  0  0  0  0  0  0  0  0  0  0
    1.4289   -0.0000    0.0000 C   0  0  0  0  0  0  0  0  0  0  0  0
    2.1434   -0.4125    0.0000 C   0  0  0  0  0  0  0  0  0  0  0  0
    2.1434   -1.2375    0.0000 C   0  0  0  0  0  0  0  0  0  0  0  0
    1.4289   -1.6500    0.0000 N   0  0  0  0  0  0  0  0  0  0  0  0
    2.8579   -0.0000    0.0000 C   0  0  0  0  0  0  0  0  0  0  0  0
    3.5724    0.4125    0.0000 F   0  0  0  0  0  0  0  0  0  0  0  0
    3.2704   -0.7145    0.0000 F   0  0  0  0  0  0  0  0  0  0  0  0
    2.4454    0.7145    0.0000 F   0  0  0  0  0  0  0  0  0  0  0  0
    0.0000   -0.0000    0.0000 C   0  0  0  0  0  0  0  0  0  0  0  0
   -3.7348    1.4049    0.0000 H   0  0  0  0  0  0  0  0  0  0  0  0
   -3.9284   -0.4383    0.0000 H   0  0  0  0  0  0  0  0  0  0  0  0
   -4.3636    0.5392    0.0000 H   0  0  0  0  0  0  0  0  0  0  0  0
   -1.4149    0.2293    0.0000 H   0  0  0  0  0  0  0  0  0  0  0  0
   -0.9299    0.8966    0.0000 H   0  0  0  0  0  0  0  0  0  0  0  0
   -2.4291    1.9861    0.0000 H   0  0  0  0  0  0  0  0  0  0  0  0
   -1.3650    1.8742    0.0000 H   0  0  0  0  0  0  0  0  0  0  0  0
   -0.5885   -1.0799    0.0000 H   0  0  0  0  0  0  0  0  0  0  0  0
   -1.1727   -2.0333    0.0000 H   0  0  0  0  0  0  0  0  0  0  0  0
   -1.8128   -2.7650    0.0000 H   0  0  0  0  0  0  0  0  0  0  0  0
   -2.9000   -2.5040    0.0000 H   0  0  0  0  0  0  0  0  0  0  0  0
   -2.7606   -2.5492    0.0000 H   0  0  0  0  0  0  0  0  0  0  0  0
   -3.7936   -0.0385    0.0000 H   0  0  0  0  0  0  0  0  0  0  0  0
   -2.7606    0.3894    0.0000 H   0  0  0  0  0  0  0  0  0  0  0  0
   -4.5273   -1.5626    0.0000 H   0  0  0  0  0  0  0  0  0  0  0  0
   -2.6436   -2.1689    0.0000 H   0  0  0  0  0  0  0  0  0  0  0  0
   -1.8899   -2.5045    0.0000 H   0  0  0  0  0  0  0  0  0  0  0  0
   -1.7781   -3.5686    0.0000 H   0  0  0  0  0  0  0  0  0  0  0  0
   -1.6918   -4.3891    0.0000 H   0  0  0  0  0  0  0  0  0  0  0  0
   -2.5575   -5.0180    0.0000 H   0  0  0  0  0  0  0  0  0  0  0  0
   -4.9560   -4.7321    0.0000 H   0  0  0  0  0  0  0  0  0  0  0  0
   -5.0679   -3.6680    0.0000 H   0  0  0  0  0  0  0  0  0  0  0  0
   -5.0423   -3.9118    0.0000 H   0  0  0  0  0  0  0  0  0  0  0  0
   -4.1509   -1.4978    0.0000 H   0  0  0  0  0  0  0  0  0  0  0  0
   -5.9941   -1.6914    0.0000 H   0  0  0  0  0  0  0  0  0  0  0  0
   -5.1284   -1.0626    0.0000 H   0  0  0  0  0  0  0  0  0  0  0  0
   -1.4289    1.0700    0.0000 H   0  0  0  0  0  0  0  0  0  0  0  0
   -0.5022    0.5350    0.0000 H   0  0  0  0  0  0  0  0  0  0  0  0
   -1.6411   -1.7725    0.0000 H   0  0  0  0  0  0  0  0  0  0  0  0
   -0.7145   -2.3075    0.0000 H   0  0  0  0  0  0  0  0  0  0  0  0
    0.0000   -2.7200    0.0000 H   0  0  0  0  0  0  0  0  0  0  0  0
    0.9266   -2.1850    0.0000 H   0  0  0  0  0  0  0  0  0  0  0  0
    1.4289    1.0320    0.0000 H   0  0  0  0  0  0  0  0  0  0  0  0
    3.0371   -1.7535    0.0000 H   0  0  0  0  0  0  0  0  0  0  0  0
    0.0000    1.0700    0.0000 H   0  0  0  0  0  0  0  0  0  0  0  0
   -0.9266    0.5350    0.0000 H   0  0  0  0  0  0  0  0  0  0  0  0
  1  2  1  0  0  0  0
  1 33  1  0  0  0  0
  1 34  1  0  0  0  0
  1 35  1  0  0  0  0
  2  3  1  0  0  0  0
  2 36  1  0  0  0  0
  3 37  1  0  0  0  0
  3 38  1  0  0  0  0
  3 39  1  0  0  0  0
  4  2  1  6  0  0  0
  4  5  1  0  0  0  0
  4  8  1  0  0  0  0
  4 18  1  0  0  0  0
  5  6  1  0  0  0  0
  5 40  1  0  0  0  0
  5 41  1  0  0  0  0
  6  7  1  0  0  0  0
  6 42  1  0  0  0  0
  6 43  1  0  0  0  0
  7  8  1  0  0  0  0
  7  9  1  0  0  0  0
  7 44  1  6  0  0  0
  8 45  1  0  0  0  0
  8 46  1  0  0  0  0
  9 47  1  0  0  0  0
 10  9  1  0  0  0  0
 10 11  1  0  0  0  0
 10 15  1  0  0  0  0
 10 48  1  6  0  0  0
 11 12  1  0  0  0  0
 11 49  1  0  0  0  0
 11 50  1  0  0  0  0
 12 13  1  0  0  0  0
 12 51  1  0  0  0  0
 12 52  1  0  0  0  0
 13 14  1  0  0  0  0
 14 15  1  0  0  0  0
 14 53  1  0  0  0  0
 14 54  1  0  0  0  0
 15 16  1  0  0  0  0
 15 55  1  6  0  0  0
 16 17  1  0  0  0  0
 17 56  1  0  0  0  0
 17 57  1  0  0  0  0
 17 58  1  0  0  0  0
 18 19  1  0  0  0  0
 18 59  1  0  0  0  0
 18 60  1  0  0  0  0
 19 20  1  0  0  0  0
 19 32  1  0  0  0  0
 20 21  1  0  0  0  0
 20 61  1  0  0  0  0
 20 62  1  0  0  0  0
 21 22  1  0  0  0  0
 21 63  1  0  0  0  0
 21 64  1  0  0  0  0
 22 23  2  0  0  0  0
 22 27  1  0  0  0  0
 23 24  1  0  0  0  0
 23 32  1  0  0  0  0
 24 25  2  0  0  0  0
 24 65  1  0  0  0  0
 25 26  1  0  0  0  0
 25 28  1  0  0  0  0
 26 27  2  0  0  0  0
 26 66  1  0  0  0  0
 28 29  1  0  0  0  0
 28 30  1  0  0  0  0
 28 31  1  0  0  0  0
 32 67  1  0  0  0  0
 32 68  1  0  0  0  0
M  END
>  <DRUGBANK_ID>
DB11990

>  <COMMON_NAME>
MK-0812

>  <CAS_NUMBER>
624733-88-6

>  <UNII>
P3LKY4ZL5O

$$$$
