
 OpenBabel10282417072D

 18 17  0  0  0  0  0  0  0  0999 V2000
    1.5159    0.2393    0.0000 C   0  0  0  0  0  0  0  0  0  0  0  0
    0.8014   -0.1731    0.0000 C   0  0  1  0  0  0  0  0  0  0  0  0
    1.5159    1.0643    0.0000 O   0  0  0  0  0  0  0  0  0  0  0  0
    0.8014   -0.9981    0.0000 N   0  0  0  0  0  0  0  0  0  0  0  0
    0.0870    0.2393    0.0000 C   0  0  0  0  0  0  0  0  0  0  0  0
   -0.6274   -0.1731    0.0000 O   0  0  0  0  0  0  0  0  0  0  0  0
    2.2304   -0.1731    0.0000 O   0  0  0  0  0  0  0  0  0  0  0  0
   -1.4205   -0.1848    0.0000 S   0  0  0  0  0  0  0  0  0  0  0  0
   -1.4087   -1.0643    0.0000 O   0  0  0  0  0  0  0  0  0  0  0  0
   -1.4244    0.7338    0.0000 O   0  0  0  0  0  0  0  0  0  0  0  0
   -2.2304   -0.1809    0.0000 O   0  0  0  0  0  0  0  0  0  0  0  0
    1.7280   -0.7082    0.0000 H   0  0  0  0  0  0  0  0  0  0  0  0
   -0.0819   -1.5081    0.0000 H   0  0  0  0  0  0  0  0  0  0  0  0
    1.6847   -1.5081    0.0000 H   0  0  0  0  0  0  0  0  0  0  0  0
    0.0870    1.3093    0.0000 H   0  0  0  0  0  0  0  0  0  0  0  0
   -0.8396    0.7743    0.0000 H   0  0  0  0  0  0  0  0  0  0  0  0
    2.2305   -1.1101    0.0000 H   0  0  0  0  0  0  0  0  0  0  0  0
   -2.7113    0.6615    0.0000 H   0  0  0  0  0  0  0  0  0  0  0  0
  1  2  1  0  0  0  0
  1  3  2  0  0  0  0
  2  4  1  0  0  0  0
  2  5  1  0  0  0  0
  2 12  1  6  0  0  0
  4 13  1  0  0  0  0
  4 14  1  0  0  0  0
  5  6  1  0  0  0  0
  5 15  1  0  0  0  0
  5 16  1  0  0  0  0
  6  8  1  0  0  0  0
  7  1  1  0  0  0  0
  7 17  1  0  0  0  0
  9  8  2  0  0  0  0
 10  8  2  0  0  0  0
 11  8  1  0  0  0  0
 11 18  1  0  0  0  0
M  END
>  <DRUGBANK_ID>
DB03497

>  <SECONDARY_ACCESSION_NUMBERS>
EXPT02449

>  <COMMON_NAME>
L-serine O-sulfate

>  <CAS_NUMBER>
626-69-7

>  <UNII>
81K4VO7FNP

>  <SYNONYMS>
O-sulfo-L-serine; O-sulfonato-L-serine; Serine O-sulfate; Sulfoserine

$$$$
