
 OpenBabel10282417072D

 62 64  0  0  0  0  0  0  0  0999 V2000
   -3.5372   -0.4125    0.0000 C   0  0  0  0  0  0  0  0  0  0  0  0
   -4.2517   -0.8250    0.0000 C   0  0  0  0  0  0  0  0  0  0  0  0
   -4.2517   -1.6500    0.0000 C   0  0  0  0  0  0  0  0  0  0  0  0
   -3.5372   -2.0625    0.0000 C   0  0  0  0  0  0  0  0  0  0  0  0
   -2.8228   -1.6500    0.0000 C   0  0  0  0  0  0  0  0  0  0  0  0
   -2.8228   -0.8250    0.0000 C   0  0  0  0  0  0  0  0  0  0  0  0
   -2.1083   -0.4125    0.0000 C   0  0  0  0  0  0  0  0  0  0  0  0
   -1.3938   -0.8250    0.0000 C   0  0  0  0  0  0  0  0  0  0  0  0
    0.0350   -0.8250    0.0000 N   0  0  0  0  0  0  0  0  0  0  0  0
    2.9301    0.6906    0.0000 C   0  0  0  0  0  0  0  0  0  0  0  0
    2.1784   -0.4125    0.0000 N   0  0  0  0  0  0  0  0  0  0  0  0
    3.4751   -1.2962    0.0000 C   0  0  0  0  0  0  0  0  0  0  0  0
    4.2517   -1.0177    0.0000 C   0  0  0  0  0  0  0  0  0  0  0  0
    4.2269   -0.1931    0.0000 C   0  0  0  0  0  0  0  0  0  0  0  0
    2.9704   -0.6437    0.0000 C   0  0  1  0  0  0  0  0  0  0  0  0
    2.5579   -1.3582    0.0000 H   0  0  0  0  0  0  0  0  0  0  0  0
    3.4349    0.0379    0.0000 C   0  0  2  0  0  0  0  0  0  0  0  0
    3.8474    0.7525    0.0000 H   0  0  0  0  0  0  0  0  0  0  0  0
    0.7495   -0.4125    0.0000 C   0  0  1  0  0  0  0  0  0  0  0  0
    0.7495    0.4125    0.0000 C   0  0  0  0  0  0  0  0  0  0  0  0
   -0.6794   -0.4125    0.0000 C   0  0  2  0  0  0  0  0  0  0  0  0
   -0.6794    0.4125    0.0000 C   0  0  0  0  0  0  0  0  0  0  0  0
   -1.3938    0.8250    0.0000 O   0  0  0  0  0  0  0  0  0  0  0  0
    0.0350    0.8250    0.0000 O   0  0  0  0  0  0  0  0  0  0  0  0
    0.0350    1.6500    0.0000 C   0  0  0  0  0  0  0  0  0  0  0  0
    2.1536    0.4120    0.0000 C   0  0  2  0  0  0  0  0  0  0  0  0
    0.9161    1.1266    0.0000 O   0  0  0  0  0  0  0  0  0  0  0  0
    1.7411    1.1266    0.0000 C   0  0  0  0  0  0  0  0  0  0  0  0
    2.1536    1.8410    0.0000 O   0  0  0  0  0  0  0  0  0  0  0  0
    1.4639   -0.8250    0.0000 C   0  0  0  0  0  0  0  0  0  0  0  0
    1.4639   -1.6500    0.0000 O   0  0  0  0  0  0  0  0  0  0  0  0
    0.7495    2.0625    0.0000 C   0  0  0  0  0  0  0  0  0  0  0  0
   -3.5372    0.6195    0.0000 H   0  0  0  0  0  0  0  0  0  0  0  0
   -5.1454   -0.3090    0.0000 H   0  0  0  0  0  0  0  0  0  0  0  0
   -5.1454   -2.1660    0.0000 H   0  0  0  0  0  0  0  0  0  0  0  0
   -3.5372   -3.0945    0.0000 H   0  0  0  0  0  0  0  0  0  0  0  0
   -1.9291   -2.1660    0.0000 H   0  0  0  0  0  0  0  0  0  0  0  0
   -2.1083    0.6575    0.0000 H   0  0  0  0  0  0  0  0  0  0  0  0
   -1.1817    0.1225    0.0000 H   0  0  0  0  0  0  0  0  0  0  0  0
   -1.3938   -1.8950    0.0000 H   0  0  0  0  0  0  0  0  0  0  0  0
   -0.4671   -1.3600    0.0000 H   0  0  0  0  0  0  0  0  0  0  0  0
    0.0350   -1.8450    0.0000 H   0  0  0  0  0  0  0  0  0  0  0  0
    3.2299    1.7177    0.0000 H   0  0  0  0  0  0  0  0  0  0  0  0
    3.9814    0.8897    0.0000 H   0  0  0  0  0  0  0  0  0  0  0  0
    3.1752   -2.3233    0.0000 H   0  0  0  0  0  0  0  0  0  0  0  0
    4.2542   -2.0297    0.0000 H   0  0  0  0  0  0  0  0  0  0  0  0
    5.1359   -1.6203    0.0000 H   0  0  0  0  0  0  0  0  0  0  0  0
    5.1900   -0.5035    0.0000 H   0  0  0  0  0  0  0  0  0  0  0  0
    5.0732    0.4617    0.0000 H   0  0  0  0  0  0  0  0  0  0  0  0
    5.1945   -0.6499    0.0000 H   0  0  0  0  0  0  0  0  0  0  0  0
   -0.1771    0.1225    0.0000 H   0  0  0  0  0  0  0  0  0  0  0  0
    1.6761    0.9475    0.0000 H   0  0  0  0  0  0  0  0  0  0  0  0
   -0.1771    0.9475    0.0000 H   0  0  0  0  0  0  0  0  0  0  0  0
    0.7495    1.4825    0.0000 H   0  0  0  0  0  0  0  0  0  0  0  0
   -1.6061    0.1225    0.0000 H   0  0  0  0  0  0  0  0  0  0  0  0
   -0.8916    2.1850    0.0000 H   0  0  0  0  0  0  0  0  0  0  0  0
    0.0350    2.7200    0.0000 H   0  0  0  0  0  0  0  0  0  0  0  0
    2.5219    1.4166    0.0000 H   0  0  0  0  0  0  0  0  0  0  0  0
    3.0906    1.8410    0.0000 H   0  0  0  0  0  0  0  0  0  0  0  0
    1.6761    1.5275    0.0000 H   0  0  0  0  0  0  0  0  0  0  0  0
    0.7495    3.1325    0.0000 H   0  0  0  0  0  0  0  0  0  0  0  0
    1.6762    2.5975    0.0000 H   0  0  0  0  0  0  0  0  0  0  0  0
  1  2  1  0  0  0  0
  1  6  2  0  0  0  0
  1 33  1  0  0  0  0
  2  3  2  0  0  0  0
  2 34  1  0  0  0  0
  3  4  1  0  0  0  0
  3 35  1  0  0  0  0
  4  5  2  0  0  0  0
  4 36  1  0  0  0  0
  5  6  1  0  0  0  0
  5 37  1  0  0  0  0
  6  7  1  0  0  0  0
  7  8  1  0  0  0  0
  7 38  1  0  0  0  0
  7 39  1  0  0  0  0
  8 21  1  0  0  0  0
  8 40  1  0  0  0  0
  8 41  1  0  0  0  0
  9 19  1  0  0  0  0
  9 42  1  0  0  0  0
 10 26  1  0  0  0  0
 10 17  1  0  0  0  0
 10 43  1  0  0  0  0
 10 44  1  0  0  0  0
 11 15  1  0  0  0  0
 12 13  1  0  0  0  0
 12 45  1  0  0  0  0
 12 46  1  0  0  0  0
 13 14  1  0  0  0  0
 13 47  1  0  0  0  0
 13 48  1  0  0  0  0
 14 49  1  0  0  0  0
 14 50  1  0  0  0  0
 15 12  1  0  0  0  0
 15 16  1  1  0  0  0
 17 15  1  0  0  0  0
 17 14  1  0  0  0  0
 17 18  1  1  0  0  0
 19 30  1  0  0  0  0
 19 20  1  0  0  0  0
 19 51  1  6  0  0  0
 20 52  1  0  0  0  0
 20 53  1  0  0  0  0
 20 54  1  0  0  0  0
 21  9  1  0  0  0  0
 21 22  1  0  0  0  0
 21 55  1  6  0  0  0
 22 24  1  0  0  0  0
 22 23  2  0  0  0  0
 24 25  1  0  0  0  0
 25 32  1  0  0  0  0
 25 56  1  0  0  0  0
 25 57  1  0  0  0  0
 26 11  1  0  0  0  0
 26 28  1  0  0  0  0
 26 58  1  1  0  0  0
 28 27  2  0  0  0  0
 28 29  1  0  0  0  0
 29 59  1  0  0  0  0
 30 11  1  0  0  0  0
 30 31  2  0  0  0  0
 32 60  1  0  0  0  0
 32 61  1  0  0  0  0
 32 62  1  0  0  0  0
M  END
>  <DRUGBANK_ID>
DB00178

>  <SECONDARY_ACCESSION_NUMBERS>
APRD00009

>  <COMMON_NAME>
Ramipril

>  <CAS_NUMBER>
87333-19-5

>  <UNII>
L35JN3I7SJ

>  <SYNONYMS>
(2S-(1(R*(R*)),2alpha,3abeta,6abeta))-1-(2-((1-(Ethoxycarbonyl)-3-phenylpropyl)amino)-1-oxopropyl)octahydrocyclopenta(b)pyrrole-2-carboxylic acid; Ramipril; Ramiprilum

$$$$
