
 OpenBabel10282417072D

 76 79  0  0  0  0  0  0  0  0999 V2000
    8.3812  -11.1373    0.0000 C   0  0  0  0  0  0  0  0  0  0  0  0
    8.3812  -11.9623    0.0000 C   0  0  0  0  0  0  0  0  0  0  0  0
    9.0957  -12.3749    0.0000 C   0  0  0  0  0  0  0  0  0  0  0  0
    9.8102  -11.9623    0.0000 C   0  0  0  0  0  0  0  0  0  0  0  0
    9.8102  -11.1373    0.0000 C   0  0  0  0  0  0  0  0  0  0  0  0
    9.0957  -10.7248    0.0000 C   0  0  0  0  0  0  0  0  0  0  0  0
   11.2392  -11.9623    0.0000 C   0  0  0  0  0  0  0  0  0  0  0  0
   11.2392  -11.1373    0.0000 C   0  0  0  0  0  0  0  0  0  0  0  0
   10.5247  -10.7248    0.0000 C   0  0  0  0  0  0  0  0  0  0  0  0
   11.9538  -12.3749    0.0000 C   0  0  0  0  0  0  0  0  0  0  0  0
   12.6681  -11.9623    0.0000 C   0  0  0  0  0  0  0  0  0  0  0  0
   12.6681  -11.1373    0.0000 C   0  0  0  0  0  0  0  0  0  0  0  0
   11.9538  -10.7248    0.0000 C   0  0  0  0  0  0  0  0  0  0  0  0
   10.5247   -9.8996    0.0000 C   0  0  3  0  0  0  0  0  0  0  0  0
   11.2404   -9.4865    0.0000 C   0  0  0  0  0  0  0  0  0  0  0  0
   11.2404   -8.6614    0.0000 C   0  0  0  0  0  0  0  0  0  0  0  0
   10.5259   -8.2489    0.0000 N   0  0  0  0  0  0  0  0  0  0  0  0
    9.8102   -8.6621    0.0000 C   0  0  0  0  0  0  0  0  0  0  0  0
    9.8102   -9.4872    0.0000 C   0  0  0  0  0  0  0  0  0  0  0  0
    9.8102  -10.3123    0.0000 O   0  0  0  0  0  0  0  0  0  0  0  0
   10.5259   -7.4247    0.0000 C   0  0  0  0  0  0  0  0  0  0  0  0
   11.2408   -7.0118    0.0000 C   0  0  0  0  0  0  0  0  0  0  0  0
   11.9455   -7.4188    0.0000 C   0  0  0  0  0  0  0  0  0  0  0  0
   12.6450   -7.0149    0.0000 C   0  0  3  0  0  0  0  0  0  0  0  0
   13.3471   -7.4204    0.0000 C   0  0  0  0  0  0  0  0  0  0  0  0
   12.6451   -6.1871    0.0000 O   0  0  0  0  0  0  0  0  0  0  0  0
   13.3471   -8.2493    0.0000 C   0  0  0  0  0  0  0  0  0  0  0  0
   14.0616   -8.6620    0.0000 C   0  0  0  0  0  0  0  0  0  0  0  0
   14.7761   -8.2495    0.0000 C   0  0  0  0  0  0  0  0  0  0  0  0
   14.7762   -7.4205    0.0000 C   0  0  0  0  0  0  0  0  0  0  0  0
   14.0617   -7.0079    0.0000 C   0  0  0  0  0  0  0  0  0  0  0  0
   15.4901   -8.6617    0.0000 C   0  0  0  0  0  0  0  0  0  0  0  0
   16.1943   -8.2551    0.0000 C   0  0  0  0  0  0  0  0  0  0  0  0
   16.8942   -8.6592    0.0000 O   0  0  0  0  0  0  0  0  0  0  0  0
   16.1944   -7.4249    0.0000 O   0  0  0  0  0  0  0  0  0  0  0  0
   14.9068   -9.2452    0.0000 C   0  0  0  0  0  0  0  0  0  0  0  0
   16.0734   -9.2452    0.0000 C   0  0  0  0  0  0  0  0  0  0  0  0
    7.4875  -10.6213    0.0000 H   0  0  0  0  0  0  0  0  0  0  0  0
    7.4874  -12.4783    0.0000 H   0  0  0  0  0  0  0  0  0  0  0  0
    9.0957  -13.4069    0.0000 H   0  0  0  0  0  0  0  0  0  0  0  0
   10.7040  -12.4783    0.0000 H   0  0  0  0  0  0  0  0  0  0  0  0
    9.0957   -9.6928    0.0000 H   0  0  0  0  0  0  0  0  0  0  0  0
   10.3455  -12.4783    0.0000 H   0  0  0  0  0  0  0  0  0  0  0  0
   11.9539  -13.4069    0.0000 H   0  0  0  0  0  0  0  0  0  0  0  0
   13.5619  -12.4782    0.0000 H   0  0  0  0  0  0  0  0  0  0  0  0
   13.5619  -10.6213    0.0000 H   0  0  0  0  0  0  0  0  0  0  0  0
   11.9539   -9.6928    0.0000 H   0  0  0  0  0  0  0  0  0  0  0  0
   11.4513  -10.4347    0.0000 H   0  0  0  0  0  0  0  0  0  0  0  0
   12.1670  -10.0216    0.0000 H   0  0  0  0  0  0  0  0  0  0  0  0
   12.1671   -8.9515    0.0000 H   0  0  0  0  0  0  0  0  0  0  0  0
   12.1670   -8.1264    0.0000 H   0  0  0  0  0  0  0  0  0  0  0  0
   11.2404   -7.5914    0.0000 H   0  0  0  0  0  0  0  0  0  0  0  0
    8.8836   -8.1271    0.0000 H   0  0  0  0  0  0  0  0  0  0  0  0
    8.8836   -9.1971    0.0000 H   0  0  0  0  0  0  0  0  0  0  0  0
    8.8836  -10.0223    0.0000 H   0  0  0  0  0  0  0  0  0  0  0  0
    9.8103  -10.5572    0.0000 H   0  0  0  0  0  0  0  0  0  0  0  0
    9.8102   -9.3423    0.0000 H   0  0  0  0  0  0  0  0  0  0  0  0
    9.5992   -6.8898    0.0000 H   0  0  0  0  0  0  0  0  0  0  0  0
   10.5258   -6.3547    0.0000 H   0  0  0  0  0  0  0  0  0  0  0  0
   11.2408   -5.9418    0.0000 H   0  0  0  0  0  0  0  0  0  0  0  0
   12.1675   -6.4769    0.0000 H   0  0  0  0  0  0  0  0  0  0  0  0
   11.9454   -8.4888    0.0000 H   0  0  0  0  0  0  0  0  0  0  0  0
   12.8721   -7.9538    0.0000 H   0  0  0  0  0  0  0  0  0  0  0  0
   12.6449   -8.0849    0.0000 H   0  0  0  0  0  0  0  0  0  0  0  0
   13.4852   -5.7022    0.0000 H   0  0  0  0  0  0  0  0  0  0  0  0
   12.4533   -8.7652    0.0000 H   0  0  0  0  0  0  0  0  0  0  0  0
   14.0615   -9.6940    0.0000 H   0  0  0  0  0  0  0  0  0  0  0  0
   15.6700   -6.9046    0.0000 H   0  0  0  0  0  0  0  0  0  0  0  0
   14.0618   -5.9759    0.0000 H   0  0  0  0  0  0  0  0  0  0  0  0
   16.8942   -9.5962    0.0000 H   0  0  0  0  0  0  0  0  0  0  0  0
   13.8732   -8.9684    0.0000 H   0  0  0  0  0  0  0  0  0  0  0  0
   15.1839  -10.2787    0.0000 H   0  0  0  0  0  0  0  0  0  0  0  0
   14.1503  -10.0019    0.0000 H   0  0  0  0  0  0  0  0  0  0  0  0
   15.7963  -10.2787    0.0000 H   0  0  0  0  0  0  0  0  0  0  0  0
   17.1070   -8.9684    0.0000 H   0  0  0  0  0  0  0  0  0  0  0  0
   16.8299  -10.0019    0.0000 H   0  0  0  0  0  0  0  0  0  0  0  0
  1  2  2  0  0  0  0
  1  6  1  0  0  0  0
  1 38  1  0  0  0  0
  2  3  1  0  0  0  0
  2 39  1  0  0  0  0
  3  4  2  0  0  0  0
  3 40  1  0  0  0  0
  4  5  1  0  0  0  0
  4 41  1  0  0  0  0
  5  6  2  0  0  0  0
  5  9  1  0  0  0  0
  6 42  1  0  0  0  0
  7  8  1  0  0  0  0
  7 10  2  0  0  0  0
  7 43  1  0  0  0  0
  8  9  1  0  0  0  0
  8 13  2  0  0  0  0
  9 14  1  0  0  0  0
  9 20  1  0  0  0  0
 10 11  1  0  0  0  0
 10 44  1  0  0  0  0
 11 12  2  0  0  0  0
 11 45  1  0  0  0  0
 12 13  1  0  0  0  0
 12 46  1  0  0  0  0
 13 47  1  0  0  0  0
 14 15  1  0  0  0  0
 14 19  1  0  0  0  0
 14 48  1  0  0  0  0
 15 16  1  0  0  0  0
 15 49  1  0  0  0  0
 15 50  1  0  0  0  0
 16 17  1  0  0  0  0
 16 51  1  0  0  0  0
 16 52  1  0  0  0  0
 17 18  1  0  0  0  0
 17 21  1  0  0  0  0
 18 19  1  0  0  0  0
 18 53  1  0  0  0  0
 18 54  1  0  0  0  0
 19 55  1  0  0  0  0
 19 56  1  0  0  0  0
 20 57  1  0  0  0  0
 21 22  1  0  0  0  0
 21 58  1  0  0  0  0
 21 59  1  0  0  0  0
 22 23  1  0  0  0  0
 22 60  1  0  0  0  0
 22 61  1  0  0  0  0
 23 24  1  0  0  0  0
 23 62  1  0  0  0  0
 23 63  1  0  0  0  0
 24 25  1  0  0  0  0
 24 26  1  0  0  0  0
 24 64  1  0  0  0  0
 25 27  2  0  0  0  0
 25 31  1  0  0  0  0
 26 65  1  0  0  0  0
 27 28  1  0  0  0  0
 27 66  1  0  0  0  0
 28 29  2  0  0  0  0
 28 67  1  0  0  0  0
 29 30  1  0  0  0  0
 29 32  1  0  0  0  0
 30 31  2  0  0  0  0
 30 68  1  0  0  0  0
 31 69  1  0  0  0  0
 32 33  1  0  0  0  0
 32 36  1  0  0  0  0
 32 37  1  0  0  0  0
 33 34  1  0  0  0  0
 33 35  2  0  0  0  0
 34 70  1  0  0  0  0
 36 71  1  0  0  0  0
 36 72  1  0  0  0  0
 36 73  1  0  0  0  0
 37 74  1  0  0  0  0
 37 75  1  0  0  0  0
 37 76  1  0  0  0  0
M  END
>  <DRUGBANK_ID>
DB00950

>  <SECONDARY_ACCESSION_NUMBERS>
APRD00349

>  <COMMON_NAME>
Fexofenadine

>  <CAS_NUMBER>
83799-24-0

>  <UNII>
E6582LOH6V

>  <SYNONYMS>
4-(1-Hydroxy-4-(4-(hydroxydiphenylmethyl)-1-piperidinyl)butyl)-alpha,alpha-dimethylbenzeneacetic acid; Carboxyterfenadine; Fexofenadina; Fexofenadine; Terfenadine acid metabolite; Terfenadine carboxylate; Terfenadine-COOH

$$$$
