
 OpenBabel10282417072D

 45 47  0  0  0  0  0  0  0  0999 V2000
   -0.0000    3.3000    0.0000 C   0  0  0  0  0  0  0  0  0  0  0  0
    0.0000    2.4750    0.0000 C   0  0  0  0  0  0  0  0  0  0  0  0
    0.7145    2.0625    0.0000 O   0  0  0  0  0  0  0  0  0  0  0  0
    0.7145    1.2375    0.0000 C   0  0  0  0  0  0  0  0  0  0  0  0
    1.4289    0.8250    0.0000 C   0  0  0  0  0  0  0  0  0  0  0  0
    1.4289   -0.0000    0.0000 C   0  0  0  0  0  0  0  0  0  0  0  0
    0.7145   -0.4125    0.0000 C   0  0  0  0  0  0  0  0  0  0  0  0
    0.0000   -0.0000    0.0000 C   0  0  0  0  0  0  0  0  0  0  0  0
    0.0000    0.8250    0.0000 C   0  0  0  0  0  0  0  0  0  0  0  0
    0.7145   -1.2375    0.0000 C   0  0  0  0  0  0  0  0  0  0  0  0
    1.3819   -1.7224    0.0000 C   0  0  0  0  0  0  0  0  0  0  0  0
    1.1270   -2.5070    0.0000 C   0  0  0  0  0  0  0  0  0  0  0  0
    0.3020   -2.5070    0.0000 C   0  0  0  0  0  0  0  0  0  0  0  0
    0.0470   -1.7224    0.0000 N   0  0  0  0  0  0  0  0  0  0  0  0
   -0.7376   -1.4675    0.0000 C   0  0  0  0  0  0  0  0  0  0  0  0
   -1.3507   -2.0195    0.0000 C   0  0  0  0  0  0  0  0  0  0  0  0
   -2.1353   -1.7646    0.0000 C   0  0  0  0  0  0  0  0  0  0  0  0
   -2.3068   -0.9576    0.0000 C   0  0  0  0  0  0  0  0  0  0  0  0
   -1.6937   -0.4056    0.0000 C   0  0  0  0  0  0  0  0  0  0  0  0
   -0.9091   -0.6605    0.0000 C   0  0  0  0  0  0  0  0  0  0  0  0
   -3.0915   -0.7027    0.0000 S   0  0  0  0  0  0  0  0  0  0  0  0
   -3.8761   -0.4477    0.0000 O   0  0  0  0  0  0  0  0  0  0  0  0
   -2.8365    0.0820    0.0000 O   0  0  0  0  0  0  0  0  0  0  0  0
   -3.3464   -1.4873    0.0000 N   0  0  0  0  0  0  0  0  0  0  0  0
    1.6119   -3.1745    0.0000 C   0  0  0  0  0  0  0  0  0  0  0  0
    0.9266    3.8350    0.0000 H   0  0  0  0  0  0  0  0  0  0  0  0
   -0.9266    3.8350    0.0000 H   0  0  0  0  0  0  0  0  0  0  0  0
   -0.0000    4.3700    0.0000 H   0  0  0  0  0  0  0  0  0  0  0  0
   -0.9266    1.9400    0.0000 H   0  0  0  0  0  0  0  0  0  0  0  0
    0.0000    1.4050    0.0000 H   0  0  0  0  0  0  0  0  0  0  0  0
    2.3226    1.3410    0.0000 H   0  0  0  0  0  0  0  0  0  0  0  0
    2.3226   -0.5160    0.0000 H   0  0  0  0  0  0  0  0  0  0  0  0
   -0.8937   -0.5160    0.0000 H   0  0  0  0  0  0  0  0  0  0  0  0
   -0.8937    1.3410    0.0000 H   0  0  0  0  0  0  0  0  0  0  0  0
    2.3634   -1.4035    0.0000 H   0  0  0  0  0  0  0  0  0  0  0  0
   -0.3046   -3.3419    0.0000 H   0  0  0  0  0  0  0  0  0  0  0  0
   -1.1361   -3.0289    0.0000 H   0  0  0  0  0  0  0  0  0  0  0  0
   -2.9022   -2.4551    0.0000 H   0  0  0  0  0  0  0  0  0  0  0  0
   -1.9083    0.6038    0.0000 H   0  0  0  0  0  0  0  0  0  0  0  0
   -0.1422    0.0300    0.0000 H   0  0  0  0  0  0  0  0  0  0  0  0
   -4.3441   -1.6994    0.0000 H   0  0  0  0  0  0  0  0  0  0  0  0
   -2.6639   -2.2453    0.0000 H   0  0  0  0  0  0  0  0  0  0  0  0
    1.1766   -4.1520    0.0000 H   0  0  0  0  0  0  0  0  0  0  0  0
    2.6760   -3.0627    0.0000 H   0  0  0  0  0  0  0  0  0  0  0  0
    2.2408   -4.0402    0.0000 H   0  0  0  0  0  0  0  0  0  0  0  0
  1  2  1  0  0  0  0
  1 26  1  0  0  0  0
  1 27  1  0  0  0  0
  1 28  1  0  0  0  0
  2  3  1  0  0  0  0
  2 29  1  0  0  0  0
  2 30  1  0  0  0  0
  3  4  1  0  0  0  0
  4  5  2  0  0  0  0
  4  9  1  0  0  0  0
  5  6  1  0  0  0  0
  5 31  1  0  0  0  0
  6  7  2  0  0  0  0
  6 32  1  0  0  0  0
  7  8  1  0  0  0  0
  7 10  1  0  0  0  0
  8  9  2  0  0  0  0
  8 33  1  0  0  0  0
  9 34  1  0  0  0  0
 10 11  2  0  0  0  0
 10 14  1  0  0  0  0
 11 12  1  0  0  0  0
 11 35  1  0  0  0  0
 12 13  2  0  0  0  0
 12 25  1  0  0  0  0
 13 14  1  0  0  0  0
 13 36  1  0  0  0  0
 14 15  1  0  0  0  0
 15 16  2  0  0  0  0
 15 20  1  0  0  0  0
 16 17  1  0  0  0  0
 16 37  1  0  0  0  0
 17 18  2  0  0  0  0
 17 38  1  0  0  0  0
 18 19  1  0  0  0  0
 18 21  1  0  0  0  0
 19 20  2  0  0  0  0
 19 39  1  0  0  0  0
 20 40  1  0  0  0  0
 21 22  2  0  0  0  0
 21 23  2  0  0  0  0
 21 24  1  0  0  0  0
 24 41  1  0  0  0  0
 24 42  1  0  0  0  0
 25 43  1  0  0  0  0
 25 44  1  0  0  0  0
 25 45  1  0  0  0  0
M  END
>  <DRUGBANK_ID>
DB12378

>  <COMMON_NAME>
Apricoxib

>  <CAS_NUMBER>
197904-84-0

>  <UNII>
5X5HB3VZ3Z

>  <SYNONYMS>
Apricoxib

$$$$
