
 OpenBabel10282417072D

 29 29  0  0  0  0  0  0  0  0999 V2000
   -0.2387    0.7568    0.0000 O   0  0  0  0  0  0  0  0  0  0  0  0
    0.4757    0.3443    0.0000 C   0  0  3  0  0  0  0  0  0  0  0  0
    0.4757   -0.4807    0.0000 C   0  0  1  0  0  0  0  0  0  0  0  0
    1.1902   -0.8932    0.0000 O   0  0  0  0  0  0  0  0  0  0  0  0
   -0.2387   -0.8932    0.0000 C   0  0  1  0  0  0  0  0  0  0  0  0
   -0.2387   -1.7182    0.0000 O   0  0  0  0  0  0  0  0  0  0  0  0
   -0.9532   -0.4807    0.0000 C   0  0  2  0  0  0  0  0  0  0  0  0
   -1.6677   -0.8932    0.0000 O   0  0  0  0  0  0  0  0  0  0  0  0
   -0.9532    0.3443    0.0000 C   0  0  1  0  0  0  0  0  0  0  0  0
   -1.6677    0.7568    0.0000 C   0  0  0  0  0  0  0  0  0  0  0  0
   -2.3822    0.3443    0.0000 O   0  0  0  0  0  0  0  0  0  0  0  0
    1.1902    0.7568    0.0000 O   0  0  0  0  0  0  0  0  0  0  0  0
    2.0152    1.5818    0.0000 O   0  0  0  0  0  0  0  0  0  0  0  0
    2.8402    0.7568    0.0000 O   0  0  0  0  0  0  0  0  0  0  0  0
    2.0152    0.7568    0.0000 P   0  0  0  0  0  0  0  0  0  0  0  0
    2.0152   -0.0682    0.0000 O   0  0  0  0  0  0  0  0  0  0  0  0
   -0.4510   -0.1907    0.0000 H   0  0  0  0  0  0  0  0  0  0  0  0
    0.4757   -1.5507    0.0000 H   0  0  0  0  0  0  0  0  0  0  0  0
    1.1902   -1.8632    0.0000 H   0  0  0  0  0  0  0  0  0  0  0  0
   -1.1653   -1.4282    0.0000 H   0  0  0  0  0  0  0  0  0  0  0  0
   -1.0787   -2.2032    0.0000 H   0  0  0  0  0  0  0  0  0  0  0  0
   -1.8798    0.0543    0.0000 H   0  0  0  0  0  0  0  0  0  0  0  0
   -2.5077   -0.4082    0.0000 H   0  0  0  0  0  0  0  0  0  0  0  0
   -0.9532    1.4143    0.0000 H   0  0  0  0  0  0  0  0  0  0  0  0
   -1.6677    1.8268    0.0000 H   0  0  0  0  0  0  0  0  0  0  0  0
   -2.5943    1.2918    0.0000 H   0  0  0  0  0  0  0  0  0  0  0  0
   -3.2222    0.8293    0.0000 H   0  0  0  0  0  0  0  0  0  0  0  0
    3.3252   -0.0832    0.0000 H   0  0  0  0  0  0  0  0  0  0  0  0
    1.1752   -0.5532    0.0000 H   0  0  0  0  0  0  0  0  0  0  0  0
  1  9  1  0  0  0  0
  1  2  1  0  0  0  0
  2 12  1  0  0  0  0
  2 17  1  0  0  0  0
  3  2  1  0  0  0  0
  3  4  1  0  0  0  0
  3 18  1  6  0  0  0
  4 19  1  0  0  0  0
  5  3  1  0  0  0  0
  5  6  1  0  0  0  0
  5 20  1  6  0  0  0
  6 21  1  0  0  0  0
  7  5  1  0  0  0  0
  7  8  1  0  0  0  0
  7 22  1  1  0  0  0
  8 23  1  0  0  0  0
  9  7  1  0  0  0  0
  9 10  1  0  0  0  0
  9 24  1  6  0  0  0
 10 11  1  0  0  0  0
 10 25  1  0  0  0  0
 10 26  1  0  0  0  0
 11 27  1  0  0  0  0
 12 15  1  0  0  0  0
 14 28  1  0  0  0  0
 15 13  2  0  0  0  0
 15 14  1  0  0  0  0
 15 16  1  0  0  0  0
 16 29  1  0  0  0  0
M  END
>  <DRUGBANK_ID>
DB02867

>  <SECONDARY_ACCESSION_NUMBERS>
EXPT02084

>  <COMMON_NAME>
D-Mannose 1-phosphate

>  <CAS_NUMBER>
27251-84-9

>  <SYNONYMS>
D-Mannose 1-phosphate; D-mannose 1-phosphates; Mannose 1-phosphate

$$$$
