
 OpenBabel10282417072D

 98100  0  0  0  0  0  0  0  0999 V2000
   -1.0661    2.4706    0.0000 N   0  0  0  0  0  0  0  0  0  0  0  0
   -1.7799    2.8878    0.0000 C   0  0  0  0  0  0  0  0  0  0  0  0
   -1.7799    1.2376    0.0000 O   0  0  0  0  0  0  0  0  0  0  0  0
   -2.4937    2.4706    0.0000 C   0  0  0  0  0  0  0  0  0  0  0  0
   -2.4937    1.6455    0.0000 C   0  0  0  0  0  0  0  0  0  0  0  0
   -0.3523    2.8878    0.0000 C   0  0  0  0  0  0  0  0  0  0  0  0
    0.3616    2.4706    0.0000 C   0  0  0  0  0  0  0  0  0  0  0  0
    1.0661    2.8878    0.0000 C   0  0  0  0  0  0  0  0  0  0  0  0
    1.7799    2.4706    0.0000 C   0  0  0  0  0  0  0  0  0  0  0  0
    1.7799    1.6455    0.0000 C   0  0  0  0  0  0  0  0  0  0  0  0
    2.4938    2.8878    0.0000 C   0  0  0  0  0  0  0  0  0  0  0  0
    3.2077    2.4706    0.0000 C   0  0  2  0  0  0  0  0  0  0  0  0
    3.2077    1.6455    0.0000 C   0  0  0  0  0  0  0  0  0  0  0  0
   -1.7799    0.4125    0.0000 C   0  0  0  0  0  0  0  0  0  0  0  0
   -2.4937    0.0046    0.0000 O   0  0  0  0  0  0  0  0  0  0  0  0
   -3.2077    1.2376    0.0000 C   0  0  2  0  0  0  0  0  0  0  0  0
   -3.2077    0.4125    0.0000 C   0  0  1  0  0  0  0  0  0  0  0  0
    2.4938    0.4125    0.0000 N   0  0  0  0  0  0  0  0  0  0  0  0
    3.2077    0.0046    0.0000 C   0  0  0  0  0  0  0  0  0  0  0  0
    3.9215    1.2376    0.0000 C   0  0  0  0  0  0  0  0  0  0  0  0
    3.9215    0.4125    0.0000 C   0  0  0  0  0  0  0  0  0  0  0  0
    1.7799    0.0046    0.0000 C   0  0  0  0  0  0  0  0  0  0  0  0
    1.7799   -0.8204    0.0000 C   0  0  0  0  0  0  0  0  0  0  0  0
    3.2077   -0.8204    0.0000 O   0  0  0  0  0  0  0  0  0  0  0  0
    1.0661    0.4125    0.0000 C   0  0  0  0  0  0  0  0  0  0  0  0
    0.3616    0.0046    0.0000 N   0  0  0  0  0  0  0  0  0  0  0  0
    0.3616   -0.8204    0.0000 C   0  0  0  0  0  0  0  0  0  0  0  0
   -1.0661    0.0046    0.0000 C   0  0  2  0  0  0  0  0  0  0  0  0
   -0.3523   -1.2283    0.0000 C   0  0  0  0  0  0  0  0  0  0  0  0
   -1.0661   -0.8204    0.0000 C   0  0  1  0  0  0  0  0  0  0  0  0
   -1.7799   -1.2283    0.0000 S   0  0  0  0  0  0  0  0  0  0  0  0
   -1.7799    3.7036    0.0000 O   0  0  0  0  0  0  0  0  0  0  0  0
    3.9215    2.8878    0.0000 O   0  0  0  0  0  0  0  0  0  0  0  0
    4.6353    1.6455    0.0000 O   0  0  0  0  0  0  0  0  0  0  0  0
    1.0661    1.2376    0.0000 O   0  0  0  0  0  0  0  0  0  0  0  0
   -3.9215    1.6455    0.0000 C   0  0  0  0  0  0  0  0  0  0  0  0
   -3.9215    0.0046    0.0000 C   0  0  0  0  0  0  0  0  0  0  0  0
   -4.6353    0.4125    0.0000 C   0  0  0  0  0  0  0  0  0  0  0  0
   -3.9215   -0.8204    0.0000 C   0  0  0  0  0  0  0  0  0  0  0  0
   -1.7799   -2.0535    0.0000 C   0  0  0  0  0  0  0  0  0  0  0  0
   -2.4937   -2.4706    0.0000 C   0  0  0  0  0  0  0  0  0  0  0  0
   -2.4937   -3.2957    0.0000 N   0  0  0  0  0  0  0  0  0  0  0  0
   -3.2077   -3.7036    0.0000 C   0  0  0  0  0  0  0  0  0  0  0  0
   -1.7799   -3.7036    0.0000 C   0  0  0  0  0  0  0  0  0  0  0  0
   -3.9215   -3.2957    0.0000 C   0  0  0  0  0  0  0  0  0  0  0  0
   -1.0661   -3.2957    0.0000 C   0  0  0  0  0  0  0  0  0  0  0  0
   -2.1879   -0.5144    0.0000 O   0  0  0  0  0  0  0  0  0  0  0  0
   -2.6051   -1.2376    0.0000 O   0  0  0  0  0  0  0  0  0  0  0  0
   -1.0661    1.4861    0.0000 H   0  0  0  0  0  0  0  0  0  0  0  0
   -3.3888    2.9842    0.0000 H   0  0  0  0  0  0  0  0  0  0  0  0
   -1.6011    1.1275    0.0000 H   0  0  0  0  0  0  0  0  0  0  0  0
   -0.3523    3.9578    0.0000 H   0  0  0  0  0  0  0  0  0  0  0  0
    0.5757    3.4204    0.0000 H   0  0  0  0  0  0  0  0  0  0  0  0
    0.3646    1.4386    0.0000 H   0  0  0  0  0  0  0  0  0  0  0  0
    1.0631    3.9198    0.0000 H   0  0  0  0  0  0  0  0  0  0  0  0
    0.8533    1.1105    0.0000 H   0  0  0  0  0  0  0  0  0  0  0  0
    2.7065    1.1105    0.0000 H   0  0  0  0  0  0  0  0  0  0  0  0
    1.7799    0.5755    0.0000 H   0  0  0  0  0  0  0  0  0  0  0  0
    2.4938    3.9198    0.0000 H   0  0  0  0  0  0  0  0  0  0  0  0
    3.2077    3.5406    0.0000 H   0  0  0  0  0  0  0  0  0  0  0  0
    2.2822    1.1084    0.0000 H   0  0  0  0  0  0  0  0  0  0  0  0
    3.2113    0.5755    0.0000 H   0  0  0  0  0  0  0  0  0  0  0  0
   -3.2076    2.3076    0.0000 H   0  0  0  0  0  0  0  0  0  0  0  0
   -3.2076   -0.6575    0.0000 H   0  0  0  0  0  0  0  0  0  0  0  0
    4.8470   -0.1246    0.0000 H   0  0  0  0  0  0  0  0  0  0  0  0
    4.8487    0.9465    0.0000 H   0  0  0  0  0  0  0  0  0  0  0  0
    1.0502   -1.5501    0.0000 H   0  0  0  0  0  0  0  0  0  0  0  0
    1.2870   -1.3575    0.0000 H   0  0  0  0  0  0  0  0  0  0  0  0
    0.3580   -1.8904    0.0000 H   0  0  0  0  0  0  0  0  0  0  0  0
   -0.7915    1.0388    0.0000 H   0  0  0  0  0  0  0  0  0  0  0  0
   -0.3523   -2.2983    0.0000 H   0  0  0  0  0  0  0  0  0  0  0  0
   -1.2778   -1.7653    0.0000 H   0  0  0  0  0  0  0  0  0  0  0  0
   -1.9916   -0.2833    0.0000 H   0  0  0  0  0  0  0  0  0  0  0  0
    4.7641    2.4073    0.0000 H   0  0  0  0  0  0  0  0  0  0  0  0
   -3.9262    2.7155    0.0000 H   0  0  0  0  0  0  0  0  0  0  0  0
   -4.8458    1.1064    0.0000 H   0  0  0  0  0  0  0  0  0  0  0  0
   -4.8505    2.1764    0.0000 H   0  0  0  0  0  0  0  0  0  0  0  0
   -4.8470   -0.5325    0.0000 H   0  0  0  0  0  0  0  0  0  0  0  0
   -4.6400    1.4825    0.0000 H   0  0  0  0  0  0  0  0  0  0  0  0
   -5.5596   -0.1266    0.0000 H   0  0  0  0  0  0  0  0  0  0  0  0
   -5.5643    0.9434    0.0000 H   0  0  0  0  0  0  0  0  0  0  0  0
   -4.8481   -1.3554    0.0000 H   0  0  0  0  0  0  0  0  0  0  0  0
   -2.9949   -1.3554    0.0000 H   0  0  0  0  0  0  0  0  0  0  0  0
   -3.9215   -1.8904    0.0000 H   0  0  0  0  0  0  0  0  0  0  0  0
   -0.8519   -2.5861    0.0000 H   0  0  0  0  0  0  0  0  0  0  0  0
   -1.7757   -3.1235    0.0000 H   0  0  0  0  0  0  0  0  0  0  0  0
   -3.4217   -1.9380    0.0000 H   0  0  0  0  0  0  0  0  0  0  0  0
   -3.4196   -3.0068    0.0000 H   0  0  0  0  0  0  0  0  0  0  0  0
   -3.2078   -4.7736    0.0000 H   0  0  0  0  0  0  0  0  0  0  0  0
   -4.1332   -4.2406    0.0000 H   0  0  0  0  0  0  0  0  0  0  0  0
   -1.7799   -4.7736    0.0000 H   0  0  0  0  0  0  0  0  0  0  0  0
   -0.8544   -4.2407    0.0000 H   0  0  0  0  0  0  0  0  0  0  0  0
   -3.9262   -2.2257    0.0000 H   0  0  0  0  0  0  0  0  0  0  0  0
   -4.8458   -3.8348    0.0000 H   0  0  0  0  0  0  0  0  0  0  0  0
   -4.8505   -2.7648    0.0000 H   0  0  0  0  0  0  0  0  0  0  0  0
   -0.1418   -3.8348    0.0000 H   0  0  0  0  0  0  0  0  0  0  0  0
   -1.0614   -2.2257    0.0000 H   0  0  0  0  0  0  0  0  0  0  0  0
   -0.1371   -2.7648    0.0000 H   0  0  0  0  0  0  0  0  0  0  0  0
  1  2  1  0  0  0  0
  1  6  1  0  0  0  0
  1 49  1  0  0  0  0
  2  4  1  0  0  0  0
  2 32  2  0  0  0  0
  3 14  2  0  0  0  0
  4  5  2  0  0  0  0
  4 50  1  0  0  0  0
  5 16  1  0  0  0  0
  5 51  1  0  0  0  0
  6  7  1  0  0  0  0
  6 52  1  0  0  0  0
  6 53  1  0  0  0  0
  7  8  2  0  0  0  0
  7 54  1  0  0  0  0
  8  9  1  0  0  0  0
  8 55  1  0  0  0  0
  9 11  2  0  0  0  0
  9 10  1  0  0  0  0
 10 56  1  0  0  0  0
 10 57  1  0  0  0  0
 10 58  1  0  0  0  0
 11 12  1  0  0  0  0
 11 59  1  0  0  0  0
 12 13  1  0  0  0  0
 12 33  1  0  0  0  0
 12 60  1  6  0  0  0
 13 20  1  0  0  0  0
 13 61  1  0  0  0  0
 13 62  1  0  0  0  0
 14 15  1  0  0  0  0
 15 17  1  0  0  0  0
 16 17  1  0  0  0  0
 16 36  1  0  0  0  0
 16 63  1  1  0  0  0
 17 37  1  0  0  0  0
 17 64  1  1  0  0  0
 18 22  1  0  0  0  0
 18 19  2  0  0  0  0
 19 21  1  0  0  0  0
 19 24  1  0  0  0  0
 20 21  1  0  0  0  0
 20 34  2  0  0  0  0
 21 65  1  0  0  0  0
 21 66  1  0  0  0  0
 22 25  1  0  0  0  0
 22 23  2  0  0  0  0
 23 24  1  0  0  0  0
 23 67  1  0  0  0  0
 25 26  1  0  0  0  0
 25 35  2  0  0  0  0
 26 27  1  0  0  0  0
 26 28  1  0  0  0  0
 27 29  1  0  0  0  0
 27 68  1  0  0  0  0
 27 69  1  0  0  0  0
 28 14  1  0  0  0  0
 28 30  1  0  0  0  0
 28 70  1  1  0  0  0
 29 30  1  0  0  0  0
 29 71  1  0  0  0  0
 29 72  1  0  0  0  0
 30 31  1  0  0  0  0
 30 73  1  6  0  0  0
 31 40  1  0  0  0  0
 31 47  2  0  0  0  0
 31 48  2  0  0  0  0
 33 74  1  0  0  0  0
 36 75  1  0  0  0  0
 36 76  1  0  0  0  0
 36 77  1  0  0  0  0
 37 38  1  0  0  0  0
 37 39  1  0  0  0  0
 37 78  1  0  0  0  0
 38 79  1  0  0  0  0
 38 80  1  0  0  0  0
 38 81  1  0  0  0  0
 39 82  1  0  0  0  0
 39 83  1  0  0  0  0
 39 84  1  0  0  0  0
 40 41  1  0  0  0  0
 40 85  1  0  0  0  0
 40 86  1  0  0  0  0
 41 42  1  0  0  0  0
 41 87  1  0  0  0  0
 41 88  1  0  0  0  0
 42 43  1  0  0  0  0
 42 44  1  0  0  0  0
 43 45  1  0  0  0  0
 43 89  1  0  0  0  0
 43 90  1  0  0  0  0
 44 46  1  0  0  0  0
 44 91  1  0  0  0  0
 44 92  1  0  0  0  0
 45 93  1  0  0  0  0
 45 94  1  0  0  0  0
 45 95  1  0  0  0  0
 46 96  1  0  0  0  0
 46 97  1  0  0  0  0
 46 98  1  0  0  0  0
M  END
>  <DRUGBANK_ID>
DB01764

>  <SECONDARY_ACCESSION_NUMBERS>
EXPT01246

>  <COMMON_NAME>
Dalfopristin

>  <CAS_NUMBER>
112362-50-2

>  <UNII>
R9M4FJE48E

>  <SYNONYMS>
Dalfopristin; Dalfopristina; Dalfopristine; Dalfopristinum

$$$$
