
 OpenBabel10282417072D

 97 99  0  0  0  0  0  0  0  0999 V2000
    5.8903    2.4055    0.0000 S   0  0  0  0  0  0  0  0  0  0  0  0
   -7.3868    2.7369    0.0000 P   0  0  0  0  0  0  0  0  0  0  0  0
   -4.8124    1.7141    0.0000 P   0  0  2  0  0  0  0  0  0  0  0  0
   -3.3910    1.8609    0.0000 P   0  0  2  0  0  0  0  0  0  0  0  0
   -6.9035    0.2583    0.0000 O   0  0  0  0  0  0  0  0  0  0  0  0
   -7.9398    2.1248    0.0000 O   0  0  0  0  0  0  0  0  0  0  0  0
   -8.9974    0.6745    0.0000 O   0  0  0  0  0  0  0  0  0  0  0  0
   -5.4807    1.2303    0.0000 O   0  0  0  0  0  0  0  0  0  0  0  0
   -7.9989    3.2900    0.0000 O   0  0  0  0  0  0  0  0  0  0  0  0
   -6.8337    3.3490    0.0000 O   0  0  0  0  0  0  0  0  0  0  0  0
   -4.1441    2.1978    0.0000 O   0  0  0  0  0  0  0  0  0  0  0  0
   -2.6379    1.5241    0.0000 O   0  0  0  0  0  0  0  0  0  0  0  0
   -6.7746    2.1838    0.0000 O   0  0  0  0  0  0  0  0  0  0  0  0
   -4.3287    1.0457    0.0000 O   0  0  0  0  0  0  0  0  0  0  0  0
   -0.3786    0.5135    0.0000 O   0  0  0  0  0  0  0  0  0  0  0  0
   -5.2962    2.3823    0.0000 O   0  0  0  0  0  0  0  0  0  0  0  0
   -3.0542    2.6141    0.0000 O   0  0  0  0  0  0  0  0  0  0  0  0
   -3.7279    1.1079    0.0000 O   0  0  0  0  0  0  0  0  0  0  0  0
    0.1199    2.6385    0.0000 O   0  0  0  0  0  0  0  0  0  0  0  0
    2.9628    2.9324    0.0000 O   0  0  0  0  0  0  0  0  0  0  0  0
    6.7283    1.2480    0.0000 O   0  0  0  0  0  0  0  0  0  0  0  0
   10.1545    2.8462    0.0000 O   0  5  0  0  0  0  0  0  0  0  0  0
    9.5711    1.5418    0.0000 O   0  0  0  0  0  0  0  0  0  0  0  0
   -7.9449   -0.7793    0.0000 N   0  0  0  0  0  0  0  0  0  0  0  0
   -7.9449   -2.1071    0.0000 N   0  0  0  0  0  0  0  0  0  0  0  0
   -9.4401   -0.6182    0.0000 N   0  0  0  0  0  0  0  0  0  0  0  0
  -10.1545   -1.8557    0.0000 N   0  0  0  0  0  0  0  0  0  0  0  0
   -9.4401   -3.0933    0.0000 N   0  0  0  0  0  0  0  0  0  0  0  0
    0.9579    1.4810    0.0000 N   0  0  0  0  0  0  0  0  0  0  0  0
    3.8007    1.7749    0.0000 N   0  0  0  0  0  0  0  0  0  0  0  0
    9.4863    2.3625    0.0000 N   0  3  0  0  0  0  0  0  0  0  0  0
   -7.6863    1.3397    0.0000 C   0  0  1  0  0  0  0  0  0  0  0  0
   -8.1724    0.6731    0.0000 C   0  0  2  0  0  0  0  0  0  0  0  0
   -6.9021    1.0834    0.0000 C   0  0  1  0  0  0  0  0  0  0  0  0
   -7.6886    0.0047    0.0000 C   0  0  1  0  0  0  0  0  0  0  0  0
   -6.2338    1.5671    0.0000 C   0  0  0  0  0  0  0  0  0  0  0  0
   -8.7255   -1.0307    0.0000 C   0  0  0  0  0  0  0  0  0  0  0  0
   -7.4634   -1.4432    0.0000 C   0  0  0  0  0  0  0  0  0  0  0  0
   -8.7255   -1.8557    0.0000 C   0  0  0  0  0  0  0  0  0  0  0  0
   -1.2166    1.6710    0.0000 C   0  0  0  0  0  0  0  0  0  0  0  0
   -0.4634    1.3342    0.0000 C   0  0  2  0  0  0  0  0  0  0  0  0
   -1.9696    2.0079    0.0000 C   0  0  0  0  0  0  0  0  0  0  0  0
   -9.4401   -2.2682    0.0000 C   0  0  0  0  0  0  0  0  0  0  0  0
   -1.5534    0.9179    0.0000 C   0  0  0  0  0  0  0  0  0  0  0  0
   -0.8796    2.4241    0.0000 C   0  0  0  0  0  0  0  0  0  0  0  0
  -10.1545   -1.0307    0.0000 C   0  0  0  0  0  0  0  0  0  0  0  0
    0.2048    1.8179    0.0000 C   0  0  0  0  0  0  0  0  0  0  0  0
    1.6262    1.9648    0.0000 C   0  0  0  0  0  0  0  0  0  0  0  0
    2.3793    1.6280    0.0000 C   0  0  0  0  0  0  0  0  0  0  0  0
    3.0476    2.1117    0.0000 C   0  0  0  0  0  0  0  0  0  0  0  0
    4.4689    2.2586    0.0000 C   0  0  0  0  0  0  0  0  0  0  0  0
    5.2221    1.9217    0.0000 C   0  0  0  0  0  0  0  0  0  0  0  0
    7.3118    2.5525    0.0000 C   0  0  0  0  0  0  0  0  0  0  0  0
    8.0648    2.2156    0.0000 C   0  0  0  0  0  0  0  0  0  0  0  0
    6.6435    2.0687    0.0000 C   0  0  0  0  0  0  0  0  0  0  0  0
    8.7332    2.6993    0.0000 C   0  0  0  0  0  0  0  0  0  0  0  0
   -9.8830   -3.3490    0.0000 H   0  0  0  0  0  0  0  0  0  0  0  0
   -8.9970   -3.3490    0.0000 H   0  0  0  0  0  0  0  0  0  0  0  0
    1.0105    0.9722    0.0000 H   0  0  0  0  0  0  0  0  0  0  0  0
    3.8532    1.2660    0.0000 H   0  0  0  0  0  0  0  0  0  0  0  0
   -9.4810    1.5154    0.0000 H   0  0  0  0  0  0  0  0  0  0  0  0
   -7.7955    4.2384    0.0000 H   0  0  0  0  0  0  0  0  0  0  0  0
   -5.8853    3.1456    0.0000 H   0  0  0  0  0  0  0  0  0  0  0  0
   -4.7249    0.1603    0.0000 H   0  0  0  0  0  0  0  0  0  0  0  0
   -1.1643   -0.0553    0.0000 H   0  0  0  0  0  0  0  0  0  0  0  0
   -2.0894    2.7139    0.0000 H   0  0  0  0  0  0  0  0  0  0  0  0
   -8.7428    1.5090    0.0000 H   0  0  0  0  0  0  0  0  0  0  0  0
   -8.6565    1.6273    0.0000 H   0  0  0  0  0  0  0  0  0  0  0  0
   -5.9496    0.5960    0.0000 H   0  0  0  0  0  0  0  0  0  0  0  0
   -6.9333   -0.7532    0.0000 H   0  0  0  0  0  0  0  0  0  0  0  0
   -6.3438    2.6314    0.0000 H   0  0  0  0  0  0  0  0  0  0  0  0
   -7.2105    2.0040    0.0000 H   0  0  0  0  0  0  0  0  0  0  0  0
   -6.4314   -1.4432    0.0000 H   0  0  0  0  0  0  0  0  0  0  0  0
   -1.3301    0.7067    0.0000 H   0  0  0  0  0  0  0  0  0  0  0  0
   -2.0796    3.0722    0.0000 H   0  0  0  0  0  0  0  0  0  0  0  0
   -1.1028    2.6353    0.0000 H   0  0  0  0  0  0  0  0  0  0  0  0
   -2.6177    0.8078    0.0000 H   0  0  0  0  0  0  0  0  0  0  0  0
   -0.9259    0.0512    0.0000 H   0  0  0  0  0  0  0  0  0  0  0  0
   -1.9902   -0.0589    0.0000 H   0  0  0  0  0  0  0  0  0  0  0  0
    0.1847    2.5339    0.0000 H   0  0  0  0  0  0  0  0  0  0  0  0
   -1.5069    3.2909    0.0000 H   0  0  0  0  0  0  0  0  0  0  0  0
   -0.4426    3.4008    0.0000 H   0  0  0  0  0  0  0  0  0  0  0  0
  -11.0482   -0.5147    0.0000 H   0  0  0  0  0  0  0  0  0  0  0  0
    1.5161    3.0291    0.0000 H   0  0  0  0  0  0  0  0  0  0  0  0
    2.4929    2.5923    0.0000 H   0  0  0  0  0  0  0  0  0  0  0  0
    2.4893    0.5637    0.0000 H   0  0  0  0  0  0  0  0  0  0  0  0
    3.3560    1.1911    0.0000 H   0  0  0  0  0  0  0  0  0  0  0  0
    4.3589    3.3229    0.0000 H   0  0  0  0  0  0  0  0  0  0  0  0
    5.3356    2.8860    0.0000 H   0  0  0  0  0  0  0  0  0  0  0  0
    5.3322    0.8574    0.0000 H   0  0  0  0  0  0  0  0  0  0  0  0
    4.3554    1.2942    0.0000 H   0  0  0  0  0  0  0  0  0  0  0  0
    7.2018    3.6168    0.0000 H   0  0  0  0  0  0  0  0  0  0  0  0
    6.3351    2.9894    0.0000 H   0  0  0  0  0  0  0  0  0  0  0  0
    8.1747    1.1513    0.0000 H   0  0  0  0  0  0  0  0  0  0  0  0
    9.0415    1.7786    0.0000 H   0  0  0  0  0  0  0  0  0  0  0  0
    8.6232    3.7636    0.0000 H   0  0  0  0  0  0  0  0  0  0  0  0
    7.7565    3.1363    0.0000 H   0  0  0  0  0  0  0  0  0  0  0  0
  1 52  1  0  0  0  0
  1 55  1  0  0  0  0
  2  6  1  0  0  0  0
  2  9  1  0  0  0  0
  2 10  1  0  0  0  0
  2 13  2  0  0  0  0
  3  8  1  0  0  0  0
  3 11  1  0  0  0  0
  3 14  1  0  0  0  0
  3 16  2  1  0  0  0
  4 11  1  0  0  0  0
  4 12  1  0  0  0  0
  4 17  1  0  0  0  0
  4 18  2  6  0  0  0
  5 34  1  0  0  0  0
  5 35  1  0  0  0  0
  7 61  1  0  0  0  0
  8 36  1  0  0  0  0
  9 62  1  0  0  0  0
 10 63  1  0  0  0  0
 12 42  1  0  0  0  0
 14 64  1  0  0  0  0
 15 65  1  0  0  0  0
 17 66  1  0  0  0  0
 19 47  2  0  0  0  0
 20 50  2  0  0  0  0
 21 55  2  0  0  0  0
 22 31  1  0  0  0  0
 23 31  2  0  0  0  0
 24 37  1  0  0  0  0
 24 38  1  0  0  0  0
 25 38  2  0  0  0  0
 25 39  1  0  0  0  0
 26 37  2  0  0  0  0
 26 46  1  0  0  0  0
 27 43  1  0  0  0  0
 27 46  2  0  0  0  0
 28 43  1  0  0  0  0
 28 57  1  0  0  0  0
 28 58  1  0  0  0  0
 29 47  1  0  0  0  0
 29 48  1  0  0  0  0
 29 59  1  0  0  0  0
 30 50  1  0  0  0  0
 30 51  1  0  0  0  0
 30 60  1  0  0  0  0
 31 56  1  0  0  0  0
 32  6  1  0  0  0  0
 32 33  1  0  0  0  0
 32 34  1  0  0  0  0
 32 67  1  1  0  0  0
 33  7  1  0  0  0  0
 33 35  1  0  0  0  0
 33 68  1  1  0  0  0
 34 36  1  0  0  0  0
 34 69  1  6  0  0  0
 35 24  1  0  0  0  0
 35 70  1  6  0  0  0
 36 71  1  0  0  0  0
 36 72  1  0  0  0  0
 37 39  1  0  0  0  0
 38 73  1  0  0  0  0
 39 43  2  0  0  0  0
 40 41  1  0  0  0  0
 40 42  1  0  0  0  0
 40 44  1  0  0  0  0
 40 45  1  0  0  0  0
 41 15  1  0  0  0  0
 41 47  1  0  0  0  0
 41 74  1  1  0  0  0
 42 75  1  0  0  0  0
 42 76  1  0  0  0  0
 44 77  1  0  0  0  0
 44 78  1  0  0  0  0
 44 79  1  0  0  0  0
 45 80  1  0  0  0  0
 45 81  1  0  0  0  0
 45 82  1  0  0  0  0
 46 83  1  0  0  0  0
 48 49  1  0  0  0  0
 48 84  1  0  0  0  0
 48 85  1  0  0  0  0
 49 50  1  0  0  0  0
 49 86  1  0  0  0  0
 49 87  1  0  0  0  0
 51 52  1  0  0  0  0
 51 88  1  0  0  0  0
 51 89  1  0  0  0  0
 52 90  1  0  0  0  0
 52 91  1  0  0  0  0
 53 54  1  0  0  0  0
 53 55  1  0  0  0  0
 53 92  1  0  0  0  0
 53 93  1  0  0  0  0
 54 56  1  0  0  0  0
 54 94  1  0  0  0  0
 54 95  1  0  0  0  0
 56 96  1  0  0  0  0
 56 97  1  0  0  0  0
M  CHG  2  22  -1  31   1
M  END
>  <DRUGBANK_ID>
DB03245

>  <SECONDARY_ACCESSION_NUMBERS>
EXPT02298

>  <COMMON_NAME>
S-4-Nitrobutyryl-CoA

$$$$
