
 OpenBabel10282417072D

 20 19  0  0  0  0  0  0  0  0999 V2000
    1.6500    1.4289    0.0000 C   0  0  0  0  0  0  0  0  0  0  0  0
    1.2375    0.7145    0.0000 N   0  3  0  0  0  0  0  0  0  0  0  0
    0.5230    1.1270    0.0000 C   0  0  0  0  0  0  0  0  0  0  0  0
   -0.1914    0.7145    0.0000 O   0  0  0  0  0  0  0  0  0  0  0  0
    1.9520    0.3020    0.0000 C   0  0  0  0  0  0  0  0  0  0  0  0
    2.6664    0.7145    0.0000 O   0  0  0  0  0  0  0  0  0  0  0  0
    0.8250    0.0000    0.0000 C   0  0  0  0  0  0  0  0  0  0  0  0
    0.0000    0.0000    0.0000 O   0  0  0  0  0  0  0  0  0  0  0  0
    2.7200    1.4289    0.0000 H   0  0  0  0  0  0  0  0  0  0  0  0
    1.1150    2.3556    0.0000 H   0  0  0  0  0  0  0  0  0  0  0  0
    2.1850    2.3555    0.0000 H   0  0  0  0  0  0  0  0  0  0  0  0
    0.5230    2.1970    0.0000 H   0  0  0  0  0  0  0  0  0  0  0  0
   -0.4037    1.6620    0.0000 H   0  0  0  0  0  0  0  0  0  0  0  0
   -1.0315    1.1995    0.0000 H   0  0  0  0  0  0  0  0  0  0  0  0
    1.9520   -0.7680    0.0000 H   0  0  0  0  0  0  0  0  0  0  0  0
    2.8787   -0.2330    0.0000 H   0  0  0  0  0  0  0  0  0  0  0  0
    3.5065    0.2295    0.0000 H   0  0  0  0  0  0  0  0  0  0  0  0
    1.3600   -0.9266    0.0000 H   0  0  0  0  0  0  0  0  0  0  0  0
    0.2900   -0.9266    0.0000 H   0  0  0  0  0  0  0  0  0  0  0  0
   -0.4850    0.8400    0.0000 H   0  0  0  0  0  0  0  0  0  0  0  0
  1  2  1  0  0  0  0
  1  9  1  0  0  0  0
  1 10  1  0  0  0  0
  1 11  1  0  0  0  0
  2  3  1  0  0  0  0
  2  5  1  0  0  0  0
  2  7  1  0  0  0  0
  3  4  1  0  0  0  0
  3 12  1  0  0  0  0
  3 13  1  0  0  0  0
  4 14  1  0  0  0  0
  5  6  1  0  0  0  0
  5 15  1  0  0  0  0
  5 16  1  0  0  0  0
  6 17  1  0  0  0  0
  7  8  1  0  0  0  0
  7 18  1  0  0  0  0
  7 19  1  0  0  0  0
  8 20  1  0  0  0  0
M  CHG  1   2   1
M  END
>  <DRUGBANK_ID>
DB03570

>  <SECONDARY_ACCESSION_NUMBERS>
EXPT00030

>  <COMMON_NAME>
Tris-Hydroxymethyl-Methyl-Ammonium

>  <UNII>
89W2RM9EWB

$$$$
