
 OpenBabel10282417072D

 58 63  0  0  0  0  0  0  0  0999 V2000
    0.2787   -2.6194    0.0000 O   0  0  0  0  0  0  0  0  0  0  0  0
    3.8509   -2.2070    0.0000 O   0  0  0  0  0  0  0  0  0  0  0  0
   -0.9051    1.2365    0.0000 O   0  0  0  0  0  0  0  0  0  0  0  0
    0.2787   -0.9695    0.0000 N   0  0  0  0  0  0  0  0  0  0  0  0
    2.4221   -1.3820    0.0000 N   0  0  0  0  0  0  0  0  0  0  0  0
    0.9931   -1.3820    0.0000 C   0  0  2  0  0  0  0  0  0  0  0  0
    1.7076   -0.9695    0.0000 C   0  0  0  0  0  0  0  0  0  0  0  0
   -0.4356   -1.3820    0.0000 C   0  0  0  0  0  0  0  0  0  0  0  0
    0.9931   -2.2070    0.0000 C   0  0  0  0  0  0  0  0  0  0  0  0
   -0.0224   -0.2069    0.0000 C   0  0  0  0  0  0  0  0  0  0  0  0
   -1.1731   -0.9410    0.0000 C   0  0  0  0  0  0  0  0  0  0  0  0
   -0.8420   -0.1907    0.0000 C   0  0  0  0  0  0  0  0  0  0  0  0
   -0.4356   -2.2070    0.0000 C   0  0  0  0  0  0  0  0  0  0  0  0
    3.1365   -0.9695    0.0000 C   0  0  0  0  0  0  0  0  0  0  0  0
    2.4221   -2.2070    0.0000 C   0  0  0  0  0  0  0  0  0  0  0  0
    0.4482    0.4705    0.0000 C   0  0  0  0  0  0  0  0  0  0  0  0
    3.8509   -1.3820    0.0000 C   0  0  0  0  0  0  0  0  0  0  0  0
    3.1365   -2.6194    0.0000 C   0  0  0  0  0  0  0  0  0  0  0  0
   -1.9205   -1.3649    0.0000 C   0  0  0  0  0  0  0  0  0  0  0  0
   -1.1731   -2.6480    0.0000 C   0  0  0  0  0  0  0  0  0  0  0  0
   -1.2857    0.5046    0.0000 C   0  0  0  0  0  0  0  0  0  0  0  0
   -1.9205   -2.2241    0.0000 C   0  0  0  0  0  0  0  0  0  0  0  0
   -2.1099    0.4682    0.0000 C   0  0  0  0  0  0  0  0  0  0  0  0
   -2.5535    1.1637    0.0000 C   0  0  0  0  0  0  0  0  0  0  0  0
   -2.4904   -0.2635    0.0000 C   0  0  0  0  0  0  0  0  0  0  0  0
   -3.3776    1.1273    0.0000 C   0  0  0  0  0  0  0  0  0  0  0  0
   -2.1454    1.9200    0.0000 C   0  0  0  0  0  0  0  0  0  0  0  0
   -3.3145   -0.3001    0.0000 C   0  0  0  0  0  0  0  0  0  0  0  0
   -3.7582    0.3953    0.0000 C   0  0  0  0  0  0  0  0  0  0  0  0
   -3.8509    1.8445    0.0000 C   0  0  0  0  0  0  0  0  0  0  0  0
   -2.6019    2.6480    0.0000 C   0  0  0  0  0  0  0  0  0  0  0  0
   -3.4604    2.6100    0.0000 C   0  0  0  0  0  0  0  0  0  0  0  0
    0.9931   -0.3120    0.0000 H   0  0  0  0  0  0  0  0  0  0  0  0
    1.7076    0.1005    0.0000 H   0  0  0  0  0  0  0  0  0  0  0  0
    0.7810   -0.4345    0.0000 H   0  0  0  0  0  0  0  0  0  0  0  0
    1.9197   -2.7420    0.0000 H   0  0  0  0  0  0  0  0  0  0  0  0
    1.9198   -1.6720    0.0000 H   0  0  0  0  0  0  0  0  0  0  0  0
    3.1365    0.1005    0.0000 H   0  0  0  0  0  0  0  0  0  0  0  0
    4.0632   -0.4345    0.0000 H   0  0  0  0  0  0  0  0  0  0  0  0
    1.4955   -2.7420    0.0000 H   0  0  0  0  0  0  0  0  0  0  0  0
    2.4221   -3.2770    0.0000 H   0  0  0  0  0  0  0  0  0  0  0  0
    1.5145    0.3812    0.0000 H   0  0  0  0  0  0  0  0  0  0  0  0
   -0.0076    1.4386    0.0000 H   0  0  0  0  0  0  0  0  0  0  0  0
    1.0587    1.3493    0.0000 H   0  0  0  0  0  0  0  0  0  0  0  0
    4.7776   -0.8470    0.0000 H   0  0  0  0  0  0  0  0  0  0  0  0
    3.8509   -0.3120    0.0000 H   0  0  0  0  0  0  0  0  0  0  0  0
    3.1365   -3.6894    0.0000 H   0  0  0  0  0  0  0  0  0  0  0  0
    2.2099   -3.1544    0.0000 H   0  0  0  0  0  0  0  0  0  0  0  0
   -2.8123   -0.8455    0.0000 H   0  0  0  0  0  0  0  0  0  0  0  0
   -1.1612   -3.6799    0.0000 H   0  0  0  0  0  0  0  0  0  0  0  0
   -2.8123   -2.7435    0.0000 H   0  0  0  0  0  0  0  0  0  0  0  0
   -1.9354   -1.1336    0.0000 H   0  0  0  0  0  0  0  0  0  0  0  0
   -1.1139    1.9537    0.0000 H   0  0  0  0  0  0  0  0  0  0  0  0
   -3.7904   -1.2158    0.0000 H   0  0  0  0  0  0  0  0  0  0  0  0
   -4.7892    0.3497    0.0000 H   0  0  0  0  0  0  0  0  0  0  0  0
   -4.8813    1.7869    0.0000 H   0  0  0  0  0  0  0  0  0  0  0  0
   -2.1224    3.5618    0.0000 H   0  0  0  0  0  0  0  0  0  0  0  0
   -4.0187    3.4779    0.0000 H   0  0  0  0  0  0  0  0  0  0  0  0
  1  9  1  0  0  0  0
  1 13  1  0  0  0  0
  2 17  1  0  0  0  0
  2 18  1  0  0  0  0
  3 21  2  0  0  0  0
  4  6  1  0  0  0  0
  4  8  1  0  0  0  0
  4 10  1  0  0  0  0
  5  7  1  0  0  0  0
  5 14  1  0  0  0  0
  5 15  1  0  0  0  0
  6  7  1  0  0  0  0
  6  9  1  0  0  0  0
  6 33  1  1  0  0  0
  7 34  1  0  0  0  0
  7 35  1  0  0  0  0
  8 11  2  0  0  0  0
  8 13  1  0  0  0  0
  9 36  1  0  0  0  0
  9 37  1  0  0  0  0
 10 12  2  0  0  0  0
 10 16  1  0  0  0  0
 11 12  1  0  0  0  0
 11 19  1  0  0  0  0
 12 21  1  0  0  0  0
 13 20  2  0  0  0  0
 14 17  1  0  0  0  0
 14 38  1  0  0  0  0
 14 39  1  0  0  0  0
 15 18  1  0  0  0  0
 15 40  1  0  0  0  0
 15 41  1  0  0  0  0
 16 42  1  0  0  0  0
 16 43  1  0  0  0  0
 16 44  1  0  0  0  0
 17 45  1  0  0  0  0
 17 46  1  0  0  0  0
 18 47  1  0  0  0  0
 18 48  1  0  0  0  0
 19 22  2  0  0  0  0
 19 49  1  0  0  0  0
 20 22  1  0  0  0  0
 20 50  1  0  0  0  0
 21 23  1  0  0  0  0
 22 51  1  0  0  0  0
 23 24  1  0  0  0  0
 23 25  2  0  0  0  0
 24 26  1  0  0  0  0
 24 27  2  0  0  0  0
 25 28  1  0  0  0  0
 25 52  1  0  0  0  0
 26 29  1  0  0  0  0
 26 30  2  0  0  0  0
 27 31  1  0  0  0  0
 27 53  1  0  0  0  0
 28 29  2  0  0  0  0
 28 54  1  0  0  0  0
 29 55  1  0  0  0  0
 30 32  1  0  0  0  0
 30 56  1  0  0  0  0
 31 32  2  0  0  0  0
 31 57  1  0  0  0  0
 32 58  1  0  0  0  0
M  END
>  <DRUGBANK_ID>
DB13950

>  <COMMON_NAME>
WIN 55212-2

>  <CAS_NUMBER>
131543-22-1

>  <UNII>
5H31GI9502

>  <SYNONYMS>
(2,3-Dihydro-5-methyl-3-((4-morpholinyl)methyl)pyrrolo-(1,2,3-de)-1,4-benzoxazin-6-yl)(1-naphthalenyl)methanone monomethanesulfonate

$$$$
