Sarcosine.mol
 OpenBabel10282417072D

 13 12  0  0  0  0  0  0  0  0999 V2000
    0.7145   -0.2062    0.0000 C   0  0  0  0  0  0  0  0  0  0  0  0
   -0.7145   -0.2062    0.0000 N   0  0  0  0  0  0  0  0  0  0  0  0
    0.0000   -0.6187    0.0000 C   0  0  0  0  0  0  0  0  0  0  0  0
   -1.4289   -0.6187    0.0000 C   0  0  0  0  0  0  0  0  0  0  0  0
    0.7145    0.6187    0.0000 O   0  0  0  0  0  0  0  0  0  0  0  0
    1.4289   -0.6187    0.0000 O   0  0  0  0  0  0  0  0  0  0  0  0
   -0.7145    0.8138    0.0000 H   0  0  0  0  0  0  0  0  0  0  0  0
    0.0000   -1.6887    0.0000 H   0  0  0  0  0  0  0  0  0  0  0  0
    0.9266   -1.1537    0.0000 H   0  0  0  0  0  0  0  0  0  0  0  0
   -2.3556   -0.0837    0.0000 H   0  0  0  0  0  0  0  0  0  0  0  0
   -1.4289   -1.6887    0.0000 H   0  0  0  0  0  0  0  0  0  0  0  0
   -2.3555   -1.1537    0.0000 H   0  0  0  0  0  0  0  0  0  0  0  0
    1.4289   -1.5557    0.0000 H   0  0  0  0  0  0  0  0  0  0  0  0
  1  3  1  0  0  0  0
  1  5  2  0  0  0  0
  1  6  1  0  0  0  0
  2  3  1  0  0  0  0
  2  4  1  0  0  0  0
  2  7  1  0  0  0  0
  3  8  1  0  0  0  0
  3  9  1  0  0  0  0
  4 10  1  0  0  0  0
  4 11  1  0  0  0  0
  4 12  1  0  0  0  0
  6 13  1  0  0  0  0
M  END
>  <DRUGBANK_ID>
DB12519

>  <COMMON_NAME>
Sarcosine

>  <CAS_NUMBER>
107-97-1

>  <UNII>
Z711V88R5F

$$$$
