
 OpenBabel10282417072D

 57 56  0  0  0  0  0  0  0  0999 V2000
   -2.5584    0.0000    0.0000 C   0  0  0  0  0  0  0  0  0  0  0  0
   -2.5584   -0.8250    0.0000 C   0  0  0  0  0  0  0  0  0  0  0  0
   -3.2731    0.4125    0.0000 C   0  0  0  0  0  0  0  0  0  0  0  0
   -3.2731   -1.2375    0.0000 C   0  0  0  0  0  0  0  0  0  0  0  0
   -3.9875    0.0000    0.0000 C   0  0  0  0  0  0  0  0  0  0  0  0
   -3.9875   -0.8250    0.0000 C   0  0  0  0  0  0  0  0  0  0  0  0
   -1.1294    0.0000    0.0000 C   0  0  0  0  0  0  0  0  0  0  0  0
   -1.1294   -0.8250    0.0000 C   0  0  0  0  0  0  0  0  0  0  0  0
   -1.8439    0.4125    0.0000 C   0  0  0  0  0  0  0  0  0  0  0  0
   -1.8439   -1.2375    0.0000 C   0  0  0  0  0  0  0  0  0  0  0  0
    0.2996    0.0000    0.0000 C   0  0  0  0  0  0  0  0  0  0  0  0
    0.2996   -0.8250    0.0000 C   0  0  0  0  0  0  0  0  0  0  0  0
   -0.4149    0.4125    0.0000 C   0  0  0  0  0  0  0  0  0  0  0  0
   -0.4149   -1.2375    0.0000 C   0  0  0  0  0  0  0  0  0  0  0  0
    1.0139    0.4125    0.0000 C   0  0  0  0  0  0  0  0  0  0  0  0
    1.0139   -1.2375    0.0000 C   0  0  0  0  0  0  0  0  0  0  0  0
    1.7285    0.0000    0.0000 N   0  0  0  0  0  0  0  0  0  0  0  0
    1.0139    1.2375    0.0000 O   0  0  0  0  0  0  0  0  0  0  0  0
    3.3148    0.0000    0.0000 C   0  0  0  0  0  0  0  0  0  0  0  0
    3.9875    0.3883    0.0000 O   0  0  0  0  0  0  0  0  0  0  0  0
    3.3148   -0.7660    0.0000 O   0  0  0  0  0  0  0  0  0  0  0  0
    2.5218    0.4545    0.0000 C   0  0  0  0  0  0  0  0  0  0  0  0
   -2.5583   -1.0700    0.0000 H   0  0  0  0  0  0  0  0  0  0  0  0
   -1.6317   -0.5350    0.0000 H   0  0  0  0  0  0  0  0  0  0  0  0
   -2.5583    0.2450    0.0000 H   0  0  0  0  0  0  0  0  0  0  0  0
   -1.6317   -0.2900    0.0000 H   0  0  0  0  0  0  0  0  0  0  0  0
   -3.2732    1.4825    0.0000 H   0  0  0  0  0  0  0  0  0  0  0  0
   -4.1998    0.9474    0.0000 H   0  0  0  0  0  0  0  0  0  0  0  0
   -3.2732   -2.3075    0.0000 H   0  0  0  0  0  0  0  0  0  0  0  0
   -4.1998   -1.7724    0.0000 H   0  0  0  0  0  0  0  0  0  0  0  0
   -4.9142    0.5350    0.0000 H   0  0  0  0  0  0  0  0  0  0  0  0
   -4.9141   -0.5350    0.0000 H   0  0  0  0  0  0  0  0  0  0  0  0
   -4.9142   -1.3600    0.0000 H   0  0  0  0  0  0  0  0  0  0  0  0
   -4.9141   -0.2900    0.0000 H   0  0  0  0  0  0  0  0  0  0  0  0
   -1.1294   -1.0700    0.0000 H   0  0  0  0  0  0  0  0  0  0  0  0
   -0.2028   -0.5350    0.0000 H   0  0  0  0  0  0  0  0  0  0  0  0
   -1.1294    0.2450    0.0000 H   0  0  0  0  0  0  0  0  0  0  0  0
   -0.2028   -0.2900    0.0000 H   0  0  0  0  0  0  0  0  0  0  0  0
   -1.8439    1.4825    0.0000 H   0  0  0  0  0  0  0  0  0  0  0  0
   -2.7705    0.9475    0.0000 H   0  0  0  0  0  0  0  0  0  0  0  0
   -1.8439   -2.3075    0.0000 H   0  0  0  0  0  0  0  0  0  0  0  0
   -2.7705   -1.7725    0.0000 H   0  0  0  0  0  0  0  0  0  0  0  0
    0.2997   -1.0700    0.0000 H   0  0  0  0  0  0  0  0  0  0  0  0
    1.2263   -0.5349    0.0000 H   0  0  0  0  0  0  0  0  0  0  0  0
    0.2997    0.2450    0.0000 H   0  0  0  0  0  0  0  0  0  0  0  0
    1.2263   -0.2901    0.0000 H   0  0  0  0  0  0  0  0  0  0  0  0
   -0.4149    1.4825    0.0000 H   0  0  0  0  0  0  0  0  0  0  0  0
   -1.3415    0.9475    0.0000 H   0  0  0  0  0  0  0  0  0  0  0  0
   -0.4149   -2.3075    0.0000 H   0  0  0  0  0  0  0  0  0  0  0  0
   -1.3415   -1.7725    0.0000 H   0  0  0  0  0  0  0  0  0  0  0  0
    1.0138   -2.3075    0.0000 H   0  0  0  0  0  0  0  0  0  0  0  0
    1.9406   -0.7026    0.0000 H   0  0  0  0  0  0  0  0  0  0  0  0
    1.9405   -1.7726    0.0000 H   0  0  0  0  0  0  0  0  0  0  0  0
    1.7269   -0.9845    0.0000 H   0  0  0  0  0  0  0  0  0  0  0  0
    4.7989   -0.0803    0.0000 H   0  0  0  0  0  0  0  0  0  0  0  0
    2.5219    1.5245    0.0000 H   0  0  0  0  0  0  0  0  0  0  0  0
    1.5961    0.9911    0.0000 H   0  0  0  0  0  0  0  0  0  0  0  0
  1  9  1  0  0  0  0
  1 23  1  0  0  0  0
  1 24  1  0  0  0  0
  2 10  1  0  0  0  0
  2 25  1  0  0  0  0
  2 26  1  0  0  0  0
  3  1  1  0  0  0  0
  3 27  1  0  0  0  0
  3 28  1  0  0  0  0
  4  2  1  0  0  0  0
  4 29  1  0  0  0  0
  4 30  1  0  0  0  0
  5  3  1  0  0  0  0
  5 31  1  0  0  0  0
  5 32  1  0  0  0  0
  6  4  1  0  0  0  0
  6  5  1  0  0  0  0
  6 33  1  0  0  0  0
  6 34  1  0  0  0  0
  7 13  1  0  0  0  0
  7 35  1  0  0  0  0
  7 36  1  0  0  0  0
  8 14  1  0  0  0  0
  8 37  1  0  0  0  0
  8 38  1  0  0  0  0
  9  7  1  0  0  0  0
  9 39  1  0  0  0  0
  9 40  1  0  0  0  0
 10  8  1  0  0  0  0
 10 41  1  0  0  0  0
 10 42  1  0  0  0  0
 11 15  1  0  0  0  0
 11 43  1  0  0  0  0
 11 44  1  0  0  0  0
 12 16  1  0  0  0  0
 12 45  1  0  0  0  0
 12 46  1  0  0  0  0
 13 11  1  0  0  0  0
 13 47  1  0  0  0  0
 13 48  1  0  0  0  0
 14 12  1  0  0  0  0
 14 49  1  0  0  0  0
 14 50  1  0  0  0  0
 15 17  1  0  0  0  0
 15 18  2  0  0  0  0
 16 51  1  0  0  0  0
 16 52  1  0  0  0  0
 16 53  1  0  0  0  0
 17 54  1  0  0  0  0
 19 21  2  0  0  0  0
 19 22  1  0  0  0  0
 20 19  1  0  0  0  0
 20 55  1  0  0  0  0
 22 17  1  0  0  0  0
 22 56  1  0  0  0  0
 22 57  1  0  0  0  0
M  END
>  <DRUGBANK_ID>
DB03440

>  <SECONDARY_ACCESSION_NUMBERS>
EXPT00027

>  <COMMON_NAME>
N-hexadecanoylglycine

>  <CAS_NUMBER>
2441-41-0

>  <UNII>
M6V3RIU5KI

>  <SYNONYMS>
2-(Hexadecanoylamino)acetic acid; Elmiric acid; N-(1-Oxohexadecyl)glycine; N-ethanoyl-hexadecanamide; N-Palmitoyl glycine; N-Palmitoylglycine

$$$$
