
 OpenBabel10282417072D

 59 62  0  0  1  0  0  0  0  0999 V2000
    0.0768    0.9256    0.0000 C   0  0  0  0  0  0  0  0  0  0  0  0
    0.8838    0.7541    0.0000 C   0  0  0  0  0  0  0  0  0  0  0  0
    1.4358    1.3672    0.0000 C   0  0  0  0  0  0  0  0  0  0  0  0
    1.1387   -0.0305    0.0000 C   0  0  0  0  0  0  0  0  0  0  0  0
    1.9233   -0.2854    0.0000 C   0  0  0  0  0  0  0  0  0  0  0  0
    2.6378    0.1271    0.0000 N   0  0  0  0  0  0  0  0  0  0  0  0
    3.3523   -0.2854    0.0000 C   0  0  0  0  0  0  0  0  0  0  0  0
    4.0668    0.1271    0.0000 N   0  0  0  0  0  0  0  0  0  0  0  0
    4.0668    0.9521    0.0000 C   0  0  0  0  0  0  0  0  0  0  0  0
    4.7812    1.3646    0.0000 C   0  0  1  0  0  0  0  0  0  0  0  0
    4.7812    2.1896    0.0000 C   0  0  0  0  0  0  0  0  0  0  0  0
    5.4957    2.6021    0.0000 C   0  0  0  0  0  0  0  0  0  0  0  0
    6.2102    2.1896    0.0000 N   0  0  0  0  0  0  0  0  0  0  0  0
    6.2102    1.3646    0.0000 C   0  0  0  0  0  0  0  0  0  0  0  0
    5.4957    0.9521    0.0000 C   0  0  2  0  0  0  0  0  0  0  0  0
    5.4957    0.1271    0.0000 O   0  0  0  0  0  0  0  0  0  0  0  0
    3.3523   -1.1104    0.0000 C   0  0  0  0  0  0  0  0  0  0  0  0
    2.6378   -1.5229    0.0000 C   0  0  0  0  0  0  0  0  0  0  0  0
    2.6378   -2.3479    0.0000 N   0  0  0  0  0  0  0  0  0  0  0  0
    3.3523   -2.7604    0.0000 C   0  0  0  0  0  0  0  0  0  0  0  0
    3.3523   -3.5854    0.0000 C   0  0  0  0  0  0  0  0  0  0  0  0
    4.0668   -3.9979    0.0000 C   0  0  0  0  0  0  0  0  0  0  0  0
    4.0668   -4.8229    0.0000 C   0  0  0  0  0  0  0  0  0  0  0  0
    3.3523   -5.2354    0.0000 C   0  0  0  0  0  0  0  0  0  0  0  0
    2.6378   -4.8229    0.0000 C   0  0  0  0  0  0  0  0  0  0  0  0
    2.6378   -3.9979    0.0000 C   0  0  0  0  0  0  0  0  0  0  0  0
    1.9233   -1.1104    0.0000 N   0  0  0  0  0  0  0  0  0  0  0  0
    1.1387   -1.3654    0.0000 N   0  0  0  0  0  0  0  0  0  0  0  0
    0.6538   -0.6979    0.0000 C   0  0  0  0  0  0  0  0  0  0  0  0
   -0.2539    1.9432    0.0000 H   0  0  0  0  0  0  0  0  0  0  0  0
   -0.6391    0.1304    0.0000 H   0  0  0  0  0  0  0  0  0  0  0  0
   -0.9698    1.1480    0.0000 H   0  0  0  0  0  0  0  0  0  0  0  0
    1.9304    0.5316    0.0000 H   0  0  0  0  0  0  0  0  0  0  0  0
    2.4824    1.1448    0.0000 H   0  0  0  0  0  0  0  0  0  0  0  0
    1.1051    2.3848    0.0000 H   0  0  0  0  0  0  0  0  0  0  0  0
    2.1517    2.1624    0.0000 H   0  0  0  0  0  0  0  0  0  0  0  0
    4.9194   -0.3652    0.0000 H   0  0  0  0  0  0  0  0  0  0  0  0
    3.1401    1.4871    0.0000 H   0  0  0  0  0  0  0  0  0  0  0  0
    4.0668    2.0221    0.0000 H   0  0  0  0  0  0  0  0  0  0  0  0
    3.8545    1.8996    0.0000 H   0  0  0  0  0  0  0  0  0  0  0  0
    3.8546    2.7246    0.0000 H   0  0  0  0  0  0  0  0  0  0  0  0
    4.7812    3.2596    0.0000 H   0  0  0  0  0  0  0  0  0  0  0  0
    5.4957    3.6721    0.0000 H   0  0  0  0  0  0  0  0  0  0  0  0
    6.4223    3.1371    0.0000 H   0  0  0  0  0  0  0  0  0  0  0  0
    7.0935    2.6996    0.0000 H   0  0  0  0  0  0  0  0  0  0  0  0
    7.1368    0.8296    0.0000 H   0  0  0  0  0  0  0  0  0  0  0  0
    6.2102    0.2946    0.0000 H   0  0  0  0  0  0  0  0  0  0  0  0
    6.4223    0.4171    0.0000 H   0  0  0  0  0  0  0  0  0  0  0  0
    4.6557   -0.3579    0.0000 H   0  0  0  0  0  0  0  0  0  0  0  0
    4.2460   -1.6264    0.0000 H   0  0  0  0  0  0  0  0  0  0  0  0
    1.7852   -2.8402    0.0000 H   0  0  0  0  0  0  0  0  0  0  0  0
    4.2789   -2.2254    0.0000 H   0  0  0  0  0  0  0  0  0  0  0  0
    4.2789   -3.2954    0.0000 H   0  0  0  0  0  0  0  0  0  0  0  0
    4.9605   -3.4819    0.0000 H   0  0  0  0  0  0  0  0  0  0  0  0
    4.9605   -5.3389    0.0000 H   0  0  0  0  0  0  0  0  0  0  0  0
    3.3523   -6.2674    0.0000 H   0  0  0  0  0  0  0  0  0  0  0  0
    1.7441   -5.3389    0.0000 H   0  0  0  0  0  0  0  0  0  0  0  0
    1.7441   -3.4819    0.0000 H   0  0  0  0  0  0  0  0  0  0  0  0
   -0.3782   -0.6979    0.0000 H   0  0  0  0  0  0  0  0  0  0  0  0
  1  2  1  0  0  0  0
  1 30  1  0  0  0  0
  1 31  1  0  0  0  0
  1 32  1  0  0  0  0
  2  3  1  0  0  0  0
  2  4  1  0  0  0  0
  2 33  1  0  0  0  0
  3 34  1  0  0  0  0
  3 35  1  0  0  0  0
  3 36  1  0  0  0  0
  4  5  2  0  0  0  0
  4 29  1  0  0  0  0
  5  6  1  0  0  0  0
  5 27  1  0  0  0  0
  6  7  2  0  0  0  0
  7  8  1  0  0  0  0
  7 17  1  0  0  0  0
  8  9  1  0  0  0  0
  8 37  1  0  0  0  0
  9 38  1  0  0  0  0
  9 39  1  0  0  0  0
 10  9  1  0  0  0  0
 10 11  1  0  0  0  0
 10 15  1  0  0  0  0
 10 40  1  6  0  0  0
 11 12  1  0  0  0  0
 11 41  1  0  0  0  0
 11 42  1  0  0  0  0
 12 13  1  0  0  0  0
 12 43  1  0  0  0  0
 12 44  1  0  0  0  0
 13 14  1  0  0  0  0
 13 45  1  0  0  0  0
 14 46  1  0  0  0  0
 14 47  1  0  0  0  0
 15 14  1  0  0  0  0
 15 16  1  0  0  0  0
 15 48  1  1  0  0  0
 16 49  1  0  0  0  0
 17 18  2  0  0  0  0
 17 50  1  0  0  0  0
 18 19  1  0  0  0  0
 18 27  1  0  0  0  0
 19 20  1  0  0  0  0
 19 51  1  0  0  0  0
 20 21  1  0  0  0  0
 20 52  1  0  0  0  0
 20 53  1  0  0  0  0
 21 22  2  0  0  0  0
 21 26  1  0  0  0  0
 22 23  1  0  0  0  0
 22 54  1  0  0  0  0
 23 24  2  0  0  0  0
 23 55  1  0  0  0  0
 24 25  1  0  0  0  0
 24 56  1  0  0  0  0
 25 26  2  0  0  0  0
 25 57  1  0  0  0  0
 26 58  1  0  0  0  0
 27 28  1  0  0  0  0
 28 29  2  0  0  0  0
 29 59  1  0  0  0  0
M  END
>  <DRUGBANK_ID>
DB16061

>  <COMMON_NAME>
Samuraciclib

>  <CAS_NUMBER>
1805833-75-3

>  <UNII>
46D4HS9ODA

>  <SYNONYMS>
Samuraciclib

$$$$
