1564
 OpenBabel10282417072D

 55 58  0  0  1  0  0  0  0  0999 V2000
    7.5474    1.4947    0.0000 O   0  0  0  0  0  0  0  0  0  0  0  0
    1.6498   -1.7582    0.0000 O   0  0  0  0  0  0  0  0  0  0  0  0
    6.0987   -0.0653    0.0000 C   0  0  2  0  0  0  0  0  0  0  0  0
    6.0987    0.7597    0.0000 C   0  0  1  0  0  0  0  0  0  0  0  0
    5.3843   -0.4777    0.0000 C   0  0  1  0  0  0  0  0  0  0  0  0
    4.6698   -0.0653    0.0000 C   0  0  1  0  0  0  0  0  0  0  0  0
    6.8793    1.0111    0.0000 C   0  0  2  0  0  0  0  0  0  0  0  0
    3.9192   -0.4833    0.0000 C   0  0  2  0  0  0  0  0  0  0  0  0
    5.3843    1.1722    0.0000 C   0  0  0  0  0  0  0  0  0  0  0  0
    4.6698    0.7597    0.0000 C   0  0  0  0  0  0  0  0  0  0  0  0
    6.8793   -0.3166    0.0000 C   0  0  0  0  0  0  0  0  0  0  0  0
    5.3975   -1.3368    0.0000 C   0  0  2  0  0  0  0  0  0  0  0  0
    7.3606    0.3472    0.0000 C   0  0  0  0  0  0  0  0  0  0  0  0
    4.6567   -1.7722    0.0000 C   0  0  0  0  0  0  0  0  0  0  0  0
    3.9126   -1.3425    0.0000 C   0  0  0  0  0  0  0  0  0  0  0  0
    6.0987    1.5846    0.0000 C   0  0  0  0  0  0  0  0  0  0  0  0
    3.1546   -0.0180    0.0000 C   0  0  0  0  0  0  0  0  0  0  0  0
    6.6257    1.7960    0.0000 C   0  0  0  0  0  0  0  0  0  0  0  0
    3.9255    0.3416    0.0000 C   0  0  0  0  0  0  0  0  0  0  0  0
    6.1167   -1.7410    0.0000 C   0  0  0  0  0  0  0  0  0  0  0  0
    2.3727   -0.4535    0.0000 C   0  0  0  0  0  0  0  0  0  0  0  0
    3.1409   -1.7960    0.0000 C   0  0  0  0  0  0  0  0  0  0  0  0
    2.3658   -1.3485    0.0000 C   0  0  0  0  0  0  0  0  0  0  0  0
    6.1685   -0.7215    0.0000 H   0  0  0  0  0  0  0  0  0  0  0  0
    5.9583   -0.8032    0.0000 H   0  0  0  0  0  0  0  0  0  0  0  0
    5.2415    0.2647    0.0000 H   0  0  0  0  0  0  0  0  0  0  0  0
    8.4328    1.0986    0.0000 H   0  0  0  0  0  0  0  0  0  0  0  0
    5.3843    2.2422    0.0000 H   0  0  0  0  0  0  0  0  0  0  0  0
    4.4577    1.7072    0.0000 H   0  0  0  0  0  0  0  0  0  0  0  0
    3.7432    1.2947    0.0000 H   0  0  0  0  0  0  0  0  0  0  0  0
    4.6698    1.8297    0.0000 H   0  0  0  0  0  0  0  0  0  0  0  0
    7.2118   -1.3336    0.0000 H   0  0  0  0  0  0  0  0  0  0  0  0
    7.9364   -0.4825    0.0000 H   0  0  0  0  0  0  0  0  0  0  0  0
    6.3169   -0.7894    0.0000 H   0  0  0  0  0  0  0  0  0  0  0  0
    8.4306    0.3472    0.0000 H   0  0  0  0  0  0  0  0  0  0  0  0
    7.8468   -0.6060    0.0000 H   0  0  0  0  0  0  0  0  0  0  0  0
    4.6608   -2.8422    0.0000 H   0  0  0  0  0  0  0  0  0  0  0  0
    3.7311   -2.3089    0.0000 H   0  0  0  0  0  0  0  0  0  0  0  0
    7.0253    2.1196    0.0000 H   0  0  0  0  0  0  0  0  0  0  0  0
    5.1721    2.1196    0.0000 H   0  0  0  0  0  0  0  0  0  0  0  0
    6.0987    2.6546    0.0000 H   0  0  0  0  0  0  0  0  0  0  0  0
    3.1752    1.0518    0.0000 H   0  0  0  0  0  0  0  0  0  0  0  0
    2.2374    0.5330    0.0000 H   0  0  0  0  0  0  0  0  0  0  0  0
    7.3430    2.5900    0.0000 H   0  0  0  0  0  0  0  0  0  0  0  0
    5.5795    2.0202    0.0000 H   0  0  0  0  0  0  0  0  0  0  0  0
    6.2967    2.8142    0.0000 H   0  0  0  0  0  0  0  0  0  0  0  0
    4.8562    0.8695    0.0000 H   0  0  0  0  0  0  0  0  0  0  0  0
    3.0030    0.8837    0.0000 H   0  0  0  0  0  0  0  0  0  0  0  0
    3.9337    1.4116    0.0000 H   0  0  0  0  0  0  0  0  0  0  0  0
    6.1291   -2.8109    0.0000 H   0  0  0  0  0  0  0  0  0  0  0  0
    7.0371   -1.1953    0.0000 H   0  0  0  0  0  0  0  0  0  0  0  0
    7.0495   -2.2652    0.0000 H   0  0  0  0  0  0  0  0  0  0  0  0
    1.4523    0.0922    0.0000 H   0  0  0  0  0  0  0  0  0  0  0  0
    1.4409   -0.9795    0.0000 H   0  0  0  0  0  0  0  0  0  0  0  0
    3.1449   -2.8280    0.0000 H   0  0  0  0  0  0  0  0  0  0  0  0
  1 27  1  0  0  0  0
  2 23  2  0  0  0  0
  3  4  1  0  0  0  0
  3  5  1  0  0  0  0
  3 11  1  0  0  0  0
  3 24  1  6  0  0  0
  4  7  1  0  0  0  0
  4  9  1  0  0  0  0
  4 16  1  1  0  0  0
  5  6  1  0  0  0  0
  5 12  1  0  0  0  0
  5 25  1  1  0  0  0
  6  8  1  0  0  0  0
  6 10  1  0  0  0  0
  6 26  1  6  0  0  0
  7  1  1  1  0  0  0
  7 13  1  0  0  0  0
  7 18  1  0  0  0  0
  8 15  1  0  0  0  0
  8 17  1  0  0  0  0
  8 19  1  1  0  0  0
  9 10  1  0  0  0  0
  9 28  1  0  0  0  0
  9 29  1  0  0  0  0
 10 30  1  0  0  0  0
 10 31  1  0  0  0  0
 11 13  1  0  0  0  0
 11 32  1  0  0  0  0
 11 33  1  0  0  0  0
 12 14  1  0  0  0  0
 12 20  1  0  0  0  0
 12 34  1  6  0  0  0
 13 35  1  0  0  0  0
 13 36  1  0  0  0  0
 14 15  1  0  0  0  0
 14 37  1  0  0  0  0
 14 38  1  0  0  0  0
 15 22  2  0  0  0  0
 16 39  1  0  0  0  0
 16 40  1  0  0  0  0
 16 41  1  0  0  0  0
 17 21  1  0  0  0  0
 17 42  1  0  0  0  0
 17 43  1  0  0  0  0
 18 44  1  0  0  0  0
 18 45  1  0  0  0  0
 18 46  1  0  0  0  0
 19 47  1  0  0  0  0
 19 48  1  0  0  0  0
 19 49  1  0  0  0  0
 20 50  1  0  0  0  0
 20 51  1  0  0  0  0
 20 52  1  0  0  0  0
 21 23  1  0  0  0  0
 21 53  1  0  0  0  0
 21 54  1  0  0  0  0
 22 23  1  0  0  0  0
 22 55  1  0  0  0  0
M  END
>  <DRUGBANK_ID>
DB01564

>  <COMMON_NAME>
Calusterone

>  <CAS_NUMBER>
17021-26-0

>  <UNII>
0678G6Q58A

>  <SYNONYMS>
17-beta-Hydroxy-7-beta,17-alpha-dimethylandrost-4-ene-3-one; 17beta-Hydroxy-7beta,17-dimethylandrost-4-en-3-one; 17beta-Hydroxy-7beta,17alpha-dimethylandrost-4-ene-3-one; 7-beta,17-alpha-Dimethyl testosterone; 7-beta,17-Dimethyltestosterone; 7beta,17-Dimethyltestosterone; 7beta,17alpha-Dimethyltestosterone; Calusterona; Calusterone; Calusteronum; CLS

$$$$
