
 OpenBabel10282417072D

 48 47  0  0  0  0  0  0  0  0999 V2000
   -4.1250   -2.1434    0.0000 C   0  0  0  0  0  0  0  0  0  0  0  0
   -1.6500   -0.7145    0.0000 C   0  0  0  0  0  0  0  0  0  0  0  0
   -0.8250   -0.7145    0.0000 C   0  0  0  0  0  0  0  0  0  0  0  0
    1.6500    0.7145    0.0000 C   0  0  0  0  0  0  0  0  0  0  0  0
    2.0625    0.0000    0.0000 C   0  0  0  0  0  0  0  0  0  0  0  0
    3.3000    2.1434    0.0000 C   0  0  0  0  0  0  0  0  0  0  0  0
    4.1250    2.1434    0.0000 C   0  0  0  0  0  0  0  0  0  0  0  0
    4.5375    1.4289    0.0000 C   0  0  0  0  0  0  0  0  0  0  0  0
    2.0625    1.4289    0.0000 C   0  0  0  0  0  0  0  0  0  0  0  0
    2.8875    1.4289    0.0000 C   0  0  0  0  0  0  0  0  0  0  0  0
    0.4125    0.0000    0.0000 C   0  0  0  0  0  0  0  0  0  0  0  0
    0.8250    0.7145    0.0000 C   0  0  0  0  0  0  0  0  0  0  0  0
   -0.4125    0.0000    0.0000 C   0  0  0  0  0  0  0  0  0  0  0  0
   -2.0625    0.0000    0.0000 C   0  0  0  0  0  0  0  0  0  0  0  0
   -2.0625   -1.4289    0.0000 C   0  0  0  0  0  0  0  0  0  0  0  0
   -2.8875   -1.4289    0.0000 C   0  0  0  0  0  0  0  0  0  0  0  0
   -3.3000   -2.1434    0.0000 C   0  0  0  0  0  0  0  0  0  0  0  0
   -4.5375   -1.4289    0.0000 C   0  0  0  0  0  0  0  0  0  0  0  0
   -4.5375   -2.8579    0.0000 C   0  0  0  0  0  0  0  0  0  0  0  0
   -5.3625   -2.8579    0.0000 O   0  0  0  0  0  0  0  0  0  0  0  0
    4.5375    2.8579    0.0000 C   0  0  0  0  0  0  0  0  0  0  0  0
    4.1250    3.5724    0.0000 O   0  0  0  0  0  0  0  0  0  0  0  0
   -4.1250   -3.5724    0.0000 O   0  0  0  0  0  0  0  0  0  0  0  0
    5.3625    2.8579    0.0000 O   0  0  0  0  0  0  0  0  0  0  0  0
   -0.3090   -1.6082    0.0000 H   0  0  0  0  0  0  0  0  0  0  0  0
    1.5275   -0.9266    0.0000 H   0  0  0  0  0  0  0  0  0  0  0  0
    3.1325   -0.0000    0.0000 H   0  0  0  0  0  0  0  0  0  0  0  0
    2.5975   -0.9267    0.0000 H   0  0  0  0  0  0  0  0  0  0  0  0
    2.7840    3.0371    0.0000 H   0  0  0  0  0  0  0  0  0  0  0  0
    4.0025    0.5023    0.0000 H   0  0  0  0  0  0  0  0  0  0  0  0
    5.6075    1.4289    0.0000 H   0  0  0  0  0  0  0  0  0  0  0  0
    5.0725    0.5022    0.0000 H   0  0  0  0  0  0  0  0  0  0  0  0
    1.5465    2.3226    0.0000 H   0  0  0  0  0  0  0  0  0  0  0  0
    3.4035    0.5352    0.0000 H   0  0  0  0  0  0  0  0  0  0  0  0
    0.9285   -0.8937    0.0000 H   0  0  0  0  0  0  0  0  0  0  0  0
    0.3090    1.6082    0.0000 H   0  0  0  0  0  0  0  0  0  0  0  0
   -0.9285    0.8937    0.0000 H   0  0  0  0  0  0  0  0  0  0  0  0
   -1.5275    0.9266    0.0000 H   0  0  0  0  0  0  0  0  0  0  0  0
   -3.1325    0.0000    0.0000 H   0  0  0  0  0  0  0  0  0  0  0  0
   -2.5975    0.9267    0.0000 H   0  0  0  0  0  0  0  0  0  0  0  0
   -1.5465   -2.3226    0.0000 H   0  0  0  0  0  0  0  0  0  0  0  0
   -3.4035   -0.5352    0.0000 H   0  0  0  0  0  0  0  0  0  0  0  0
   -2.7840   -3.0371    0.0000 H   0  0  0  0  0  0  0  0  0  0  0  0
   -4.0025   -0.5023    0.0000 H   0  0  0  0  0  0  0  0  0  0  0  0
   -5.6075   -1.4289    0.0000 H   0  0  0  0  0  0  0  0  0  0  0  0
   -5.0725   -0.5022    0.0000 H   0  0  0  0  0  0  0  0  0  0  0  0
   -4.5935   -4.3839    0.0000 H   0  0  0  0  0  0  0  0  0  0  0  0
    5.8310    2.0464    0.0000 H   0  0  0  0  0  0  0  0  0  0  0  0
  1 17  2  0  0  0  0
  1 19  1  0  0  0  0
  2  3  2  0  0  0  0
  3 13  1  0  0  0  0
  3 25  1  0  0  0  0
  4  5  1  0  0  0  0
  4  9  1  0  0  0  0
  5 26  1  0  0  0  0
  5 27  1  0  0  0  0
  5 28  1  0  0  0  0
  6  7  2  0  0  0  0
  6 29  1  0  0  0  0
  7  8  1  0  0  0  0
  7 21  1  0  0  0  0
  8 30  1  0  0  0  0
  8 31  1  0  0  0  0
  8 32  1  0  0  0  0
  9 10  2  0  0  0  0
  9 33  1  0  0  0  0
 10  6  1  0  0  0  0
 10 34  1  0  0  0  0
 11 12  1  0  0  0  0
 11 35  1  0  0  0  0
 12  4  2  0  0  0  0
 12 36  1  0  0  0  0
 13 11  2  0  0  0  0
 13 37  1  0  0  0  0
 14  2  1  0  0  0  0
 14 38  1  0  0  0  0
 14 39  1  0  0  0  0
 14 40  1  0  0  0  0
 15  2  1  0  0  0  0
 15 41  1  0  0  0  0
 16 15  2  0  0  0  0
 16 42  1  0  0  0  0
 17 16  1  0  0  0  0
 17 43  1  0  0  0  0
 18  1  1  0  0  0  0
 18 44  1  0  0  0  0
 18 45  1  0  0  0  0
 18 46  1  0  0  0  0
 19 20  2  0  0  0  0
 19 23  1  0  0  0  0
 21 22  2  0  0  0  0
 21 24  1  0  0  0  0
 23 47  1  0  0  0  0
 24 48  1  0  0  0  0
M  END
>  <DRUGBANK_ID>
DB05974

>  <COMMON_NAME>
Transcrocetinate

>  <CAS_NUMBER>
27876-94-4

>  <UNII>
20TC155L9C

>  <SYNONYMS>
8,8'-diapo-8,8'-carotenedioic acid; 8,8'-diapo-ψ,ψ-carotenedioic acid; 8,8'-diapocarotenedioic acid; Crocetin; trans-crocetin

$$$$
