
 OpenBabel10282417072D

 50 53  0  0  0  0  0  0  0  0999 V2000
   -3.9125    0.7004    0.0000 C   0  0  0  0  0  0  0  0  0  0  0  0
   -3.1981    0.2879    0.0000 C   0  0  0  0  0  0  0  0  0  0  0  0
   -2.4836    0.7004    0.0000 C   0  0  0  0  0  0  0  0  0  0  0  0
   -1.7691    0.2879    0.0000 N   0  0  0  0  0  0  0  0  0  0  0  0
   -1.7691   -0.5371    0.0000 C   0  0  0  0  0  0  0  0  0  0  0  0
   -2.4836   -0.9496    0.0000 C   0  0  0  0  0  0  0  0  0  0  0  0
   -3.1981   -0.5371    0.0000 C   0  0  0  0  0  0  0  0  0  0  0  0
   -3.8112   -1.0892    0.0000 N   0  0  0  0  0  0  0  0  0  0  0  0
   -3.4756   -1.8428    0.0000 C   0  0  0  0  0  0  0  0  0  0  0  0
   -2.6551   -1.7566    0.0000 C   0  0  0  0  0  0  0  0  0  0  0  0
   -2.1702   -2.4240    0.0000 C   0  0  0  0  0  0  0  0  0  0  0  0
   -1.3497   -2.3378    0.0000 C   0  0  0  0  0  0  0  0  0  0  0  0
   -0.8648   -3.0052    0.0000 C   0  0  0  0  0  0  0  0  0  0  0  0
   -1.2004   -3.7589    0.0000 C   0  0  0  0  0  0  0  0  0  0  0  0
   -2.0208   -3.8451    0.0000 C   0  0  0  0  0  0  0  0  0  0  0  0
   -2.5058   -3.1777    0.0000 C   0  0  0  0  0  0  0  0  0  0  0  0
   -3.3262   -3.2639    0.0000 C   0  0  0  0  0  0  0  0  0  0  0  0
   -3.8112   -2.5965    0.0000 C   0  0  0  0  0  0  0  0  0  0  0  0
   -0.7154   -4.4263    0.0000 O   0  0  0  0  0  0  0  0  0  0  0  0
   -1.0547   -0.9496    0.0000 N   0  0  0  0  0  0  0  0  0  0  0  0
   -0.3402   -0.5371    0.0000 C   0  0  0  0  0  0  0  0  0  0  0  0
    0.3743   -0.9496    0.0000 C   0  0  0  0  0  0  0  0  0  0  0  0
    1.0888   -0.5371    0.0000 C   0  0  0  0  0  0  0  0  0  0  0  0
    1.8032   -0.9496    0.0000 N   0  0  0  0  0  0  0  0  0  0  0  0
    2.5177   -0.5371    0.0000 C   0  0  0  0  0  0  0  0  0  0  0  0
    1.8032   -1.7746    0.0000 C   0  0  0  0  0  0  0  0  0  0  0  0
   -3.9125    1.7704    0.0000 H   0  0  0  0  0  0  0  0  0  0  0  0
   -4.8392    0.1654    0.0000 H   0  0  0  0  0  0  0  0  0  0  0  0
   -4.8391    1.2354    0.0000 H   0  0  0  0  0  0  0  0  0  0  0  0
   -2.4836    1.7324    0.0000 H   0  0  0  0  0  0  0  0  0  0  0  0
   -4.7742   -0.8846    0.0000 H   0  0  0  0  0  0  0  0  0  0  0  0
   -0.9299   -1.3950    0.0000 H   0  0  0  0  0  0  0  0  0  0  0  0
    0.1615   -2.8973    0.0000 H   0  0  0  0  0  0  0  0  0  0  0  0
   -2.4405   -4.7879    0.0000 H   0  0  0  0  0  0  0  0  0  0  0  0
   -3.7459   -4.2067    0.0000 H   0  0  0  0  0  0  0  0  0  0  0  0
   -4.8375   -2.7044    0.0000 H   0  0  0  0  0  0  0  0  0  0  0  0
   -1.0964   -5.2823    0.0000 H   0  0  0  0  0  0  0  0  0  0  0  0
   -1.0547   -1.9341    0.0000 H   0  0  0  0  0  0  0  0  0  0  0  0
   -0.3402    0.5329    0.0000 H   0  0  0  0  0  0  0  0  0  0  0  0
    0.5864   -0.0021    0.0000 H   0  0  0  0  0  0  0  0  0  0  0  0
    0.3743   -2.0196    0.0000 H   0  0  0  0  0  0  0  0  0  0  0  0
    1.3009   -1.4846    0.0000 H   0  0  0  0  0  0  0  0  0  0  0  0
    1.0888    0.5329    0.0000 H   0  0  0  0  0  0  0  0  0  0  0  0
    2.0155   -0.0021    0.0000 H   0  0  0  0  0  0  0  0  0  0  0  0
    3.4443   -1.0721    0.0000 H   0  0  0  0  0  0  0  0  0  0  0  0
    2.5177    0.5329    0.0000 H   0  0  0  0  0  0  0  0  0  0  0  0
    3.4444   -0.0021    0.0000 H   0  0  0  0  0  0  0  0  0  0  0  0
    0.8766   -2.3096    0.0000 H   0  0  0  0  0  0  0  0  0  0  0  0
    2.7298   -2.3096    0.0000 H   0  0  0  0  0  0  0  0  0  0  0  0
    1.8032   -2.8446    0.0000 H   0  0  0  0  0  0  0  0  0  0  0  0
  1  2  1  0  0  0  0
  1 27  1  0  0  0  0
  1 28  1  0  0  0  0
  1 29  1  0  0  0  0
  2  3  2  0  0  0  0
  2  7  1  0  0  0  0
  3  4  1  0  0  0  0
  3 30  1  0  0  0  0
  4  5  2  0  0  0  0
  5  6  1  0  0  0  0
  5 20  1  0  0  0  0
  6  7  2  0  0  0  0
  6 10  1  0  0  0  0
  7  8  1  0  0  0  0
  8  9  1  0  0  0  0
  8 31  1  0  0  0  0
  9 10  2  0  0  0  0
  9 18  1  0  0  0  0
 10 11  1  0  0  0  0
 11 12  2  0  0  0  0
 11 16  1  0  0  0  0
 12 13  1  0  0  0  0
 12 32  1  0  0  0  0
 13 14  2  0  0  0  0
 13 33  1  0  0  0  0
 14 15  1  0  0  0  0
 14 19  1  0  0  0  0
 15 16  2  0  0  0  0
 15 34  1  0  0  0  0
 16 17  1  0  0  0  0
 17 18  2  0  0  0  0
 17 35  1  0  0  0  0
 18 36  1  0  0  0  0
 19 37  1  0  0  0  0
 20 21  1  0  0  0  0
 20 38  1  0  0  0  0
 21 22  1  0  0  0  0
 21 39  1  0  0  0  0
 21 40  1  0  0  0  0
 22 23  1  0  0  0  0
 22 41  1  0  0  0  0
 22 42  1  0  0  0  0
 23 24  1  0  0  0  0
 23 43  1  0  0  0  0
 23 44  1  0  0  0  0
 24 25  1  0  0  0  0
 24 26  1  0  0  0  0
 25 45  1  0  0  0  0
 25 46  1  0  0  0  0
 25 47  1  0  0  0  0
 26 48  1  0  0  0  0
 26 49  1  0  0  0  0
 26 50  1  0  0  0  0
M  END
>  <DRUGBANK_ID>
DB12868

>  <COMMON_NAME>
Intoplicine

>  <CAS_NUMBER>
125974-72-3

>  <UNII>
FB2CIN6HMI

>  <SYNONYMS>
Intoplicine

$$$$
