
 OpenBabel10282417072D

 74 77  0  0  0  0  0  0  0  0999 V2000
   -1.4604    1.7103    0.0000 C   0  0  0  0  0  0  0  0  0  0  0  0
   -1.2054    0.9256    0.0000 C   0  0  0  0  0  0  0  0  0  0  0  0
   -0.3984    0.7541    0.0000 C   0  0  0  0  0  0  0  0  0  0  0  0
   -0.1435   -0.0305    0.0000 C   0  0  0  0  0  0  0  0  0  0  0  0
   -0.6284   -0.6979    0.0000 C   0  0  0  0  0  0  0  0  0  0  0  0
   -0.1435   -1.3654    0.0000 N   0  0  0  0  0  0  0  0  0  0  0  0
    0.6411   -1.1104    0.0000 C   0  0  0  0  0  0  0  0  0  0  0  0
    0.6411   -0.2854    0.0000 C   0  0  0  0  0  0  0  0  0  0  0  0
    1.3556    0.1271    0.0000 N   0  0  0  0  0  0  0  0  0  0  0  0
    2.0701   -0.2854    0.0000 C   0  0  0  0  0  0  0  0  0  0  0  0
    2.0701   -1.1104    0.0000 N   0  0  0  0  0  0  0  0  0  0  0  0
    1.3556   -1.5229    0.0000 C   0  0  0  0  0  0  0  0  0  0  0  0
    1.3556   -2.3479    0.0000 O   0  0  0  0  0  0  0  0  0  0  0  0
    2.7845    0.1271    0.0000 C   0  0  0  0  0  0  0  0  0  0  0  0
    2.7845    0.9521    0.0000 C   0  0  0  0  0  0  0  0  0  0  0  0
    3.4990    1.3646    0.0000 C   0  0  0  0  0  0  0  0  0  0  0  0
    4.2135    0.9521    0.0000 C   0  0  0  0  0  0  0  0  0  0  0  0
    4.2135    0.1271    0.0000 C   0  0  0  0  0  0  0  0  0  0  0  0
    3.4990   -0.2854    0.0000 C   0  0  0  0  0  0  0  0  0  0  0  0
    3.4990   -1.1104    0.0000 O   0  0  0  0  0  0  0  0  0  0  0  0
    2.7845   -1.5229    0.0000 C   0  0  0  0  0  0  0  0  0  0  0  0
    2.7845   -2.3479    0.0000 C   0  0  0  0  0  0  0  0  0  0  0  0
    2.0701   -2.7604    0.0000 C   0  0  0  0  0  0  0  0  0  0  0  0
    3.4990    2.1896    0.0000 S   0  0  0  0  0  0  0  0  0  0  0  0
    4.3240    2.1896    0.0000 O   0  0  0  0  0  0  0  0  0  0  0  0
    2.6740    2.1896    0.0000 O   0  0  0  0  0  0  0  0  0  0  0  0
    3.4990    3.0146    0.0000 N   0  0  0  0  0  0  0  0  0  0  0  0
    2.7845    3.4271    0.0000 C   0  0  0  0  0  0  0  0  0  0  0  0
    2.7845    4.2521    0.0000 C   0  0  0  0  0  0  0  0  0  0  0  0
    3.4990    4.6646    0.0000 N   0  0  0  0  0  0  0  0  0  0  0  0
    4.2135    4.2521    0.0000 C   0  0  0  0  0  0  0  0  0  0  0  0
    4.2135    3.4271    0.0000 C   0  0  0  0  0  0  0  0  0  0  0  0
    3.4990    5.4896    0.0000 C   0  0  0  0  0  0  0  0  0  0  0  0
    4.2135    5.9021    0.0000 C   0  0  0  0  0  0  0  0  0  0  0  0
    4.2135    6.7271    0.0000 O   0  0  0  0  0  0  0  0  0  0  0  0
   -0.3984   -2.1500    0.0000 C   0  0  0  0  0  0  0  0  0  0  0  0
    0.1536   -2.7631    0.0000 C   0  0  0  0  0  0  0  0  0  0  0  0
   -0.7445    2.5055    0.0000 H   0  0  0  0  0  0  0  0  0  0  0  0
   -2.5070    1.9327    0.0000 H   0  0  0  0  0  0  0  0  0  0  0  0
   -1.7911    2.7279    0.0000 H   0  0  0  0  0  0  0  0  0  0  0  0
   -1.9213    0.1304    0.0000 H   0  0  0  0  0  0  0  0  0  0  0  0
   -0.8747   -0.0920    0.0000 H   0  0  0  0  0  0  0  0  0  0  0  0
    0.3176    1.5493    0.0000 H   0  0  0  0  0  0  0  0  0  0  0  0
    0.6482    0.5316    0.0000 H   0  0  0  0  0  0  0  0  0  0  0  0
   -1.6604   -0.6979    0.0000 H   0  0  0  0  0  0  0  0  0  0  0  0
    2.9227   -1.6027    0.0000 H   0  0  0  0  0  0  0  0  0  0  0  0
    1.8908    1.4681    0.0000 H   0  0  0  0  0  0  0  0  0  0  0  0
    5.1072    1.4681    0.0000 H   0  0  0  0  0  0  0  0  0  0  0  0
    5.1072   -0.3889    0.0000 H   0  0  0  0  0  0  0  0  0  0  0  0
    1.8579   -0.9879    0.0000 H   0  0  0  0  0  0  0  0  0  0  0  0
    1.8579   -2.0579    0.0000 H   0  0  0  0  0  0  0  0  0  0  0  0
    3.7112   -2.8829    0.0000 H   0  0  0  0  0  0  0  0  0  0  0  0
    2.7845   -3.4179    0.0000 H   0  0  0  0  0  0  0  0  0  0  0  0
    1.1434   -2.2254    0.0000 H   0  0  0  0  0  0  0  0  0  0  0  0
    2.0701   -3.8304    0.0000 H   0  0  0  0  0  0  0  0  0  0  0  0
    1.1435   -3.2954    0.0000 H   0  0  0  0  0  0  0  0  0  0  0  0
    1.8579    2.8921    0.0000 H   0  0  0  0  0  0  0  0  0  0  0  0
    1.8579    3.9621    0.0000 H   0  0  0  0  0  0  0  0  0  0  0  0
    1.8579    4.7871    0.0000 H   0  0  0  0  0  0  0  0  0  0  0  0
    2.7845    5.3221    0.0000 H   0  0  0  0  0  0  0  0  0  0  0  0
    5.1401    4.7871    0.0000 H   0  0  0  0  0  0  0  0  0  0  0  0
    5.1401    3.7171    0.0000 H   0  0  0  0  0  0  0  0  0  0  0  0
    5.1401    2.8921    0.0000 H   0  0  0  0  0  0  0  0  0  0  0  0
    4.2135    2.3571    0.0000 H   0  0  0  0  0  0  0  0  0  0  0  0
    2.5724    6.0246    0.0000 H   0  0  0  0  0  0  0  0  0  0  0  0
    3.4990    6.5596    0.0000 H   0  0  0  0  0  0  0  0  0  0  0  0
    5.1401    5.3671    0.0000 H   0  0  0  0  0  0  0  0  0  0  0  0
    5.1401    6.4371    0.0000 H   0  0  0  0  0  0  0  0  0  0  0  0
    5.0535    7.2121    0.0000 H   0  0  0  0  0  0  0  0  0  0  0  0
   -1.4450   -2.3725    0.0000 H   0  0  0  0  0  0  0  0  0  0  0  0
   -0.7291   -3.1676    0.0000 H   0  0  0  0  0  0  0  0  0  0  0  0
   -0.1771   -3.7807    0.0000 H   0  0  0  0  0  0  0  0  0  0  0  0
    1.2002   -2.5407    0.0000 H   0  0  0  0  0  0  0  0  0  0  0  0
    0.8695   -3.5583    0.0000 H   0  0  0  0  0  0  0  0  0  0  0  0
  1  2  1  0  0  0  0
  1 38  1  0  0  0  0
  1 39  1  0  0  0  0
  1 40  1  0  0  0  0
  2  3  1  0  0  0  0
  2 41  1  0  0  0  0
  2 42  1  0  0  0  0
  3  4  1  0  0  0  0
  3 43  1  0  0  0  0
  3 44  1  0  0  0  0
  4  5  2  0  0  0  0
  4  8  1  0  0  0  0
  5  6  1  0  0  0  0
  5 45  1  0  0  0  0
  6  7  1  0  0  0  0
  6 36  1  0  0  0  0
  7  8  2  0  0  0  0
  7 12  1  0  0  0  0
  8  9  1  0  0  0  0
  9 10  2  0  0  0  0
 10 11  1  0  0  0  0
 10 14  1  0  0  0  0
 11 12  1  0  0  0  0
 11 46  1  0  0  0  0
 12 13  2  0  0  0  0
 14 15  2  0  0  0  0
 14 19  1  0  0  0  0
 15 16  1  0  0  0  0
 15 47  1  0  0  0  0
 16 17  2  0  0  0  0
 16 24  1  0  0  0  0
 17 18  1  0  0  0  0
 17 48  1  0  0  0  0
 18 19  2  0  0  0  0
 18 49  1  0  0  0  0
 19 20  1  0  0  0  0
 20 21  1  0  0  0  0
 21 22  1  0  0  0  0
 21 50  1  0  0  0  0
 21 51  1  0  0  0  0
 22 23  1  0  0  0  0
 22 52  1  0  0  0  0
 22 53  1  0  0  0  0
 23 54  1  0  0  0  0
 23 55  1  0  0  0  0
 23 56  1  0  0  0  0
 24 25  2  0  0  0  0
 24 26  2  0  0  0  0
 24 27  1  0  0  0  0
 27 28  1  0  0  0  0
 27 32  1  0  0  0  0
 28 29  1  0  0  0  0
 28 57  1  0  0  0  0
 28 58  1  0  0  0  0
 29 30  1  0  0  0  0
 29 59  1  0  0  0  0
 29 60  1  0  0  0  0
 30 31  1  0  0  0  0
 30 33  1  0  0  0  0
 31 32  1  0  0  0  0
 31 61  1  0  0  0  0
 31 62  1  0  0  0  0
 32 63  1  0  0  0  0
 32 64  1  0  0  0  0
 33 34  1  0  0  0  0
 33 65  1  0  0  0  0
 33 66  1  0  0  0  0
 34 35  1  0  0  0  0
 34 67  1  0  0  0  0
 34 68  1  0  0  0  0
 35 69  1  0  0  0  0
 36 37  1  0  0  0  0
 36 70  1  0  0  0  0
 36 71  1  0  0  0  0
 37 72  1  0  0  0  0
 37 73  1  0  0  0  0
 37 74  1  0  0  0  0
M  END
>  <DRUGBANK_ID>
DB11792

>  <COMMON_NAME>
Mirodenafil

>  <CAS_NUMBER>
862189-95-5

>  <UNII>
504G362H0H

>  <SYNONYMS>
Mirodenafil

$$$$
