
 OpenBabel10282417072D

 23 23  0  0  0  0  0  0  0  0999 V2000
    0.0000    1.2374    0.0000 O   0  0  0  0  0  0  0  0  0  0  0  0
   -0.7145    0.8250    0.0000 C   0  0  1  0  0  0  0  0  0  0  0  0
    0.7145    0.8250    0.0000 C   0  0  2  0  0  0  0  0  0  0  0  0
    0.7145    0.0000    0.0000 C   0  0  1  0  0  0  0  0  0  0  0  0
    0.0000   -0.4125    0.0000 C   0  0  2  0  0  0  0  0  0  0  0  0
   -0.7145    0.0000    0.0000 C   0  0  1  0  0  0  0  0  0  0  0  0
    1.4289    1.2374    0.0000 O   0  0  0  0  0  0  0  0  0  0  0  0
    1.4289   -0.4125    0.0000 O   0  0  0  0  0  0  0  0  0  0  0  0
    0.0000   -1.2374    0.0000 O   0  0  0  0  0  0  0  0  0  0  0  0
   -1.4289   -0.4125    0.0000 O   0  0  0  0  0  0  0  0  0  0  0  0
   -1.4289    1.2374    0.0000 C   0  0  0  0  0  0  0  0  0  0  0  0
   -0.7145    1.8950    0.0000 H   0  0  0  0  0  0  0  0  0  0  0  0
    0.7145    1.8950    0.0000 H   0  0  0  0  0  0  0  0  0  0  0  0
    1.6412    0.5350    0.0000 H   0  0  0  0  0  0  0  0  0  0  0  0
    0.9266   -0.9475    0.0000 H   0  0  0  0  0  0  0  0  0  0  0  0
   -0.7145   -1.0700    0.0000 H   0  0  0  0  0  0  0  0  0  0  0  0
    2.2689    0.7523    0.0000 H   0  0  0  0  0  0  0  0  0  0  0  0
    1.4289   -1.3825    0.0000 H   0  0  0  0  0  0  0  0  0  0  0  0
   -0.8400   -1.7224    0.0000 H   0  0  0  0  0  0  0  0  0  0  0  0
   -2.2690    0.0725    0.0000 H   0  0  0  0  0  0  0  0  0  0  0  0
   -1.4290    2.3074    0.0000 H   0  0  0  0  0  0  0  0  0  0  0  0
   -2.3555    0.7023    0.0000 H   0  0  0  0  0  0  0  0  0  0  0  0
   -2.3556    1.7723    0.0000 H   0  0  0  0  0  0  0  0  0  0  0  0
  1  2  1  0  0  0  0
  2 11  1  0  0  0  0
  2  6  1  0  0  0  0
  2 12  1  6  0  0  0
  3  1  1  0  0  0  0
  3  7  1  0  0  0  0
  3  4  1  0  0  0  0
  3 13  1  6  0  0  0
  4  8  1  0  0  0  0
  4  5  1  0  0  0  0
  4 14  1  1  0  0  0
  5  9  1  0  0  0  0
  5  6  1  0  0  0  0
  5 15  1  6  0  0  0
  6 10  1  0  0  0  0
  6 16  1  6  0  0  0
  7 17  1  0  0  0  0
  8 18  1  0  0  0  0
  9 19  1  0  0  0  0
 10 20  1  0  0  0  0
 11 21  1  0  0  0  0
 11 22  1  0  0  0  0
 11 23  1  0  0  0  0
M  END
>  <DRUGBANK_ID>
DB04062

>  <SECONDARY_ACCESSION_NUMBERS>
EXPT01401

>  <COMMON_NAME>
beta-D-fucose

>  <CAS_NUMBER>
28161-52-6

>  <UNII>
ZU9GS9H79G

>  <SYNONYMS>
β-D-Fuc; β-D-fucose

$$$$
