
 OpenBabel10282417072D

 33 32  0  0  1  0  0  0  0  0999 V2000
    9.1113    2.4586    0.0000 N   0  0  0  0  0  0  0  0  0  0  0  0
    9.3095    1.6578    0.0000 C   0  0  1  0  0  0  0  0  0  0  0  0
    8.7150    1.0857    0.0000 C   0  0  0  0  0  0  0  0  0  0  0  0
    7.9224    1.3145    0.0000 C   0  0  0  0  0  0  0  0  0  0  0  0
    7.3279    0.7425    0.0000 C   0  0  0  0  0  0  0  0  0  0  0  0
    6.5353    0.9713    0.0000 C   0  0  0  0  0  0  0  0  0  0  0  0
    5.9408    0.3993    0.0000 N   0  0  0  0  0  0  0  0  0  0  0  0
    5.1482    0.6281    0.0000 C   0  0  0  0  0  0  0  0  0  0  0  0
    4.5537    0.0561    0.0000 C   0  0  0  0  0  0  0  0  0  0  0  0
    3.7610    0.2849    0.0000 O   0  0  0  0  0  0  0  0  0  0  0  0
    4.7518   -0.7448    0.0000 O   0  0  0  0  0  0  0  0  0  0  0  0
    4.9500    1.4289    0.0000 C   0  0  0  0  0  0  0  0  0  0  0  0
    4.1574    1.6578    0.0000 O   0  0  0  0  0  0  0  0  0  0  0  0
    5.5445    2.0010    0.0000 O   0  0  0  0  0  0  0  0  0  0  0  0
   10.1021    1.4289    0.0000 C   0  0  0  0  0  0  0  0  0  0  0  0
   10.6966    2.0010    0.0000 O   0  0  0  0  0  0  0  0  0  0  0  0
   10.3003    0.6281    0.0000 O   0  0  0  0  0  0  0  0  0  0  0  0
    9.8462    3.1659    0.0000 H   0  0  0  0  0  0  0  0  0  0  0  0
    8.1313    2.7414    0.0000 H   0  0  0  0  0  0  0  0  0  0  0  0
    8.2815    1.9545    0.0000 H   0  0  0  0  0  0  0  0  0  0  0  0
    8.9720    0.0470    0.0000 H   0  0  0  0  0  0  0  0  0  0  0  0
    7.9440    0.3438    0.0000 H   0  0  0  0  0  0  0  0  0  0  0  0
    7.6654    2.3532    0.0000 H   0  0  0  0  0  0  0  0  0  0  0  0
    6.8944    1.6113    0.0000 H   0  0  0  0  0  0  0  0  0  0  0  0
    7.5849   -0.2962    0.0000 H   0  0  0  0  0  0  0  0  0  0  0  0
    6.5569    0.0006    0.0000 H   0  0  0  0  0  0  0  0  0  0  0  0
    6.2783    2.0100    0.0000 H   0  0  0  0  0  0  0  0  0  0  0  0
    5.5073    1.2681    0.0000 H   0  0  0  0  0  0  0  0  0  0  0  0
    6.1858   -0.5908    0.0000 H   0  0  0  0  0  0  0  0  0  0  0  0
    4.1202    0.9249    0.0000 H   0  0  0  0  0  0  0  0  0  0  0  0
    3.5359    1.1945    0.0000 H   0  0  0  0  0  0  0  0  0  0  0  0
    3.9324    2.5674    0.0000 H   0  0  0  0  0  0  0  0  0  0  0  0
   11.5969    1.7412    0.0000 H   0  0  0  0  0  0  0  0  0  0  0  0
  1 18  1  0  0  0  0
  1 19  1  0  0  0  0
  2  1  1  0  0  0  0
  2  3  1  0  0  0  0
  2 15  1  0  0  0  0
  2 20  1  1  0  0  0
  3  4  1  0  0  0  0
  3 21  1  0  0  0  0
  3 22  1  0  0  0  0
  4  5  1  0  0  0  0
  4 23  1  0  0  0  0
  4 24  1  0  0  0  0
  5  6  1  0  0  0  0
  5 25  1  0  0  0  0
  5 26  1  0  0  0  0
  6  7  1  0  0  0  0
  6 27  1  0  0  0  0
  6 28  1  0  0  0  0
  7  8  1  0  0  0  0
  7 29  1  0  0  0  0
  8  9  1  0  0  0  0
  8 12  1  0  0  0  0
  8 30  1  0  0  0  0
  9 10  1  0  0  0  0
  9 11  2  0  0  0  0
 10 31  1  0  0  0  0
 12 13  1  0  0  0  0
 12 14  2  0  0  0  0
 13 32  1  0  0  0  0
 15 16  1  0  0  0  0
 15 17  2  0  0  0  0
 16 33  1  0  0  0  0
M  END
>  <DRUGBANK_ID>
DB01815

>  <SECONDARY_ACCESSION_NUMBERS>
EXPT02041

>  <COMMON_NAME>
Nz-(Dicarboxymethyl)Lysine

$$$$
