THN
 OpenBabel10282417072D

 37 38  0  0  0  0  0  0  0  0999 V2000
   -1.7652    0.4533    0.0000 S   0  0  0  0  0  0  0  0  0  0  0  0
   -2.1777    1.1678    0.0000 C   0  0  0  0  0  0  0  0  0  0  0  0
   -1.7652    1.8823    0.0000 C   0  0  0  0  0  0  0  0  0  0  0  0
   -2.1777    2.5968    0.0000 C   0  0  0  0  0  0  0  0  0  0  0  0
   -0.9402    1.8823    0.0000 C   0  0  1  0  0  0  0  0  0  0  0  0
   -0.5277    2.5968    0.0000 C   0  0  0  0  0  0  0  0  0  0  0  0
    0.2973    2.5968    0.0000 O   0  0  0  0  0  0  0  0  0  0  0  0
   -0.9402    3.3112    0.0000 O   0  0  0  0  0  0  0  0  0  0  0  0
   -0.5277    1.1678    0.0000 N   0  0  0  0  0  0  0  0  0  0  0  0
   -0.9402    0.4533    0.0000 C   0  0  0  0  0  0  0  0  0  0  0  0
   -0.5277   -0.2611    0.0000 C   0  0  1  0  0  0  0  0  0  0  0  0
   -0.9402   -0.9756    0.0000 C   0  0  0  0  0  0  0  0  0  0  0  0
   -0.5277   -1.6901    0.0000 O   0  0  0  0  0  0  0  0  0  0  0  0
   -1.7652   -0.9756    0.0000 O   0  0  0  0  0  0  0  0  0  0  0  0
    0.2973   -0.2611    0.0000 N   0  0  0  0  0  0  0  0  0  0  0  0
    0.7098   -0.9756    0.0000 C   0  0  0  0  0  0  0  0  0  0  0  0
    0.2973   -1.6901    0.0000 O   0  0  0  0  0  0  0  0  0  0  0  0
    1.5348   -0.9756    0.0000 C   0  0  0  0  0  0  0  0  0  0  0  0
    1.9473   -1.6901    0.0000 C   0  0  0  0  0  0  0  0  0  0  0  0
    2.7678   -1.7763    0.0000 C   0  0  0  0  0  0  0  0  0  0  0  0
    2.9393   -2.5833    0.0000 C   0  0  0  0  0  0  0  0  0  0  0  0
    2.2249   -2.9958    0.0000 C   0  0  0  0  0  0  0  0  0  0  0  0
    1.6118   -2.4437    0.0000 S   0  0  0  0  0  0  0  0  0  0  0  0
   -1.2321    2.3880    0.0000 H   0  0  0  0  0  0  0  0  0  0  0  0
   -1.1116   -0.2611    0.0000 H   0  0  0  0  0  0  0  0  0  0  0  0
   -3.2477    1.1678    0.0000 H   0  0  0  0  0  0  0  0  0  0  0  0
   -2.7127    2.0944    0.0000 H   0  0  0  0  0  0  0  0  0  0  0  0
   -1.6617    3.4905    0.0000 H   0  0  0  0  0  0  0  0  0  0  0  0
   -3.2097    2.5968    0.0000 H   0  0  0  0  0  0  0  0  0  0  0  0
    0.7658    1.7853    0.0000 H   0  0  0  0  0  0  0  0  0  0  0  0
   -2.2337   -0.1641    0.0000 H   0  0  0  0  0  0  0  0  0  0  0  0
    0.7896    0.5915    0.0000 H   0  0  0  0  0  0  0  0  0  0  0  0
    2.0698   -0.0490    0.0000 H   0  0  0  0  0  0  0  0  0  0  0  0
    2.6048   -0.9756    0.0000 H   0  0  0  0  0  0  0  0  0  0  0  0
    3.4583   -1.0094    0.0000 H   0  0  0  0  0  0  0  0  0  0  0  0
    3.8821   -3.0031    0.0000 H   0  0  0  0  0  0  0  0  0  0  0  0
    2.1170   -4.0221    0.0000 H   0  0  0  0  0  0  0  0  0  0  0  0
  1  2  1  0  0  0  0
  1 10  1  0  0  0  0
  2  3  1  0  0  0  0
  2 26  1  0  0  0  0
  2 27  1  0  0  0  0
  3  4  2  0  0  0  0
  3  5  1  0  0  0  0
  4 28  1  0  0  0  0
  4 29  1  0  0  0  0
  5  6  1  0  0  0  0
  5  9  1  0  0  0  0
  5 24  1  6  0  0  0
  6  7  1  0  0  0  0
  6  8  2  0  0  0  0
  7 30  1  0  0  0  0
  9 10  2  0  0  0  0
 10 11  1  0  0  0  0
 11 12  1  0  0  0  0
 11 15  1  0  0  0  0
 11 25  1  1  0  0  0
 12 13  2  0  0  0  0
 12 14  1  0  0  0  0
 14 31  1  0  0  0  0
 15 16  1  0  0  0  0
 15 32  1  0  0  0  0
 16 17  2  0  0  0  0
 16 18  1  0  0  0  0
 18 19  1  0  0  0  0
 18 33  1  0  0  0  0
 18 34  1  0  0  0  0
 19 20  2  0  0  0  0
 19 23  1  0  0  0  0
 20 21  1  0  0  0  0
 20 35  1  0  0  0  0
 21 22  2  0  0  0  0
 21 36  1  0  0  0  0
 22 23  1  0  0  0  0
 22 37  1  0  0  0  0
M  END
>  <DRUGBANK_ID>
DB08623

>  <COMMON_NAME>
2-[CARBOXY-(2-THIOPHEN-2-YL-ACETYLAMINO)-METHYL]-5-METHYLENE-5,6-DIHYDRO-2H-[1,3]THIAZINE-4-CARBOXYLIC ACID

$$$$
