GNR
 OpenBabel10282417072D

 26 27  0  0  0  0  0  0  0  0999 V2000
   -1.3859    1.5384    0.0000 O   0  0  0  0  0  0  0  0  0  0  0  0
   -0.6714    1.1259    0.0000 C   0  0  0  0  0  0  0  0  0  0  0  0
    0.0430    1.5384    0.0000 N   0  0  0  0  0  0  0  0  0  0  0  0
    0.7575    1.1259    0.0000 C   0  0  0  0  0  0  0  0  0  0  0  0
    1.4720    1.5384    0.0000 C   0  0  0  0  0  0  0  0  0  0  0  0
    2.1865    1.1259    0.0000 C   0  0  0  0  0  0  0  0  0  0  0  0
    2.1865    0.3009    0.0000 C   0  0  0  0  0  0  0  0  0  0  0  0
    1.4720   -0.1116    0.0000 C   0  0  0  0  0  0  0  0  0  0  0  0
    0.7575    0.3009    0.0000 C   0  0  0  0  0  0  0  0  0  0  0  0
    0.0430   -0.1116    0.0000 S   0  0  0  0  0  0  0  0  0  0  0  0
   -0.6714    0.3009    0.0000 C   0  0  2  0  0  0  0  0  0  0  0  0
   -1.3859   -0.1116    0.0000 C   0  0  0  0  0  0  0  0  0  0  0  0
   -1.3859   -0.9366    0.0000 C   0  0  0  0  0  0  0  0  0  0  0  0
   -0.6714   -1.3491    0.0000 O   0  0  0  0  0  0  0  0  0  0  0  0
   -2.1004   -1.3491    0.0000 N   0  0  0  0  0  0  0  0  0  0  0  0
   -2.1004   -2.1741    0.0000 O   0  0  0  0  0  0  0  0  0  0  0  0
   -1.1771    0.5929    0.0000 H   0  0  0  0  0  0  0  0  0  0  0  0
    0.0430    2.5229    0.0000 H   0  0  0  0  0  0  0  0  0  0  0  0
    1.4720    2.5704    0.0000 H   0  0  0  0  0  0  0  0  0  0  0  0
    3.0802    1.6419    0.0000 H   0  0  0  0  0  0  0  0  0  0  0  0
    3.0802   -0.2151    0.0000 H   0  0  0  0  0  0  0  0  0  0  0  0
    1.4720   -1.1436    0.0000 H   0  0  0  0  0  0  0  0  0  0  0  0
   -2.3125    0.4234    0.0000 H   0  0  0  0  0  0  0  0  0  0  0  0
   -2.3125   -0.6466    0.0000 H   0  0  0  0  0  0  0  0  0  0  0  0
   -2.9530   -0.8568    0.0000 H   0  0  0  0  0  0  0  0  0  0  0  0
   -2.9404   -2.6591    0.0000 H   0  0  0  0  0  0  0  0  0  0  0  0
  1  2  2  0  0  0  0
  2  3  1  0  0  0  0
  2 11  1  0  0  0  0
  3  4  1  0  0  0  0
  3 18  1  0  0  0  0
  4  5  2  0  0  0  0
  4  9  1  0  0  0  0
  5  6  1  0  0  0  0
  5 19  1  0  0  0  0
  6  7  2  0  0  0  0
  6 20  1  0  0  0  0
  7  8  1  0  0  0  0
  7 21  1  0  0  0  0
  8  9  2  0  0  0  0
  8 22  1  0  0  0  0
  9 10  1  0  0  0  0
 10 11  1  0  0  0  0
 11 12  1  0  0  0  0
 11 17  1  1  0  0  0
 12 13  1  0  0  0  0
 12 23  1  0  0  0  0
 12 24  1  0  0  0  0
 13 14  2  0  0  0  0
 13 15  1  0  0  0  0
 15 16  1  0  0  0  0
 15 25  1  0  0  0  0
 16 26  1  0  0  0  0
M  END
>  <DRUGBANK_ID>
DB02036

>  <SECONDARY_ACCESSION_NUMBERS>
EXPT01627

>  <COMMON_NAME>
2-(3,4-Dihydro-3-Oxo-2h-Benzo[B][1,4]Thiazin-2-Yl)-N-Hydroxyacetamide

$$$$
