
 OpenBabel10282417072D

180185  0  0  1  0  0  0  0  0999 V2000
    3.0416   -7.7082    0.0000 C   0  0  0  0  0  0  0  0  0  0  0  0
    3.7500   -8.1249    0.0000 C   0  0  0  0  0  0  0  0  0  0  0  0
    4.4999   -7.7082    0.0000 C   0  0  0  0  0  0  0  0  0  0  0  0
    5.2083   -8.1249    0.0000 C   0  0  2  0  0  0  0  0  0  0  0  0
    5.9166   -7.7082    0.0000 N   0  0  0  0  0  0  0  0  0  0  0  0
    6.6666   -8.1249    0.0000 C   0  0  0  0  0  0  0  0  0  0  0  0
    7.3749   -7.7082    0.0000 C   0  0  1  0  0  0  0  0  0  0  0  0
    8.0832   -8.1249    0.0000 N   0  0  0  0  0  0  0  0  0  0  0  0
    8.8332   -7.7082    0.0000 C   0  0  0  0  0  0  0  0  0  0  0  0
    9.5416   -8.1249    0.0000 C   0  0  2  0  0  0  0  0  0  0  0  0
   10.2499   -7.7082    0.0000 C   0  0  0  0  0  0  0  0  0  0  0  0
   10.9999   -8.1249    0.0000 S   0  0  0  0  0  0  0  0  0  0  0  0
   10.9999   -8.9582    0.0000 S   0  0  0  0  0  0  0  0  0  0  0  0
   10.2915   -9.3749    0.0000 C   0  0  0  0  0  0  0  0  0  0  0  0
   10.2915  -10.2083    0.0000 C   0  0  2  0  0  0  0  0  0  0  0  0
    9.5832  -10.6248    0.0000 N   0  0  0  0  0  0  0  0  0  0  0  0
    8.8332  -10.2083    0.0000 C   0  0  0  0  0  0  0  0  0  0  0  0
    8.1249  -10.6248    0.0000 C   0  0  1  0  0  0  0  0  0  0  0  0
    7.4165  -10.2083    0.0000 N   0  0  0  0  0  0  0  0  0  0  0  0
    6.6666  -10.6248    0.0000 C   0  0  0  0  0  0  0  0  0  0  0  0
    5.9582  -10.2083    0.0000 C   0  0  2  0  0  0  0  0  0  0  0  0
    5.2500  -10.6248    0.0000 C   0  0  0  0  0  0  0  0  0  0  0  0
    8.8332   -9.3749    0.0000 O   0  0  0  0  0  0  0  0  0  0  0  0
    8.1249  -13.0415    0.0000 C   0  0  0  0  0  0  0  0  0  0  0  0
    6.6666  -11.4582    0.0000 O   0  0  0  0  0  0  0  0  0  0  0  0
    5.2500  -11.4582    0.0000 C   0  0  0  0  0  0  0  0  0  0  0  0
    5.9582   -9.3749    0.0000 N   0  0  0  0  0  0  0  0  0  0  0  0
    5.2083   -8.9582    0.0000 C   0  0  0  0  0  0  0  0  0  0  0  0
    6.6666   -8.8332    0.0000 O   0  0  0  0  0  0  0  0  0  0  0  0
    7.3749   -6.8750    0.0000 C   0  0  0  0  0  0  0  0  0  0  0  0
    8.8332   -6.8750    0.0000 O   0  0  0  0  0  0  0  0  0  0  0  0
    9.5416   -8.8332    0.0000 N   0  0  0  0  0  0  0  0  0  0  0  0
    8.0832   -6.4583    0.0000 S   0  0  0  0  0  0  0  0  0  0  0  0
   10.9999  -10.6248    0.0000 C   0  0  0  0  0  0  0  0  0  0  0  0
   11.7499  -10.2083    0.0000 N   0  0  0  0  0  0  0  0  0  0  0  0
   12.4582  -10.6248    0.0000 C   0  0  2  0  0  0  0  0  0  0  0  0
   13.1665  -10.2083    0.0000 C   0  0  0  0  0  0  0  0  0  0  0  0
   13.9165  -10.6248    0.0000 N   0  0  0  0  0  0  0  0  0  0  0  0
   10.9999  -11.4582    0.0000 O   0  0  0  0  0  0  0  0  0  0  0  0
    4.5416  -11.8748    0.0000 C   0  0  0  0  0  0  0  0  0  0  0  0
    4.5416  -12.7082    0.0000 C   0  0  0  0  0  0  0  0  0  0  0  0
    5.2500  -13.1249    0.0000 C   0  0  0  0  0  0  0  0  0  0  0  0
    5.9582  -12.7082    0.0000 C   0  0  0  0  0  0  0  0  0  0  0  0
    5.9582  -11.8748    0.0000 C   0  0  0  0  0  0  0  0  0  0  0  0
    5.2500  -13.9581    0.0000 O   0  0  0  0  0  0  0  0  0  0  0  0
    4.5416   -9.3749    0.0000 O   0  0  0  0  0  0  0  0  0  0  0  0
   13.1665   -9.3749    0.0000 O   0  0  0  0  0  0  0  0  0  0  0  0
   13.9165  -11.4582    0.0000 C   0  0  0  0  0  0  0  0  0  0  0  0
   14.7082  -11.7082    0.0000 C   0  0  0  0  0  0  0  0  0  0  0  0
   15.1664  -11.0415    0.0000 C   0  0  0  0  0  0  0  0  0  0  0  0
   14.7082  -10.3748    0.0000 C   0  0  1  0  0  0  0  0  0  0  0  0
   14.9582   -9.5832    0.0000 C   0  0  0  0  0  0  0  0  0  0  0  0
   15.7915   -9.4165    0.0000 O   0  0  0  0  0  0  0  0  0  0  0  0
   14.4165   -8.9582    0.0000 N   0  0  0  0  0  0  0  0  0  0  0  0
   14.4165   -8.1249    0.0000 C   0  0  2  0  0  0  0  0  0  0  0  0
   15.1248   -7.7082    0.0000 C   0  0  0  0  0  0  0  0  0  0  0  0
   13.7081   -7.7082    0.0000 C   0  0  0  0  0  0  0  0  0  0  0  0
   15.8331   -8.1249    0.0000 O   0  0  0  0  0  0  0  0  0  0  0  0
   15.1248   -6.8750    0.0000 N   0  0  0  0  0  0  0  0  0  0  0  0
   14.4165   -6.4583    0.0000 C   0  0  1  0  0  0  0  0  0  0  0  0
   13.7081   -6.8750    0.0000 C   0  0  0  0  0  0  0  0  0  0  0  0
   14.4165   -5.6249    0.0000 C   0  0  0  0  0  0  0  0  0  0  0  0
   13.0415   -6.4583    0.0000 S   0  0  0  0  0  0  0  0  0  0  0  0
   15.1248   -5.2083    0.0000 N   0  0  0  0  0  0  0  0  0  0  0  0
   15.8331   -5.6249    0.0000 C   0  0  2  0  0  0  0  0  0  0  0  0
   13.7081   -5.2083    0.0000 O   0  0  0  0  0  0  0  0  0  0  0  0
   15.8331   -6.4583    0.0000 C   0  0  0  0  0  0  0  0  0  0  0  0
   16.5832   -6.8750    0.0000 N   0  0  0  0  0  0  0  0  0  0  0  0
   16.5832   -7.7082    0.0000 C   0  0  0  0  0  0  0  0  0  0  0  0
   16.5415   -5.2083    0.0000 C   0  0  2  0  0  0  0  0  0  0  0  0
   17.2498   -5.6249    0.0000 O   0  0  0  0  0  0  0  0  0  0  0  0
   16.5415   -4.3749    0.0000 C   0  0  0  0  0  0  0  0  0  0  0  0
    8.8332  -13.4581    0.0000 S   0  0  0  0  0  0  0  0  0  0  0  0
   14.9165  -13.4581    0.0000 S   0  0  0  0  0  0  0  0  0  0  0  0
   17.2914   -8.1249    0.0000 C   0  0  0  0  0  0  0  0  0  0  0  0
   17.2914  -11.8332    0.0000 N   0  0  0  0  0  0  0  0  0  0  0  0
   16.5832   -6.0416    0.0000 O   0  0  0  0  0  0  0  0  0  0  0  0
   12.1248  -11.4582    0.0000 C   0  0  0  0  0  0  0  0  0  0  0  0
   12.5415  -12.1665    0.0000 C   0  0  0  0  0  0  0  0  0  0  0  0
   13.3332  -12.1665    0.0000 O   0  0  0  0  0  0  0  0  0  0  0  0
   12.0831  -12.9165    0.0000 N   0  0  0  0  0  0  0  0  0  0  0  0
   17.9998   -7.7082    0.0000 O   0  0  0  0  0  0  0  0  0  0  0  0
   16.4165  -12.4998    0.0000 C   0  0  1  0  0  0  0  0  0  0  0  0
   15.5831  -12.4998    0.0000 C   0  0  0  0  0  0  0  0  0  0  0  0
   16.8331  -13.2082    0.0000 C   0  0  0  0  0  0  0  0  0  0  0  0
   17.6665  -13.2082    0.0000 N   0  0  0  0  0  0  0  0  0  0  0  0
   18.3747  -13.6665    0.0000 C   0  0  1  0  0  0  0  0  0  0  0  0
   19.1248  -13.2499    0.0000 C   0  0  0  0  0  0  0  0  0  0  0  0
   16.4165  -13.9165    0.0000 O   0  0  0  0  0  0  0  0  0  0  0  0
   18.3747  -14.4998    0.0000 C   0  0  0  0  0  0  0  0  0  0  0  0
   17.6665  -14.9165    0.0000 O   0  0  0  0  0  0  0  0  0  0  0  0
   19.0831  -14.9165    0.0000 O   0  0  0  0  0  0  0  0  0  0  0  0
   19.1248  -12.4165    0.0000 C   0  0  0  0  0  0  0  0  0  0  0  0
   19.8330  -11.9998    0.0000 C   0  0  0  0  0  0  0  0  0  0  0  0
   19.8330  -11.1665    0.0000 C   0  0  0  0  0  0  0  0  0  0  0  0
   19.1248  -10.7498    0.0000 C   0  0  0  0  0  0  0  0  0  0  0  0
   18.3747  -11.1665    0.0000 C   0  0  0  0  0  0  0  0  0  0  0  0
   18.3747  -11.9998    0.0000 C   0  0  0  0  0  0  0  0  0  0  0  0
   19.1248   -9.9166    0.0000 O   0  0  0  0  0  0  0  0  0  0  0  0
    2.3334   -8.1249    0.0000 O   0  0  0  0  0  0  0  0  0  0  0  0
    3.0416   -6.8750    0.0000 O   0  0  0  0  0  0  0  0  0  0  0  0
   15.8331   -4.7916    0.0000 H   0  0  0  0  0  0  0  0  0  0  0  0
   15.8331  -13.0832    0.0000 H   0  0  0  0  0  0  0  0  0  0  0  0
    8.7082  -11.2082    0.0000 H   0  0  0  0  0  0  0  0  0  0  0  0
    3.7369   -9.1948    0.0000 H   0  0  0  0  0  0  0  0  0  0  0  0
    4.6689   -8.6731    0.0000 H   0  0  0  0  0  0  0  0  0  0  0  0
    4.5130   -6.6383    0.0000 H   0  0  0  0  0  0  0  0  0  0  0  0
    5.4320   -7.1827    0.0000 H   0  0  0  0  0  0  0  0  0  0  0  0
    5.2083   -7.0549    0.0000 H   0  0  0  0  0  0  0  0  0  0  0  0
    5.9045   -6.7238    0.0000 H   0  0  0  0  0  0  0  0  0  0  0  0
    6.4461   -7.1770    0.0000 H   0  0  0  0  0  0  0  0  0  0  0  0
    8.0711   -9.1093    0.0000 H   0  0  0  0  0  0  0  0  0  0  0  0
    8.6128   -8.6561    0.0000 H   0  0  0  0  0  0  0  0  0  0  0  0
   10.2367   -6.6383    0.0000 H   0  0  0  0  0  0  0  0  0  0  0  0
   11.1688   -7.1599    0.0000 H   0  0  0  0  0  0  0  0  0  0  0  0
    9.3627   -8.8437    0.0000 H   0  0  0  0  0  0  0  0  0  0  0  0
    9.3659   -9.9118    0.0000 H   0  0  0  0  0  0  0  0  0  0  0  0
    9.3627   -9.6770    0.0000 H   0  0  0  0  0  0  0  0  0  0  0  0
    9.5953  -11.6092    0.0000 H   0  0  0  0  0  0  0  0  0  0  0  0
    7.4286   -9.2239    0.0000 H   0  0  0  0  0  0  0  0  0  0  0  0
    6.8870   -9.6770    0.0000 H   0  0  0  0  0  0  0  0  0  0  0  0
    4.3212  -10.0935    0.0000 H   0  0  0  0  0  0  0  0  0  0  0  0
    4.3244  -11.1617    0.0000 H   0  0  0  0  0  0  0  0  0  0  0  0
    7.1961  -13.5728    0.0000 H   0  0  0  0  0  0  0  0  0  0  0  0
    8.1184  -14.1115    0.0000 H   0  0  0  0  0  0  0  0  0  0  0  0
    6.8067   -8.8757    0.0000 H   0  0  0  0  0  0  0  0  0  0  0  0
    6.4461   -6.3438    0.0000 H   0  0  0  0  0  0  0  0  0  0  0  0
    7.3683   -5.8050    0.0000 H   0  0  0  0  0  0  0  0  0  0  0  0
    8.6583   -9.3432    0.0000 H   0  0  0  0  0  0  0  0  0  0  0  0
   10.4249   -9.3432    0.0000 H   0  0  0  0  0  0  0  0  0  0  0  0
   11.7620   -9.2239    0.0000 H   0  0  0  0  0  0  0  0  0  0  0  0
   11.4457  -10.9709    0.0000 H   0  0  0  0  0  0  0  0  0  0  0  0
    3.6458  -11.3624    0.0000 H   0  0  0  0  0  0  0  0  0  0  0  0
    3.6458  -13.2206    0.0000 H   0  0  0  0  0  0  0  0  0  0  0  0
    6.8541  -13.2205    0.0000 H   0  0  0  0  0  0  0  0  0  0  0  0
    6.8540  -11.3624    0.0000 H   0  0  0  0  0  0  0  0  0  0  0  0
    4.4385  -14.4266    0.0000 H   0  0  0  0  0  0  0  0  0  0  0  0
   13.0535  -12.0907    0.0000 H   0  0  0  0  0  0  0  0  0  0  0  0
   14.0905  -12.5140    0.0000 H   0  0  0  0  0  0  0  0  0  0  0  0
   15.0563  -12.7200    0.0000 H   0  0  0  0  0  0  0  0  0  0  0  0
   15.7684  -11.8526    0.0000 H   0  0  0  0  0  0  0  0  0  0  0  0
   16.2364  -11.0415    0.0000 H   0  0  0  0  0  0  0  0  0  0  0  0
   15.6646  -10.0946    0.0000 H   0  0  0  0  0  0  0  0  0  0  0  0
   15.7665  -10.2169    0.0000 H   0  0  0  0  0  0  0  0  0  0  0  0
   13.4941   -9.3023    0.0000 H   0  0  0  0  0  0  0  0  0  0  0  0
   13.4877   -8.6561    0.0000 H   0  0  0  0  0  0  0  0  0  0  0  0
   13.7168   -6.6382    0.0000 H   0  0  0  0  0  0  0  0  0  0  0  0
   12.7771   -8.2357    0.0000 H   0  0  0  0  0  0  0  0  0  0  0  0
   12.7858   -7.1657    0.0000 H   0  0  0  0  0  0  0  0  0  0  0  0
   15.9794   -6.3862    0.0000 H   0  0  0  0  0  0  0  0  0  0  0  0
   14.4165   -7.5283    0.0000 H   0  0  0  0  0  0  0  0  0  0  0  0
   13.6937   -7.9449    0.0000 H   0  0  0  0  0  0  0  0  0  0  0  0
   12.7687   -7.3873    0.0000 H   0  0  0  0  0  0  0  0  0  0  0  0
   15.1248   -4.2238    0.0000 H   0  0  0  0  0  0  0  0  0  0  0  0
   17.4317   -6.3757    0.0000 H   0  0  0  0  0  0  0  0  0  0  0  0
   15.6544   -8.2394    0.0000 H   0  0  0  0  0  0  0  0  0  0  0  0
   16.5766   -8.7782    0.0000 H   0  0  0  0  0  0  0  0  0  0  0  0
   16.5415   -6.2783    0.0000 H   0  0  0  0  0  0  0  0  0  0  0  0
   17.2420   -6.5949    0.0000 H   0  0  0  0  0  0  0  0  0  0  0  0
   17.4681   -3.8399    0.0000 H   0  0  0  0  0  0  0  0  0  0  0  0
   15.6149   -3.8399    0.0000 H   0  0  0  0  0  0  0  0  0  0  0  0
   16.5415   -3.3049    0.0000 H   0  0  0  0  0  0  0  0  0  0  0  0
   18.1736  -12.2701    0.0000 H   0  0  0  0  0  0  0  0  0  0  0  0
   11.0579  -11.5390    0.0000 H   0  0  0  0  0  0  0  0  0  0  0  0
   11.6291  -12.4064    0.0000 H   0  0  0  0  0  0  0  0  0  0  0  0
   11.0989  -12.8919    0.0000 H   0  0  0  0  0  0  0  0  0  0  0  0
   12.5539  -13.7811    0.0000 H   0  0  0  0  0  0  0  0  0  0  0  0
   15.0876  -11.5515    0.0000 H   0  0  0  0  0  0  0  0  0  0  0  0
   14.5152  -12.4323    0.0000 H   0  0  0  0  0  0  0  0  0  0  0  0
   17.9454  -12.2640    0.0000 H   0  0  0  0  0  0  0  0  0  0  0  0
   18.4107  -12.5971    0.0000 H   0  0  0  0  0  0  0  0  0  0  0  0
   20.0470  -13.7926    0.0000 H   0  0  0  0  0  0  0  0  0  0  0  0
   20.0537  -12.7188    0.0000 H   0  0  0  0  0  0  0  0  0  0  0  0
   16.8512  -14.4547    0.0000 H   0  0  0  0  0  0  0  0  0  0  0  0
   20.7289  -12.5121    0.0000 H   0  0  0  0  0  0  0  0  0  0  0  0
   20.7289  -10.6542    0.0000 H   0  0  0  0  0  0  0  0  0  0  0  0
   17.4853  -10.6431    0.0000 H   0  0  0  0  0  0  0  0  0  0  0  0
   17.4853  -12.5232    0.0000 H   0  0  0  0  0  0  0  0  0  0  0  0
   19.9363   -9.4481    0.0000 H   0  0  0  0  0  0  0  0  0  0  0  0
    1.5181   -7.6631    0.0000 H   0  0  0  0  0  0  0  0  0  0  0  0
  1  2  1  0  0  0  0
  1100  1  0  0  0  0
  1101  2  0  0  0  0
  2  3  1  0  0  0  0
  2105  1  0  0  0  0
  2106  1  0  0  0  0
  3107  1  0  0  0  0
  3108  1  0  0  0  0
  4  3  1  0  0  0  0
  4  5  1  0  0  0  0
  4109  1  1  0  0  0
  5  6  1  0  0  0  0
  5110  1  0  0  0  0
  6  7  1  0  0  0  0
  6 29  2  0  0  0  0
  7  8  1  0  0  0  0
  7 30  1  0  0  0  0
  7111  1  1  0  0  0
  8  9  1  0  0  0  0
  8112  1  0  0  0  0
  9 10  1  0  0  0  0
  9 31  2  0  0  0  0
 10 11  1  0  0  0  0
 10 32  1  0  0  0  0
 10113  1  1  0  0  0
 11 12  1  0  0  0  0
 11114  1  0  0  0  0
 11115  1  0  0  0  0
 12 13  1  0  0  0  0
 13 14  1  0  0  0  0
 14116  1  0  0  0  0
 14117  1  0  0  0  0
 15 14  1  0  0  0  0
 15 16  1  0  0  0  0
 15 34  1  0  0  0  0
 15118  1  6  0  0  0
 16 17  1  0  0  0  0
 16119  1  0  0  0  0
 17 18  1  0  0  0  0
 17 23  2  0  0  0  0
 18 19  1  0  0  0  0
 18 24  1  0  0  0  0
 18104  1  1  0  0  0
 19 20  1  0  0  0  0
 19120  1  0  0  0  0
 20 21  1  0  0  0  0
 20 25  2  0  0  0  0
 21 22  1  0  0  0  0
 21 27  1  0  0  0  0
 21121  1  1  0  0  0
 22 26  1  0  0  0  0
 22122  1  0  0  0  0
 22123  1  0  0  0  0
 24 73  1  0  0  0  0
 24124  1  0  0  0  0
 24125  1  0  0  0  0
 26 40  2  0  0  0  0
 26 44  1  0  0  0  0
 27 28  1  0  0  0  0
 27126  1  0  0  0  0
 28  4  1  0  0  0  0
 28 46  2  0  0  0  0
 30 33  1  0  0  0  0
 30127  1  0  0  0  0
 30128  1  0  0  0  0
 32129  1  0  0  0  0
 32130  1  0  0  0  0
 33 63  1  0  0  0  0
 34 35  1  0  0  0  0
 34 39  2  0  0  0  0
 35 36  1  0  0  0  0
 35131  1  0  0  0  0
 36 37  1  0  0  0  0
 36 78  1  0  0  0  0
 36132  1  1  0  0  0
 37 38  1  0  0  0  0
 37 47  2  0  0  0  0
 38 48  1  0  0  0  0
 40 41  1  0  0  0  0
 40133  1  0  0  0  0
 41 42  2  0  0  0  0
 41134  1  0  0  0  0
 42 43  1  0  0  0  0
 42 45  1  0  0  0  0
 43 44  2  0  0  0  0
 43135  1  0  0  0  0
 44136  1  0  0  0  0
 45137  1  0  0  0  0
 48 49  1  0  0  0  0
 48138  1  0  0  0  0
 48139  1  0  0  0  0
 49 50  1  0  0  0  0
 49140  1  0  0  0  0
 49141  1  0  0  0  0
 50 51  1  0  0  0  0
 50142  1  0  0  0  0
 50143  1  0  0  0  0
 51 38  1  0  0  0  0
 51 52  1  0  0  0  0
 51144  1  1  0  0  0
 52 53  2  0  0  0  0
 52 54  1  0  0  0  0
 54 55  1  0  0  0  0
 54145  1  0  0  0  0
 55 56  1  0  0  0  0
 55 57  1  0  0  0  0
 55146  1  6  0  0  0
 56 58  2  0  0  0  0
 56 59  1  0  0  0  0
 57147  1  0  0  0  0
 57148  1  0  0  0  0
 57149  1  0  0  0  0
 59150  1  0  0  0  0
 60 59  1  0  0  0  0
 60 61  1  0  0  0  0
 60 62  1  0  0  0  0
 60151  1  6  0  0  0
 61152  1  0  0  0  0
 61153  1  0  0  0  0
 62 64  1  0  0  0  0
 62 66  2  0  0  0  0
 63 61  1  0  0  0  0
 64 65  1  0  0  0  0
 64154  1  0  0  0  0
 65 67  1  0  0  0  0
 65 70  1  0  0  0  0
 65102  1  6  0  0  0
 67 68  1  0  0  0  0
 67 77  2  0  0  0  0
 68 69  1  0  0  0  0
 68155  1  0  0  0  0
 69 75  1  0  0  0  0
 69156  1  0  0  0  0
 69157  1  0  0  0  0
 70 71  1  0  0  0  0
 70 72  1  0  0  0  0
 70158  1  6  0  0  0
 71159  1  0  0  0  0
 72160  1  0  0  0  0
 72161  1  0  0  0  0
 72162  1  0  0  0  0
 73 74  1  0  0  0  0
 75 76  1  0  0  0  0
 75 82  2  0  0  0  0
 76163  1  0  0  0  0
 78 79  1  0  0  0  0
 78164  1  0  0  0  0
 78165  1  0  0  0  0
 79 80  2  0  0  0  0
 79 81  1  0  0  0  0
 81166  1  0  0  0  0
 81167  1  0  0  0  0
 83 76  1  0  0  0  0
 83 84  1  0  0  0  0
 83 85  1  0  0  0  0
 83103  1  1  0  0  0
 84 74  1  0  0  0  0
 84168  1  0  0  0  0
 84169  1  0  0  0  0
 85 86  1  0  0  0  0
 85 89  2  0  0  0  0
 86170  1  0  0  0  0
 87 86  1  0  0  0  0
 87 88  1  0  0  0  0
 87 90  1  0  0  0  0
 87171  1  6  0  0  0
 88 93  1  0  0  0  0
 88172  1  0  0  0  0
 88173  1  0  0  0  0
 90 91  1  0  0  0  0
 90 92  2  0  0  0  0
 91174  1  0  0  0  0
 93 94  1  0  0  0  0
 93 98  2  0  0  0  0
 94 95  2  0  0  0  0
 94175  1  0  0  0  0
 95 96  1  0  0  0  0
 95176  1  0  0  0  0
 96 97  2  0  0  0  0
 96 99  1  0  0  0  0
 97 98  1  0  0  0  0
 97177  1  0  0  0  0
 98178  1  0  0  0  0
 99179  1  0  0  0  0
100180  1  0  0  0  0
M  END
>  <DRUGBANK_ID>
DB08890

>  <SECONDARY_ACCESSION_NUMBERS>
DB05566

>  <COMMON_NAME>
Linaclotide

>  <CAS_NUMBER>
851199-59-2

>  <UNII>
N0TXR0XR5X

>  <SYNONYMS>
(9-L-TYROSINE)HEAT-STABLE ENTEROTOXIN (ESCHERICHIA COLI)-(6-19)-PEPTIDE; L-TYROSINE, L-CYSTEINYL-L-CYSTEINYL-L-.ALPHA.-GLUTAMYL-L-TYROSYL-L-CYSTEINYL-L-CYSTEINYL-L-ASPARAGINYL-L-PROLYL-L-ALANYL-L-CYSTEINYL-L-THREONYLGLYCYL-L-CYSTEINYL-, CYCLIC (1->6),(2->10),(5->13)-TRIS(DISULFIDE); Linaclotida; Linaclotide

$$$$
