
 OpenBabel10282417072D

 36 38  0  0  1  0  0  0  0  0999 V2000
    2.6378    3.1729    0.0000 C   0  0  0  0  0  0  0  0  0  0  0  0
   -0.4820   -2.3145    0.0000 C   0  0  0  0  0  0  0  0  0  0  0  0
    3.3523    1.1104    0.0000 C   0  0  0  0  0  0  0  0  0  0  0  0
    0.6538    1.5229    0.0000 C   0  0  0  0  0  0  0  0  0  0  0  0
    2.6378    2.3479    0.0000 C   0  0  0  0  0  0  0  0  0  0  0  0
   -0.5683   -1.4940    0.0000 C   0  0  1  0  0  0  0  0  0  0  0  0
    1.9233    1.9354    0.0000 C   0  0  0  0  0  0  0  0  0  0  0  0
    0.8838   -1.2640    0.0000 C   0  0  1  0  0  0  0  0  0  0  0  0
    1.3687   -0.5966    0.0000 C   0  0  2  0  0  0  0  0  0  0  0  0
    0.0992   -1.0091    0.0000 C   0  0  2  0  0  0  0  0  0  0  0  0
    1.9233    1.1104    0.0000 C   0  0  0  0  0  0  0  0  0  0  0  0
    0.8838    0.0709    0.0000 C   0  0  2  0  0  0  0  0  0  0  0  0
    3.3523    1.9354    0.0000 N   0  0  0  0  0  0  0  0  0  0  0  0
    2.6378    0.6979    0.0000 N   0  0  0  0  0  0  0  0  0  0  0  0
    1.1387    2.1904    0.0000 N   0  0  0  0  0  0  0  0  0  0  0  0
    1.1387    0.8555    0.0000 N   0  0  0  0  0  0  0  0  0  0  0  0
   -1.3220   -1.1584    0.0000 O   0  0  0  0  0  0  0  0  0  0  0  0
    1.1387   -2.0486    0.0000 O   0  0  0  0  0  0  0  0  0  0  0  0
    2.1937   -0.5966    0.0000 O   0  0  0  0  0  0  0  0  0  0  0  0
    0.0992   -0.1841    0.0000 O   0  0  0  0  0  0  0  0  0  0  0  0
    0.2547   -1.5515    0.0000 H   0  0  0  0  0  0  0  0  0  0  0  0
    1.6936   -1.1066    0.0000 H   0  0  0  0  0  0  0  0  0  0  0  0
    1.9721   -1.1592    0.0000 H   0  0  0  0  0  0  0  0  0  0  0  0
    0.4991   -1.7306    0.0000 H   0  0  0  0  0  0  0  0  0  0  0  0
    1.6986    0.1999    0.0000 H   0  0  0  0  0  0  0  0  0  0  0  0
    3.5644    3.7079    0.0000 H   0  0  0  0  0  0  0  0  0  0  0  0
    1.7112    3.7079    0.0000 H   0  0  0  0  0  0  0  0  0  0  0  0
    2.6378    4.2429    0.0000 H   0  0  0  0  0  0  0  0  0  0  0  0
   -1.3476   -2.9435    0.0000 H   0  0  0  0  0  0  0  0  0  0  0  0
    0.4955   -2.7496    0.0000 H   0  0  0  0  0  0  0  0  0  0  0  0
   -0.3701   -3.3786    0.0000 H   0  0  0  0  0  0  0  0  0  0  0  0
    4.2460    0.5944    0.0000 H   0  0  0  0  0  0  0  0  0  0  0  0
   -0.3782    1.5229    0.0000 H   0  0  0  0  0  0  0  0  0  0  0  0
   -1.4234   -0.1937    0.0000 H   0  0  0  0  0  0  0  0  0  0  0  0
    0.4896   -2.7694    0.0000 H   0  0  0  0  0  0  0  0  0  0  0  0
    2.6787   -1.4366    0.0000 H   0  0  0  0  0  0  0  0  0  0  0  0
  1 26  1  0  0  0  0
  1 27  1  0  0  0  0
  1 28  1  0  0  0  0
  2 29  1  0  0  0  0
  2 30  1  0  0  0  0
  2 31  1  0  0  0  0
  3 32  1  0  0  0  0
  4 33  1  0  0  0  0
  5  1  1  0  0  0  0
  6  2  1  0  0  0  0
  6 17  1  0  0  0  0
  6 21  1  1  0  0  0
  7  5  2  0  0  0  0
  8 18  1  0  0  0  0
  8 22  1  1  0  0  0
  9  8  1  0  0  0  0
  9 19  1  0  0  0  0
  9 23  1  1  0  0  0
 10  6  1  0  0  0  0
 10  8  1  0  0  0  0
 10 24  1  6  0  0  0
 11  7  1  0  0  0  0
 12  9  1  0  0  0  0
 12 16  1  0  0  0  0
 12 25  1  6  0  0  0
 13  3  2  0  0  0  0
 13  5  1  0  0  0  0
 14  3  1  0  0  0  0
 14 11  2  0  0  0  0
 15  4  2  0  0  0  0
 15  7  1  0  0  0  0
 16  4  1  0  0  0  0
 16 11  1  0  0  0  0
 17 34  1  0  0  0  0
 18 35  1  0  0  0  0
 19 36  1  0  0  0  0
 20 10  1  0  0  0  0
 20 12  1  0  0  0  0
M  END
>  <DRUGBANK_ID>
DB02934

>  <SECONDARY_ACCESSION_NUMBERS>
EXPT03003

>  <COMMON_NAME>
9-(6-deoxy-alpha-L-talofuranosyl)-6-methylpurine

$$$$
