
 OpenBabel10282417072D

152156  0  0  0  0  0  0  0  0999 V2000
   -6.9733    1.1988    0.0000 N   0  0  0  0  0  0  0  0  0  0  0  0
   -7.1448    0.3919    0.0000 C   0  0  0  0  0  0  0  0  0  0  0  0
   -8.1843   -0.6477    0.0000 N   0  0  0  0  0  0  0  0  0  0  0  0
    0.2106    3.5969    0.0000 N   0  0  0  0  0  0  0  0  0  0  0  0
    0.2106    2.7719    0.0000 C   0  0  0  0  0  0  0  0  0  0  0  0
   -6.2196    1.5344    0.0000 C   0  0  2  0  0  0  0  0  0  0  0  0
   -7.6995   -1.3150    0.0000 C   0  0  0  0  0  0  0  0  0  0  0  0
   -7.9295    0.1369    0.0000 C   0  0  1  0  0  0  0  0  0  0  0  0
    1.6627    3.8269    0.0000 C   0  0  0  0  0  0  0  0  0  0  0  0
   -0.5038    2.3594    0.0000 C   0  0  1  0  0  0  0  0  0  0  0  0
    0.8779    4.0818    0.0000 C   0  0  2  0  0  0  0  0  0  0  0  0
   -1.9328    2.3594    0.0000 C   0  0  0  0  0  0  0  0  0  0  0  0
   -1.2183    2.7719    0.0000 N   0  0  0  0  0  0  0  0  0  0  0  0
   -5.5051    1.1219    0.0000 C   0  0  0  0  0  0  0  0  0  0  0  0
   -2.6472    2.7719    0.0000 C   0  0  1  0  0  0  0  0  0  0  0  0
   -7.2514   -5.5784    0.0000 C   0  0  0  0  0  0  0  0  0  0  0  0
    8.6512    5.3124    0.0000 C   0  0  0  0  0  0  0  0  0  0  0  0
    2.2757    4.3789    0.0000 N   0  0  0  0  0  0  0  0  0  0  0  0
   -3.3616    2.3594    0.0000 N   0  0  0  0  0  0  0  0  0  0  0  0
   -7.5253    1.8119    0.0000 C   0  0  0  0  0  0  0  0  0  0  0  0
   -6.3058    2.3549    0.0000 C   0  0  0  0  0  0  0  0  0  0  0  0
   -3.3616    4.0094    0.0000 C   0  0  0  0  0  0  0  0  0  0  0  0
    4.8997    5.7801    0.0000 C   0  0  0  0  0  0  0  0  0  0  0  0
   -2.6472    3.5969    0.0000 C   0  0  0  0  0  0  0  0  0  0  0  0
   -3.3616    1.5344    0.0000 C   0  0  0  0  0  0  0  0  0  0  0  0
   -4.7906    1.5344    0.0000 N   0  0  0  0  0  0  0  0  0  0  0  0
   -3.4480    4.8299    0.0000 S   0  0  0  0  0  0  0  0  0  0  0  0
   -6.5317   -0.1601    0.0000 O   0  0  0  0  0  0  0  0  0  0  0  0
    9.2643    5.8644    0.0000 N   0  0  0  0  0  0  0  0  0  0  0  0
   -6.4308   -5.4922    0.0000 N   0  0  0  0  0  0  0  0  0  0  0  0
    4.4581    4.4211    0.0000 N   0  0  0  0  0  0  0  0  0  0  0  0
    0.9251    2.3594    0.0000 O   0  0  0  0  0  0  0  0  0  0  0  0
   -6.8790   -1.2288    0.0000 O   0  0  0  0  0  0  0  0  0  0  0  0
    1.8341    3.0199    0.0000 O   0  0  0  0  0  0  0  0  0  0  0  0
   -1.9328    1.5344    0.0000 O   0  0  0  0  0  0  0  0  0  0  0  0
   -7.1127    2.5264    0.0000 C   0  0  1  0  0  0  0  0  0  0  0  0
   -4.2550    5.0014    0.0000 C   0  0  0  0  0  0  0  0  0  0  0  0
   -5.5051    0.2969    0.0000 O   0  0  0  0  0  0  0  0  0  0  0  0
   -4.1153    3.6738    0.0000 C   0  0  0  0  0  0  0  0  0  0  0  0
   -8.0350   -2.0688    0.0000 C   0  0  1  0  0  0  0  0  0  0  0  0
    4.1149    6.0350    0.0000 O   0  0  0  0  0  0  0  0  0  0  0  0
    5.0712    4.9731    0.0000 C   0  0  1  0  0  0  0  0  0  0  0  0
   -4.6674    4.2869    0.0000 C   0  0  0  0  0  0  0  0  0  0  0  0
   -2.6472    1.1219    0.0000 O   0  0  0  0  0  0  0  0  0  0  0  0
    3.0604    4.1240    0.0000 C   0  0  2  0  0  0  0  0  0  0  0  0
    7.8666    5.5673    0.0000 N   0  0  0  0  0  0  0  0  0  0  0  0
   -7.7362   -4.9109    0.0000 N   0  0  0  0  0  0  0  0  0  0  0  0
   -4.0761    1.1219    0.0000 C   0  0  0  0  0  0  0  0  0  0  0  0
    8.8228    4.5054    0.0000 N   0  0  0  0  0  0  0  0  0  0  0  0
   -7.5869   -6.3321    0.0000 N   0  0  0  0  0  0  0  0  0  0  0  0
   -9.0094   -0.6477    0.0000 C   0  0  0  0  0  0  0  0  0  0  0  0
   -0.4568    4.0818    0.0000 C   0  0  0  0  0  0  0  0  0  0  0  0
    3.6735    4.6760    0.0000 C   0  0  0  0  0  0  0  0  0  0  0  0
    5.5127    6.3321    0.0000 O   0  0  0  0  0  0  0  0  0  0  0  0
    3.2319    3.3170    0.0000 C   0  0  0  0  0  0  0  0  0  0  0  0
    4.0165    3.0621    0.0000 C   0  0  0  0  0  0  0  0  0  0  0  0
   -8.8555   -2.1549    0.0000 N   0  0  0  0  0  0  0  0  0  0  0  0
   -0.5038    1.5344    0.0000 C   0  0  0  0  0  0  0  0  0  0  0  0
    5.5858    2.5522    0.0000 C   0  0  0  0  0  0  0  0  0  0  0  0
   -8.5968    0.6219    0.0000 C   0  0  0  0  0  0  0  0  0  0  0  0
   -7.4484    3.2801    0.0000 O   0  0  0  0  0  0  0  0  0  0  0  0
    4.1880    2.2551    0.0000 C   0  0  0  0  0  0  0  0  0  0  0  0
    4.6296    3.6141    0.0000 C   0  0  0  0  0  0  0  0  0  0  0  0
    5.4142    3.3592    0.0000 C   0  0  0  0  0  0  0  0  0  0  0  0
    4.9727    2.0002    0.0000 C   0  0  0  0  0  0  0  0  0  0  0  0
    0.6231    4.8665    0.0000 C   0  0  0  0  0  0  0  0  0  0  0  0
    6.3704    2.2973    0.0000 O   0  0  0  0  0  0  0  0  0  0  0  0
   -1.2183    1.1219    0.0000 O   0  0  0  0  0  0  0  0  0  0  0  0
   -9.2643    0.1369    0.0000 C   0  0  0  0  0  0  0  0  0  0  0  0
   -0.2018    4.8665    0.0000 C   0  0  0  0  0  0  0  0  0  0  0  0
   -7.4007   -4.1574    0.0000 C   0  0  0  0  0  0  0  0  0  0  0  0
    7.2535    5.0153    0.0000 C   0  0  0  0  0  0  0  0  0  0  0  0
   -7.5501   -2.7361    0.0000 C   0  0  0  0  0  0  0  0  0  0  0  0
    5.8557    4.7182    0.0000 C   0  0  0  0  0  0  0  0  0  0  0  0
    6.5418    1.4903    0.0000 C   0  0  0  0  0  0  0  0  0  0  0  0
   -7.8857   -3.4899    0.0000 C   0  0  0  0  0  0  0  0  0  0  0  0
    6.4689    5.2702    0.0000 C   0  0  0  0  0  0  0  0  0  0  0  0
   -6.2756    0.4659    0.0000 H   0  0  0  0  0  0  0  0  0  0  0  0
   -7.1728   -0.6196    0.0000 H   0  0  0  0  0  0  0  0  0  0  0  0
   -0.5038    3.4294    0.0000 H   0  0  0  0  0  0  0  0  0  0  0  0
    1.0454    3.0250    0.0000 H   0  0  0  0  0  0  0  0  0  0  0  0
   -1.2183    3.7564    0.0000 H   0  0  0  0  0  0  0  0  0  0  0  0
   -2.6472    1.7019    0.0000 H   0  0  0  0  0  0  0  0  0  0  0  0
    2.0710    5.3419    0.0000 H   0  0  0  0  0  0  0  0  0  0  0  0
   -4.2142    2.8516    0.0000 H   0  0  0  0  0  0  0  0  0  0  0  0
   -8.5894    1.7001    0.0000 H   0  0  0  0  0  0  0  0  0  0  0  0
   -8.1080    2.7093    0.0000 H   0  0  0  0  0  0  0  0  0  0  0  0
   -5.5106    3.0709    0.0000 H   0  0  0  0  0  0  0  0  0  0  0  0
   -6.5827    3.3884    0.0000 H   0  0  0  0  0  0  0  0  0  0  0  0
   -1.7205    4.1319    0.0000 H   0  0  0  0  0  0  0  0  0  0  0  0
   -1.7206    3.0619    0.0000 H   0  0  0  0  0  0  0  0  0  0  0  0
   -4.7906    2.5189    0.0000 H   0  0  0  0  0  0  0  0  0  0  0  0
   10.2006    5.5601    0.0000 H   0  0  0  0  0  0  0  0  0  0  0  0
    9.0596    6.8274    0.0000 H   0  0  0  0  0  0  0  0  0  0  0  0
   -5.8522   -6.2887    0.0000 H   0  0  0  0  0  0  0  0  0  0  0  0
   -6.0303   -4.5928    0.0000 H   0  0  0  0  0  0  0  0  0  0  0  0
    4.6702    3.4234    0.0000 H   0  0  0  0  0  0  0  0  0  0  0  0
   -8.1812    2.5824    0.0000 H   0  0  0  0  0  0  0  0  0  0  0  0
   -4.6748    5.9441    0.0000 H   0  0  0  0  0  0  0  0  0  0  0  0
   -4.3298    2.6643    0.0000 H   0  0  0  0  0  0  0  0  0  0  0  0
   -8.6639   -1.2031    0.0000 H   0  0  0  0  0  0  0  0  0  0  0  0
    4.0536    5.3038    0.0000 H   0  0  0  0  0  0  0  0  0  0  0  0
   -5.6937    4.1789    0.0000 H   0  0  0  0  0  0  0  0  0  0  0  0
    2.8379    5.1706    0.0000 H   0  0  0  0  0  0  0  0  0  0  0  0
   -4.0761    0.0519    0.0000 H   0  0  0  0  0  0  0  0  0  0  0  0
   -5.0027    0.5869    0.0000 H   0  0  0  0  0  0  0  0  0  0  0  0
    8.0912    3.8466    0.0000 H   0  0  0  0  0  0  0  0  0  0  0  0
    9.7591    4.2012    0.0000 H   0  0  0  0  0  0  0  0  0  0  0  0
   -8.5660   -6.4351    0.0000 H   0  0  0  0  0  0  0  0  0  0  0  0
   -7.0082   -7.1285    0.0000 H   0  0  0  0  0  0  0  0  0  0  0  0
   -9.6383   -1.5133    0.0000 H   0  0  0  0  0  0  0  0  0  0  0  0
  -10.0662   -0.4803    0.0000 H   0  0  0  0  0  0  0  0  0  0  0  0
   -1.4744    3.7512    0.0000 H   0  0  0  0  0  0  0  0  0  0  0  0
   -1.2134    4.8384    0.0000 H   0  0  0  0  0  0  0  0  0  0  0  0
    3.4510    5.7226    0.0000 H   0  0  0  0  0  0  0  0  0  0  0  0
    2.6559    5.0067    0.0000 H   0  0  0  0  0  0  0  0  0  0  0  0
    6.4039    6.0426    0.0000 H   0  0  0  0  0  0  0  0  0  0  0  0
    2.4367    2.6010    0.0000 H   0  0  0  0  0  0  0  0  0  0  0  0
    3.4544    2.2704    0.0000 H   0  0  0  0  0  0  0  0  0  0  0  0
   -9.4549   -1.3296    0.0000 H   0  0  0  0  0  0  0  0  0  0  0  0
   -9.2705   -3.0866    0.0000 H   0  0  0  0  0  0  0  0  0  0  0  0
    0.4228    0.9994    0.0000 H   0  0  0  0  0  0  0  0  0  0  0  0
   -0.5038    0.4644    0.0000 H   0  0  0  0  0  0  0  0  0  0  0  0
   -8.5967    1.6919    0.0000 H   0  0  0  0  0  0  0  0  0  0  0  0
   -9.5502    1.1077    0.0000 H   0  0  0  0  0  0  0  0  0  0  0  0
   -6.8784    4.0649    0.0000 H   0  0  0  0  0  0  0  0  0  0  0  0
    3.4211    1.5645    0.0000 H   0  0  0  0  0  0  0  0  0  0  0  0
    4.4150    4.6235    0.0000 H   0  0  0  0  0  0  0  0  0  0  0  0
    6.1811    4.0498    0.0000 H   0  0  0  0  0  0  0  0  0  0  0  0
    5.1873    0.9908    0.0000 H   0  0  0  0  0  0  0  0  0  0  0  0
    1.2521    5.7321    0.0000 H   0  0  0  0  0  0  0  0  0  0  0  0
    0.1374    5.8199    0.0000 H   0  0  0  0  0  0  0  0  0  0  0  0
   -2.0583    1.6069    0.0000 H   0  0  0  0  0  0  0  0  0  0  0  0
  -10.2819    0.4676    0.0000 H   0  0  0  0  0  0  0  0  0  0  0  0
  -10.0209   -0.6197    0.0000 H   0  0  0  0  0  0  0  0  0  0  0  0
   -0.8307    5.7322    0.0000 H   0  0  0  0  0  0  0  0  0  0  0  0
    0.2840    5.8199    0.0000 H   0  0  0  0  0  0  0  0  0  0  0  0
   -6.3366   -4.0455    0.0000 H   0  0  0  0  0  0  0  0  0  0  0  0
   -6.9655   -3.1799    0.0000 H   0  0  0  0  0  0  0  0  0  0  0  0
    7.4760    3.9687    0.0000 H   0  0  0  0  0  0  0  0  0  0  0  0
    6.4583    4.2993    0.0000 H   0  0  0  0  0  0  0  0  0  0  0  0
   -6.4860   -2.6242    0.0000 H   0  0  0  0  0  0  0  0  0  0  0  0
   -6.9211   -3.6017    0.0000 H   0  0  0  0  0  0  0  0  0  0  0  0
    6.0781    3.6716    0.0000 H   0  0  0  0  0  0  0  0  0  0  0  0
    6.8733    4.3875    0.0000 H   0  0  0  0  0  0  0  0  0  0  0  0
    5.7465    0.7745    0.0000 H   0  0  0  0  0  0  0  0  0  0  0  0
    7.5594    1.1595    0.0000 H   0  0  0  0  0  0  0  0  0  0  0  0
    6.7641    0.4436    0.0000 H   0  0  0  0  0  0  0  0  0  0  0  0
   -8.9498   -3.6018    0.0000 H   0  0  0  0  0  0  0  0  0  0  0  0
   -8.5146   -2.6243    0.0000 H   0  0  0  0  0  0  0  0  0  0  0  0
    6.2465    6.3168    0.0000 H   0  0  0  0  0  0  0  0  0  0  0  0
    5.4513    5.6009    0.0000 H   0  0  0  0  0  0  0  0  0  0  0  0
  2  1  1  0  0  0  0
  3  8  1  0  0  0  0
  4  5  1  0  0  0  0
  5 10  1  0  0  0  0
  6  1  1  0  0  0  0
  6 14  1  0  0  0  0
  6 21  1  0  0  0  0
  6 78  1  6  0  0  0
  7  3  1  0  0  0  0
  8  2  1  0  0  0  0
  8 60  1  0  0  0  0
  8 79  1  6  0  0  0
 10 13  1  0  0  0  0
 10 58  1  0  0  0  0
 10 80  1  1  0  0  0
 11  9  1  0  0  0  0
 11  4  1  0  0  0  0
 11 66  1  0  0  0  0
 11 81  1  6  0  0  0
 12 15  1  0  0  0  0
 13 12  1  0  0  0  0
 13 82  1  0  0  0  0
 15 19  1  0  0  0  0
 15 24  1  0  0  0  0
 15 83  1  6  0  0  0
 16 47  2  0  0  0  0
 17 46  2  0  0  0  0
 18  9  1  0  0  0  0
 18 84  1  0  0  0  0
 19 25  1  0  0  0  0
 19 85  1  0  0  0  0
 20  1  1  0  0  0  0
 20 86  1  0  0  0  0
 20 87  1  0  0  0  0
 21 88  1  0  0  0  0
 21 89  1  0  0  0  0
 22 24  1  0  0  0  0
 23 42  1  0  0  0  0
 24 90  1  0  0  0  0
 24 91  1  0  0  0  0
 25 48  1  0  0  0  0
 26 14  1  0  0  0  0
 26 92  1  0  0  0  0
 27 22  1  0  0  0  0
 28  2  2  0  0  0  0
 29 17  1  0  0  0  0
 29 93  1  0  0  0  0
 29 94  1  0  0  0  0
 30 16  1  0  0  0  0
 30 95  1  0  0  0  0
 30 96  1  0  0  0  0
 31 53  1  0  0  0  0
 31 97  1  0  0  0  0
 32  5  2  0  0  0  0
 33  7  2  0  0  0  0
 34  9  2  0  0  0  0
 35 12  2  0  0  0  0
 36 20  1  0  0  0  0
 36 61  1  0  0  0  0
 36 21  1  0  0  0  0
 36 98  1  1  0  0  0
 37 27  1  0  0  0  0
 37 43  2  0  0  0  0
 37 99  1  0  0  0  0
 38 14  2  0  0  0  0
 39 22  2  0  0  0  0
 39100  1  0  0  0  0
 40  7  1  0  0  0  0
 40 57  1  0  0  0  0
 40 73  1  0  0  0  0
 40101  1  1  0  0  0
 41 23  2  0  0  0  0
 42 31  1  0  0  0  0
 42 74  1  0  0  0  0
 42102  1  1  0  0  0
 43 39  1  0  0  0  0
 43103  1  0  0  0  0
 44 25  2  0  0  0  0
 45 18  1  0  0  0  0
 45 55  1  0  0  0  0
 45104  1  1  0  0  0
 46 72  1  0  0  0  0
 47 71  1  0  0  0  0
 48 26  1  0  0  0  0
 48105  1  0  0  0  0
 48106  1  0  0  0  0
 49 17  1  0  0  0  0
 49107  1  0  0  0  0
 49108  1  0  0  0  0
 50 16  1  0  0  0  0
 50109  1  0  0  0  0
 50110  1  0  0  0  0
 51  3  1  0  0  0  0
 51 69  1  0  0  0  0
 51111  1  0  0  0  0
 51112  1  0  0  0  0
 52  4  1  0  0  0  0
 52113  1  0  0  0  0
 52114  1  0  0  0  0
 53 45  1  0  0  0  0
 53115  1  0  0  0  0
 53116  1  0  0  0  0
 54 23  1  0  0  0  0
 54117  1  0  0  0  0
 55118  1  0  0  0  0
 55119  1  0  0  0  0
 56 55  1  0  0  0  0
 57120  1  0  0  0  0
 57121  1  0  0  0  0
 58122  1  0  0  0  0
 58123  1  0  0  0  0
 59 64  2  0  0  0  0
 59 65  1  0  0  0  0
 60124  1  0  0  0  0
 60125  1  0  0  0  0
 61126  1  0  0  0  0
 62 56  1  0  0  0  0
 62127  1  0  0  0  0
 63 56  2  0  0  0  0
 63128  1  0  0  0  0
 64 63  1  0  0  0  0
 64129  1  0  0  0  0
 65 62  2  0  0  0  0
 65130  1  0  0  0  0
 66 70  1  0  0  0  0
 66131  1  0  0  0  0
 66132  1  0  0  0  0
 67 59  1  0  0  0  0
 68 58  1  0  0  0  0
 68133  1  0  0  0  0
 69 60  1  0  0  0  0
 69134  1  0  0  0  0
 69135  1  0  0  0  0
 70 52  1  0  0  0  0
 70136  1  0  0  0  0
 70137  1  0  0  0  0
 71 76  1  0  0  0  0
 71138  1  0  0  0  0
 71139  1  0  0  0  0
 72 77  1  0  0  0  0
 72140  1  0  0  0  0
 72141  1  0  0  0  0
 73142  1  0  0  0  0
 73143  1  0  0  0  0
 74144  1  0  0  0  0
 74145  1  0  0  0  0
 75 67  1  0  0  0  0
 75146  1  0  0  0  0
 75147  1  0  0  0  0
 75148  1  0  0  0  0
 76 73  1  0  0  0  0
 76149  1  0  0  0  0
 76150  1  0  0  0  0
 77 74  1  0  0  0  0
 77151  1  0  0  0  0
 77152  1  0  0  0  0
M  END
>  <DRUGBANK_ID>
DB06549

>  <COMMON_NAME>
Labradimil

>  <CAS_NUMBER>
159768-75-9

>  <UNII>
2MK663C346

>  <SYNONYMS>
Labradimil; Labradimilum

$$$$
