
 OpenBabel10282417072D

 42 45  0  0  1  0  0  0  0  0999 V2000
    4.5080    2.0625    0.0000 N   0  0  0  0  0  0  0  0  0  0  0  0
    5.8137    2.3401    0.0000 N   0  0  0  0  0  0  0  0  0  0  0  0
    3.7935    1.6500    0.0000 C   0  0  3  0  0  0  0  0  0  0  0  0
    3.7935    0.8250    0.0000 C   0  0  0  0  0  0  0  0  0  0  0  0
    3.0791    2.0625    0.0000 C   0  0  0  0  0  0  0  0  0  0  0  0
    3.0791    0.4125    0.0000 C   0  0  0  0  0  0  0  0  0  0  0  0
    4.5080    0.4125    0.0000 C   0  0  0  0  0  0  0  0  0  0  0  0
    3.7935   -0.8250    0.0000 C   0  0  0  0  0  0  0  0  0  0  0  0
    2.3645    1.6500    0.0000 C   0  0  0  0  0  0  0  0  0  0  0  0
    3.0791    2.8876    0.0000 C   0  0  0  0  0  0  0  0  0  0  0  0
    3.0791   -0.4125    0.0000 C   0  0  0  0  0  0  0  0  0  0  0  0
    4.5080   -0.4125    0.0000 C   0  0  0  0  0  0  0  0  0  0  0  0
    4.5942    2.8830    0.0000 C   0  0  0  0  0  0  0  0  0  0  0  0
    5.2616    1.7270    0.0000 C   0  0  0  0  0  0  0  0  0  0  0  0
    3.7935   -1.6500    0.0000 C   0  0  0  0  0  0  0  0  0  0  0  0
    1.6500    2.0625    0.0000 C   0  0  0  0  0  0  0  0  0  0  0  0
    2.3645    3.3001    0.0000 C   0  0  0  0  0  0  0  0  0  0  0  0
    5.4012    3.0545    0.0000 C   0  0  0  0  0  0  0  0  0  0  0  0
    1.6500    2.8876    0.0000 C   0  0  0  0  0  0  0  0  0  0  0  0
    3.0791   -2.0625    0.0000 C   0  0  0  0  0  0  0  0  0  0  0  0
    4.5080   -2.0625    0.0000 C   0  0  0  0  0  0  0  0  0  0  0  0
    3.0791   -2.8876    0.0000 C   0  0  0  0  0  0  0  0  0  0  0  0
    4.5080   -2.8876    0.0000 C   0  0  0  0  0  0  0  0  0  0  0  0
    3.7935   -3.3001    0.0000 C   0  0  0  0  0  0  0  0  0  0  0  0
    4.7201    1.1150    0.0000 H   0  0  0  0  0  0  0  0  0  0  0  0
    2.1854    0.9285    0.0000 H   0  0  0  0  0  0  0  0  0  0  0  0
    5.4017    0.9285    0.0000 H   0  0  0  0  0  0  0  0  0  0  0  0
    2.3645    0.6180    0.0000 H   0  0  0  0  0  0  0  0  0  0  0  0
    3.9728    3.4036    0.0000 H   0  0  0  0  0  0  0  0  0  0  0  0
    2.1854   -0.9285    0.0000 H   0  0  0  0  0  0  0  0  0  0  0  0
    5.4017   -0.9285    0.0000 H   0  0  0  0  0  0  0  0  0  0  0  0
    3.8273    3.5735    0.0000 H   0  0  0  0  0  0  0  0  0  0  0  0
    5.4762    0.7175    0.0000 H   0  0  0  0  0  0  0  0  0  0  0  0
    0.7563    1.5465    0.0000 H   0  0  0  0  0  0  0  0  0  0  0  0
    2.3645    4.3321    0.0000 H   0  0  0  0  0  0  0  0  0  0  0  0
    5.8210    3.9973    0.0000 H   0  0  0  0  0  0  0  0  0  0  0  0
    0.7563    3.4036    0.0000 H   0  0  0  0  0  0  0  0  0  0  0  0
    2.1854   -1.5465    0.0000 H   0  0  0  0  0  0  0  0  0  0  0  0
    5.4017   -1.5465    0.0000 H   0  0  0  0  0  0  0  0  0  0  0  0
    2.1854   -3.4036    0.0000 H   0  0  0  0  0  0  0  0  0  0  0  0
    5.4017   -3.4036    0.0000 H   0  0  0  0  0  0  0  0  0  0  0  0
    3.7935   -4.3321    0.0000 H   0  0  0  0  0  0  0  0  0  0  0  0
  1  3  1  0  0  0  0
  1 13  1  0  0  0  0
  1 14  1  0  0  0  0
  2 14  2  0  0  0  0
  2 18  1  0  0  0  0
  3  4  1  0  0  0  0
  3  5  1  0  0  0  0
  3 25  1  0  0  0  0
  4  6  2  0  0  0  0
  4  7  1  0  0  0  0
  5  9  2  0  0  0  0
  5 10  1  0  0  0  0
  6 11  1  0  0  0  0
  6 26  1  0  0  0  0
  7 12  2  0  0  0  0
  7 27  1  0  0  0  0
  8 11  2  0  0  0  0
  8 12  1  0  0  0  0
  8 15  1  0  0  0  0
  9 16  1  0  0  0  0
  9 28  1  0  0  0  0
 10 17  2  0  0  0  0
 10 29  1  0  0  0  0
 11 30  1  0  0  0  0
 12 31  1  0  0  0  0
 13 18  2  0  0  0  0
 13 32  1  0  0  0  0
 14 33  1  0  0  0  0
 15 20  2  0  0  0  0
 15 21  1  0  0  0  0
 16 19  2  0  0  0  0
 16 34  1  0  0  0  0
 17 19  1  0  0  0  0
 17 35  1  0  0  0  0
 18 36  1  0  0  0  0
 19 37  1  0  0  0  0
 20 22  1  0  0  0  0
 20 38  1  0  0  0  0
 21 23  2  0  0  0  0
 21 39  1  0  0  0  0
 22 24  2  0  0  0  0
 22 40  1  0  0  0  0
 23 24  1  0  0  0  0
 23 41  1  0  0  0  0
 24 42  1  0  0  0  0
M  END
>  <DRUGBANK_ID>
DB04794

>  <COMMON_NAME>
Bifonazole

>  <CAS_NUMBER>
60628-96-8

>  <UNII>
QYJ305Z91O

>  <SYNONYMS>
(+-)-1-(p,alpha-Diphenylbenzyl)imidazole; 1-((4-Biphenylyl)phenylmethyl)-1H-imidazole; 1-(alpha-(4-Biphenylyl)benzyl)imidazole; 1-(p,alpha-Diphenylbenzyl)imidazole; 1-[biphenyl-4-yl(phenyl)methyl]imidazole; Bifonazol; Bifonazole; Bifonazolum

$$$$
