
 OpenBabel10282417072D

 41 42  0  0  1  0  0  0  0  0999 V2000
   -2.1434    3.7125    0.0000 C   0  0  0  0  0  0  0  0  0  0  0  0
   -2.1434    2.8875    0.0000 C   0  0  0  0  0  0  0  0  0  0  0  0
   -1.4289    2.4750    0.0000 C   0  0  0  0  0  0  0  0  0  0  0  0
   -1.4289    1.6500    0.0000 C   0  0  0  0  0  0  0  0  0  0  0  0
   -0.7145    1.2375    0.0000 C   0  0  1  0  0  0  0  0  0  0  0  0
   -1.1270    0.5230    0.0000 C   0  0  0  0  0  0  0  0  0  0  0  0
   -0.3020    1.9520    0.0000 C   0  0  0  0  0  0  0  0  0  0  0  0
    0.5230    1.9520    0.0000 O   0  0  0  0  0  0  0  0  0  0  0  0
    0.0000    0.8250    0.0000 N   0  0  0  0  0  0  0  0  0  0  0  0
    0.0000   -0.0000    0.0000 C   0  0  0  0  0  0  0  0  0  0  0  0
   -0.7145   -0.4125    0.0000 N   0  0  0  0  0  0  0  0  0  0  0  0
   -0.7145   -1.2375    0.0000 C   0  0  0  0  0  0  0  0  0  0  0  0
   -1.4289   -1.6500    0.0000 N   0  0  0  0  0  0  0  0  0  0  0  0
    0.0000   -1.6500    0.0000 N   0  0  0  0  0  0  0  0  0  0  0  0
    0.7145   -1.2375    0.0000 C   0  0  0  0  0  0  0  0  0  0  0  0
    0.7145   -0.4125    0.0000 C   0  0  0  0  0  0  0  0  0  0  0  0
    1.4289   -0.0000    0.0000 N   0  0  0  0  0  0  0  0  0  0  0  0
    2.1434   -0.4125    0.0000 C   0  0  0  0  0  0  0  0  0  0  0  0
    2.1434   -1.2375    0.0000 C   0  0  0  0  0  0  0  0  0  0  0  0
    2.8579   -1.6500    0.0000 F   0  0  0  0  0  0  0  0  0  0  0  0
    1.4289   -1.6500    0.0000 C   0  0  0  0  0  0  0  0  0  0  0  0
   -1.2168    4.2475    0.0000 H   0  0  0  0  0  0  0  0  0  0  0  0
   -3.0700    4.2475    0.0000 H   0  0  0  0  0  0  0  0  0  0  0  0
   -2.1434    4.7825    0.0000 H   0  0  0  0  0  0  0  0  0  0  0  0
   -3.0700    2.3525    0.0000 H   0  0  0  0  0  0  0  0  0  0  0  0
   -2.1434    1.8175    0.0000 H   0  0  0  0  0  0  0  0  0  0  0  0
   -0.5023    3.0100    0.0000 H   0  0  0  0  0  0  0  0  0  0  0  0
   -0.5023    1.9400    0.0000 H   0  0  0  0  0  0  0  0  0  0  0  0
   -2.3556    1.1150    0.0000 H   0  0  0  0  0  0  0  0  0  0  0  0
   -1.4289    0.5800    0.0000 H   0  0  0  0  0  0  0  0  0  0  0  0
   -2.1970    0.5230    0.0000 H   0  0  0  0  0  0  0  0  0  0  0  0
   -0.5920   -0.4036    0.0000 H   0  0  0  0  0  0  0  0  0  0  0  0
   -1.6620   -0.4037    0.0000 H   0  0  0  0  0  0  0  0  0  0  0  0
   -0.8370    2.8786    0.0000 H   0  0  0  0  0  0  0  0  0  0  0  0
    0.2330    2.8786    0.0000 H   0  0  0  0  0  0  0  0  0  0  0  0
    1.0080    1.1120    0.0000 H   0  0  0  0  0  0  0  0  0  0  0  0
    0.8526    1.3173    0.0000 H   0  0  0  0  0  0  0  0  0  0  0  0
   -2.2815   -1.1578    0.0000 H   0  0  0  0  0  0  0  0  0  0  0  0
   -1.4289   -2.6345    0.0000 H   0  0  0  0  0  0  0  0  0  0  0  0
    3.0371    0.1035    0.0000 H   0  0  0  0  0  0  0  0  0  0  0  0
    1.4289   -2.6820    0.0000 H   0  0  0  0  0  0  0  0  0  0  0  0
  1  2  1  0  0  0  0
  1 22  1  0  0  0  0
  1 23  1  0  0  0  0
  1 24  1  0  0  0  0
  2  3  1  0  0  0  0
  2 25  1  0  0  0  0
  2 26  1  0  0  0  0
  3  4  1  0  0  0  0
  3 27  1  0  0  0  0
  3 28  1  0  0  0  0
  4 29  1  0  0  0  0
  4 30  1  0  0  0  0
  5  4  1  1  0  0  0
  5  6  1  0  0  0  0
  5  7  1  0  0  0  0
  5  9  1  0  0  0  0
  6 31  1  0  0  0  0
  6 32  1  0  0  0  0
  6 33  1  0  0  0  0
  7  8  1  0  0  0  0
  7 34  1  0  0  0  0
  7 35  1  0  0  0  0
  8 36  1  0  0  0  0
  9 10  1  0  0  0  0
  9 37  1  0  0  0  0
 10 11  2  0  0  0  0
 10 16  1  0  0  0  0
 11 12  1  0  0  0  0
 12 13  1  0  0  0  0
 12 14  2  0  0  0  0
 13 38  1  0  0  0  0
 13 39  1  0  0  0  0
 14 15  1  0  0  0  0
 15 16  2  0  0  0  0
 15 21  1  0  0  0  0
 16 17  1  0  0  0  0
 17 18  2  0  0  0  0
 18 19  1  0  0  0  0
 18 40  1  0  0  0  0
 19 20  1  0  0  0  0
 19 21  2  0  0  0  0
 21 41  1  0  0  0  0
M  END
>  <DRUGBANK_ID>
DB16324

>  <COMMON_NAME>
Selgantolimod

>  <CAS_NUMBER>
2004677-13-6

>  <UNII>
RM4GJT3SMQ

>  <SYNONYMS>
Selgantolimod

$$$$
