625
 OpenBabel10282417072D

 30 32  0  0  1  0  0  0  0  0999 V2000
    5.9914    0.3836    0.0000 Cl  0  0  0  0  0  0  0  0  0  0  0  0
    3.0791   -1.0255    0.0000 F   0  0  0  0  0  0  0  0  0  0  0  0
    2.2540   -1.0255    0.0000 F   0  0  0  0  0  0  0  0  0  0  0  0
    1.9520    0.1015    0.0000 F   0  0  0  0  0  0  0  0  0  0  0  0
    2.3645    0.8159    0.0000 O   0  0  0  0  0  0  0  0  0  0  0  0
    1.6500    2.0535    0.0000 O   0  0  0  0  0  0  0  0  0  0  0  0
    3.0791    2.0535    0.0000 N   0  0  0  0  0  0  0  0  0  0  0  0
    4.3166   -1.7400    0.0000 C   0  0  0  0  0  0  0  0  0  0  0  0
    5.0310   -2.1525    0.0000 C   0  0  0  0  0  0  0  0  0  0  0  0
    4.3166   -2.5650    0.0000 C   0  0  0  0  0  0  0  0  0  0  0  0
    3.0791    0.4034    0.0000 C   0  0  2  0  0  0  0  0  0  0  0  0
    3.9041   -1.0255    0.0000 C   0  0  0  0  0  0  0  0  0  0  0  0
    3.7935    0.8159    0.0000 C   0  0  0  0  0  0  0  0  0  0  0  0
    3.4916   -0.3110    0.0000 C   0  0  0  0  0  0  0  0  0  0  0  0
    3.7935    1.6410    0.0000 C   0  0  0  0  0  0  0  0  0  0  0  0
    2.6665   -0.3110    0.0000 C   0  0  0  0  0  0  0  0  0  0  0  0
    4.5310    0.3749    0.0000 C   0  0  0  0  0  0  0  0  0  0  0  0
    4.5310    2.0821    0.0000 C   0  0  0  0  0  0  0  0  0  0  0  0
    2.3645    1.6410    0.0000 C   0  0  0  0  0  0  0  0  0  0  0  0
    5.2785    0.7988    0.0000 C   0  0  0  0  0  0  0  0  0  0  0  0
    5.2785    1.6582    0.0000 C   0  0  0  0  0  0  0  0  0  0  0  0
    3.0792    3.0380    0.0000 H   0  0  0  0  0  0  0  0  0  0  0  0
    3.2831   -2.0169    0.0000 H   0  0  0  0  0  0  0  0  0  0  0  0
    6.1010   -2.1525    0.0000 H   0  0  0  0  0  0  0  0  0  0  0  0
    5.3080   -3.1860    0.0000 H   0  0  0  0  0  0  0  0  0  0  0  0
    3.7816   -3.4917    0.0000 H   0  0  0  0  0  0  0  0  0  0  0  0
    5.0732   -3.3216    0.0000 H   0  0  0  0  0  0  0  0  0  0  0  0
    4.5191   -0.6570    0.0000 H   0  0  0  0  0  0  0  0  0  0  0  0
    4.5191    3.1140    0.0000 H   0  0  0  0  0  0  0  0  0  0  0  0
    6.1702    2.1777    0.0000 H   0  0  0  0  0  0  0  0  0  0  0  0
  1 20  1  0  0  0  0
  2 16  1  0  0  0  0
  3 16  1  0  0  0  0
  4 16  1  0  0  0  0
  5 11  1  0  0  0  0
  5 19  1  0  0  0  0
  6 19  2  0  0  0  0
  7 15  1  0  0  0  0
  7 19  1  0  0  0  0
  7 22  1  0  0  0  0
  8  9  1  0  0  0  0
  8 10  1  0  0  0  0
  8 12  1  0  0  0  0
  8 23  1  0  0  0  0
  9 10  1  0  0  0  0
  9 24  1  0  0  0  0
  9 25  1  0  0  0  0
 10 26  1  0  0  0  0
 10 27  1  0  0  0  0
 11 13  1  0  0  0  0
 11 14  1  6  0  0  0
 11 16  1  0  0  0  0
 12 14  3  0  0  0  0
 13 15  2  0  0  0  0
 13 17  1  0  0  0  0
 15 18  1  0  0  0  0
 17 20  2  0  0  0  0
 17 28  1  0  0  0  0
 18 21  2  0  0  0  0
 18 29  1  0  0  0  0
 20 21  1  0  0  0  0
 21 30  1  0  0  0  0
M  END
>  <DRUGBANK_ID>
DB00625

>  <SECONDARY_ACCESSION_NUMBERS>
APRD00059; DB07709

>  <COMMON_NAME>
Efavirenz

>  <CAS_NUMBER>
154598-52-4

>  <UNII>
JE6H2O27P8

>  <SYNONYMS>
(S)-6-chloro-4-(Cyclopropylethynyl)-1,4-dihydro-(S)-6-chloro-4-(cyclopropylethynyl)-1,4-dihydro-4-(trifluoromethyl)-2H-3,1-benzoxazin-2-one4-(trifluoromethyl)-2H-3,1-benzoxazin-2-one; (S)-6-chloro-4-cyclopropylethynyl-4-trifluoromethyl-1,4-dihydro-benzo[d][1,3]oxazin-2-one; 6-chloro-4-(2-cyclopropyl-1-ethynyl)-4-trifluoromethyl-(4S)-1,4-dihydro-2H-benzo[d][1,3]oxazin-2-one; Efavirenz; Ã‰favirenz; Efavirenzum

$$$$
