
 OpenBabel10282417072D

 50 53  0  0  1  0  0  0  0  0999 V2000
   -2.0756    0.8342    0.0000 C   0  0  0  0  0  0  0  0  0  0  0  0
   -1.2962    0.5638    0.0000 C   0  0  0  0  0  0  0  0  0  0  0  0
   -0.6723    1.1037    0.0000 C   0  0  0  0  0  0  0  0  0  0  0  0
   -1.1406   -0.2463    0.0000 O   0  0  0  0  0  0  0  0  0  0  0  0
   -0.3612   -0.5167    0.0000 C   0  0  0  0  0  0  0  0  0  0  0  0
    0.2627    0.0231    0.0000 O   0  0  0  0  0  0  0  0  0  0  0  0
   -0.2056   -1.3269    0.0000 N   0  0  0  0  0  0  0  0  0  0  0  0
    0.5739   -1.5973    0.0000 C   0  0  1  0  0  0  0  0  0  0  0  0
    1.2507   -1.1256    0.0000 C   0  0  0  0  0  0  0  0  0  0  0  0
    1.9085   -1.6236    0.0000 C   0  0  0  0  0  0  0  0  0  0  0  0
    2.7333   -1.6398    0.0000 C   0  0  0  0  0  0  0  0  0  0  0  0
    3.2973   -1.0377    0.0000 C   0  0  0  0  0  0  0  0  0  0  0  0
    4.1008   -1.2251    0.0000 C   0  0  0  0  0  0  0  0  0  0  0  0
    4.3402   -2.0146    0.0000 C   0  0  0  0  0  0  0  0  0  0  0  0
    3.7762   -2.6167    0.0000 C   0  0  0  0  0  0  0  0  0  0  0  0
    2.9727   -2.4293    0.0000 C   0  0  0  0  0  0  0  0  0  0  0  0
    2.2959   -2.9010    0.0000 N   0  0  0  0  0  0  0  0  0  0  0  0
    1.6381   -2.4030    0.0000 C   0  0  0  0  0  0  0  0  0  0  0  0
    0.8133   -2.3868    0.0000 C   0  0  0  0  0  0  0  0  0  0  0  0
    2.2796   -3.7258    0.0000 C   0  0  0  0  0  0  0  0  0  0  0  0
    2.9858   -4.1523    0.0000 C   0  0  0  0  0  0  0  0  0  0  0  0
    3.7083   -3.7540    0.0000 C   0  0  0  0  0  0  0  0  0  0  0  0
    4.4145   -4.1805    0.0000 C   0  0  0  0  0  0  0  0  0  0  0  0
    4.3982   -5.0054    0.0000 C   0  0  0  0  0  0  0  0  0  0  0  0
    3.6757   -5.4037    0.0000 C   0  0  0  0  0  0  0  0  0  0  0  0
    2.9695   -4.9772    0.0000 N   0  0  0  0  0  0  0  0  0  0  0  0
    4.6648   -0.6231    0.0000 C   0  0  0  0  0  0  0  0  0  0  0  0
    5.2288   -0.0210    0.0000 N   0  0  0  0  0  0  0  0  0  0  0  0
   -2.2773    1.8850    0.0000 H   0  0  0  0  0  0  0  0  0  0  0  0
   -2.8848    0.1341    0.0000 H   0  0  0  0  0  0  0  0  0  0  0  0
   -3.0865    1.1849    0.0000 H   0  0  0  0  0  0  0  0  0  0  0  0
   -0.2853    0.2132    0.0000 H   0  0  0  0  0  0  0  0  0  0  0  0
    0.3386    0.7531    0.0000 H   0  0  0  0  0  0  0  0  0  0  0  0
   -0.8741    2.1545    0.0000 H   0  0  0  0  0  0  0  0  0  0  0  0
    0.1368    1.8039    0.0000 H   0  0  0  0  0  0  0  0  0  0  0  0
   -0.9501   -1.9711    0.0000 H   0  0  0  0  0  0  0  0  0  0  0  0
    0.4274   -0.5374    0.0000 H   0  0  0  0  0  0  0  0  0  0  0  0
    1.2717   -0.0558    0.0000 H   0  0  0  0  0  0  0  0  0  0  0  0
    2.2135   -0.6587    0.0000 H   0  0  0  0  0  0  0  0  0  0  0  0
    2.9978   -0.0501    0.0000 H   0  0  0  0  0  0  0  0  0  0  0  0
    5.3452   -2.2490    0.0000 H   0  0  0  0  0  0  0  0  0  0  0  0
    4.0757   -3.6043    0.0000 H   0  0  0  0  0  0  0  0  0  0  0  0
    0.1674   -3.2399    0.0000 H   0  0  0  0  0  0  0  0  0  0  0  0
   -0.2400   -2.1986    0.0000 H   0  0  0  0  0  0  0  0  0  0  0  0
    1.3426   -4.2424    0.0000 H   0  0  0  0  0  0  0  0  0  0  0  0
    2.2585   -4.7956    0.0000 H   0  0  0  0  0  0  0  0  0  0  0  0
    3.7287   -2.7222    0.0000 H   0  0  0  0  0  0  0  0  0  0  0  0
    5.3182   -3.6822    0.0000 H   0  0  0  0  0  0  0  0  0  0  0  0
    5.2816   -5.5390    0.0000 H   0  0  0  0  0  0  0  0  0  0  0  0
    3.6553   -6.4355    0.0000 H   0  0  0  0  0  0  0  0  0  0  0  0
  1  2  1  0  0  0  0
  1 29  1  0  0  0  0
  1 30  1  0  0  0  0
  1 31  1  0  0  0  0
  2  3  1  0  0  0  0
  2  4  1  0  0  0  0
  2 32  1  0  0  0  0
  3 33  1  0  0  0  0
  3 34  1  0  0  0  0
  3 35  1  0  0  0  0
  4  5  1  0  0  0  0
  5  6  2  0  0  0  0
  5  7  1  0  0  0  0
  7 36  1  0  0  0  0
  8  7  1  0  0  0  0
  8  9  1  0  0  0  0
  8 19  1  0  0  0  0
  8 37  1  6  0  0  0
  9 10  1  0  0  0  0
  9 38  1  0  0  0  0
  9 39  1  0  0  0  0
 10 11  1  0  0  0  0
 10 18  2  0  0  0  0
 11 12  2  0  0  0  0
 11 16  1  0  0  0  0
 12 13  1  0  0  0  0
 12 40  1  0  0  0  0
 13 14  2  0  0  0  0
 13 27  1  0  0  0  0
 14 15  1  0  0  0  0
 14 41  1  0  0  0  0
 15 16  2  0  0  0  0
 15 42  1  0  0  0  0
 16 17  1  0  0  0  0
 17 18  1  0  0  0  0
 17 20  1  0  0  0  0
 18 19  1  0  0  0  0
 19 43  1  0  0  0  0
 19 44  1  0  0  0  0
 20 21  1  0  0  0  0
 20 45  1  0  0  0  0
 20 46  1  0  0  0  0
 21 22  2  0  0  0  0
 21 26  1  0  0  0  0
 22 23  1  0  0  0  0
 22 47  1  0  0  0  0
 23 24  2  0  0  0  0
 23 48  1  0  0  0  0
 24 25  1  0  0  0  0
 24 49  1  0  0  0  0
 25 26  2  0  0  0  0
 25 50  1  0  0  0  0
 27 28  3  0  0  0  0
M  END
>  <DRUGBANK_ID>
DB12573

>  <COMMON_NAME>
LY-2452473

>  <CAS_NUMBER>
1029692-15-6

>  <UNII>
XKW9MYF94Y

$$$$
