
 OpenBabel10282417072D

 57 60  0  0  0  0  0  0  0  0999 V2000
    1.4260    1.6594    0.0000 C   0  0  0  0  0  0  0  0  0  0  0  0
    1.4260    0.8343    0.0000 C   0  0  2  0  0  0  0  0  0  0  0  0
    1.4260    0.0010    0.0000 C   0  0  2  0  0  0  0  0  0  0  0  0
    2.1385    1.2499    0.0000 C   0  0  2  0  0  0  0  0  0  0  0  0
    0.7135    1.2499    0.0000 C   0  0  0  0  0  0  0  0  0  0  0  0
    0.7135   -0.4146    0.0000 C   0  0  1  0  0  0  0  0  0  0  0  0
    2.8510    0.0010    0.0000 C   0  0  0  0  0  0  0  0  0  0  0  0
    2.1385    2.0750    0.0000 C   0  0  0  0  0  0  0  0  0  0  0  0
    2.8530    1.6614    0.0000 C   0  0  0  0  0  0  0  0  0  0  0  0
    2.8510    0.8343    0.0000 C   0  0  0  0  0  0  0  0  0  0  0  0
    0.0010    0.8343    0.0000 C   0  0  0  0  0  0  0  0  0  0  0  0
    0.0010    0.0010    0.0000 C   0  0  2  0  0  0  0  0  0  0  0  0
    0.7135   -1.2458    0.0000 C   0  0  0  0  0  0  0  0  0  0  0  0
    2.8530    2.4865    0.0000 C   0  0  0  0  0  0  0  0  0  0  0  0
    1.4240    2.4865    0.0000 O   0  0  0  0  0  0  0  0  0  0  0  0
   -0.7114   -0.4146    0.0000 C   0  0  2  0  0  0  0  0  0  0  0  0
    0.0010   -1.6614    0.0000 C   0  0  0  0  0  0  0  0  0  0  0  0
   -0.7114    0.4104    0.0000 C   0  0  0  0  0  0  0  0  0  0  0  0
   -0.7114   -1.2458    0.0000 C   0  0  0  0  0  0  0  0  0  0  0  0
   -1.4261    0.0010    0.0000 C   0  0  0  0  0  0  0  0  0  0  0  0
    0.0010   -2.4865    0.0000 C   0  0  0  0  0  0  0  0  0  0  0  0
   -1.4261   -1.6614    0.0000 C   0  0  0  0  0  0  0  0  0  0  0  0
   -2.1385   -0.4146    0.0000 C   0  0  0  0  0  0  0  0  0  0  0  0
   -2.1385   -1.2458    0.0000 C   0  0  0  0  0  0  0  0  0  0  0  0
   -2.8530   -1.6573    0.0000 O   0  0  0  0  0  0  0  0  0  0  0  0
    0.7135    0.4104    0.0000 H   0  0  0  0  0  0  0  0  0  0  0  0
    0.0010   -0.8240    0.0000 H   0  0  0  0  0  0  0  0  0  0  0  0
    1.4260   -0.8240    0.0000 H   0  0  0  0  0  0  0  0  0  0  0  0
    2.3526    2.1944    0.0000 H   0  0  0  0  0  0  0  0  0  0  0  0
    0.4994    2.1944    0.0000 H   0  0  0  0  0  0  0  0  0  0  0  0
    1.4260    2.7294    0.0000 H   0  0  0  0  0  0  0  0  0  0  0  0
    0.7135    2.3199    0.0000 H   0  0  0  0  0  0  0  0  0  0  0  0
   -0.2143    1.7828    0.0000 H   0  0  0  0  0  0  0  0  0  0  0  0
    3.6076   -0.7556    0.0000 H   0  0  0  0  0  0  0  0  0  0  0  0
    3.8396    0.4105    0.0000 H   0  0  0  0  0  0  0  0  0  0  0  0
    3.7791    1.1254    0.0000 H   0  0  0  0  0  0  0  0  0  0  0  0
    2.8541    2.7314    0.0000 H   0  0  0  0  0  0  0  0  0  0  0  0
    3.7802    2.1954    0.0000 H   0  0  0  0  0  0  0  0  0  0  0  0
    3.7788    1.3672    0.0000 H   0  0  0  0  0  0  0  0  0  0  0  0
    3.7771    0.2983    0.0000 H   0  0  0  0  0  0  0  0  0  0  0  0
   -0.9268    1.3672    0.0000 H   0  0  0  0  0  0  0  0  0  0  0  0
   -0.9251    0.2983    0.0000 H   0  0  0  0  0  0  0  0  0  0  0  0
    1.6084   -1.7598    0.0000 H   0  0  0  0  0  0  0  0  0  0  0  0
    3.7791    1.9505    0.0000 H   0  0  0  0  0  0  0  0  0  0  0  0
    2.8541    3.5565    0.0000 H   0  0  0  0  0  0  0  0  0  0  0  0
    3.7802    3.0205    0.0000 H   0  0  0  0  0  0  0  0  0  0  0  0
    0.2152    0.9454    0.0000 H   0  0  0  0  0  0  0  0  0  0  0  0
   -1.6380    0.9454    0.0000 H   0  0  0  0  0  0  0  0  0  0  0  0
   -0.7114    1.4804    0.0000 H   0  0  0  0  0  0  0  0  0  0  0  0
   -1.4268    1.0710    0.0000 H   0  0  0  0  0  0  0  0  0  0  0  0
   -2.3541    0.5336    0.0000 H   0  0  0  0  0  0  0  0  0  0  0  0
   -0.9256   -3.0215    0.0000 H   0  0  0  0  0  0  0  0  0  0  0  0
    0.9276   -3.0215    0.0000 H   0  0  0  0  0  0  0  0  0  0  0  0
    0.0010   -3.5565    0.0000 H   0  0  0  0  0  0  0  0  0  0  0  0
   -1.4268   -2.6934    0.0000 H   0  0  0  0  0  0  0  0  0  0  0  0
   -3.0664    0.1183    0.0000 H   0  0  0  0  0  0  0  0  0  0  0  0
   -3.0645   -0.9506    0.0000 H   0  0  0  0  0  0  0  0  0  0  0  0
  1 29  1  0  0  0  0
  1 30  1  0  0  0  0
  1 31  1  0  0  0  0
  2  1  1  1  0  0  0
  2  4  1  0  0  0  0
  2  5  1  0  0  0  0
  3  2  1  0  0  0  0
  3  7  1  0  0  0  0
  3 28  1  6  0  0  0
  4  8  1  1  0  0  0
  4  9  1  0  0  0  0
  4 10  1  0  0  0  0
  5 11  1  0  0  0  0
  5 32  1  0  0  0  0
  5 33  1  0  0  0  0
  6  3  1  0  0  0  0
  6 13  1  0  0  0  0
  6 26  1  1  0  0  0
  7 10  1  0  0  0  0
  7 34  1  0  0  0  0
  7 35  1  0  0  0  0
  8 14  1  0  0  0  0
  8 15  2  0  0  0  0
  9 36  1  0  0  0  0
  9 37  1  0  0  0  0
  9 38  1  0  0  0  0
 10 39  1  0  0  0  0
 10 40  1  0  0  0  0
 11 41  1  0  0  0  0
 11 42  1  0  0  0  0
 12  6  1  0  0  0  0
 12 11  1  0  0  0  0
 12 16  1  0  0  0  0
 12 27  1  6  0  0  0
 13 17  2  0  0  0  0
 13 43  1  0  0  0  0
 14 44  1  0  0  0  0
 14 45  1  0  0  0  0
 14 46  1  0  0  0  0
 16 18  1  1  0  0  0
 16 19  1  0  0  0  0
 16 20  1  0  0  0  0
 17 19  1  0  0  0  0
 17 21  1  0  0  0  0
 18 47  1  0  0  0  0
 18 48  1  0  0  0  0
 18 49  1  0  0  0  0
 19 22  2  0  0  0  0
 20 23  1  0  0  0  0
 20 50  1  0  0  0  0
 20 51  1  0  0  0  0
 21 52  1  0  0  0  0
 21 53  1  0  0  0  0
 21 54  1  0  0  0  0
 22 24  1  0  0  0  0
 22 55  1  0  0  0  0
 23 24  1  0  0  0  0
 23 56  1  0  0  0  0
 23 57  1  0  0  0  0
 24 25  2  0  0  0  0
M  END
>  <DRUGBANK_ID>
DB09124

>  <COMMON_NAME>
Medrogestone

>  <CAS_NUMBER>
977-79-7

>  <UNII>
077DN93G5B

>  <SYNONYMS>
Medrogestone

$$$$
