
 OpenBabel10282417072D

 53 55  0  0  0  0  0  0  0  0999 V2000
   -5.7158   -6.6000    0.0000 C   0  0  0  0  0  0  0  0  0  0  0  0
   -5.0013   -7.0125    0.0000 O   0  0  0  0  0  0  0  0  0  0  0  0
   -4.2868   -6.6000    0.0000 C   0  0  0  0  0  0  0  0  0  0  0  0
   -3.5724   -7.0125    0.0000 C   0  0  0  0  0  0  0  0  0  0  0  0
   -2.8579   -6.6000    0.0000 O   0  0  0  0  0  0  0  0  0  0  0  0
   -2.1434   -7.0125    0.0000 C   0  0  0  0  0  0  0  0  0  0  0  0
   -1.4289   -6.6000    0.0000 C   0  0  0  0  0  0  0  0  0  0  0  0
   -0.7145   -7.0125    0.0000 C   0  0  0  0  0  0  0  0  0  0  0  0
   -0.7145   -7.8375    0.0000 C   0  0  0  0  0  0  0  0  0  0  0  0
   -1.4289   -8.2500    0.0000 C   0  0  0  0  0  0  0  0  0  0  0  0
   -2.1434   -7.8375    0.0000 C   0  0  0  0  0  0  0  0  0  0  0  0
    0.0000   -8.2500    0.0000 N   0  0  0  0  0  0  0  0  0  0  0  0
    0.7145   -7.8375    0.0000 C   0  0  0  0  0  0  0  0  0  0  0  0
    0.7145   -7.0125    0.0000 N   0  0  0  0  0  0  0  0  0  0  0  0
    1.4289   -6.6000    0.0000 C   0  0  0  0  0  0  0  0  0  0  0  0
    2.1434   -7.0125    0.0000 C   0  0  0  0  0  0  0  0  0  0  0  0
    2.1434   -7.8375    0.0000 C   0  0  0  0  0  0  0  0  0  0  0  0
    1.4289   -8.2500    0.0000 N   0  0  0  0  0  0  0  0  0  0  0  0
    2.8579   -8.2500    0.0000 N   0  0  0  0  0  0  0  0  0  0  0  0
    3.5724   -7.8375    0.0000 C   0  0  0  0  0  0  0  0  0  0  0  0
    3.5724   -7.0125    0.0000 C   0  0  0  0  0  0  0  0  0  0  0  0
    4.2868   -6.6000    0.0000 C   0  0  0  0  0  0  0  0  0  0  0  0
    5.0013   -7.0125    0.0000 C   0  0  0  0  0  0  0  0  0  0  0  0
    5.0013   -7.8375    0.0000 C   0  0  0  0  0  0  0  0  0  0  0  0
    4.2868   -8.2500    0.0000 C   0  0  0  0  0  0  0  0  0  0  0  0
    5.7158   -8.2500    0.0000 N   0  0  0  0  0  0  0  0  0  0  0  0
    6.4302   -7.8375    0.0000 C   0  0  0  0  0  0  0  0  0  0  0  0
    6.4302   -7.0125    0.0000 O   0  0  0  0  0  0  0  0  0  0  0  0
    7.1447   -8.2500    0.0000 C   0  0  0  0  0  0  0  0  0  0  0  0
    7.8592   -7.8375    0.0000 C   0  0  0  0  0  0  0  0  0  0  0  0
    2.8579   -6.6000    0.0000 F   0  0  0  0  0  0  0  0  0  0  0  0
   -5.7158   -5.5300    0.0000 H   0  0  0  0  0  0  0  0  0  0  0  0
   -6.6424   -7.1350    0.0000 H   0  0  0  0  0  0  0  0  0  0  0  0
   -6.6425   -6.0650    0.0000 H   0  0  0  0  0  0  0  0  0  0  0  0
   -4.2868   -5.5300    0.0000 H   0  0  0  0  0  0  0  0  0  0  0  0
   -3.3601   -6.0650    0.0000 H   0  0  0  0  0  0  0  0  0  0  0  0
   -3.5724   -8.0825    0.0000 H   0  0  0  0  0  0  0  0  0  0  0  0
   -2.6458   -7.5475    0.0000 H   0  0  0  0  0  0  0  0  0  0  0  0
   -1.4289   -5.5680    0.0000 H   0  0  0  0  0  0  0  0  0  0  0  0
    0.1792   -6.4965    0.0000 H   0  0  0  0  0  0  0  0  0  0  0  0
   -1.4289   -9.2820    0.0000 H   0  0  0  0  0  0  0  0  0  0  0  0
   -3.0371   -8.3535    0.0000 H   0  0  0  0  0  0  0  0  0  0  0  0
    0.0000   -9.2345    0.0000 H   0  0  0  0  0  0  0  0  0  0  0  0
    1.4289   -5.5680    0.0000 H   0  0  0  0  0  0  0  0  0  0  0  0
    2.8579   -9.2345    0.0000 H   0  0  0  0  0  0  0  0  0  0  0  0
    2.6787   -6.4965    0.0000 H   0  0  0  0  0  0  0  0  0  0  0  0
    4.2868   -5.5680    0.0000 H   0  0  0  0  0  0  0  0  0  0  0  0
    5.8950   -6.4965    0.0000 H   0  0  0  0  0  0  0  0  0  0  0  0
    4.2868   -9.2820    0.0000 H   0  0  0  0  0  0  0  0  0  0  0  0
    5.7158   -9.2345    0.0000 H   0  0  0  0  0  0  0  0  0  0  0  0
    7.1447   -9.2820    0.0000 H   0  0  0  0  0  0  0  0  0  0  0  0
    8.7529   -8.3535    0.0000 H   0  0  0  0  0  0  0  0  0  0  0  0
    7.8592   -6.8055    0.0000 H   0  0  0  0  0  0  0  0  0  0  0  0
  1  2  1  0  0  0  0
  1 32  1  0  0  0  0
  1 33  1  0  0  0  0
  1 34  1  0  0  0  0
  2  3  1  0  0  0  0
  3  4  1  0  0  0  0
  3 35  1  0  0  0  0
  3 36  1  0  0  0  0
  4  5  1  0  0  0  0
  4 37  1  0  0  0  0
  4 38  1  0  0  0  0
  5  6  1  0  0  0  0
  6  7  2  0  0  0  0
  6 11  1  0  0  0  0
  7  8  1  0  0  0  0
  7 39  1  0  0  0  0
  8  9  2  0  0  0  0
  8 40  1  0  0  0  0
  9 10  1  0  0  0  0
  9 12  1  0  0  0  0
 10 11  2  0  0  0  0
 10 41  1  0  0  0  0
 11 42  1  0  0  0  0
 12 13  1  0  0  0  0
 12 43  1  0  0  0  0
 13 14  2  0  0  0  0
 13 18  1  0  0  0  0
 14 15  1  0  0  0  0
 15 16  2  0  0  0  0
 15 44  1  0  0  0  0
 16 17  1  0  0  0  0
 16 31  1  0  0  0  0
 17 18  2  0  0  0  0
 17 19  1  0  0  0  0
 19 20  1  0  0  0  0
 19 45  1  0  0  0  0
 20 21  2  0  0  0  0
 20 25  1  0  0  0  0
 21 22  1  0  0  0  0
 21 46  1  0  0  0  0
 22 23  2  0  0  0  0
 22 47  1  0  0  0  0
 23 24  1  0  0  0  0
 23 48  1  0  0  0  0
 24 25  2  0  0  0  0
 24 26  1  0  0  0  0
 25 49  1  0  0  0  0
 26 27  1  0  0  0  0
 26 50  1  0  0  0  0
 27 28  2  0  0  0  0
 27 29  1  0  0  0  0
 29 30  2  0  0  0  0
 29 51  1  0  0  0  0
 30 52  1  0  0  0  0
 30 53  1  0  0  0  0
M  END
>  <DRUGBANK_ID>
DB11764

>  <COMMON_NAME>
Spebrutinib

>  <CAS_NUMBER>
1202757-89-8

>  <UNII>
DRU6NG543J

>  <SYNONYMS>
3-(5-FLUORO-2-(4-(2-METHOXYETHOXY)PHENYLAMINO)PYRIMIDIN-4-YLAMINO)PHENYL)ACRYLAMIDE; BTK inhibitor CC-292; N-(3-(5-fluoro-2-(4-(2-methoxyethoxy)phenylamino)pyrimidin-4-ylamino)phenyl)acrylamide; Spebrutinib

$$$$
