
 OpenBabel10282417072D

 15 15  0  0  0  0  0  0  0  0999 V2000
   -0.0043    0.1424    0.0000 C   0  0  0  0  0  0  0  0  0  0  0  0
   -0.2741   -0.6952    0.0000 C   0  0  0  0  0  0  0  0  0  0  0  0
    0.7528    0.4165    0.0000 C   0  0  0  0  0  0  0  0  0  0  0  0
   -0.7135    0.6080    0.0000 N   0  0  0  0  0  0  0  0  0  0  0  0
   -1.1356   -0.6952    0.0000 N   0  0  0  0  0  0  0  0  0  0  0  0
    0.1762   -1.2216    0.0000 N   0  0  0  0  0  0  0  0  0  0  0  0
    1.3880   -0.1099    0.0000 N   0  0  0  0  0  0  0  0  0  0  0  0
    0.8637    1.2216    0.0000 O   0  0  0  0  0  0  0  0  0  0  0  0
   -1.3880    0.1424    0.0000 C   0  0  0  0  0  0  0  0  0  0  0  0
   -0.7249    1.5924    0.0000 H   0  0  0  0  0  0  0  0  0  0  0  0
   -0.1517   -2.1499    0.0000 H   0  0  0  0  0  0  0  0  0  0  0  0
    1.1441   -1.0414    0.0000 H   0  0  0  0  0  0  0  0  0  0  0  0
    1.2230   -1.0805    0.0000 H   0  0  0  0  0  0  0  0  0  0  0  0
    2.3110    0.2325    0.0000 H   0  0  0  0  0  0  0  0  0  0  0  0
   -2.3620    0.4836    0.0000 H   0  0  0  0  0  0  0  0  0  0  0  0
  1  2  2  0  0  0  0
  1  3  1  0  0  0  0
  1  4  1  0  0  0  0
  2  5  1  0  0  0  0
  2  6  1  0  0  0  0
  3  7  1  0  0  0  0
  3  8  2  0  0  0  0
  4  9  1  0  0  0  0
  4 10  1  0  0  0  0
  5  9  2  0  0  0  0
  6 11  1  0  0  0  0
  6 12  1  0  0  0  0
  7 13  1  0  0  0  0
  7 14  1  0  0  0  0
  9 15  1  0  0  0  0
M  END
>  <DRUGBANK_ID>
DB06143

>  <COMMON_NAME>
Aminoimidazole carboxamide

>  <CAS_NUMBER>
360-97-4

>  <UNII>
3V0Y2PDE6K

>  <SYNONYMS>
5-Aminoimidazol-4-carboxamide; 5-Aminoimidazole-4-carboxamide; AIC; AICA; Aminoimidazole carboxamide

$$$$
