
 OpenBabel10282417072D

 48 52  0  0  0  0  0  0  0  0999 V2000
    0.0753   -0.7167    0.0000 C   0  0  0  0  0  0  0  0  0  0  0  0
    0.8600   -0.9717    0.0000 C   0  0  0  0  0  0  0  0  0  0  0  0
    1.4730   -0.4196    0.0000 N   0  0  0  0  0  0  0  0  0  0  0  0
    2.2577   -0.6746    0.0000 C   0  0  0  0  0  0  0  0  0  0  0  0
    2.4292   -1.4815    0.0000 C   0  0  0  0  0  0  0  0  0  0  0  0
    1.8161   -2.0336    0.0000 C   0  0  0  0  0  0  0  0  0  0  0  0
    1.0315   -1.7786    0.0000 C   0  0  0  0  0  0  0  0  0  0  0  0
    2.8708   -0.1225    0.0000 C   0  0  0  0  0  0  0  0  0  0  0  0
    2.7845    0.6979    0.0000 C   0  0  0  0  0  0  0  0  0  0  0  0
    3.5382    1.0335    0.0000 N   0  0  0  0  0  0  0  0  0  0  0  0
    4.0902    0.4204    0.0000 C   0  0  0  0  0  0  0  0  0  0  0  0
    4.9107    0.5066    0.0000 C   0  0  0  0  0  0  0  0  0  0  0  0
    5.3956   -0.1608    0.0000 N   0  0  0  0  0  0  0  0  0  0  0  0
    6.2161   -0.0746    0.0000 C   0  0  0  0  0  0  0  0  0  0  0  0
    6.5517    0.6791    0.0000 C   0  0  0  0  0  0  0  0  0  0  0  0
    6.0668    1.3466    0.0000 F   0  0  0  0  0  0  0  0  0  0  0  0
    7.3722    0.7653    0.0000 C   0  0  0  0  0  0  0  0  0  0  0  0
    7.8571    0.0979    0.0000 C   0  0  0  0  0  0  0  0  0  0  0  0
    7.5215   -0.6558    0.0000 C   0  0  0  0  0  0  0  0  0  0  0  0
    6.7010   -0.7420    0.0000 C   0  0  0  0  0  0  0  0  0  0  0  0
    3.6777   -0.2941    0.0000 N   0  0  0  0  0  0  0  0  0  0  0  0
    2.0701    1.1104    0.0000 C   0  0  0  0  0  0  0  0  0  0  0  0
    1.3556    0.6979    0.0000 C   0  0  0  0  0  0  0  0  0  0  0  0
    0.6411    1.1104    0.0000 N   0  0  0  0  0  0  0  0  0  0  0  0
   -0.1435    0.8555    0.0000 N   0  0  0  0  0  0  0  0  0  0  0  0
   -0.6284    1.5229    0.0000 C   0  0  0  0  0  0  0  0  0  0  0  0
   -0.1435    2.1904    0.0000 N   0  0  0  0  0  0  0  0  0  0  0  0
    0.6411    1.9354    0.0000 C   0  0  0  0  0  0  0  0  0  0  0  0
    1.3556    2.3479    0.0000 C   0  0  0  0  0  0  0  0  0  0  0  0
    2.0701    1.9354    0.0000 C   0  0  0  0  0  0  0  0  0  0  0  0
   -0.1471    0.3299    0.0000 H   0  0  0  0  0  0  0  0  0  0  0  0
   -0.7199   -1.4326    0.0000 H   0  0  0  0  0  0  0  0  0  0  0  0
   -0.9423   -0.3860    0.0000 H   0  0  0  0  0  0  0  0  0  0  0  0
    3.4107   -1.8004    0.0000 H   0  0  0  0  0  0  0  0  0  0  0  0
    2.0307   -3.0431    0.0000 H   0  0  0  0  0  0  0  0  0  0  0  0
    0.2645   -2.4691    0.0000 H   0  0  0  0  0  0  0  0  0  0  0  0
    5.3459    1.4841    0.0000 H   0  0  0  0  0  0  0  0  0  0  0  0
    5.9748    0.6184    0.0000 H   0  0  0  0  0  0  0  0  0  0  0  0
    4.9951   -1.0602    0.0000 H   0  0  0  0  0  0  0  0  0  0  0  0
    7.7920    1.7081    0.0000 H   0  0  0  0  0  0  0  0  0  0  0  0
    8.8834    0.2058    0.0000 H   0  0  0  0  0  0  0  0  0  0  0  0
    8.1281   -1.4907    0.0000 H   0  0  0  0  0  0  0  0  0  0  0  0
    6.2812   -1.6848    0.0000 H   0  0  0  0  0  0  0  0  0  0  0  0
    4.0781   -1.1935    0.0000 H   0  0  0  0  0  0  0  0  0  0  0  0
    1.3556   -0.3341    0.0000 H   0  0  0  0  0  0  0  0  0  0  0  0
   -1.6604    1.5229    0.0000 H   0  0  0  0  0  0  0  0  0  0  0  0
    1.3556    3.3799    0.0000 H   0  0  0  0  0  0  0  0  0  0  0  0
    2.9638    2.4514    0.0000 H   0  0  0  0  0  0  0  0  0  0  0  0
  1  2  1  0  0  0  0
  1 31  1  0  0  0  0
  1 32  1  0  0  0  0
  1 33  1  0  0  0  0
  2  3  2  0  0  0  0
  2  7  1  0  0  0  0
  3  4  1  0  0  0  0
  4  5  2  0  0  0  0
  4  8  1  0  0  0  0
  5  6  1  0  0  0  0
  5 34  1  0  0  0  0
  6  7  2  0  0  0  0
  6 35  1  0  0  0  0
  7 36  1  0  0  0  0
  8  9  2  0  0  0  0
  8 21  1  0  0  0  0
  9 10  1  0  0  0  0
  9 22  1  0  0  0  0
 10 11  2  0  0  0  0
 11 12  1  0  0  0  0
 11 21  1  0  0  0  0
 12 13  1  0  0  0  0
 12 37  1  0  0  0  0
 12 38  1  0  0  0  0
 13 14  1  0  0  0  0
 13 39  1  0  0  0  0
 14 15  2  0  0  0  0
 14 20  1  0  0  0  0
 15 16  1  0  0  0  0
 15 17  1  0  0  0  0
 17 18  2  0  0  0  0
 17 40  1  0  0  0  0
 18 19  1  0  0  0  0
 18 41  1  0  0  0  0
 19 20  2  0  0  0  0
 19 42  1  0  0  0  0
 20 43  1  0  0  0  0
 21 44  1  0  0  0  0
 22 23  2  0  0  0  0
 22 30  1  0  0  0  0
 23 24  1  0  0  0  0
 23 45  1  0  0  0  0
 24 25  1  0  0  0  0
 24 28  1  0  0  0  0
 25 26  2  0  0  0  0
 26 27  1  0  0  0  0
 26 46  1  0  0  0  0
 27 28  2  0  0  0  0
 28 29  1  0  0  0  0
 29 30  2  0  0  0  0
 29 47  1  0  0  0  0
 30 48  1  0  0  0  0
M  END
>  <DRUGBANK_ID>
DB15310

>  <COMMON_NAME>
Vactosertib

>  <CAS_NUMBER>
1352608-82-2

>  <UNII>
6T4O391P5Y

>  <SYNONYMS>
2-fluoro-N-[[5-(6-methylpyridin-2-yl)-4-([1,2,4]triazolo[1,5-a]pyridin-6-yl)-1H-imidazol-2-yl]methyl]aniline; Vactosertib

$$$$
