365
 OpenBabel10282417072D

 48 51  0  0  1  0  0  0  0  0999 V2000
    7.1488    1.4608    0.0000 F   0  0  0  0  0  0  0  0  0  0  0  0
    4.2364    2.2658    0.0000 O   0  0  0  0  0  0  0  0  0  0  0  0
    2.0930    1.0283    0.0000 O   0  0  0  0  0  0  0  0  0  0  0  0
    2.8075    2.2658    0.0000 O   0  0  0  0  0  0  0  0  0  0  0  0
    4.2364   -0.2092    0.0000 N   0  0  0  0  0  0  0  0  0  0  0  0
    7.1488   -0.2291    0.0000 N   0  0  0  0  0  0  0  0  0  0  0  0
    8.5746   -1.0596    0.0000 N   0  0  0  0  0  0  0  0  0  0  0  0
    4.2364   -1.0342    0.0000 C   0  0  0  0  0  0  0  0  0  0  0  0
    4.6489   -1.7487    0.0000 C   0  0  0  0  0  0  0  0  0  0  0  0
    3.8239   -1.7487    0.0000 C   0  0  0  0  0  0  0  0  0  0  0  0
    4.9509    0.2033    0.0000 C   0  0  0  0  0  0  0  0  0  0  0  0
    3.5220    0.2033    0.0000 C   0  0  0  0  0  0  0  0  0  0  0  0
    4.9509    1.0283    0.0000 C   0  0  0  0  0  0  0  0  0  0  0  0
    6.4359    0.1861    0.0000 C   0  0  0  0  0  0  0  0  0  0  0  0
    7.1456   -1.0541    0.0000 C   0  0  0  0  0  0  0  0  0  0  0  0
    5.6884   -0.2378    0.0000 C   0  0  0  0  0  0  0  0  0  0  0  0
    7.8585   -1.4693    0.0000 C   0  0  3  0  0  0  0  0  0  0  0  0
    7.8649    0.1806    0.0000 C   0  0  0  0  0  0  0  0  0  0  0  0
    8.5778   -0.2346    0.0000 C   0  0  0  0  0  0  0  0  0  0  0  0
    5.6884    1.4694    0.0000 C   0  0  0  0  0  0  0  0  0  0  0  0
    3.5220    1.0283    0.0000 C   0  0  0  0  0  0  0  0  0  0  0  0
    4.2364    1.4408    0.0000 C   0  0  0  0  0  0  0  0  0  0  0  0
    6.4359    1.0455    0.0000 C   0  0  0  0  0  0  0  0  0  0  0  0
    7.8553   -2.2943    0.0000 C   0  0  0  0  0  0  0  0  0  0  0  0
    5.6789    2.2943    0.0000 C   0  0  0  0  0  0  0  0  0  0  0  0
    2.8075    1.4408    0.0000 C   0  0  0  0  0  0  0  0  0  0  0  0
    1.2815    1.4968    0.0000 H   0  0  0  0  0  0  0  0  0  0  0  0
    9.4559   -1.5730    0.0000 H   0  0  0  0  0  0  0  0  0  0  0  0
    4.2364   -2.1042    0.0000 H   0  0  0  0  0  0  0  0  0  0  0  0
    5.5755   -2.2837    0.0000 H   0  0  0  0  0  0  0  0  0  0  0  0
    4.3720   -2.7822    0.0000 H   0  0  0  0  0  0  0  0  0  0  0  0
    2.8973   -2.2837    0.0000 H   0  0  0  0  0  0  0  0  0  0  0  0
    4.1008   -2.7822    0.0000 H   0  0  0  0  0  0  0  0  0  0  0  0
    2.6283   -0.3127    0.0000 H   0  0  0  0  0  0  0  0  0  0  0  0
    6.2169   -1.5855    0.0000 H   0  0  0  0  0  0  0  0  0  0  0  0
    7.1415   -2.1241    0.0000 H   0  0  0  0  0  0  0  0  0  0  0  0
    5.6765   -1.2697    0.0000 H   0  0  0  0  0  0  0  0  0  0  0  0
    7.8626   -0.3993    0.0000 H   0  0  0  0  0  0  0  0  0  0  0  0
    7.8690    1.2506    0.0000 H   0  0  0  0  0  0  0  0  0  0  0  0
    8.7936    0.7121    0.0000 H   0  0  0  0  0  0  0  0  0  0  0  0
    9.5065    0.2968    0.0000 H   0  0  0  0  0  0  0  0  0  0  0  0
    8.5819    0.8354    0.0000 H   0  0  0  0  0  0  0  0  0  0  0  0
    6.9266   -2.8257    0.0000 H   0  0  0  0  0  0  0  0  0  0  0  0
    8.7799   -2.8329    0.0000 H   0  0  0  0  0  0  0  0  0  0  0  0
    7.8511   -3.3643    0.0000 H   0  0  0  0  0  0  0  0  0  0  0  0
    6.5993    2.8399    0.0000 H   0  0  0  0  0  0  0  0  0  0  0  0
    4.7462    2.8186    0.0000 H   0  0  0  0  0  0  0  0  0  0  0  0
    5.6666    3.3642    0.0000 H   0  0  0  0  0  0  0  0  0  0  0  0
  1 23  1  0  0  0  0
  2 22  2  0  0  0  0
  3 26  1  0  0  0  0
  3 27  1  0  0  0  0
  4 26  2  0  0  0  0
  5  8  1  0  0  0  0
  5 11  1  0  0  0  0
  5 12  1  0  0  0  0
  6 14  1  0  0  0  0
  6 15  1  0  0  0  0
  6 18  1  0  0  0  0
  7 17  1  0  0  0  0
  7 19  1  0  0  0  0
  7 28  1  0  0  0  0
  8  9  1  0  0  0  0
  8 10  1  0  0  0  0
  8 29  1  0  0  0  0
  9 10  1  0  0  0  0
  9 30  1  0  0  0  0
  9 31  1  0  0  0  0
 10 32  1  0  0  0  0
 10 33  1  0  0  0  0
 11 13  1  0  0  0  0
 11 16  2  0  0  0  0
 12 21  2  0  0  0  0
 12 34  1  0  0  0  0
 13 20  2  0  0  0  0
 13 22  1  0  0  0  0
 14 16  1  0  0  0  0
 14 23  2  0  0  0  0
 15 17  1  0  0  0  0
 15 35  1  0  0  0  0
 15 36  1  0  0  0  0
 16 37  1  0  0  0  0
 17 24  1  0  0  0  0
 17 38  1  0  0  0  0
 18 19  1  0  0  0  0
 18 39  1  0  0  0  0
 18 40  1  0  0  0  0
 19 41  1  0  0  0  0
 19 42  1  0  0  0  0
 20 23  1  0  0  0  0
 20 25  1  0  0  0  0
 21 22  1  0  0  0  0
 21 26  1  0  0  0  0
 24 43  1  0  0  0  0
 24 44  1  0  0  0  0
 24 45  1  0  0  0  0
 25 46  1  0  0  0  0
 25 47  1  0  0  0  0
 25 48  1  0  0  0  0
M  END
>  <DRUGBANK_ID>
DB00365

>  <SECONDARY_ACCESSION_NUMBERS>
APRD01003

>  <COMMON_NAME>
Grepafloxacin

>  <CAS_NUMBER>
119914-60-2

>  <UNII>
L1M1U2HC31

>  <SYNONYMS>
Grepafloxacin

$$$$
