
 OpenBabel10282417072D

 86 89  0  0  0  0  0  0  0  0999 V2000
   -3.7125   -1.2631    0.0000 P   0  3  0  0  0  0  0  0  0  0  0  0
   -3.7125   -0.4381    0.0000 C   0  0  0  0  0  0  0  0  0  0  0  0
   -2.9980   -0.0256    0.0000 C   0  0  0  0  0  0  0  0  0  0  0  0
   -2.9980    0.7993    0.0000 C   0  0  0  0  0  0  0  0  0  0  0  0
   -3.7125    1.2118    0.0000 C   0  0  0  0  0  0  0  0  0  0  0  0
   -4.4269    0.7993    0.0000 C   0  0  0  0  0  0  0  0  0  0  0  0
   -4.4269   -0.0256    0.0000 C   0  0  0  0  0  0  0  0  0  0  0  0
   -4.5375   -1.2631    0.0000 C   0  0  0  0  0  0  0  0  0  0  0  0
   -4.9499   -1.9775    0.0000 C   0  0  0  0  0  0  0  0  0  0  0  0
   -5.7749   -1.9775    0.0000 C   0  0  0  0  0  0  0  0  0  0  0  0
   -6.1875   -1.2631    0.0000 C   0  0  0  0  0  0  0  0  0  0  0  0
   -5.7749   -0.5486    0.0000 C   0  0  0  0  0  0  0  0  0  0  0  0
   -4.9499   -0.5486    0.0000 C   0  0  0  0  0  0  0  0  0  0  0  0
   -3.7125   -2.0881    0.0000 C   0  0  0  0  0  0  0  0  0  0  0  0
   -2.9980   -2.5006    0.0000 C   0  0  0  0  0  0  0  0  0  0  0  0
   -2.9980   -3.3256    0.0000 C   0  0  0  0  0  0  0  0  0  0  0  0
   -3.7125   -3.7381    0.0000 C   0  0  0  0  0  0  0  0  0  0  0  0
   -4.4269   -3.3256    0.0000 C   0  0  0  0  0  0  0  0  0  0  0  0
   -4.4269   -2.5006    0.0000 C   0  0  0  0  0  0  0  0  0  0  0  0
   -2.8875   -1.2631    0.0000 C   0  0  0  0  0  0  0  0  0  0  0  0
   -2.4749   -0.5486    0.0000 C   0  0  0  0  0  0  0  0  0  0  0  0
   -1.6499   -0.5486    0.0000 C   0  0  0  0  0  0  0  0  0  0  0  0
   -1.2375    0.1658    0.0000 C   0  0  0  0  0  0  0  0  0  0  0  0
   -0.4125    0.1658    0.0000 C   0  0  0  0  0  0  0  0  0  0  0  0
    0.0000    0.8802    0.0000 C   0  0  0  0  0  0  0  0  0  0  0  0
    0.8250    0.8802    0.0000 C   0  0  0  0  0  0  0  0  0  0  0  0
    1.2375    1.5947    0.0000 C   0  0  0  0  0  0  0  0  0  0  0  0
    2.0625    1.5947    0.0000 C   0  0  0  0  0  0  0  0  0  0  0  0
    2.4750    2.3092    0.0000 C   0  0  0  0  0  0  0  0  0  0  0  0
    3.3000    2.3092    0.0000 C   0  0  0  0  0  0  0  0  0  0  0  0
    3.7125    3.0236    0.0000 C   0  0  0  0  0  0  0  0  0  0  0  0
    3.3000    3.7381    0.0000 C   0  0  0  0  0  0  0  0  0  0  0  0
    4.5375    3.0236    0.0000 C   0  0  0  0  0  0  0  0  0  0  0  0
    4.9500    3.7381    0.0000 O   0  0  0  0  0  0  0  0  0  0  0  0
    4.9500    2.3092    0.0000 C   0  0  0  0  0  0  0  0  0  0  0  0
    5.7750    2.3092    0.0000 O   0  0  0  0  0  0  0  0  0  0  0  0
    6.1875    3.0236    0.0000 C   0  0  0  0  0  0  0  0  0  0  0  0
    4.5375    1.5947    0.0000 C   0  0  0  0  0  0  0  0  0  0  0  0
    4.9500    0.8802    0.0000 O   0  0  0  0  0  0  0  0  0  0  0  0
    4.5375    0.1658    0.0000 C   0  0  0  0  0  0  0  0  0  0  0  0
    3.7125    1.5947    0.0000 C   0  0  0  0  0  0  0  0  0  0  0  0
    3.3000    0.8802    0.0000 O   0  0  0  0  0  0  0  0  0  0  0  0
   -2.1043   -0.5416    0.0000 H   0  0  0  0  0  0  0  0  0  0  0  0
   -2.1043    1.3153    0.0000 H   0  0  0  0  0  0  0  0  0  0  0  0
   -3.7125    2.2438    0.0000 H   0  0  0  0  0  0  0  0  0  0  0  0
   -5.3206    1.3153    0.0000 H   0  0  0  0  0  0  0  0  0  0  0  0
   -5.3206   -0.5416    0.0000 H   0  0  0  0  0  0  0  0  0  0  0  0
   -4.4339   -2.8712    0.0000 H   0  0  0  0  0  0  0  0  0  0  0  0
   -6.2908   -2.8713    0.0000 H   0  0  0  0  0  0  0  0  0  0  0  0
   -7.2195   -1.2631    0.0000 H   0  0  0  0  0  0  0  0  0  0  0  0
   -6.2909    0.3452    0.0000 H   0  0  0  0  0  0  0  0  0  0  0  0
   -4.4338    0.3451    0.0000 H   0  0  0  0  0  0  0  0  0  0  0  0
   -2.1043   -1.9846    0.0000 H   0  0  0  0  0  0  0  0  0  0  0  0
   -2.1043   -3.8416    0.0000 H   0  0  0  0  0  0  0  0  0  0  0  0
   -3.7125   -4.7701    0.0000 H   0  0  0  0  0  0  0  0  0  0  0  0
   -5.3206   -3.8416    0.0000 H   0  0  0  0  0  0  0  0  0  0  0  0
   -5.3206   -1.9846    0.0000 H   0  0  0  0  0  0  0  0  0  0  0  0
   -2.3525   -2.1898    0.0000 H   0  0  0  0  0  0  0  0  0  0  0  0
   -1.8175   -1.2632    0.0000 H   0  0  0  0  0  0  0  0  0  0  0  0
   -3.0099    0.3781    0.0000 H   0  0  0  0  0  0  0  0  0  0  0  0
   -1.9399    0.3780    0.0000 H   0  0  0  0  0  0  0  0  0  0  0  0
   -1.1149   -1.4752    0.0000 H   0  0  0  0  0  0  0  0  0  0  0  0
   -0.5799   -0.5486    0.0000 H   0  0  0  0  0  0  0  0  0  0  0  0
   -1.7725    1.0924    0.0000 H   0  0  0  0  0  0  0  0  0  0  0  0
   -0.7025    1.0925    0.0000 H   0  0  0  0  0  0  0  0  0  0  0  0
    0.1225   -0.7609    0.0000 H   0  0  0  0  0  0  0  0  0  0  0  0
    0.6575    0.1658    0.0000 H   0  0  0  0  0  0  0  0  0  0  0  0
   -0.5350    1.8069    0.0000 H   0  0  0  0  0  0  0  0  0  0  0  0
    0.5350    1.8068    0.0000 H   0  0  0  0  0  0  0  0  0  0  0  0
    1.3600   -0.0464    0.0000 H   0  0  0  0  0  0  0  0  0  0  0  0
    1.8950    0.8802    0.0000 H   0  0  0  0  0  0  0  0  0  0  0  0
    0.7025    2.5213    0.0000 H   0  0  0  0  0  0  0  0  0  0  0  0
    1.7725    2.5213    0.0000 H   0  0  0  0  0  0  0  0  0  0  0  0
    2.5975    0.6681    0.0000 H   0  0  0  0  0  0  0  0  0  0  0  0
    3.1325    1.5947    0.0000 H   0  0  0  0  0  0  0  0  0  0  0  0
    1.9400    3.2358    0.0000 H   0  0  0  0  0  0  0  0  0  0  0  0
    3.0100    3.2358    0.0000 H   0  0  0  0  0  0  0  0  0  0  0  0
    3.8350    4.6647    0.0000 H   0  0  0  0  0  0  0  0  0  0  0  0
    2.2300    3.7381    0.0000 H   0  0  0  0  0  0  0  0  0  0  0  0
    2.7650    4.6648    0.0000 H   0  0  0  0  0  0  0  0  0  0  0  0
    7.2575    3.0236    0.0000 H   0  0  0  0  0  0  0  0  0  0  0  0
    5.6525    3.9503    0.0000 H   0  0  0  0  0  0  0  0  0  0  0  0
    6.7225    3.9502    0.0000 H   0  0  0  0  0  0  0  0  0  0  0  0
    3.4675    0.1658    0.0000 H   0  0  0  0  0  0  0  0  0  0  0  0
    5.0725   -0.7609    0.0000 H   0  0  0  0  0  0  0  0  0  0  0  0
    4.0025   -0.7608    0.0000 H   0  0  0  0  0  0  0  0  0  0  0  0
  1  2  1  0  0  0  0
  1  8  1  0  0  0  0
  1 14  1  0  0  0  0
  1 20  1  0  0  0  0
  2  3  1  0  0  0  0
  2  7  2  0  0  0  0
  3  4  2  0  0  0  0
  3 43  1  0  0  0  0
  4  5  1  0  0  0  0
  4 44  1  0  0  0  0
  5 45  1  0  0  0  0
  6  5  2  0  0  0  0
  6 46  1  0  0  0  0
  7  6  1  0  0  0  0
  7 47  1  0  0  0  0
  8  9  1  0  0  0  0
  8 13  2  0  0  0  0
  9 10  2  0  0  0  0
  9 48  1  0  0  0  0
 10 11  1  0  0  0  0
 10 49  1  0  0  0  0
 11 50  1  0  0  0  0
 12 11  2  0  0  0  0
 12 51  1  0  0  0  0
 13 12  1  0  0  0  0
 13 52  1  0  0  0  0
 14 15  1  0  0  0  0
 14 19  2  0  0  0  0
 15 16  2  0  0  0  0
 15 53  1  0  0  0  0
 16 17  1  0  0  0  0
 16 54  1  0  0  0  0
 17 55  1  0  0  0  0
 18 17  2  0  0  0  0
 18 56  1  0  0  0  0
 19 18  1  0  0  0  0
 19 57  1  0  0  0  0
 20 21  1  0  0  0  0
 20 58  1  0  0  0  0
 20 59  1  0  0  0  0
 21 22  1  0  0  0  0
 21 60  1  0  0  0  0
 21 61  1  0  0  0  0
 22 23  1  0  0  0  0
 22 62  1  0  0  0  0
 22 63  1  0  0  0  0
 23 24  1  0  0  0  0
 23 64  1  0  0  0  0
 23 65  1  0  0  0  0
 24 25  1  0  0  0  0
 24 66  1  0  0  0  0
 24 67  1  0  0  0  0
 25 26  1  0  0  0  0
 25 68  1  0  0  0  0
 25 69  1  0  0  0  0
 26 27  1  0  0  0  0
 26 70  1  0  0  0  0
 26 71  1  0  0  0  0
 27 28  1  0  0  0  0
 27 72  1  0  0  0  0
 27 73  1  0  0  0  0
 28 29  1  0  0  0  0
 28 74  1  0  0  0  0
 28 75  1  0  0  0  0
 29 30  1  0  0  0  0
 29 76  1  0  0  0  0
 29 77  1  0  0  0  0
 30 31  2  0  0  0  0
 30 41  1  0  0  0  0
 31 32  1  0  0  0  0
 31 33  1  0  0  0  0
 32 78  1  0  0  0  0
 32 79  1  0  0  0  0
 32 80  1  0  0  0  0
 33 34  2  0  0  0  0
 33 35  1  0  0  0  0
 35 36  1  0  0  0  0
 36 37  1  0  0  0  0
 37 81  1  0  0  0  0
 37 82  1  0  0  0  0
 37 83  1  0  0  0  0
 38 35  2  0  0  0  0
 38 39  1  0  0  0  0
 39 40  1  0  0  0  0
 40 84  1  0  0  0  0
 40 85  1  0  0  0  0
 40 86  1  0  0  0  0
 41 38  1  0  0  0  0
 41 42  2  0  0  0  0
M  CHG  1   1   1
M  END
>  <DRUGBANK_ID>
DB05063

>  <COMMON_NAME>
Mitoquinone

>  <CAS_NUMBER>
444890-41-9

>  <UNII>
47BYS17IY0

>  <SYNONYMS>
Mitoquinone cation; Mitoquinone ion

$$$$
