
 OpenBabel10282417072D

 79 82  0  0  0  0  0  0  0  0999 V2000
   -4.6501   -2.0559    0.0000 C   0  0  0  0  0  0  0  0  0  0  0  0
   -1.0818   -3.3038    0.0000 C   0  0  0  0  0  0  0  0  0  0  0  0
    4.6501    2.4705    0.0000 C   0  0  0  0  0  0  0  0  0  0  0  0
    1.7951    3.3038    0.0000 C   0  0  0  0  0  0  0  0  0  0  0  0
   -3.9346   -2.4663    0.0000 C   0  0  0  0  0  0  0  0  0  0  0  0
   -4.6501   -1.2268    0.0000 C   0  0  0  0  0  0  0  0  0  0  0  0
   -0.3663   -3.7143    0.0000 C   0  0  0  0  0  0  0  0  0  0  0  0
   -1.0818   -2.4747    0.0000 C   0  0  0  0  0  0  0  0  0  0  0  0
    3.9346    2.8810    0.0000 C   0  0  0  0  0  0  0  0  0  0  0  0
    4.6501    1.6414    0.0000 C   0  0  0  0  0  0  0  0  0  0  0  0
    1.0795    3.7143    0.0000 C   0  0  0  0  0  0  0  0  0  0  0  0
    1.7951    2.4747    0.0000 C   0  0  0  0  0  0  0  0  0  0  0  0
   -3.2189   -2.0559    0.0000 C   0  0  0  0  0  0  0  0  0  0  0  0
   -3.9346   -0.8079    0.0000 C   0  0  0  0  0  0  0  0  0  0  0  0
    0.3493   -3.3038    0.0000 C   0  0  0  0  0  0  0  0  0  0  0  0
   -0.3663   -2.0558    0.0000 C   0  0  0  0  0  0  0  0  0  0  0  0
    3.2189    2.4705    0.0000 C   0  0  0  0  0  0  0  0  0  0  0  0
    3.9346    1.2225    0.0000 C   0  0  0  0  0  0  0  0  0  0  0  0
    0.3639    3.3038    0.0000 C   0  0  0  0  0  0  0  0  0  0  0  0
    1.0795    2.0558    0.0000 C   0  0  0  0  0  0  0  0  0  0  0  0
   -2.5033   -0.8164    0.0000 C   0  0  0  0  0  0  0  0  0  0  0  0
   -1.7903   -1.2310    0.0000 C   0  0  0  0  0  0  0  0  0  0  0  0
   -1.0721    0.0042    0.0000 C   0  0  0  0  0  0  0  0  0  0  0  0
   -0.3565    0.4146    0.0000 C   0  0  0  0  0  0  0  0  0  0  0  0
    1.0649   -2.0642    0.0000 C   0  0  0  0  0  0  0  0  0  0  0  0
    2.5033    1.2310    0.0000 C   0  0  0  0  0  0  0  0  0  0  0  0
   -3.2189   -1.2268    0.0000 C   0  0  0  0  0  0  0  0  0  0  0  0
    0.3493   -2.4747    0.0000 C   0  0  0  0  0  0  0  0  0  0  0  0
    3.2189    1.6414    0.0000 C   0  0  0  0  0  0  0  0  0  0  0  0
   -1.0746   -0.8206    0.0000 C   0  0  1  0  0  0  0  0  0  0  0  0
    0.3639    2.4747    0.0000 C   0  0  0  0  0  0  0  0  0  0  0  0
    1.0672   -1.2394    0.0000 C   0  0  1  0  0  0  0  0  0  0  0  0
    0.3542   -0.8248    0.0000 C   0  0  0  0  0  0  0  0  0  0  0  0
    1.7854   -0.0042    0.0000 C   0  0  0  0  0  0  0  0  0  0  0  0
   -0.3614   -1.2352    0.0000 N   0  0  0  0  0  0  0  0  0  0  0  0
    1.7829   -0.8290    0.0000 N   0  0  0  0  0  0  0  0  0  0  0  0
    0.3565    0.0000    0.0000 O   0  0  0  0  0  0  0  0  0  0  0  0
    1.0721    0.4104    0.0000 O   0  0  0  0  0  0  0  0  0  0  0  0
   -1.1790    1.2418    0.0000 O   0  0  0  0  0  0  0  0  0  0  0  0
    0.4707    1.2370    0.0000 O   0  0  0  0  0  0  0  0  0  0  0  0
    2.5009    0.4061    0.0000 O   0  0  0  0  0  0  0  0  0  0  0  0
   -0.3517    2.0643    0.0000 O   0  0  0  0  0  0  0  0  0  0  0  0
   -0.3542    1.2395    0.0000 S   0  0  0  0  0  0  0  0  0  0  0  0
   -5.5431   -2.5732    0.0000 H   0  0  0  0  0  0  0  0  0  0  0  0
   -1.9748   -3.8210    0.0000 H   0  0  0  0  0  0  0  0  0  0  0  0
    5.5431    2.9877    0.0000 H   0  0  0  0  0  0  0  0  0  0  0  0
    2.6881    3.8210    0.0000 H   0  0  0  0  0  0  0  0  0  0  0  0
   -3.9347   -3.4983    0.0000 H   0  0  0  0  0  0  0  0  0  0  0  0
   -5.5454   -0.7135    0.0000 H   0  0  0  0  0  0  0  0  0  0  0  0
   -0.3663   -4.7463    0.0000 H   0  0  0  0  0  0  0  0  0  0  0  0
   -1.9771   -1.9614    0.0000 H   0  0  0  0  0  0  0  0  0  0  0  0
    3.9347    3.9130    0.0000 H   0  0  0  0  0  0  0  0  0  0  0  0
    5.5454    1.1281    0.0000 H   0  0  0  0  0  0  0  0  0  0  0  0
    1.0795    4.7463    0.0000 H   0  0  0  0  0  0  0  0  0  0  0  0
    2.6904    1.9614    0.0000 H   0  0  0  0  0  0  0  0  0  0  0  0
   -2.3259   -2.5732    0.0000 H   0  0  0  0  0  0  0  0  0  0  0  0
   -3.9347    0.2241    0.0000 H   0  0  0  0  0  0  0  0  0  0  0  0
    1.2423   -3.8210    0.0000 H   0  0  0  0  0  0  0  0  0  0  0  0
   -0.3663   -1.0238    0.0000 H   0  0  0  0  0  0  0  0  0  0  0  0
    2.3259    2.9878    0.0000 H   0  0  0  0  0  0  0  0  0  0  0  0
    3.9347    0.1905    0.0000 H   0  0  0  0  0  0  0  0  0  0  0  0
   -0.5291    3.8210    0.0000 H   0  0  0  0  0  0  0  0  0  0  0  0
    1.0795    1.0238    0.0000 H   0  0  0  0  0  0  0  0  0  0  0  0
   -2.5001    0.2536    0.0000 H   0  0  0  0  0  0  0  0  0  0  0  0
   -3.4284   -0.2787    0.0000 H   0  0  0  0  0  0  0  0  0  0  0  0
   -1.7935   -2.3010    0.0000 H   0  0  0  0  0  0  0  0  0  0  0  0
   -0.8653   -1.7688    0.0000 H   0  0  0  0  0  0  0  0  0  0  0  0
   -1.9972    0.5419    0.0000 H   0  0  0  0  0  0  0  0  0  0  0  0
   -2.0003   -0.5280    0.0000 H   0  0  0  0  0  0  0  0  0  0  0  0
    0.5686   -0.1230    0.0000 H   0  0  0  0  0  0  0  0  0  0  0  0
    0.5716    0.9470    0.0000 H   0  0  0  0  0  0  0  0  0  0  0  0
    1.9901   -2.6018    0.0000 H   0  0  0  0  0  0  0  0  0  0  0  0
    1.9930   -1.5318    0.0000 H   0  0  0  0  0  0  0  0  0  0  0  0
    1.5782    1.7687    0.0000 H   0  0  0  0  0  0  0  0  0  0  0  0
    1.5751    0.6987    0.0000 H   0  0  0  0  0  0  0  0  0  0  0  0
   -1.9996   -0.2828    0.0000 H   0  0  0  0  0  0  0  0  0  0  0  0
    0.1390   -1.7717    0.0000 H   0  0  0  0  0  0  0  0  0  0  0  0
   -0.3643   -2.2197    0.0000 H   0  0  0  0  0  0  0  0  0  0  0  0
    2.6340   -1.3238    0.0000 H   0  0  0  0  0  0  0  0  0  0  0  0
  1  5  2  0  0  0  0
  1  6  1  0  0  0  0
  1 44  1  0  0  0  0
  2  7  2  0  0  0  0
  2  8  1  0  0  0  0
  2 45  1  0  0  0  0
  3  9  2  0  0  0  0
  3 10  1  0  0  0  0
  3 46  1  0  0  0  0
  4 11  2  0  0  0  0
  4 12  1  0  0  0  0
  4 47  1  0  0  0  0
  5 13  1  0  0  0  0
  5 48  1  0  0  0  0
  6 14  2  0  0  0  0
  6 49  1  0  0  0  0
  7 15  1  0  0  0  0
  7 50  1  0  0  0  0
  8 16  2  0  0  0  0
  8 51  1  0  0  0  0
  9 17  1  0  0  0  0
  9 52  1  0  0  0  0
 10 18  2  0  0  0  0
 10 53  1  0  0  0  0
 11 19  1  0  0  0  0
 11 54  1  0  0  0  0
 12 20  2  0  0  0  0
 12 55  1  0  0  0  0
 13 27  2  0  0  0  0
 13 56  1  0  0  0  0
 14 27  1  0  0  0  0
 14 57  1  0  0  0  0
 15 28  2  0  0  0  0
 15 58  1  0  0  0  0
 16 28  1  0  0  0  0
 16 59  1  0  0  0  0
 17 29  2  0  0  0  0
 17 60  1  0  0  0  0
 18 29  1  0  0  0  0
 18 61  1  0  0  0  0
 19 31  2  0  0  0  0
 19 62  1  0  0  0  0
 20 31  1  0  0  0  0
 20 63  1  0  0  0  0
 21 22  1  0  0  0  0
 21 27  1  0  0  0  0
 21 64  1  0  0  0  0
 21 65  1  0  0  0  0
 22 66  1  0  0  0  0
 22 67  1  0  0  0  0
 23 24  1  0  0  0  0
 23 30  1  0  0  0  0
 23 68  1  0  0  0  0
 23 69  1  0  0  0  0
 24 43  1  0  0  0  0
 24 70  1  0  0  0  0
 24 71  1  0  0  0  0
 25 28  1  0  0  0  0
 25 72  1  0  0  0  0
 25 73  1  0  0  0  0
 26 29  1  0  0  0  0
 26 41  1  0  0  0  0
 26 74  1  0  0  0  0
 26 75  1  0  0  0  0
 30 22  1  0  0  0  0
 30 35  1  0  0  0  0
 30 76  1  6  0  0  0
 31 42  1  0  0  0  0
 32 25  1  0  0  0  0
 32 33  1  0  0  0  0
 32 36  1  0  0  0  0
 32 77  1  6  0  0  0
 33 35  1  0  0  0  0
 33 37  2  0  0  0  0
 34 36  1  0  0  0  0
 34 38  2  0  0  0  0
 34 41  1  0  0  0  0
 35 78  1  0  0  0  0
 36 79  1  0  0  0  0
 39 43  2  0  0  0  0
 40 43  2  0  0  0  0
 42 43  1  0  0  0  0
M  END
>  <DRUGBANK_ID>
DB04502

>  <SECONDARY_ACCESSION_NUMBERS>
EXPT03235

>  <COMMON_NAME>
WRR-204

>  <SYNONYMS>
Phenyl (3S)-3-({N-[(benzyloxy)carbonyl]-L-phenylalanyl}amino)-5-phenyl-1-pentanesulfonate

$$$$
