
 OpenBabel10282417072D

 28 27  0  0  0  0  0  0  0  0999 V2000
    0.5786    0.6682    0.0000 S   0  0  0  0  0  0  0  0  0  0  0  0
    2.0076    1.4932    0.0000 O   0  0  0  0  0  0  0  0  0  0  0  0
   -1.5647    1.9057    0.0000 O   0  0  0  0  0  0  0  0  0  0  0  0
    1.2931    2.7307    0.0000 O   0  0  0  0  0  0  0  0  0  0  0  0
   -0.8502    0.6682    0.0000 O   0  0  0  0  0  0  0  0  0  0  0  0
   -0.8502   -0.9817    0.0000 N   0  0  0  0  0  0  0  0  0  0  0  0
   -1.5647   -2.2192    0.0000 N   0  0  0  0  0  0  0  0  0  0  0  0
   -0.1357   -2.2192    0.0000 N   0  0  0  0  0  0  0  0  0  0  0  0
    0.5786    1.4932    0.0000 C   0  0  1  0  0  0  0  0  0  0  0  0
   -0.1357    1.9057    0.0000 C   0  0  0  0  0  0  0  0  0  0  0  0
   -0.1357    0.2557    0.0000 C   0  0  0  0  0  0  0  0  0  0  0  0
   -0.1357   -0.5692    0.0000 C   0  0  0  0  0  0  0  0  0  0  0  0
    1.2931    1.9057    0.0000 C   0  0  0  0  0  0  0  0  0  0  0  0
   -0.8502    1.4932    0.0000 C   0  0  0  0  0  0  0  0  0  0  0  0
   -0.8502   -1.8067    0.0000 C   0  0  0  0  0  0  0  0  0  0  0  0
   -1.5647   -2.7307    0.0000 H   0  0  0  0  0  0  0  0  0  0  0  0
   -2.0076   -1.9635    0.0000 H   0  0  0  0  0  0  0  0  0  0  0  0
   -0.1357   -2.7307    0.0000 H   0  0  0  0  0  0  0  0  0  0  0  0
    0.3071   -1.9635    0.0000 H   0  0  0  0  0  0  0  0  0  0  0  0
    2.0076    0.5562    0.0000 H   0  0  0  0  0  0  0  0  0  0  0  0
   -1.5647    2.8427    0.0000 H   0  0  0  0  0  0  0  0  0  0  0  0
    1.5052    0.9582    0.0000 H   0  0  0  0  0  0  0  0  0  0  0  0
   -0.1356    2.9757    0.0000 H   0  0  0  0  0  0  0  0  0  0  0  0
   -1.0623    2.4407    0.0000 H   0  0  0  0  0  0  0  0  0  0  0  0
   -1.0624    0.7907    0.0000 H   0  0  0  0  0  0  0  0  0  0  0  0
   -1.0623   -0.2793    0.0000 H   0  0  0  0  0  0  0  0  0  0  0  0
    0.7909   -1.1042    0.0000 H   0  0  0  0  0  0  0  0  0  0  0  0
    0.7909   -0.0342    0.0000 H   0  0  0  0  0  0  0  0  0  0  0  0
  1  9  1  0  0  0  0
  1 11  1  0  0  0  0
  2 13  1  0  0  0  0
  2 20  1  0  0  0  0
  3 14  1  0  0  0  0
  3 21  1  0  0  0  0
  4 13  2  0  0  0  0
  5 14  2  0  0  0  0
  6 12  1  0  0  0  0
  6 15  2  0  0  0  0
  7 15  1  0  0  0  0
  7 16  1  0  0  0  0
  7 17  1  0  0  0  0
  8 15  1  0  0  0  0
  8 18  1  0  0  0  0
  8 19  1  0  0  0  0
  9 10  1  0  0  0  0
  9 13  1  0  0  0  0
  9 22  1  6  0  0  0
 10 14  1  0  0  0  0
 10 23  1  0  0  0  0
 10 24  1  0  0  0  0
 11 12  1  0  0  0  0
 11 25  1  0  0  0  0
 11 26  1  0  0  0  0
 12 27  1  0  0  0  0
 12 28  1  0  0  0  0
M  END
>  <DRUGBANK_ID>
DB04489

>  <SECONDARY_ACCESSION_NUMBERS>
EXPT01581

>  <COMMON_NAME>
Guanidinoethylmercaptosuccinic acid

>  <CAS_NUMBER>
77482-44-1

>  <SYNONYMS>
GEMSA

$$$$
