794
 OpenBabel10282417072D

 30 31  0  0  0  0  0  0  0  0999 V2000
    1.6500   -0.2467    0.0000 O   0  0  0  0  0  0  0  0  0  0  0  0
    4.5080   -0.2467    0.0000 O   0  0  0  0  0  0  0  0  0  0  0  0
    2.3645   -1.4842    0.0000 N   0  0  0  0  0  0  0  0  0  0  0  0
    3.7935   -1.4842    0.0000 N   0  0  0  0  0  0  0  0  0  0  0  0
    3.0791   -0.2467    0.0000 C   0  0  0  0  0  0  0  0  0  0  0  0
    2.6665    0.4678    0.0000 C   0  0  0  0  0  0  0  0  0  0  0  0
    3.4916    0.4678    0.0000 C   0  0  0  0  0  0  0  0  0  0  0  0
    2.3645   -0.6592    0.0000 C   0  0  0  0  0  0  0  0  0  0  0  0
    3.7935   -0.6592    0.0000 C   0  0  0  0  0  0  0  0  0  0  0  0
    3.0791   -1.8967    0.0000 C   0  0  0  0  0  0  0  0  0  0  0  0
    1.8415    0.4678    0.0000 C   0  0  0  0  0  0  0  0  0  0  0  0
    3.0791    1.1823    0.0000 C   0  0  0  0  0  0  0  0  0  0  0  0
    4.3166    0.4678    0.0000 C   0  0  0  0  0  0  0  0  0  0  0  0
    3.4916    1.8967    0.0000 C   0  0  0  0  0  0  0  0  0  0  0  0
    4.7291    1.1823    0.0000 C   0  0  0  0  0  0  0  0  0  0  0  0
    4.3166    1.8967    0.0000 C   0  0  0  0  0  0  0  0  0  0  0  0
    1.5119   -1.9765    0.0000 H   0  0  0  0  0  0  0  0  0  0  0  0
    4.6461   -1.9764    0.0000 H   0  0  0  0  0  0  0  0  0  0  0  0
    3.2015    1.3945    0.0000 H   0  0  0  0  0  0  0  0  0  0  0  0
    2.1315    1.3944    0.0000 H   0  0  0  0  0  0  0  0  0  0  0  0
    3.0792   -2.9667    0.0000 H   0  0  0  0  0  0  0  0  0  0  0  0
    4.0058   -2.4317    0.0000 H   0  0  0  0  0  0  0  0  0  0  0  0
    1.3065    1.3944    0.0000 H   0  0  0  0  0  0  0  0  0  0  0  0
    1.3065   -0.4588    0.0000 H   0  0  0  0  0  0  0  0  0  0  0  0
    0.7715    0.4678    0.0000 H   0  0  0  0  0  0  0  0  0  0  0  0
    2.0471    1.1823    0.0000 H   0  0  0  0  0  0  0  0  0  0  0  0
    4.8326   -0.4259    0.0000 H   0  0  0  0  0  0  0  0  0  0  0  0
    2.9756    2.7904    0.0000 H   0  0  0  0  0  0  0  0  0  0  0  0
    5.7611    1.1823    0.0000 H   0  0  0  0  0  0  0  0  0  0  0  0
    4.8326    2.7904    0.0000 H   0  0  0  0  0  0  0  0  0  0  0  0
  1  8  2  0  0  0  0
  2  9  2  0  0  0  0
  3  8  1  0  0  0  0
  3 10  1  0  0  0  0
  3 17  1  0  0  0  0
  4  9  1  0  0  0  0
  4 10  1  0  0  0  0
  4 18  1  0  0  0  0
  5  6  1  0  0  0  0
  5  7  1  0  0  0  0
  5  8  1  0  0  0  0
  5  9  1  0  0  0  0
  6 11  1  0  0  0  0
  6 19  1  0  0  0  0
  6 20  1  0  0  0  0
  7 12  2  0  0  0  0
  7 13  1  0  0  0  0
 10 21  1  0  0  0  0
 10 22  1  0  0  0  0
 11 23  1  0  0  0  0
 11 24  1  0  0  0  0
 11 25  1  0  0  0  0
 12 14  1  0  0  0  0
 12 26  1  0  0  0  0
 13 15  2  0  0  0  0
 13 27  1  0  0  0  0
 14 16  2  0  0  0  0
 14 28  1  0  0  0  0
 15 16  1  0  0  0  0
 15 29  1  0  0  0  0
 16 30  1  0  0  0  0
M  END
>  <DRUGBANK_ID>
DB00794

>  <SECONDARY_ACCESSION_NUMBERS>
APRD00549

>  <COMMON_NAME>
Primidone

>  <CAS_NUMBER>
125-33-7

>  <UNII>
13AFD7670Q

>  <SYNONYMS>
2-deoxyphenobarbital; 5-Phenyl-5-ethyl-Hexahydropyrimidine-4,6-dione; Primidon; Primidona; Primidone; Primidonum

$$$$
