
 OpenBabel10282417072D

 64 63  0  0  0  0  0  0  0  0999 V2000
    1.4289    0.2062    0.0000 C   0  0  0  0  0  0  0  0  0  0  0  0
    2.1433   -0.2062    0.0000 C   0  0  0  0  0  0  0  0  0  0  0  0
    2.8580    0.2062    0.0000 C   0  0  0  0  0  0  0  0  0  0  0  0
    3.5724   -0.2062    0.0000 C   0  0  0  0  0  0  0  0  0  0  0  0
    4.2869    0.2062    0.0000 C   0  0  0  0  0  0  0  0  0  0  0  0
    5.0014   -0.2062    0.0000 C   0  0  0  0  0  0  0  0  0  0  0  0
    5.7161    0.2062    0.0000 C   0  0  0  0  0  0  0  0  0  0  0  0
    1.4289    1.0312    0.0000 O   0  0  0  0  0  0  0  0  0  0  0  0
    0.7143   -0.2062    0.0000 N   0  0  0  0  0  0  0  0  0  0  0  0
    0.0000    0.2062    0.0000 C   0  0  3  0  0  0  0  0  0  0  0  0
   -0.7143   -0.2062    0.0000 C   0  0  0  0  0  0  0  0  0  0  0  0
   -0.7143   -1.0312    0.0000 O   0  0  0  0  0  0  0  0  0  0  0  0
    0.0000    1.0312    0.0000 O   0  0  0  0  0  0  0  0  0  0  0  0
   -1.4288    0.2062    0.0000 N   0  0  0  0  0  0  0  0  0  0  0  0
   -2.1433   -0.2062    0.0000 C   0  0  0  0  0  0  0  0  0  0  0  0
   -2.8580    0.2062    0.0000 C   0  0  0  0  0  0  0  0  0  0  0  0
   -3.5724   -0.2062    0.0000 C   0  0  0  0  0  0  0  0  0  0  0  0
   -4.2869    0.2062    0.0000 C   0  0  0  0  0  0  0  0  0  0  0  0
   -5.0014   -0.2062    0.0000 N   0  0  0  0  0  0  0  0  0  0  0  0
   -5.7160    0.2062    0.0000 C   0  0  0  0  0  0  0  0  0  0  0  0
   -6.4305   -0.2062    0.0000 C   0  0  0  0  0  0  0  0  0  0  0  0
   -7.1451    0.2062    0.0000 C   0  0  0  0  0  0  0  0  0  0  0  0
   -7.8596   -0.2062    0.0000 N   0  0  0  0  0  0  0  0  0  0  0  0
    6.4306   -0.2062    0.0000 N   0  0  0  0  0  0  0  0  0  0  0  0
    7.1451    0.2062    0.0000 C   0  0  0  0  0  0  0  0  0  0  0  0
    7.1451    1.0312    0.0000 N   0  0  0  0  0  0  0  0  0  0  0  0
    7.8596   -0.2062    0.0000 N   0  0  0  0  0  0  0  0  0  0  0  0
    2.1432   -1.2762    0.0000 H   0  0  0  0  0  0  0  0  0  0  0  0
    3.0699   -0.7414    0.0000 H   0  0  0  0  0  0  0  0  0  0  0  0
    2.8581    1.2762    0.0000 H   0  0  0  0  0  0  0  0  0  0  0  0
    3.7847    0.7412    0.0000 H   0  0  0  0  0  0  0  0  0  0  0  0
    3.5724   -1.2762    0.0000 H   0  0  0  0  0  0  0  0  0  0  0  0
    4.4990   -0.7413    0.0000 H   0  0  0  0  0  0  0  0  0  0  0  0
    4.2869    1.2762    0.0000 H   0  0  0  0  0  0  0  0  0  0  0  0
    5.2135    0.7413    0.0000 H   0  0  0  0  0  0  0  0  0  0  0  0
    5.0013   -1.2762    0.0000 H   0  0  0  0  0  0  0  0  0  0  0  0
    5.9280   -0.7413    0.0000 H   0  0  0  0  0  0  0  0  0  0  0  0
    5.7162    1.2762    0.0000 H   0  0  0  0  0  0  0  0  0  0  0  0
    6.6427    0.7412    0.0000 H   0  0  0  0  0  0  0  0  0  0  0  0
    0.7142   -1.1907    0.0000 H   0  0  0  0  0  0  0  0  0  0  0  0
   -0.9266    0.7412    0.0000 H   0  0  0  0  0  0  0  0  0  0  0  0
    0.8400    1.5162    0.0000 H   0  0  0  0  0  0  0  0  0  0  0  0
   -1.4288    1.1907    0.0000 H   0  0  0  0  0  0  0  0  0  0  0  0
   -2.1432   -1.2762    0.0000 H   0  0  0  0  0  0  0  0  0  0  0  0
   -1.2167   -0.7412    0.0000 H   0  0  0  0  0  0  0  0  0  0  0  0
   -2.8581    1.2762    0.0000 H   0  0  0  0  0  0  0  0  0  0  0  0
   -3.7847    0.7412    0.0000 H   0  0  0  0  0  0  0  0  0  0  0  0
   -3.5724   -1.2762    0.0000 H   0  0  0  0  0  0  0  0  0  0  0  0
   -4.4990   -0.7413    0.0000 H   0  0  0  0  0  0  0  0  0  0  0  0
   -4.2869    1.2762    0.0000 H   0  0  0  0  0  0  0  0  0  0  0  0
   -5.2135    0.7413    0.0000 H   0  0  0  0  0  0  0  0  0  0  0  0
   -5.0014   -1.2262    0.0000 H   0  0  0  0  0  0  0  0  0  0  0  0
   -5.7160    1.2762    0.0000 H   0  0  0  0  0  0  0  0  0  0  0  0
   -4.7894    0.7413    0.0000 H   0  0  0  0  0  0  0  0  0  0  0  0
   -6.4305   -1.2762    0.0000 H   0  0  0  0  0  0  0  0  0  0  0  0
   -7.3571   -0.7413    0.0000 H   0  0  0  0  0  0  0  0  0  0  0  0
   -7.1451    1.2762    0.0000 H   0  0  0  0  0  0  0  0  0  0  0  0
   -8.0717    0.7412    0.0000 H   0  0  0  0  0  0  0  0  0  0  0  0
   -8.7429    0.3039    0.0000 H   0  0  0  0  0  0  0  0  0  0  0  0
   -7.8597   -1.2262    0.0000 H   0  0  0  0  0  0  0  0  0  0  0  0
    6.4306   -1.1907    0.0000 H   0  0  0  0  0  0  0  0  0  0  0  0
    7.9977    1.5234    0.0000 H   0  0  0  0  0  0  0  0  0  0  0  0
    7.8597   -1.1907    0.0000 H   0  0  0  0  0  0  0  0  0  0  0  0
    8.7121    0.2862    0.0000 H   0  0  0  0  0  0  0  0  0  0  0  0
  1  2  1  0  0  0  0
  1  8  2  0  0  0  0
  1  9  1  0  0  0  0
  2  3  1  0  0  0  0
  2 28  1  0  0  0  0
  2 29  1  0  0  0  0
  3  4  1  0  0  0  0
  3 30  1  0  0  0  0
  3 31  1  0  0  0  0
  4  5  1  0  0  0  0
  4 32  1  0  0  0  0
  4 33  1  0  0  0  0
  5  6  1  0  0  0  0
  5 34  1  0  0  0  0
  5 35  1  0  0  0  0
  6  7  1  0  0  0  0
  6 36  1  0  0  0  0
  6 37  1  0  0  0  0
  7 24  1  0  0  0  0
  7 38  1  0  0  0  0
  7 39  1  0  0  0  0
  9 10  1  0  0  0  0
  9 40  1  0  0  0  0
 10 11  1  0  0  0  0
 10 13  1  0  0  0  0
 10 41  1  0  0  0  0
 11 12  2  0  0  0  0
 11 14  1  0  0  0  0
 13 42  1  0  0  0  0
 14 15  1  0  0  0  0
 14 43  1  0  0  0  0
 15 16  1  0  0  0  0
 15 44  1  0  0  0  0
 15 45  1  0  0  0  0
 16 17  1  0  0  0  0
 16 46  1  0  0  0  0
 16 47  1  0  0  0  0
 17 18  1  0  0  0  0
 17 48  1  0  0  0  0
 17 49  1  0  0  0  0
 18 19  1  0  0  0  0
 18 50  1  0  0  0  0
 18 51  1  0  0  0  0
 19 20  1  0  0  0  0
 19 52  1  0  0  0  0
 20 21  1  0  0  0  0
 20 53  1  0  0  0  0
 20 54  1  0  0  0  0
 21 22  1  0  0  0  0
 21 55  1  0  0  0  0
 21 56  1  0  0  0  0
 22 23  1  0  0  0  0
 22 57  1  0  0  0  0
 22 58  1  0  0  0  0
 23 59  1  0  0  0  0
 23 60  1  0  0  0  0
 24 25  1  0  0  0  0
 24 61  1  0  0  0  0
 25 26  2  0  0  0  0
 25 27  1  0  0  0  0
 26 62  1  0  0  0  0
 27 63  1  0  0  0  0
 27 64  1  0  0  0  0
M  END
>  <DRUGBANK_ID>
DB12692

>  <COMMON_NAME>
Gusperimus

>  <CAS_NUMBER>
98629-43-7

>  <UNII>
UJ0ZJ76DO9

>  <SYNONYMS>
Gusperimus

$$$$
