4021
 OpenBabel10282417072D

 23 24  0  0  0  0  0  0  0  0999 V2000
    4.5550    0.4885    0.0000 O   0  0  0  0  0  0  0  0  0  0  0  0
    3.1029    0.2586    0.0000 N   0  0  0  0  0  0  0  0  0  0  0  0
    2.4355    0.7436    0.0000 N   0  0  0  0  0  0  0  0  0  0  0  0
    3.5155    1.5281    0.0000 C   0  0  0  0  0  0  0  0  0  0  0  0
    2.6904    1.5281    0.0000 C   0  0  0  0  0  0  0  0  0  0  0  0
    3.7704    0.7436    0.0000 C   0  0  0  0  0  0  0  0  0  0  0  0
    3.1029   -0.5662    0.0000 C   0  0  0  0  0  0  0  0  0  0  0  0
    2.2055    2.1956    0.0000 C   0  0  0  0  0  0  0  0  0  0  0  0
    2.3885   -0.9788    0.0000 C   0  0  0  0  0  0  0  0  0  0  0  0
    3.8174   -0.9788    0.0000 C   0  0  0  0  0  0  0  0  0  0  0  0
    2.3885   -1.8038    0.0000 C   0  0  0  0  0  0  0  0  0  0  0  0
    3.8174   -1.8038    0.0000 C   0  0  0  0  0  0  0  0  0  0  0  0
    3.1029   -2.2163    0.0000 C   0  0  0  0  0  0  0  0  0  0  0  0
    4.1444    2.3937    0.0000 H   0  0  0  0  0  0  0  0  0  0  0  0
    4.5723    1.3607    0.0000 H   0  0  0  0  0  0  0  0  0  0  0  0
    2.6408    3.1731    0.0000 H   0  0  0  0  0  0  0  0  0  0  0  0
    1.1414    2.0838    0.0000 H   0  0  0  0  0  0  0  0  0  0  0  0
    1.5766    3.0613    0.0000 H   0  0  0  0  0  0  0  0  0  0  0  0
    1.4947   -0.4629    0.0000 H   0  0  0  0  0  0  0  0  0  0  0  0
    4.7112   -0.4628    0.0000 H   0  0  0  0  0  0  0  0  0  0  0  0
    1.4948   -2.3198    0.0000 H   0  0  0  0  0  0  0  0  0  0  0  0
    4.7111   -2.3198    0.0000 H   0  0  0  0  0  0  0  0  0  0  0  0
    3.1029   -3.2483    0.0000 H   0  0  0  0  0  0  0  0  0  0  0  0
  1  6  2  0  0  0  0
  2  3  1  0  0  0  0
  2  6  1  0  0  0  0
  2  7  1  0  0  0  0
  3  5  2  0  0  0  0
  4  5  1  0  0  0  0
  4  6  1  0  0  0  0
  4 14  1  0  0  0  0
  4 15  1  0  0  0  0
  5  8  1  0  0  0  0
  7  9  2  0  0  0  0
  7 10  1  0  0  0  0
  8 16  1  0  0  0  0
  8 17  1  0  0  0  0
  8 18  1  0  0  0  0
  9 11  1  0  0  0  0
  9 19  1  0  0  0  0
 10 12  2  0  0  0  0
 10 20  1  0  0  0  0
 11 13  2  0  0  0  0
 11 21  1  0  0  0  0
 12 13  1  0  0  0  0
 12 22  1  0  0  0  0
 13 23  1  0  0  0  0
M  END
>  <DRUGBANK_ID>
DB12243

>  <COMMON_NAME>
Edaravone

>  <CAS_NUMBER>
89-25-8

>  <UNII>
S798V6YJRP

>  <SYNONYMS>
1-phenyl-3-methyl-5-oxo-2-pyrazoline; 2,4-dihydro-5-methyl-2-phenyl-3H-pyrazol-3-one; 3-methyl-1-phenyl-2-pyrazolin-5-one; 3-methyl-1-phenyl-5-pyrazolone; 3-methyl-1-phenylpyrazol-5-one; Edaravone; Methylphenylpyrazolone; Norphenazone; Phenyl methyl pyrazolone; Phenylmethylpyrazolone

$$$$
