
 OpenBabel10282417072D

 35 35  0  0  0  0  0  0  0  0999 V2000
    5.3592   -2.1560    0.0000 C   0  0  0  0  0  0  0  0  0  0  0  0
    6.2057    0.1697    0.0000 C   0  0  0  0  0  0  0  0  0  0  0  0
    3.5842    1.1705    0.0000 C   0  0  0  0  0  0  0  0  0  0  0  0
    5.0131    1.1705    0.0000 C   0  0  0  0  0  0  0  0  0  0  0  0
    5.6414   -1.3808    0.0000 C   0  0  0  0  0  0  0  0  0  0  0  0
    5.3933    0.0265    0.0000 C   0  0  0  0  0  0  0  0  0  0  0  0
    3.5842    0.3455    0.0000 C   0  0  0  0  0  0  0  0  0  0  0  0
    5.0131    0.3455    0.0000 C   0  0  0  0  0  0  0  0  0  0  0  0
    4.5468   -2.2993    0.0000 C   0  0  0  0  0  0  0  0  0  0  0  0
    6.4879    0.9450    0.0000 Cl  0  0  0  0  0  0  0  0  0  0  0  0
    2.8697    1.5830    0.0000 Cl  0  0  0  0  0  0  0  0  0  0  0  0
    5.7276    1.5830    0.0000 Cl  0  0  0  0  0  0  0  0  0  0  0  0
    5.1111   -0.7488    0.0000 N   0  0  0  0  0  0  0  0  0  0  0  0
    4.2986   -0.0670    0.0000 N   0  0  0  0  0  0  0  0  0  0  0  0
    3.4862   -0.7488    0.0000 O   0  0  0  0  0  0  0  0  0  0  0  0
    4.0165   -1.6673    0.0000 O   0  0  0  0  0  0  0  0  0  0  0  0
    4.2986   -0.8920    0.0000 P   0  0  3  0  0  0  0  0  0  0  0  0
    6.0470   -2.9757    0.0000 H   0  0  0  0  0  0  0  0  0  0  0  0
    4.9933   -3.1615    0.0000 H   0  0  0  0  0  0  0  0  0  0  0  0
    6.8935   -0.6500    0.0000 H   0  0  0  0  0  0  0  0  0  0  0  0
    7.2594    0.3555    0.0000 H   0  0  0  0  0  0  0  0  0  0  0  0
    4.5108    1.7055    0.0000 H   0  0  0  0  0  0  0  0  0  0  0  0
    3.5842    2.2405    0.0000 H   0  0  0  0  0  0  0  0  0  0  0  0
    4.0865    1.7055    0.0000 H   0  0  0  0  0  0  0  0  0  0  0  0
    5.0131    2.2405    0.0000 H   0  0  0  0  0  0  0  0  0  0  0  0
    6.6952   -1.1950    0.0000 H   0  0  0  0  0  0  0  0  0  0  0  0
    6.0074   -0.3753    0.0000 H   0  0  0  0  0  0  0  0  0  0  0  0
    4.7055    0.8462    0.0000 H   0  0  0  0  0  0  0  0  0  0  0  0
    4.3396   -0.1593    0.0000 H   0  0  0  0  0  0  0  0  0  0  0  0
    2.6575   -0.1895    0.0000 H   0  0  0  0  0  0  0  0  0  0  0  0
    3.5842   -0.7245    0.0000 H   0  0  0  0  0  0  0  0  0  0  0  0
    5.9397   -0.1895    0.0000 H   0  0  0  0  0  0  0  0  0  0  0  0
    5.0131   -0.7245    0.0000 H   0  0  0  0  0  0  0  0  0  0  0  0
    4.1809   -3.3048    0.0000 H   0  0  0  0  0  0  0  0  0  0  0  0
    3.4931   -2.4851    0.0000 H   0  0  0  0  0  0  0  0  0  0  0  0
  1 18  1  0  0  0  0
  1 19  1  0  0  0  0
  2 20  1  0  0  0  0
  2 21  1  0  0  0  0
  3 22  1  0  0  0  0
  3 23  1  0  0  0  0
  4 24  1  0  0  0  0
  4 25  1  0  0  0  0
  5  1  1  0  0  0  0
  5 26  1  0  0  0  0
  5 27  1  0  0  0  0
  6  2  1  0  0  0  0
  6 28  1  0  0  0  0
  6 29  1  0  0  0  0
  7  3  1  0  0  0  0
  7 30  1  0  0  0  0
  7 31  1  0  0  0  0
  8  4  1  0  0  0  0
  8 32  1  0  0  0  0
  8 33  1  0  0  0  0
  9  1  1  0  0  0  0
  9 34  1  0  0  0  0
  9 35  1  0  0  0  0
 10  2  1  0  0  0  0
 11  3  1  0  0  0  0
 12  4  1  0  0  0  0
 13  5  1  0  0  0  0
 13  6  1  0  0  0  0
 14  7  1  0  0  0  0
 14  8  1  0  0  0  0
 16  9  1  0  0  0  0
 17 13  1  0  0  0  0
 17 14  1  0  0  0  0
 17 15  2  0  0  0  0
 17 16  1  0  0  0  0
M  END
>  <DRUGBANK_ID>
DB12902

>  <COMMON_NAME>
Trofosfamide

>  <CAS_NUMBER>
22089-22-1

>  <UNII>
H64JRU6GJ0

>  <SYNONYMS>
Trofosfamide

$$$$
