
 OpenBabel10282417072D

 38 40  0  0  1  0  0  0  0  0999 V2000
    4.3767    1.7403    0.0000 C   0  0  0  0  0  0  0  0  0  0  0  0
    4.2296    2.5521    0.0000 C   0  0  0  0  0  0  0  0  0  0  0  0
    4.9561    2.9429    0.0000 C   0  0  0  0  0  0  0  0  0  0  0  0
    5.5523    2.3727    0.0000 C   0  0  0  0  0  0  0  0  0  0  0  0
    5.6995    1.5609    0.0000 C   0  0  0  0  0  0  0  0  0  0  0  0
    5.3414    0.8177    0.0000 C   0  0  2  0  0  0  0  0  0  0  0  0
    4.6149    0.4268    0.0000 C   0  0  1  0  0  0  0  0  0  0  0  0
    5.3166   -0.0070    0.0000 O   0  0  0  0  0  0  0  0  0  0  0  0
    3.7974    0.5377    0.0000 C   0  0  2  0  0  0  0  0  0  0  0  0
    3.2012    1.1079    0.0000 C   0  0  1  0  0  0  0  0  0  0  0  0
    3.0540    1.9197    0.0000 C   0  0  0  0  0  0  0  0  0  0  0  0
    3.4121    2.6629    0.0000 C   0  0  0  0  0  0  0  0  0  0  0  0
    2.4746    0.7171    0.0000 C   0  0  0  0  0  0  0  0  0  0  0  0
    1.7314    1.0752    0.0000 C   0  0  0  0  0  0  0  0  0  0  0  0
    2.6218   -0.0947    0.0000 C   0  0  0  0  0  0  0  0  0  0  0  0
    2.0516   -0.6909    0.0000 O   0  0  0  0  0  0  0  0  0  0  0  0
    3.4393   -0.2055    0.0000 O   0  0  0  0  0  0  0  0  0  0  0  0
    6.1429    0.6219    0.0000 C   0  0  0  0  0  0  0  0  0  0  0  0
    3.5603    1.0487    0.0000 H   0  0  0  0  0  0  0  0  0  0  0  0
    5.3839    1.3791    0.0000 H   0  0  0  0  0  0  0  0  0  0  0  0
    4.5675    0.6874    0.0000 H   0  0  0  0  0  0  0  0  0  0  0  0
    5.0948    3.9655    0.0000 H   0  0  0  0  0  0  0  0  0  0  0  0
    6.4946    2.8796    0.0000 H   0  0  0  0  0  0  0  0  0  0  0  0
    6.5163    1.9083    0.0000 H   0  0  0  0  0  0  0  0  0  0  0  0
    6.7598    1.4171    0.0000 H   0  0  0  0  0  0  0  0  0  0  0  0
    6.2064    0.6186    0.0000 H   0  0  0  0  0  0  0  0  0  0  0  0
    5.6844    0.3947    0.0000 H   0  0  0  0  0  0  0  0  0  0  0  0
    4.3042   -0.4046    0.0000 H   0  0  0  0  0  0  0  0  0  0  0  0
    3.0574    0.0476    0.0000 H   0  0  0  0  0  0  0  0  0  0  0  0
    1.9937    2.0635    0.0000 H   0  0  0  0  0  0  0  0  0  0  0  0
    2.5471    2.8620    0.0000 H   0  0  0  0  0  0  0  0  0  0  0  0
    2.9052    3.6052    0.0000 H   0  0  0  0  0  0  0  0  0  0  0  0
    4.0215    3.5424    0.0000 H   0  0  0  0  0  0  0  0  0  0  0  0
    1.6545    2.1043    0.0000 H   0  0  0  0  0  0  0  0  0  0  0  0
    0.8786    0.4940    0.0000 H   0  0  0  0  0  0  0  0  0  0  0  0
    6.4427   -0.4052    0.0000 H   0  0  0  0  0  0  0  0  0  0  0  0
    6.8825    1.3951    0.0000 H   0  0  0  0  0  0  0  0  0  0  0  0
    7.1823    0.3680    0.0000 H   0  0  0  0  0  0  0  0  0  0  0  0
  1  2  1  0  0  0  0
  1 19  1  0  0  0  0
  1 20  1  0  0  0  0
  1 21  1  0  0  0  0
  2  3  2  0  0  0  0
  2 12  1  0  0  0  0
  3  4  1  0  0  0  0
  3 22  1  0  0  0  0
  4  5  1  0  0  0  0
  4 23  1  0  0  0  0
  4 24  1  0  0  0  0
  5  6  1  0  0  0  0
  5 25  1  0  0  0  0
  5 26  1  0  0  0  0
  6  7  1  0  0  0  0
  6  8  1  0  0  0  0
  6 18  1  6  0  0  0
  7  8  1  0  0  0  0
  7  9  1  0  0  0  0
  7 27  1  6  0  0  0
  9 10  1  0  0  0  0
  9 17  1  0  0  0  0
  9 28  1  6  0  0  0
 10 11  1  0  0  0  0
 10 13  1  0  0  0  0
 10 29  1  1  0  0  0
 11 12  1  0  0  0  0
 11 30  1  0  0  0  0
 11 31  1  0  0  0  0
 12 32  1  0  0  0  0
 12 33  1  0  0  0  0
 13 14  2  0  0  0  0
 13 15  1  0  0  0  0
 14 34  1  0  0  0  0
 14 35  1  0  0  0  0
 15 16  2  0  0  0  0
 15 17  1  0  0  0  0
 18 36  1  0  0  0  0
 18 37  1  0  0  0  0
 18 38  1  0  0  0  0
M  END
>  <DRUGBANK_ID>
DB13063

>  <COMMON_NAME>
Parthenolide

>  <CAS_NUMBER>
20554-84-1

>  <UNII>
2RDB26I5ZB

$$$$
