
 OpenBabel10282417072D

 32 32  0  0  0  0  0  0  0  0999 V2000
    0.0000    4.9500    0.0000 C   0  0  0  0  0  0  0  0  0  0  0  0
    1.2375    4.0145    0.0000 C   0  0  0  0  0  0  0  0  0  0  0  0
   -0.8250    3.3000    0.0000 C   0  0  0  0  0  0  0  0  0  0  0  0
    0.0000    4.1250    0.0000 C   0  0  0  0  0  0  0  0  0  0  0  0
    0.8250    3.3000    0.0000 C   0  0  0  0  0  0  0  0  0  0  0  0
    0.7145   -0.4125    0.0000 C   0  0  0  0  0  0  0  0  0  0  0  0
    1.4289    0.0000    0.0000 C   0  0  0  0  0  0  0  0  0  0  0  0
   -0.0000    0.0000    0.0000 C   0  0  0  0  0  0  0  0  0  0  0  0
    1.4289    0.8250    0.0000 C   0  0  0  0  0  0  0  0  0  0  0  0
    0.0000    0.8250    0.0000 C   0  0  0  0  0  0  0  0  0  0  0  0
    0.7145    1.2375    0.0000 C   0  0  0  0  0  0  0  0  0  0  0  0
   -0.7145    1.2375    0.0000 C   0  0  0  0  0  0  0  0  0  0  0  0
    0.7145    2.0625    0.0000 C   0  0  0  0  0  0  0  0  0  0  0  0
    0.0000    3.3000    0.0000 C   0  0  3  0  0  0  0  0  0  0  0  0
   -0.7145    2.0625    0.0000 O   0  0  0  0  0  0  0  0  0  0  0  0
   -1.4289    0.8250    0.0000 O   0  0  0  0  0  0  0  0  0  0  0  0
    1.4289    2.4750    0.0000 O   0  0  0  0  0  0  0  0  0  0  0  0
    0.0000    2.4750    0.0000 O   0  0  0  0  0  0  0  0  0  0  0  0
    0.0000    5.9440    0.0000 H   0  0  0  0  0  0  0  0  0  0  0  0
    2.3075    4.0145    0.0000 H   0  0  0  0  0  0  0  0  0  0  0  0
    0.7025    4.9411    0.0000 H   0  0  0  0  0  0  0  0  0  0  0  0
    1.7725    4.9412    0.0000 H   0  0  0  0  0  0  0  0  0  0  0  0
   -1.3600    4.2266    0.0000 H   0  0  0  0  0  0  0  0  0  0  0  0
   -1.3600    2.3734    0.0000 H   0  0  0  0  0  0  0  0  0  0  0  0
   -1.8950    3.3000    0.0000 H   0  0  0  0  0  0  0  0  0  0  0  0
    1.3600    2.3734    0.0000 H   0  0  0  0  0  0  0  0  0  0  0  0
    0.2900    2.3734    0.0000 H   0  0  0  0  0  0  0  0  0  0  0  0
    0.7145   -1.4445    0.0000 H   0  0  0  0  0  0  0  0  0  0  0  0
    2.3226   -0.5160    0.0000 H   0  0  0  0  0  0  0  0  0  0  0  0
   -0.8937   -0.5160    0.0000 H   0  0  0  0  0  0  0  0  0  0  0  0
    2.3226    1.3410    0.0000 H   0  0  0  0  0  0  0  0  0  0  0  0
   -2.2404    1.2935    0.0000 H   0  0  0  0  0  0  0  0  0  0  0  0
  1 19  1  0  0  0  0
  2 20  1  0  0  0  0
  2 21  1  0  0  0  0
  2 22  1  0  0  0  0
  3 23  1  0  0  0  0
  3 24  1  0  0  0  0
  3 25  1  0  0  0  0
  4  1  3  0  0  0  0
  5  2  1  0  0  0  0
  5 26  1  0  0  0  0
  5 27  1  0  0  0  0
  6 28  1  0  0  0  0
  7  6  2  0  0  0  0
  7 29  1  0  0  0  0
  8  6  1  0  0  0  0
  8 30  1  0  0  0  0
  9  7  1  0  0  0  0
  9 31  1  0  0  0  0
 10  8  2  0  0  0  0
 11  9  2  0  0  0  0
 11 10  1  0  0  0  0
 12 10  1  0  0  0  0
 13 11  1  0  0  0  0
 14  3  1  0  0  0  0
 14  4  1  0  0  0  0
 14  5  1  0  0  0  0
 15 12  2  0  0  0  0
 16 12  1  0  0  0  0
 16 32  1  0  0  0  0
 17 13  2  0  0  0  0
 18 13  1  0  0  0  0
 18 14  1  0  0  0  0
M  END
>  <DRUGBANK_ID>
DB11449

>  <COMMON_NAME>
Phthalofyne

>  <CAS_NUMBER>
131-67-9

>  <UNII>
TA9XO4D05J

>  <SYNONYMS>
Ftalofino; Ftalofyne; Ftalofynum; Phthalofyne

$$$$
