
 OpenBabel10282417072D

 42 45  0  0  0  0  0  0  0  0999 V2000
    2.5399    2.5934    0.0000 C   0  0  0  0  0  0  0  0  0  0  0  0
    2.7948    1.8088    0.0000 C   0  0  0  0  0  0  0  0  0  0  0  0
    2.2428    1.1957    0.0000 C   0  0  0  0  0  0  0  0  0  0  0  0
    1.4358    1.3672    0.0000 C   0  0  0  0  0  0  0  0  0  0  0  0
    1.1809    2.1518    0.0000 C   0  0  0  0  0  0  0  0  0  0  0  0
    1.7329    2.7649    0.0000 C   0  0  0  0  0  0  0  0  0  0  0  0
    0.8838    0.7541    0.0000 C   0  0  0  0  0  0  0  0  0  0  0  0
    1.1387   -0.0305    0.0000 N   0  0  0  0  0  0  0  0  0  0  0  0
    1.9233   -0.2854    0.0000 C   0  0  0  0  0  0  0  0  0  0  0  0
    2.6378    0.1271    0.0000 C   0  0  0  0  0  0  0  0  0  0  0  0
    3.3523   -0.2854    0.0000 C   0  0  0  0  0  0  0  0  0  0  0  0
    3.3523   -1.1104    0.0000 C   0  0  0  0  0  0  0  0  0  0  0  0
    2.6378   -1.5229    0.0000 C   0  0  0  0  0  0  0  0  0  0  0  0
    1.9233   -1.1104    0.0000 C   0  0  0  0  0  0  0  0  0  0  0  0
    1.1387   -1.3654    0.0000 N   0  0  0  0  0  0  0  0  0  0  0  0
    0.6538   -0.6979    0.0000 C   0  0  0  0  0  0  0  0  0  0  0  0
   -0.1712   -0.6979    0.0000 N   0  0  0  0  0  0  0  0  0  0  0  0
   -0.5837   -1.4124    0.0000 C   0  0  0  0  0  0  0  0  0  0  0  0
   -1.4087   -1.4124    0.0000 C   0  0  0  0  0  0  0  0  0  0  0  0
   -1.8212   -0.6979    0.0000 N   0  0  0  0  0  0  0  0  0  0  0  0
   -1.4087    0.0165    0.0000 C   0  0  0  0  0  0  0  0  0  0  0  0
   -0.5837    0.0165    0.0000 C   0  0  0  0  0  0  0  0  0  0  0  0
    3.2304    3.3603    0.0000 H   0  0  0  0  0  0  0  0  0  0  0  0
    3.8042    1.5942    0.0000 H   0  0  0  0  0  0  0  0  0  0  0  0
    2.5617    0.2142    0.0000 H   0  0  0  0  0  0  0  0  0  0  0  0
    0.1715    2.3664    0.0000 H   0  0  0  0  0  0  0  0  0  0  0  0
    1.4140    3.7464    0.0000 H   0  0  0  0  0  0  0  0  0  0  0  0
   -0.1628    0.9766    0.0000 H   0  0  0  0  0  0  0  0  0  0  0  0
    0.1678   -0.0411    0.0000 H   0  0  0  0  0  0  0  0  0  0  0  0
    2.6378    1.1591    0.0000 H   0  0  0  0  0  0  0  0  0  0  0  0
    4.2460    0.2306    0.0000 H   0  0  0  0  0  0  0  0  0  0  0  0
    4.2460   -1.6264    0.0000 H   0  0  0  0  0  0  0  0  0  0  0  0
    2.6378   -2.5549    0.0000 H   0  0  0  0  0  0  0  0  0  0  0  0
   -0.0487   -2.3390    0.0000 H   0  0  0  0  0  0  0  0  0  0  0  0
   -1.1187   -2.3390    0.0000 H   0  0  0  0  0  0  0  0  0  0  0  0
   -1.9437   -2.3390    0.0000 H   0  0  0  0  0  0  0  0  0  0  0  0
   -2.4787   -1.4124    0.0000 H   0  0  0  0  0  0  0  0  0  0  0  0
   -2.8412   -0.6979    0.0000 H   0  0  0  0  0  0  0  0  0  0  0  0
   -1.9437    0.9432    0.0000 H   0  0  0  0  0  0  0  0  0  0  0  0
   -0.8737    0.9431    0.0000 H   0  0  0  0  0  0  0  0  0  0  0  0
   -0.0487    0.9432    0.0000 H   0  0  0  0  0  0  0  0  0  0  0  0
    0.4863    0.0165    0.0000 H   0  0  0  0  0  0  0  0  0  0  0  0
  1  2  2  0  0  0  0
  1  6  1  0  0  0  0
  1 23  1  0  0  0  0
  2  3  1  0  0  0  0
  2 24  1  0  0  0  0
  3  4  2  0  0  0  0
  3 25  1  0  0  0  0
  4  5  1  0  0  0  0
  4  7  1  0  0  0  0
  5  6  2  0  0  0  0
  5 26  1  0  0  0  0
  6 27  1  0  0  0  0
  7  8  1  0  0  0  0
  7 28  1  0  0  0  0
  7 29  1  0  0  0  0
  8  9  1  0  0  0  0
  8 16  1  0  0  0  0
  9 10  2  0  0  0  0
  9 14  1  0  0  0  0
 10 11  1  0  0  0  0
 10 30  1  0  0  0  0
 11 12  2  0  0  0  0
 11 31  1  0  0  0  0
 12 13  1  0  0  0  0
 12 32  1  0  0  0  0
 13 14  2  0  0  0  0
 13 33  1  0  0  0  0
 14 15  1  0  0  0  0
 15 16  2  0  0  0  0
 16 17  1  0  0  0  0
 17 18  1  0  0  0  0
 17 22  1  0  0  0  0
 18 19  1  0  0  0  0
 18 34  1  0  0  0  0
 18 35  1  0  0  0  0
 19 20  1  0  0  0  0
 19 36  1  0  0  0  0
 19 37  1  0  0  0  0
 20 21  1  0  0  0  0
 20 38  1  0  0  0  0
 21 22  1  0  0  0  0
 21 39  1  0  0  0  0
 21 40  1  0  0  0  0
 22 41  1  0  0  0  0
 22 42  1  0  0  0  0
M  END
>  <DRUGBANK_ID>
DB12964

>  <COMMON_NAME>
Lerisetron

>  <CAS_NUMBER>
143257-98-1

>  <UNII>
Q36R82SXRG

>  <SYNONYMS>
Lerisetron

$$$$
