
 OpenBabel10282417072D

122129  0  0  1  0  0  0  0  0999 V2000
    3.4312    5.5976    0.0000 C   0  0  0  0  0  0  0  0  0  0  0  0
    6.1191    4.6266    0.0000 C   0  0  0  0  0  0  0  0  0  0  0  0
    5.0555    5.8881    0.0000 C   0  0  0  0  0  0  0  0  0  0  0  0
    3.9055    0.6018    0.0000 C   0  0  0  0  0  0  0  0  0  0  0  0
    1.3895    0.1997    0.0000 C   0  0  0  0  0  0  0  0  0  0  0  0
    2.0873    6.0831    0.0000 C   0  0  0  0  0  0  0  0  0  0  0  0
    3.9343    2.7844    0.0000 C   0  0  0  0  0  0  0  0  0  0  0  0
    3.1221    2.6391    0.0000 C   0  0  0  0  0  0  0  0  0  0  0  0
    5.5297    0.8922    0.0000 C   0  0  0  0  0  0  0  0  0  0  0  0
    0.6955    1.7614    0.0000 C   0  0  0  0  0  0  0  0  0  0  0  0
    4.7176    0.7470    0.0000 C   0  0  0  0  0  0  0  0  0  0  0  0
    1.3784    2.2244    0.0000 C   0  0  0  0  0  0  0  0  0  0  0  0
    0.6478   -0.4749    0.0000 C   0  0  0  0  0  0  0  0  0  0  0  0
    5.2782    2.2989    0.0000 C   0  0  0  0  0  0  0  0  0  0  0  0
    3.0934    0.4566    0.0000 C   0  0  0  0  0  0  0  0  0  0  0  0
    4.2721    7.9254    0.0000 C   0  0  0  0  0  0  0  0  0  0  0  0
    7.7146    2.7345    0.0000 C   0  0  0  0  0  0  0  0  0  0  0  0
    7.4918    6.3237    0.0000 C   0  0  0  0  0  0  0  0  0  0  0  0
   -0.4061    0.3444    0.0000 C   0  0  0  0  0  0  0  0  0  0  0  0
    3.7115    6.3735    0.0000 C   0  0  2  0  0  0  0  0  0  0  0  0
    6.6509    3.9959    0.0000 C   0  0  2  0  0  0  0  0  0  0  0  0
    5.8676    6.0333    0.0000 C   0  0  2  0  0  0  0  0  0  0  0  0
    0.4185    0.3176    0.0000 C   0  0  0  0  0  0  0  0  0  0  0  0
    4.4661    2.1537    0.0000 C   0  0  2  0  0  0  0  0  0  0  0  0
    5.8100    1.6682    0.0000 C   0  0  1  0  0  0  0  0  0  0  0  0
    0.9249    0.9689    0.0000 C   0  0  2  0  0  0  0  0  0  0  0  0
    2.8418    1.8632    0.0000 C   0  0  2  0  0  0  0  0  0  0  0  0
    3.3737    1.2325    0.0000 C   0  0  1  0  0  0  0  0  0  0  0  0
    3.4600    7.7802    0.0000 C   0  0  1  0  0  0  0  0  0  0  0  0
    7.9949    3.5104    0.0000 C   0  0  1  0  0  0  0  0  0  0  0  0
    6.9600    6.9544    0.0000 C   0  0  1  0  0  0  0  0  0  0  0  0
    2.2812    0.3114    0.0000 C   0  0  2  0  0  0  0  0  0  0  0  0
   -0.0350   -0.9379    0.0000 C   0  0  0  0  0  0  0  0  0  0  0  0
    6.9024    2.5893    0.0000 C   0  0  1  0  0  0  0  0  0  0  0  0
    4.8039    7.2947    0.0000 C   0  0  1  0  0  0  0  0  0  0  0  0
    7.2115    5.5478    0.0000 C   0  0  1  0  0  0  0  0  0  0  0  0
    3.1797    7.0043    0.0000 C   0  0  2  0  0  0  0  0  0  0  0  0
    7.4630    4.1411    0.0000 C   0  0  2  0  0  0  0  0  0  0  0  0
    6.1479    6.8092    0.0000 C   0  0  2  0  0  0  0  0  0  0  0  0
    4.1858    1.3777    0.0000 C   0  0  2  0  0  0  0  0  0  0  0  0
    1.7494    0.9421    0.0000 C   0  0  2  0  0  0  0  0  0  0  0  0
    2.0297    1.7180    0.0000 C   0  0  2  0  0  0  0  0  0  0  0  0
    2.9282    8.4109    0.0000 O   0  0  0  0  0  0  0  0  0  0  0  0
    8.8070    3.6557    0.0000 O   0  0  0  0  0  0  0  0  0  0  0  0
    7.2403    7.7303    0.0000 O   0  0  0  0  0  0  0  0  0  0  0  0
    2.0009   -0.4646    0.0000 O   0  0  0  0  0  0  0  0  0  0  0  0
   -0.0618   -1.7625    0.0000 O   0  0  0  0  0  0  0  0  0  0  0  0
    2.2274    2.5190    0.0000 O   0  0  0  0  0  0  0  0  0  0  0  0
    2.3676    6.8590    0.0000 O   0  0  0  0  0  0  0  0  0  0  0  0
   -0.6864   -0.4316    0.0000 O   0  0  0  0  0  0  0  0  0  0  0  0
    4.5236    6.5188    0.0000 O   0  0  0  0  0  0  0  0  0  0  0  0
    6.3706    3.2200    0.0000 O   0  0  0  0  0  0  0  0  0  0  0  0
    6.3994    5.4026    0.0000 O   0  0  0  0  0  0  0  0  0  0  0  0
    6.6221    1.8134    0.0000 O   0  0  0  0  0  0  0  0  0  0  0  0
    5.6161    7.4399    0.0000 O   0  0  0  0  0  0  0  0  0  0  0  0
    7.7433    4.9171    0.0000 O   0  0  0  0  0  0  0  0  0  0  0  0
    2.8994    6.2283    0.0000 H   0  0  0  0  0  0  0  0  0  0  0  0
    6.9312    4.7719    0.0000 H   0  0  0  0  0  0  0  0  0  0  0  0
    5.3358    6.6640    0.0000 H   0  0  0  0  0  0  0  0  0  0  0  0
    4.9979    1.5229    0.0000 H   0  0  0  0  0  0  0  0  0  0  0  0
    6.0903    2.4441    0.0000 H   0  0  0  0  0  0  0  0  0  0  0  0
    0.1146    1.1244    0.0000 H   0  0  0  0  0  0  0  0  0  0  0  0
    3.6540    2.0084    0.0000 H   0  0  0  0  0  0  0  0  0  0  0  0
    2.5615    1.0873    0.0000 H   0  0  0  0  0  0  0  0  0  0  0  0
    2.6479    7.6350    0.0000 H   0  0  0  0  0  0  0  0  0  0  0  0
    8.2752    4.2864    0.0000 H   0  0  0  0  0  0  0  0  0  0  0  0
    6.4282    7.5851    0.0000 H   0  0  0  0  0  0  0  0  0  0  0  0
    2.8131   -0.3193    0.0000 H   0  0  0  0  0  0  0  0  0  0  0  0
    7.1827    3.3652    0.0000 H   0  0  0  0  0  0  0  0  0  0  0  0
    3.9918    7.1495    0.0000 H   0  0  0  0  0  0  0  0  0  0  0  0
    6.6797    6.1785    0.0000 H   0  0  0  0  0  0  0  0  0  0  0  0
    2.4038    7.2846    0.0000 H   0  0  0  0  0  0  0  0  0  0  0  0
    8.0937    4.6730    0.0000 H   0  0  0  0  0  0  0  0  0  0  0  0
    6.0027    7.6213    0.0000 H   0  0  0  0  0  0  0  0  0  0  0  0
    2.3779    5.4093    0.0000 H   0  0  0  0  0  0  0  0  0  0  0  0
    4.1209    4.7796    0.0000 H   0  0  0  0  0  0  0  0  0  0  0  0
    3.0676    4.5913    0.0000 H   0  0  0  0  0  0  0  0  0  0  0  0
    6.4827    5.6329    0.0000 H   0  0  0  0  0  0  0  0  0  0  0  0
    5.0658    4.4383    0.0000 H   0  0  0  0  0  0  0  0  0  0  0  0
    5.4294    5.4446    0.0000 H   0  0  0  0  0  0  0  0  0  0  0  0
    4.3658    6.7061    0.0000 H   0  0  0  0  0  0  0  0  0  0  0  0
    4.6919    4.8818    0.0000 H   0  0  0  0  0  0  0  0  0  0  0  0
    4.0022    5.6998    0.0000 H   0  0  0  0  0  0  0  0  0  0  0  0
    2.8522    0.4135    0.0000 H   0  0  0  0  0  0  0  0  0  0  0  0
    4.5952   -0.2162    0.0000 H   0  0  0  0  0  0  0  0  0  0  0  0
    3.5419   -0.4045    0.0000 H   0  0  0  0  0  0  0  0  0  0  0  0
    0.3223    0.1225    0.0000 H   0  0  0  0  0  0  0  0  0  0  0  0
    1.9900   -0.6859    0.0000 H   0  0  0  0  0  0  0  0  0  0  0  0
    0.9227   -0.7631    0.0000 H   0  0  0  0  0  0  0  0  0  0  0  0
    1.0340    5.8948    0.0000 H   0  0  0  0  0  0  0  0  0  0  0  0
    2.7770    5.2651    0.0000 H   0  0  0  0  0  0  0  0  0  0  0  0
    1.7237    5.0768    0.0000 H   0  0  0  0  0  0  0  0  0  0  0  0
    4.2978    3.7908    0.0000 H   0  0  0  0  0  0  0  0  0  0  0  0
    4.9876    2.9728    0.0000 H   0  0  0  0  0  0  0  0  0  0  0  0
    2.4323    3.4571    0.0000 H   0  0  0  0  0  0  0  0  0  0  0  0
    2.0688    2.4507    0.0000 H   0  0  0  0  0  0  0  0  0  0  0  0
    6.2195    0.0742    0.0000 H   0  0  0  0  0  0  0  0  0  0  0  0
    6.5830    1.0806    0.0000 H   0  0  0  0  0  0  0  0  0  0  0  0
   -0.3109    2.1249    0.0000 H   0  0  0  0  0  0  0  0  0  0  0  0
   -0.0852    1.0297    0.0000 H   0  0  0  0  0  0  0  0  0  0  0  0
    4.3540   -0.2593    0.0000 H   0  0  0  0  0  0  0  0  0  0  0  0
    3.6643    0.5587    0.0000 H   0  0  0  0  0  0  0  0  0  0  0  0
    1.4132    3.2938    0.0000 H   0  0  0  0  0  0  0  0  0  0  0  0
    2.3471    2.6789    0.0000 H   0  0  0  0  0  0  0  0  0  0  0  0
    1.6184   -0.8255    0.0000 H   0  0  0  0  0  0  0  0  0  0  0  0
    5.6418    3.3052    0.0000 H   0  0  0  0  0  0  0  0  0  0  0  0
    6.3315    2.4872    0.0000 H   0  0  0  0  0  0  0  0  0  0  0  0
    3.7831   -0.3614    0.0000 H   0  0  0  0  0  0  0  0  0  0  0  0
    2.7298   -0.5497    0.0000 H   0  0  0  0  0  0  0  0  0  0  0  0
    4.6357    8.9317    0.0000 H   0  0  0  0  0  0  0  0  0  0  0  0
    5.3254    8.1137    0.0000 H   0  0  0  0  0  0  0  0  0  0  0  0
    8.4043    1.9165    0.0000 H   0  0  0  0  0  0  0  0  0  0  0  0
    7.3510    1.7282    0.0000 H   0  0  0  0  0  0  0  0  0  0  0  0
    8.5451    6.5120    0.0000 H   0  0  0  0  0  0  0  0  0  0  0  0
    8.1815    5.5057    0.0000 H   0  0  0  0  0  0  0  0  0  0  0  0
   -1.0066    1.2300    0.0000 H   0  0  0  0  0  0  0  0  0  0  0  0
   -1.4678    0.2114    0.0000 H   0  0  0  0  0  0  0  0  0  0  0  0
    3.2578    9.3232    0.0000 H   0  0  0  0  0  0  0  0  0  0  0  0
    9.4324    2.9142    0.0000 H   0  0  0  0  0  0  0  0  0  0  0  0
    8.1952    7.9010    0.0000 H   0  0  0  0  0  0  0  0  0  0  0  0
    1.0461   -0.6354    0.0000 H   0  0  0  0  0  0  0  0  0  0  0  0
    3.1592    2.7886    0.0000 H   0  0  0  0  0  0  0  0  0  0  0  0
  1 75  1  0  0  0  0
  1 76  1  0  0  0  0
  1 77  1  0  0  0  0
  2 78  1  0  0  0  0
  2 79  1  0  0  0  0
  2 80  1  0  0  0  0
  3 81  1  0  0  0  0
  3 82  1  0  0  0  0
  3 83  1  0  0  0  0
  4 84  1  0  0  0  0
  4 85  1  0  0  0  0
  4 86  1  0  0  0  0
  5 87  1  0  0  0  0
  5 88  1  0  0  0  0
  5 89  1  0  0  0  0
  6 90  1  0  0  0  0
  6 91  1  0  0  0  0
  6 92  1  0  0  0  0
  7 93  1  0  0  0  0
  7 94  1  0  0  0  0
  8  7  1  0  0  0  0
  8 95  1  0  0  0  0
  8 96  1  0  0  0  0
  9 97  1  0  0  0  0
  9 98  1  0  0  0  0
 10 99  1  0  0  0  0
 10100  1  0  0  0  0
 11  9  1  0  0  0  0
 11101  1  0  0  0  0
 11102  1  0  0  0  0
 12 10  1  0  0  0  0
 12103  1  0  0  0  0
 12104  1  0  0  0  0
 13105  1  0  0  0  0
 14106  1  0  0  0  0
 14107  1  0  0  0  0
 15108  1  0  0  0  0
 15109  1  0  0  0  0
 16110  1  0  0  0  0
 16111  1  0  0  0  0
 17112  1  0  0  0  0
 17113  1  0  0  0  0
 18114  1  0  0  0  0
 18115  1  0  0  0  0
 19116  1  0  0  0  0
 19117  1  0  0  0  0
 20  1  1  0  0  0  0
 20 57  1  1  0  0  0
 21  2  1  0  0  0  0
 21 58  1  1  0  0  0
 22  3  1  0  0  0  0
 22 59  1  1  0  0  0
 23 13  2  0  0  0  0
 23 19  1  0  0  0  0
 24  7  1  0  0  0  0
 24 14  1  0  0  0  0
 24 60  1  1  0  0  0
 25  9  1  0  0  0  0
 25 14  1  0  0  0  0
 25 54  1  0  0  0  0
 25 61  1  6  0  0  0
 26 10  1  0  0  0  0
 26 23  1  0  0  0  0
 26 62  1  6  0  0  0
 27  8  1  0  0  0  0
 27 63  1  1  0  0  0
 28 15  1  0  0  0  0
 28 27  1  0  0  0  0
 28 64  1  6  0  0  0
 29 16  1  0  0  0  0
 29 43  1  0  0  0  0
 29 65  1  6  0  0  0
 30 17  1  0  0  0  0
 30 44  1  0  0  0  0
 30 66  1  6  0  0  0
 31 18  1  0  0  0  0
 31 45  1  0  0  0  0
 31 67  1  6  0  0  0
 32 15  1  0  0  0  0
 32 46  1  0  0  0  0
 32 68  1  6  0  0  0
 33 13  1  0  0  0  0
 34 17  1  0  0  0  0
 34 54  1  0  0  0  0
 34 69  1  1  0  0  0
 35 16  1  0  0  0  0
 35 55  1  0  0  0  0
 35 70  1  1  0  0  0
 36 18  1  0  0  0  0
 36 56  1  0  0  0  0
 36 71  1  1  0  0  0
 37 20  1  0  0  0  0
 37 29  1  0  0  0  0
 37 49  1  0  0  0  0
 37 72  1  6  0  0  0
 38 21  1  0  0  0  0
 38 30  1  0  0  0  0
 38 56  1  0  0  0  0
 38 73  1  6  0  0  0
 39 22  1  0  0  0  0
 39 31  1  0  0  0  0
 39 55  1  0  0  0  0
 39 74  1  6  0  0  0
 40  4  1  1  0  0  0
 40 11  1  0  0  0  0
 40 24  1  0  0  0  0
 40 28  1  0  0  0  0
 41  5  1  1  0  0  0
 41 26  1  0  0  0  0
 41 32  1  0  0  0  0
 42 12  1  0  0  0  0
 42 27  1  0  0  0  0
 42 41  1  0  0  0  0
 42 48  1  1  0  0  0
 43118  1  0  0  0  0
 44119  1  0  0  0  0
 45120  1  0  0  0  0
 46121  1  0  0  0  0
 47 33  2  0  0  0  0
 48122  1  0  0  0  0
 49  6  1  0  0  0  0
 50 19  1  0  0  0  0
 50 33  1  0  0  0  0
 51 20  1  0  0  0  0
 51 35  1  0  0  0  0
 52 21  1  0  0  0  0
 52 34  1  0  0  0  0
 53 22  1  0  0  0  0
 53 36  1  0  0  0  0
M  END
>  <DRUGBANK_ID>
DB13401

>  <COMMON_NAME>
Metildigoxin

>  <CAS_NUMBER>
30685-43-9

>  <UNII>
I7GG1YUC5V

>  <SYNONYMS>
Metildigoxin; Metildigoxina

$$$$
