
 OpenBabel10282417072D

 19 18  0  0  0  0  0  0  0  0999 V2000
    1.7143   -0.2571    0.0000 C   0  0  0  0  0  0  0  0  0  0  0  0
    0.9821    0.1722    0.0000 C   0  0  0  0  0  0  0  0  0  0  0  0
    0.3123   -0.2223    0.0000 S   0  0  3  0  0  0  0  0  0  0  0  0
   -0.4185    0.2070    0.0000 S   0  0  0  0  0  0  0  0  0  0  0  0
   -1.1708   -0.1854    0.0000 C   0  0  0  0  0  0  0  0  0  0  0  0
   -1.8204    0.2419    0.0000 C   0  0  0  0  0  0  0  0  0  0  0  0
    0.3123   -1.0474    0.0000 O   0  0  0  0  0  0  0  0  0  0  0  0
   -2.5514   -0.1406    0.0000 C   0  0  0  0  0  0  0  0  0  0  0  0
    2.4352    0.1441    0.0000 C   0  0  0  0  0  0  0  0  0  0  0  0
    1.7027   -1.2890    0.0000 H   0  0  0  0  0  0  0  0  0  0  0  0
    0.9810    1.2422    0.0000 H   0  0  0  0  0  0  0  0  0  0  0  0
    0.0529    0.7027    0.0000 H   0  0  0  0  0  0  0  0  0  0  0  0
   -1.2248   -1.2540    0.0000 H   0  0  0  0  0  0  0  0  0  0  0  0
   -2.1252   -0.6692    0.0000 H   0  0  0  0  0  0  0  0  0  0  0  0
   -1.7689    1.2726    0.0000 H   0  0  0  0  0  0  0  0  0  0  0  0
   -3.4229    0.4121    0.0000 H   0  0  0  0  0  0  0  0  0  0  0  0
   -2.5942   -1.1717    0.0000 H   0  0  0  0  0  0  0  0  0  0  0  0
    3.3207   -0.3859    0.0000 H   0  0  0  0  0  0  0  0  0  0  0  0
    2.4515    1.1760    0.0000 H   0  0  0  0  0  0  0  0  0  0  0  0
  1  2  1  0  0  0  0
  1  9  2  0  0  0  0
  1 10  1  0  0  0  0
  2  3  1  0  0  0  0
  2 11  1  0  0  0  0
  2 12  1  0  0  0  0
  3  4  1  0  0  0  0
  3  7  2  0  0  0  0
  4  5  1  0  0  0  0
  5  6  1  0  0  0  0
  5 13  1  0  0  0  0
  5 14  1  0  0  0  0
  6  8  2  0  0  0  0
  6 15  1  0  0  0  0
  8 16  1  0  0  0  0
  8 17  1  0  0  0  0
  9 18  1  0  0  0  0
  9 19  1  0  0  0  0
M  END
>  <DRUGBANK_ID>
DB11780

>  <COMMON_NAME>
Allicin

>  <CAS_NUMBER>
539-86-6

>  <UNII>
3C39BY17Y6

$$$$
