1235
 OpenBabel10282417072D

 25 25  0  0  1  0  0  0  0  0999 V2000
    2.0930   -1.7779    0.0000 O   0  0  0  0  0  0  0  0  0  0  0  0
    4.9509    2.3472    0.0000 O   0  0  0  0  0  0  0  0  0  0  0  0
    3.5220   -2.6029    0.0000 O   0  0  0  0  0  0  0  0  0  0  0  0
    3.5220    2.3472    0.0000 O   0  0  0  0  0  0  0  0  0  0  0  0
    4.9509    0.6971    0.0000 N   0  0  0  0  0  0  0  0  0  0  0  0
    3.5220    0.6971    0.0000 C   0  0  0  0  0  0  0  0  0  0  0  0
    4.2365    1.1096    0.0000 C   0  0  1  0  0  0  0  0  0  0  0  0
    3.5220   -0.1279    0.0000 C   0  0  0  0  0  0  0  0  0  0  0  0
    2.8075   -0.5404    0.0000 C   0  0  0  0  0  0  0  0  0  0  0  0
    4.2365   -0.5404    0.0000 C   0  0  0  0  0  0  0  0  0  0  0  0
    2.8075   -1.3654    0.0000 C   0  0  0  0  0  0  0  0  0  0  0  0
    4.2365    1.9347    0.0000 C   0  0  0  0  0  0  0  0  0  0  0  0
    4.2365   -1.3654    0.0000 C   0  0  0  0  0  0  0  0  0  0  0  0
    3.5220   -1.7779    0.0000 C   0  0  0  0  0  0  0  0  0  0  0  0
    1.2815   -1.3094    0.0000 H   0  0  0  0  0  0  0  0  0  0  0  0
    5.7624    1.8787    0.0000 H   0  0  0  0  0  0  0  0  0  0  0  0
    2.7105   -3.0714    0.0000 H   0  0  0  0  0  0  0  0  0  0  0  0
    4.9509   -0.3229    0.0000 H   0  0  0  0  0  0  0  0  0  0  0  0
    5.8343    1.2071    0.0000 H   0  0  0  0  0  0  0  0  0  0  0  0
    2.5954    1.2321    0.0000 H   0  0  0  0  0  0  0  0  0  0  0  0
    2.5954    0.1621    0.0000 H   0  0  0  0  0  0  0  0  0  0  0  0
    4.2365    0.0396    0.0000 H   0  0  0  0  0  0  0  0  0  0  0  0
    1.9138   -0.0244    0.0000 H   0  0  0  0  0  0  0  0  0  0  0  0
    5.1302   -0.0244    0.0000 H   0  0  0  0  0  0  0  0  0  0  0  0
    5.1302   -1.8814    0.0000 H   0  0  0  0  0  0  0  0  0  0  0  0
  1 11  1  0  0  0  0
  1 15  1  0  0  0  0
  2 12  1  0  0  0  0
  2 16  1  0  0  0  0
  3 14  1  0  0  0  0
  3 17  1  0  0  0  0
  4 12  2  0  0  0  0
  5 18  1  0  0  0  0
  5 19  1  0  0  0  0
  6  7  1  0  0  0  0
  6  8  1  0  0  0  0
  6 20  1  0  0  0  0
  6 21  1  0  0  0  0
  7  5  1  0  0  0  0
  7 12  1  0  0  0  0
  7 22  1  6  0  0  0
  8  9  2  0  0  0  0
  8 10  1  0  0  0  0
  9 11  1  0  0  0  0
  9 23  1  0  0  0  0
 10 13  2  0  0  0  0
 10 24  1  0  0  0  0
 11 14  2  0  0  0  0
 13 14  1  0  0  0  0
 13 25  1  0  0  0  0
M  END
>  <DRUGBANK_ID>
DB01235

>  <SECONDARY_ACCESSION_NUMBERS>
APRD00309; EXPT01107

>  <COMMON_NAME>
Levodopa

>  <CAS_NUMBER>
59-92-7

>  <UNII>
46627O600J

>  <SYNONYMS>
(−)-3-(3,4-dihydroxyphenyl)-L-alanine; (−)-dopa; 3-Hydroxy-L-tyrosine; 3,4-Dihydroxy-L-phenylalanine; Dihydroxy-L-phenylalanine; L-3,4-dihydroxyphenylalanine; L-beta-(3,4-Dihydroxyphenyl)alanine; L-DOPA; Levodopa; Levodopum; β-(3,4-dihydroxyphenyl)-L-alanine; β-(3,4-dihydroxyphenyl)alanine

$$$$
