
 OpenBabel10282417072D

 55 59  0  0  0  0  0  0  0  0999 V2000
    2.4680    0.5475    0.0000 C   0  0  0  0  0  0  0  0  0  0  0  0
    3.2750    0.7190    0.0000 O   0  0  0  0  0  0  0  0  0  0  0  0
    1.0955    1.0744    0.0000 O   0  0  0  0  0  0  0  0  0  0  0  0
    1.9159    1.1606    0.0000 C   0  0  0  0  0  0  0  0  0  0  0  0
    2.0875    1.9675    0.0000 C   0  0  0  0  0  0  0  0  0  0  0  0
    1.3730    2.3800    0.0000 C   0  0  0  0  0  0  0  0  0  0  0  0
    0.7599    1.8281    0.0000 C   0  0  0  0  0  0  0  0  0  0  0  0
   -0.0471    1.9996    0.0000 C   0  0  0  0  0  0  0  0  0  0  0  0
   -0.8540    2.1711    0.0000 C   0  0  0  0  0  0  0  0  0  0  0  0
   -1.6610    2.3426    0.0000 C   0  0  0  0  0  0  0  0  0  0  0  0
   -2.2130    1.7295    0.0000 C   0  0  0  0  0  0  0  0  0  0  0  0
   -3.0200    1.9011    0.0000 C   0  0  0  0  0  0  0  0  0  0  0  0
   -3.2750    2.6857    0.0000 C   0  0  0  0  0  0  0  0  0  0  0  0
   -2.7229    3.2988    0.0000 C   0  0  0  0  0  0  0  0  0  0  0  0
   -1.9159    3.1273    0.0000 C   0  0  0  0  0  0  0  0  0  0  0  0
    1.7032   -3.1412    0.0000 O   0  0  0  0  0  0  0  0  0  0  0  0
    2.1881   -2.4738    0.0000 C   0  0  0  0  0  0  0  0  0  0  0  0
    1.7032   -1.8063    0.0000 C   0  0  0  0  0  0  0  0  0  0  0  0
    0.9185   -2.0613    0.0000 C   0  0  0  0  0  0  0  0  0  0  0  0
    0.9185   -2.8863    0.0000 C   0  0  0  0  0  0  0  0  0  0  0  0
    0.2041   -1.6488    0.0000 C   0  0  0  0  0  0  0  0  0  0  0  0
   -0.5104   -2.0613    0.0000 C   0  0  0  0  0  0  0  0  0  0  0  0
   -0.5104   -2.8863    0.0000 C   0  0  0  0  0  0  0  0  0  0  0  0
    0.2041   -3.2988    0.0000 C   0  0  0  0  0  0  0  0  0  0  0  0
    2.2130   -0.2371    0.0000 N   0  0  0  0  0  0  0  0  0  0  0  0
    1.4060   -0.4086    0.0000 C   0  0  0  0  0  0  0  0  0  0  0  0
    1.1511   -1.1933    0.0000 C   0  0  0  0  0  0  0  0  0  0  0  0
    2.5101   -1.6348    0.0000 C   0  0  0  0  0  0  0  0  0  0  0  0
    2.7651   -0.8502    0.0000 C   0  0  0  0  0  0  0  0  0  0  0  0
   -1.2249   -1.6488    0.0000 C   0  0  0  0  0  0  0  0  0  0  0  0
   -1.9393   -2.0613    0.0000 N   0  0  0  0  0  0  0  0  0  0  0  0
    3.0303    2.3872    0.0000 H   0  0  0  0  0  0  0  0  0  0  0  0
    1.2652    3.4064    0.0000 H   0  0  0  0  0  0  0  0  0  0  0  0
   -1.8941    0.7480    0.0000 H   0  0  0  0  0  0  0  0  0  0  0  0
   -3.7105    1.1342    0.0000 H   0  0  0  0  0  0  0  0  0  0  0  0
   -4.2845    2.9003    0.0000 H   0  0  0  0  0  0  0  0  0  0  0  0
   -3.0418    4.2803    0.0000 H   0  0  0  0  0  0  0  0  0  0  0  0
   -1.2253    3.8942    0.0000 H   0  0  0  0  0  0  0  0  0  0  0  0
    3.2581   -2.4738    0.0000 H   0  0  0  0  0  0  0  0  0  0  0  0
    2.6739   -1.5204    0.0000 H   0  0  0  0  0  0  0  0  0  0  0  0
    0.2041   -0.6168    0.0000 H   0  0  0  0  0  0  0  0  0  0  0  0
   -1.4041   -3.4023    0.0000 H   0  0  0  0  0  0  0  0  0  0  0  0
    0.2041   -4.3308    0.0000 H   0  0  0  0  0  0  0  0  0  0  0  0
    0.6900    0.3866    0.0000 H   0  0  0  0  0  0  0  0  0  0  0  0
    0.3594   -0.6311    0.0000 H   0  0  0  0  0  0  0  0  0  0  0  0
    0.1045   -1.4159    0.0000 H   0  0  0  0  0  0  0  0  0  0  0  0
    0.8206   -2.2110    0.0000 H   0  0  0  0  0  0  0  0  0  0  0  0
    3.2260   -2.4300    0.0000 H   0  0  0  0  0  0  0  0  0  0  0  0
    2.1794   -2.6524    0.0000 H   0  0  0  0  0  0  0  0  0  0  0  0
    3.8117   -0.6277    0.0000 H   0  0  0  0  0  0  0  0  0  0  0  0
    3.0957    0.1674    0.0000 H   0  0  0  0  0  0  0  0  0  0  0  0
   -1.2249   -0.5788    0.0000 H   0  0  0  0  0  0  0  0  0  0  0  0
   -0.2983   -1.1138    0.0000 H   0  0  0  0  0  0  0  0  0  0  0  0
   -2.8227   -1.5513    0.0000 H   0  0  0  0  0  0  0  0  0  0  0  0
   -1.9393   -3.0813    0.0000 H   0  0  0  0  0  0  0  0  0  0  0  0
  1  2  2  0  0  0  0
  1  4  1  0  0  0  0
  1 25  1  0  0  0  0
  3  4  1  0  0  0  0
  3  7  1  0  0  0  0
  4  5  2  0  0  0  0
  5  6  1  0  0  0  0
  5 32  1  0  0  0  0
  6  7  2  0  0  0  0
  6 33  1  0  0  0  0
  7  8  1  0  0  0  0
  8  9  3  0  0  0  0
  9 10  1  0  0  0  0
 10 11  1  0  0  0  0
 10 15  2  0  0  0  0
 11 12  2  0  0  0  0
 11 34  1  0  0  0  0
 12 13  1  0  0  0  0
 12 35  1  0  0  0  0
 13 14  2  0  0  0  0
 13 36  1  0  0  0  0
 14 15  1  0  0  0  0
 14 37  1  0  0  0  0
 15 38  1  0  0  0  0
 16 17  1  0  0  0  0
 16 20  1  0  0  0  0
 17 18  1  0  0  0  0
 17 39  1  0  0  0  0
 17 40  1  0  0  0  0
 18 19  1  0  0  0  0
 19 20  1  0  0  0  0
 21 22  1  0  0  0  0
 21 19  2  0  0  0  0
 21 41  1  0  0  0  0
 22 23  2  0  0  0  0
 22 30  1  0  0  0  0
 23 24  1  0  0  0  0
 23 42  1  0  0  0  0
 24 20  2  0  0  0  0
 24 43  1  0  0  0  0
 25 26  1  0  0  0  0
 25 29  1  0  0  0  0
 26 27  1  0  0  0  0
 26 44  1  0  0  0  0
 26 45  1  0  0  0  0
 27 18  1  0  0  0  0
 27 46  1  0  0  0  0
 27 47  1  0  0  0  0
 28 29  1  0  0  0  0
 28 18  1  0  0  0  0
 28 48  1  0  0  0  0
 28 49  1  0  0  0  0
 29 50  1  0  0  0  0
 29 51  1  0  0  0  0
 30 31  1  0  0  0  0
 30 52  1  0  0  0  0
 30 53  1  0  0  0  0
 31 54  1  0  0  0  0
 31 55  1  0  0  0  0
M  END
>  <DRUGBANK_ID>
DB06962

>  <COMMON_NAME>
JNJ-27390467

>  <CAS_NUMBER>
1025795-11-2

>  <UNII>
B700BD3K5Y

$$$$
