
 OpenBabel10282417072D

 54 56  0  0  0  0  0  0  0  0999 V2000
   -2.8579   -1.6500    0.0000 C   0  0  0  0  0  0  0  0  0  0  0  0
   -2.8579   -2.4750    0.0000 N   0  0  0  0  0  0  0  0  0  0  0  0
   -3.5724   -2.8875    0.0000 C   0  0  0  0  0  0  0  0  0  0  0  0
   -2.1434   -2.8875    0.0000 C   0  0  0  0  0  0  0  0  0  0  0  0
   -1.4289   -2.4750    0.0000 N   0  0  0  0  0  0  0  0  0  0  0  0
   -2.1434   -3.7125    0.0000 C   0  0  0  0  0  0  0  0  0  0  0  0
   -1.4289   -4.1250    0.0000 C   0  0  0  0  0  0  0  0  0  0  0  0
   -1.4289   -4.9500    0.0000 C   0  0  0  0  0  0  0  0  0  0  0  0
   -2.1434   -5.3625    0.0000 C   0  0  0  0  0  0  0  0  0  0  0  0
   -2.8579   -4.9500    0.0000 C   0  0  0  0  0  0  0  0  0  0  0  0
   -2.8579   -4.1250    0.0000 C   0  0  0  0  0  0  0  0  0  0  0  0
   -2.1434   -6.1875    0.0000 C   0  0  0  0  0  0  0  0  0  0  0  0
   -1.4289   -6.6000    0.0000 O   0  0  0  0  0  0  0  0  0  0  0  0
   -2.8579   -6.6000    0.0000 N   0  0  0  0  0  0  0  0  0  0  0  0
   -2.8579   -7.4250    0.0000 C   0  0  0  0  0  0  0  0  0  0  0  0
   -2.1434   -7.8375    0.0000 C   0  0  0  0  0  0  0  0  0  0  0  0
   -2.1434   -8.6625    0.0000 C   0  0  0  0  0  0  0  0  0  0  0  0
   -2.8579   -9.0750    0.0000 C   0  0  0  0  0  0  0  0  0  0  0  0
   -3.5724   -8.6625    0.0000 C   0  0  0  0  0  0  0  0  0  0  0  0
   -3.5724   -7.8375    0.0000 C   0  0  0  0  0  0  0  0  0  0  0  0
   -4.2868   -7.4250    0.0000 C   0  0  0  0  0  0  0  0  0  0  0  0
   -4.2868   -6.6000    0.0000 O   0  0  0  0  0  0  0  0  0  0  0  0
   -5.0013   -7.8375    0.0000 N   0  0  0  0  0  0  0  0  0  0  0  0
   -5.0013   -8.6625    0.0000 C   0  0  0  0  0  0  0  0  0  0  0  0
   -4.2868   -9.0750    0.0000 C   0  0  0  0  0  0  0  0  0  0  0  0
   -4.2868   -9.9000    0.0000 C   0  0  0  0  0  0  0  0  0  0  0  0
   -5.0013  -10.3125    0.0000 C   0  0  0  0  0  0  0  0  0  0  0  0
   -5.7158   -9.9000    0.0000 C   0  0  0  0  0  0  0  0  0  0  0  0
   -5.7158   -9.0750    0.0000 N   0  0  0  0  0  0  0  0  0  0  0  0
   -5.0013  -11.1375    0.0000 Cl  0  0  0  0  0  0  0  0  0  0  0  0
   -2.8579   -9.9000    0.0000 O   0  0  0  0  0  0  0  0  0  0  0  0
   -3.5724  -10.3125    0.0000 C   0  0  0  0  0  0  0  0  0  0  0  0
   -1.9313   -1.1150    0.0000 H   0  0  0  0  0  0  0  0  0  0  0  0
   -3.7845   -1.1150    0.0000 H   0  0  0  0  0  0  0  0  0  0  0  0
   -2.8579   -0.5800    0.0000 H   0  0  0  0  0  0  0  0  0  0  0  0
   -4.4990   -2.3525    0.0000 H   0  0  0  0  0  0  0  0  0  0  0  0
   -3.5724   -3.9575    0.0000 H   0  0  0  0  0  0  0  0  0  0  0  0
   -4.4991   -3.4225    0.0000 H   0  0  0  0  0  0  0  0  0  0  0  0
   -0.5763   -2.9673    0.0000 H   0  0  0  0  0  0  0  0  0  0  0  0
   -0.5352   -3.6090    0.0000 H   0  0  0  0  0  0  0  0  0  0  0  0
   -0.5352   -5.4660    0.0000 H   0  0  0  0  0  0  0  0  0  0  0  0
   -3.7516   -5.4660    0.0000 H   0  0  0  0  0  0  0  0  0  0  0  0
   -3.7516   -3.6090    0.0000 H   0  0  0  0  0  0  0  0  0  0  0  0
   -3.7105   -6.1077    0.0000 H   0  0  0  0  0  0  0  0  0  0  0  0
   -1.2497   -7.3215    0.0000 H   0  0  0  0  0  0  0  0  0  0  0  0
   -1.2497   -9.1785    0.0000 H   0  0  0  0  0  0  0  0  0  0  0  0
   -4.4661   -9.1785    0.0000 H   0  0  0  0  0  0  0  0  0  0  0  0
   -5.8539   -7.3452    0.0000 H   0  0  0  0  0  0  0  0  0  0  0  0
   -3.3931   -8.5590    0.0000 H   0  0  0  0  0  0  0  0  0  0  0  0
   -3.3931  -10.4160    0.0000 H   0  0  0  0  0  0  0  0  0  0  0  0
   -6.6095  -10.4160    0.0000 H   0  0  0  0  0  0  0  0  0  0  0  0
   -4.4990   -9.7775    0.0000 H   0  0  0  0  0  0  0  0  0  0  0  0
   -3.5724  -11.3825    0.0000 H   0  0  0  0  0  0  0  0  0  0  0  0
   -4.4991  -10.8475    0.0000 H   0  0  0  0  0  0  0  0  0  0  0  0
  1  2  1  0  0  0  0
  1 33  1  0  0  0  0
  1 34  1  0  0  0  0
  1 35  1  0  0  0  0
  2  3  1  0  0  0  0
  2  4  1  0  0  0  0
  3 36  1  0  0  0  0
  3 37  1  0  0  0  0
  3 38  1  0  0  0  0
  4  5  2  0  0  0  0
  4  6  1  0  0  0  0
  5 39  1  0  0  0  0
  6  7  2  0  0  0  0
  6 11  1  0  0  0  0
  7  8  1  0  0  0  0
  7 40  1  0  0  0  0
  8  9  2  0  0  0  0
  8 41  1  0  0  0  0
  9 10  1  0  0  0  0
  9 12  1  0  0  0  0
 10 11  2  0  0  0  0
 10 42  1  0  0  0  0
 11 43  1  0  0  0  0
 12 13  2  0  0  0  0
 12 14  1  0  0  0  0
 14 15  1  0  0  0  0
 14 44  1  0  0  0  0
 15 16  2  0  0  0  0
 15 20  1  0  0  0  0
 16 17  1  0  0  0  0
 16 45  1  0  0  0  0
 17 18  2  0  0  0  0
 17 46  1  0  0  0  0
 18 19  1  0  0  0  0
 18 31  1  0  0  0  0
 19 20  2  0  0  0  0
 19 47  1  0  0  0  0
 20 21  1  0  0  0  0
 21 22  2  0  0  0  0
 21 23  1  0  0  0  0
 23 24  1  0  0  0  0
 23 48  1  0  0  0  0
 24 25  2  0  0  0  0
 24 29  1  0  0  0  0
 25 26  1  0  0  0  0
 25 49  1  0  0  0  0
 26 27  2  0  0  0  0
 26 50  1  0  0  0  0
 27 28  1  0  0  0  0
 27 30  1  0  0  0  0
 28 29  2  0  0  0  0
 28 51  1  0  0  0  0
 31 32  1  0  0  0  0
 32 52  1  0  0  0  0
 32 53  1  0  0  0  0
 32 54  1  0  0  0  0
M  END
>  <DRUGBANK_ID>
DB12364

>  <SECONDARY_ACCESSION_NUMBERS>
DB06601

>  <COMMON_NAME>
Betrixaban

>  <CAS_NUMBER>
330942-05-7

>  <UNII>
74RWP7W0J9

>  <SYNONYMS>
Betrixaban; N-(5-chloropyridin-2-yl)-2-(4-(N,N-dimethylcarbamimidoyl)benzamido)-5-methoxybenzamide; N-(5-chloropyridin-2-yl)-2-[[4-(N,N-dimethylcarbamimidoyl)benzoyl]amino]-5-methoxybenzamide

$$$$
