
 OpenBabel10282417072D

 11 10  0  0  0  0  0  0  0  0999 V2000
    2.0625   -0.7145    0.0000 N   0  0  0  0  0  0  0  0  0  0  0  0
    1.2375   -0.7145    0.0000 C   0  0  0  0  0  0  0  0  0  0  0  0
    0.8250    0.0000    0.0000 C   0  0  0  0  0  0  0  0  0  0  0  0
    0.0000    0.0000    0.0000 O   0  0  0  0  0  0  0  0  0  0  0  0
    2.5725   -1.5978    0.0000 H   0  0  0  0  0  0  0  0  0  0  0  0
    2.5725    0.1688    0.0000 H   0  0  0  0  0  0  0  0  0  0  0  0
    0.7025   -1.6411    0.0000 H   0  0  0  0  0  0  0  0  0  0  0  0
    0.1675   -0.7145    0.0000 H   0  0  0  0  0  0  0  0  0  0  0  0
    1.3600    0.9266    0.0000 H   0  0  0  0  0  0  0  0  0  0  0  0
    0.2900    0.9266    0.0000 H   0  0  0  0  0  0  0  0  0  0  0  0
   -0.4850    0.8400    0.0000 H   0  0  0  0  0  0  0  0  0  0  0  0
  1  2  1  0  0  0  0
  1  5  1  0  0  0  0
  1  6  1  0  0  0  0
  2  3  1  0  0  0  0
  2  7  1  0  0  0  0
  2  8  1  0  0  0  0
  3  4  1  0  0  0  0
  3  9  1  0  0  0  0
  3 10  1  0  0  0  0
  4 11  1  0  0  0  0
M  END
>  <DRUGBANK_ID>
DB03994

>  <SECONDARY_ACCESSION_NUMBERS>
EXPT01366

>  <COMMON_NAME>
Ethanolamine

>  <CAS_NUMBER>
141-43-5

>  <UNII>
5KV86114PT

$$$$
