
 OpenBabel10282417072D

 24 23  0  0  1  0  0  0  0  0999 V2000
   12.8666  -15.9815    0.0000 O   0  0  0  0  0  0  0  0  0  0  0  0
   13.5812  -13.9189    0.0000 O   0  0  0  0  0  0  0  0  0  0  0  0
   11.4378  -15.9815    0.0000 O   0  0  0  0  0  0  0  0  0  0  0  0
   15.0100  -14.7440    0.0000 O   0  0  0  0  0  0  0  0  0  0  0  0
   10.0087  -15.1565    0.0000 O   0  0  0  0  0  0  0  0  0  0  0  0
   10.7232  -13.9189    0.0000 O   0  0  0  0  0  0  0  0  0  0  0  0
   12.8666  -15.1565    0.0000 C   0  0  1  0  0  0  0  0  0  0  0  0
   12.1522  -14.7440    0.0000 C   0  0  0  0  0  0  0  0  0  0  0  0
   13.5812  -14.7440    0.0000 C   0  0  1  0  0  0  0  0  0  0  0  0
   11.4378  -15.1565    0.0000 C   0  0  1  0  0  0  0  0  0  0  0  0
   14.2956  -15.1565    0.0000 C   0  0  0  0  0  0  0  0  0  0  0  0
   10.7232  -14.7440    0.0000 C   0  0  0  0  0  0  0  0  0  0  0  0
   12.0266  -16.4665    0.0000 H   0  0  0  0  0  0  0  0  0  0  0  0
   14.4212  -13.4339    0.0000 H   0  0  0  0  0  0  0  0  0  0  0  0
   10.5978  -16.4665    0.0000 H   0  0  0  0  0  0  0  0  0  0  0  0
   15.8501  -15.2290    0.0000 H   0  0  0  0  0  0  0  0  0  0  0  0
    9.1972  -14.6880    0.0000 H   0  0  0  0  0  0  0  0  0  0  0  0
   11.9399  -15.6915    0.0000 H   0  0  0  0  0  0  0  0  0  0  0  0
   12.1522  -13.6740    0.0000 H   0  0  0  0  0  0  0  0  0  0  0  0
   11.2255  -14.2090    0.0000 H   0  0  0  0  0  0  0  0  0  0  0  0
   12.6546  -14.2090    0.0000 H   0  0  0  0  0  0  0  0  0  0  0  0
   12.3645  -15.6915    0.0000 H   0  0  0  0  0  0  0  0  0  0  0  0
   14.2956  -16.2265    0.0000 H   0  0  0  0  0  0  0  0  0  0  0  0
   13.3689  -15.6915    0.0000 H   0  0  0  0  0  0  0  0  0  0  0  0
  1 13  1  0  0  0  0
  2 14  1  0  0  0  0
  3 15  1  0  0  0  0
  4 11  1  0  0  0  0
  4 16  1  0  0  0  0
  5 12  1  0  0  0  0
  5 17  1  0  0  0  0
  6 12  2  0  0  0  0
  7  1  1  0  0  0  0
  7  8  1  0  0  0  0
  7  9  1  0  0  0  0
  7 18  1  6  0  0  0
  8 10  1  0  0  0  0
  8 19  1  0  0  0  0
  8 20  1  0  0  0  0
  9  2  1  0  0  0  0
  9 11  1  0  0  0  0
  9 21  1  1  0  0  0
 10  3  1  0  0  0  0
 10 12  1  0  0  0  0
 10 22  1  1  0  0  0
 11 23  1  0  0  0  0
 11 24  1  0  0  0  0
M  END
>  <DRUGBANK_ID>
DB03303

>  <SECONDARY_ACCESSION_NUMBERS>
EXPT02959

>  <COMMON_NAME>
3-deoxy-D-arabino-hexonic acid

>  <CAS_NUMBER>
29625-79-4

>  <SYNONYMS>
3-Deoxy-arabino-hexonic acid; D-2-keto-3-deoxygluconate

$$$$
