601
 OpenBabel10282417072D

 44 46  0  0  1  0  0  0  0  0999 V2000
    2.0883   -2.0559    0.0000 F   0  0  0  0  0  0  0  0  0  0  0  0
    3.9298    1.6887    0.0000 O   0  0  0  0  0  0  0  0  0  0  0  0
    3.5173   -4.5309    0.0000 O   0  0  0  0  0  0  0  0  0  0  0  0
    4.9693    0.6491    0.0000 O   0  0  0  0  0  0  0  0  0  0  0  0
    1.6500    3.6910    0.0000 O   0  0  0  0  0  0  0  0  0  0  0  0
    3.5173    0.4191    0.0000 N   0  0  0  0  0  0  0  0  0  0  0  0
    3.5173   -2.8809    0.0000 N   0  0  0  0  0  0  0  0  0  0  0  0
    2.9554    3.1098    0.0000 N   0  0  0  0  0  0  0  0  0  0  0  0
    3.1048    1.6887    0.0000 C   0  0  2  0  0  0  0  0  0  0  0  0
    2.8498    0.9040    0.0000 C   0  0  0  0  0  0  0  0  0  0  0  0
    4.2318   -3.2934    0.0000 C   0  0  0  0  0  0  0  0  0  0  0  0
    2.8028   -3.2934    0.0000 C   0  0  0  0  0  0  0  0  0  0  0  0
    3.5173   -0.4059    0.0000 C   0  0  0  0  0  0  0  0  0  0  0  0
    2.6199    2.3561    0.0000 C   0  0  0  0  0  0  0  0  0  0  0  0
    3.5173   -2.0559    0.0000 C   0  0  0  0  0  0  0  0  0  0  0  0
    4.2318   -4.1184    0.0000 C   0  0  0  0  0  0  0  0  0  0  0  0
    2.8028   -4.1184    0.0000 C   0  0  0  0  0  0  0  0  0  0  0  0
    4.1848    0.9040    0.0000 C   0  0  0  0  0  0  0  0  0  0  0  0
    2.8028   -0.8184    0.0000 C   0  0  0  0  0  0  0  0  0  0  0  0
    4.2318   -0.8184    0.0000 C   0  0  0  0  0  0  0  0  0  0  0  0
    2.8028   -1.6434    0.0000 C   0  0  0  0  0  0  0  0  0  0  0  0
    4.2318   -1.6434    0.0000 C   0  0  0  0  0  0  0  0  0  0  0  0
    2.4705    3.7772    0.0000 C   0  0  0  0  0  0  0  0  0  0  0  0
    2.8061    4.5309    0.0000 C   0  0  0  0  0  0  0  0  0  0  0  0
    3.9345    3.2127    0.0000 H   0  0  0  0  0  0  0  0  0  0  0  0
    3.5906    2.6421    0.0000 H   0  0  0  0  0  0  0  0  0  0  0  0
    1.8322    0.5733    0.0000 H   0  0  0  0  0  0  0  0  0  0  0  0
    2.0932    1.6606    0.0000 H   0  0  0  0  0  0  0  0  0  0  0  0
    5.1584   -2.7584    0.0000 H   0  0  0  0  0  0  0  0  0  0  0  0
    5.1584   -3.8284    0.0000 H   0  0  0  0  0  0  0  0  0  0  0  0
    1.8762   -2.7584    0.0000 H   0  0  0  0  0  0  0  0  0  0  0  0
    1.8762   -3.8284    0.0000 H   0  0  0  0  0  0  0  0  0  0  0  0
    1.5558    2.2442    0.0000 H   0  0  0  0  0  0  0  0  0  0  0  0
    2.1847    1.3786    0.0000 H   0  0  0  0  0  0  0  0  0  0  0  0
    5.1584   -4.6534    0.0000 H   0  0  0  0  0  0  0  0  0  0  0  0
    5.1584   -3.5834    0.0000 H   0  0  0  0  0  0  0  0  0  0  0  0
    1.8762   -4.6534    0.0000 H   0  0  0  0  0  0  0  0  0  0  0  0
    1.8762   -3.5834    0.0000 H   0  0  0  0  0  0  0  0  0  0  0  0
    1.9091   -0.3024    0.0000 H   0  0  0  0  0  0  0  0  0  0  0  0
    5.1255   -0.3024    0.0000 H   0  0  0  0  0  0  0  0  0  0  0  0
    5.1255   -2.1594    0.0000 H   0  0  0  0  0  0  0  0  0  0  0  0
    3.8702    4.6427    0.0000 H   0  0  0  0  0  0  0  0  0  0  0  0
    2.1772    5.3966    0.0000 H   0  0  0  0  0  0  0  0  0  0  0  0
    3.2413    5.5084    0.0000 H   0  0  0  0  0  0  0  0  0  0  0  0
  1 21  1  0  0  0  0
  2  9  1  0  0  0  0
  2 18  1  0  0  0  0
  3 16  1  0  0  0  0
  3 17  1  0  0  0  0
  4 18  2  0  0  0  0
  5 23  2  0  0  0  0
  6 10  1  0  0  0  0
  6 13  1  0  0  0  0
  6 18  1  0  0  0  0
  7 11  1  0  0  0  0
  7 12  1  0  0  0  0
  7 15  1  0  0  0  0
  8 14  1  0  0  0  0
  8 23  1  0  0  0  0
  8 25  1  0  0  0  0
  9 10  1  0  0  0  0
  9 14  1  0  0  0  0
  9 26  1  1  0  0  0
 10 27  1  0  0  0  0
 10 28  1  0  0  0  0
 11 16  1  0  0  0  0
 11 29  1  0  0  0  0
 11 30  1  0  0  0  0
 12 17  1  0  0  0  0
 12 31  1  0  0  0  0
 12 32  1  0  0  0  0
 13 19  2  0  0  0  0
 13 20  1  0  0  0  0
 14 33  1  0  0  0  0
 14 34  1  0  0  0  0
 15 21  2  0  0  0  0
 15 22  1  0  0  0  0
 16 35  1  0  0  0  0
 16 36  1  0  0  0  0
 17 37  1  0  0  0  0
 17 38  1  0  0  0  0
 19 21  1  0  0  0  0
 19 39  1  0  0  0  0
 20 22  2  0  0  0  0
 20 40  1  0  0  0  0
 22 41  1  0  0  0  0
 23 24  1  0  0  0  0
 24 42  1  0  0  0  0
 24 43  1  0  0  0  0
 24 44  1  0  0  0  0
M  END
>  <DRUGBANK_ID>
DB00601

>  <SECONDARY_ACCESSION_NUMBERS>
APRD01073; DB08769

>  <COMMON_NAME>
Linezolid

>  <CAS_NUMBER>
165800-03-3

>  <UNII>
ISQ9I6J12J

>  <SYNONYMS>
Linezolid; Linezolide; Linezolidum; N-(((S)-3-(3-Fluoro-4-morpholinophenyl)-2-oxo-5-oxazolidinyl)methyl)acetamide

$$$$
