
 OpenBabel10282417072D

 30 32  0  0  0  0  0  0  0  0999 V2000
   -0.4743    0.0388    0.0000 C   0  0  3  0  0  0  0  0  0  0  0  0
   -1.2993    0.0388    0.0000 C   0  0  0  0  0  0  0  0  0  0  0  0
   -1.7118   -0.6757    0.0000 C   0  0  0  0  0  0  0  0  0  0  0  0
   -1.2993   -1.3902    0.0000 N   0  0  3  0  0  0  0  0  0  0  0  0
   -0.4743   -1.3902    0.0000 C   0  0  0  0  0  0  0  0  0  0  0  0
   -0.4743   -0.7862    0.0000 C   0  0  0  0  0  0  0  0  0  0  0  0
   -1.2993   -0.7862    0.0000 C   0  0  0  0  0  0  0  0  0  0  0  0
    0.3340    0.0481    0.0000 C   0  0  0  0  0  0  0  0  0  0  0  0
   -0.0618   -0.6757    0.0000 C   0  0  1  0  0  0  0  0  0  0  0  0
    0.5042   -1.2759    0.0000 O   0  0  0  0  0  0  0  0  0  0  0  0
    1.2499   -0.9230    0.0000 C   0  0  3  0  0  0  0  0  0  0  0  0
    1.1448   -0.1047    0.0000 S   0  0  0  0  0  0  0  0  0  0  0  0
    1.9737   -1.3188    0.0000 C   0  0  0  0  0  0  0  0  0  0  0  0
   -1.0093   -0.8878    0.0000 H   0  0  0  0  0  0  0  0  0  0  0  0
   -1.8343    0.9654    0.0000 H   0  0  0  0  0  0  0  0  0  0  0  0
   -2.3693    0.0388    0.0000 H   0  0  0  0  0  0  0  0  0  0  0  0
   -2.7818   -0.6757    0.0000 H   0  0  0  0  0  0  0  0  0  0  0  0
   -2.2468   -1.6023    0.0000 H   0  0  0  0  0  0  0  0  0  0  0  0
    0.0607   -2.3168    0.0000 H   0  0  0  0  0  0  0  0  0  0  0  0
    0.5957   -1.3902    0.0000 H   0  0  0  0  0  0  0  0  0  0  0  0
    0.2823   -1.5428    0.0000 H   0  0  0  0  0  0  0  0  0  0  0  0
   -0.8838   -1.7748    0.0000 H   0  0  0  0  0  0  0  0  0  0  0  0
   -2.0559   -0.0296    0.0000 H   0  0  0  0  0  0  0  0  0  0  0  0
   -2.2879   -1.1957    0.0000 H   0  0  0  0  0  0  0  0  0  0  0  0
   -0.1237    1.0152    0.0000 H   0  0  0  0  0  0  0  0  0  0  0  0
    0.9879    0.8950    0.0000 H   0  0  0  0  0  0  0  0  0  0  0  0
    0.3112   -0.4095    0.0000 H   0  0  0  0  0  0  0  0  0  0  0  0
    1.9985   -2.3885    0.0000 H   0  0  0  0  0  0  0  0  0  0  0  0
    2.8877   -0.7625    0.0000 H   0  0  0  0  0  0  0  0  0  0  0  0
    2.9125   -1.8322    0.0000 H   0  0  0  0  0  0  0  0  0  0  0  0
  1  2  1  0  0  0  0
  1  9  1  0  0  0  0
  1  6  1  0  0  0  0
  1 14  1  0  0  0  0
  2  3  1  0  0  0  0
  2 15  1  0  0  0  0
  2 16  1  0  0  0  0
  3  4  1  0  0  0  0
  3 17  1  0  0  0  0
  3 18  1  0  0  0  0
  4  5  1  0  0  0  0
  4  7  1  0  0  0  0
  5  9  1  0  0  0  0
  5 19  1  0  0  0  0
  5 20  1  0  0  0  0
  6  7  1  0  0  0  0
  6 21  1  0  0  0  0
  6 22  1  0  0  0  0
  7 23  1  0  0  0  0
  7 24  1  0  0  0  0
  8  9  1  0  0  0  0
  8 12  1  0  0  0  0
  8 25  1  0  0  0  0
  8 26  1  0  0  0  0
  9 10  1  1  0  0  0
 10 11  1  0  0  0  0
 11 12  1  0  0  0  0
 11 13  1  0  0  0  0
 11 27  1  0  0  0  0
 13 28  1  0  0  0  0
 13 29  1  0  0  0  0
 13 30  1  0  0  0  0
M  END
>  <DRUGBANK_ID>
DB00185

>  <SECONDARY_ACCESSION_NUMBERS>
APRD00224

>  <COMMON_NAME>
Cevimeline

>  <CAS_NUMBER>
107233-08-9

>  <UNII>
K9V0CDQ56E

>  <SYNONYMS>
2-Methyspiro(1,3-oxathiolane-5,3)quinuclidine; Cevimelina; Cévimèline; Cevimeline; Cevimelinum

$$$$
