MQ1
 OpenBabel10282417072D

 35 37  0  0  0  0  0  0  0  0999 V2000
   -0.9766   -1.7329    0.0000 C   0  0  0  0  0  0  0  0  0  0  0  0
   -0.9766   -0.9079    0.0000 C   0  0  0  0  0  0  0  0  0  0  0  0
   -1.6911   -0.4954    0.0000 C   0  0  0  0  0  0  0  0  0  0  0  0
   -2.4056   -0.9079    0.0000 N   0  0  0  0  0  0  0  0  0  0  0  0
   -2.4056   -1.7329    0.0000 C   0  0  0  0  0  0  0  0  0  0  0  0
   -1.6911   -2.1454    0.0000 N   0  0  0  0  0  0  0  0  0  0  0  0
   -1.6911    0.3296    0.0000 N   0  0  0  0  0  0  0  0  0  0  0  0
   -0.2622   -2.1454    0.0000 C   0  0  0  0  0  0  0  0  0  0  0  0
    0.4523   -1.7329    0.0000 C   0  0  0  0  0  0  0  0  0  0  0  0
    0.4523   -0.9079    0.0000 C   0  0  0  0  0  0  0  0  0  0  0  0
   -0.2622   -0.4954    0.0000 C   0  0  0  0  0  0  0  0  0  0  0  0
   -3.1200   -2.1454    0.0000 N   0  0  0  0  0  0  0  0  0  0  0  0
   -0.2622    0.3296    0.0000 O   0  0  0  0  0  0  0  0  0  0  0  0
    0.4523    0.7421    0.0000 C   0  0  0  0  0  0  0  0  0  0  0  0
    0.4523    1.5671    0.0000 C   0  0  0  0  0  0  0  0  0  0  0  0
    1.1668    1.9796    0.0000 C   0  0  0  0  0  0  0  0  0  0  0  0
    1.8813    1.5671    0.0000 C   0  0  0  0  0  0  0  0  0  0  0  0
    1.8813    0.7421    0.0000 C   0  0  0  0  0  0  0  0  0  0  0  0
    1.1668    0.3296    0.0000 C   0  0  0  0  0  0  0  0  0  0  0  0
    2.5957    1.9796    0.0000 O   0  0  0  0  0  0  0  0  0  0  0  0
    2.5957    2.8046    0.0000 C   0  0  0  0  0  0  0  0  0  0  0  0
   -0.8385    0.8219    0.0000 H   0  0  0  0  0  0  0  0  0  0  0  0
   -2.5437    0.8218    0.0000 H   0  0  0  0  0  0  0  0  0  0  0  0
   -0.2622   -3.1774    0.0000 H   0  0  0  0  0  0  0  0  0  0  0  0
    1.3460   -2.2489    0.0000 H   0  0  0  0  0  0  0  0  0  0  0  0
    1.3460   -0.3919    0.0000 H   0  0  0  0  0  0  0  0  0  0  0  0
   -3.9726   -1.6532    0.0000 H   0  0  0  0  0  0  0  0  0  0  0  0
   -3.1200   -3.1299    0.0000 H   0  0  0  0  0  0  0  0  0  0  0  0
   -0.4414    2.0831    0.0000 H   0  0  0  0  0  0  0  0  0  0  0  0
    1.1668    3.0116    0.0000 H   0  0  0  0  0  0  0  0  0  0  0  0
    2.7750    0.2261    0.0000 H   0  0  0  0  0  0  0  0  0  0  0  0
    1.1668   -0.7024    0.0000 H   0  0  0  0  0  0  0  0  0  0  0  0
    3.5223    3.3396    0.0000 H   0  0  0  0  0  0  0  0  0  0  0  0
    1.6691    3.3396    0.0000 H   0  0  0  0  0  0  0  0  0  0  0  0
    2.5957    3.8746    0.0000 H   0  0  0  0  0  0  0  0  0  0  0  0
  1  2  1  0  0  0  0
  1  6  2  0  0  0  0
  1  8  1  0  0  0  0
  2  3  2  0  0  0  0
  2 11  1  0  0  0  0
  3  4  1  0  0  0  0
  3  7  1  0  0  0  0
  4  5  2  0  0  0  0
  5  6  1  0  0  0  0
  5 12  1  0  0  0  0
  7 22  1  0  0  0  0
  7 23  1  0  0  0  0
  8  9  2  0  0  0  0
  8 24  1  0  0  0  0
  9 10  1  0  0  0  0
  9 25  1  0  0  0  0
 10 11  2  0  0  0  0
 10 26  1  0  0  0  0
 11 13  1  0  0  0  0
 12 27  1  0  0  0  0
 12 28  1  0  0  0  0
 13 14  1  0  0  0  0
 14 15  2  0  0  0  0
 14 19  1  0  0  0  0
 15 16  1  0  0  0  0
 15 29  1  0  0  0  0
 16 17  2  0  0  0  0
 16 30  1  0  0  0  0
 17 18  1  0  0  0  0
 17 20  1  0  0  0  0
 18 19  2  0  0  0  0
 18 31  1  0  0  0  0
 19 32  1  0  0  0  0
 20 21  1  0  0  0  0
 21 33  1  0  0  0  0
 21 34  1  0  0  0  0
 21 35  1  0  0  0  0
M  END
>  <DRUGBANK_ID>
DB02402

>  <SECONDARY_ACCESSION_NUMBERS>
EXPT02228

>  <COMMON_NAME>
5-(4-Methoxyphenoxy)-2,4-Quinazolinediamine

$$$$
