16U
 OpenBabel10282417072D

 48 49  0  0  0  0  0  0  0  0999 V2000
   -2.0375    0.6182    0.0000 C   0  0  0  0  0  0  0  0  0  0  0  0
   -2.7520    1.0307    0.0000 C   0  0  0  0  0  0  0  0  0  0  0  0
   -3.4665    0.6182    0.0000 C   0  0  0  0  0  0  0  0  0  0  0  0
   -2.7520    1.8557    0.0000 C   0  0  0  0  0  0  0  0  0  0  0  0
   -0.2936   -4.1888    0.0000 Cl  0  0  0  0  0  0  0  0  0  0  0  0
   -1.3230    1.0307    0.0000 C   0  0  0  0  0  0  0  0  0  0  0  0
   -0.6086    0.6182    0.0000 C   0  0  0  0  0  0  0  0  0  0  0  0
   -0.6086   -0.2068    0.0000 O   0  0  0  0  0  0  0  0  0  0  0  0
    0.1059    1.0307    0.0000 N   0  0  0  0  0  0  0  0  0  0  0  0
    0.1921    1.8512    0.0000 C   0  0  0  0  0  0  0  0  0  0  0  0
    0.9991    2.0227    0.0000 C   0  0  0  0  0  0  0  0  0  0  0  0
    1.4116    1.3083    0.0000 C   0  0  0  0  0  0  0  0  0  0  0  0
    0.8596    0.6952    0.0000 C   0  0  1  0  0  0  0  0  0  0  0  0
    1.0311   -0.1118    0.0000 C   0  0  0  0  0  0  0  0  0  0  0  0
    0.4180   -0.6638    0.0000 N   0  0  0  0  0  0  0  0  0  0  0  0
    0.5895   -1.4708    0.0000 C   0  0  0  0  0  0  0  0  0  0  0  0
   -0.0236   -2.0228    0.0000 C   0  0  0  0  0  0  0  0  0  0  0  0
    0.1480   -2.8298    0.0000 C   0  0  0  0  0  0  0  0  0  0  0  0
   -0.4651   -3.3818    0.0000 C   0  0  0  0  0  0  0  0  0  0  0  0
   -1.2497   -3.1269    0.0000 C   0  0  0  0  0  0  0  0  0  0  0  0
   -1.4213   -2.3199    0.0000 C   0  0  0  0  0  0  0  0  0  0  0  0
   -0.8082   -1.7679    0.0000 C   0  0  0  0  0  0  0  0  0  0  0  0
    1.8157   -0.3667    0.0000 O   0  0  0  0  0  0  0  0  0  0  0  0
    0.4058    0.3277    0.0000 H   0  0  0  0  0  0  0  0  0  0  0  0
   -2.0375   -0.4518    0.0000 H   0  0  0  0  0  0  0  0  0  0  0  0
   -1.1109    0.0832    0.0000 H   0  0  0  0  0  0  0  0  0  0  0  0
   -3.6786    1.5657    0.0000 H   0  0  0  0  0  0  0  0  0  0  0  0
   -4.3931    1.1532    0.0000 H   0  0  0  0  0  0  0  0  0  0  0  0
   -3.4665   -0.4518    0.0000 H   0  0  0  0  0  0  0  0  0  0  0  0
   -4.3932    0.0832    0.0000 H   0  0  0  0  0  0  0  0  0  0  0  0
   -1.8254    2.3907    0.0000 H   0  0  0  0  0  0  0  0  0  0  0  0
   -3.6786    2.3907    0.0000 H   0  0  0  0  0  0  0  0  0  0  0  0
   -2.7520    2.9257    0.0000 H   0  0  0  0  0  0  0  0  0  0  0  0
   -1.3230    2.1007    0.0000 H   0  0  0  0  0  0  0  0  0  0  0  0
   -0.3963    1.5657    0.0000 H   0  0  0  0  0  0  0  0  0  0  0  0
   -0.6031    2.5672    0.0000 H   0  0  0  0  0  0  0  0  0  0  0  0
    0.4691    2.8847    0.0000 H   0  0  0  0  0  0  0  0  0  0  0  0
    1.4343    3.0002    0.0000 H   0  0  0  0  0  0  0  0  0  0  0  0
    2.0676    2.0787    0.0000 H   0  0  0  0  0  0  0  0  0  0  0  0
    2.4757    1.1965    0.0000 H   0  0  0  0  0  0  0  0  0  0  0  0
    1.7951    0.3094    0.0000 H   0  0  0  0  0  0  0  0  0  0  0  0
   -0.5183   -0.3595    0.0000 H   0  0  0  0  0  0  0  0  0  0  0  0
    1.6071   -1.8015    0.0000 H   0  0  0  0  0  0  0  0  0  0  0  0
    0.8119   -2.5174    0.0000 H   0  0  0  0  0  0  0  0  0  0  0  0
    1.1295   -3.1487    0.0000 H   0  0  0  0  0  0  0  0  0  0  0  0
   -2.0166   -3.8175    0.0000 H   0  0  0  0  0  0  0  0  0  0  0  0
   -2.4028   -2.0010    0.0000 H   0  0  0  0  0  0  0  0  0  0  0  0
   -1.0228   -0.7585    0.0000 H   0  0  0  0  0  0  0  0  0  0  0  0
  1  2  1  0  0  0  0
  1  6  1  0  0  0  0
  1 25  1  0  0  0  0
  1 26  1  0  0  0  0
  2  3  1  0  0  0  0
  2  4  1  0  0  0  0
  2 27  1  0  0  0  0
  3 28  1  0  0  0  0
  3 29  1  0  0  0  0
  3 30  1  0  0  0  0
  4 31  1  0  0  0  0
  4 32  1  0  0  0  0
  4 33  1  0  0  0  0
  5 19  1  0  0  0  0
  6  7  1  0  0  0  0
  6 34  1  0  0  0  0
  6 35  1  0  0  0  0
  7  8  2  0  0  0  0
  7  9  1  0  0  0  0
  9 10  1  0  0  0  0
  9 13  1  0  0  0  0
 10 11  1  0  0  0  0
 10 36  1  0  0  0  0
 10 37  1  0  0  0  0
 11 12  1  0  0  0  0
 11 38  1  0  0  0  0
 11 39  1  0  0  0  0
 12 13  1  0  0  0  0
 12 40  1  0  0  0  0
 12 41  1  0  0  0  0
 13 14  1  0  0  0  0
 13 24  1  6  0  0  0
 14 15  1  0  0  0  0
 14 23  2  0  0  0  0
 15 16  1  0  0  0  0
 15 42  1  0  0  0  0
 16 17  1  0  0  0  0
 16 43  1  0  0  0  0
 16 44  1  0  0  0  0
 17 18  2  0  0  0  0
 17 22  1  0  0  0  0
 18 19  1  0  0  0  0
 18 45  1  0  0  0  0
 19 20  2  0  0  0  0
 20 21  1  0  0  0  0
 20 46  1  0  0  0  0
 21 22  2  0  0  0  0
 21 47  1  0  0  0  0
 22 48  1  0  0  0  0
M  END
>  <DRUGBANK_ID>
DB06868

>  <COMMON_NAME>
N-(3-chlorobenzyl)-1-(4-methylpentanoyl)-L-prolinamide

$$$$
