
 OpenBabel10282417072D

 50 52  0  0  1  0  0  0  0  0999 V2000
   -0.5230   -1.9519    0.0000 C   0  0  0  0  0  0  0  0  0  0  0  0
    0.3019   -1.9519    0.0000 O   0  0  0  0  0  0  0  0  0  0  0  0
    0.7144   -1.2375    0.0000 C   0  0  0  0  0  0  0  0  0  0  0  0
    1.4289   -1.6500    0.0000 C   0  0  2  0  0  0  0  0  0  0  0  0
    2.1434   -1.2375    0.0000 O   0  0  0  0  0  0  0  0  0  0  0  0
    2.8578   -1.6500    0.0000 C   0  0  0  0  0  0  0  0  0  0  0  0
    3.5723   -1.2375    0.0000 N   0  0  0  0  0  0  0  0  0  0  0  0
    4.2868   -1.6500    0.0000 C   0  0  0  0  0  0  0  0  0  0  0  0
    5.0012   -1.2375    0.0000 C   0  0  0  0  0  0  0  0  0  0  0  0
    4.2868   -2.4750    0.0000 C   0  0  0  0  0  0  0  0  0  0  0  0
    3.5723   -2.8875    0.0000 C   0  0  0  0  0  0  0  0  0  0  0  0
    3.5723   -3.7125    0.0000 C   0  0  0  0  0  0  0  0  0  0  0  0
    2.8578   -2.4750    0.0000 N   0  0  0  0  0  0  0  0  0  0  0  0
    1.4289   -2.4750    0.0000 C   0  0  0  0  0  0  0  0  0  0  0  0
    2.1434   -2.8875    0.0000 O   0  0  0  0  0  0  0  0  0  0  0  0
    0.7144   -2.8875    0.0000 O   0  0  0  0  0  0  0  0  0  0  0  0
    0.0000   -0.8250    0.0000 C   0  0  0  0  0  0  0  0  0  0  0  0
   -0.7144   -1.2375    0.0000 C   0  0  0  0  0  0  0  0  0  0  0  0
   -1.4289   -0.8250    0.0000 C   0  0  0  0  0  0  0  0  0  0  0  0
   -1.4289    0.0000    0.0000 C   0  0  0  0  0  0  0  0  0  0  0  0
   -0.7144    0.4125    0.0000 C   0  0  0  0  0  0  0  0  0  0  0  0
    0.0000    0.0000    0.0000 C   0  0  0  0  0  0  0  0  0  0  0  0
    1.1269   -0.5230    0.0000 C   0  0  0  0  0  0  0  0  0  0  0  0
    0.7144    0.1914    0.0000 C   0  0  0  0  0  0  0  0  0  0  0  0
    1.1269    0.9059    0.0000 C   0  0  0  0  0  0  0  0  0  0  0  0
    1.9519    0.9059    0.0000 C   0  0  0  0  0  0  0  0  0  0  0  0
    2.3644    0.1914    0.0000 C   0  0  0  0  0  0  0  0  0  0  0  0
    1.9519   -0.5230    0.0000 C   0  0  0  0  0  0  0  0  0  0  0  0
   -1.0580   -1.0253    0.0000 H   0  0  0  0  0  0  0  0  0  0  0  0
   -1.0580   -2.8785    0.0000 H   0  0  0  0  0  0  0  0  0  0  0  0
   -1.5930   -1.9519    0.0000 H   0  0  0  0  0  0  0  0  0  0  0  0
    1.4289   -0.5800    0.0000 H   0  0  0  0  0  0  0  0  0  0  0  0
    5.9279   -1.7725    0.0000 H   0  0  0  0  0  0  0  0  0  0  0  0
    5.0012   -0.1675    0.0000 H   0  0  0  0  0  0  0  0  0  0  0  0
    5.9278   -0.7025    0.0000 H   0  0  0  0  0  0  0  0  0  0  0  0
    5.1805   -2.9910    0.0000 H   0  0  0  0  0  0  0  0  0  0  0  0
    2.6457   -4.2475    0.0000 H   0  0  0  0  0  0  0  0  0  0  0  0
    4.4989   -4.2475    0.0000 H   0  0  0  0  0  0  0  0  0  0  0  0
    3.5723   -4.7825    0.0000 H   0  0  0  0  0  0  0  0  0  0  0  0
   -0.0971   -2.4190    0.0000 H   0  0  0  0  0  0  0  0  0  0  0  0
   -0.7144   -2.2695    0.0000 H   0  0  0  0  0  0  0  0  0  0  0  0
   -2.3226   -1.3410    0.0000 H   0  0  0  0  0  0  0  0  0  0  0  0
   -2.3226    0.5160    0.0000 H   0  0  0  0  0  0  0  0  0  0  0  0
   -0.7144    1.4445    0.0000 H   0  0  0  0  0  0  0  0  0  0  0  0
    0.8937    0.5160    0.0000 H   0  0  0  0  0  0  0  0  0  0  0  0
   -0.3176    0.1914    0.0000 H   0  0  0  0  0  0  0  0  0  0  0  0
    0.6109    1.7996    0.0000 H   0  0  0  0  0  0  0  0  0  0  0  0
    2.4679    1.7996    0.0000 H   0  0  0  0  0  0  0  0  0  0  0  0
    3.3964    0.1914    0.0000 H   0  0  0  0  0  0  0  0  0  0  0  0
    2.4679   -1.4167    0.0000 H   0  0  0  0  0  0  0  0  0  0  0  0
  1  2  1  0  0  0  0
  1 29  1  0  0  0  0
  1 30  1  0  0  0  0
  1 31  1  0  0  0  0
  2  3  1  0  0  0  0
  3  4  1  0  0  0  0
  3 17  1  0  0  0  0
  3 23  1  0  0  0  0
  4  5  1  0  0  0  0
  4 14  1  0  0  0  0
  4 32  1  1  0  0  0
  5  6  1  0  0  0  0
  6  7  2  0  0  0  0
  6 13  1  0  0  0  0
  7  8  1  0  0  0  0
  8  9  1  0  0  0  0
  8 10  2  0  0  0  0
  9 33  1  0  0  0  0
  9 34  1  0  0  0  0
  9 35  1  0  0  0  0
 10 11  1  0  0  0  0
 10 36  1  0  0  0  0
 11 12  1  0  0  0  0
 11 13  2  0  0  0  0
 12 37  1  0  0  0  0
 12 38  1  0  0  0  0
 12 39  1  0  0  0  0
 14 15  2  0  0  0  0
 14 16  1  0  0  0  0
 16 40  1  0  0  0  0
 17 18  2  0  0  0  0
 17 22  1  0  0  0  0
 18 19  1  0  0  0  0
 18 41  1  0  0  0  0
 19 20  2  0  0  0  0
 19 42  1  0  0  0  0
 20 21  1  0  0  0  0
 20 43  1  0  0  0  0
 21 22  2  0  0  0  0
 21 44  1  0  0  0  0
 22 45  1  0  0  0  0
 23 24  2  0  0  0  0
 23 28  1  0  0  0  0
 24 25  1  0  0  0  0
 24 46  1  0  0  0  0
 25 26  2  0  0  0  0
 25 47  1  0  0  0  0
 26 27  1  0  0  0  0
 26 48  1  0  0  0  0
 27 28  2  0  0  0  0
 27 49  1  0  0  0  0
 28 50  1  0  0  0  0
M  END
>  <DRUGBANK_ID>
DB06403

>  <COMMON_NAME>
Ambrisentan

>  <CAS_NUMBER>
177036-94-1

>  <UNII>
HW6NV07QEC

>  <SYNONYMS>
(2S)-2-[(4,6-dimethylpyrimidin-2-yl)oxy]-3-methoxy- 3,3-diphenylpropanoic acid; Ambrisentan

$$$$
