W91
 OpenBabel10282417072D

 39 41  0  0  0  0  0  0  0  0999 V2000
   -3.6565    1.6596    0.0000 C   0  0  0  0  0  0  0  0  0  0  0  0
   -3.9920    2.4132    0.0000 C   0  0  0  0  0  0  0  0  0  0  0  0
   -2.8495    1.4880    0.0000 C   0  0  0  0  0  0  0  0  0  0  0  0
   -2.7633    0.6676    0.0000 C   0  0  0  0  0  0  0  0  0  0  0  0
   -3.5169    0.3320    0.0000 O   0  0  0  0  0  0  0  0  0  0  0  0
   -4.0690    0.9451    0.0000 N   0  0  0  0  0  0  0  0  0  0  0  0
   -2.0488    0.2551    0.0000 C   0  0  0  0  0  0  0  0  0  0  0  0
   -1.3343    0.6676    0.0000 C   0  0  0  0  0  0  0  0  0  0  0  0
   -0.6198    0.2551    0.0000 C   0  0  0  0  0  0  0  0  0  0  0  0
    0.0946    0.6676    0.0000 O   0  0  0  0  0  0  0  0  0  0  0  0
    0.8091    0.2551    0.0000 C   0  0  0  0  0  0  0  0  0  0  0  0
    1.5236    0.6676    0.0000 C   0  0  0  0  0  0  0  0  0  0  0  0
    1.5236    1.4926    0.0000 Cl  0  0  0  0  0  0  0  0  0  0  0  0
    2.2380    0.2551    0.0000 C   0  0  0  0  0  0  0  0  0  0  0  0
    2.2380   -0.5699    0.0000 C   0  0  0  0  0  0  0  0  0  0  0  0
    1.5236   -0.9824    0.0000 C   0  0  0  0  0  0  0  0  0  0  0  0
    0.8091   -0.5699    0.0000 C   0  0  0  0  0  0  0  0  0  0  0  0
    0.0946   -0.9824    0.0000 Cl  0  0  0  0  0  0  0  0  0  0  0  0
    2.9525   -0.9824    0.0000 C   0  0  0  0  0  0  0  0  0  0  0  0
    3.7062   -0.6469    0.0000 N   0  0  0  0  0  0  0  0  0  0  0  0
    4.2582   -1.2600    0.0000 C   0  0  0  0  0  0  0  0  0  0  0  0
    3.8457   -1.9744    0.0000 C   0  0  0  0  0  0  0  0  0  0  0  0
    3.0387   -1.8029    0.0000 O   0  0  0  0  0  0  0  0  0  0  0  0
   -3.3630    3.2788    0.0000 H   0  0  0  0  0  0  0  0  0  0  0  0
   -5.0561    2.5251    0.0000 H   0  0  0  0  0  0  0  0  0  0  0  0
   -4.4272    3.3907    0.0000 H   0  0  0  0  0  0  0  0  0  0  0  0
   -2.0825    2.1785    0.0000 H   0  0  0  0  0  0  0  0  0  0  0  0
   -2.0488   -0.8149    0.0000 H   0  0  0  0  0  0  0  0  0  0  0  0
   -1.1222   -0.2799    0.0000 H   0  0  0  0  0  0  0  0  0  0  0  0
   -1.3343    1.7376    0.0000 H   0  0  0  0  0  0  0  0  0  0  0  0
   -0.4077    1.2026    0.0000 H   0  0  0  0  0  0  0  0  0  0  0  0
   -0.6198   -0.8149    0.0000 H   0  0  0  0  0  0  0  0  0  0  0  0
    0.3069   -0.2799    0.0000 H   0  0  0  0  0  0  0  0  0  0  0  0
    3.1317    0.7711    0.0000 H   0  0  0  0  0  0  0  0  0  0  0  0
    1.5236   -2.0144    0.0000 H   0  0  0  0  0  0  0  0  0  0  0  0
    5.3223   -1.1482    0.0000 H   0  0  0  0  0  0  0  0  0  0  0  0
    4.8409   -2.1574    0.0000 H   0  0  0  0  0  0  0  0  0  0  0  0
    4.2809   -2.9519    0.0000 H   0  0  0  0  0  0  0  0  0  0  0  0
    3.1723   -2.8060    0.0000 H   0  0  0  0  0  0  0  0  0  0  0  0
  1  2  1  0  0  0  0
  1  3  1  0  0  0  0
  1  6  2  0  0  0  0
  2 24  1  0  0  0  0
  2 25  1  0  0  0  0
  2 26  1  0  0  0  0
  3  4  2  0  0  0  0
  3 27  1  0  0  0  0
  4  5  1  0  0  0  0
  4  7  1  0  0  0  0
  5  6  1  0  0  0  0
  7  8  1  0  0  0  0
  7 28  1  0  0  0  0
  7 29  1  0  0  0  0
  8  9  1  0  0  0  0
  8 30  1  0  0  0  0
  8 31  1  0  0  0  0
  9 10  1  0  0  0  0
  9 32  1  0  0  0  0
  9 33  1  0  0  0  0
 10 11  1  0  0  0  0
 11 12  2  0  0  0  0
 11 17  1  0  0  0  0
 12 13  1  0  0  0  0
 12 14  1  0  0  0  0
 14 15  2  0  0  0  0
 14 34  1  0  0  0  0
 15 16  1  0  0  0  0
 15 19  1  0  0  0  0
 16 17  2  0  0  0  0
 16 35  1  0  0  0  0
 17 18  1  0  0  0  0
 19 20  2  0  0  0  0
 19 23  1  0  0  0  0
 20 21  1  0  0  0  0
 21 22  1  0  0  0  0
 21 36  1  0  0  0  0
 21 37  1  0  0  0  0
 22 23  1  0  0  0  0
 22 38  1  0  0  0  0
 22 39  1  0  0  0  0
M  END
>  <DRUGBANK_ID>
DB08728

>  <COMMON_NAME>
5-(3-(2,6-dichloro-4-(4,5-dihydro-2-oxazolyl)phenoxy)propyl)-3-methyl isoxazole

>  <UNII>
TVM6INF0BB

$$$$
