
 OpenBabel10282417072D

 60 64  0  0  0  0  0  0  0  0999 V2000
   -1.7866   -0.8220    0.0000 C   0  0  0  0  0  0  0  0  0  0  0  0
   -1.7866   -1.6470    0.0000 C   0  0  2  0  0  0  0  0  0  0  0  0
   -1.0746   -2.0552    0.0000 C   0  0  0  0  0  0  0  0  0  0  0  0
   -1.0746   -0.4053    0.0000 C   0  0  1  0  0  0  0  0  0  0  0  0
   -0.3627   -0.8220    0.0000 C   0  0  0  0  0  0  0  0  0  0  0  0
   -0.3662   -1.6470    0.0000 C   0  0  0  0  0  0  0  0  0  0  0  0
    0.3425   -2.0601    0.0000 C   0  0  0  0  0  0  0  0  0  0  0  0
    0.3495   -0.4102    0.0000 C   0  0  0  0  0  0  0  0  0  0  0  0
    1.0627   -0.8281    0.0000 C   0  0  0  0  0  0  0  0  0  0  0  0
    1.0589   -1.6555    0.0000 C   0  0  0  0  0  0  0  0  0  0  0  0
    1.7697   -2.0702    0.0000 C   0  0  0  0  0  0  0  0  0  0  0  0
    1.7773   -0.4153    0.0000 C   0  0  0  0  0  0  0  0  0  0  0  0
    2.4925   -0.8347    0.0000 C   0  0  0  0  0  0  0  0  0  0  0  0
    2.4879   -1.6638    0.0000 C   0  0  0  0  0  0  0  0  0  0  0  0
    3.1996   -2.0799    0.0000 C   0  0  0  0  0  0  0  0  0  0  0  0
    3.9205   -1.6717    0.0000 C   0  0  0  0  0  0  0  0  0  0  0  0
    3.9251   -0.8427    0.0000 C   0  0  0  0  0  0  0  0  0  0  0  0
    3.2090   -0.4217    0.0000 C   0  0  0  0  0  0  0  0  0  0  0  0
   -1.7908   -2.4719    0.0000 N   0  0  0  0  0  0  0  0  0  0  0  0
   -2.5865   -1.4303    0.0000 C   0  0  0  0  0  0  0  0  0  0  0  0
   -2.7978   -0.6328    0.0000 O   0  0  0  0  0  0  0  0  0  0  0  0
   -3.1713   -2.0120    0.0000 C   0  0  0  0  0  0  0  0  0  0  0  0
   -1.0746    0.4194    0.0000 O   0  0  0  0  0  0  0  0  0  0  0  0
   -1.7891    0.8320    0.0000 C   0  0  1  0  0  0  0  0  0  0  0  0
   -1.7852    1.6579    0.0000 C   0  0  0  0  0  0  0  0  0  0  0  0
   -2.4955    2.0702    0.0000 C   0  0  1  0  0  0  0  0  0  0  0  0
   -3.2124    1.6613    0.0000 C   0  0  1  0  0  0  0  0  0  0  0  0
   -3.2143    0.8354    0.0000 C   0  0  0  0  0  0  0  0  0  0  0  0
   -2.4994    0.4183    0.0000 O   0  0  0  0  0  0  0  0  0  0  0  0
   -3.9251    2.0764    0.0000 O   0  0  0  0  0  0  0  0  0  0  0  0
   -2.4923    2.8952    0.0000 O   0  0  0  0  0  0  0  0  0  0  0  0
   -0.3659    0.0112    0.0000 H   0  0  0  0  0  0  0  0  0  0  0  0
    0.3519    0.4145    0.0000 O   0  0  0  0  0  0  0  0  0  0  0  0
    0.3368   -2.8851    0.0000 O   0  0  0  0  0  0  0  0  0  0  0  0
    1.7800    0.4094    0.0000 O   0  0  0  0  0  0  0  0  0  0  0  0
    1.7642   -2.8952    0.0000 O   0  0  0  0  0  0  0  0  0  0  0  0
   -2.7148   -0.2897    0.0000 H   0  0  0  0  0  0  0  0  0  0  0  0
   -1.7913    0.2480    0.0000 H   0  0  0  0  0  0  0  0  0  0  0  0
   -1.0734   -3.1252    0.0000 H   0  0  0  0  0  0  0  0  0  0  0  0
   -2.0001   -2.5921    0.0000 H   0  0  0  0  0  0  0  0  0  0  0  0
    3.1925   -3.1119    0.0000 H   0  0  0  0  0  0  0  0  0  0  0  0
    4.8106   -2.1939    0.0000 H   0  0  0  0  0  0  0  0  0  0  0  0
    4.8223   -0.3327    0.0000 H   0  0  0  0  0  0  0  0  0  0  0  0
    3.2134    0.6103    0.0000 H   0  0  0  0  0  0  0  0  0  0  0  0
   -2.6767   -2.9774    0.0000 H   0  0  0  0  0  0  0  0  0  0  0  0
   -0.9101   -2.9864    0.0000 H   0  0  0  0  0  0  0  0  0  0  0  0
   -4.2041   -1.7323    0.0000 H   0  0  0  0  0  0  0  0  0  0  0  0
   -2.8971   -3.0463    0.0000 H   0  0  0  0  0  0  0  0  0  0  0  0
   -3.9299   -2.7666    0.0000 H   0  0  0  0  0  0  0  0  0  0  0  0
   -0.8612    1.3648    0.0000 H   0  0  0  0  0  0  0  0  0  0  0  0
   -0.8567    2.1896    0.0000 H   0  0  0  0  0  0  0  0  0  0  0  0
   -1.7821    2.7279    0.0000 H   0  0  0  0  0  0  0  0  0  0  0  0
   -1.5672    2.6023    0.0000 H   0  0  0  0  0  0  0  0  0  0  0  0
   -3.2076    2.7313    0.0000 H   0  0  0  0  0  0  0  0  0  0  0  0
   -4.1428    0.3036    0.0000 H   0  0  0  0  0  0  0  0  0  0  0  0
   -3.2186   -0.2346    0.0000 H   0  0  0  0  0  0  0  0  0  0  0  0
   -3.9214    3.0464    0.0000 H   0  0  0  0  0  0  0  0  0  0  0  0
   -1.6504    3.3769    0.0000 H   0  0  0  0  0  0  0  0  0  0  0  0
    1.1647    0.8806    0.0000 H   0  0  0  0  0  0  0  0  0  0  0  0
   -0.4779   -3.3480    0.0000 H   0  0  0  0  0  0  0  0  0  0  0  0
  1  2  1  0  0  0  0
  1  4  1  0  0  0  0
  1 37  1  0  0  0  0
  1 38  1  0  0  0  0
  2 19  1  0  0  0  0
  2 20  1  1  0  0  0
  2  3  1  0  0  0  0
  3  6  1  0  0  0  0
  3 39  1  0  0  0  0
  3 40  1  0  0  0  0
  4 23  1  0  0  0  0
  4 32  1  1  0  0  0
  5  4  1  0  0  0  0
  5  6  2  0  0  0  0
  5  8  1  0  0  0  0
  6  7  1  0  0  0  0
  7 34  1  0  0  0  0
  7 10  2  0  0  0  0
  8 33  1  0  0  0  0
  9  8  2  0  0  0  0
  9 10  1  0  0  0  0
  9 12  1  0  0  0  0
 10 11  1  0  0  0  0
 11 14  1  0  0  0  0
 11 36  2  0  0  0  0
 12 35  2  0  0  0  0
 13 12  1  0  0  0  0
 13 14  1  0  0  0  0
 13 18  2  0  0  0  0
 14 15  2  0  0  0  0
 15 16  1  0  0  0  0
 15 41  1  0  0  0  0
 16 17  2  0  0  0  0
 16 42  1  0  0  0  0
 17 18  1  0  0  0  0
 17 43  1  0  0  0  0
 18 44  1  0  0  0  0
 19 45  1  0  0  0  0
 19 46  1  0  0  0  0
 20 21  2  0  0  0  0
 20 22  1  0  0  0  0
 22 47  1  0  0  0  0
 22 48  1  0  0  0  0
 22 49  1  0  0  0  0
 24 23  1  0  0  0  0
 24 25  1  0  0  0  0
 24 29  1  0  0  0  0
 24 50  1  1  0  0  0
 25 26  1  0  0  0  0
 25 51  1  0  0  0  0
 25 52  1  0  0  0  0
 26 27  1  0  0  0  0
 26 31  1  0  0  0  0
 26 53  1  6  0  0  0
 27 28  1  0  0  0  0
 27 30  1  0  0  0  0
 27 54  1  6  0  0  0
 28 29  1  0  0  0  0
 28 55  1  0  0  0  0
 28 56  1  0  0  0  0
 30 57  1  0  0  0  0
 31 58  1  0  0  0  0
 33 59  1  0  0  0  0
 34 60  1  0  0  0  0
M  END
>  <DRUGBANK_ID>
DB06263

>  <COMMON_NAME>
Amrubicin

>  <CAS_NUMBER>
110267-81-7

>  <UNII>
93N13LB4Z2

>  <SYNONYMS>
Amrubicin

$$$$
