
 OpenBabel10282417072D

 91 92  0  0  0  0  0  0  0  0999 V2000
    2.4476   -1.0300    0.0000 C   0  0  0  0  0  0  0  0  0  0  0  0
    1.0490   -1.0300    0.0000 N   0  0  0  0  0  0  0  0  0  0  0  0
    0.3242   -1.4368    0.0000 C   0  0  1  0  0  0  0  0  0  0  0  0
    2.4476   -0.1779    0.0000 N   0  0  0  0  0  0  0  0  0  0  0  0
    1.7482   -1.4368    0.0000 C   0  0  0  0  0  0  0  0  0  0  0  0
    1.0490   -3.5094    0.0000 C   0  0  0  0  0  0  0  0  0  0  0  0
    0.3242   -3.9036    0.0000 N   0  0  0  0  0  0  0  0  0  0  0  0
    2.4476    1.4242    0.0000 N   0  0  0  0  0  0  0  0  0  0  0  0
    1.0617    2.2634    0.0000 N   0  0  0  0  0  0  0  0  0  0  0  0
    0.3242   -2.2760    0.0000 C   0  0  2  0  0  0  0  0  0  0  0  0
    3.1851    0.2162    0.0000 C   0  0  0  0  0  0  0  0  0  0  0  0
    2.4476    2.2634    0.0000 C   0  0  0  0  0  0  0  0  0  0  0  0
    1.0617    1.4242    0.0000 C   0  0  0  0  0  0  0  0  0  0  0  0
    1.0490   -2.6448    0.0000 N   0  0  0  0  0  0  0  0  0  0  0  0
    1.7482    2.6703    0.0000 C   0  0  2  0  0  0  0  0  0  0  0  0
    3.1851    1.0300    0.0000 C   0  0  2  0  0  0  0  0  0  0  0  0
   -0.3878   -1.0300    0.0000 C   0  0  0  0  0  0  0  0  0  0  0  0
    0.3497    1.0300    0.0000 C   0  0  1  0  0  0  0  0  0  0  0  0
   -0.3878   -0.1779    0.0000 N   0  0  0  0  0  0  0  0  0  0  0  0
   -0.3878   -2.6448    0.0000 C   0  0  0  0  0  0  0  0  0  0  0  0
   -1.0490    1.0682    0.0000 C   0  0  0  0  0  0  0  0  0  0  0  0
    3.1851   -1.4368    0.0000 C   0  0  0  0  0  0  0  0  0  0  0  0
   -0.3878   -3.5094    0.0000 C   0  0  0  0  0  0  0  0  0  0  0  0
   -1.7483    1.4623    0.0000 C   0  0  0  0  0  0  0  0  0  0  0  0
   -0.3370    1.4623    0.0000 N   0  0  0  0  0  0  0  0  0  0  0  0
    4.6348   -1.4495    0.0000 C   0  0  0  0  0  0  0  0  0  0  0  0
    3.8718   -1.0300    0.0000 N   0  0  0  0  0  0  0  0  0  0  0  0
    1.7737   -3.9036    0.0000 N   0  0  0  0  0  0  0  0  0  0  0  0
    0.3497    0.2162    0.0000 C   0  0  0  0  0  0  0  0  0  0  0  0
   -2.4477    1.0682    0.0000 C   0  0  2  0  0  0  0  0  0  0  0  0
    1.7482   -2.2760    0.0000 O   0  0  0  0  0  0  0  0  0  0  0  0
    3.1851    2.6703    0.0000 O   0  0  0  0  0  0  0  0  0  0  0  0
    1.7482    1.0300    0.0000 O   0  0  0  0  0  0  0  0  0  0  0  0
    3.8718   -0.1779    0.0000 O   0  0  0  0  0  0  0  0  0  0  0  0
   -1.1253   -1.4495    0.0000 O   0  0  0  0  0  0  0  0  0  0  0  0
    4.6348   -2.2760    0.0000 O   0  0  0  0  0  0  0  0  0  0  0  0
   -1.0490    0.2416    0.0000 O   0  0  0  0  0  0  0  0  0  0  0  0
    5.3723   -1.0300    0.0000 N   0  0  0  0  0  0  0  0  0  0  0  0
   -3.2106    1.4878    0.0000 C   0  0  1  0  0  0  0  0  0  0  0  0
   -2.4477    0.2416    0.0000 N   0  0  0  0  0  0  0  0  0  0  0  0
    3.8718    1.4242    0.0000 C   0  0  0  0  0  0  0  0  0  0  0  0
    1.7482    3.5094    0.0000 C   0  0  0  0  0  0  0  0  0  0  0  0
   -3.9227    1.0682    0.0000 C   0  0  0  0  0  0  0  0  0  0  0  0
   -5.3723    1.0682    0.0000 N   0  0  0  0  0  0  0  0  0  0  0  0
    2.4476    3.9036    0.0000 O   0  0  0  0  0  0  0  0  0  0  0  0
    3.8718    2.2634    0.0000 O   0  0  0  0  0  0  0  0  0  0  0  0
   -4.6475    1.4623    0.0000 C   0  0  0  0  0  0  0  0  0  0  0  0
   -0.4386   -1.9200    0.0000 H   0  0  0  0  0  0  0  0  0  0  0  0
    1.0363   -1.8565    0.0000 H   0  0  0  0  0  0  0  0  0  0  0  0
   -3.2106    2.3142    0.0000 O   0  0  0  0  0  0  0  0  0  0  0  0
    1.0566   -0.0455    0.0000 H   0  0  0  0  0  0  0  0  0  0  0  0
    1.6032    0.3283    0.0000 H   0  0  0  0  0  0  0  0  0  0  0  0
    1.6032    0.9181    0.0000 H   0  0  0  0  0  0  0  0  0  0  0  0
    0.2063    2.7508    0.0000 H   0  0  0  0  0  0  0  0  0  0  0  0
    1.8883   -2.1302    0.0000 H   0  0  0  0  0  0  0  0  0  0  0  0
    0.8185    3.2000    0.0000 H   0  0  0  0  0  0  0  0  0  0  0  0
    3.1689    2.0999    0.0000 H   0  0  0  0  0  0  0  0  0  0  0  0
    1.2715    0.4867    0.0000 H   0  0  0  0  0  0  0  0  0  0  0  0
   -1.2322    0.3283    0.0000 H   0  0  0  0  0  0  0  0  0  0  0  0
   -1.3020   -2.0888    0.0000 H   0  0  0  0  0  0  0  0  0  0  0  0
   -1.3205   -3.1692    0.0000 H   0  0  0  0  0  0  0  0  0  0  0  0
    3.2010   -2.4687    0.0000 H   0  0  0  0  0  0  0  0  0  0  0  0
   -1.3096   -4.0527    0.0000 H   0  0  0  0  0  0  0  0  0  0  0  0
   -1.3168   -2.9786    0.0000 H   0  0  0  0  0  0  0  0  0  0  0  0
   -1.7483    2.5323    0.0000 H   0  0  0  0  0  0  0  0  0  0  0  0
   -2.6721    2.0022    0.0000 H   0  0  0  0  0  0  0  0  0  0  0  0
   -0.3093    2.4464    0.0000 H   0  0  0  0  0  0  0  0  0  0  0  0
    3.8560   -0.0456    0.0000 H   0  0  0  0  0  0  0  0  0  0  0  0
    1.7987   -4.8878    0.0000 H   0  0  0  0  0  0  0  0  0  0  0  0
    2.6135   -3.3898    0.0000 H   0  0  0  0  0  0  0  0  0  0  0  0
    1.2674   -0.3339    0.0000 H   0  0  0  0  0  0  0  0  0  0  0  0
    0.3234   -0.8535    0.0000 H   0  0  0  0  0  0  0  0  0  0  0  0
   -1.5239    0.5284    0.0000 H   0  0  0  0  0  0  0  0  0  0  0  0
    6.2217   -1.5277    0.0000 H   0  0  0  0  0  0  0  0  0  0  0  0
    5.3786   -0.0455    0.0000 H   0  0  0  0  0  0  0  0  0  0  0  0
   -2.2896    2.0324    0.0000 H   0  0  0  0  0  0  0  0  0  0  0  0
   -3.3310   -0.2684    0.0000 H   0  0  0  0  0  0  0  0  0  0  0  0
   -1.5644   -0.2684    0.0000 H   0  0  0  0  0  0  0  0  0  0  0  0
    4.7978    0.8881    0.0000 H   0  0  0  0  0  0  0  0  0  0  0  0
    4.7988    1.9586    0.0000 H   0  0  0  0  0  0  0  0  0  0  0  0
    0.8243    4.0492    0.0000 H   0  0  0  0  0  0  0  0  0  0  0  0
    1.7565    4.5794    0.0000 H   0  0  0  0  0  0  0  0  0  0  0  0
   -3.9043   -0.0016    0.0000 H   0  0  0  0  0  0  0  0  0  0  0  0
   -4.8377    0.5135    0.0000 H   0  0  0  0  0  0  0  0  0  0  0  0
   -6.2423    1.6006    0.0000 H   0  0  0  0  0  0  0  0  0  0  0  0
   -5.3984    0.0485    0.0000 H   0  0  0  0  0  0  0  0  0  0  0  0
    3.2826    3.4099    0.0000 H   0  0  0  0  0  0  0  0  0  0  0  0
    4.7118    2.7484    0.0000 H   0  0  0  0  0  0  0  0  0  0  0  0
   -4.6475    2.5323    0.0000 H   0  0  0  0  0  0  0  0  0  0  0  0
   -5.5672    2.0091    0.0000 H   0  0  0  0  0  0  0  0  0  0  0  0
   -2.3706    2.7992    0.0000 H   0  0  0  0  0  0  0  0  0  0  0  0
  1  4  1  0  0  0  0
  1  5  1  0  0  0  0
  1 22  2  0  0  0  0
  2  5  1  0  0  0  0
  2  3  1  0  0  0  0
  2 51  1  0  0  0  0
  3 10  1  0  0  0  0
  3 17  1  0  0  0  0
  3 49  1  6  0  0  0
  4 11  1  0  0  0  0
  4 52  1  0  0  0  0
  5 31  2  0  0  0  0
  6 14  1  0  0  0  0
  6 28  1  0  0  0  0
  6  7  2  0  0  0  0
  7 23  1  0  0  0  0
  8 16  1  0  0  0  0
  8 12  1  0  0  0  0
  8 53  1  0  0  0  0
  9 15  1  0  0  0  0
  9 13  1  0  0  0  0
  9 54  1  0  0  0  0
 10 14  1  0  0  0  0
 10 20  1  0  0  0  0
 10 48  1  1  0  0  0
 11 16  1  0  0  0  0
 11 34  2  0  0  0  0
 12 15  1  0  0  0  0
 12 32  2  0  0  0  0
 13 18  1  0  0  0  0
 13 33  2  0  0  0  0
 14 55  1  0  0  0  0
 15 42  1  0  0  0  0
 15 56  1  6  0  0  0
 16 41  1  0  0  0  0
 16 57  1  6  0  0  0
 17 19  1  0  0  0  0
 17 35  2  0  0  0  0
 18 29  1  0  0  0  0
 18 25  1  0  0  0  0
 18 58  1  1  0  0  0
 19 29  1  0  0  0  0
 19 59  1  0  0  0  0
 20 23  1  0  0  0  0
 20 60  1  0  0  0  0
 20 61  1  0  0  0  0
 21 25  1  0  0  0  0
 21 24  1  0  0  0  0
 21 37  2  0  0  0  0
 22 27  1  0  0  0  0
 22 62  1  0  0  0  0
 23 63  1  0  0  0  0
 23 64  1  0  0  0  0
 24 30  1  0  0  0  0
 24 65  1  0  0  0  0
 24 66  1  0  0  0  0
 25 67  1  0  0  0  0
 26 27  1  0  0  0  0
 26 36  2  0  0  0  0
 26 38  1  0  0  0  0
 27 68  1  0  0  0  0
 28 69  1  0  0  0  0
 28 70  1  0  0  0  0
 29 71  1  0  0  0  0
 29 72  1  0  0  0  0
 30 39  1  0  0  0  0
 30 40  1  0  0  0  0
 30 73  1  6  0  0  0
 38 74  1  0  0  0  0
 38 75  1  0  0  0  0
 39 43  1  0  0  0  0
 39 50  1  0  0  0  0
 39 76  1  6  0  0  0
 40 77  1  0  0  0  0
 40 78  1  0  0  0  0
 41 46  1  0  0  0  0
 41 79  1  0  0  0  0
 41 80  1  0  0  0  0
 42 45  1  0  0  0  0
 42 81  1  0  0  0  0
 42 82  1  0  0  0  0
 43 47  1  0  0  0  0
 43 83  1  0  0  0  0
 43 84  1  0  0  0  0
 44 47  1  0  0  0  0
 44 85  1  0  0  0  0
 44 86  1  0  0  0  0
 45 87  1  0  0  0  0
 46 88  1  0  0  0  0
 47 89  1  0  0  0  0
 47 90  1  0  0  0  0
 50 91  1  0  0  0  0
M  END
>  <DRUGBANK_ID>
DB08993

>  <COMMON_NAME>
Enviomycin

>  <CAS_NUMBER>
33103-22-9

>  <UNII>
XU299C23A2

>  <SYNONYMS>
Enviomicina; Enviomycin; Enviomycine; Enviomycinum; Tuberactinomycin N

$$$$
