D15
 OpenBabel10282417072D

 54 57  0  0  0  0  0  0  0  0999 V2000
   20.5376    9.1321    0.0000 C   0  0  0  0  0  0  0  0  0  0  0  0
   20.1251    8.4176    0.0000 C   0  0  0  0  0  0  0  0  0  0  0  0
   20.5376    7.7031    0.0000 Cl  0  0  0  0  0  0  0  0  0  0  0  0
   19.3001    8.4176    0.0000 C   0  0  0  0  0  0  0  0  0  0  0  0
   18.8876    9.1321    0.0000 C   0  0  0  0  0  0  0  0  0  0  0  0
   19.3001    9.8465    0.0000 C   0  0  0  0  0  0  0  0  0  0  0  0
   20.1251    9.8465    0.0000 C   0  0  0  0  0  0  0  0  0  0  0  0
   20.5376   10.5610    0.0000 C   0  0  2  0  0  0  0  0  0  0  0  0
   20.1251   11.2755    0.0000 C   0  0  0  0  0  0  0  0  0  0  0  0
   19.3001   11.2755    0.0000 C   0  0  0  0  0  0  0  0  0  0  0  0
   18.8876   11.9899    0.0000 N   0  0  0  0  0  0  0  0  0  0  0  0
   21.3626   10.5610    0.0000 C   0  0  0  0  0  0  0  0  0  0  0  0
   21.7751    9.8465    0.0000 O   0  0  0  0  0  0  0  0  0  0  0  0
   21.7751   11.2755    0.0000 N   0  0  0  0  0  0  0  0  0  0  0  0
   22.6001   11.2755    0.0000 C   0  0  0  0  0  0  0  0  0  0  0  0
   23.0126   11.9899    0.0000 C   0  0  0  0  0  0  0  0  0  0  0  0
   23.8376   11.9899    0.0000 C   0  0  0  0  0  0  0  0  0  0  0  0
   23.0126   10.5610    0.0000 C   0  0  0  0  0  0  0  0  0  0  0  0
   23.8376   10.5610    0.0000 C   0  0  0  0  0  0  0  0  0  0  0  0
   24.2501   11.2755    0.0000 C   0  0  0  0  0  0  0  0  0  0  0  0
   25.0570   11.4470    0.0000 N   0  0  0  0  0  0  0  0  0  0  0  0
   25.1433   12.2675    0.0000 N   0  0  0  0  0  0  0  0  0  0  0  0
   24.3896   12.6030    0.0000 C   0  0  0  0  0  0  0  0  0  0  0  0
   24.2181   13.4100    0.0000 N   0  0  0  0  0  0  0  0  0  0  0  0
   23.4334   13.6650    0.0000 C   0  0  0  0  0  0  0  0  0  0  0  0
   22.8203   13.1129    0.0000 O   0  0  0  0  0  0  0  0  0  0  0  0
   23.2619   14.4719    0.0000 C   0  0  0  0  0  0  0  0  0  0  0  0
   22.4773   14.7269    0.0000 C   0  0  0  0  0  0  0  0  0  0  0  0
   22.3058   15.5338    0.0000 C   0  0  0  0  0  0  0  0  0  0  0  0
   22.9189   16.0859    0.0000 C   0  0  0  0  0  0  0  0  0  0  0  0
   23.7035   15.8309    0.0000 C   0  0  0  0  0  0  0  0  0  0  0  0
   23.8750   15.0240    0.0000 C   0  0  0  0  0  0  0  0  0  0  0  0
   19.9536   10.5610    0.0000 H   0  0  0  0  0  0  0  0  0  0  0  0
   21.5696    9.1321    0.0000 H   0  0  0  0  0  0  0  0  0  0  0  0
   18.7841    7.5239    0.0000 H   0  0  0  0  0  0  0  0  0  0  0  0
   17.8556    9.1321    0.0000 H   0  0  0  0  0  0  0  0  0  0  0  0
   18.7841   10.7402    0.0000 H   0  0  0  0  0  0  0  0  0  0  0  0
   20.6601   12.2021    0.0000 H   0  0  0  0  0  0  0  0  0  0  0  0
   19.5901   12.2021    0.0000 H   0  0  0  0  0  0  0  0  0  0  0  0
   18.7651   10.3488    0.0000 H   0  0  0  0  0  0  0  0  0  0  0  0
   18.2301   11.2755    0.0000 H   0  0  0  0  0  0  0  0  0  0  0  0
   19.3976   12.8733    0.0000 H   0  0  0  0  0  0  0  0  0  0  0  0
   17.8676   11.9899    0.0000 H   0  0  0  0  0  0  0  0  0  0  0  0
   21.2828   12.1281    0.0000 H   0  0  0  0  0  0  0  0  0  0  0  0
   22.4966   12.8836    0.0000 H   0  0  0  0  0  0  0  0  0  0  0  0
   22.4966    9.6673    0.0000 H   0  0  0  0  0  0  0  0  0  0  0  0
   24.3536    9.6673    0.0000 H   0  0  0  0  0  0  0  0  0  0  0  0
   25.7886   10.7882    0.0000 H   0  0  0  0  0  0  0  0  0  0  0  0
   24.9498   14.0687    0.0000 H   0  0  0  0  0  0  0  0  0  0  0  0
   21.7103   14.0364    0.0000 H   0  0  0  0  0  0  0  0  0  0  0  0
   21.3243   15.8527    0.0000 H   0  0  0  0  0  0  0  0  0  0  0  0
   22.7043   17.0954    0.0000 H   0  0  0  0  0  0  0  0  0  0  0  0
   24.4705   16.5214    0.0000 H   0  0  0  0  0  0  0  0  0  0  0  0
   24.8565   14.7051    0.0000 H   0  0  0  0  0  0  0  0  0  0  0  0
  1  2  1  0  0  0  0
  1  7  2  0  0  0  0
  1 34  1  0  0  0  0
  2  3  1  0  0  0  0
  2  4  2  0  0  0  0
  4  5  1  0  0  0  0
  4 35  1  0  0  0  0
  5  6  2  0  0  0  0
  5 36  1  0  0  0  0
  6  7  1  0  0  0  0
  6 37  1  0  0  0  0
  7  8  1  0  0  0  0
  8  9  1  0  0  0  0
  8 12  1  0  0  0  0
  8 33  1  1  0  0  0
  9 10  1  0  0  0  0
  9 38  1  0  0  0  0
  9 39  1  0  0  0  0
 10 11  1  0  0  0  0
 10 40  1  0  0  0  0
 10 41  1  0  0  0  0
 11 42  1  0  0  0  0
 11 43  1  0  0  0  0
 12 13  2  0  0  0  0
 12 14  1  0  0  0  0
 14 15  1  0  0  0  0
 14 44  1  0  0  0  0
 15 16  1  0  0  0  0
 15 18  2  0  0  0  0
 16 17  2  0  0  0  0
 16 45  1  0  0  0  0
 17 20  1  0  0  0  0
 17 23  1  0  0  0  0
 18 19  1  0  0  0  0
 18 46  1  0  0  0  0
 19 20  2  0  0  0  0
 19 47  1  0  0  0  0
 20 21  1  0  0  0  0
 21 22  1  0  0  0  0
 21 48  1  0  0  0  0
 22 23  2  0  0  0  0
 23 24  1  0  0  0  0
 24 25  1  0  0  0  0
 24 49  1  0  0  0  0
 25 26  2  0  0  0  0
 25 27  1  0  0  0  0
 27 28  1  0  0  0  0
 27 32  2  0  0  0  0
 28 29  2  0  0  0  0
 28 50  1  0  0  0  0
 29 30  1  0  0  0  0
 29 51  1  0  0  0  0
 30 31  2  0  0  0  0
 30 52  1  0  0  0  0
 31 32  1  0  0  0  0
 31 53  1  0  0  0  0
 32 54  1  0  0  0  0
M  END
>  <DRUGBANK_ID>
DB07608

>  <COMMON_NAME>
N-(5-{[(2S)-4-amino-2-(3-chlorophenyl)butanoyl]amino}-1H-indazol-3-yl)benzamide

$$$$
