
 OpenBabel10282417072D

 47 47  0  0  0  0  0  0  0  0999 V2000
   -1.4387   -0.1776    0.0000 C   0  0  0  0  0  0  0  0  0  0  0  0
   -1.4387   -1.0005    0.0000 C   0  0  0  0  0  0  0  0  0  0  0  0
   -0.6938    0.2313    0.0000 C   0  0  0  0  0  0  0  0  0  0  0  0
   -2.1544    0.2313    0.0000 C   0  0  0  0  0  0  0  0  0  0  0  0
   -2.1544   -1.4094    0.0000 C   0  0  0  0  0  0  0  0  0  0  0  0
   -0.6938    1.0589    0.0000 O   0  0  0  0  0  0  0  0  0  0  0  0
   -2.8604   -1.0248    0.0000 C   0  0  0  0  0  0  0  0  0  0  0  0
    0.0073   -0.1776    0.0000 O   0  0  0  0  0  0  0  0  0  0  0  0
   -2.8604   -0.1776    0.0000 C   0  0  0  0  0  0  0  0  0  0  0  0
   -0.7084   -1.4387    0.0000 O   0  0  0  0  0  0  0  0  0  0  0  0
    2.1690    0.2117    0.0000 N   0  0  0  0  0  0  0  0  0  0  0  0
   -3.5858   -1.4533    0.0000 N   0  0  0  0  0  0  0  0  0  0  0  0
    0.7327    0.2313    0.0000 C   0  0  0  0  0  0  0  0  0  0  0  0
    1.4387   -0.1971    0.0000 C   0  0  0  0  0  0  0  0  0  0  0  0
    2.1690    1.0346    0.0000 C   0  0  0  0  0  0  0  0  0  0  0  0
    2.8798   -0.1971    0.0000 C   0  0  0  0  0  0  0  0  0  0  0  0
    0.0073   -1.0248    0.0000 C   0  0  0  0  0  0  0  0  0  0  0  0
    0.7180   -1.4533    0.0000 C   0  0  0  0  0  0  0  0  0  0  0  0
    2.8798    1.4533    0.0000 C   0  0  0  0  0  0  0  0  0  0  0  0
    3.5858    0.2117    0.0000 C   0  0  0  0  0  0  0  0  0  0  0  0
    1.4387   -1.0443    0.0000 C   0  0  0  0  0  0  0  0  0  0  0  0
   -2.1574    1.2633    0.0000 H   0  0  0  0  0  0  0  0  0  0  0  0
   -2.1439   -2.4413    0.0000 H   0  0  0  0  0  0  0  0  0  0  0  0
   -3.7545    0.3378    0.0000 H   0  0  0  0  0  0  0  0  0  0  0  0
   -4.4433   -0.9696    0.0000 H   0  0  0  0  0  0  0  0  0  0  0  0
   -3.5760   -2.4378    0.0000 H   0  0  0  0  0  0  0  0  0  0  0  0
    0.7499    1.3012    0.0000 H   0  0  0  0  0  0  0  0  0  0  0  0
    1.6693    0.7487    0.0000 H   0  0  0  0  0  0  0  0  0  0  0  0
    1.4199   -1.2669    0.0000 H   0  0  0  0  0  0  0  0  0  0  0  0
    0.5017   -0.7138    0.0000 H   0  0  0  0  0  0  0  0  0  0  0  0
    1.2400    1.5655    0.0000 H   0  0  0  0  0  0  0  0  0  0  0  0
    2.1620    2.1046    0.0000 H   0  0  0  0  0  0  0  0  0  0  0  0
    2.8814   -1.2671    0.0000 H   0  0  0  0  0  0  0  0  0  0  0  0
    3.8072   -0.7308    0.0000 H   0  0  0  0  0  0  0  0  0  0  0  0
    0.0171    0.0452    0.0000 H   0  0  0  0  0  0  0  0  0  0  0  0
    0.9414   -0.5029    0.0000 H   0  0  0  0  0  0  0  0  0  0  0  0
    0.7039   -2.5232    0.0000 H   0  0  0  0  0  0  0  0  0  0  0  0
    1.6391   -1.9978    0.0000 H   0  0  0  0  0  0  0  0  0  0  0  0
    3.8111    0.9264    0.0000 H   0  0  0  0  0  0  0  0  0  0  0  0
    2.8705    2.5233    0.0000 H   0  0  0  0  0  0  0  0  0  0  0  0
    3.8017    1.9964    0.0000 H   0  0  0  0  0  0  0  0  0  0  0  0
    4.5131   -0.3221    0.0000 H   0  0  0  0  0  0  0  0  0  0  0  0
    3.5844    1.2817    0.0000 H   0  0  0  0  0  0  0  0  0  0  0  0
    4.5118    0.7479    0.0000 H   0  0  0  0  0  0  0  0  0  0  0  0
    2.3614   -1.5862    0.0000 H   0  0  0  0  0  0  0  0  0  0  0  0
    1.4466    0.0257    0.0000 H   0  0  0  0  0  0  0  0  0  0  0  0
    2.3693   -0.5162    0.0000 H   0  0  0  0  0  0  0  0  0  0  0  0
  2  1  1  0  0  0  0
  3  1  1  0  0  0  0
  4  1  2  0  0  0  0
  4 22  1  0  0  0  0
  5  2  2  0  0  0  0
  5 23  1  0  0  0  0
  6  3  2  0  0  0  0
  7  9  2  0  0  0  0
  7  5  1  0  0  0  0
  8  3  1  0  0  0  0
  9  4  1  0  0  0  0
  9 24  1  0  0  0  0
 10  2  1  0  0  0  0
 11 14  1  0  0  0  0
 12  7  1  0  0  0  0
 12 25  1  0  0  0  0
 12 26  1  0  0  0  0
 13  8  1  0  0  0  0
 13 27  1  0  0  0  0
 13 28  1  0  0  0  0
 14 13  1  0  0  0  0
 14 29  1  0  0  0  0
 14 30  1  0  0  0  0
 15 11  1  0  0  0  0
 15 31  1  0  0  0  0
 15 32  1  0  0  0  0
 16 11  1  0  0  0  0
 16 33  1  0  0  0  0
 16 34  1  0  0  0  0
 17 10  1  0  0  0  0
 17 35  1  0  0  0  0
 17 36  1  0  0  0  0
 18 17  1  0  0  0  0
 18 37  1  0  0  0  0
 18 38  1  0  0  0  0
 19 15  1  0  0  0  0
 19 39  1  0  0  0  0
 19 40  1  0  0  0  0
 19 41  1  0  0  0  0
 20 16  1  0  0  0  0
 20 42  1  0  0  0  0
 20 43  1  0  0  0  0
 20 44  1  0  0  0  0
 21 18  1  0  0  0  0
 21 45  1  0  0  0  0
 21 46  1  0  0  0  0
 21 47  1  0  0  0  0
M  END
>  <DRUGBANK_ID>
DB09342

>  <COMMON_NAME>
Propoxycaine

>  <CAS_NUMBER>
86-43-1

>  <UNII>
EPD1EH7F53

>  <SYNONYMS>
Propoxycaine

$$$$
