
 OpenBabel10282417072D

 69 73  0  0  0  0  0  0  0  0999 V2000
    1.0881   -1.0518    0.0000 N   0  0  0  0  0  0  0  0  0  0  0  0
    1.5802   -1.7178    0.0000 C   0  0  0  0  0  0  0  0  0  0  0  0
    1.0881   -2.3836    0.0000 C   0  0  0  0  0  0  0  0  0  0  0  0
    0.3064   -2.1327    0.0000 C   0  0  0  0  0  0  0  0  0  0  0  0
    0.3064   -1.3076    0.0000 C   0  0  0  0  0  0  0  0  0  0  0  0
    1.3486   -0.2653    0.0000 C   0  0  0  0  0  0  0  0  0  0  0  0
    2.4053   -1.7178    0.0000 C   0  0  0  0  0  0  0  0  0  0  0  0
   -0.4029   -0.8927    0.0000 C   0  0  0  0  0  0  0  0  0  0  0  0
   -0.4029   -2.5429    0.0000 C   0  0  0  0  0  0  0  0  0  0  0  0
   -3.0085    2.4850    0.0000 N   0  0  0  0  0  0  0  0  0  0  0  0
    2.8107   -1.0036    0.0000 C   0  0  0  0  0  0  0  0  0  0  0  0
    2.8107   -2.4271    0.0000 C   0  0  0  0  0  0  0  0  0  0  0  0
    0.7985    0.3426    0.0000 C   0  0  0  0  0  0  0  0  0  0  0  0
   -1.1170   -2.1327    0.0000 C   0  0  0  0  0  0  0  0  0  0  0  0
    1.3486   -3.1653    0.0000 C   0  0  0  0  0  0  0  0  0  0  0  0
   -1.1170   -1.3076    0.0000 C   0  0  0  0  0  0  0  0  0  0  0  0
    4.0507   -1.7178    0.0000 C   0  0  0  0  0  0  0  0  0  0  0  0
   -0.3064    1.5681    0.0000 C   0  0  0  0  0  0  0  0  0  0  0  0
    3.6358   -2.4271    0.0000 C   0  0  0  0  0  0  0  0  0  0  0  0
    3.6358   -1.0036    0.0000 C   0  0  0  0  0  0  0  0  0  0  0  0
   -0.0119    0.1785    0.0000 C   0  0  0  0  0  0  0  0  0  0  0  0
    1.0543    1.1338    0.0000 C   0  0  0  0  0  0  0  0  0  0  0  0
    0.4945    1.7419    0.0000 C   0  0  0  0  0  0  0  0  0  0  0  0
   -0.5621    0.7865    0.0000 C   0  0  0  0  0  0  0  0  0  0  0  0
   -0.8661    2.1906    0.0000 O   0  0  0  0  0  0  0  0  0  0  0  0
   -2.2123    2.6442    0.0000 C   0  0  0  0  0  0  0  0  0  0  0  0
   -1.8359   -2.5429    0.0000 O   0  0  0  0  0  0  0  0  0  0  0  0
    4.8758   -1.7178    0.0000 O   0  0  0  0  0  0  0  0  0  0  0  0
   -1.6671    2.0313    0.0000 C   0  0  0  0  0  0  0  0  0  0  0  0
   -3.5200    3.1364    0.0000 C   0  0  0  0  0  0  0  0  0  0  0  0
   -3.2160    1.6743    0.0000 C   0  0  0  0  0  0  0  0  0  0  0  0
   -3.9784    1.3510    0.0000 C   0  0  0  0  0  0  0  0  0  0  0  0
   -4.3402    3.1653    0.0000 C   0  0  0  0  0  0  0  0  0  0  0  0
   -4.8758    2.5380    0.0000 C   0  0  0  0  0  0  0  0  0  0  0  0
   -4.7166    1.7273    0.0000 C   0  0  0  0  0  0  0  0  0  0  0  0
    2.3956   -0.0445    0.0000 H   0  0  0  0  0  0  0  0  0  0  0  0
    1.6788    0.7525    0.0000 H   0  0  0  0  0  0  0  0  0  0  0  0
   -0.4014    0.1393    0.0000 H   0  0  0  0  0  0  0  0  0  0  0  0
   -0.4014   -3.5749    0.0000 H   0  0  0  0  0  0  0  0  0  0  0  0
    2.2914   -0.1118    0.0000 H   0  0  0  0  0  0  0  0  0  0  0  0
    2.2928   -3.3197    0.0000 H   0  0  0  0  0  0  0  0  0  0  0  0
    0.6386   -3.9658    0.0000 H   0  0  0  0  0  0  0  0  0  0  0  0
    2.3969   -3.3799    0.0000 H   0  0  0  0  0  0  0  0  0  0  0  0
    1.6869   -4.1804    0.0000 H   0  0  0  0  0  0  0  0  0  0  0  0
   -2.0114   -0.7928    0.0000 H   0  0  0  0  0  0  0  0  0  0  0  0
    4.1493   -3.3223    0.0000 H   0  0  0  0  0  0  0  0  0  0  0  0
    4.1506   -0.1092    0.0000 H   0  0  0  0  0  0  0  0  0  0  0  0
   -0.3343   -0.8018    0.0000 H   0  0  0  0  0  0  0  0  0  0  0  0
    2.0624    1.3547    0.0000 H   0  0  0  0  0  0  0  0  0  0  0  0
    0.8059    2.7258    0.0000 H   0  0  0  0  0  0  0  0  0  0  0  0
   -1.5715    0.5717    0.0000 H   0  0  0  0  0  0  0  0  0  0  0  0
   -1.8724    3.6588    0.0000 H   0  0  0  0  0  0  0  0  0  0  0  0
   -1.1640    2.8588    0.0000 H   0  0  0  0  0  0  0  0  0  0  0  0
   -2.6450   -2.0703    0.0000 H   0  0  0  0  0  0  0  0  0  0  0  0
    5.3443   -2.5293    0.0000 H   0  0  0  0  0  0  0  0  0  0  0  0
   -2.0075    1.0169    0.0000 H   0  0  0  0  0  0  0  0  0  0  0  0
   -0.9602    1.2281    0.0000 H   0  0  0  0  0  0  0  0  0  0  0  0
   -3.0352    4.0903    0.0000 H   0  0  0  0  0  0  0  0  0  0  0  0
   -4.0634    4.0581    0.0000 H   0  0  0  0  0  0  0  0  0  0  0  0
   -2.4047    0.9767    0.0000 H   0  0  0  0  0  0  0  0  0  0  0  0
   -3.3807    0.6171    0.0000 H   0  0  0  0  0  0  0  0  0  0  0  0
   -4.0160    0.2817    0.0000 H   0  0  0  0  0  0  0  0  0  0  0  0
   -4.9005    0.8081    0.0000 H   0  0  0  0  0  0  0  0  0  0  0  0
   -4.7711    4.1447    0.0000 H   0  0  0  0  0  0  0  0  0  0  0  0
   -5.3988    3.3211    0.0000 H   0  0  0  0  0  0  0  0  0  0  0  0
   -5.9108    2.8094    0.0000 H   0  0  0  0  0  0  0  0  0  0  0  0
   -5.6557    1.8054    0.0000 H   0  0  0  0  0  0  0  0  0  0  0  0
   -5.5706    1.0826    0.0000 H   0  0  0  0  0  0  0  0  0  0  0  0
   -5.7161    2.1094    0.0000 H   0  0  0  0  0  0  0  0  0  0  0  0
  2  1  1  0  0  0  0
  3  2  2  0  0  0  0
  3  4  1  0  0  0  0
  4  5  2  0  0  0  0
  5  1  1  0  0  0  0
  6  1  1  0  0  0  0
  6 36  1  0  0  0  0
  6 37  1  0  0  0  0
  7  2  1  0  0  0  0
  8  5  1  0  0  0  0
  8 38  1  0  0  0  0
  9  4  1  0  0  0  0
  9 14  2  0  0  0  0
  9 39  1  0  0  0  0
 10 26  1  0  0  0  0
 11  7  1  0  0  0  0
 11 40  1  0  0  0  0
 12  7  2  0  0  0  0
 12 41  1  0  0  0  0
 13  6  1  0  0  0  0
 14 16  1  0  0  0  0
 15  3  1  0  0  0  0
 15 42  1  0  0  0  0
 15 43  1  0  0  0  0
 15 44  1  0  0  0  0
 16  8  2  0  0  0  0
 16 45  1  0  0  0  0
 17 19  2  0  0  0  0
 18 24  2  0  0  0  0
 19 12  1  0  0  0  0
 19 46  1  0  0  0  0
 20 11  2  0  0  0  0
 20 17  1  0  0  0  0
 20 47  1  0  0  0  0
 21 13  2  0  0  0  0
 21 48  1  0  0  0  0
 22 13  1  0  0  0  0
 22 49  1  0  0  0  0
 23 22  2  0  0  0  0
 23 18  1  0  0  0  0
 23 50  1  0  0  0  0
 24 21  1  0  0  0  0
 24 51  1  0  0  0  0
 25 18  1  0  0  0  0
 26 29  1  0  0  0  0
 26 52  1  0  0  0  0
 26 53  1  0  0  0  0
 27 14  1  0  0  0  0
 27 54  1  0  0  0  0
 28 17  1  0  0  0  0
 28 55  1  0  0  0  0
 29 25  1  0  0  0  0
 29 56  1  0  0  0  0
 29 57  1  0  0  0  0
 30 10  1  0  0  0  0
 30 58  1  0  0  0  0
 30 59  1  0  0  0  0
 31 10  1  0  0  0  0
 31 60  1  0  0  0  0
 31 61  1  0  0  0  0
 32 31  1  0  0  0  0
 32 62  1  0  0  0  0
 32 63  1  0  0  0  0
 33 30  1  0  0  0  0
 33 64  1  0  0  0  0
 33 65  1  0  0  0  0
 34 33  1  0  0  0  0
 34 66  1  0  0  0  0
 34 67  1  0  0  0  0
 35 32  1  0  0  0  0
 35 34  1  0  0  0  0
 35 68  1  0  0  0  0
 35 69  1  0  0  0  0
M  END
>  <DRUGBANK_ID>
DB06401

>  <COMMON_NAME>
Bazedoxifene

>  <CAS_NUMBER>
198481-32-2

>  <UNII>
Q16TT9C5BK

>  <SYNONYMS>
Bazedoxifene; Bazedoxifeno

$$$$
