FRY
 OpenBabel10282417072D

 42 45  0  0  0  0  0  0  0  0999 V2000
   -3.8339   -0.6508    0.0000 C   0  0  1  0  0  0  0  0  0  0  0  0
   -1.6349   -1.9203    0.0000 C   0  0  0  0  0  0  0  0  0  0  0  0
   -1.7212   -1.0998    0.0000 C   0  0  0  0  0  0  0  0  0  0  0  0
   -3.0802   -0.3152    0.0000 C   0  0  0  0  0  0  0  0  0  0  0  0
   -2.5282   -0.9283    0.0000 C   0  0  0  0  0  0  0  0  0  0  0  0
   -2.9407   -1.6428    0.0000 C   0  0  0  0  0  0  0  0  0  0  0  0
   -0.9205   -2.3328    0.0000 C   0  0  0  0  0  0  0  0  0  0  0  0
   -0.2060   -3.5703    0.0000 C   0  0  1  0  0  0  0  0  0  0  0  0
    1.2229   -4.3953    0.0000 C   0  0  0  0  0  0  0  0  0  0  0  0
    0.5085   -3.1578    0.0000 C   0  0  0  0  0  0  0  0  0  0  0  0
    1.2229   -3.5703    0.0000 C   0  0  0  0  0  0  0  0  0  0  0  0
   -0.2060   -4.3953    0.0000 C   0  0  0  0  0  0  0  0  0  0  0  0
   -0.9205   -4.8078    0.0000 O   0  0  0  0  0  0  0  0  0  0  0  0
    0.5085   -5.6328    0.0000 C   0  0  0  0  0  0  0  0  0  0  0  0
    1.2229   -6.8703    0.0000 O   0  0  0  0  0  0  0  0  0  0  0  0
    1.2229   -6.0453    0.0000 C   0  0  0  0  0  0  0  0  0  0  0  0
    1.9374   -5.6328    0.0000 N   0  0  0  0  0  0  0  0  0  0  0  0
    0.5085   -4.8078    0.0000 N   0  0  0  0  0  0  0  0  0  0  0  0
    1.9374   -4.8078    0.0000 C   0  0  0  0  0  0  0  0  0  0  0  0
    2.6519   -4.3953    0.0000 C   0  0  0  0  0  0  0  0  0  0  0  0
    2.6519   -3.5703    0.0000 C   0  0  0  0  0  0  0  0  0  0  0  0
    1.9374   -3.1578    0.0000 C   0  0  0  0  0  0  0  0  0  0  0  0
   -0.9205   -3.1578    0.0000 N   0  0  0  0  0  0  0  0  0  0  0  0
   -0.2060   -1.9203    0.0000 O   0  0  0  0  0  0  0  0  0  0  0  0
   -2.3886   -2.2559    0.0000 N   0  0  0  0  0  0  0  0  0  0  0  0
   -3.7476   -1.4713    0.0000 S   0  0  0  0  0  0  0  0  0  0  0  0
   -4.5483   -0.2383    0.0000 Cl  0  0  0  0  0  0  0  0  0  0  0  0
   -3.8033   -0.0676    0.0000 H   0  0  0  0  0  0  0  0  0  0  0  0
   -0.7117   -3.8623    0.0000 H   0  0  0  0  0  0  0  0  0  0  0  0
   -0.9543   -0.4092    0.0000 H   0  0  0  0  0  0  0  0  0  0  0  0
   -2.8656    0.6942    0.0000 H   0  0  0  0  0  0  0  0  0  0  0  0
    0.5085   -2.0878    0.0000 H   0  0  0  0  0  0  0  0  0  0  0  0
    1.4352   -2.6228    0.0000 H   0  0  0  0  0  0  0  0  0  0  0  0
   -0.4182   -6.1678    0.0000 H   0  0  0  0  0  0  0  0  0  0  0  0
   -0.4181   -5.0978    0.0000 H   0  0  0  0  0  0  0  0  0  0  0  0
    2.7900   -6.1251    0.0000 H   0  0  0  0  0  0  0  0  0  0  0  0
    1.9374   -4.6483    0.0000 H   0  0  0  0  0  0  0  0  0  0  0  0
    1.9374   -5.8398    0.0000 H   0  0  0  0  0  0  0  0  0  0  0  0
    3.5456   -4.9113    0.0000 H   0  0  0  0  0  0  0  0  0  0  0  0
    3.5456   -3.0543    0.0000 H   0  0  0  0  0  0  0  0  0  0  0  0
    1.9374   -2.1258    0.0000 H   0  0  0  0  0  0  0  0  0  0  0  0
   -1.7731   -3.6501    0.0000 H   0  0  0  0  0  0  0  0  0  0  0  0
  1 27  1  0  0  0  0
  1  4  1  0  0  0  0
  1 26  1  0  0  0  0
  1 28  1  6  0  0  0
  2  3  2  0  0  0  0
  2 25  1  0  0  0  0
  2  7  1  0  0  0  0
  3  5  1  0  0  0  0
  3 30  1  0  0  0  0
  4  5  2  0  0  0  0
  4 31  1  0  0  0  0
  5  6  1  0  0  0  0
  6 26  1  0  0  0  0
  6 25  2  0  0  0  0
  7 23  1  0  0  0  0
  7 24  2  0  0  0  0
  8 23  1  0  0  0  0
  8 12  1  0  0  0  0
  8 10  1  0  0  0  0
  8 29  1  6  0  0  0
  9 18  1  0  0  0  0
  9 11  2  0  0  0  0
  9 19  1  0  0  0  0
 10 11  1  0  0  0  0
 10 32  1  0  0  0  0
 10 33  1  0  0  0  0
 11 22  1  0  0  0  0
 12 13  2  0  0  0  0
 12 18  1  0  0  0  0
 14 16  1  0  0  0  0
 14 18  1  0  0  0  0
 14 34  1  0  0  0  0
 14 35  1  0  0  0  0
 15 16  2  0  0  0  0
 16 17  1  0  0  0  0
 17 36  1  0  0  0  0
 17 37  1  0  0  0  0
 19 20  2  0  0  0  0
 19 38  1  0  0  0  0
 20 21  1  0  0  0  0
 20 39  1  0  0  0  0
 21 22  2  0  0  0  0
 21 40  1  0  0  0  0
 22 41  1  0  0  0  0
 23 42  1  0  0  0  0
M  END
>  <DRUGBANK_ID>
DB07793

>  <COMMON_NAME>
(2S)-N-[(3S)-1-(2-AMINO-2-OXOETHYL)-2-OXO-1,2,3,4-TETRAHYDROQUINOLIN-3-YL]-2-CHLORO-2H-THIENO[2,3-B]PYRROLE-5-CARBOXAMIDE

$$$$
