4840
 OpenBabel10282417072D

 26 27  0  0  0  0  0  0  0  0999 V2000
    3.5220    0.1136    0.0000 N   0  0  0  0  0  0  0  0  0  0  0  0
    2.0930    0.1136    0.0000 N   0  0  0  0  0  0  0  0  0  0  0  0
    2.8075   -1.1239    0.0000 N   0  0  0  0  0  0  0  0  0  0  0  0
    4.2364    1.3511    0.0000 C   0  0  0  0  0  0  0  0  0  0  0  0
    3.5220    0.9386    0.0000 C   0  0  0  0  0  0  0  0  0  0  0  0
    4.2364   -0.2989    0.0000 C   0  0  0  0  0  0  0  0  0  0  0  0
    4.9509    0.9386    0.0000 C   0  0  0  0  0  0  0  0  0  0  0  0
    4.9509    0.1136    0.0000 C   0  0  0  0  0  0  0  0  0  0  0  0
    5.6884    1.3797    0.0000 C   0  0  0  0  0  0  0  0  0  0  0  0
    5.6884   -0.3275    0.0000 C   0  0  0  0  0  0  0  0  0  0  0  0
    2.8075   -0.2989    0.0000 C   0  0  0  0  0  0  0  0  0  0  0  0
    6.4359    0.9558    0.0000 C   0  0  0  0  0  0  0  0  0  0  0  0
    6.4359    0.0964    0.0000 C   0  0  0  0  0  0  0  0  0  0  0  0
    2.0930    1.0981    0.0000 H   0  0  0  0  0  0  0  0  0  0  0  0
    1.2404   -0.3787    0.0000 H   0  0  0  0  0  0  0  0  0  0  0  0
    1.9549   -1.6162    0.0000 H   0  0  0  0  0  0  0  0  0  0  0  0
    4.2364    2.4211    0.0000 H   0  0  0  0  0  0  0  0  0  0  0  0
    5.1630    1.8861    0.0000 H   0  0  0  0  0  0  0  0  0  0  0  0
    2.5953    1.4736    0.0000 H   0  0  0  0  0  0  0  0  0  0  0  0
    3.5220    2.0086    0.0000 H   0  0  0  0  0  0  0  0  0  0  0  0
    4.2364   -1.3689    0.0000 H   0  0  0  0  0  0  0  0  0  0  0  0
    5.1630   -0.8339    0.0000 H   0  0  0  0  0  0  0  0  0  0  0  0
    5.6765    2.4116    0.0000 H   0  0  0  0  0  0  0  0  0  0  0  0
    5.6765   -1.3594    0.0000 H   0  0  0  0  0  0  0  0  0  0  0  0
    7.3276    1.4753    0.0000 H   0  0  0  0  0  0  0  0  0  0  0  0
    7.3276   -0.4231    0.0000 H   0  0  0  0  0  0  0  0  0  0  0  0
  1  5  1  0  0  0  0
  1  6  1  0  0  0  0
  1 11  1  0  0  0  0
  2 11  1  0  0  0  0
  2 14  1  0  0  0  0
  2 15  1  0  0  0  0
  3 11  2  0  0  0  0
  3 16  1  0  0  0  0
  4  5  1  0  0  0  0
  4  7  1  0  0  0  0
  4 17  1  0  0  0  0
  4 18  1  0  0  0  0
  5 19  1  0  0  0  0
  5 20  1  0  0  0  0
  6  8  1  0  0  0  0
  6 21  1  0  0  0  0
  6 22  1  0  0  0  0
  7  8  1  0  0  0  0
  7  9  2  0  0  0  0
  8 10  2  0  0  0  0
  9 12  1  0  0  0  0
  9 23  1  0  0  0  0
 10 13  1  0  0  0  0
 10 24  1  0  0  0  0
 12 13  2  0  0  0  0
 12 25  1  0  0  0  0
 13 26  1  0  0  0  0
M  END
>  <DRUGBANK_ID>
DB04840

>  <COMMON_NAME>
Debrisoquine

>  <CAS_NUMBER>
1131-64-2

>  <UNII>
X31CDK040E

>  <SYNONYMS>
Debrisochinum; Debrisoquin; Debrisoquina; DÃ©brisoquine; Debrisoquine; Debrisoquinum

$$$$
