BS1
 OpenBabel10282417072D

 56 60  0  0  0  0  0  0  0  0999 V2000
   -2.1257   -1.2710    0.0000 C   0  0  0  0  0  0  0  0  0  0  0  0
   -1.4496   -1.7438    0.0000 N   0  3  0  0  0  0  0  0  0  0  0  0
   -1.7183   -2.5238    0.0000 C   0  0  0  0  0  0  0  0  0  0  0  0
   -0.8964   -1.2946    0.0000 C   0  0  1  0  0  0  0  0  0  0  0  0
   -0.2764   -1.7641    0.0000 C   0  0  0  0  0  0  0  0  0  0  0  0
   -0.0463   -2.4525    0.0000 C   0  0  0  0  0  0  0  0  0  0  0  0
   -0.6257   -1.7877    0.0000 C   0  0  2  0  0  0  0  0  0  0  0  0
   -0.7057   -0.3854    0.0000 C   0  0  0  0  0  0  0  0  0  0  0  0
    0.1220   -0.4318    0.0000 C   0  0  1  0  0  0  0  0  0  0  0  0
   -0.4104   -0.8402    0.0000 C   0  0  0  0  0  0  0  0  0  0  0  0
    0.9103   -0.1886    0.0000 O   0  0  0  0  0  0  0  0  0  0  0  0
    1.0939    0.6157    0.0000 C   0  0  0  0  0  0  0  0  0  0  0  0
    0.4489    1.1301    0.0000 C   0  0  0  0  0  0  0  0  0  0  0  0
   -0.2656    0.7176    0.0000 C   0  0  0  0  0  0  0  0  0  0  0  0
   -0.9801    1.1301    0.0000 C   0  0  0  0  0  0  0  0  0  0  0  0
   -0.9801    1.9551    0.0000 C   0  0  0  0  0  0  0  0  0  0  0  0
   -0.2656    2.3676    0.0000 C   0  0  0  0  0  0  0  0  0  0  0  0
    0.4489    1.9551    0.0000 C   0  0  0  0  0  0  0  0  0  0  0  0
    1.0939    2.4695    0.0000 C   0  0  0  0  0  0  0  0  0  0  0  0
    1.8982    2.2859    0.0000 C   0  0  0  0  0  0  0  0  0  0  0  0
    2.2562    1.5426    0.0000 C   0  0  0  0  0  0  0  0  0  0  0  0
    3.0789    1.6043    0.0000 C   0  0  0  0  0  0  0  0  0  0  0  0
    3.5436    0.9226    0.0000 C   0  0  0  0  0  0  0  0  0  0  0  0
    3.1856    0.1793    0.0000 C   0  0  0  0  0  0  0  0  0  0  0  0
    2.3630    0.1177    0.0000 C   0  0  0  0  0  0  0  0  0  0  0  0
    1.8982    0.7993    0.0000 C   0  0  0  0  0  0  0  0  0  0  0  0
   -1.4803   -1.2998    0.0000 H   0  0  0  0  0  0  0  0  0  0  0  0
   -1.1920   -1.9303    0.0000 H   0  0  0  0  0  0  0  0  0  0  0  0
    0.0511    0.1478    0.0000 H   0  0  0  0  0  0  0  0  0  0  0  0
   -2.0331   -0.2050    0.0000 H   0  0  0  0  0  0  0  0  0  0  0  0
   -3.0952   -1.7238    0.0000 H   0  0  0  0  0  0  0  0  0  0  0  0
   -3.0026   -0.6578    0.0000 H   0  0  0  0  0  0  0  0  0  0  0  0
   -2.7687   -2.7278    0.0000 H   0  0  0  0  0  0  0  0  0  0  0  0
   -1.0164   -3.3314    0.0000 H   0  0  0  0  0  0  0  0  0  0  0  0
   -2.0668   -3.5355    0.0000 H   0  0  0  0  0  0  0  0  0  0  0  0
    0.5928   -1.1401    0.0000 H   0  0  0  0  0  0  0  0  0  0  0  0
    0.7417   -2.0934    0.0000 H   0  0  0  0  0  0  0  0  0  0  0  0
    0.4851   -3.3812    0.0000 H   0  0  0  0  0  0  0  0  0  0  0  0
   -0.9182   -3.0727    0.0000 H   0  0  0  0  0  0  0  0  0  0  0  0
   -1.3567    0.4638    0.0000 H   0  0  0  0  0  0  0  0  0  0  0  0
   -0.2055    0.5605    0.0000 H   0  0  0  0  0  0  0  0  0  0  0  0
   -1.3113   -0.2628    0.0000 H   0  0  0  0  0  0  0  0  0  0  0  0
   -0.4555    0.2288    0.0000 H   0  0  0  0  0  0  0  0  0  0  0  0
    1.3320    1.6589    0.0000 H   0  0  0  0  0  0  0  0  0  0  0  0
   -0.2656   -0.3144    0.0000 H   0  0  0  0  0  0  0  0  0  0  0  0
   -1.8738    0.6141    0.0000 H   0  0  0  0  0  0  0  0  0  0  0  0
   -1.8738    2.4711    0.0000 H   0  0  0  0  0  0  0  0  0  0  0  0
   -0.2656    3.3996    0.0000 H   0  0  0  0  0  0  0  0  0  0  0  0
    0.8558    3.5127    0.0000 H   0  0  0  0  0  0  0  0  0  0  0  0
    1.8505    3.2261    0.0000 H   0  0  0  0  0  0  0  0  0  0  0  0
    2.5653    3.1225    0.0000 H   0  0  0  0  0  0  0  0  0  0  0  0
    2.9615    2.1661    0.0000 H   0  0  0  0  0  0  0  0  0  0  0  0
    3.5267    2.5341    0.0000 H   0  0  0  0  0  0  0  0  0  0  0  0
    4.5727    0.9997    0.0000 H   0  0  0  0  0  0  0  0  0  0  0  0
    3.7669   -0.6734    0.0000 H   0  0  0  0  0  0  0  0  0  0  0  0
    1.9152   -0.8121    0.0000 H   0  0  0  0  0  0  0  0  0  0  0  0
  1  2  1  0  0  0  0
  1 30  1  0  0  0  0
  1 31  1  0  0  0  0
  1 32  1  0  0  0  0
  2  3  1  0  0  0  0
  2  4  1  0  0  0  0
  2  7  1  0  0  0  0
  3 33  1  0  0  0  0
  3 34  1  0  0  0  0
  3 35  1  0  0  0  0
  4  5  1  0  0  0  0
  4  8  1  0  0  0  0
  4 27  1  1  0  0  0
  5  6  1  0  0  0  0
  5 36  1  0  0  0  0
  5 37  1  0  0  0  0
  6  7  1  0  0  0  0
  6 38  1  0  0  0  0
  6 39  1  0  0  0  0
  7 10  1  0  0  0  0
  7 28  1  6  0  0  0
  8  9  1  0  0  0  0
  8 40  1  0  0  0  0
  8 41  1  0  0  0  0
  9 10  1  0  0  0  0
  9 11  1  0  0  0  0
  9 29  1  1  0  0  0
 10 42  1  0  0  0  0
 10 43  1  0  0  0  0
 11 12  1  0  0  0  0
 12 13  1  0  0  0  0
 12 26  1  0  0  0  0
 12 44  1  0  0  0  0
 13 14  1  0  0  0  0
 13 18  2  0  0  0  0
 14 15  2  0  0  0  0
 14 45  1  0  0  0  0
 15 16  1  0  0  0  0
 15 46  1  0  0  0  0
 16 17  2  0  0  0  0
 16 47  1  0  0  0  0
 17 18  1  0  0  0  0
 17 48  1  0  0  0  0
 18 19  1  0  0  0  0
 19 20  1  0  0  0  0
 19 49  1  0  0  0  0
 19 50  1  0  0  0  0
 20 21  1  0  0  0  0
 20 51  1  0  0  0  0
 20 52  1  0  0  0  0
 21 22  2  0  0  0  0
 21 26  1  0  0  0  0
 22 23  1  0  0  0  0
 22 53  1  0  0  0  0
 23 24  2  0  0  0  0
 23 54  1  0  0  0  0
 24 25  1  0  0  0  0
 24 55  1  0  0  0  0
 25 26  2  0  0  0  0
 25 56  1  0  0  0  0
M  CHG  1   2   1
M  END
>  <DRUGBANK_ID>
DB07494

>  <COMMON_NAME>
(3-EXO)-3-(10,11-DIHYDRO-5H-DIBENZO[A,D][7]ANNULEN-5-YLOXY)-8,8-DIMETHYL-8-AZONIABICYCLO[3.2.1]OCTANE

$$$$
