PHC
 OpenBabel10282417072D

 25 25  0  0  0  0  0  0  0  0999 V2000
    0.6870    0.9021    0.0000 N   0  0  0  0  0  0  0  0  0  0  0  0
    1.4015    1.3146    0.0000 C   0  0  0  0  0  0  0  0  0  0  0  0
    1.4015    2.1396    0.0000 O   0  0  0  0  0  0  0  0  0  0  0  0
   -0.0275    1.3146    0.0000 C   0  0  0  0  0  0  0  0  0  0  0  0
    0.6870    0.0771    0.0000 C   0  0  1  0  0  0  0  0  0  0  0  0
    1.4015   -0.3354    0.0000 C   0  0  0  0  0  0  0  0  0  0  0  0
   -0.0275   -0.3354    0.0000 C   0  0  0  0  0  0  0  0  0  0  0  0
   -0.0275   -1.1604    0.0000 C   0  0  0  0  0  0  0  0  0  0  0  0
   -0.7420    0.0771    0.0000 C   0  0  0  0  0  0  0  0  0  0  0  0
   -0.7420   -1.5729    0.0000 C   0  0  0  0  0  0  0  0  0  0  0  0
   -1.4564   -0.3354    0.0000 C   0  0  0  0  0  0  0  0  0  0  0  0
   -1.4564   -1.1604    0.0000 C   0  0  0  0  0  0  0  0  0  0  0  0
    1.1927    0.3691    0.0000 H   0  0  0  0  0  0  0  0  0  0  0  0
    2.2952    0.7986    0.0000 H   0  0  0  0  0  0  0  0  0  0  0  0
   -0.0275    2.3846    0.0000 H   0  0  0  0  0  0  0  0  0  0  0  0
   -0.9541    0.7796    0.0000 H   0  0  0  0  0  0  0  0  0  0  0  0
   -0.9542    1.8496    0.0000 H   0  0  0  0  0  0  0  0  0  0  0  0
    1.4015   -1.4054    0.0000 H   0  0  0  0  0  0  0  0  0  0  0  0
    2.3281    0.1996    0.0000 H   0  0  0  0  0  0  0  0  0  0  0  0
    2.3282   -0.8704    0.0000 H   0  0  0  0  0  0  0  0  0  0  0  0
    0.8662   -1.6764    0.0000 H   0  0  0  0  0  0  0  0  0  0  0  0
   -0.7420    1.1091    0.0000 H   0  0  0  0  0  0  0  0  0  0  0  0
   -0.7420   -2.6049    0.0000 H   0  0  0  0  0  0  0  0  0  0  0  0
   -2.3501    0.1806    0.0000 H   0  0  0  0  0  0  0  0  0  0  0  0
   -2.3501   -1.6764    0.0000 H   0  0  0  0  0  0  0  0  0  0  0  0
  1  2  1  0  0  0  0
  1  4  1  0  0  0  0
  1  5  1  0  0  0  0
  2  3  2  0  0  0  0
  2 14  1  0  0  0  0
  4 15  1  0  0  0  0
  4 16  1  0  0  0  0
  4 17  1  0  0  0  0
  5  6  1  0  0  0  0
  5  7  1  0  0  0  0
  5 13  1  6  0  0  0
  6 18  1  0  0  0  0
  6 19  1  0  0  0  0
  6 20  1  0  0  0  0
  7  8  2  0  0  0  0
  7  9  1  0  0  0  0
  8 10  1  0  0  0  0
  8 21  1  0  0  0  0
  9 11  2  0  0  0  0
  9 22  1  0  0  0  0
 10 12  2  0  0  0  0
 10 23  1  0  0  0  0
 11 12  1  0  0  0  0
 11 24  1  0  0  0  0
 12 25  1  0  0  0  0
M  END
>  <DRUGBANK_ID>
DB04379

>  <SECONDARY_ACCESSION_NUMBERS>
EXPT02581

>  <COMMON_NAME>
N-Methyl-N-(Methylbenzyl)Formamide

$$$$
