R22
 OpenBabel10282417072D

 46 48  0  0  0  0  0  0  0  0999 V2000
    0.8338    1.9216    0.0000 C   0  0  0  0  0  0  0  0  0  0  0  0
    0.1193    2.3341    0.0000 C   0  0  0  0  0  0  0  0  0  0  0  0
    0.1193    3.1591    0.0000 C   0  0  0  0  0  0  0  0  0  0  0  0
    0.8338    3.5716    0.0000 C   0  0  0  0  0  0  0  0  0  0  0  0
    1.5483    3.1591    0.0000 C   0  0  0  0  0  0  0  0  0  0  0  0
    1.5483    2.3341    0.0000 C   0  0  0  0  0  0  0  0  0  0  0  0
    0.8338    1.0966    0.0000 O   0  0  0  0  0  0  0  0  0  0  0  0
   -0.5951    3.5716    0.0000 C   0  0  0  0  0  0  0  0  0  0  0  0
    2.2627    3.5716    0.0000 C   0  0  0  0  0  0  0  0  0  0  0  0
   -1.3096   -0.1409    0.0000 N   0  0  0  0  0  0  0  0  0  0  0  0
   -1.3096    0.6841    0.0000 C   0  0  0  0  0  0  0  0  0  0  0  0
   -0.5951    1.0966    0.0000 C   0  0  0  0  0  0  0  0  0  0  0  0
    0.1193    0.6841    0.0000 C   0  0  0  0  0  0  0  0  0  0  0  0
    0.1193   -0.1409    0.0000 C   0  0  0  0  0  0  0  0  0  0  0  0
   -0.5951   -0.5534    0.0000 C   0  0  0  0  0  0  0  0  0  0  0  0
   -0.5951   -1.3784    0.0000 C   0  0  0  0  0  0  0  0  0  0  0  0
   -2.0241    1.0966    0.0000 O   0  0  0  0  0  0  0  0  0  0  0  0
   -0.5951    1.9216    0.0000 I   0  0  0  0  0  0  0  0  0  0  0  0
    0.8338   -0.5534    0.0000 C   0  0  0  0  0  0  0  0  0  0  0  0
    0.8338   -1.3784    0.0000 S   0  0  0  0  0  0  0  0  0  0  0  0
    1.5483   -1.7909    0.0000 C   0  0  0  0  0  0  0  0  0  0  0  0
    1.5483   -2.6159    0.0000 C   0  0  0  0  0  0  0  0  0  0  0  0
    2.2157   -3.1008    0.0000 O   0  0  0  0  0  0  0  0  0  0  0  0
    1.9608   -3.8854    0.0000 C   0  0  0  0  0  0  0  0  0  0  0  0
    1.1358   -3.8854    0.0000 C   0  0  0  0  0  0  0  0  0  0  0  0
    0.8808   -3.1008    0.0000 C   0  0  0  0  0  0  0  0  0  0  0  0
   -0.7744    1.8181    0.0000 H   0  0  0  0  0  0  0  0  0  0  0  0
    0.8338    4.6036    0.0000 H   0  0  0  0  0  0  0  0  0  0  0  0
    2.4420    1.8181    0.0000 H   0  0  0  0  0  0  0  0  0  0  0  0
   -0.5951    4.6416    0.0000 H   0  0  0  0  0  0  0  0  0  0  0  0
   -1.5218    3.0366    0.0000 H   0  0  0  0  0  0  0  0  0  0  0  0
   -1.5217    4.1066    0.0000 H   0  0  0  0  0  0  0  0  0  0  0  0
    3.1894    3.0366    0.0000 H   0  0  0  0  0  0  0  0  0  0  0  0
    2.2627    4.6416    0.0000 H   0  0  0  0  0  0  0  0  0  0  0  0
    3.1893    4.1066    0.0000 H   0  0  0  0  0  0  0  0  0  0  0  0
   -2.1622   -0.6332    0.0000 H   0  0  0  0  0  0  0  0  0  0  0  0
   -1.5217   -1.9134    0.0000 H   0  0  0  0  0  0  0  0  0  0  0  0
    0.3315   -1.9134    0.0000 H   0  0  0  0  0  0  0  0  0  0  0  0
   -0.5951   -2.4484    0.0000 H   0  0  0  0  0  0  0  0  0  0  0  0
    1.7604   -0.0184    0.0000 H   0  0  0  0  0  0  0  0  0  0  0  0
    1.7604   -1.0884    0.0000 H   0  0  0  0  0  0  0  0  0  0  0  0
    2.4749   -1.2559    0.0000 H   0  0  0  0  0  0  0  0  0  0  0  0
    2.4749   -2.3259    0.0000 H   0  0  0  0  0  0  0  0  0  0  0  0
    2.5674   -4.7203    0.0000 H   0  0  0  0  0  0  0  0  0  0  0  0
    0.5292   -4.7203    0.0000 H   0  0  0  0  0  0  0  0  0  0  0  0
   -0.1007   -2.7819    0.0000 H   0  0  0  0  0  0  0  0  0  0  0  0
  1  2  1  0  0  0  0
  1  6  2  0  0  0  0
  1  7  1  0  0  0  0
  2  3  2  0  0  0  0
  2 27  1  0  0  0  0
  3  4  1  0  0  0  0
  3  8  1  0  0  0  0
  4  5  2  0  0  0  0
  4 28  1  0  0  0  0
  5  6  1  0  0  0  0
  5  9  1  0  0  0  0
  6 29  1  0  0  0  0
  7 13  1  0  0  0  0
  8 30  1  0  0  0  0
  8 31  1  0  0  0  0
  8 32  1  0  0  0  0
  9 33  1  0  0  0  0
  9 34  1  0  0  0  0
  9 35  1  0  0  0  0
 10 11  1  0  0  0  0
 10 15  1  0  0  0  0
 10 36  1  0  0  0  0
 11 12  1  0  0  0  0
 11 17  2  0  0  0  0
 12 13  2  0  0  0  0
 12 18  1  0  0  0  0
 13 14  1  0  0  0  0
 14 15  2  0  0  0  0
 14 19  1  0  0  0  0
 15 16  1  0  0  0  0
 16 37  1  0  0  0  0
 16 38  1  0  0  0  0
 16 39  1  0  0  0  0
 19 20  1  0  0  0  0
 19 40  1  0  0  0  0
 19 41  1  0  0  0  0
 20 21  1  0  0  0  0
 21 22  1  0  0  0  0
 21 42  1  0  0  0  0
 21 43  1  0  0  0  0
 22 23  1  0  0  0  0
 22 26  2  0  0  0  0
 23 24  1  0  0  0  0
 24 25  2  0  0  0  0
 24 44  1  0  0  0  0
 25 26  1  0  0  0  0
 25 45  1  0  0  0  0
 26 46  1  0  0  0  0
M  END
>  <DRUGBANK_ID>
DB08457

>  <COMMON_NAME>
4-(3,5-DIMETHYLPHENOXY)-5-(FURAN-2-YLMETHYLSULFANYLMETHYL)-3-IODO-6-METHYLPYRIDIN-2(1H)-ONE

$$$$
