
 OpenBabel10282417072D

 65 69  0  0  0  0  0  0  0  0999 V2000
   -0.7577   -1.9837    0.0000 C   0  0  0  0  0  0  0  0  0  0  0  0
   -0.7577   -1.1587    0.0000 C   0  0  2  0  0  0  0  0  0  0  0  0
   -2.1867   -1.9837    0.0000 C   0  0  0  0  0  0  0  0  0  0  0  0
   -1.4722   -2.3962    0.0000 C   0  0  0  0  0  0  0  0  0  0  0  0
   -1.4722   -0.7462    0.0000 C   0  0  1  0  0  0  0  0  0  0  0  0
   -2.1867   -1.1587    0.0000 C   0  0  1  0  0  0  0  0  0  0  0  0
   -3.6156   -1.1587    0.0000 C   0  0  0  0  0  0  0  0  0  0  0  0
   -3.6156   -1.9837    0.0000 C   0  0  0  0  0  0  0  0  0  0  0  0
   -2.9011   -2.3962    0.0000 C   0  0  0  0  0  0  0  0  0  0  0  0
   -2.9011   -0.7462    0.0000 C   0  0  0  0  0  0  0  0  0  0  0  0
   -0.7577    0.4913    0.0000 C   0  0  0  0  0  0  0  0  0  0  0  0
   -1.4722    0.0787    0.0000 C   0  0  2  0  0  0  0  0  0  0  0  0
    0.7413   -1.0010    0.0000 C   0  0  0  0  0  0  0  0  0  0  0  0
    1.2262   -0.3337    0.0000 C   0  0  2  0  0  0  0  0  0  0  0  0
    0.7413    0.3337    0.0000 C   0  0  1  0  0  0  0  0  0  0  0  0
   -4.3301   -2.3962    0.0000 O   0  0  0  0  0  0  0  0  0  0  0  0
   -1.4722   -1.5712    0.0000 Cl  0  0  0  0  0  0  0  0  0  0  0  0
   -0.7577   -0.3337    0.0000 H   0  0  0  0  0  0  0  0  0  0  0  0
   -0.0433    0.0787    0.0000 C   0  0  1  0  0  0  0  0  0  0  0  0
   -0.0433    0.9038    0.0000 C   0  0  0  0  0  0  0  0  0  0  0  0
   -0.0433   -0.7462    0.0000 C   0  0  2  0  0  0  0  0  0  0  0  0
   -0.0433   -1.5712    0.0000 H   0  0  0  0  0  0  0  0  0  0  0  0
   -2.1867   -0.3337    0.0000 C   0  0  0  0  0  0  0  0  0  0  0  0
   -2.1867    0.4913    0.0000 O   0  0  0  0  0  0  0  0  0  0  0  0
    2.0512   -0.3337    0.0000 C   0  0  0  0  0  0  0  0  0  0  0  0
    0.7413    1.1587    0.0000 C   0  0  0  0  0  0  0  0  0  0  0  0
    1.4558    1.5712    0.0000 C   0  0  0  0  0  0  0  0  0  0  0  0
    0.0268    1.5712    0.0000 O   0  0  0  0  0  0  0  0  0  0  0  0
    1.4558    2.3962    0.0000 Cl  0  0  0  0  0  0  0  0  0  0  0  0
    1.5663    0.3337    0.0000 O   0  0  0  0  0  0  0  0  0  0  0  0
    2.2808    0.7462    0.0000 C   0  0  0  0  0  0  0  0  0  0  0  0
    2.2808    1.5712    0.0000 O   0  0  0  0  0  0  0  0  0  0  0  0
    2.9952    0.3337    0.0000 C   0  0  0  0  0  0  0  0  0  0  0  0
    3.6627    0.8186    0.0000 O   0  0  0  0  0  0  0  0  0  0  0  0
    3.2502   -0.4508    0.0000 C   0  0  0  0  0  0  0  0  0  0  0  0
    4.0752   -0.4508    0.0000 C   0  0  0  0  0  0  0  0  0  0  0  0
    4.3301    0.3337    0.0000 C   0  0  0  0  0  0  0  0  0  0  0  0
    0.1689   -2.5187    0.0000 H   0  0  0  0  0  0  0  0  0  0  0  0
   -0.7577   -3.0537    0.0000 H   0  0  0  0  0  0  0  0  0  0  0  0
   -1.4722   -3.4662    0.0000 H   0  0  0  0  0  0  0  0  0  0  0  0
   -0.5456   -2.9312    0.0000 H   0  0  0  0  0  0  0  0  0  0  0  0
   -4.5093   -0.6427    0.0000 H   0  0  0  0  0  0  0  0  0  0  0  0
   -2.9011   -3.4282    0.0000 H   0  0  0  0  0  0  0  0  0  0  0  0
   -2.9011    0.2858    0.0000 H   0  0  0  0  0  0  0  0  0  0  0  0
   -0.7577    1.5613    0.0000 H   0  0  0  0  0  0  0  0  0  0  0  0
   -1.6844    1.0263    0.0000 H   0  0  0  0  0  0  0  0  0  0  0  0
   -2.3989   -0.4563    0.0000 H   0  0  0  0  0  0  0  0  0  0  0  0
    1.0720   -2.0186    0.0000 H   0  0  0  0  0  0  0  0  0  0  0  0
    1.7981   -1.1684    0.0000 H   0  0  0  0  0  0  0  0  0  0  0  0
    1.7119   -1.2871    0.0000 H   0  0  0  0  0  0  0  0  0  0  0  0
    0.8833    1.4388    0.0000 H   0  0  0  0  0  0  0  0  0  0  0  0
   -0.9699    1.4388    0.0000 H   0  0  0  0  0  0  0  0  0  0  0  0
   -0.0433    1.9738    0.0000 H   0  0  0  0  0  0  0  0  0  0  0  0
   -1.2601    0.2013    0.0000 H   0  0  0  0  0  0  0  0  0  0  0  0
   -3.1133    0.2013    0.0000 H   0  0  0  0  0  0  0  0  0  0  0  0
   -2.1867    0.7363    0.0000 H   0  0  0  0  0  0  0  0  0  0  0  0
   -2.1866    1.4613    0.0000 H   0  0  0  0  0  0  0  0  0  0  0  0
    2.5862   -1.2603    0.0000 H   0  0  0  0  0  0  0  0  0  0  0  0
    2.5862    0.5929    0.0000 H   0  0  0  0  0  0  0  0  0  0  0  0
    3.1212   -0.3337    0.0000 H   0  0  0  0  0  0  0  0  0  0  0  0
    2.3824    1.0362    0.0000 H   0  0  0  0  0  0  0  0  0  0  0  0
    2.3824    2.1062    0.0000 H   0  0  0  0  0  0  0  0  0  0  0  0
    2.6437   -1.2857    0.0000 H   0  0  0  0  0  0  0  0  0  0  0  0
    4.6818   -1.2857    0.0000 H   0  0  0  0  0  0  0  0  0  0  0  0
    5.3116    0.6526    0.0000 H   0  0  0  0  0  0  0  0  0  0  0  0
  1 38  1  0  0  0  0
  1 39  1  0  0  0  0
  2  1  1  0  0  0  0
  2 18  1  1  0  0  0
  2  5  1  0  0  0  0
  3  4  1  0  0  0  0
  4  1  1  0  0  0  0
  4 40  1  0  0  0  0
  4 41  1  0  0  0  0
  5 12  1  0  0  0  0
  5 17  1  6  0  0  0
  5  6  1  0  0  0  0
  6  3  1  0  0  0  0
  6 10  1  0  0  0  0
  6 23  1  1  0  0  0
  7  8  1  0  0  0  0
  7 10  2  0  0  0  0
  7 42  1  0  0  0  0
  8  9  1  0  0  0  0
  8 16  2  0  0  0  0
  9  3  2  0  0  0  0
  9 43  1  0  0  0  0
 10 44  1  0  0  0  0
 11 12  1  0  0  0  0
 11 45  1  0  0  0  0
 11 46  1  0  0  0  0
 12 24  1  0  0  0  0
 12 47  1  6  0  0  0
 13 14  1  0  0  0  0
 13 48  1  0  0  0  0
 13 49  1  0  0  0  0
 14 25  1  0  0  0  0
 14 50  1  1  0  0  0
 15 14  1  0  0  0  0
 15 26  1  1  0  0  0
 15 30  1  0  0  0  0
 19 11  1  0  0  0  0
 19 15  1  0  0  0  0
 19 20  1  1  0  0  0
 20 51  1  0  0  0  0
 20 52  1  0  0  0  0
 20 53  1  0  0  0  0
 21  2  1  0  0  0  0
 21 13  1  0  0  0  0
 21 19  1  0  0  0  0
 21 22  1  6  0  0  0
 23 54  1  0  0  0  0
 23 55  1  0  0  0  0
 23 56  1  0  0  0  0
 24 57  1  0  0  0  0
 25 58  1  0  0  0  0
 25 59  1  0  0  0  0
 25 60  1  0  0  0  0
 26 27  1  0  0  0  0
 26 28  2  0  0  0  0
 27 29  1  0  0  0  0
 27 61  1  0  0  0  0
 27 62  1  0  0  0  0
 30 31  1  0  0  0  0
 31 32  2  0  0  0  0
 31 33  1  0  0  0  0
 33 35  2  0  0  0  0
 34 33  1  0  0  0  0
 34 37  1  0  0  0  0
 35 36  1  0  0  0  0
 35 63  1  0  0  0  0
 36 37  2  0  0  0  0
 36 64  1  0  0  0  0
 37 65  1  0  0  0  0
M  END
>  <DRUGBANK_ID>
DB14512

>  <SECONDARY_ACCESSION_NUMBERS>
DBSALT002454

>  <COMMON_NAME>
Mometasone furoate

>  <CAS_NUMBER>
83919-23-7

>  <UNII>
04201GDN4R

>  <SYNONYMS>
Mometasone furoate; Mometasone furoate anhydrous

$$$$
