
 OpenBabel10282417072D

 20 20  0  0  1  0  0  0  0  0999 V2000
    2.6329    0.3323    0.0000 O   0  0  0  0  0  0  0  0  0  0  0  0
    2.0198    0.8843    0.0000 C   0  0  0  0  0  0  0  0  0  0  0  0
    1.2352    0.6294    0.0000 C   0  0  2  0  0  0  0  0  0  0  0  0
    0.9803   -0.1553    0.0000 N   0  0  0  0  0  0  0  0  0  0  0  0
    0.1553   -0.1553    0.0000 C   0  0  0  0  0  0  0  0  0  0  0  0
   -0.0997    0.6294    0.0000 C   0  0  2  0  0  0  0  0  0  0  0  0
   -0.8843    0.8843    0.0000 O   0  0  0  0  0  0  0  0  0  0  0  0
    0.5678    1.1143    0.0000 C   0  0  1  0  0  0  0  0  0  0  0  0
    0.5678    1.9393    0.0000 O   0  0  0  0  0  0  0  0  0  0  0  0
    2.4313   -0.6165    0.0000 H   0  0  0  0  0  0  0  0  0  0  0  0
    2.2423    1.9309    0.0000 H   0  0  0  0  0  0  0  0  0  0  0  0
    1.2246    1.6003    0.0000 H   0  0  0  0  0  0  0  0  0  0  0  0
    1.9918   -0.1272    0.0000 H   0  0  0  0  0  0  0  0  0  0  0  0
    1.5799   -0.9805    0.0000 H   0  0  0  0  0  0  0  0  0  0  0  0
   -0.4736   -1.0210    0.0000 H   0  0  0  0  0  0  0  0  0  0  0  0
   -0.9015    0.0121    0.0000 H   0  0  0  0  0  0  0  0  0  0  0  0
   -0.8563   -0.1272    0.0000 H   0  0  0  0  0  0  0  0  0  0  0  0
   -1.0860    1.8331    0.0000 H   0  0  0  0  0  0  0  0  0  0  0  0
   -0.3856    1.6001    0.0000 H   0  0  0  0  0  0  0  0  0  0  0  0
    1.4078    2.4243    0.0000 H   0  0  0  0  0  0  0  0  0  0  0  0
  1  2  1  0  0  0  0
  1 10  1  0  0  0  0
  2 11  1  0  0  0  0
  2 12  1  0  0  0  0
  3  2  1  0  0  0  0
  3  4  1  0  0  0  0
  3  8  1  0  0  0  0
  3 13  1  1  0  0  0
  4  5  1  0  0  0  0
  4 14  1  0  0  0  0
  5  6  1  0  0  0  0
  5 15  1  0  0  0  0
  5 16  1  0  0  0  0
  6  7  1  0  0  0  0
  6  8  1  0  0  0  0
  6 17  1  1  0  0  0
  7 18  1  0  0  0  0
  8  9  1  0  0  0  0
  8 19  1  6  0  0  0
  9 20  1  0  0  0  0
M  END
>  <DRUGBANK_ID>
DB03411

>  <SECONDARY_ACCESSION_NUMBERS>
EXPT01875

>  <COMMON_NAME>
2-Hydroxymethyl-Pyrrolidine-3,4-Diol

>  <UNII>
Z330X18GMD

$$$$
