
 OpenBabel10282417072D

 54 58  0  0  0  0  0  0  0  0999 V2000
   -0.3603    2.6865    0.0000 C   0  0  0  0  0  0  0  0  0  0  0  0
    0.3541    2.2731    0.0000 C   0  0  0  0  0  0  0  0  0  0  0  0
    0.3541    1.4481    0.0000 N   0  0  0  0  0  0  0  0  0  0  0  0
    1.7829    1.4481    0.0000 C   0  0  0  0  0  0  0  0  0  0  0  0
    1.7829    2.2731    0.0000 C   0  0  0  0  0  0  0  0  0  0  0  0
    1.0664    2.6865    0.0000 C   0  0  0  0  0  0  0  0  0  0  0  0
    2.4972    2.6865    0.0000 C   0  0  0  0  0  0  0  0  0  0  0  0
    2.4972    3.5115    0.0000 C   0  0  0  0  0  0  0  0  0  0  0  0
    3.2117    3.9229    0.0000 N   0  0  0  0  0  0  0  0  0  0  0  0
    1.7829    3.9229    0.0000 O   0  0  0  0  0  0  0  0  0  0  0  0
    3.2117    2.2731    0.0000 C   0  0  0  0  0  0  0  0  0  0  0  0
    3.2117    1.4481    0.0000 C   0  0  0  0  0  0  0  0  0  0  0  0
    2.4972    1.0367    0.0000 C   0  0  0  0  0  0  0  0  0  0  0  0
   -0.3603    1.0367    0.0000 C   0  0  0  0  0  0  0  0  0  0  0  0
   -0.3603    0.2058    0.0000 N   0  0  0  0  0  0  0  0  0  0  0  0
   -1.0726   -0.2097    0.0000 C   0  0  0  0  0  0  0  0  0  0  0  0
   -1.0726   -1.0346    0.0000 N   0  0  0  0  0  0  0  0  0  0  0  0
   -0.3582   -1.4481    0.0000 C   0  0  0  0  0  0  0  0  0  0  0  0
   -0.3582   -2.2731    0.0000 C   0  0  0  0  0  0  0  0  0  0  0  0
   -1.0746   -2.6844    0.0000 C   0  0  0  0  0  0  0  0  0  0  0  0
   -1.0746   -3.5094    0.0000 C   0  0  0  0  0  0  0  0  0  0  0  0
   -0.3582   -3.9229    0.0000 C   0  0  0  0  0  0  0  0  0  0  0  0
    0.3541   -3.5094    0.0000 C   0  0  0  0  0  0  0  0  0  0  0  0
    0.3541   -2.6844    0.0000 C   0  0  0  0  0  0  0  0  0  0  0  0
   -1.7870    0.2058    0.0000 C   0  0  0  0  0  0  0  0  0  0  0  0
   -1.7870    1.0367    0.0000 C   0  0  0  0  0  0  0  0  0  0  0  0
   -1.0726    1.4523    0.0000 N   0  0  0  0  0  0  0  0  0  0  0  0
   -2.4993    1.4523    0.0000 C   0  0  0  0  0  0  0  0  0  0  0  0
   -3.2117    1.0367    0.0000 C   0  0  0  0  0  0  0  0  0  0  0  0
   -3.2117    0.2058    0.0000 O   0  0  0  0  0  0  0  0  0  0  0  0
   -2.4993   -0.2097    0.0000 C   0  0  0  0  0  0  0  0  0  0  0  0
   -0.3592    3.7565    0.0000 H   0  0  0  0  0  0  0  0  0  0  0  0
   -1.2875    2.1524    0.0000 H   0  0  0  0  0  0  0  0  0  0  0  0
   -1.2864    3.2224    0.0000 H   0  0  0  0  0  0  0  0  0  0  0  0
    1.0651    3.7185    0.0000 H   0  0  0  0  0  0  0  0  0  0  0  0
    4.0637    3.4297    0.0000 H   0  0  0  0  0  0  0  0  0  0  0  0
    3.2129    4.9074    0.0000 H   0  0  0  0  0  0  0  0  0  0  0  0
    4.1057    2.7887    0.0000 H   0  0  0  0  0  0  0  0  0  0  0  0
    4.1051    0.9316    0.0000 H   0  0  0  0  0  0  0  0  0  0  0  0
    2.4971    0.0047    0.0000 H   0  0  0  0  0  0  0  0  0  0  0  0
   -1.9255   -1.5264    0.0000 H   0  0  0  0  0  0  0  0  0  0  0  0
    0.5687   -0.9136    0.0000 H   0  0  0  0  0  0  0  0  0  0  0  0
    0.5683   -1.9834    0.0000 H   0  0  0  0  0  0  0  0  0  0  0  0
   -1.9677   -2.1673    0.0000 H   0  0  0  0  0  0  0  0  0  0  0  0
   -1.9683   -4.0255    0.0000 H   0  0  0  0  0  0  0  0  0  0  0  0
   -0.3569   -4.9549    0.0000 H   0  0  0  0  0  0  0  0  0  0  0  0
    1.2484   -4.0243    0.0000 H   0  0  0  0  0  0  0  0  0  0  0  0
    1.2479   -2.1684    0.0000 H   0  0  0  0  0  0  0  0  0  0  0  0
   -2.4993    2.5223    0.0000 H   0  0  0  0  0  0  0  0  0  0  0  0
   -3.4271    1.9852    0.0000 H   0  0  0  0  0  0  0  0  0  0  0  0
   -4.1396    1.5696    0.0000 H   0  0  0  0  0  0  0  0  0  0  0  0
   -4.1377    0.5007    0.0000 H   0  0  0  0  0  0  0  0  0  0  0  0
   -2.4993   -1.2797    0.0000 H   0  0  0  0  0  0  0  0  0  0  0  0
   -3.4271   -0.7427    0.0000 H   0  0  0  0  0  0  0  0  0  0  0  0
  1  2  1  0  0  0  0
  1 32  1  0  0  0  0
  1 33  1  0  0  0  0
  1 34  1  0  0  0  0
  2  3  1  0  0  0  0
  2  6  2  0  0  0  0
  3  4  1  0  0  0  0
  3 14  1  0  0  0  0
  4  5  1  0  0  0  0
  4 13  2  0  0  0  0
  5  7  2  0  0  0  0
  6  5  1  0  0  0  0
  6 35  1  0  0  0  0
  7  8  1  0  0  0  0
  7 11  1  0  0  0  0
  8  9  1  0  0  0  0
  8 10  2  0  0  0  0
  9 36  1  0  0  0  0
  9 37  1  0  0  0  0
 11 38  1  0  0  0  0
 12 11  2  0  0  0  0
 12 39  1  0  0  0  0
 13 12  1  0  0  0  0
 13 40  1  0  0  0  0
 14 15  2  0  0  0  0
 14 27  1  0  0  0  0
 15 16  1  0  0  0  0
 16 17  1  0  0  0  0
 16 25  2  0  0  0  0
 17 18  1  0  0  0  0
 17 41  1  0  0  0  0
 18 19  1  0  0  0  0
 18 42  1  0  0  0  0
 18 43  1  0  0  0  0
 19 20  2  0  0  0  0
 19 24  1  0  0  0  0
 20 21  1  0  0  0  0
 20 44  1  0  0  0  0
 21 22  2  0  0  0  0
 21 45  1  0  0  0  0
 22 46  1  0  0  0  0
 23 22  1  0  0  0  0
 23 47  1  0  0  0  0
 24 23  2  0  0  0  0
 24 48  1  0  0  0  0
 25 31  1  0  0  0  0
 26 25  1  0  0  0  0
 26 28  1  0  0  0  0
 27 26  2  0  0  0  0
 28 29  1  0  0  0  0
 28 49  1  0  0  0  0
 28 50  1  0  0  0  0
 29 30  1  0  0  0  0
 29 51  1  0  0  0  0
 29 52  1  0  0  0  0
 31 30  1  0  0  0  0
 31 53  1  0  0  0  0
 31 54  1  0  0  0  0
M  END
>  <DRUGBANK_ID>
DB16874

>  <COMMON_NAME>
CB-5083

>  <CAS_NUMBER>
1542705-92-9

>  <UNII>
591IV6UL6J

>  <SYNONYMS>
1-(4-(benzylamino)-7,8-dihydro-5H-pyrano[4,3-d]pyrimidin-2-yl)-2-methyl-1H-indole-4-carboxamide; 1-(7,8-Dihydro-4-((phenylmethyl)amino)-5H-pyrano(4,3-d)pyrimidin-2-yl)-2-methyl-1H-indole-4-carboxamide

$$$$
