
 OpenBabel10282417072D

 42 47  0  0  0  0  0  0  0  0999 V2000
   -5.0376   -0.8250    0.0000 C   0  0  0  0  0  0  0  0  0  0  0  0
   -4.2126   -0.8250    0.0000 C   0  0  0  0  0  0  0  0  0  0  0  0
   -3.7277   -1.4924    0.0000 C   0  0  0  0  0  0  0  0  0  0  0  0
   -3.9826   -2.2771    0.0000 C   0  0  0  0  0  0  0  0  0  0  0  0
   -3.4977   -2.9445    0.0000 N   0  0  0  0  0  0  0  0  0  0  0  0
   -3.9826   -3.6119    0.0000 C   0  0  0  0  0  0  0  0  0  0  0  0
   -4.7672   -3.3570    0.0000 C   0  0  0  0  0  0  0  0  0  0  0  0
   -4.7672   -2.5320    0.0000 N   0  0  0  0  0  0  0  0  0  0  0  0
   -5.3803   -3.9090    0.0000 C   0  0  0  0  0  0  0  0  0  0  0  0
   -6.1649   -3.6541    0.0000 C   0  0  0  0  0  0  0  0  0  0  0  0
   -6.7780   -4.2061    0.0000 C   0  0  0  0  0  0  0  0  0  0  0  0
   -6.6065   -5.0131    0.0000 C   0  0  0  0  0  0  0  0  0  0  0  0
   -5.8219   -5.2680    0.0000 N   0  0  0  0  0  0  0  0  0  0  0  0
   -5.2088   -4.7160    0.0000 C   0  0  0  0  0  0  0  0  0  0  0  0
   -4.4242   -4.9709    0.0000 C   0  0  0  0  0  0  0  0  0  0  0  0
   -3.8111   -4.4189    0.0000 C   0  0  0  0  0  0  0  0  0  0  0  0
   -3.0265   -4.6738    0.0000 C   0  0  0  0  0  0  0  0  0  0  0  0
   -2.8549   -5.4808    0.0000 C   0  0  0  0  0  0  0  0  0  0  0  0
   -3.4680   -6.0329    0.0000 C   0  0  0  0  0  0  0  0  0  0  0  0
   -4.2526   -5.7779    0.0000 N   0  0  0  0  0  0  0  0  0  0  0  0
   -2.9430   -1.2375    0.0000 C   0  0  0  0  0  0  0  0  0  0  0  0
   -2.9430   -0.4125    0.0000 C   0  0  0  0  0  0  0  0  0  0  0  0
   -3.7277   -0.1576    0.0000 N   0  0  0  0  0  0  0  0  0  0  0  0
   -2.2286    0.0000    0.0000 C   0  0  0  0  0  0  0  0  0  0  0  0
   -1.5141   -0.4125    0.0000 C   0  0  0  0  0  0  0  0  0  0  0  0
   -1.5141   -1.2375    0.0000 C   0  0  0  0  0  0  0  0  0  0  0  0
   -0.7996   -1.6500    0.0000 F   0  0  0  0  0  0  0  0  0  0  0  0
   -2.2286   -1.6500    0.0000 C   0  0  0  0  0  0  0  0  0  0  0  0
   -5.5726    0.1016    0.0000 H   0  0  0  0  0  0  0  0  0  0  0  0
   -5.5726   -1.7516    0.0000 H   0  0  0  0  0  0  0  0  0  0  0  0
   -6.1076   -0.8250    0.0000 H   0  0  0  0  0  0  0  0  0  0  0  0
   -5.5637   -1.9533    0.0000 H   0  0  0  0  0  0  0  0  0  0  0  0
   -6.3795   -2.6447    0.0000 H   0  0  0  0  0  0  0  0  0  0  0  0
   -7.7595   -3.8872    0.0000 H   0  0  0  0  0  0  0  0  0  0  0  0
   -7.3734   -5.7036    0.0000 H   0  0  0  0  0  0  0  0  0  0  0  0
   -2.2596   -3.9832    0.0000 H   0  0  0  0  0  0  0  0  0  0  0  0
   -1.8734   -5.7996    0.0000 H   0  0  0  0  0  0  0  0  0  0  0  0
   -3.2534   -7.0424    0.0000 H   0  0  0  0  0  0  0  0  0  0  0  0
   -4.0320    0.7787    0.0000 H   0  0  0  0  0  0  0  0  0  0  0  0
   -2.2286    1.0320    0.0000 H   0  0  0  0  0  0  0  0  0  0  0  0
   -0.6204    0.1035    0.0000 H   0  0  0  0  0  0  0  0  0  0  0  0
   -2.2286   -2.6820    0.0000 H   0  0  0  0  0  0  0  0  0  0  0  0
  1  2  1  0  0  0  0
  1 29  1  0  0  0  0
  1 30  1  0  0  0  0
  1 31  1  0  0  0  0
  2  3  2  0  0  0  0
  2 23  1  0  0  0  0
  3  4  1  0  0  0  0
  3 21  1  0  0  0  0
  4  5  2  0  0  0  0
  4  8  1  0  0  0  0
  5  6  1  0  0  0  0
  6  7  2  0  0  0  0
  6 16  1  0  0  0  0
  7  8  1  0  0  0  0
  7  9  1  0  0  0  0
  8 32  1  0  0  0  0
  9 10  2  0  0  0  0
  9 14  1  0  0  0  0
 10 11  1  0  0  0  0
 10 33  1  0  0  0  0
 11 12  2  0  0  0  0
 11 34  1  0  0  0  0
 12 13  1  0  0  0  0
 12 35  1  0  0  0  0
 13 14  2  0  0  0  0
 14 15  1  0  0  0  0
 15 16  2  0  0  0  0
 15 20  1  0  0  0  0
 16 17  1  0  0  0  0
 17 18  2  0  0  0  0
 17 36  1  0  0  0  0
 18 19  1  0  0  0  0
 18 37  1  0  0  0  0
 19 20  2  0  0  0  0
 19 38  1  0  0  0  0
 21 22  2  0  0  0  0
 21 28  1  0  0  0  0
 22 23  1  0  0  0  0
 22 24  1  0  0  0  0
 23 39  1  0  0  0  0
 24 25  2  0  0  0  0
 24 40  1  0  0  0  0
 25 26  1  0  0  0  0
 25 41  1  0  0  0  0
 26 27  1  0  0  0  0
 26 28  2  0  0  0  0
 28 42  1  0  0  0  0
M  END
>  <DRUGBANK_ID>
DB17143

>  <COMMON_NAME>
APTO-253

>  <CAS_NUMBER>
916151-99-0

>  <UNII>
WB59MRW00U

>  <SYNONYMS>
1h-imidazo(4,5-f)(1,10)phenanthroline, 2-(5-fluoro-2-methyl-1h-indol-3-yl)-; 2-(5-fluoro-2-methyl-1h-indol-3-yl)-1h-imidazo(4,5-f)(1,10)phenanthroline; 2-(5-fluoro-2-methyl-1H-indol-3-yl)-1H-imidazo[4,5-f][1,10] phenanthroline; Lor-253(former code); Lt-253(former code)

$$$$
