XMK
 OpenBabel10282417072D

 60 63  0  0  0  0  0  0  0  0999 V2000
    1.1686    1.4081    0.0000 C   0  0  0  0  0  0  0  0  0  0  0  0
   -2.4038    4.2956    0.0000 C   0  0  0  0  0  0  0  0  0  0  0  0
   -0.9749    2.6456    0.0000 N   0  0  0  0  0  0  0  0  0  0  0  0
   -1.6893    3.0581    0.0000 C   0  0  0  0  0  0  0  0  0  0  0  0
   -1.6893    3.8831    0.0000 C   0  0  0  0  0  0  0  0  0  0  0  0
   -0.2604    3.0581    0.0000 C   0  0  0  0  0  0  0  0  0  0  0  0
   -2.4038    2.6456    0.0000 C   0  0  0  0  0  0  0  0  0  0  0  0
   -0.9749    1.8206    0.0000 C   0  0  0  0  0  0  0  0  0  0  0  0
    0.4541    1.8206    0.0000 C   0  0  0  0  0  0  0  0  0  0  0  0
    0.4541    2.6456    0.0000 C   0  0  0  0  0  0  0  0  0  0  0  0
   -3.1183    3.8831    0.0000 N   0  0  0  0  0  0  0  0  0  0  0  0
   -3.1183    3.0581    0.0000 C   0  0  0  0  0  0  0  0  0  0  0  0
   -0.2604    1.4081    0.0000 C   0  0  0  0  0  0  0  0  0  0  0  0
    0.4541   -3.1294    0.0000 C   0  0  0  0  0  0  0  0  0  0  0  0
    1.1686   -2.7169    0.0000 C   0  0  0  0  0  0  0  0  0  0  0  0
   -0.2604   -4.3669    0.0000 C   0  0  0  0  0  0  0  0  0  0  0  0
    1.1686   -1.8919    0.0000 S   0  0  0  0  0  0  0  0  0  0  0  0
    0.4541   -3.9544    0.0000 C   0  0  0  0  0  0  0  0  0  0  0  0
    0.4541   -6.4294    0.0000 Cl  0  0  0  0  0  0  0  0  0  0  0  0
    1.9936   -1.8919    0.0000 O   0  0  0  0  0  0  0  0  0  0  0  0
    1.8830    0.1706    0.0000 C   0  0  0  0  0  0  0  0  0  0  0  0
    1.8830   -0.6544    0.0000 C   0  0  0  0  0  0  0  0  0  0  0  0
    1.1686   -1.0669    0.0000 N   0  0  0  0  0  0  0  0  0  0  0  0
    1.1686   -4.3669    0.0000 C   0  0  0  0  0  0  0  0  0  0  0  0
    0.4541    0.1706    0.0000 C   0  0  0  0  0  0  0  0  0  0  0  0
    0.4541   -0.6544    0.0000 C   0  0  0  0  0  0  0  0  0  0  0  0
   -0.2604   -5.1919    0.0000 C   0  0  0  0  0  0  0  0  0  0  0  0
    1.1686    0.5831    0.0000 N   0  0  0  0  0  0  0  0  0  0  0  0
    1.1686   -5.1919    0.0000 C   0  0  0  0  0  0  0  0  0  0  0  0
    0.4541   -5.6044    0.0000 C   0  0  0  0  0  0  0  0  0  0  0  0
    0.3436   -1.8919    0.0000 O   0  0  0  0  0  0  0  0  0  0  0  0
    2.0952    1.9431    0.0000 H   0  0  0  0  0  0  0  0  0  0  0  0
    2.0952    0.8731    0.0000 H   0  0  0  0  0  0  0  0  0  0  0  0
   -2.4038    5.3276    0.0000 H   0  0  0  0  0  0  0  0  0  0  0  0
   -0.7956    4.3991    0.0000 H   0  0  0  0  0  0  0  0  0  0  0  0
   -0.2604    4.1281    0.0000 H   0  0  0  0  0  0  0  0  0  0  0  0
    0.6662    3.5931    0.0000 H   0  0  0  0  0  0  0  0  0  0  0  0
   -2.4038    1.6136    0.0000 H   0  0  0  0  0  0  0  0  0  0  0  0
   -1.9015    1.2856    0.0000 H   0  0  0  0  0  0  0  0  0  0  0  0
   -0.9749    0.7506    0.0000 H   0  0  0  0  0  0  0  0  0  0  0  0
   -0.4725    2.3556    0.0000 H   0  0  0  0  0  0  0  0  0  0  0  0
    1.3807    3.1806    0.0000 H   0  0  0  0  0  0  0  0  0  0  0  0
    1.3807    2.1106    0.0000 H   0  0  0  0  0  0  0  0  0  0  0  0
   -4.0120    2.5421    0.0000 H   0  0  0  0  0  0  0  0  0  0  0  0
   -0.2604    0.3381    0.0000 H   0  0  0  0  0  0  0  0  0  0  0  0
    0.6662    0.8731    0.0000 H   0  0  0  0  0  0  0  0  0  0  0  0
   -0.4396   -2.6134    0.0000 H   0  0  0  0  0  0  0  0  0  0  0  0
    2.0623   -3.2329    0.0000 H   0  0  0  0  0  0  0  0  0  0  0  0
   -1.1541   -3.8509    0.0000 H   0  0  0  0  0  0  0  0  0  0  0  0
    2.8097    0.7056    0.0000 H   0  0  0  0  0  0  0  0  0  0  0  0
    1.8830    1.2406    0.0000 H   0  0  0  0  0  0  0  0  0  0  0  0
    2.8097   -1.1894    0.0000 H   0  0  0  0  0  0  0  0  0  0  0  0
    1.8830   -1.7244    0.0000 H   0  0  0  0  0  0  0  0  0  0  0  0
    2.0623   -3.8509    0.0000 H   0  0  0  0  0  0  0  0  0  0  0  0
   -0.4725    0.7056    0.0000 H   0  0  0  0  0  0  0  0  0  0  0  0
    0.4541    1.2406    0.0000 H   0  0  0  0  0  0  0  0  0  0  0  0
   -0.4725   -1.1894    0.0000 H   0  0  0  0  0  0  0  0  0  0  0  0
   -0.4725   -0.1194    0.0000 H   0  0  0  0  0  0  0  0  0  0  0  0
   -1.1541   -5.7079    0.0000 H   0  0  0  0  0  0  0  0  0  0  0  0
    2.0623   -5.7079    0.0000 H   0  0  0  0  0  0  0  0  0  0  0  0
  1  9  1  0  0  0  0
  1 28  1  0  0  0  0
  1 32  1  0  0  0  0
  1 33  1  0  0  0  0
  2  5  2  0  0  0  0
  2 11  1  0  0  0  0
  2 34  1  0  0  0  0
  3  4  1  0  0  0  0
  3  6  1  0  0  0  0
  3  8  1  0  0  0  0
  4  5  1  0  0  0  0
  4  7  2  0  0  0  0
  5 35  1  0  0  0  0
  6 10  1  0  0  0  0
  6 36  1  0  0  0  0
  6 37  1  0  0  0  0
  7 12  1  0  0  0  0
  7 38  1  0  0  0  0
  8 13  1  0  0  0  0
  8 39  1  0  0  0  0
  8 40  1  0  0  0  0
  9 10  1  0  0  0  0
  9 13  1  0  0  0  0
  9 41  1  0  0  0  0
 10 42  1  0  0  0  0
 10 43  1  0  0  0  0
 11 12  2  0  0  0  0
 12 44  1  0  0  0  0
 13 45  1  0  0  0  0
 13 46  1  0  0  0  0
 14 15  2  0  0  0  0
 14 18  1  0  0  0  0
 14 47  1  0  0  0  0
 15 17  1  0  0  0  0
 15 48  1  0  0  0  0
 16 18  2  0  0  0  0
 16 27  1  0  0  0  0
 16 49  1  0  0  0  0
 17 20  2  0  0  0  0
 17 23  1  0  0  0  0
 17 31  2  0  0  0  0
 18 24  1  0  0  0  0
 19 30  1  0  0  0  0
 21 22  1  0  0  0  0
 21 28  1  0  0  0  0
 21 50  1  0  0  0  0
 21 51  1  0  0  0  0
 22 23  1  0  0  0  0
 22 52  1  0  0  0  0
 22 53  1  0  0  0  0
 23 26  1  0  0  0  0
 24 29  2  0  0  0  0
 24 54  1  0  0  0  0
 25 26  1  0  0  0  0
 25 28  1  0  0  0  0
 25 55  1  0  0  0  0
 25 56  1  0  0  0  0
 26 57  1  0  0  0  0
 26 58  1  0  0  0  0
 27 30  2  0  0  0  0
 27 59  1  0  0  0  0
 29 30  1  0  0  0  0
 29 60  1  0  0  0  0
M  END
>  <DRUGBANK_ID>
DB08746

>  <COMMON_NAME>
1-[[(1E)-2-(4-CHLOROPHENYL)ETHENYL]SULFONYL]-4-[[1-(4-PYRIDINYL)-4-PIPERIDINYL]METHYL]PIPERAZINE

$$$$
