
 OpenBabel10282417072D

 55 59  0  0  0  0  0  0  0  0999 V2000
    3.8066    2.2717    0.0000 C   0  0  0  0  0  0  0  0  0  0  0  0
    4.5491    2.6314    0.0000 C   0  0  0  0  0  0  0  0  0  0  0  0
    4.6945    3.4435    0.0000 N   0  0  0  0  0  0  0  0  0  0  0  0
    5.5117    3.5562    0.0000 N   0  0  0  0  0  0  0  0  0  0  0  0
    5.8714    2.8138    0.0000 C   0  0  0  0  0  0  0  0  0  0  0  0
    5.2765    2.2422    0.0000 C   0  0  0  0  0  0  0  0  0  0  0  0
    5.3892    1.4250    0.0000 C   0  0  0  0  0  0  0  0  0  0  0  0
    4.7378    0.9187    0.0000 N   0  0  0  0  0  0  0  0  0  0  0  0
    4.8505    0.1015    0.0000 C   0  0  0  0  0  0  0  0  0  0  0  0
    4.1990   -0.4048    0.0000 C   0  0  0  0  0  0  0  0  0  0  0  0
    3.4349   -0.0937    0.0000 C   0  0  0  0  0  0  0  0  0  0  0  0
    3.3222    0.7235    0.0000 C   0  0  0  0  0  0  0  0  0  0  0  0
    3.9736    1.2298    0.0000 C   0  0  0  0  0  0  0  0  0  0  0  0
    3.5476   -0.9110    0.0000 O   0  0  0  0  0  0  0  0  0  0  0  0
    2.8962   -1.4172    0.0000 C   0  0  0  0  0  0  0  0  0  0  0  0
    2.1321   -1.1062    0.0000 C   0  0  0  0  0  0  0  0  0  0  0  0
    1.9584   -1.9127    0.0000 F   0  0  0  0  0  0  0  0  0  0  0  0
    1.3076   -1.0753    0.0000 F   0  0  0  0  0  0  0  0  0  0  0  0
    2.0194   -0.2889    0.0000 C   0  0  0  0  0  0  0  0  0  0  0  0
    2.6708    0.2173    0.0000 C   0  0  0  0  0  0  0  0  0  0  0  0
    2.3906    0.9933    0.0000 S   0  0  0  0  0  0  0  0  0  0  0  0
    1.5661    0.9666    0.0000 C   0  0  0  0  0  0  0  0  0  0  0  0
    1.0598    1.6181    0.0000 Cl  0  0  0  0  0  0  0  0  0  0  0  0
    1.3366    0.1742    0.0000 C   0  0  0  0  0  0  0  0  0  0  0  0
    5.9009    4.2836    0.0000 C   0  0  0  0  0  0  0  0  0  0  0  0
    5.4656    4.9844    0.0000 N   0  0  0  0  0  0  0  0  0  0  0  0
    5.8548    5.7118    0.0000 C   0  0  0  0  0  0  0  0  0  0  0  0
    6.6793    5.7385    0.0000 C   0  0  0  0  0  0  0  0  0  0  0  0
    7.1147    5.0377    0.0000 C   0  0  0  0  0  0  0  0  0  0  0  0
    6.7255    4.3103    0.0000 C   0  0  0  0  0  0  0  0  0  0  0  0
    7.1609    3.6095    0.0000 C   0  0  0  0  0  0  0  0  0  0  0  0
    6.7717    2.8821    0.0000 O   0  0  0  0  0  0  0  0  0  0  0  0
    2.9211    2.8724    0.0000 H   0  0  0  0  0  0  0  0  0  0  0  0
    3.7291    1.2045    0.0000 H   0  0  0  0  0  0  0  0  0  0  0  0
    2.8436    1.8052    0.0000 H   0  0  0  0  0  0  0  0  0  0  0  0
    6.8873    2.6320    0.0000 H   0  0  0  0  0  0  0  0  0  0  0  0
    6.3803    1.0216    0.0000 H   0  0  0  0  0  0  0  0  0  0  0  0
    5.5354    0.3650    0.0000 H   0  0  0  0  0  0  0  0  0  0  0  0
    5.8415   -0.3019    0.0000 H   0  0  0  0  0  0  0  0  0  0  0  0
    4.9967   -0.9585    0.0000 H   0  0  0  0  0  0  0  0  0  0  0  0
    4.3451   -1.4648    0.0000 H   0  0  0  0  0  0  0  0  0  0  0  0
    3.3541   -1.0613    0.0000 H   0  0  0  0  0  0  0  0  0  0  0  0
    2.3311    1.1269    0.0000 H   0  0  0  0  0  0  0  0  0  0  0  0
    3.1760    1.7835    0.0000 H   0  0  0  0  0  0  0  0  0  0  0  0
    3.8274    2.2898    0.0000 H   0  0  0  0  0  0  0  0  0  0  0  0
    4.8185    1.8864    0.0000 H   0  0  0  0  0  0  0  0  0  0  0  0
    3.0424   -2.4772    0.0000 H   0  0  0  0  0  0  0  0  0  0  0  0
    2.0513   -2.0738    0.0000 H   0  0  0  0  0  0  0  0  0  0  0  0
    0.3659   -0.1762    0.0000 H   0  0  0  0  0  0  0  0  0  0  0  0
    5.3102    6.5884    0.0000 H   0  0  0  0  0  0  0  0  0  0  0  0
    7.1661    6.6485    0.0000 H   0  0  0  0  0  0  0  0  0  0  0  0
    8.1462    5.0710    0.0000 H   0  0  0  0  0  0  0  0  0  0  0  0
    8.2303    3.6441    0.0000 H   0  0  0  0  0  0  0  0  0  0  0  0
    7.7256    2.7006    0.0000 H   0  0  0  0  0  0  0  0  0  0  0  0
    5.8022    2.8508    0.0000 H   0  0  0  0  0  0  0  0  0  0  0  0
  1  2  1  0  0  0  0
  1 33  1  0  0  0  0
  1 34  1  0  0  0  0
  1 35  1  0  0  0  0
  2  3  2  0  0  0  0
  2  6  1  0  0  0  0
  3  4  1  0  0  0  0
  4  5  1  0  0  0  0
  4 25  1  0  0  0  0
  5  6  2  0  0  0  0
  5 36  1  0  0  0  0
  6  7  1  0  0  0  0
  7  8  1  0  0  0  0
  7 37  1  0  0  0  0
  7 38  1  0  0  0  0
  8  9  1  0  0  0  0
  8 13  1  0  0  0  0
  9 10  1  0  0  0  0
  9 39  1  0  0  0  0
  9 40  1  0  0  0  0
 10 11  1  0  0  0  0
 10 41  1  0  0  0  0
 10 42  1  0  0  0  0
 11 12  1  0  0  0  0
 11 14  1  0  0  0  0
 11 20  1  0  0  0  0
 12 13  1  0  0  0  0
 12 43  1  0  0  0  0
 12 44  1  0  0  0  0
 13 45  1  0  0  0  0
 13 46  1  0  0  0  0
 14 15  1  0  0  0  0
 15 16  1  0  0  0  0
 15 47  1  0  0  0  0
 15 48  1  0  0  0  0
 16 17  1  0  0  0  0
 16 18  1  0  0  0  0
 16 19  1  0  0  0  0
 19 20  2  0  0  0  0
 19 24  1  0  0  0  0
 20 21  1  0  0  0  0
 21 22  1  0  0  0  0
 22 23  1  0  0  0  0
 22 24  2  0  0  0  0
 24 49  1  0  0  0  0
 25 26  2  0  0  0  0
 25 30  1  0  0  0  0
 26 27  1  0  0  0  0
 27 28  2  0  0  0  0
 27 50  1  0  0  0  0
 28 29  1  0  0  0  0
 28 51  1  0  0  0  0
 29 30  2  0  0  0  0
 29 52  1  0  0  0  0
 30 31  1  0  0  0  0
 31 32  1  0  0  0  0
 31 53  1  0  0  0  0
 31 54  1  0  0  0  0
 32 55  1  0  0  0  0
M  END
>  <DRUGBANK_ID>
DB16048

>  <COMMON_NAME>
BTRX-246040

>  <CAS_NUMBER>
1307245-86-8

>  <UNII>
4I67US2V8Q

$$$$
