QPP
 OpenBabel10282417072D

 38 41  0  0  0  0  0  0  0  0999 V2000
    1.5778    1.0688    0.0000 C   0  0  0  0  0  0  0  0  0  0  0  0
    0.8634    1.4813    0.0000 C   0  0  0  0  0  0  0  0  0  0  0  0
    0.8634    2.3063    0.0000 C   0  0  0  0  0  0  0  0  0  0  0  0
    1.5778    2.7188    0.0000 C   0  0  0  0  0  0  0  0  0  0  0  0
    2.2923    2.3063    0.0000 C   0  0  0  0  0  0  0  0  0  0  0  0
    2.2923    1.4813    0.0000 C   0  0  0  0  0  0  0  0  0  0  0  0
    3.0068    1.0688    0.0000 C   0  0  0  0  0  0  0  0  0  0  0  0
    3.0068    0.2438    0.0000 N   0  0  0  0  0  0  0  0  0  0  0  0
    3.7212    1.4813    0.0000 N   0  0  0  0  0  0  0  0  0  0  0  0
    4.4357    1.0688    0.0000 C   0  0  0  0  0  0  0  0  0  0  0  0
    5.1502    1.4813    0.0000 C   0  0  0  0  0  0  0  0  0  0  0  0
    5.8646    1.0688    0.0000 C   0  0  0  0  0  0  0  0  0  0  0  0
    5.8646    0.2438    0.0000 C   0  0  0  0  0  0  0  0  0  0  0  0
    5.1502   -0.1687    0.0000 C   0  0  0  0  0  0  0  0  0  0  0  0
    4.4357    0.2438    0.0000 C   0  0  0  0  0  0  0  0  0  0  0  0
    3.7212   -0.1687    0.0000 C   0  0  0  0  0  0  0  0  0  0  0  0
    3.7212   -0.9937    0.0000 N   0  0  0  0  0  0  0  0  0  0  0  0
    3.0068   -1.4062    0.0000 C   0  0  0  0  0  0  0  0  0  0  0  0
    2.9205   -2.2266    0.0000 C   0  0  0  0  0  0  0  0  0  0  0  0
    2.1136   -2.3982    0.0000 C   0  0  0  0  0  0  0  0  0  0  0  0
    1.7780   -3.1518    0.0000 C   0  0  0  0  0  0  0  0  0  0  0  0
    1.7011   -1.6837    0.0000 N   0  0  0  0  0  0  0  0  0  0  0  0
    2.2531   -1.0706    0.0000 N   0  0  0  0  0  0  0  0  0  0  0  0
    1.5778    0.0368    0.0000 H   0  0  0  0  0  0  0  0  0  0  0  0
   -0.0303    0.9653    0.0000 H   0  0  0  0  0  0  0  0  0  0  0  0
   -0.0303    2.8223    0.0000 H   0  0  0  0  0  0  0  0  0  0  0  0
    1.5778    3.7508    0.0000 H   0  0  0  0  0  0  0  0  0  0  0  0
    3.1860    2.8223    0.0000 H   0  0  0  0  0  0  0  0  0  0  0  0
    5.1502    2.5133    0.0000 H   0  0  0  0  0  0  0  0  0  0  0  0
    6.7583    1.5848    0.0000 H   0  0  0  0  0  0  0  0  0  0  0  0
    6.7583   -0.2722    0.0000 H   0  0  0  0  0  0  0  0  0  0  0  0
    5.1502   -1.2007    0.0000 H   0  0  0  0  0  0  0  0  0  0  0  0
    4.5738   -1.4859    0.0000 H   0  0  0  0  0  0  0  0  0  0  0  0
    3.6874   -2.9171    0.0000 H   0  0  0  0  0  0  0  0  0  0  0  0
    0.7139   -3.2636    0.0000 H   0  0  0  0  0  0  0  0  0  0  0  0
    2.4069   -4.0175    0.0000 H   0  0  0  0  0  0  0  0  0  0  0  0
    1.3427   -4.1293    0.0000 H   0  0  0  0  0  0  0  0  0  0  0  0
    0.7220   -1.5808    0.0000 H   0  0  0  0  0  0  0  0  0  0  0  0
  1  2  1  0  0  0  0
  1  6  2  0  0  0  0
  1 24  1  0  0  0  0
  2  3  2  0  0  0  0
  2 25  1  0  0  0  0
  3  4  1  0  0  0  0
  3 26  1  0  0  0  0
  4  5  2  0  0  0  0
  4 27  1  0  0  0  0
  5  6  1  0  0  0  0
  5 28  1  0  0  0  0
  6  7  1  0  0  0  0
  7  8  2  0  0  0  0
  7  9  1  0  0  0  0
  8 16  1  0  0  0  0
  9 10  2  0  0  0  0
 10 11  1  0  0  0  0
 10 15  1  0  0  0  0
 11 12  2  0  0  0  0
 11 29  1  0  0  0  0
 12 13  1  0  0  0  0
 12 30  1  0  0  0  0
 13 14  2  0  0  0  0
 13 31  1  0  0  0  0
 14 15  1  0  0  0  0
 14 32  1  0  0  0  0
 15 16  2  0  0  0  0
 16 17  1  0  0  0  0
 17 18  1  0  0  0  0
 17 33  1  0  0  0  0
 18 19  1  0  0  0  0
 18 23  2  0  0  0  0
 19 20  2  0  0  0  0
 19 34  1  0  0  0  0
 20 21  1  0  0  0  0
 20 22  1  0  0  0  0
 21 35  1  0  0  0  0
 21 36  1  0  0  0  0
 21 37  1  0  0  0  0
 22 23  1  0  0  0  0
 22 38  1  0  0  0  0
M  END
>  <DRUGBANK_ID>
DB08454

>  <COMMON_NAME>
N-(5-METHYL-1H-PYRAZOL-3-YL)-2-PHENYLQUINAZOLIN-4-AMINE

$$$$
