1062
 OpenBabel10282417072D

 57 58  0  0  1  0  0  0  0  0999 V2000
    1.9058    0.5487    0.0000 O   0  0  0  0  0  0  0  0  0  0  0  0
    3.9683   -0.1658    0.0000 O   0  0  0  0  0  0  0  0  0  0  0  0
    3.9683    1.2632    0.0000 O   0  0  0  0  0  0  0  0  0  0  0  0
    6.8559   -2.3092    0.0000 N   0  0  0  0  0  0  0  0  0  0  0  0
    2.7308    1.3737    0.0000 C   0  0  0  0  0  0  0  0  0  0  0  0
    2.0163    1.7862    0.0000 C   0  0  0  0  0  0  0  0  0  0  0  0
    3.4453    1.7862    0.0000 C   0  0  0  0  0  0  0  0  0  0  0  0
    2.7308    0.5487    0.0000 C   0  0  3  0  0  0  0  0  0  0  0  0
    2.0163    2.6113    0.0000 C   0  0  0  0  0  0  0  0  0  0  0  0
    3.4453    2.6113    0.0000 C   0  0  0  0  0  0  0  0  0  0  0  0
    2.7308    3.0238    0.0000 C   0  0  0  0  0  0  0  0  0  0  0  0
    2.7308   -0.2763    0.0000 C   0  0  0  0  0  0  0  0  0  0  0  0
    3.5558    0.5487    0.0000 C   0  0  0  0  0  0  0  0  0  0  0  0
    3.4453   -0.6888    0.0000 C   0  0  0  0  0  0  0  0  0  0  0  0
    2.0163   -0.6888    0.0000 C   0  0  0  0  0  0  0  0  0  0  0  0
    3.4453   -1.5138    0.0000 C   0  0  0  0  0  0  0  0  0  0  0  0
    2.0163   -1.5138    0.0000 C   0  0  0  0  0  0  0  0  0  0  0  0
    2.7308   -1.9263    0.0000 C   0  0  0  0  0  0  0  0  0  0  0  0
    4.7934   -0.1658    0.0000 C   0  0  0  0  0  0  0  0  0  0  0  0
    5.2059   -0.8803    0.0000 C   0  0  0  0  0  0  0  0  0  0  0  0
    6.0309   -2.3092    0.0000 C   0  0  0  0  0  0  0  0  0  0  0  0
    7.2684   -1.5948    0.0000 C   0  0  0  0  0  0  0  0  0  0  0  0
    7.2684   -3.0238    0.0000 C   0  0  0  0  0  0  0  0  0  0  0  0
    5.6184   -1.5948    0.0000 C   0  0  0  0  0  0  0  0  0  0  0  0
    8.0934   -1.5948    0.0000 C   0  0  0  0  0  0  0  0  0  0  0  0
    8.0934   -3.0238    0.0000 C   0  0  0  0  0  0  0  0  0  0  0  0
    1.4208    1.3887    0.0000 H   0  0  0  0  0  0  0  0  0  0  0  0
    3.6574    0.8387    0.0000 H   0  0  0  0  0  0  0  0  0  0  0  0
    1.0897    1.2512    0.0000 H   0  0  0  0  0  0  0  0  0  0  0  0
    1.0897    2.3212    0.0000 H   0  0  0  0  0  0  0  0  0  0  0  0
    4.3719    1.2512    0.0000 H   0  0  0  0  0  0  0  0  0  0  0  0
    4.3719    2.3212    0.0000 H   0  0  0  0  0  0  0  0  0  0  0  0
    1.0897    3.1463    0.0000 H   0  0  0  0  0  0  0  0  0  0  0  0
    2.0163    3.6813    0.0000 H   0  0  0  0  0  0  0  0  0  0  0  0
    4.3719    3.1463    0.0000 H   0  0  0  0  0  0  0  0  0  0  0  0
    3.4453    3.6813    0.0000 H   0  0  0  0  0  0  0  0  0  0  0  0
    2.7308    4.0938    0.0000 H   0  0  0  0  0  0  0  0  0  0  0  0
    3.6574    3.5588    0.0000 H   0  0  0  0  0  0  0  0  0  0  0  0
    4.3390   -0.1728    0.0000 H   0  0  0  0  0  0  0  0  0  0  0  0
    1.1226   -0.1728    0.0000 H   0  0  0  0  0  0  0  0  0  0  0  0
    4.3390   -2.0298    0.0000 H   0  0  0  0  0  0  0  0  0  0  0  0
    1.1226   -2.0298    0.0000 H   0  0  0  0  0  0  0  0  0  0  0  0
    2.7308   -2.9583    0.0000 H   0  0  0  0  0  0  0  0  0  0  0  0
    5.3284    0.7608    0.0000 H   0  0  0  0  0  0  0  0  0  0  0  0
    5.8634   -0.1658    0.0000 H   0  0  0  0  0  0  0  0  0  0  0  0
    5.4959   -3.2359    0.0000 H   0  0  0  0  0  0  0  0  0  0  0  0
    4.9609   -2.3092    0.0000 H   0  0  0  0  0  0  0  0  0  0  0  0
    6.7334   -0.6681    0.0000 H   0  0  0  0  0  0  0  0  0  0  0  0
    7.8034   -0.6682    0.0000 H   0  0  0  0  0  0  0  0  0  0  0  0
    6.7334   -3.9504    0.0000 H   0  0  0  0  0  0  0  0  0  0  0  0
    7.8034   -3.9505    0.0000 H   0  0  0  0  0  0  0  0  0  0  0  0
    8.6284   -2.5214    0.0000 H   0  0  0  0  0  0  0  0  0  0  0  0
    8.6284   -0.6682    0.0000 H   0  0  0  0  0  0  0  0  0  0  0  0
    9.1634   -1.5948    0.0000 H   0  0  0  0  0  0  0  0  0  0  0  0
    8.6284   -3.9504    0.0000 H   0  0  0  0  0  0  0  0  0  0  0  0
    8.6284   -2.0972    0.0000 H   0  0  0  0  0  0  0  0  0  0  0  0
    9.1634   -3.0238    0.0000 H   0  0  0  0  0  0  0  0  0  0  0  0
  1  8  1  0  0  0  0
  1 27  1  0  0  0  0
  2 13  1  0  0  0  0
  2 19  1  0  0  0  0
  3 13  2  0  0  0  0
  4 21  1  0  0  0  0
  4 22  1  0  0  0  0
  4 23  1  0  0  0  0
  5  6  1  0  0  0  0
  5  7  1  0  0  0  0
  5  8  1  0  0  0  0
  5 28  1  0  0  0  0
  6  9  1  0  0  0  0
  6 29  1  0  0  0  0
  6 30  1  0  0  0  0
  7 10  1  0  0  0  0
  7 31  1  0  0  0  0
  7 32  1  0  0  0  0
  8 12  1  0  0  0  0
  8 13  1  0  0  0  0
  9 11  1  0  0  0  0
  9 33  1  0  0  0  0
  9 34  1  0  0  0  0
 10 11  1  0  0  0  0
 10 35  1  0  0  0  0
 10 36  1  0  0  0  0
 11 37  1  0  0  0  0
 11 38  1  0  0  0  0
 12 14  2  0  0  0  0
 12 15  1  0  0  0  0
 14 16  1  0  0  0  0
 14 39  1  0  0  0  0
 15 17  2  0  0  0  0
 15 40  1  0  0  0  0
 16 18  2  0  0  0  0
 16 41  1  0  0  0  0
 17 18  1  0  0  0  0
 17 42  1  0  0  0  0
 18 43  1  0  0  0  0
 19 20  1  0  0  0  0
 19 44  1  0  0  0  0
 19 45  1  0  0  0  0
 20 24  3  0  0  0  0
 21 24  1  0  0  0  0
 21 46  1  0  0  0  0
 21 47  1  0  0  0  0
 22 25  1  0  0  0  0
 22 48  1  0  0  0  0
 22 49  1  0  0  0  0
 23 26  1  0  0  0  0
 23 50  1  0  0  0  0
 23 51  1  0  0  0  0
 25 52  1  0  0  0  0
 25 53  1  0  0  0  0
 25 54  1  0  0  0  0
 26 55  1  0  0  0  0
 26 56  1  0  0  0  0
 26 57  1  0  0  0  0
M  END
>  <DRUGBANK_ID>
DB01062

>  <SECONDARY_ACCESSION_NUMBERS>
APRD00427

>  <COMMON_NAME>
Oxybutynin

>  <CAS_NUMBER>
5633-20-5

>  <UNII>
K9P6MC7092

>  <SYNONYMS>
4-(Diethylamino)-2-butynyl alpha-phenylcyclohexaneglycolic acid ester; 4-Diethylamino-2-butinyl alpha-cyclohexylmandelat; 4-Diethylamino-2-butynyl alpha-phenylcyclohexaneglycolate; Oxibutinina; Oxybutynin; Oxybutynine; Oxybutyninum

$$$$
