
 OpenBabel10282417072D

  6  4  0  0  0  0  0  0  0  0999 V2000
    0.4125    0.0000    0.0000 Cl  0  5  0  0  0  0  0  0  0  0  0  0
   -0.4125    0.0000    0.0000 N   0  3  0  0  0  0  0  0  0  0  0  0
    0.6075    0.0000    0.0000 H   0  0  0  0  0  0  0  0  0  0  0  0
   -0.9225    0.8833    0.0000 H   0  0  0  0  0  0  0  0  0  0  0  0
   -0.9225   -0.8833    0.0000 H   0  0  0  0  0  0  0  0  0  0  0  0
   -1.4325   -0.0000    0.0000 H   0  0  0  0  0  0  0  0  0  0  0  0
  2  3  1  0  0  0  0
  2  4  1  0  0  0  0
  2  5  1  0  0  0  0
  2  6  1  0  0  0  0
M  CHG  2   1  -1   2   1
M  END
>  <DRUGBANK_ID>
DB06767

>  <COMMON_NAME>
Ammonium chloride

>  <CAS_NUMBER>
12125-02-9

>  <UNII>
01Q9PC255D

>  <SYNONYMS>
Ammonium chloride; Ammoniumchlorid; Chlorammonic; Chlorid ammonia

$$$$
