MRK
 OpenBabel10282417072D

 35 37  0  0  0  0  0  0  0  0999 V2000
    1.7479   -3.0195    0.0000 S   0  0  0  0  0  0  0  0  0  0  0  0
    1.4930   -3.8041    0.0000 C   0  0  0  0  0  0  0  0  0  0  0  0
    0.6680   -3.8041    0.0000 C   0  0  0  0  0  0  0  0  0  0  0  0
    0.4130   -3.0195    0.0000 N   0  0  0  0  0  0  0  0  0  0  0  0
    1.0805   -2.5346    0.0000 C   0  0  0  0  0  0  0  0  0  0  0  0
    1.0805   -1.7096    0.0000 N   0  0  0  0  0  0  0  0  0  0  0  0
    0.3660   -1.2971    0.0000 C   0  0  0  0  0  0  0  0  0  0  0  0
   -0.3485   -1.7096    0.0000 O   0  0  0  0  0  0  0  0  0  0  0  0
    1.0805   -0.0596    0.0000 C   0  0  0  0  0  0  0  0  0  0  0  0
    0.3660   -0.4721    0.0000 C   0  0  0  0  0  0  0  0  0  0  0  0
   -0.3485   -0.0596    0.0000 C   0  0  0  0  0  0  0  0  0  0  0  0
   -0.3485    0.7654    0.0000 C   0  0  0  0  0  0  0  0  0  0  0  0
    0.3660    1.1779    0.0000 C   0  0  0  0  0  0  0  0  0  0  0  0
    0.3660    2.0029    0.0000 F   0  0  0  0  0  0  0  0  0  0  0  0
    1.0805    0.7654    0.0000 C   0  0  0  0  0  0  0  0  0  0  0  0
   -1.0630    1.1779    0.0000 S   0  0  0  0  0  0  0  0  0  0  0  0
   -1.7304    2.4878    0.0000 N   0  0  0  0  0  0  0  0  0  0  0  0
   -1.0630    2.0029    0.0000 C   0  0  0  0  0  0  0  0  0  0  0  0
   -0.3955    2.4878    0.0000 N   0  0  0  0  0  0  0  0  0  0  0  0
   -0.6505    3.2725    0.0000 C   0  0  0  0  0  0  0  0  0  0  0  0
   -1.4755    3.2725    0.0000 C   0  0  0  0  0  0  0  0  0  0  0  0
   -2.5150    2.2329    0.0000 C   0  0  0  0  0  0  0  0  0  0  0  0
    1.7949   -0.4721    0.0000 N   0  0  0  0  0  0  0  0  0  0  0  0
    2.0996   -4.6390    0.0000 H   0  0  0  0  0  0  0  0  0  0  0  0
    0.0614   -4.6390    0.0000 H   0  0  0  0  0  0  0  0  0  0  0  0
    1.9331   -1.2173    0.0000 H   0  0  0  0  0  0  0  0  0  0  0  0
   -1.2422   -0.5756    0.0000 H   0  0  0  0  0  0  0  0  0  0  0  0
    1.9742    1.2814    0.0000 H   0  0  0  0  0  0  0  0  0  0  0  0
   -0.0439    4.1074    0.0000 H   0  0  0  0  0  0  0  0  0  0  0  0
   -2.0821    4.1074    0.0000 H   0  0  0  0  0  0  0  0  0  0  0  0
   -3.3101    2.9489    0.0000 H   0  0  0  0  0  0  0  0  0  0  0  0
   -2.7375    1.1863    0.0000 H   0  0  0  0  0  0  0  0  0  0  0  0
   -3.5326    1.9023    0.0000 H   0  0  0  0  0  0  0  0  0  0  0  0
    1.7949   -1.4566    0.0000 H   0  0  0  0  0  0  0  0  0  0  0  0
    2.6475    0.0201    0.0000 H   0  0  0  0  0  0  0  0  0  0  0  0
  1  2  1  0  0  0  0
  1  5  1  0  0  0  0
  2  3  2  0  0  0  0
  2 24  1  0  0  0  0
  3  4  1  0  0  0  0
  3 25  1  0  0  0  0
  4  5  2  0  0  0  0
  5  6  1  0  0  0  0
  6  7  1  0  0  0  0
  6 26  1  0  0  0  0
  7  8  2  0  0  0  0
  7 10  1  0  0  0  0
  9 10  2  0  0  0  0
  9 15  1  0  0  0  0
  9 23  1  0  0  0  0
 10 11  1  0  0  0  0
 11 12  2  0  0  0  0
 11 27  1  0  0  0  0
 12 13  1  0  0  0  0
 12 16  1  0  0  0  0
 13 14  1  0  0  0  0
 13 15  2  0  0  0  0
 15 28  1  0  0  0  0
 16 18  1  0  0  0  0
 17 18  1  0  0  0  0
 17 21  1  0  0  0  0
 17 22  1  0  0  0  0
 18 19  2  0  0  0  0
 19 20  1  0  0  0  0
 20 21  2  0  0  0  0
 20 29  1  0  0  0  0
 21 30  1  0  0  0  0
 22 31  1  0  0  0  0
 22 32  1  0  0  0  0
 22 33  1  0  0  0  0
 23 34  1  0  0  0  0
 23 35  1  0  0  0  0
M  END
>  <DRUGBANK_ID>
DB08210

>  <COMMON_NAME>
2-AMINO-4-FLUORO-5-[(1-METHYL-1H-IMIDAZOL-2-YL)SULFANYL]-N-(1,3-THIAZOL-2-YL)BENZAMIDE

$$$$
