
 OpenBabel10282417072D

 54 58  0  0  0  0  0  0  0  0999 V2000
   -0.8603   -0.6670    0.0000 S   0  0  0  0  0  0  0  0  0  0  0  0
   -3.7183    0.9830    0.0000 O   0  0  0  0  0  0  0  0  0  0  0  0
    1.1711    1.1049    0.0000 O   0  0  0  0  0  0  0  0  0  0  0  0
   -0.4478    0.0474    0.0000 O   0  0  0  0  0  0  0  0  0  0  0  0
   -1.2728   -1.3814    0.0000 O   0  0  0  0  0  0  0  0  0  0  0  0
    3.3702   -1.4920    0.0000 O   0  0  0  0  0  0  0  0  0  0  0  0
   -1.5748   -0.2545    0.0000 N   0  0  0  0  0  0  0  0  0  0  0  0
    3.1007    0.2074    0.0000 N   0  0  0  0  0  0  0  0  0  0  0  0
    2.0637   -2.1559    0.0000 N   0  0  0  0  0  0  0  0  0  0  0  0
   -3.0037    0.5705    0.0000 C   0  0  1  0  0  0  0  0  0  0  0  0
   -2.2893   -0.6670    0.0000 C   0  0  0  0  0  0  0  0  0  0  0  0
   -1.5748    0.5705    0.0000 C   0  0  0  0  0  0  0  0  0  0  0  0
   -3.0037   -0.2545    0.0000 C   0  0  0  0  0  0  0  0  0  0  0  0
   -2.2893    0.9830    0.0000 C   0  0  0  0  0  0  0  0  0  0  0  0
    1.8385    0.6200    0.0000 C   0  0  2  0  0  0  0  0  0  0  0  0
    2.3200   -0.0439    0.0000 C   0  0  0  0  0  0  0  0  0  0  0  0
    2.0637   -0.8281    0.0000 C   0  0  0  0  0  0  0  0  0  0  0  0
   -0.1458   -1.0795    0.0000 C   0  0  0  0  0  0  0  0  0  0  0  0
    2.3200    1.2838    0.0000 C   0  0  0  0  0  0  0  0  0  0  0  0
    1.2831   -1.0795    0.0000 C   0  0  0  0  0  0  0  0  0  0  0  0
    3.1042    1.0275    0.0000 C   0  0  0  0  0  0  0  0  0  0  0  0
    0.5686   -0.6670    0.0000 C   0  0  0  0  0  0  0  0  0  0  0  0
    1.2831   -1.9045    0.0000 C   0  0  0  0  0  0  0  0  0  0  0  0
    1.1711    0.1350    0.0000 C   0  0  0  0  0  0  0  0  0  0  0  0
    2.5452   -1.4920    0.0000 C   0  0  0  0  0  0  0  0  0  0  0  0
   -0.1458   -1.9045    0.0000 C   0  0  0  0  0  0  0  0  0  0  0  0
    0.5686   -2.3170    0.0000 C   0  0  0  0  0  0  0  0  0  0  0  0
    2.1499    2.0911    0.0000 C   0  0  0  0  0  0  0  0  0  0  0  0
    3.7183    1.5785    0.0000 C   0  0  0  0  0  0  0  0  0  0  0  0
    2.7640    2.6422    0.0000 C   0  0  0  0  0  0  0  0  0  0  0  0
    3.5481    2.3858    0.0000 C   0  0  0  0  0  0  0  0  0  0  0  0
    3.5134   -0.0946    0.0000 H   0  0  0  0  0  0  0  0  0  0  0  0
    2.2226   -2.6422    0.0000 H   0  0  0  0  0  0  0  0  0  0  0  0
   -3.7184    1.9530    0.0000 H   0  0  0  0  0  0  0  0  0  0  0  0
    1.2725    2.0696    0.0000 H   0  0  0  0  0  0  0  0  0  0  0  0
   -3.9303    0.0355    0.0000 H   0  0  0  0  0  0  0  0  0  0  0  0
   -2.2893   -1.7370    0.0000 H   0  0  0  0  0  0  0  0  0  0  0  0
   -3.2160   -1.2020    0.0000 H   0  0  0  0  0  0  0  0  0  0  0  0
   -0.6482    1.1055    0.0000 H   0  0  0  0  0  0  0  0  0  0  0  0
   -1.5748    1.6405    0.0000 H   0  0  0  0  0  0  0  0  0  0  0  0
   -3.9304   -0.7895    0.0000 H   0  0  0  0  0  0  0  0  0  0  0  0
   -3.0037   -1.3245    0.0000 H   0  0  0  0  0  0  0  0  0  0  0  0
   -2.2893    2.0530    0.0000 H   0  0  0  0  0  0  0  0  0  0  0  0
   -1.3627    1.5180    0.0000 H   0  0  0  0  0  0  0  0  0  0  0  0
    0.5686    0.3650    0.0000 H   0  0  0  0  0  0  0  0  0  0  0  0
    0.1936    0.5701    0.0000 H   0  0  0  0  0  0  0  0  0  0  0  0
    1.2831   -0.9291    0.0000 H   0  0  0  0  0  0  0  0  0  0  0  0
    0.3055   -0.4940    0.0000 H   0  0  0  0  0  0  0  0  0  0  0  0
   -1.0395   -2.4205    0.0000 H   0  0  0  0  0  0  0  0  0  0  0  0
    0.5686   -3.3490    0.0000 H   0  0  0  0  0  0  0  0  0  0  0  0
    1.1690    2.4117    0.0000 H   0  0  0  0  0  0  0  0  0  0  0  0
    4.6992    1.2579    0.0000 H   0  0  0  0  0  0  0  0  0  0  0  0
    2.5512    3.6520    0.0000 H   0  0  0  0  0  0  0  0  0  0  0  0
    4.3162    3.0750    0.0000 H   0  0  0  0  0  0  0  0  0  0  0  0
  1  4  2  0  0  0  0
  1  5  2  0  0  0  0
  1  7  1  0  0  0  0
  1 18  1  0  0  0  0
  2 34  1  0  0  0  0
  3 35  1  0  0  0  0
  6 25  2  0  0  0  0
  7 11  1  0  0  0  0
  7 12  1  0  0  0  0
  8 16  1  0  0  0  0
  8 21  1  0  0  0  0
  8 32  1  0  0  0  0
  9 23  1  0  0  0  0
  9 25  1  0  0  0  0
  9 33  1  0  0  0  0
 10  2  1  0  0  0  0
 10 13  1  0  0  0  0
 10 14  1  0  0  0  0
 10 36  1  1  0  0  0
 11 13  1  0  0  0  0
 11 37  1  0  0  0  0
 11 38  1  0  0  0  0
 12 14  1  0  0  0  0
 12 39  1  0  0  0  0
 12 40  1  0  0  0  0
 13 41  1  0  0  0  0
 13 42  1  0  0  0  0
 14 43  1  0  0  0  0
 14 44  1  0  0  0  0
 15  3  1  1  0  0  0
 15 16  1  0  0  0  0
 15 19  1  0  0  0  0
 15 24  1  0  0  0  0
 16 17  2  0  0  0  0
 17 20  1  0  0  0  0
 17 25  1  0  0  0  0
 18 22  2  0  0  0  0
 18 26  1  0  0  0  0
 19 21  1  0  0  0  0
 19 28  2  0  0  0  0
 20 22  1  0  0  0  0
 20 23  2  0  0  0  0
 21 29  2  0  0  0  0
 22 45  1  0  0  0  0
 23 27  1  0  0  0  0
 24 46  1  0  0  0  0
 24 47  1  0  0  0  0
 24 48  1  0  0  0  0
 26 27  2  0  0  0  0
 26 49  1  0  0  0  0
 27 50  1  0  0  0  0
 28 30  1  0  0  0  0
 28 51  1  0  0  0  0
 29 31  1  0  0  0  0
 29 52  1  0  0  0  0
 30 31  2  0  0  0  0
 30 53  1  0  0  0  0
 31 54  1  0  0  0  0
M  END
>  <DRUGBANK_ID>
DB03583

>  <SECONDARY_ACCESSION_NUMBERS>
EXPT02828

>  <COMMON_NAME>
(2E,3S)-3-hydroxy-5'-[(4-hydroxypiperidin-1-yl)sulfonyl]-3-methyl-1,3-dihydro-2,3'-biindol-2'(1'H)-one

$$$$
