
 OpenBabel10282417072D

300312  0  0  1  0  0  0  0  0999 V2000
    2.7758  -11.0109    0.0000 H   0  0  0  0  0  0  0  0  0  0  0  0
    1.9520  -10.9677    0.0000 C   0  0  2  0  0  0  0  0  0  0  0  0
    2.3645  -10.2533    0.0000 O   0  0  0  0  0  0  0  0  0  0  0  0
    1.9520   -9.5388    0.0000 C   0  0  1  0  0  0  0  0  0  0  0  0
    1.1270   -9.5388    0.0000 C   0  0  2  0  0  0  0  0  0  0  0  0
    0.7145  -10.2533    0.0000 C   0  0  0  0  0  0  0  0  0  0  0  0
    0.7145   -8.8243    0.0000 O   0  0  0  0  0  0  0  0  0  0  0  0
    1.1270   -8.1099    0.0000 C   0  0  1  0  0  0  0  0  0  0  0  0
    1.5395   -7.3954    0.0000 H   0  0  0  0  0  0  0  0  0  0  0  0
    0.7145   -7.3954    0.0000 O   0  0  0  0  0  0  0  0  0  0  0  0
   -0.1105   -7.3954    0.0000 C   0  0  2  0  0  0  0  0  0  0  0  0
   -0.5230   -8.1099    0.0000 C   0  0  1  0  0  0  0  0  0  0  0  0
   -0.1105   -8.8243    0.0000 O   0  0  0  0  0  0  0  0  0  0  0  0
   -1.3480   -8.1099    0.0000 C   0  0  2  0  0  0  0  0  0  0  0  0
   -1.7605   -8.8243    0.0000 O   0  0  0  0  0  0  0  0  0  0  0  0
   -1.7605   -7.3954    0.0000 C   0  0  1  0  0  0  0  0  0  0  0  0
   -2.5855   -7.3954    0.0000 C   0  0  0  0  0  0  0  0  0  0  0  0
   -2.9980   -8.1099    0.0000 O   0  0  0  0  0  0  0  0  0  0  0  0
   -1.3480   -6.6809    0.0000 O   0  0  0  0  0  0  0  0  0  0  0  0
   -0.5230   -6.6809    0.0000 C   0  0  1  0  0  0  0  0  0  0  0  0
   -0.1105   -5.9664    0.0000 O   0  0  0  0  0  0  0  0  0  0  0  0
    0.7145   -5.9664    0.0000 C   0  0  0  0  0  0  0  0  0  0  0  0
    1.1270   -6.6809    0.0000 O   0  0  0  0  0  0  0  0  0  0  0  0
    1.1270   -5.2520    0.0000 C   0  0  2  0  0  0  0  0  0  0  0  0
    0.3020   -5.2520    0.0000 C   0  0  0  0  0  0  0  0  0  0  0  0
   -0.1105   -4.5375    0.0000 C   0  0  2  0  0  0  0  0  0  0  0  0
   -0.9355   -4.5375    0.0000 O   0  0  0  0  0  0  0  0  0  0  0  0
   -1.3480   -5.2520    0.0000 C   0  0  0  0  0  0  0  0  0  0  0  0
   -0.9355   -5.9664    0.0000 O   0  0  0  0  0  0  0  0  0  0  0  0
   -2.1730   -5.2520    0.0000 C   0  0  0  0  0  0  0  0  0  0  0  0
   -2.5855   -4.5375    0.0000 C   0  0  0  0  0  0  0  0  0  0  0  0
   -3.4105   -4.5375    0.0000 O   0  0  0  0  0  0  0  0  0  0  0  0
   -2.5855   -5.9664    0.0000 C   0  0  0  0  0  0  0  0  0  0  0  0
   -3.4105   -5.9664    0.0000 C   0  0  0  0  0  0  0  0  0  0  0  0
   -3.8230   -6.6809    0.0000 C   0  0  0  0  0  0  0  0  0  0  0  0
   -4.6480   -6.6809    0.0000 C   0  0  1  0  0  0  0  0  0  0  0  0
   -4.6480   -5.8559    0.0000 C   0  0  0  0  0  0  0  0  0  0  0  0
   -5.4730   -6.6809    0.0000 O   0  0  0  0  0  0  0  0  0  0  0  0
   -5.8855   -5.9664    0.0000 C   0  0  2  0  0  0  0  0  0  0  0  0
   -5.4730   -5.2520    0.0000 O   0  0  0  0  0  0  0  0  0  0  0  0
   -5.8855   -4.5375    0.0000 C   0  0  2  0  0  0  0  0  0  0  0  0
   -5.4730   -3.8230    0.0000 C   0  0  0  0  0  0  0  0  0  0  0  0
   -6.7105   -4.5375    0.0000 C   0  0  1  0  0  0  0  0  0  0  0  0
   -7.1230   -3.8230    0.0000 O   0  0  0  0  0  0  0  0  0  0  0  0
   -7.9480   -3.8230    0.0000 C   0  0  0  0  0  0  0  0  0  0  0  0
   -8.3605   -4.5375    0.0000 O   0  0  0  0  0  0  0  0  0  0  0  0
   -8.3605   -3.1086    0.0000 C   0  0  0  0  0  0  0  0  0  0  0  0
   -7.9480   -2.3941    0.0000 C   0  0  0  0  0  0  0  0  0  0  0  0
   -7.1230   -2.3941    0.0000 O   0  0  0  0  0  0  0  0  0  0  0  0
   -9.1855   -3.1086    0.0000 C   0  0  0  0  0  0  0  0  0  0  0  0
   -9.5980   -2.3941    0.0000 C   0  0  0  0  0  0  0  0  0  0  0  0
   -9.1855   -1.6796    0.0000 C   0  0  0  0  0  0  0  0  0  0  0  0
   -9.5980   -0.9651    0.0000 C   0  0  1  0  0  0  0  0  0  0  0  0
  -10.3125   -1.3776    0.0000 C   0  0  0  0  0  0  0  0  0  0  0  0
   -8.8836   -0.5526    0.0000 O   0  0  0  0  0  0  0  0  0  0  0  0
  -10.0105   -0.2507    0.0000 C   0  0  0  0  0  0  0  0  0  0  0  0
   -9.5980    0.4638    0.0000 C   0  0  0  0  0  0  0  0  0  0  0  0
   -7.1230   -5.2520    0.0000 C   0  0  2  0  0  0  0  0  0  0  0  0
   -7.9480   -5.2520    0.0000 O   0  0  0  0  0  0  0  0  0  0  0  0
   -6.7105   -5.9664    0.0000 C   0  0  1  0  0  0  0  0  0  0  0  0
   -7.1230   -6.6809    0.0000 O   0  0  0  0  0  0  0  0  0  0  0  0
   -4.6480   -7.5059    0.0000 C   0  0  0  0  0  0  0  0  0  0  0  0
   -5.3625   -7.9184    0.0000 C   0  0  0  0  0  0  0  0  0  0  0  0
    0.3020   -3.8230    0.0000 C   0  0  0  0  0  0  0  0  0  0  0  0
    0.4452   -3.0106    0.0000 C   0  0  0  0  0  0  0  0  0  0  0  0
   -0.4733   -3.5409    0.0000 C   0  0  0  0  0  0  0  0  0  0  0  0
    1.1270   -3.8230    0.0000 C   0  0  0  0  0  0  0  0  0  0  0  0
    1.5395   -4.5375    0.0000 C   0  0  1  0  0  0  0  0  0  0  0  0
    1.9520   -5.2520    0.0000 H   0  0  0  0  0  0  0  0  0  0  0  0
    2.3645   -4.5375    0.0000 C   0  0  0  0  0  0  0  0  0  0  0  0
    2.7770   -3.8230    0.0000 C   0  0  0  0  0  0  0  0  0  0  0  0
    3.6020   -3.8230    0.0000 C   0  0  0  0  0  0  0  0  0  0  0  0
    4.0145   -4.5375    0.0000 C   0  0  2  0  0  0  0  0  0  0  0  0
    4.4270   -5.2520    0.0000 H   0  0  0  0  0  0  0  0  0  0  0  0
    4.8395   -4.5375    0.0000 C   0  0  1  0  0  0  0  0  0  0  0  0
    4.4270   -3.8230    0.0000 C   0  0  0  0  0  0  0  0  0  0  0  0
    5.2520   -3.8230    0.0000 C   0  0  0  0  0  0  0  0  0  0  0  0
    6.0770   -3.8230    0.0000 C   0  0  0  0  0  0  0  0  0  0  0  0
    6.4895   -4.5375    0.0000 C   0  0  2  0  0  0  0  0  0  0  0  0
    7.3145   -4.5375    0.0000 O   0  0  0  0  0  0  0  0  0  0  0  0
    7.7270   -3.8230    0.0000 C   0  0  2  0  0  0  0  0  0  0  0  0
    8.1395   -4.5375    0.0000 H   0  0  0  0  0  0  0  0  0  0  0  0
    7.3145   -3.1086    0.0000 O   0  0  0  0  0  0  0  0  0  0  0  0
    7.7270   -2.3941    0.0000 C   0  0  2  0  0  0  0  0  0  0  0  0
    7.3145   -1.6796    0.0000 C   0  0  0  0  0  0  0  0  0  0  0  0
    7.7270   -0.9651    0.0000 O   0  0  0  0  0  0  0  0  0  0  0  0
    7.3145   -0.2507    0.0000 C   0  0  2  0  0  0  0  0  0  0  0  0
    7.7270    0.4638    0.0000 O   0  0  0  0  0  0  0  0  0  0  0  0
    7.3145    1.1783    0.0000 C   0  0  2  0  0  0  0  0  0  0  0  0
    7.7270    1.8927    0.0000 C   0  0  0  0  0  0  0  0  0  0  0  0
    6.4895    1.1783    0.0000 C   0  0  2  0  0  0  0  0  0  0  0  0
    6.0770    1.8927    0.0000 O   0  0  0  0  0  0  0  0  0  0  0  0
    6.0770    0.4638    0.0000 C   0  0  2  0  0  0  0  0  0  0  0  0
    5.2520    0.4638    0.0000 O   0  0  0  0  0  0  0  0  0  0  0  0
    6.4895   -0.2507    0.0000 C   0  0  1  0  0  0  0  0  0  0  0  0
    6.0770   -0.9651    0.0000 O   0  0  0  0  0  0  0  0  0  0  0  0
    5.2520   -0.9651    0.0000 C   0  0  2  0  0  0  0  0  0  0  0  0
    5.6645   -1.6796    0.0000 H   0  0  0  0  0  0  0  0  0  0  0  0
    4.8395   -0.2507    0.0000 O   0  0  0  0  0  0  0  0  0  0  0  0
    4.0145   -0.2507    0.0000 C   0  0  0  0  0  0  0  0  0  0  0  0
    3.6020   -0.9651    0.0000 C   0  0  1  0  0  0  0  0  0  0  0  0
    2.7770   -0.9651    0.0000 O   0  0  0  0  0  0  0  0  0  0  0  0
    4.0145   -1.6796    0.0000 C   0  0  2  0  0  0  0  0  0  0  0  0
    3.6020   -2.3941    0.0000 O   0  0  0  0  0  0  0  0  0  0  0  0
    4.8395   -1.6796    0.0000 C   0  0  1  0  0  0  0  0  0  0  0  0
    5.2520   -2.3941    0.0000 O   0  0  0  0  0  0  0  0  0  0  0  0
    8.5520   -2.3941    0.0000 C   0  0  1  0  0  0  0  0  0  0  0  0
    8.9645   -1.6796    0.0000 O   0  0  0  0  0  0  0  0  0  0  0  0
    8.9645   -3.1086    0.0000 C   0  0  2  0  0  0  0  0  0  0  0  0
    9.7895   -3.1086    0.0000 O   0  0  0  0  0  0  0  0  0  0  0  0
    8.5520   -3.8230    0.0000 C   0  0  1  0  0  0  0  0  0  0  0  0
    8.9645   -4.5375    0.0000 N   0  0  0  0  0  0  0  0  0  0  0  0
    9.7895   -4.5375    0.0000 C   0  0  0  0  0  0  0  0  0  0  0  0
   10.2020   -3.8230    0.0000 C   0  0  0  0  0  0  0  0  0  0  0  0
   10.2020   -5.2520    0.0000 O   0  0  0  0  0  0  0  0  0  0  0  0
    6.0770   -5.2520    0.0000 C   0  0  0  0  0  0  0  0  0  0  0  0
    6.8522   -5.5341    0.0000 C   0  0  0  0  0  0  0  0  0  0  0  0
    5.9337   -6.0644    0.0000 C   0  0  0  0  0  0  0  0  0  0  0  0
    5.2520   -5.2520    0.0000 C   0  0  2  0  0  0  0  0  0  0  0  0
    5.6645   -5.9664    0.0000 H   0  0  0  0  0  0  0  0  0  0  0  0
    4.8395   -5.9664    0.0000 C   0  0  0  0  0  0  0  0  0  0  0  0
    4.0145   -5.9664    0.0000 C   0  0  0  0  0  0  0  0  0  0  0  0
    3.6020   -5.2520    0.0000 C   0  0  2  0  0  0  0  0  0  0  0  0
    3.1895   -5.9664    0.0000 C   0  0  0  0  0  0  0  0  0  0  0  0
    2.7770   -5.2520    0.0000 C   0  0  1  0  0  0  0  0  0  0  0  0
    2.6907   -6.0725    0.0000 C   0  0  0  0  0  0  0  0  0  0  0  0
    2.3645   -5.9664    0.0000 C   0  0  0  0  0  0  0  0  0  0  0  0
    1.5395   -5.9664    0.0000 C   0  0  1  0  0  0  0  0  0  0  0  0
    1.6257   -6.7869    0.0000 O   0  0  0  0  0  0  0  0  0  0  0  0
    1.9520   -8.1099    0.0000 C   0  0  2  0  0  0  0  0  0  0  0  0
    2.3645   -7.3954    0.0000 O   0  0  0  0  0  0  0  0  0  0  0  0
    2.3645   -8.8243    0.0000 C   0  0  2  0  0  0  0  0  0  0  0  0
    3.1895   -8.8243    0.0000 O   0  0  0  0  0  0  0  0  0  0  0  0
    3.6020   -9.5388    0.0000 C   0  0  2  0  0  0  0  0  0  0  0  0
    4.0145   -8.8243    0.0000 H   0  0  0  0  0  0  0  0  0  0  0  0
    3.1895  -10.2533    0.0000 O   0  0  0  0  0  0  0  0  0  0  0  0
    3.6020  -10.9677    0.0000 C   0  0  2  0  0  0  0  0  0  0  0  0
    3.1895  -11.6822    0.0000 C   0  0  0  0  0  0  0  0  0  0  0  0
    3.6020  -12.3967    0.0000 O   0  0  0  0  0  0  0  0  0  0  0  0
    4.4270  -10.9677    0.0000 C   0  0  1  0  0  0  0  0  0  0  0  0
    4.8395  -11.6822    0.0000 O   0  0  0  0  0  0  0  0  0  0  0  0
    4.8395  -10.2533    0.0000 C   0  0  2  0  0  0  0  0  0  0  0  0
    5.6645  -10.2533    0.0000 O   0  0  0  0  0  0  0  0  0  0  0  0
    4.4270   -9.5388    0.0000 C   0  0  1  0  0  0  0  0  0  0  0  0
    4.8395   -8.8243    0.0000 O   0  0  0  0  0  0  0  0  0  0  0  0
    1.1315  -11.0540    0.0000 O   0  0  0  0  0  0  0  0  0  0  0  0
    0.9600  -11.8609    0.0000 C   0  0  1  0  0  0  0  0  0  0  0  0
    0.2063  -12.1965    0.0000 C   0  0  0  0  0  0  0  0  0  0  0  0
    0.1201  -13.0170    0.0000 O   0  0  0  0  0  0  0  0  0  0  0  0
    1.6744  -12.2734    0.0000 C   0  0  2  0  0  0  0  0  0  0  0  0
    1.7607  -13.0939    0.0000 O   0  0  0  0  0  0  0  0  0  0  0  0
    2.2875  -11.7214    0.0000 C   0  0  1  0  0  0  0  0  0  0  0  0
    3.0020  -12.1339    0.0000 O   0  0  0  0  0  0  0  0  0  0  0  0
    1.4170  -10.4654    0.0000 H   0  0  0  0  0  0  0  0  0  0  0  0
    1.6620  -10.4654    0.0000 H   0  0  0  0  0  0  0  0  0  0  0  0
   -0.3555  -10.2533    0.0000 H   0  0  0  0  0  0  0  0  0  0  0  0
    1.2495  -11.1799    0.0000 H   0  0  0  0  0  0  0  0  0  0  0  0
    0.1795  -11.1800    0.0000 H   0  0  0  0  0  0  0  0  0  0  0  0
    0.4245   -8.3220    0.0000 H   0  0  0  0  0  0  0  0  0  0  0  0
    0.5470   -8.1099    0.0000 H   0  0  0  0  0  0  0  0  0  0  0  0
   -0.5955   -9.6644    0.0000 H   0  0  0  0  0  0  0  0  0  0  0  0
   -0.8130   -9.0366    0.0000 H   0  0  0  0  0  0  0  0  0  0  0  0
   -2.7305   -8.8243    0.0000 H   0  0  0  0  0  0  0  0  0  0  0  0
   -2.2955   -8.3220    0.0000 H   0  0  0  0  0  0  0  0  0  0  0  0
   -3.1205   -6.4688    0.0000 H   0  0  0  0  0  0  0  0  0  0  0  0
   -3.6555   -7.3954    0.0000 H   0  0  0  0  0  0  0  0  0  0  0  0
   -3.9680   -8.1099    0.0000 H   0  0  0  0  0  0  0  0  0  0  0  0
   -1.0580   -5.7543    0.0000 H   0  0  0  0  0  0  0  0  0  0  0  0
   -0.2330   -6.1786    0.0000 H   0  0  0  0  0  0  0  0  0  0  0  0
   -0.7680   -5.2520    0.0000 H   0  0  0  0  0  0  0  0  0  0  0  0
   -0.6455   -5.4641    0.0000 H   0  0  0  0  0  0  0  0  0  0  0  0
   -2.0505   -3.6109    0.0000 H   0  0  0  0  0  0  0  0  0  0  0  0
   -3.1205   -3.6109    0.0000 H   0  0  0  0  0  0  0  0  0  0  0  0
   -3.8955   -3.6975    0.0000 H   0  0  0  0  0  0  0  0  0  0  0  0
   -2.0695   -6.8601    0.0000 H   0  0  0  0  0  0  0  0  0  0  0  0
   -3.9455   -5.0398    0.0000 H   0  0  0  0  0  0  0  0  0  0  0  0
   -4.4805   -5.9664    0.0000 H   0  0  0  0  0  0  0  0  0  0  0  0
   -3.2880   -7.6075    0.0000 H   0  0  0  0  0  0  0  0  0  0  0  0
   -4.3580   -7.6075    0.0000 H   0  0  0  0  0  0  0  0  0  0  0  0
   -3.7214   -5.3209    0.0000 H   0  0  0  0  0  0  0  0  0  0  0  0
   -5.5746   -5.3209    0.0000 H   0  0  0  0  0  0  0  0  0  0  0  0
   -4.6480   -4.7859    0.0000 H   0  0  0  0  0  0  0  0  0  0  0  0
   -4.8155   -5.9664    0.0000 H   0  0  0  0  0  0  0  0  0  0  0  0
   -4.8155   -4.5375    0.0000 H   0  0  0  0  0  0  0  0  0  0  0  0
   -4.4030   -3.8230    0.0000 H   0  0  0  0  0  0  0  0  0  0  0  0
   -6.0080   -2.8964    0.0000 H   0  0  0  0  0  0  0  0  0  0  0  0
   -4.9380   -2.8963    0.0000 H   0  0  0  0  0  0  0  0  0  0  0  0
   -6.1755   -3.6109    0.0000 H   0  0  0  0  0  0  0  0  0  0  0  0
   -8.4830   -1.4675    0.0000 H   0  0  0  0  0  0  0  0  0  0  0  0
   -7.4130   -1.4675    0.0000 H   0  0  0  0  0  0  0  0  0  0  0  0
   -6.6380   -3.2341    0.0000 H   0  0  0  0  0  0  0  0  0  0  0  0
   -9.7015   -4.0023    0.0000 H   0  0  0  0  0  0  0  0  0  0  0  0
  -10.6680   -2.3941    0.0000 H   0  0  0  0  0  0  0  0  0  0  0  0
  -10.1330   -1.4675    0.0000 H   0  0  0  0  0  0  0  0  0  0  0  0
   -8.1155   -1.6796    0.0000 H   0  0  0  0  0  0  0  0  0  0  0  0
   -8.6505   -0.7530    0.0000 H   0  0  0  0  0  0  0  0  0  0  0  0
  -11.2391   -0.8426    0.0000 H   0  0  0  0  0  0  0  0  0  0  0  0
  -10.3125   -2.4476    0.0000 H   0  0  0  0  0  0  0  0  0  0  0  0
  -11.2392   -1.9126    0.0000 H   0  0  0  0  0  0  0  0  0  0  0  0
   -8.0435   -1.0376    0.0000 H   0  0  0  0  0  0  0  0  0  0  0  0
  -11.0425   -0.2507    0.0000 H   0  0  0  0  0  0  0  0  0  0  0  0
   -8.5660    0.4638    0.0000 H   0  0  0  0  0  0  0  0  0  0  0  0
  -10.1140    1.3575    0.0000 H   0  0  0  0  0  0  0  0  0  0  0  0
   -7.6580   -4.3254    0.0000 H   0  0  0  0  0  0  0  0  0  0  0  0
   -8.4330   -4.4120    0.0000 H   0  0  0  0  0  0  0  0  0  0  0  0
   -7.7805   -5.9664    0.0000 H   0  0  0  0  0  0  0  0  0  0  0  0
   -8.0930   -6.6809    0.0000 H   0  0  0  0  0  0  0  0  0  0  0  0
   -3.7543   -8.0219    0.0000 H   0  0  0  0  0  0  0  0  0  0  0  0
   -6.2562   -7.4024    0.0000 H   0  0  0  0  0  0  0  0  0  0  0  0
   -5.3625   -8.9504    0.0000 H   0  0  0  0  0  0  0  0  0  0  0  0
    1.4507   -2.6446    0.0000 H   0  0  0  0  0  0  0  0  0  0  0  0
   -0.3745   -2.3229    0.0000 H   0  0  0  0  0  0  0  0  0  0  0  0
    0.6309   -1.9568    0.0000 H   0  0  0  0  0  0  0  0  0  0  0  0
   -0.6592   -2.4872    0.0000 H   0  0  0  0  0  0  0  0  0  0  0  0
   -1.2929   -4.2288    0.0000 H   0  0  0  0  0  0  0  0  0  0  0  0
   -1.4788   -3.1750    0.0000 H   0  0  0  0  0  0  0  0  0  0  0  0
    1.6620   -2.8964    0.0000 H   0  0  0  0  0  0  0  0  0  0  0  0
    2.1970   -3.8230    0.0000 H   0  0  0  0  0  0  0  0  0  0  0  0
    2.2610   -2.9293    0.0000 H   0  0  0  0  0  0  0  0  0  0  0  0
    4.1370   -2.8964    0.0000 H   0  0  0  0  0  0  0  0  0  0  0  0
    4.6720   -3.8230    0.0000 H   0  0  0  0  0  0  0  0  0  0  0  0
    4.9620   -2.8964    0.0000 H   0  0  0  0  0  0  0  0  0  0  0  0
    3.3570   -3.8230    0.0000 H   0  0  0  0  0  0  0  0  0  0  0  0
    3.8920   -2.8963    0.0000 H   0  0  0  0  0  0  0  0  0  0  0  0
    4.7170   -2.8964    0.0000 H   0  0  0  0  0  0  0  0  0  0  0  0
    5.7870   -2.8964    0.0000 H   0  0  0  0  0  0  0  0  0  0  0  0
    6.6120   -2.8964    0.0000 H   0  0  0  0  0  0  0  0  0  0  0  0
    7.1470   -3.8230    0.0000 H   0  0  0  0  0  0  0  0  0  0  0  0
    7.0245   -3.6109    0.0000 H   0  0  0  0  0  0  0  0  0  0  0  0
    6.6570   -2.3941    0.0000 H   0  0  0  0  0  0  0  0  0  0  0  0
    6.2445   -1.6796    0.0000 H   0  0  0  0  0  0  0  0  0  0  0  0
    6.7795   -0.7530    0.0000 H   0  0  0  0  0  0  0  0  0  0  0  0
    8.3845   -0.2507    0.0000 H   0  0  0  0  0  0  0  0  0  0  0  0
    8.3845    1.1783    0.0000 H   0  0  0  0  0  0  0  0  0  0  0  0
    8.7970    1.8927    0.0000 H   0  0  0  0  0  0  0  0  0  0  0  0
    7.1920    2.8194    0.0000 H   0  0  0  0  0  0  0  0  0  0  0  0
    8.2620    2.8193    0.0000 H   0  0  0  0  0  0  0  0  0  0  0  0
    7.0245    2.1050    0.0000 H   0  0  0  0  0  0  0  0  0  0  0  0
    6.5620    2.7328    0.0000 H   0  0  0  0  0  0  0  0  0  0  0  0
    5.5420    1.3904    0.0000 H   0  0  0  0  0  0  0  0  0  0  0  0
    4.7670    1.3038    0.0000 H   0  0  0  0  0  0  0  0  0  0  0  0
    5.4195   -0.2507    0.0000 H   0  0  0  0  0  0  0  0  0  0  0  0
    3.4795    0.6760    0.0000 H   0  0  0  0  0  0  0  0  0  0  0  0
    2.9445   -0.2507    0.0000 H   0  0  0  0  0  0  0  0  0  0  0  0
    3.0670   -0.0384    0.0000 H   0  0  0  0  0  0  0  0  0  0  0  0
    2.2920   -0.1251    0.0000 H   0  0  0  0  0  0  0  0  0  0  0  0
    2.9445   -1.6796    0.0000 H   0  0  0  0  0  0  0  0  0  0  0  0
    2.6320   -2.3941    0.0000 H   0  0  0  0  0  0  0  0  0  0  0  0
    4.3045   -2.6062    0.0000 H   0  0  0  0  0  0  0  0  0  0  0  0
    4.7670   -3.2341    0.0000 H   0  0  0  0  0  0  0  0  0  0  0  0
    8.0170   -1.4675    0.0000 H   0  0  0  0  0  0  0  0  0  0  0  0
    9.9345   -1.6796    0.0000 H   0  0  0  0  0  0  0  0  0  0  0  0
    9.4995   -2.1820    0.0000 H   0  0  0  0  0  0  0  0  0  0  0  0
   10.2745   -3.9486    0.0000 H   0  0  0  0  0  0  0  0  0  0  0  0
    9.6220   -3.8230    0.0000 H   0  0  0  0  0  0  0  0  0  0  0  0
    8.4722   -5.3901    0.0000 H   0  0  0  0  0  0  0  0  0  0  0  0
   11.2720   -3.8230    0.0000 H   0  0  0  0  0  0  0  0  0  0  0  0
    9.6670   -2.8964    0.0000 H   0  0  0  0  0  0  0  0  0  0  0  0
   10.7370   -2.8963    0.0000 H   0  0  0  0  0  0  0  0  0  0  0  0
    7.0381   -6.5878    0.0000 H   0  0  0  0  0  0  0  0  0  0  0  0
    7.6718   -4.8463    0.0000 H   0  0  0  0  0  0  0  0  0  0  0  0
    7.8577   -5.9000    0.0000 H   0  0  0  0  0  0  0  0  0  0  0  0
    4.9282   -6.4303    0.0000 H   0  0  0  0  0  0  0  0  0  0  0  0
    6.7533   -6.7522    0.0000 H   0  0  0  0  0  0  0  0  0  0  0  0
    5.7478   -7.1181    0.0000 H   0  0  0  0  0  0  0  0  0  0  0  0
    5.3745   -6.8931    0.0000 H   0  0  0  0  0  0  0  0  0  0  0  0
    4.3045   -6.8930    0.0000 H   0  0  0  0  0  0  0  0  0  0  0  0
    3.4795   -6.8931    0.0000 H   0  0  0  0  0  0  0  0  0  0  0  0
    2.9445   -5.9664    0.0000 H   0  0  0  0  0  0  0  0  0  0  0  0
    2.1195   -5.9664    0.0000 H   0  0  0  0  0  0  0  0  0  0  0  0
    3.7245   -6.8931    0.0000 H   0  0  0  0  0  0  0  0  0  0  0  0
    2.6545   -6.8930    0.0000 H   0  0  0  0  0  0  0  0  0  0  0  0
    1.7132   -6.5076    0.0000 H   0  0  0  0  0  0  0  0  0  0  0  0
    3.5563   -6.7015    0.0000 H   0  0  0  0  0  0  0  0  0  0  0  0
    2.5788   -7.1366    0.0000 H   0  0  0  0  0  0  0  0  0  0  0  0
    2.8995   -6.8931    0.0000 H   0  0  0  0  0  0  0  0  0  0  0  0
    1.8295   -6.8930    0.0000 H   0  0  0  0  0  0  0  0  0  0  0  0
    2.3346   -6.6824    0.0000 H   0  0  0  0  0  0  0  0  0  0  0  0
    0.8409   -7.3570    0.0000 H   0  0  0  0  0  0  0  0  0  0  0  0
    1.4170   -7.1833    0.0000 H   0  0  0  0  0  0  0  0  0  0  0  0
    3.3345   -7.3954    0.0000 H   0  0  0  0  0  0  0  0  0  0  0  0
    2.8995   -7.8976    0.0000 H   0  0  0  0  0  0  0  0  0  0  0  0
    2.5320  -10.9677    0.0000 H   0  0  0  0  0  0  0  0  0  0  0  0
    2.1195  -11.6822    0.0000 H   0  0  0  0  0  0  0  0  0  0  0  0
    2.6545  -12.6088    0.0000 H   0  0  0  0  0  0  0  0  0  0  0  0
    3.1170  -13.2367    0.0000 H   0  0  0  0  0  0  0  0  0  0  0  0
    3.8920  -11.8943    0.0000 H   0  0  0  0  0  0  0  0  0  0  0  0
    4.3545  -12.5222    0.0000 H   0  0  0  0  0  0  0  0  0  0  0  0
    5.3745  -11.1800    0.0000 H   0  0  0  0  0  0  0  0  0  0  0  0
    6.1495  -11.0933    0.0000 H   0  0  0  0  0  0  0  0  0  0  0  0
    5.4970   -9.5388    0.0000 H   0  0  0  0  0  0  0  0  0  0  0  0
    5.8095   -8.8243    0.0000 H   0  0  0  0  0  0  0  0  0  0  0  0
    0.1284  -11.1875    0.0000 H   0  0  0  0  0  0  0  0  0  0  0  0
   -0.6594  -11.5676    0.0000 H   0  0  0  0  0  0  0  0  0  0  0  0
   -0.7712  -12.6318    0.0000 H   0  0  0  0  0  0  0  0  0  0  0  0
   -0.7660  -13.4116    0.0000 H   0  0  0  0  0  0  0  0  0  0  0  0
    0.7770  -12.8562    0.0000 H   0  0  0  0  0  0  0  0  0  0  0  0
    0.9760  -13.6641    0.0000 H   0  0  0  0  0  0  0  0  0  0  0  0
    2.3993  -12.7855    0.0000 H   0  0  0  0  0  0  0  0  0  0  0  0
    3.0020  -13.1039    0.0000 H   0  0  0  0  0  0  0  0  0  0  0  0
  2  1  1  6  0  0  0
  2  3  1  0  0  0  0
  2146  1  0  0  0  0
  4  3  1  0  0  0  0
  4  5  1  0  0  0  0
  4132  1  0  0  0  0
  4154  1  6  0  0  0
  5  6  1  0  0  0  0
  5  7  1  0  0  0  0
  5155  1  1  0  0  0
  6156  1  0  0  0  0
  6157  1  0  0  0  0
  6158  1  0  0  0  0
  8  7  1  0  0  0  0
  8  9  1  6  0  0  0
  8 10  1  0  0  0  0
 11 10  1  0  0  0  0
 11 12  1  0  0  0  0
 11 20  1  0  0  0  0
 11159  1  1  0  0  0
 12 13  1  0  0  0  0
 12 14  1  0  0  0  0
 12160  1  6  0  0  0
 13161  1  0  0  0  0
 14 15  1  0  0  0  0
 14 16  1  0  0  0  0
 14162  1  1  0  0  0
 15163  1  0  0  0  0
 16 17  1  0  0  0  0
 16 19  1  0  0  0  0
 16164  1  6  0  0  0
 17 18  1  0  0  0  0
 17165  1  0  0  0  0
 17166  1  0  0  0  0
 18167  1  0  0  0  0
 20 19  1  0  0  0  0
 20 21  1  0  0  0  0
 20168  1  6  0  0  0
 21 22  1  0  0  0  0
 22 23  2  0  0  0  0
 24 22  1  6  0  0  0
 24 25  1  0  0  0  0
 24 68  1  0  0  0  0
 24128  1  0  0  0  0
 25169  1  0  0  0  0
 25170  1  0  0  0  0
 26 25  1  0  0  0  0
 26 27  1  0  0  0  0
 26 64  1  0  0  0  0
 26171  1  1  0  0  0
 27 28  1  0  0  0  0
 28 29  2  0  0  0  0
 28 30  1  0  0  0  0
 30 31  1  0  0  0  0
 30 33  2  0  0  0  0
 31 32  1  0  0  0  0
 31172  1  0  0  0  0
 31173  1  0  0  0  0
 32174  1  0  0  0  0
 33 34  1  0  0  0  0
 33175  1  0  0  0  0
 34 35  1  0  0  0  0
 34176  1  0  0  0  0
 34177  1  0  0  0  0
 35178  1  0  0  0  0
 35179  1  0  0  0  0
 36 35  1  0  0  0  0
 36 37  1  0  0  0  0
 36 38  1  6  0  0  0
 36 62  1  0  0  0  0
 37180  1  0  0  0  0
 37181  1  0  0  0  0
 37182  1  0  0  0  0
 39 38  1  0  0  0  0
 39 40  1  0  0  0  0
 39183  1  6  0  0  0
 41 40  1  0  0  0  0
 41 42  1  0  0  0  0
 41184  1  6  0  0  0
 42185  1  0  0  0  0
 42186  1  0  0  0  0
 42187  1  0  0  0  0
 43 41  1  0  0  0  0
 43 44  1  0  0  0  0
 43 58  1  0  0  0  0
 43188  1  1  0  0  0
 44 45  1  0  0  0  0
 45 46  2  0  0  0  0
 45 47  1  0  0  0  0
 47 48  1  0  0  0  0
 47 50  2  0  0  0  0
 48 49  1  0  0  0  0
 48189  1  0  0  0  0
 48190  1  0  0  0  0
 49191  1  0  0  0  0
 50 51  1  0  0  0  0
 50192  1  0  0  0  0
 51 52  1  0  0  0  0
 51193  1  0  0  0  0
 51194  1  0  0  0  0
 52195  1  0  0  0  0
 52196  1  0  0  0  0
 53 52  1  0  0  0  0
 53 54  1  0  0  0  0
 53 55  1  1  0  0  0
 53 56  1  0  0  0  0
 54197  1  0  0  0  0
 54198  1  0  0  0  0
 54199  1  0  0  0  0
 55200  1  0  0  0  0
 56 57  2  0  0  0  0
 56201  1  0  0  0  0
 57202  1  0  0  0  0
 57203  1  0  0  0  0
 58 59  1  0  0  0  0
 58 60  1  0  0  0  0
 58204  1  6  0  0  0
 59205  1  0  0  0  0
 60 39  1  0  0  0  0
 60 61  1  0  0  0  0
 60206  1  1  0  0  0
 61207  1  0  0  0  0
 62 63  2  0  0  0  0
 62208  1  0  0  0  0
 63209  1  0  0  0  0
 63210  1  0  0  0  0
 64 65  1  0  0  0  0
 64 66  1  0  0  0  0
 64 67  1  0  0  0  0
 65211  1  0  0  0  0
 65212  1  0  0  0  0
 65213  1  0  0  0  0
 66214  1  0  0  0  0
 66215  1  0  0  0  0
 66216  1  0  0  0  0
 67217  1  0  0  0  0
 67218  1  0  0  0  0
 68 67  1  0  0  0  0
 68 69  1  6  0  0  0
 68 70  1  0  0  0  0
 70 71  2  0  0  0  0
 71 72  1  0  0  0  0
 71219  1  0  0  0  0
 72220  1  0  0  0  0
 72221  1  0  0  0  0
 73 72  1  0  0  0  0
 73 74  1  1  0  0  0
 73 75  1  0  0  0  0
 73123  1  0  0  0  0
 75 76  1  6  0  0  0
 75 77  1  0  0  0  0
 75119  1  0  0  0  0
 76222  1  0  0  0  0
 76223  1  0  0  0  0
 76224  1  0  0  0  0
 77 78  1  0  0  0  0
 77225  1  0  0  0  0
 77226  1  0  0  0  0
 78227  1  0  0  0  0
 78228  1  0  0  0  0
 79 78  1  0  0  0  0
 79 80  1  0  0  0  0
 79116  1  0  0  0  0
 79229  1  1  0  0  0
 81 80  1  0  0  0  0
 81 82  1  1  0  0  0
 81 83  1  0  0  0  0
 84 83  1  0  0  0  0
 84 85  1  0  0  0  0
 84230  1  1  0  0  0
 85 86  1  0  0  0  0
 85231  1  0  0  0  0
 85232  1  0  0  0  0
 87 86  1  0  0  0  0
 87 88  1  0  0  0  0
 87233  1  6  0  0  0
 89 88  1  0  0  0  0
 89 90  1  0  0  0  0
 89234  1  6  0  0  0
 90235  1  0  0  0  0
 90236  1  0  0  0  0
 90237  1  0  0  0  0
 91 89  1  0  0  0  0
 91 92  1  0  0  0  0
 91 93  1  0  0  0  0
 91238  1  6  0  0  0
 92239  1  0  0  0  0
 93 94  1  0  0  0  0
 93 95  1  0  0  0  0
 93240  1  6  0  0  0
 94241  1  0  0  0  0
 95 87  1  0  0  0  0
 95 96  1  0  0  0  0
 95242  1  1  0  0  0
 97 96  1  0  0  0  0
 97 98  1  6  0  0  0
 97 99  1  0  0  0  0
 99100  1  0  0  0  0
100243  1  0  0  0  0
100244  1  0  0  0  0
101100  1  0  0  0  0
101102  1  0  0  0  0
101245  1  1  0  0  0
102246  1  0  0  0  0
103101  1  0  0  0  0
103104  1  0  0  0  0
103105  1  0  0  0  0
103247  1  6  0  0  0
104248  1  0  0  0  0
105 97  1  0  0  0  0
105106  1  0  0  0  0
105249  1  1  0  0  0
106250  1  0  0  0  0
107 84  1  0  0  0  0
107108  1  0  0  0  0
107109  1  0  0  0  0
107251  1  6  0  0  0
108252  1  0  0  0  0
109110  1  0  0  0  0
109111  1  0  0  0  0
109253  1  1  0  0  0
110254  1  0  0  0  0
111 81  1  0  0  0  0
111112  1  0  0  0  0
111255  1  6  0  0  0
112113  1  0  0  0  0
112256  1  0  0  0  0
113114  1  0  0  0  0
113115  2  0  0  0  0
114257  1  0  0  0  0
114258  1  0  0  0  0
114259  1  0  0  0  0
116117  1  0  0  0  0
116118  1  0  0  0  0
117260  1  0  0  0  0
117261  1  0  0  0  0
117262  1  0  0  0  0
118263  1  0  0  0  0
118264  1  0  0  0  0
118265  1  0  0  0  0
119116  1  0  0  0  0
119120  1  1  0  0  0
119121  1  0  0  0  0
121122  1  0  0  0  0
121266  1  0  0  0  0
121267  1  0  0  0  0
122268  1  0  0  0  0
122269  1  0  0  0  0
123122  1  0  0  0  0
123124  1  6  0  0  0
123125  1  0  0  0  0
124270  1  0  0  0  0
124271  1  0  0  0  0
124272  1  0  0  0  0
125 70  1  0  0  0  0
125126  1  1  0  0  0
125127  1  0  0  0  0
126273  1  0  0  0  0
126274  1  0  0  0  0
126275  1  0  0  0  0
127276  1  0  0  0  0
127277  1  0  0  0  0
128127  1  0  0  0  0
128129  1  0  0  0  0
128278  1  6  0  0  0
129279  1  0  0  0  0
130  8  1  0  0  0  0
130131  1  0  0  0  0
130280  1  1  0  0  0
131281  1  0  0  0  0
132130  1  0  0  0  0
132133  1  0  0  0  0
132282  1  1  0  0  0
134133  1  0  0  0  0
134135  1  6  0  0  0
134136  1  0  0  0  0
137136  1  0  0  0  0
137138  1  0  0  0  0
137283  1  6  0  0  0
138139  1  0  0  0  0
138284  1  0  0  0  0
138285  1  0  0  0  0
139286  1  0  0  0  0
140137  1  0  0  0  0
140141  1  0  0  0  0
140142  1  0  0  0  0
140287  1  1  0  0  0
141288  1  0  0  0  0
142143  1  0  0  0  0
142144  1  0  0  0  0
142289  1  6  0  0  0
143290  1  0  0  0  0
144134  1  0  0  0  0
144145  1  0  0  0  0
144291  1  1  0  0  0
145292  1  0  0  0  0
147146  1  0  0  0  0
147148  1  0  0  0  0
147293  1  1  0  0  0
148149  1  0  0  0  0
148294  1  0  0  0  0
148295  1  0  0  0  0
149296  1  0  0  0  0
150147  1  0  0  0  0
150151  1  0  0  0  0
150152  1  0  0  0  0
150297  1  6  0  0  0
151298  1  0  0  0  0
152  2  1  0  0  0  0
152153  1  0  0  0  0
152299  1  1  0  0  0
153300  1  0  0  0  0
M  END
>  <DRUGBANK_ID>
DB17240

>  <COMMON_NAME>
Avicin D

>  <CAS_NUMBER>
197787-20-5

>  <UNII>
69451KN1RO

>  <SYNONYMS>
Elliptoside e

$$$$
