
 OpenBabel10282417072D

 96 99  0  0  0  0  0  0  0  0999 V2000
   -3.6289   -0.3767    0.0000 C   0  0  0  0  0  0  0  0  0  0  0  0
   -4.3603   -0.7827    0.0000 C   0  0  0  0  0  0  0  0  0  0  0  0
   -4.3810   -1.6075    0.0000 C   0  0  0  0  0  0  0  0  0  0  0  0
   -2.9180   -0.7955    0.0000 C   0  0  0  0  0  0  0  0  0  0  0  0
   -2.9183   -1.6568    0.0000 C   0  0  0  0  0  0  0  0  0  0  0  0
   -3.6499   -2.0628    0.0000 C   0  0  0  0  0  0  0  0  0  0  0  0
   -2.9963   -3.3266    0.0000 C   0  0  0  0  0  0  0  0  0  0  0  0
   -2.2647   -2.9206    0.0000 C   0  0  0  0  0  0  0  0  0  0  0  0
   -2.2075   -2.0755    0.0000 N   0  0  0  0  0  0  0  0  0  0  0  0
   -1.5336   -3.3759    0.0000 O   0  0  0  0  0  0  0  0  0  0  0  0
   -3.6083    0.4479    0.0000 O   0  0  0  0  0  0  0  0  0  0  0  0
   -2.8553    0.8661    0.0000 C   0  0  0  0  0  0  0  0  0  0  0  0
   -2.1442    0.4479    0.0000 C   0  0  0  0  0  0  0  0  0  0  0  0
   -1.4332    0.8661    0.0000 C   0  0  0  0  0  0  0  0  0  0  0  0
   -0.6803    0.4479    0.0000 C   0  0  0  0  0  0  0  0  0  0  0  0
    0.0726    0.8661    0.0000 N   0  0  0  0  0  0  0  0  0  0  0  0
    0.7419    0.4479    0.0000 C   0  0  0  0  0  0  0  0  0  0  0  0
    1.4947    0.8661    0.0000 C   0  0  0  0  0  0  0  0  0  0  0  0
    1.4947    1.7027    0.0000 N   0  0  0  0  0  0  0  0  0  0  0  0
    0.7419    2.1210    0.0000 C   0  0  0  0  0  0  0  0  0  0  0  0
    0.0726    1.7027    0.0000 C   0  0  0  0  0  0  0  0  0  0  0  0
    2.2058    2.1210    0.0000 C   0  0  0  0  0  0  0  0  0  0  0  0
    2.9168    1.7027    0.0000 C   0  0  0  0  0  0  0  0  0  0  0  0
    3.6698    2.1210    0.0000 C   0  0  0  0  0  0  0  0  0  0  0  0
    3.6698    2.9577    0.0000 C   0  0  0  0  0  0  0  0  0  0  0  0
    2.9168    3.3759    0.0000 C   0  0  0  0  0  0  0  0  0  0  0  0
    2.2058    2.9577    0.0000 C   0  0  0  0  0  0  0  0  0  0  0  0
    2.9168    0.8661    0.0000 Cl  0  0  0  0  0  0  0  0  0  0  0  0
    4.3810    1.7027    0.0000 Cl  0  0  0  0  0  0  0  0  0  0  0  0
   -3.6705   -2.8875    0.0000 C   0  0  0  0  0  0  0  0  0  0  0  0
   -1.4778   -1.6905    0.0000 C   0  0  0  0  0  0  0  0  0  0  0  0
   -0.7797   -2.1300    0.0000 O   0  0  0  0  0  0  0  0  0  0  0  0
    2.0771   -2.1105    0.0000 C   0  0  0  0  0  0  0  0  0  0  0  0
    2.0771   -2.9355    0.0000 C   0  0  0  0  0  0  0  0  0  0  0  0
    2.7915   -1.6981    0.0000 C   0  0  0  0  0  0  0  0  0  0  0  0
    2.7915   -3.3480    0.0000 C   0  0  0  0  0  0  0  0  0  0  0  0
    3.5061   -2.1105    0.0000 C   0  0  0  0  0  0  0  0  0  0  0  0
    3.5061   -2.9355    0.0000 C   0  0  0  0  0  0  0  0  0  0  0  0
    0.6482   -2.1105    0.0000 C   0  0  0  0  0  0  0  0  0  0  0  0
    0.6482   -2.9355    0.0000 C   0  0  0  0  0  0  0  0  0  0  0  0
    1.3627   -1.6981    0.0000 C   0  0  0  0  0  0  0  0  0  0  0  0
    1.3627   -3.3480    0.0000 C   0  0  0  0  0  0  0  0  0  0  0  0
   -0.0708   -1.7080    0.0000 C   0  0  0  0  0  0  0  0  0  0  0  0
   -0.0819   -0.8832    0.0000 O   0  0  0  0  0  0  0  0  0  0  0  0
   -0.0661   -3.3480    0.0000 C   0  0  0  0  0  0  0  0  0  0  0  0
   -5.2430   -0.2481    0.0000 H   0  0  0  0  0  0  0  0  0  0  0  0
   -5.2894   -2.0972    0.0000 H   0  0  0  0  0  0  0  0  0  0  0  0
   -2.0219   -0.2836    0.0000 H   0  0  0  0  0  0  0  0  0  0  0  0
   -3.0341   -4.3959    0.0000 H   0  0  0  0  0  0  0  0  0  0  0  0
   -2.0840   -3.8856    0.0000 H   0  0  0  0  0  0  0  0  0  0  0  0
   -2.8421    1.9360    0.0000 H   0  0  0  0  0  0  0  0  0  0  0  0
   -1.9233    1.3916    0.0000 H   0  0  0  0  0  0  0  0  0  0  0  0
   -2.1442   -0.6221    0.0000 H   0  0  0  0  0  0  0  0  0  0  0  0
   -1.2154   -0.0833    0.0000 H   0  0  0  0  0  0  0  0  0  0  0  0
   -1.4464    1.9360    0.0000 H   0  0  0  0  0  0  0  0  0  0  0  0
   -2.3653    1.3916    0.0000 H   0  0  0  0  0  0  0  0  0  0  0  0
   -0.6803   -0.6221    0.0000 H   0  0  0  0  0  0  0  0  0  0  0  0
    0.2419   -0.0948    0.0000 H   0  0  0  0  0  0  0  0  0  0  0  0
    0.7144   -0.6217    0.0000 H   0  0  0  0  0  0  0  0  0  0  0  0
    1.6570   -0.1065    0.0000 H   0  0  0  0  0  0  0  0  0  0  0  0
    2.4169    0.3235    0.0000 H   0  0  0  0  0  0  0  0  0  0  0  0
    2.4235    1.3973    0.0000 H   0  0  0  0  0  0  0  0  0  0  0  0
    0.7144    3.1906    0.0000 H   0  0  0  0  0  0  0  0  0  0  0  0
   -0.2006    2.6276    0.0000 H   0  0  0  0  0  0  0  0  0  0  0  0
   -0.8633    2.2214    0.0000 H   0  0  0  0  0  0  0  0  0  0  0  0
   -0.8493    1.1596    0.0000 H   0  0  0  0  0  0  0  0  0  0  0  0
    4.5592    3.4811    0.0000 H   0  0  0  0  0  0  0  0  0  0  0  0
    2.9040    4.4078    0.0000 H   0  0  0  0  0  0  0  0  0  0  0  0
    1.3100    3.4701    0.0000 H   0  0  0  0  0  0  0  0  0  0  0  0
   -4.6175   -3.3857    0.0000 H   0  0  0  0  0  0  0  0  0  0  0  0
   -4.5795   -2.3230    0.0000 H   0  0  0  0  0  0  0  0  0  0  0  0
   -1.4369   -0.6213    0.0000 H   0  0  0  0  0  0  0  0  0  0  0  0
   -0.5314   -1.1913    0.0000 H   0  0  0  0  0  0  0  0  0  0  0  0
    2.0771   -3.1805    0.0000 H   0  0  0  0  0  0  0  0  0  0  0  0
    1.1505   -2.6455    0.0000 H   0  0  0  0  0  0  0  0  0  0  0  0
    2.0771   -1.8655    0.0000 H   0  0  0  0  0  0  0  0  0  0  0  0
    1.1504   -2.4005    0.0000 H   0  0  0  0  0  0  0  0  0  0  0  0
    2.7914   -0.6281    0.0000 H   0  0  0  0  0  0  0  0  0  0  0  0
    3.7181   -1.1630    0.0000 H   0  0  0  0  0  0  0  0  0  0  0  0
    2.7914   -4.4180    0.0000 H   0  0  0  0  0  0  0  0  0  0  0  0
    3.7181   -3.8831    0.0000 H   0  0  0  0  0  0  0  0  0  0  0  0
    4.4327   -1.5754    0.0000 H   0  0  0  0  0  0  0  0  0  0  0  0
    4.4328   -2.6455    0.0000 H   0  0  0  0  0  0  0  0  0  0  0  0
    4.4327   -3.4705    0.0000 H   0  0  0  0  0  0  0  0  0  0  0  0
    4.4328   -2.4005    0.0000 H   0  0  0  0  0  0  0  0  0  0  0  0
    0.6552   -3.1805    0.0000 H   0  0  0  0  0  0  0  0  0  0  0  0
   -0.2731   -2.6547    0.0000 H   0  0  0  0  0  0  0  0  0  0  0  0
    0.6481   -1.8655    0.0000 H   0  0  0  0  0  0  0  0  0  0  0  0
   -0.2785   -2.4006    0.0000 H   0  0  0  0  0  0  0  0  0  0  0  0
    1.3627   -0.6281    0.0000 H   0  0  0  0  0  0  0  0  0  0  0  0
    2.2893   -1.1631    0.0000 H   0  0  0  0  0  0  0  0  0  0  0  0
    1.3627   -4.4180    0.0000 H   0  0  0  0  0  0  0  0  0  0  0  0
    2.2894   -3.8830    0.0000 H   0  0  0  0  0  0  0  0  0  0  0  0
   -0.9928   -2.8131    0.0000 H   0  0  0  0  0  0  0  0  0  0  0  0
   -0.0660   -4.4180    0.0000 H   0  0  0  0  0  0  0  0  0  0  0  0
   -0.9927   -3.8831    0.0000 H   0  0  0  0  0  0  0  0  0  0  0  0
  1 11  1  0  0  0  0
  1  2  2  0  0  0  0
  2  3  1  0  0  0  0
  2 46  1  0  0  0  0
  3  6  2  0  0  0  0
  3 47  1  0  0  0  0
  4  1  1  0  0  0  0
  4 48  1  0  0  0  0
  5  4  2  0  0  0  0
  5  6  1  0  0  0  0
  6 30  1  0  0  0  0
  7  8  1  0  0  0  0
  7 49  1  0  0  0  0
  7 50  1  0  0  0  0
  8  9  1  0  0  0  0
  8 10  2  0  0  0  0
  9  5  1  0  0  0  0
  9 31  1  0  0  0  0
 11 12  1  0  0  0  0
 12 13  1  0  0  0  0
 12 51  1  0  0  0  0
 12 52  1  0  0  0  0
 13 14  1  0  0  0  0
 13 53  1  0  0  0  0
 13 54  1  0  0  0  0
 14 15  1  0  0  0  0
 14 55  1  0  0  0  0
 14 56  1  0  0  0  0
 15 16  1  0  0  0  0
 15 57  1  0  0  0  0
 15 58  1  0  0  0  0
 16 17  1  0  0  0  0
 17 18  1  0  0  0  0
 17 59  1  0  0  0  0
 17 60  1  0  0  0  0
 18 19  1  0  0  0  0
 18 61  1  0  0  0  0
 18 62  1  0  0  0  0
 19 20  1  0  0  0  0
 19 22  1  0  0  0  0
 20 21  1  0  0  0  0
 20 63  1  0  0  0  0
 20 64  1  0  0  0  0
 21 16  1  0  0  0  0
 21 65  1  0  0  0  0
 21 66  1  0  0  0  0
 22 23  2  0  0  0  0
 23 24  1  0  0  0  0
 23 28  1  0  0  0  0
 24 25  2  0  0  0  0
 24 29  1  0  0  0  0
 25 26  1  0  0  0  0
 25 67  1  0  0  0  0
 26 27  2  0  0  0  0
 26 68  1  0  0  0  0
 27 22  1  0  0  0  0
 27 69  1  0  0  0  0
 30  7  1  0  0  0  0
 30 70  1  0  0  0  0
 30 71  1  0  0  0  0
 31 32  1  0  0  0  0
 31 72  1  0  0  0  0
 31 73  1  0  0  0  0
 33 41  1  0  0  0  0
 33 74  1  0  0  0  0
 33 75  1  0  0  0  0
 34 42  1  0  0  0  0
 34 76  1  0  0  0  0
 34 77  1  0  0  0  0
 35 33  1  0  0  0  0
 35 78  1  0  0  0  0
 35 79  1  0  0  0  0
 36 34  1  0  0  0  0
 36 80  1  0  0  0  0
 36 81  1  0  0  0  0
 37 35  1  0  0  0  0
 37 82  1  0  0  0  0
 37 83  1  0  0  0  0
 38 36  1  0  0  0  0
 38 37  1  0  0  0  0
 38 84  1  0  0  0  0
 38 85  1  0  0  0  0
 39 43  1  0  0  0  0
 39 86  1  0  0  0  0
 39 87  1  0  0  0  0
 40 45  1  0  0  0  0
 40 88  1  0  0  0  0
 40 89  1  0  0  0  0
 41 39  1  0  0  0  0
 41 90  1  0  0  0  0
 41 91  1  0  0  0  0
 42 40  1  0  0  0  0
 42 92  1  0  0  0  0
 42 93  1  0  0  0  0
 43 32  1  0  0  0  0
 43 44  2  0  0  0  0
 45 94  1  0  0  0  0
 45 95  1  0  0  0  0
 45 96  1  0  0  0  0
M  END
>  <DRUGBANK_ID>
DB14185

>  <SECONDARY_ACCESSION_NUMBERS>
DBSALT001351

>  <COMMON_NAME>
Aripiprazole lauroxil

>  <CAS_NUMBER>
1259305-29-7

>  <UNII>
B786J7A343

>  <SYNONYMS>
Aripiprazole lauroxil

$$$$
