
 OpenBabel10282417072D

 36 36  0  0  0  0  0  0  0  0999 V2000
   -0.6940    0.4437    0.0000 C   0  0  0  0  0  0  0  0  0  0  0  0
    0.0168    0.8475    0.0000 C   0  0  0  0  0  0  0  0  0  0  0  0
   -1.4133    0.8475    0.0000 C   0  0  0  0  0  0  0  0  0  0  0  0
    0.0168    1.6973    0.0000 O   0  0  0  0  0  0  0  0  0  0  0  0
   -2.1579    0.4227    0.0000 C   0  0  0  0  0  0  0  0  0  0  0  0
   -3.5965   -0.4227    0.0000 C   0  0  0  0  0  0  0  0  0  0  0  0
    0.7445    0.4437    0.0000 O   0  0  0  0  0  0  0  0  0  0  0  0
   -2.1579   -0.4227    0.0000 C   0  0  0  0  0  0  0  0  0  0  0  0
   -2.8772    0.8265    0.0000 C   0  0  0  0  0  0  0  0  0  0  0  0
   -3.5965    0.4227    0.0000 C   0  0  0  0  0  0  0  0  0  0  0  0
   -2.8772   -0.8308    0.0000 C   0  0  0  0  0  0  0  0  0  0  0  0
   -4.3411   -0.8518    0.0000 O   0  0  0  0  0  0  0  0  0  0  0  0
    2.9024    0.8475    0.0000 O   0  0  0  0  0  0  0  0  0  0  0  0
    1.4638    0.8475    0.0000 C   0  0  0  0  0  0  0  0  0  0  0  0
    2.1831    0.4437    0.0000 C   0  0  0  0  0  0  0  0  0  0  0  0
    3.6217    0.4437    0.0000 C   0  0  0  0  0  0  0  0  0  0  0  0
   -4.3411   -1.6973    0.0000 C   0  0  0  0  0  0  0  0  0  0  0  0
    4.3411    0.8475    0.0000 C   0  0  0  0  0  0  0  0  0  0  0  0
   -0.6914   -0.5883    0.0000 H   0  0  0  0  0  0  0  0  0  0  0  0
   -1.4169    1.8795    0.0000 H   0  0  0  0  0  0  0  0  0  0  0  0
   -1.2661   -0.9421    0.0000 H   0  0  0  0  0  0  0  0  0  0  0  0
   -2.8772    1.8585    0.0000 H   0  0  0  0  0  0  0  0  0  0  0  0
   -4.4871    0.9441    0.0000 H   0  0  0  0  0  0  0  0  0  0  0  0
   -2.8772   -1.8628    0.0000 H   0  0  0  0  0  0  0  0  0  0  0  0
    1.4638    1.9175    0.0000 H   0  0  0  0  0  0  0  0  0  0  0  0
    2.3872    1.3881    0.0000 H   0  0  0  0  0  0  0  0  0  0  0  0
    2.1831   -0.6263    0.0000 H   0  0  0  0  0  0  0  0  0  0  0  0
    1.2597   -0.0969    0.0000 H   0  0  0  0  0  0  0  0  0  0  0  0
    3.6217   -0.6263    0.0000 H   0  0  0  0  0  0  0  0  0  0  0  0
    4.5451   -0.0969    0.0000 H   0  0  0  0  0  0  0  0  0  0  0  0
   -5.2677   -2.2323    0.0000 H   0  0  0  0  0  0  0  0  0  0  0  0
   -3.4145   -2.2323    0.0000 H   0  0  0  0  0  0  0  0  0  0  0  0
   -4.3411   -2.7673    0.0000 H   0  0  0  0  0  0  0  0  0  0  0  0
    5.2612    0.3013    0.0000 H   0  0  0  0  0  0  0  0  0  0  0  0
    4.3541    1.9174    0.0000 H   0  0  0  0  0  0  0  0  0  0  0  0
    5.2742    1.3712    0.0000 H   0  0  0  0  0  0  0  0  0  0  0  0
  1 19  1  0  0  0  0
  2  1  1  0  0  0  0
  3  1  2  0  0  0  0
  3 20  1  0  0  0  0
  4  2  2  0  0  0  0
  5  3  1  0  0  0  0
  6 10  2  0  0  0  0
  7  2  1  0  0  0  0
  8  5  1  0  0  0  0
  8 21  1  0  0  0  0
  9  5  2  0  0  0  0
  9 22  1  0  0  0  0
 10  9  1  0  0  0  0
 10 23  1  0  0  0  0
 11  8  2  0  0  0  0
 11  6  1  0  0  0  0
 11 24  1  0  0  0  0
 12  6  1  0  0  0  0
 13 15  1  0  0  0  0
 14  7  1  0  0  0  0
 14 25  1  0  0  0  0
 14 26  1  0  0  0  0
 15 14  1  0  0  0  0
 15 27  1  0  0  0  0
 15 28  1  0  0  0  0
 16 13  1  0  0  0  0
 16 29  1  0  0  0  0
 16 30  1  0  0  0  0
 17 12  1  0  0  0  0
 17 31  1  0  0  0  0
 17 32  1  0  0  0  0
 17 33  1  0  0  0  0
 18 16  1  0  0  0  0
 18 34  1  0  0  0  0
 18 35  1  0  0  0  0
 18 36  1  0  0  0  0
M  END
>  <DRUGBANK_ID>
DB15467

>  <COMMON_NAME>
Cinoxate

>  <CAS_NUMBER>
104-28-9

>  <UNII>
5437O7N5BH

>  <SYNONYMS>
2-Ethoxyethyl-p-methoxycinnamate; Cinoxate; Cinoxato; Cinoxatum

$$$$
