
 OpenBabel10282417072D

 57 60  0  0  0  0  0  0  0  0999 V2000
   -3.7506    3.3401    0.0000 C   0  0  0  0  0  0  0  0  0  0  0  0
    0.8767   -3.3401    0.0000 C   0  0  0  0  0  0  0  0  0  0  0  0
   -4.4942    0.4057    0.0000 C   0  0  0  0  0  0  0  0  0  0  0  0
    0.5780   -0.4979    0.0000 C   0  0  0  0  0  0  0  0  0  0  0  0
   -0.2424   -0.5841    0.0000 C   0  0  0  0  0  0  0  0  0  0  0  0
   -1.5478   -0.0029    0.0000 C   0  0  0  0  0  0  0  0  0  0  0  0
    2.5177   -3.1677    0.0000 C   0  0  0  0  0  0  0  0  0  0  0  0
    2.3683   -1.7466    0.0000 C   0  0  0  0  0  0  0  0  0  0  0  0
    3.3381   -3.0814    0.0000 C   0  0  0  0  0  0  0  0  0  0  0  0
    3.1888   -1.6603    0.0000 C   0  0  0  0  0  0  0  0  0  0  0  0
   -2.0327    0.6644    0.0000 C   0  0  0  0  0  0  0  0  0  0  0  0
    1.0629   -1.1654    0.0000 C   0  0  0  0  0  0  0  0  0  0  0  0
   -1.3984   -1.4241    0.0000 C   0  0  0  0  0  0  0  0  0  0  0  0
   -2.7039   -0.8429    0.0000 C   0  0  0  0  0  0  0  0  0  0  0  0
   -3.0832    2.0302    0.0000 C   0  0  0  0  0  0  0  0  0  0  0  0
   -4.1631    1.2456    0.0000 C   0  0  0  0  0  0  0  0  0  0  0  0
   -3.7506    2.5151    0.0000 C   0  0  0  0  0  0  0  0  0  0  0  0
    1.2123   -2.5865    0.0000 C   0  0  1  0  0  0  0  0  0  0  0  0
   -1.8834   -0.7566    0.0000 C   0  0  0  0  0  0  0  0  0  0  0  0
    2.0327   -2.5002    0.0000 C   0  0  0  0  0  0  0  0  0  0  0  0
   -0.5780   -1.3378    0.0000 C   0  0  0  0  0  0  0  0  0  0  0  0
    3.6737   -2.3278    0.0000 C   0  0  0  0  0  0  0  0  0  0  0  0
   -2.8532    0.5782    0.0000 C   0  0  0  0  0  0  0  0  0  0  0  0
   -3.1888   -0.1754    0.0000 C   0  0  0  0  0  0  0  0  0  0  0  0
   -0.0930   -2.0053    0.0000 C   0  0  0  0  0  0  0  0  0  0  0  0
    4.4942   -2.2415    0.0000 F   0  0  0  0  0  0  0  0  0  0  0  0
   -4.4181    2.0302    0.0000 N   0  0  0  0  0  0  0  0  0  0  0  0
   -3.3381    1.2456    0.0000 N   0  0  0  0  0  0  0  0  0  0  0  0
    0.7273   -1.9190    0.0000 N   0  0  0  0  0  0  0  0  0  0  0  0
   -0.4286   -2.7589    0.0000 O   0  0  0  0  0  0  0  0  0  0  0  0
   -4.0093   -0.2617    0.0000 O   0  0  0  0  0  0  0  0  0  0  0  0
   -1.7340   -2.1777    0.0000 H   0  0  0  0  0  0  0  0  0  0  0  0
    1.6972   -3.2539    0.0000 H   0  0  0  0  0  0  0  0  0  0  0  0
   -2.8240    3.8751    0.0000 H   0  0  0  0  0  0  0  0  0  0  0  0
   -4.6772    3.8751    0.0000 H   0  0  0  0  0  0  0  0  0  0  0  0
   -3.7506    4.4101    0.0000 H   0  0  0  0  0  0  0  0  0  0  0  0
   -0.1874   -3.4519    0.0000 H   0  0  0  0  0  0  0  0  0  0  0  0
    1.5056   -4.2058    0.0000 H   0  0  0  0  0  0  0  0  0  0  0  0
    0.4414   -4.3176    0.0000 H   0  0  0  0  0  0  0  0  0  0  0  0
   -4.0590    1.3832    0.0000 H   0  0  0  0  0  0  0  0  0  0  0  0
   -5.5583    0.2938    0.0000 H   0  0  0  0  0  0  0  0  0  0  0  0
   -5.1231    1.2713    0.0000 H   0  0  0  0  0  0  0  0  0  0  0  0
    1.0133    0.4796    0.0000 H   0  0  0  0  0  0  0  0  0  0  0  0
    1.6421   -0.3861    0.0000 H   0  0  0  0  0  0  0  0  0  0  0  0
   -0.8713    0.2816    0.0000 H   0  0  0  0  0  0  0  0  0  0  0  0
   -1.3065   -0.6959    0.0000 H   0  0  0  0  0  0  0  0  0  0  0  0
   -0.5215    0.1050    0.0000 H   0  0  0  0  0  0  0  0  0  0  0  0
    2.0980   -4.1105    0.0000 H   0  0  0  0  0  0  0  0  0  0  0  0
    1.7617   -0.9117    0.0000 H   0  0  0  0  0  0  0  0  0  0  0  0
    3.9447   -3.9163    0.0000 H   0  0  0  0  0  0  0  0  0  0  0  0
    3.6085   -0.7175    0.0000 H   0  0  0  0  0  0  0  0  0  0  0  0
   -1.6130    1.6072    0.0000 H   0  0  0  0  0  0  0  0  0  0  0  0
    2.1270   -1.0536    0.0000 H   0  0  0  0  0  0  0  0  0  0  0  0
    1.6918   -2.0311    0.0000 H   0  0  0  0  0  0  0  0  0  0  0  0
   -3.1236   -1.7857    0.0000 H   0  0  0  0  0  0  0  0  0  0  0  0
   -2.1017    2.3491    0.0000 H   0  0  0  0  0  0  0  0  0  0  0  0
   -4.7697    0.4107    0.0000 H   0  0  0  0  0  0  0  0  0  0  0  0
  1 34  1  0  0  0  0
  1 35  1  0  0  0  0
  1 36  1  0  0  0  0
  2 37  1  0  0  0  0
  2 38  1  0  0  0  0
  2 39  1  0  0  0  0
  3 40  1  0  0  0  0
  3 41  1  0  0  0  0
  3 42  1  0  0  0  0
  4 43  1  0  0  0  0
  4 44  1  0  0  0  0
  5  4  1  0  0  0  0
  5 45  1  0  0  0  0
  5 46  1  0  0  0  0
  6 47  1  0  0  0  0
  7 48  1  0  0  0  0
  8 49  1  0  0  0  0
  9  7  1  0  0  0  0
  9 50  1  0  0  0  0
 10  8  2  0  0  0  0
 10 51  1  0  0  0  0
 11  6  2  0  0  0  0
 11 52  1  0  0  0  0
 12  4  1  0  0  0  0
 12 53  1  0  0  0  0
 12 54  1  0  0  0  0
 14 55  1  0  0  0  0
 15 56  1  0  0  0  0
 16 57  1  0  0  0  0
 17  1  1  0  0  0  0
 17 15  2  0  0  0  0
 18  2  1  0  0  0  0
 18 33  1  1  0  0  0
 19  6  1  0  0  0  0
 19 13  1  0  0  0  0
 19 14  2  0  0  0  0
 20  7  2  0  0  0  0
 20  8  1  0  0  0  0
 20 18  1  0  0  0  0
 21  5  1  0  0  0  0
 21 13  2  0  0  0  0
 22  9  2  0  0  0  0
 22 10  1  0  0  0  0
 23 11  1  0  0  0  0
 24 14  1  0  0  0  0
 24 23  2  0  0  0  0
 25 21  1  0  0  0  0
 26 22  1  0  0  0  0
 27 16  2  0  0  0  0
 27 17  1  0  0  0  0
 28 15  1  0  0  0  0
 28 16  1  0  0  0  0
 28 23  1  0  0  0  0
 29 12  1  0  0  0  0
 29 18  1  0  0  0  0
 29 25  1  0  0  0  0
 30 25  2  0  0  0  0
 31  3  1  0  0  0  0
 31 24  1  0  0  0  0
 32 13  1  0  0  0  0
M  END
>  <DRUGBANK_ID>
DB05171

>  <COMMON_NAME>
E-2012

>  <CAS_NUMBER>
870843-42-8

>  <UNII>
3LSD4Y5F0F

$$$$
