
 OpenBabel10282417072D

 39 36  0  0  0  0  0  0  0  0999 V2000
    0.6674    0.2169    0.0000 C   0  0  0  0  0  0  0  0  0  0  0  0
   -0.0000    0.7018    0.0000 C   0  0  0  0  0  0  0  0  0  0  0  0
   -0.4125   -0.5678    0.0000 C   0  0  0  0  0  0  0  0  0  0  0  0
    0.4125   -0.5678    0.0000 N   0  0  0  0  0  0  0  0  0  0  0  0
   -0.6674    0.2169    0.0000 N   0  5  0  0  0  0  0  0  0  0  0  0
    4.1237    0.2169    0.0000 C   0  0  0  0  0  0  0  0  0  0  0  0
    3.4563    0.7018    0.0000 C   0  0  0  0  0  0  0  0  0  0  0  0
    3.0438   -0.5678    0.0000 C   0  0  0  0  0  0  0  0  0  0  0  0
    3.8688   -0.5678    0.0000 N   0  0  0  0  0  0  0  0  0  0  0  0
    2.7889    0.2169    0.0000 N   0  5  0  0  0  0  0  0  0  0  0  0
    7.5801    0.2169    0.0000 C   0  0  0  0  0  0  0  0  0  0  0  0
    6.9126    0.7018    0.0000 C   0  0  0  0  0  0  0  0  0  0  0  0
    6.5001   -0.5678    0.0000 C   0  0  0  0  0  0  0  0  0  0  0  0
    7.3251   -0.5678    0.0000 N   0  0  0  0  0  0  0  0  0  0  0  0
    6.2452    0.2169    0.0000 N   0  5  0  0  0  0  0  0  0  0  0  0
    0.6674   -2.7027    0.0000 C   0  0  0  0  0  0  0  0  0  0  0  0
   -0.0000   -2.2178    0.0000 C   0  0  0  0  0  0  0  0  0  0  0  0
   -0.4125   -3.4873    0.0000 C   0  0  0  0  0  0  0  0  0  0  0  0
    0.4125   -3.4873    0.0000 N   0  0  0  0  0  0  0  0  0  0  0  0
   -0.6674   -2.7027    0.0000 N   0  5  0  0  0  0  0  0  0  0  0  0
    3.0246   -2.9195    0.0000 Cu  0  0  0  0  0  0  0  0  0  0  0  0
    5.2639   -2.9195    0.0000 O   0  0  0  0  0  0  0  0  0  0  0  0
    0.0000   -5.1373    0.0000 O   0  0  0  0  0  0  0  0  0  0  0  0
    1.6489    0.5358    0.0000 H   0  0  0  0  0  0  0  0  0  0  0  0
    0.0000    1.7338    0.0000 H   0  0  0  0  0  0  0  0  0  0  0  0
   -1.0191   -1.4027    0.0000 H   0  0  0  0  0  0  0  0  0  0  0  0
    5.1052    0.5358    0.0000 H   0  0  0  0  0  0  0  0  0  0  0  0
    3.4563    1.7338    0.0000 H   0  0  0  0  0  0  0  0  0  0  0  0
    2.4372   -1.4027    0.0000 H   0  0  0  0  0  0  0  0  0  0  0  0
    8.5616    0.5358    0.0000 H   0  0  0  0  0  0  0  0  0  0  0  0
    6.9126    1.7338    0.0000 H   0  0  0  0  0  0  0  0  0  0  0  0
    5.8935   -1.4027    0.0000 H   0  0  0  0  0  0  0  0  0  0  0  0
    1.6489   -2.3838    0.0000 H   0  0  0  0  0  0  0  0  0  0  0  0
    0.0000   -1.1858    0.0000 H   0  0  0  0  0  0  0  0  0  0  0  0
   -1.0191   -4.3222    0.0000 H   0  0  0  0  0  0  0  0  0  0  0  0
    6.2339   -2.9195    0.0000 H   0  0  0  0  0  0  0  0  0  0  0  0
    4.7789   -2.0795    0.0000 H   0  0  0  0  0  0  0  0  0  0  0  0
    0.9700   -5.1373    0.0000 H   0  0  0  0  0  0  0  0  0  0  0  0
   -0.4850   -4.2973    0.0000 H   0  0  0  0  0  0  0  0  0  0  0  0
  1 24  1  0  0  0  0
  2  1  2  0  0  0  0
  2 25  1  0  0  0  0
  3 26  1  0  0  0  0
  4  1  1  0  0  0  0
  4  3  2  0  0  0  0
  5  2  1  0  0  0  0
  5  3  1  0  0  0  0
  6 27  1  0  0  0  0
  7  6  2  0  0  0  0
  7 28  1  0  0  0  0
  8 29  1  0  0  0  0
  9  6  1  0  0  0  0
  9  8  2  0  0  0  0
 10  7  1  0  0  0  0
 10  8  1  0  0  0  0
 11 30  1  0  0  0  0
 12 11  2  0  0  0  0
 12 31  1  0  0  0  0
 13 32  1  0  0  0  0
 14 11  1  0  0  0  0
 14 13  2  0  0  0  0
 15 12  1  0  0  0  0
 15 13  1  0  0  0  0
 16 33  1  0  0  0  0
 17 16  2  0  0  0  0
 17 34  1  0  0  0  0
 18 35  1  0  0  0  0
 19 16  1  0  0  0  0
 19 18  2  0  0  0  0
 20 17  1  0  0  0  0
 20 18  1  0  0  0  0
 22 36  1  0  0  0  0
 22 37  1  0  0  0  0
 23 38  1  0  0  0  0
 23 39  1  0  0  0  0
M  CHG  5   5  -1  10  -1  15  -1  20  -1  21   4
M  END
>  <DRUGBANK_ID>
DB03840

>  <SECONDARY_ACCESSION_NUMBERS>
EXPT01866

>  <COMMON_NAME>
Tetra(Imidazole)Diaquacopper (Ii)

$$$$
