
 OpenBabel10282417072D

 64 68  0  0  0  0  0  0  0  0999 V2000
    0.8772   -0.3633    0.0000 C   0  0  2  0  0  0  0  0  0  0  0  0
    0.8772   -1.1884    0.0000 N   0  0  0  0  0  0  0  0  0  0  0  0
    1.5787   -1.6011    0.0000 C   0  0  0  0  0  0  0  0  0  0  0  0
    2.2800   -1.1884    0.0000 C   0  0  0  0  0  0  0  0  0  0  0  0
    2.2800   -0.3633    0.0000 C   0  0  0  0  0  0  0  0  0  0  0  0
    1.5787    0.0492    0.0000 S   0  0  0  0  0  0  0  0  0  0  0  0
    0.0519   -0.3633    0.0000 C   0  0  1  0  0  0  0  0  0  0  0  0
    0.0519   -1.1884    0.0000 C   0  0  0  0  0  0  0  0  0  0  0  0
   -0.6906    0.0492    0.0000 N   0  0  0  0  0  0  0  0  0  0  0  0
   -1.3921   -0.3633    0.0000 C   0  0  0  0  0  0  0  0  0  0  0  0
   -1.3921   -1.1884    0.0000 O   0  0  0  0  0  0  0  0  0  0  0  0
   -0.6906   -1.6011    0.0000 O   0  0  0  0  0  0  0  0  0  0  0  0
   -2.0935    0.0492    0.0000 C   0  0  0  0  0  0  0  0  0  0  0  0
    3.0227   -1.6011    0.0000 S   0  0  0  0  0  0  0  0  0  0  0  0
   -2.8362   -0.3633    0.0000 C   0  0  0  0  0  0  0  0  0  0  0  0
    0.8772    0.4619    0.0000 H   0  0  0  0  0  0  0  0  0  0  0  0
   -3.4551    0.1318    0.0000 N   0  0  0  0  0  0  0  0  0  0  0  0
   -4.1565   -0.3220    0.0000 S   0  0  0  0  0  0  0  0  0  0  0  0
   -3.9089   -1.1472    0.0000 C   0  0  0  0  0  0  0  0  0  0  0  0
   -3.0838   -1.1472    0.0000 N   0  0  0  0  0  0  0  0  0  0  0  0
   -2.0935    0.8745    0.0000 N   0  0  0  0  0  0  0  0  0  0  0  0
    1.5787   -2.4263    0.0000 C   0  0  0  0  0  0  0  0  0  0  0  0
    2.2800   -2.8389    0.0000 O   0  5  0  0  0  0  0  0  0  0  0  0
    0.8359   -2.8389    0.0000 O   0  0  0  0  0  0  0  0  0  0  0  0
   -4.4042   -1.8073    0.0000 N   0  0  0  0  0  0  0  0  0  0  0  0
   -1.3921    1.2871    0.0000 O   0  0  0  0  0  0  0  0  0  0  0  0
   -0.6741    0.8803    0.0000 C   0  0  0  0  0  0  0  0  0  0  0  0
    0.0222    1.2900    0.0000 C   0  0  0  0  0  0  0  0  0  0  0  0
   -5.2293   -1.8073    0.0000 P   0  0  0  0  0  0  0  0  0  0  0  0
   -6.0546   -1.8073    0.0000 O   0  0  0  0  0  0  0  0  0  0  0  0
   -5.2293   -0.9821    0.0000 O   0  0  0  0  0  0  0  0  0  0  0  0
   -5.2293   -2.6325    0.0000 O   0  0  0  0  0  0  0  0  0  0  0  0
    3.7276   -1.1785    0.0000 C   0  0  0  0  0  0  0  0  0  0  0  0
    4.4811   -1.4993    0.0000 S   0  0  0  0  0  0  0  0  0  0  0  0
    5.0190   -0.8817    0.0000 C   0  0  0  0  0  0  0  0  0  0  0  0
    4.5979   -0.1794    0.0000 C   0  0  0  0  0  0  0  0  0  0  0  0
    3.7998   -0.3629    0.0000 N   0  0  0  0  0  0  0  0  0  0  0  0
    4.9132    0.5614    0.0000 C   0  0  0  0  0  0  0  0  0  0  0  0
    5.7315    0.6611    0.0000 C   0  0  0  0  0  0  0  0  0  0  0  0
    6.0546    1.4203    0.0000 C   0  0  0  0  0  0  0  0  0  0  0  0
    5.5586    2.0795    0.0000 N   0  3  0  0  0  0  0  0  0  0  0  0
    4.7403    1.9798    0.0000 C   0  0  0  0  0  0  0  0  0  0  0  0
    4.4174    1.2207    0.0000 C   0  0  0  0  0  0  0  0  0  0  0  0
    5.8817    2.8389    0.0000 C   0  0  0  0  0  0  0  0  0  0  0  0
    3.2088    0.1679    0.0000 H   0  0  0  0  0  0  0  0  0  0  0  0
    2.2865    0.7067    0.0000 H   0  0  0  0  0  0  0  0  0  0  0  0
    0.3203    0.6725    0.0000 H   0  0  0  0  0  0  0  0  0  0  0  0
   -0.7026    1.0336    0.0000 H   0  0  0  0  0  0  0  0  0  0  0  0
   -3.9640   -2.6879    0.0000 H   0  0  0  0  0  0  0  0  0  0  0  0
   -0.6653   -0.1897    0.0000 H   0  0  0  0  0  0  0  0  0  0  0  0
    0.2569    0.3529    0.0000 H   0  0  0  0  0  0  0  0  0  0  0  0
    0.9532    0.7627    0.0000 H   0  0  0  0  0  0  0  0  0  0  0  0
    0.0134    2.3600    0.0000 H   0  0  0  0  0  0  0  0  0  0  0  0
    0.9444    1.8326    0.0000 H   0  0  0  0  0  0  0  0  0  0  0  0
   -6.5396   -0.9673    0.0000 H   0  0  0  0  0  0  0  0  0  0  0  0
   -4.3893   -0.4971    0.0000 H   0  0  0  0  0  0  0  0  0  0  0  0
    6.0470   -0.9726    0.0000 H   0  0  0  0  0  0  0  0  0  0  0  0
    6.3518   -0.1637    0.0000 H   0  0  0  0  0  0  0  0  0  0  0  0
    7.0790    1.5452    0.0000 H   0  0  0  0  0  0  0  0  0  0  0  0
    4.1199    2.8045    0.0000 H   0  0  0  0  0  0  0  0  0  0  0  0
    3.3930    1.0958    0.0000 H   0  0  0  0  0  0  0  0  0  0  0  0
    6.9438    2.9684    0.0000 H   0  0  0  0  0  0  0  0  0  0  0  0
    5.2385    3.6940    0.0000 H   0  0  0  0  0  0  0  0  0  0  0  0
    6.3006    3.8235    0.0000 H   0  0  0  0  0  0  0  0  0  0  0  0
  1  2  1  0  0  0  0
  1  6  1  0  0  0  0
  1  7  1  0  0  0  0
  1 16  1  6  0  0  0
  2  3  1  0  0  0  0
  2  8  1  0  0  0  0
  3  4  2  0  0  0  0
  3 22  1  0  0  0  0
  4  5  1  0  0  0  0
  4 14  1  0  0  0  0
  5  6  1  0  0  0  0
  5 45  1  0  0  0  0
  5 46  1  0  0  0  0
  7  8  1  0  0  0  0
  7  9  1  0  0  0  0
  7 47  1  6  0  0  0
  8 12  2  0  0  0  0
  9 10  1  0  0  0  0
  9 48  1  0  0  0  0
 10 11  2  0  0  0  0
 10 13  1  0  0  0  0
 13 15  1  0  0  0  0
 13 21  2  0  0  0  0
 14 33  1  0  0  0  0
 15 17  2  0  0  0  0
 15 20  1  0  0  0  0
 17 18  1  0  0  0  0
 18 19  1  0  0  0  0
 19 20  2  0  0  0  0
 19 25  1  0  0  0  0
 21 26  1  0  0  0  0
 22 23  1  0  0  0  0
 22 24  2  0  0  0  0
 25 29  1  0  0  0  0
 25 49  1  0  0  0  0
 26 27  1  0  0  0  0
 27 28  1  0  0  0  0
 27 50  1  0  0  0  0
 27 51  1  0  0  0  0
 28 52  1  0  0  0  0
 28 53  1  0  0  0  0
 28 54  1  0  0  0  0
 29 30  1  0  0  0  0
 29 31  1  0  0  0  0
 29 32  2  0  0  0  0
 30 55  1  0  0  0  0
 31 56  1  0  0  0  0
 33 34  1  0  0  0  0
 33 37  2  0  0  0  0
 34 35  1  0  0  0  0
 35 36  2  0  0  0  0
 35 57  1  0  0  0  0
 36 37  1  0  0  0  0
 36 38  1  0  0  0  0
 38 39  2  0  0  0  0
 38 43  1  0  0  0  0
 39 40  1  0  0  0  0
 39 58  1  0  0  0  0
 40 41  2  0  0  0  0
 40 59  1  0  0  0  0
 41 42  1  0  0  0  0
 41 44  1  0  0  0  0
 42 43  2  0  0  0  0
 42 60  1  0  0  0  0
 43 61  1  0  0  0  0
 44 62  1  0  0  0  0
 44 63  1  0  0  0  0
 44 64  1  0  0  0  0
M  CHG  2  23  -1  41   1
M  END
>  <DRUGBANK_ID>
DB06590

>  <COMMON_NAME>
Ceftaroline fosamil

>  <CAS_NUMBER>
229016-73-3

>  <UNII>
7P6FQA5D21

>  <SYNONYMS>
(6R,7R)-7-[(2Z)-2-ethoxyimino-2-[5-(phosphonoamino)-1,2,4-thiadiazol-3-yl]acetyl]amino]-3-[4-(1-methylpyridin-1-ium-4-yl)-1,3-thiazol-2-yl]sulfanyl]-8-oxo-5-thia-1-azabicyclo[4.2.0]oct-2-ene-2-carboxylate; Ceftarolina fosamilo; Ceftaroline; Ceftaroline fosamil; Ceftarolinum fosamilum

$$$$
