
 OpenBabel10282417072D

 56 58  0  0  0  0  0  0  0  0999 V2000
    0.7485    1.7700    0.0000 C   0  0  0  0  0  0  0  0  0  0  0  0
    0.4663    0.9947    0.0000 C   0  0  0  0  0  0  0  0  0  0  0  0
    0.9966    0.3627    0.0000 O   0  0  0  0  0  0  0  0  0  0  0  0
    0.7145   -0.4125    0.0000 C   0  0  0  0  0  0  0  0  0  0  0  0
   -0.0980   -0.5558    0.0000 O   0  0  0  0  0  0  0  0  0  0  0  0
    1.2448   -1.0445    0.0000 C   0  0  3  0  0  0  0  0  0  0  0  0
    1.9592   -1.4570    0.0000 C   0  0  0  0  0  0  0  0  0  0  0  0
    1.9592   -2.2820    0.0000 C   0  0  0  0  0  0  0  0  0  0  0  0
    1.2448   -2.6945    0.0000 N   0  0  0  0  0  0  0  0  0  0  0  0
    0.5303   -2.2820    0.0000 C   0  0  0  0  0  0  0  0  0  0  0  0
    0.5303   -1.4570    0.0000 C   0  0  0  0  0  0  0  0  0  0  0  0
    1.2448   -3.5195    0.0000 C   0  0  0  0  0  0  0  0  0  0  0  0
    0.5303   -3.9320    0.0000 C   0  0  0  0  0  0  0  0  0  0  0  0
    0.5303   -4.7570    0.0000 C   0  0  3  0  0  0  0  0  0  0  0  0
    1.2448   -5.1695    0.0000 C   0  0  0  0  0  0  0  0  0  0  0  0
    1.9592   -4.7570    0.0000 C   0  0  0  0  0  0  0  0  0  0  0  0
    2.6737   -5.1695    0.0000 C   0  0  0  0  0  0  0  0  0  0  0  0
    2.6737   -5.9945    0.0000 C   0  0  0  0  0  0  0  0  0  0  0  0
    1.9592   -6.4070    0.0000 C   0  0  0  0  0  0  0  0  0  0  0  0
    1.2448   -5.9945    0.0000 C   0  0  0  0  0  0  0  0  0  0  0  0
   -0.1842   -5.1695    0.0000 O   0  0  0  0  0  0  0  0  0  0  0  0
    1.7751   -0.4125    0.0000 C   0  0  0  0  0  0  0  0  0  0  0  0
    1.4929    0.3627    0.0000 C   0  0  0  0  0  0  0  0  0  0  0  0
    2.0232    0.9947    0.0000 C   0  0  0  0  0  0  0  0  0  0  0  0
    2.8357    0.8515    0.0000 C   0  0  0  0  0  0  0  0  0  0  0  0
    3.1178    0.0762    0.0000 C   0  0  0  0  0  0  0  0  0  0  0  0
    2.5875   -0.5558    0.0000 C   0  0  0  0  0  0  0  0  0  0  0  0
    1.8022    1.9558    0.0000 H   0  0  0  0  0  0  0  0  0  0  0  0
    0.0607    2.5897    0.0000 H   0  0  0  0  0  0  0  0  0  0  0  0
    1.1145    2.7755    0.0000 H   0  0  0  0  0  0  0  0  0  0  0  0
   -0.5874    0.8089    0.0000 H   0  0  0  0  0  0  0  0  0  0  0  0
    0.1003   -0.0108    0.0000 H   0  0  0  0  0  0  0  0  0  0  0  0
    2.8859   -0.9220    0.0000 H   0  0  0  0  0  0  0  0  0  0  0  0
    2.8858   -1.9920    0.0000 H   0  0  0  0  0  0  0  0  0  0  0  0
    2.8859   -2.8170    0.0000 H   0  0  0  0  0  0  0  0  0  0  0  0
    1.9592   -3.3520    0.0000 H   0  0  0  0  0  0  0  0  0  0  0  0
   -0.3963   -2.8170    0.0000 H   0  0  0  0  0  0  0  0  0  0  0  0
   -0.3963   -1.7470    0.0000 H   0  0  0  0  0  0  0  0  0  0  0  0
   -0.3963   -0.9220    0.0000 H   0  0  0  0  0  0  0  0  0  0  0  0
    0.5303   -0.3870    0.0000 H   0  0  0  0  0  0  0  0  0  0  0  0
    2.1714   -4.0545    0.0000 H   0  0  0  0  0  0  0  0  0  0  0  0
    1.2448   -4.5895    0.0000 H   0  0  0  0  0  0  0  0  0  0  0  0
   -0.3963   -3.3970    0.0000 H   0  0  0  0  0  0  0  0  0  0  0  0
   -0.3963   -4.4670    0.0000 H   0  0  0  0  0  0  0  0  0  0  0  0
    1.4569   -4.2220    0.0000 H   0  0  0  0  0  0  0  0  0  0  0  0
    1.9592   -3.7250    0.0000 H   0  0  0  0  0  0  0  0  0  0  0  0
    3.5674   -4.6535    0.0000 H   0  0  0  0  0  0  0  0  0  0  0  0
    3.5674   -6.5105    0.0000 H   0  0  0  0  0  0  0  0  0  0  0  0
    1.9592   -7.4390    0.0000 H   0  0  0  0  0  0  0  0  0  0  0  0
    0.3511   -6.5105    0.0000 H   0  0  0  0  0  0  0  0  0  0  0  0
   -1.0242   -4.6845    0.0000 H   0  0  0  0  0  0  0  0  0  0  0  0
    0.4766    0.5419    0.0000 H   0  0  0  0  0  0  0  0  0  0  0  0
    1.6702    1.9644    0.0000 H   0  0  0  0  0  0  0  0  0  0  0  0
    3.4991    1.6421    0.0000 H   0  0  0  0  0  0  0  0  0  0  0  0
    4.1341   -0.1030    0.0000 H   0  0  0  0  0  0  0  0  0  0  0  0
    2.9404   -1.5256    0.0000 H   0  0  0  0  0  0  0  0  0  0  0  0
  1  2  1  0  0  0  0
  1 28  1  0  0  0  0
  1 29  1  0  0  0  0
  1 30  1  0  0  0  0
  2  3  1  0  0  0  0
  2 31  1  0  0  0  0
  2 32  1  0  0  0  0
  3  4  1  0  0  0  0
  4  5  2  0  0  0  0
  4  6  1  0  0  0  0
  6  7  1  0  0  0  0
  6 11  1  0  0  0  0
  6 22  1  0  0  0  0
  7  8  1  0  0  0  0
  7 33  1  0  0  0  0
  7 34  1  0  0  0  0
  8  9  1  0  0  0  0
  8 35  1  0  0  0  0
  8 36  1  0  0  0  0
  9 10  1  0  0  0  0
  9 12  1  0  0  0  0
 10 11  1  0  0  0  0
 10 37  1  0  0  0  0
 10 38  1  0  0  0  0
 11 39  1  0  0  0  0
 11 40  1  0  0  0  0
 12 13  1  0  0  0  0
 12 41  1  0  0  0  0
 12 42  1  0  0  0  0
 13 14  1  0  0  0  0
 13 43  1  0  0  0  0
 13 44  1  0  0  0  0
 14 15  1  0  0  0  0
 14 21  1  0  0  0  0
 14 45  1  0  0  0  0
 15 16  2  0  0  0  0
 15 20  1  0  0  0  0
 16 17  1  0  0  0  0
 16 46  1  0  0  0  0
 17 18  2  0  0  0  0
 17 47  1  0  0  0  0
 18 19  1  0  0  0  0
 18 48  1  0  0  0  0
 19 20  2  0  0  0  0
 19 49  1  0  0  0  0
 20 50  1  0  0  0  0
 21 51  1  0  0  0  0
 22 23  2  0  0  0  0
 22 27  1  0  0  0  0
 23 24  1  0  0  0  0
 23 52  1  0  0  0  0
 24 25  2  0  0  0  0
 24 53  1  0  0  0  0
 25 26  1  0  0  0  0
 25 54  1  0  0  0  0
 26 27  2  0  0  0  0
 26 55  1  0  0  0  0
 27 56  1  0  0  0  0
M  END
>  <DRUGBANK_ID>
DB13605

>  <COMMON_NAME>
Phenoperidine

>  <CAS_NUMBER>
562-26-5

>  <UNII>
G9BH09J4JW

>  <SYNONYMS>
Phenoperidine

$$$$
