
 OpenBabel10282417072D

 49 52  0  0  0  0  0  0  0  0999 V2000
   -0.7071   -2.7664    0.0000 S   0  0  0  0  0  0  0  0  0  0  0  0
   -1.3746   -2.2816    0.0000 C   0  0  0  0  0  0  0  0  0  0  0  0
   -0.0398   -2.2816    0.0000 C   0  0  0  0  0  0  0  0  0  0  0  0
   -1.1197   -1.4968    0.0000 C   0  0  0  0  0  0  0  0  0  0  0  0
   -0.2946   -1.4969    0.0000 N   0  0  0  0  0  0  0  0  0  0  0  0
    2.7557   -1.6873    0.0000 C   0  0  0  0  0  0  0  0  0  0  0  0
    2.1427   -2.2394    0.0000 N   0  0  0  0  0  0  0  0  0  0  0  0
    2.5842   -0.8803    0.0000 C   0  0  0  0  0  0  0  0  0  0  0  0
    1.3579   -1.9844    0.0000 C   0  0  0  0  0  0  0  0  0  0  0  0
    1.7996   -0.6253    0.0000 C   0  0  0  0  0  0  0  0  0  0  0  0
    1.1864   -1.1774    0.0000 N   0  0  0  0  0  0  0  0  0  0  0  0
    0.7449   -2.5365    0.0000 N   0  0  0  0  0  0  0  0  0  0  0  0
   -1.5252   -0.7779    0.0000 C   0  0  0  0  0  0  0  0  0  0  0  0
   -1.5113    0.6509    0.0000 C   0  0  0  0  0  0  0  0  0  0  0  0
   -2.3363    0.6589    0.0000 C   0  0  0  0  0  0  0  0  0  0  0  0
   -1.1057   -0.0674    0.0000 C   0  0  0  0  0  0  0  0  0  0  0  0
   -2.7557   -0.0514    0.0000 C   0  0  0  0  0  0  0  0  0  0  0  0
   -2.3502   -0.7699    0.0000 C   0  0  0  0  0  0  0  0  0  0  0  0
   -0.2808   -0.0754    0.0000 O   0  0  0  0  0  0  0  0  0  0  0  0
    0.1386    0.6350    0.0000 C   0  0  0  0  0  0  0  0  0  0  0  0
    0.9774    2.0559    0.0000 C   0  0  0  0  0  0  0  0  0  0  0  0
    1.3829    1.3374    0.0000 C   0  0  0  0  0  0  0  0  0  0  0  0
    0.1524    2.0639    0.0000 C   0  0  0  0  0  0  0  0  0  0  0  0
    0.9636    0.6270    0.0000 C   0  0  0  0  0  0  0  0  0  0  0  0
   -0.2670    1.3534    0.0000 C   0  0  0  0  0  0  0  0  0  0  0  0
   -1.0919    1.3615    0.0000 C   0  0  0  0  0  0  0  0  0  0  0  0
    1.3968    2.7664    0.0000 C   0  0  0  0  0  0  0  0  0  0  0  0
   -2.3560   -2.6006    0.0000 H   0  0  0  0  0  0  0  0  0  0  0  0
    3.7733   -2.0179    0.0000 H   0  0  0  0  0  0  0  0  0  0  0  0
    3.5509   -0.9713    0.0000 H   0  0  0  0  0  0  0  0  0  0  0  0
    2.3475   -3.2024    0.0000 H   0  0  0  0  0  0  0  0  0  0  0  0
    3.3794   -0.1644    0.0000 H   0  0  0  0  0  0  0  0  0  0  0  0
    2.3618    0.1663    0.0000 H   0  0  0  0  0  0  0  0  0  0  0  0
    1.5772    0.4213    0.0000 H   0  0  0  0  0  0  0  0  0  0  0  0
    0.7820   -0.2946    0.0000 H   0  0  0  0  0  0  0  0  0  0  0  0
    0.2501   -0.8731    0.0000 H   0  0  0  0  0  0  0  0  0  0  0  0
   -0.9867    1.5396    0.0000 H   0  0  0  0  0  0  0  0  0  0  0  0
   -2.8436    1.5576    0.0000 H   0  0  0  0  0  0  0  0  0  0  0  0
   -3.7877   -0.0413    0.0000 H   0  0  0  0  0  0  0  0  0  0  0  0
   -2.8749   -1.6586    0.0000 H   0  0  0  0  0  0  0  0  0  0  0  0
    2.4149    1.3274    0.0000 H   0  0  0  0  0  0  0  0  0  0  0  0
   -0.3549    2.9626    0.0000 H   0  0  0  0  0  0  0  0  0  0  0  0
    1.4710   -0.2717    0.0000 H   0  0  0  0  0  0  0  0  0  0  0  0
   -1.6178    2.2934    0.0000 H   0  0  0  0  0  0  0  0  0  0  0  0
   -1.6360    0.4402    0.0000 H   0  0  0  0  0  0  0  0  0  0  0  0
   -2.1618    1.3720    0.0000 H   0  0  0  0  0  0  0  0  0  0  0  0
    2.4668    2.7561    0.0000 H   0  0  0  0  0  0  0  0  0  0  0  0
    0.8708    3.6982    0.0000 H   0  0  0  0  0  0  0  0  0  0  0  0
    1.9407    3.6878    0.0000 H   0  0  0  0  0  0  0  0  0  0  0  0
  2  1  1  0  0  0  0
  2 28  1  0  0  0  0
  3  1  1  0  0  0  0
  4  2  2  0  0  0  0
  4 13  1  0  0  0  0
  5  3  2  0  0  0  0
  5  4  1  0  0  0  0
  6 29  1  0  0  0  0
  6 30  1  0  0  0  0
  7  6  1  0  0  0  0
  7 31  1  0  0  0  0
  8  6  1  0  0  0  0
  8 32  1  0  0  0  0
  8 33  1  0  0  0  0
  9  7  1  0  0  0  0
  9 12  2  0  0  0  0
 10  8  1  0  0  0  0
 10 34  1  0  0  0  0
 10 35  1  0  0  0  0
 11  9  1  0  0  0  0
 11 10  1  0  0  0  0
 11 36  1  0  0  0  0
 12  3  1  0  0  0  0
 13 16  1  0  0  0  0
 14 37  1  0  0  0  0
 15 14  1  0  0  0  0
 15 38  1  0  0  0  0
 16 14  2  0  0  0  0
 16 19  1  0  0  0  0
 17 15  2  0  0  0  0
 17 39  1  0  0  0  0
 18 17  1  0  0  0  0
 18 13  2  0  0  0  0
 18 40  1  0  0  0  0
 19 20  1  0  0  0  0
 20 24  1  0  0  0  0
 20 25  2  0  0  0  0
 21 27  1  0  0  0  0
 22 21  1  0  0  0  0
 22 41  1  0  0  0  0
 23 21  2  0  0  0  0
 23 42  1  0  0  0  0
 24 22  2  0  0  0  0
 24 43  1  0  0  0  0
 25 23  1  0  0  0  0
 25 26  1  0  0  0  0
 26 44  1  0  0  0  0
 26 45  1  0  0  0  0
 26 46  1  0  0  0  0
 27 47  1  0  0  0  0
 27 48  1  0  0  0  0
 27 49  1  0  0  0  0
M  END
>  <DRUGBANK_ID>
DB06395

>  <COMMON_NAME>
Abafungin

>  <CAS_NUMBER>
129639-79-8

>  <UNII>
11DI31LWXF

>  <SYNONYMS>
Abafungin; Abafungina; Abafungine; Abafunginum

$$$$
