
 OpenBabel10282417072D

 43 45  0  0  0  0  0  0  0  0999 V2000
    4.6910    4.6811    0.0000 Cl  0  0  0  0  0  0  0  0  0  0  0  0
    2.3645   -0.5560    0.0000 N   0  0  0  0  0  0  0  0  0  0  0  0
    2.3645   -2.2060    0.0000 N   0  0  0  0  0  0  0  0  0  0  0  0
    3.7935    2.7441    0.0000 N   0  0  0  0  0  0  0  0  0  0  0  0
    1.6500   -3.4435    0.0000 N   0  0  0  0  0  0  0  0  0  0  0  0
    3.0791   -3.4435    0.0000 N   0  0  0  0  0  0  0  0  0  0  0  0
    3.1261    3.2290    0.0000 N   0  0  0  0  0  0  0  0  0  0  0  0
    3.0791   -0.9685    0.0000 C   0  0  0  0  0  0  0  0  0  0  0  0
    1.6500   -0.9685    0.0000 C   0  0  0  0  0  0  0  0  0  0  0  0
    2.3645    0.2690    0.0000 C   0  0  0  0  0  0  0  0  0  0  0  0
    3.0791   -1.7935    0.0000 C   0  0  0  0  0  0  0  0  0  0  0  0
    1.6500   -1.7935    0.0000 C   0  0  0  0  0  0  0  0  0  0  0  0
    3.0791    0.6815    0.0000 C   0  0  0  0  0  0  0  0  0  0  0  0
    3.0791    1.5066    0.0000 C   0  0  0  0  0  0  0  0  0  0  0  0
    3.7935    1.9191    0.0000 C   0  0  0  0  0  0  0  0  0  0  0  0
    2.3645   -3.0310    0.0000 C   0  0  0  0  0  0  0  0  0  0  0  0
    4.4610    3.2290    0.0000 C   0  0  0  0  0  0  0  0  0  0  0  0
    1.6500   -4.2686    0.0000 C   0  0  0  0  0  0  0  0  0  0  0  0
    3.0791   -4.2686    0.0000 C   0  0  0  0  0  0  0  0  0  0  0  0
    4.2060    4.0136    0.0000 C   0  0  0  0  0  0  0  0  0  0  0  0
    3.3810    4.0136    0.0000 C   0  0  0  0  0  0  0  0  0  0  0  0
    2.3645   -4.6811    0.0000 C   0  0  0  0  0  0  0  0  0  0  0  0
    4.0057   -0.4335    0.0000 H   0  0  0  0  0  0  0  0  0  0  0  0
    4.0058   -1.5035    0.0000 H   0  0  0  0  0  0  0  0  0  0  0  0
    0.7234   -0.4335    0.0000 H   0  0  0  0  0  0  0  0  0  0  0  0
    0.7234   -1.5035    0.0000 H   0  0  0  0  0  0  0  0  0  0  0  0
    1.4379    0.8040    0.0000 H   0  0  0  0  0  0  0  0  0  0  0  0
    2.3646    1.3390    0.0000 H   0  0  0  0  0  0  0  0  0  0  0  0
    4.0057   -2.3285    0.0000 H   0  0  0  0  0  0  0  0  0  0  0  0
    4.0058   -1.2585    0.0000 H   0  0  0  0  0  0  0  0  0  0  0  0
    0.7234   -2.3285    0.0000 H   0  0  0  0  0  0  0  0  0  0  0  0
    0.7234   -1.2585    0.0000 H   0  0  0  0  0  0  0  0  0  0  0  0
    4.0057    0.1465    0.0000 H   0  0  0  0  0  0  0  0  0  0  0  0
    4.0058    1.2165    0.0000 H   0  0  0  0  0  0  0  0  0  0  0  0
    2.1524    2.0416    0.0000 H   0  0  0  0  0  0  0  0  0  0  0  0
    3.0791    2.5766    0.0000 H   0  0  0  0  0  0  0  0  0  0  0  0
    4.7202    1.3841    0.0000 H   0  0  0  0  0  0  0  0  0  0  0  0
    3.7935    0.8491    0.0000 H   0  0  0  0  0  0  0  0  0  0  0  0
    5.4425    2.9101    0.0000 H   0  0  0  0  0  0  0  0  0  0  0  0
    0.7563   -4.7846    0.0000 H   0  0  0  0  0  0  0  0  0  0  0  0
    3.9728   -4.7846    0.0000 H   0  0  0  0  0  0  0  0  0  0  0  0
    2.7744    4.8485    0.0000 H   0  0  0  0  0  0  0  0  0  0  0  0
    2.3645   -5.7131    0.0000 H   0  0  0  0  0  0  0  0  0  0  0  0
  1 20  1  0  0  0  0
  2  8  1  0  0  0  0
  2  9  1  0  0  0  0
  2 10  1  0  0  0  0
  3 11  1  0  0  0  0
  3 12  1  0  0  0  0
  3 16  1  0  0  0  0
  4  7  1  0  0  0  0
  4 15  1  0  0  0  0
  4 17  1  0  0  0  0
  5 16  1  0  0  0  0
  5 18  2  0  0  0  0
  6 16  2  0  0  0  0
  6 19  1  0  0  0  0
  7 21  2  0  0  0  0
  8 11  1  0  0  0  0
  8 23  1  0  0  0  0
  8 24  1  0  0  0  0
  9 12  1  0  0  0  0
  9 25  1  0  0  0  0
  9 26  1  0  0  0  0
 10 13  1  0  0  0  0
 10 27  1  0  0  0  0
 10 28  1  0  0  0  0
 11 29  1  0  0  0  0
 11 30  1  0  0  0  0
 12 31  1  0  0  0  0
 12 32  1  0  0  0  0
 13 14  1  0  0  0  0
 13 33  1  0  0  0  0
 13 34  1  0  0  0  0
 14 15  1  0  0  0  0
 14 35  1  0  0  0  0
 14 36  1  0  0  0  0
 15 37  1  0  0  0  0
 15 38  1  0  0  0  0
 17 20  2  0  0  0  0
 17 39  1  0  0  0  0
 18 22  1  0  0  0  0
 18 40  1  0  0  0  0
 19 22  2  0  0  0  0
 19 41  1  0  0  0  0
 20 21  1  0  0  0  0
 21 42  1  0  0  0  0
 22 43  1  0  0  0  0
M  END
>  <DRUGBANK_ID>
DB04970

>  <COMMON_NAME>
Lesopitron

>  <CAS_NUMBER>
132449-46-8

>  <UNII>
H1CGM4755H

>  <SYNONYMS>
2-(4-(4-(4-Chloropyrazol-1-yl)butyl)-1-piperazinyl)pyrimidine; Lesopitron

$$$$
