1434
 OpenBabel10282417072D

 44 47  0  0  1  0  0  0  0  0999 V2000
   14.7660   -9.2663    0.0000 C   0  0  2  0  0  0  0  0  0  0  0  0
   15.4807   -8.8579    0.0000 C   0  0  0  0  0  0  0  0  0  0  0  0
   14.7590  -10.0936    0.0000 C   0  0  2  0  0  0  0  0  0  0  0  0
   14.0583   -8.8543    0.0000 C   0  0  0  0  0  0  0  0  0  0  0  0
   14.7625   -8.4426    0.0000 C   0  0  0  0  0  0  0  0  0  0  0  0
   16.1954   -9.2734    0.0000 C   0  0  0  0  0  0  0  0  0  0  0  0
   14.0443  -10.5020    0.0000 C   0  0  1  0  0  0  0  0  0  0  0  0
   16.1884  -10.1006    0.0000 C   0  0  0  0  0  0  0  0  0  0  0  0
   13.3402   -9.2593    0.0000 C   0  0  0  0  0  0  0  0  0  0  0  0
   13.3331  -10.0831    0.0000 C   0  0  2  0  0  0  0  0  0  0  0  0
   14.0443  -11.3295    0.0000 C   0  0  0  0  0  0  0  0  0  0  0  0
   12.6183  -10.4915    0.0000 C   0  0  2  0  0  0  0  0  0  0  0  0
   13.3260  -11.7380    0.0000 C   0  0  0  0  0  0  0  0  0  0  0  0
   12.6149  -11.3224    0.0000 C   0  0  0  0  0  0  0  0  0  0  0  0
   11.9072  -10.0795    0.0000 C   0  0  0  0  0  0  0  0  0  0  0  0
   11.9072  -11.7344    0.0000 C   0  0  0  0  0  0  0  0  0  0  0  0
   11.1924  -10.4915    0.0000 C   0  0  0  0  0  0  0  0  0  0  0  0
   11.1924  -11.3224    0.0000 C   0  0  0  0  0  0  0  0  0  0  0  0
   10.4743  -11.7309    0.0000 O   0  0  0  0  0  0  0  0  0  0  0  0
   14.7520  -10.9140    0.0000 H   0  0  0  0  0  0  0  0  0  0  0  0
   14.0372   -9.6712    0.0000 H   0  0  0  0  0  0  0  0  0  0  0  0
   13.3260  -10.9070    0.0000 H   0  0  0  0  0  0  0  0  0  0  0  0
   12.6112   -9.6677    0.0000 H   0  0  0  0  0  0  0  0  0  0  0  0
   15.4837   -8.0024    0.0000 O   0  0  0  0  0  0  0  0  0  0  0  0
   14.0656   -7.7843    0.0000 H   0  0  0  0  0  0  0  0  0  0  0  0
   13.1362   -8.3115    0.0000 H   0  0  0  0  0  0  0  0  0  0  0  0
   15.6869   -7.9037    0.0000 H   0  0  0  0  0  0  0  0  0  0  0  0
   13.8336   -7.9115    0.0000 H   0  0  0  0  0  0  0  0  0  0  0  0
   14.7580   -7.3726    0.0000 H   0  0  0  0  0  0  0  0  0  0  0  0
   17.1251   -8.7437    0.0000 H   0  0  0  0  0  0  0  0  0  0  0  0
   17.1182   -9.8150    0.0000 H   0  0  0  0  0  0  0  0  0  0  0  0
   16.9399  -10.8622    0.0000 H   0  0  0  0  0  0  0  0  0  0  0  0
   17.1800   -9.6986    0.0000 H   0  0  0  0  0  0  0  0  0  0  0  0
   12.4186   -8.7157    0.0000 H   0  0  0  0  0  0  0  0  0  0  0  0
   12.4088   -9.7860    0.0000 H   0  0  0  0  0  0  0  0  0  0  0  0
   14.9692  -11.8675    0.0000 H   0  0  0  0  0  0  0  0  0  0  0  0
   14.0391  -12.3995    0.0000 H   0  0  0  0  0  0  0  0  0  0  0  0
   13.3197  -12.8080    0.0000 H   0  0  0  0  0  0  0  0  0  0  0  0
   12.3964  -12.2678    0.0000 H   0  0  0  0  0  0  0  0  0  0  0  0
   11.9084   -9.0095    0.0000 H   0  0  0  0  0  0  0  0  0  0  0  0
   10.9810   -9.5436    0.0000 H   0  0  0  0  0  0  0  0  0  0  0  0
   11.9094  -12.7664    0.0000 H   0  0  0  0  0  0  0  0  0  0  0  0
   10.2659   -9.9562    0.0000 H   0  0  0  0  0  0  0  0  0  0  0  0
   10.2657  -11.0263    0.0000 H   0  0  0  0  0  0  0  0  0  0  0  0
  1  2  1  0  0  0  0
  1  3  1  0  0  0  0
  1  4  1  0  0  0  0
  1  5  1  1  0  0  0
  2  6  1  0  0  0  0
  2 24  2  0  0  0  0
  3  7  1  0  0  0  0
  3  8  1  0  0  0  0
  3 20  1  6  0  0  0
  4  9  1  0  0  0  0
  4 25  1  0  0  0  0
  4 26  1  0  0  0  0
  5 27  1  0  0  0  0
  5 28  1  0  0  0  0
  5 29  1  0  0  0  0
  6  8  1  0  0  0  0
  6 30  1  0  0  0  0
  6 31  1  0  0  0  0
  7 10  1  0  0  0  0
  7 11  1  0  0  0  0
  7 21  1  1  0  0  0
  8 32  1  0  0  0  0
  8 33  1  0  0  0  0
  9 10  1  0  0  0  0
  9 34  1  0  0  0  0
  9 35  1  0  0  0  0
 10 12  1  0  0  0  0
 10 22  1  6  0  0  0
 11 13  1  0  0  0  0
 11 36  1  0  0  0  0
 11 37  1  0  0  0  0
 12 14  1  0  0  0  0
 12 15  1  0  0  0  0
 12 23  1  1  0  0  0
 13 14  1  0  0  0  0
 13 38  1  0  0  0  0
 13 39  1  0  0  0  0
 14 16  2  0  0  0  0
 15 17  1  0  0  0  0
 15 40  1  0  0  0  0
 15 41  1  0  0  0  0
 16 18  1  0  0  0  0
 16 42  1  0  0  0  0
 17 18  1  0  0  0  0
 17 43  1  0  0  0  0
 17 44  1  0  0  0  0
 18 19  2  0  0  0  0
M  END
>  <DRUGBANK_ID>
DB01434

>  <COMMON_NAME>
19-norandrostenedione

>  <CAS_NUMBER>
734-32-7

>  <UNII>
U90987PVU5

>  <SYNONYMS>
delta,4-Estrene-3,17-dione; delta4-Estrene-3,17-dione

$$$$
