
 OpenBabel10282417072D

 54 55  0  0  0  0  0  0  0  0999 V2000
    0.3837   -1.4453    0.0000 O   0  0  0  0  0  0  0  0  0  0  0  0
   -1.7587    1.4453    0.0000 O   0  0  0  0  0  0  0  0  0  0  0  0
   -1.0424   -1.4516    0.0000 N   0  0  0  0  0  0  0  0  0  0  0  0
   -0.3261    1.4516    0.0000 N   0  0  0  0  0  0  0  0  0  0  0  0
    1.7906    1.0360    0.0000 N   0  0  0  0  0  0  0  0  0  0  0  0
   -1.7651   -0.2110    0.0000 C   0  0  0  0  0  0  0  0  0  0  0  0
   -1.0424    0.2046    0.0000 C   0  0  0  0  0  0  0  0  0  0  0  0
   -1.7651   -1.0360    0.0000 C   0  0  0  0  0  0  0  0  0  0  0  0
   -0.3261   -1.0360    0.0000 C   0  0  0  0  0  0  0  0  0  0  0  0
   -0.3261   -0.2110    0.0000 C   0  0  0  0  0  0  0  0  0  0  0  0
   -1.0424    1.0360    0.0000 C   0  0  0  0  0  0  0  0  0  0  0  0
   -2.4814    0.2046    0.0000 C   0  0  0  0  0  0  0  0  0  0  0  0
   -2.4814   -1.4516    0.0000 C   0  0  0  0  0  0  0  0  0  0  0  0
   -3.1976   -0.2110    0.0000 C   0  0  0  0  0  0  0  0  0  0  0  0
   -3.1976   -1.0360    0.0000 C   0  0  0  0  0  0  0  0  0  0  0  0
    0.3837    1.0423    0.0000 C   0  0  0  0  0  0  0  0  0  0  0  0
    1.0872   -1.0424    0.0000 C   0  0  0  0  0  0  0  0  0  0  0  0
    1.0872    1.4453    0.0000 C   0  0  0  0  0  0  0  0  0  0  0  0
    1.7906   -1.4453    0.0000 C   0  0  0  0  0  0  0  0  0  0  0  0
    2.4942    1.4453    0.0000 C   0  0  0  0  0  0  0  0  0  0  0  0
    1.7906    0.2046    0.0000 C   0  0  0  0  0  0  0  0  0  0  0  0
    2.4942   -1.0424    0.0000 C   0  0  0  0  0  0  0  0  0  0  0  0
    2.4942   -0.2046    0.0000 C   0  0  0  0  0  0  0  0  0  0  0  0
    3.1976    1.0360    0.0000 C   0  0  0  0  0  0  0  0  0  0  0  0
    3.1976   -1.4453    0.0000 C   0  0  0  0  0  0  0  0  0  0  0  0
   -0.3274    2.4361    0.0000 H   0  0  0  0  0  0  0  0  0  0  0  0
    0.5682    0.3040    0.0000 H   0  0  0  0  0  0  0  0  0  0  0  0
   -2.4814    1.2366    0.0000 H   0  0  0  0  0  0  0  0  0  0  0  0
   -2.4814   -2.4836    0.0000 H   0  0  0  0  0  0  0  0  0  0  0  0
   -4.0919    0.3040    0.0000 H   0  0  0  0  0  0  0  0  0  0  0  0
   -4.0919   -1.5510    0.0000 H   0  0  0  0  0  0  0  0  0  0  0  0
    0.3822   -0.0277    0.0000 H   0  0  0  0  0  0  0  0  0  0  0  0
    1.3091    0.5051    0.0000 H   0  0  0  0  0  0  0  0  0  0  0  0
    1.0872    0.0276    0.0000 H   0  0  0  0  0  0  0  0  0  0  0  0
    2.0129   -0.5058    0.0000 H   0  0  0  0  0  0  0  0  0  0  0  0
    1.0908    2.5153    0.0000 H   0  0  0  0  0  0  0  0  0  0  0  0
    0.1624    1.9834    0.0000 H   0  0  0  0  0  0  0  0  0  0  0  0
    1.7905   -2.5153    0.0000 H   0  0  0  0  0  0  0  0  0  0  0  0
    2.7163   -1.9820    0.0000 H   0  0  0  0  0  0  0  0  0  0  0  0
    2.4943    2.5153    0.0000 H   0  0  0  0  0  0  0  0  0  0  0  0
    3.4218    1.9787    0.0000 H   0  0  0  0  0  0  0  0  0  0  0  0
    0.8631   -0.3289    0.0000 H   0  0  0  0  0  0  0  0  0  0  0  0
    1.7881   -0.8654    0.0000 H   0  0  0  0  0  0  0  0  0  0  0  0
    2.4943    0.0276    0.0000 H   0  0  0  0  0  0  0  0  0  0  0  0
    3.4199   -0.5058    0.0000 H   0  0  0  0  0  0  0  0  0  0  0  0
    2.4908   -1.2746    0.0000 H   0  0  0  0  0  0  0  0  0  0  0  0
    3.4225    0.3275    0.0000 H   0  0  0  0  0  0  0  0  0  0  0  0
    3.4191   -0.7425    0.0000 H   0  0  0  0  0  0  0  0  0  0  0  0
    3.1940   -0.0340    0.0000 H   0  0  0  0  0  0  0  0  0  0  0  0
    4.1261    1.5678    0.0000 H   0  0  0  0  0  0  0  0  0  0  0  0
    4.1224    0.4979    0.0000 H   0  0  0  0  0  0  0  0  0  0  0  0
    3.2013   -2.5153    0.0000 H   0  0  0  0  0  0  0  0  0  0  0  0
    4.1224   -0.9071    0.0000 H   0  0  0  0  0  0  0  0  0  0  0  0
    4.1261   -1.9771    0.0000 H   0  0  0  0  0  0  0  0  0  0  0  0
  1  9  1  0  0  0  0
  1 17  1  0  0  0  0
  2 11  2  0  0  0  0
  3  8  1  0  0  0  0
  3  9  2  0  0  0  0
  4 11  1  0  0  0  0
  4 16  1  0  0  0  0
  4 26  1  0  0  0  0
  5 18  1  0  0  0  0
  5 20  1  0  0  0  0
  5 21  1  0  0  0  0
  6  7  1  0  0  0  0
  6  8  1  0  0  0  0
  6 12  2  0  0  0  0
  7 10  2  0  0  0  0
  7 11  1  0  0  0  0
  8 13  2  0  0  0  0
  9 10  1  0  0  0  0
 10 27  1  0  0  0  0
 12 14  1  0  0  0  0
 12 28  1  0  0  0  0
 13 15  1  0  0  0  0
 13 29  1  0  0  0  0
 14 15  2  0  0  0  0
 14 30  1  0  0  0  0
 15 31  1  0  0  0  0
 16 18  1  0  0  0  0
 16 32  1  0  0  0  0
 16 33  1  0  0  0  0
 17 19  1  0  0  0  0
 17 34  1  0  0  0  0
 17 35  1  0  0  0  0
 18 36  1  0  0  0  0
 18 37  1  0  0  0  0
 19 22  1  0  0  0  0
 19 38  1  0  0  0  0
 19 39  1  0  0  0  0
 20 24  1  0  0  0  0
 20 40  1  0  0  0  0
 20 41  1  0  0  0  0
 21 23  1  0  0  0  0
 21 42  1  0  0  0  0
 21 43  1  0  0  0  0
 22 25  1  0  0  0  0
 22 44  1  0  0  0  0
 22 45  1  0  0  0  0
 23 46  1  0  0  0  0
 23 47  1  0  0  0  0
 23 48  1  0  0  0  0
 24 49  1  0  0  0  0
 24 50  1  0  0  0  0
 24 51  1  0  0  0  0
 25 52  1  0  0  0  0
 25 53  1  0  0  0  0
 25 54  1  0  0  0  0
M  END
>  <DRUGBANK_ID>
DB00527

>  <SECONDARY_ACCESSION_NUMBERS>
APRD00915

>  <COMMON_NAME>
Cinchocaine

>  <CAS_NUMBER>
85-79-0

>  <UNII>
L6JW2TJG99

>  <SYNONYMS>
2-butoxy-N-(2-(diethylamino)ethyl)cinchoninamide; 2-butoxy-N-(α-diethylaminoethyl)cinchoninamide; 2-butoxy-N-(β-diethylaminoethyl)cinchoninamide; 2-butoxy-N-[2-(diethylamino)ethyl]-4-quinolinecarboxamide; 2-Butoxy-quinoline-4-carboxylic acid (2-diethylamino-ethyl)-amide; 2-butoxyquinoline-4-carboxylic acid diethylaminoethylamide; 2-N-butoxy-N-(2-diethylaminoethyl)cinchoninamide; Cinchocaine; Cinchocainum; Cincocainio; Dibucaine; N-(2-(diethylamino)ethyl)-2-butoxycinchoninamide; α-butyloxycinchonic acid-γ-diethylethylenediamine; α-butyloxycinchoninic acid diethylethylenediamide

$$$$
