
 OpenBabel10282417072D

 32 32  0  0  1  0  0  0  0  0999 V2000
    1.8711    0.1658    0.0000 O   0  0  0  0  0  0  0  0  0  0  0  0
    4.7291    0.1658    0.0000 O   0  0  0  0  0  0  0  0  0  0  0  0
    3.3001   -2.3092    0.0000 O   0  0  0  0  0  0  0  0  0  0  0  0
    2.5856   -1.0717    0.0000 N   0  0  0  0  0  0  0  0  0  0  0  0
    4.0145   -1.0717    0.0000 N   0  0  0  0  0  0  0  0  0  0  0  0
    3.3001    0.1658    0.0000 C   0  0  0  0  0  0  0  0  0  0  0  0
    3.7126    0.8803    0.0000 C   0  0  3  0  0  0  0  0  0  0  0  0
    2.8876    0.8803    0.0000 C   0  0  0  0  0  0  0  0  0  0  0  0
    3.3001    1.5948    0.0000 C   0  0  0  0  0  0  0  0  0  0  0  0
    2.5856   -0.2467    0.0000 C   0  0  0  0  0  0  0  0  0  0  0  0
    4.0145   -0.2467    0.0000 C   0  0  0  0  0  0  0  0  0  0  0  0
    4.5376    0.8803    0.0000 C   0  0  0  0  0  0  0  0  0  0  0  0
    3.3001   -1.4842    0.0000 C   0  0  0  0  0  0  0  0  0  0  0  0
    3.7126    2.3092    0.0000 C   0  0  0  0  0  0  0  0  0  0  0  0
    2.0625    0.8803    0.0000 C   0  0  0  0  0  0  0  0  0  0  0  0
    1.6500    1.5948    0.0000 C   0  0  0  0  0  0  0  0  0  0  0  0
    1.7330   -1.5640    0.0000 H   0  0  0  0  0  0  0  0  0  0  0  0
    4.8671   -1.5639    0.0000 H   0  0  0  0  0  0  0  0  0  0  0  0
    2.6426    0.8803    0.0000 H   0  0  0  0  0  0  0  0  0  0  0  0
    3.4226    1.8069    0.0000 H   0  0  0  0  0  0  0  0  0  0  0  0
    2.3526    1.8069    0.0000 H   0  0  0  0  0  0  0  0  0  0  0  0
    2.2301    1.5948    0.0000 H   0  0  0  0  0  0  0  0  0  0  0  0
    2.7651    2.5215    0.0000 H   0  0  0  0  0  0  0  0  0  0  0  0
    5.0726   -0.0463    0.0000 H   0  0  0  0  0  0  0  0  0  0  0  0
    5.0726    1.8069    0.0000 H   0  0  0  0  0  0  0  0  0  0  0  0
    5.6076    0.8803    0.0000 H   0  0  0  0  0  0  0  0  0  0  0  0
    4.7826    2.3092    0.0000 H   0  0  0  0  0  0  0  0  0  0  0  0
    3.1776    3.2359    0.0000 H   0  0  0  0  0  0  0  0  0  0  0  0
    4.2476    3.2358    0.0000 H   0  0  0  0  0  0  0  0  0  0  0  0
    1.5465   -0.0134    0.0000 H   0  0  0  0  0  0  0  0  0  0  0  0
    2.1660    2.4885    0.0000 H   0  0  0  0  0  0  0  0  0  0  0  0
    0.6180    1.5948    0.0000 H   0  0  0  0  0  0  0  0  0  0  0  0
  1 10  2  0  0  0  0
  2 11  2  0  0  0  0
  3 13  2  0  0  0  0
  4 10  1  0  0  0  0
  4 13  1  0  0  0  0
  4 17  1  0  0  0  0
  5 11  1  0  0  0  0
  5 13  1  0  0  0  0
  5 18  1  0  0  0  0
  6  7  1  0  0  0  0
  6  8  1  0  0  0  0
  6 10  1  0  0  0  0
  6 11  1  0  0  0  0
  7  9  1  0  0  0  0
  7 12  1  0  0  0  0
  7 19  1  0  0  0  0
  8 15  1  0  0  0  0
  8 20  1  0  0  0  0
  8 21  1  0  0  0  0
  9 14  1  0  0  0  0
  9 22  1  0  0  0  0
  9 23  1  0  0  0  0
 12 24  1  0  0  0  0
 12 25  1  0  0  0  0
 12 26  1  0  0  0  0
 14 27  1  0  0  0  0
 14 28  1  0  0  0  0
 14 29  1  0  0  0  0
 15 16  2  0  0  0  0
 15 30  1  0  0  0  0
 16 31  1  0  0  0  0
 16 32  1  0  0  0  0
M  END
>  <DRUGBANK_ID>
DB00306

>  <SECONDARY_ACCESSION_NUMBERS>
APRD01333

>  <COMMON_NAME>
Talbutal

>  <CAS_NUMBER>
115-44-6

>  <UNII>
4YIR8202AX

>  <SYNONYMS>
(RS)-5-allyl-5-sec-butylpyrimidine-2,4,6(1H,3H,5H)-trione; 5-allyl-5-sec-butylbarbituric acid; sec-Butyl allyl barbituric acid; Talbutal; Talbutale; Talbutalum

$$$$
