LK4
 OpenBabel10282417072D

 53 55  0  0  0  0  0  0  0  0999 V2000
   -7.1480    4.8691    0.0000 N   0  0  0  0  0  0  0  0  0  0  0  0
   -6.4335    4.4566    0.0000 C   0  0  0  0  0  0  0  0  0  0  0  0
   -5.7190    4.0441    0.0000 C   0  0  0  0  0  0  0  0  0  0  0  0
   -5.0045    4.4566    0.0000 C   0  0  0  0  0  0  0  0  0  0  0  0
   -4.2901    4.0441    0.0000 C   0  0  0  0  0  0  0  0  0  0  0  0
   -5.7190    3.2191    0.0000 C   0  0  0  0  0  0  0  0  0  0  0  0
   -5.0045    2.8066    0.0000 C   0  0  0  0  0  0  0  0  0  0  0  0
   -4.2901    3.2191    0.0000 C   0  0  0  0  0  0  0  0  0  0  0  0
   -3.5756    2.8066    0.0000 C   0  0  0  0  0  0  0  0  0  0  0  0
   -2.8611    3.2191    0.0000 O   0  0  0  0  0  0  0  0  0  0  0  0
   -2.1467    2.8066    0.0000 C   0  0  0  0  0  0  0  0  0  0  0  0
   -1.4322    3.2191    0.0000 C   0  0  0  0  0  0  0  0  0  0  0  0
   -0.7177    2.8066    0.0000 C   0  0  0  0  0  0  0  0  0  0  0  0
   -2.1467    1.9816    0.0000 C   0  0  0  0  0  0  0  0  0  0  0  0
   -1.4322    1.5691    0.0000 C   0  0  0  0  0  0  0  0  0  0  0  0
   -0.7177    1.9816    0.0000 C   0  0  0  0  0  0  0  0  0  0  0  0
   -0.0032    1.5691    0.0000 C   0  0  0  0  0  0  0  0  0  0  0  0
   -1.4322    0.7441    0.0000 C   0  0  0  0  0  0  0  0  0  0  0  0
   -0.7177    0.3316    0.0000 C   0  0  0  0  0  0  0  0  0  0  0  0
   -0.0032    0.7441    0.0000 C   0  0  0  0  0  0  0  0  0  0  0  0
    0.7112    0.3316    0.0000 S   0  0  0  0  0  0  0  0  0  0  0  0
    0.2987   -0.3829    0.0000 O   0  0  0  0  0  0  0  0  0  0  0  0
    1.1237    1.0461    0.0000 O   0  0  0  0  0  0  0  0  0  0  0  0
    1.4257   -0.0809    0.0000 N   0  0  0  0  0  0  0  0  0  0  0  0
    2.1402    0.3316    0.0000 C   0  0  1  0  0  0  0  0  0  0  0  0
    2.1402    1.1566    0.0000 C   0  0  0  0  0  0  0  0  0  0  0  0
    2.8546    1.5691    0.0000 O   0  0  0  0  0  0  0  0  0  0  0  0
    1.4257    1.5691    0.0000 O   0  0  0  0  0  0  0  0  0  0  0  0
    2.8546   -0.0809    0.0000 C   0  0  0  0  0  0  0  0  0  0  0  0
    3.5691    0.3316    0.0000 C   0  0  0  0  0  0  0  0  0  0  0  0
    4.2836   -0.0809    0.0000 C   0  0  0  0  0  0  0  0  0  0  0  0
    4.9981    0.3316    0.0000 O   0  0  0  0  0  0  0  0  0  0  0  0
    4.2836   -0.9059    0.0000 O   0  0  0  0  0  0  0  0  0  0  0  0
    1.6345    0.6236    0.0000 H   0  0  0  0  0  0  0  0  0  0  0  0
   -5.0045    5.4886    0.0000 H   0  0  0  0  0  0  0  0  0  0  0  0
   -3.3964    4.5601    0.0000 H   0  0  0  0  0  0  0  0  0  0  0  0
   -6.6127    2.7031    0.0000 H   0  0  0  0  0  0  0  0  0  0  0  0
   -5.0045    1.7746    0.0000 H   0  0  0  0  0  0  0  0  0  0  0  0
   -3.5756    1.7366    0.0000 H   0  0  0  0  0  0  0  0  0  0  0  0
   -2.6490    2.2716    0.0000 H   0  0  0  0  0  0  0  0  0  0  0  0
   -1.4322    4.2511    0.0000 H   0  0  0  0  0  0  0  0  0  0  0  0
    0.1760    3.3226    0.0000 H   0  0  0  0  0  0  0  0  0  0  0  0
   -3.0404    1.4656    0.0000 H   0  0  0  0  0  0  0  0  0  0  0  0
    0.8905    2.0851    0.0000 H   0  0  0  0  0  0  0  0  0  0  0  0
   -2.3259    0.2281    0.0000 H   0  0  0  0  0  0  0  0  0  0  0  0
   -0.7177   -0.7004    0.0000 H   0  0  0  0  0  0  0  0  0  0  0  0
    1.4257   -1.1009    0.0000 H   0  0  0  0  0  0  0  0  0  0  0  0
    1.4257    2.5061    0.0000 H   0  0  0  0  0  0  0  0  0  0  0  0
    2.8546   -1.1509    0.0000 H   0  0  0  0  0  0  0  0  0  0  0  0
    3.7812   -0.6159    0.0000 H   0  0  0  0  0  0  0  0  0  0  0  0
    3.5691    1.4016    0.0000 H   0  0  0  0  0  0  0  0  0  0  0  0
    4.4957    0.8666    0.0000 H   0  0  0  0  0  0  0  0  0  0  0  0
    3.4721   -1.3744    0.0000 H   0  0  0  0  0  0  0  0  0  0  0  0
  1  2  3  0  0  0  0
  2  3  1  0  0  0  0
  3  4  1  0  0  0  0
  3  6  2  0  0  0  0
  4  5  2  0  0  0  0
  4 35  1  0  0  0  0
  5  8  1  0  0  0  0
  5 36  1  0  0  0  0
  6  7  1  0  0  0  0
  6 37  1  0  0  0  0
  7  8  2  0  0  0  0
  7 38  1  0  0  0  0
  8  9  1  0  0  0  0
  9 10  1  0  0  0  0
  9 39  1  0  0  0  0
  9 40  1  0  0  0  0
 10 11  1  0  0  0  0
 11 12  1  0  0  0  0
 11 14  2  0  0  0  0
 12 13  2  0  0  0  0
 12 41  1  0  0  0  0
 13 16  1  0  0  0  0
 13 42  1  0  0  0  0
 14 15  1  0  0  0  0
 14 43  1  0  0  0  0
 15 16  2  0  0  0  0
 15 18  1  0  0  0  0
 16 17  1  0  0  0  0
 17 20  2  0  0  0  0
 17 44  1  0  0  0  0
 18 19  2  0  0  0  0
 18 45  1  0  0  0  0
 19 20  1  0  0  0  0
 19 46  1  0  0  0  0
 20 21  1  0  0  0  0
 21 22  2  0  0  0  0
 21 23  2  0  0  0  0
 21 24  1  0  0  0  0
 24 47  1  0  0  0  0
 25 24  1  0  0  0  0
 25 26  1  0  0  0  0
 25 29  1  0  0  0  0
 25 34  1  6  0  0  0
 26 27  2  0  0  0  0
 26 28  1  0  0  0  0
 28 48  1  0  0  0  0
 29 30  1  0  0  0  0
 29 49  1  0  0  0  0
 29 50  1  0  0  0  0
 30 31  1  0  0  0  0
 30 51  1  0  0  0  0
 30 52  1  0  0  0  0
 31 32  2  0  0  0  0
 31 33  1  0  0  0  0
 33 53  1  0  0  0  0
M  END
>  <DRUGBANK_ID>
DB08108

>  <COMMON_NAME>
N-({6-[(4-CYANOBENZYL)OXY]NAPHTHALEN-2-YL}SULFONYL)-D-GLUTAMIC ACID

$$$$
