
 OpenBabel10282417072D

 50 54  0  0  0  0  0  0  0  0999 V2000
    4.1080   -0.8093    0.0000 C   0  0  0  0  0  0  0  0  0  0  0  0
    3.4084   -0.3721    0.0000 C   0  0  0  0  0  0  0  0  0  0  0  0
    3.0993   -1.1370    0.0000 C   0  0  0  0  0  0  0  0  0  0  0  0
    3.9604    0.2410    0.0000 O   0  0  0  0  0  0  0  0  0  0  0  0
    3.7054    1.0256    0.0000 C   0  0  0  0  0  0  0  0  0  0  0  0
    2.8985    1.1971    0.0000 C   0  0  0  0  0  0  0  0  0  0  0  0
    2.3464    0.5840    0.0000 N   0  0  0  0  0  0  0  0  0  0  0  0
    2.6014   -0.2006    0.0000 C   0  0  0  0  0  0  0  0  0  0  0  0
    1.9339   -0.6855    0.0000 N   0  0  0  0  0  0  0  0  0  0  0  0
    1.2665   -0.2006    0.0000 C   0  0  0  0  0  0  0  0  0  0  0  0
    0.4595   -0.3721    0.0000 C   0  0  0  0  0  0  0  0  0  0  0  0
   -0.0925    0.2410    0.0000 N   0  0  0  0  0  0  0  0  0  0  0  0
    0.1624    1.0256    0.0000 C   0  0  0  0  0  0  0  0  0  0  0  0
    0.9694    1.1971    0.0000 N   0  0  0  0  0  0  0  0  0  0  0  0
    1.5214    0.5840    0.0000 C   0  0  0  0  0  0  0  0  0  0  0  0
   -0.3896    1.6387    0.0000 C   0  0  0  0  0  0  0  0  0  0  0  0
   -1.1966    1.4672    0.0000 C   0  0  0  0  0  0  0  0  0  0  0  0
   -1.7486    2.0803    0.0000 N   0  0  0  0  0  0  0  0  0  0  0  0
   -1.4937    2.8649    0.0000 C   0  0  0  0  0  0  0  0  0  0  0  0
   -2.0457    3.4780    0.0000 N   0  0  0  0  0  0  0  0  0  0  0  0
   -0.6867    3.0364    0.0000 N   0  0  0  0  0  0  0  0  0  0  0  0
   -0.1347    2.4233    0.0000 C   0  0  0  0  0  0  0  0  0  0  0  0
    0.2046   -1.1567    0.0000 N   0  0  0  0  0  0  0  0  0  0  0  0
    0.7566   -1.7698    0.0000 C   0  0  0  0  0  0  0  0  0  0  0  0
    0.5017   -2.5545    0.0000 C   0  0  0  0  0  0  0  0  0  0  0  0
   -0.3053   -2.7260    0.0000 O   0  0  0  0  0  0  0  0  0  0  0  0
   -0.8573   -2.1129    0.0000 C   0  0  0  0  0  0  0  0  0  0  0  0
   -0.6024   -1.3283    0.0000 C   0  0  0  0  0  0  0  0  0  0  0  0
    4.0706   -1.8786    0.0000 H   0  0  0  0  0  0  0  0  0  0  0  0
    5.0528   -0.3070    0.0000 H   0  0  0  0  0  0  0  0  0  0  0  0
    5.0154   -1.3764    0.0000 H   0  0  0  0  0  0  0  0  0  0  0  0
    2.0397   -1.2858    0.0000 H   0  0  0  0  0  0  0  0  0  0  0  0
    3.7580   -1.9802    0.0000 H   0  0  0  0  0  0  0  0  0  0  0  0
    2.6984   -2.1291    0.0000 H   0  0  0  0  0  0  0  0  0  0  0  0
    4.4213    1.8208    0.0000 H   0  0  0  0  0  0  0  0  0  0  0  0
    3.3747    2.0432    0.0000 H   0  0  0  0  0  0  0  0  0  0  0  0
    2.5679    2.2147    0.0000 H   0  0  0  0  0  0  0  0  0  0  0  0
    1.8519    1.4196    0.0000 H   0  0  0  0  0  0  0  0  0  0  0  0
   -1.5155    0.4857    0.0000 H   0  0  0  0  0  0  0  0  0  0  0  0
   -1.7414    4.4143    0.0000 H   0  0  0  0  0  0  0  0  0  0  0  0
   -3.0087    3.2733    0.0000 H   0  0  0  0  0  0  0  0  0  0  0  0
    0.8747    2.6379    0.0000 H   0  0  0  0  0  0  0  0  0  0  0  0
    1.8032   -1.5473    0.0000 H   0  0  0  0  0  0  0  0  0  0  0  0
    1.4726   -2.5649    0.0000 H   0  0  0  0  0  0  0  0  0  0  0  0
    1.2177   -3.3497    0.0000 H   0  0  0  0  0  0  0  0  0  0  0  0
    0.1710   -3.5721    0.0000 H   0  0  0  0  0  0  0  0  0  0  0  0
   -1.9039   -2.3354    0.0000 H   0  0  0  0  0  0  0  0  0  0  0  0
   -1.5733   -1.3177    0.0000 H   0  0  0  0  0  0  0  0  0  0  0  0
   -1.3184   -0.5332    0.0000 H   0  0  0  0  0  0  0  0  0  0  0  0
   -0.2718   -0.3106    0.0000 H   0  0  0  0  0  0  0  0  0  0  0  0
  1  2  1  0  0  0  0
  1 29  1  0  0  0  0
  1 30  1  0  0  0  0
  1 31  1  0  0  0  0
  2  3  1  0  0  0  0
  2  4  1  0  0  0  0
  2  8  1  0  0  0  0
  3 32  1  0  0  0  0
  3 33  1  0  0  0  0
  3 34  1  0  0  0  0
  4  5  1  0  0  0  0
  5  6  1  0  0  0  0
  5 35  1  0  0  0  0
  5 36  1  0  0  0  0
  6  7  1  0  0  0  0
  6 37  1  0  0  0  0
  6 38  1  0  0  0  0
  7  8  1  0  0  0  0
  7 15  1  0  0  0  0
  8  9  2  0  0  0  0
  9 10  1  0  0  0  0
 10 11  2  0  0  0  0
 10 15  1  0  0  0  0
 11 12  1  0  0  0  0
 11 23  1  0  0  0  0
 12 13  2  0  0  0  0
 13 14  1  0  0  0  0
 13 16  1  0  0  0  0
 14 15  2  0  0  0  0
 16 17  2  0  0  0  0
 16 22  1  0  0  0  0
 17 18  1  0  0  0  0
 17 39  1  0  0  0  0
 18 19  2  0  0  0  0
 19 20  1  0  0  0  0
 19 21  1  0  0  0  0
 20 40  1  0  0  0  0
 20 41  1  0  0  0  0
 21 22  2  0  0  0  0
 22 42  1  0  0  0  0
 23 24  1  0  0  0  0
 23 28  1  0  0  0  0
 24 25  1  0  0  0  0
 24 43  1  0  0  0  0
 24 44  1  0  0  0  0
 25 26  1  0  0  0  0
 25 45  1  0  0  0  0
 25 46  1  0  0  0  0
 26 27  1  0  0  0  0
 27 28  1  0  0  0  0
 27 47  1  0  0  0  0
 27 48  1  0  0  0  0
 28 49  1  0  0  0  0
 28 50  1  0  0  0  0
M  END
>  <DRUGBANK_ID>
DB15186

>  <COMMON_NAME>
Paxalisib

>  <CAS_NUMBER>
1382979-44-3

>  <UNII>
P5DKZ70636

>  <SYNONYMS>
5-(6,6-dimethyl-4-morpholino-8,9-dihydro-6H-[1,4]oxazino[3,4-e]purin-2-yl)pyrimidin-2-amine

$$$$
