
 OpenBabel10282417072D

 62 64  0  0  0  0  0  0  0  0999 V2000
   -0.8502    0.7964    0.0000 S   0  0  0  0  0  0  0  0  0  0  0  0
    0.5787    1.6214    0.0000 O   0  0  0  0  0  0  0  0  0  0  0  0
    0.5787   -1.6785    0.0000 O   0  0  0  0  0  0  0  0  0  0  0  0
   -0.1357   -2.0910    0.0000 O   0  0  0  0  0  0  0  0  0  0  0  0
   -2.9936   -4.5660    0.0000 O   0  0  0  0  0  0  0  0  0  0  0  0
   -1.5646   -4.5660    0.0000 O   0  0  0  0  0  0  0  0  0  0  0  0
    3.4366   -0.8535    0.0000 O   0  0  0  0  0  0  0  0  0  0  0  0
    2.7220    0.3839    0.0000 O   0  0  0  0  0  0  0  0  0  0  0  0
   -0.8502   -0.8535    0.0000 N   0  0  0  0  0  0  0  0  0  0  0  0
    1.2931   -0.4410    0.0000 N   0  0  0  0  0  0  0  0  0  0  0  0
   -2.9936   -2.9160    0.0000 N   0  0  0  0  0  0  0  0  0  0  0  0
   -0.8502    1.6214    0.0000 C   0  0  2  0  0  0  0  0  0  0  0  0
   -0.1357    2.0339    0.0000 C   0  0  2  0  0  0  0  0  0  0  0  0
   -1.5646    2.0339    0.0000 C   0  0  0  0  0  0  0  0  0  0  0  0
   -0.1357    2.8589    0.0000 C   0  0  0  0  0  0  0  0  0  0  0  0
   -1.5646    2.8589    0.0000 C   0  0  0  0  0  0  0  0  0  0  0  0
   -0.8502    3.2714    0.0000 C   0  0  0  0  0  0  0  0  0  0  0  0
   -0.1357    0.3839    0.0000 C   0  0  0  0  0  0  0  0  0  0  0  0
   -2.3022    1.5928    0.0000 C   0  0  0  0  0  0  0  0  0  0  0  0
   -0.1357   -0.4410    0.0000 C   0  0  1  0  0  0  0  0  0  0  0  0
    0.6149    3.2770    0.0000 C   0  0  0  0  0  0  0  0  0  0  0  0
   -2.3022    3.3000    0.0000 C   0  0  0  0  0  0  0  0  0  0  0  0
   -0.8634    4.1306    0.0000 C   0  0  0  0  0  0  0  0  0  0  0  0
   -3.0496    2.0167    0.0000 C   0  0  0  0  0  0  0  0  0  0  0  0
   -3.0496    2.8761    0.0000 C   0  0  0  0  0  0  0  0  0  0  0  0
    0.6216    4.1363    0.0000 C   0  0  0  0  0  0  0  0  0  0  0  0
   -0.1225    4.5660    0.0000 C   0  0  0  0  0  0  0  0  0  0  0  0
    0.5787   -0.8535    0.0000 C   0  0  0  0  0  0  0  0  0  0  0  0
   -1.5646   -2.0910    0.0000 C   0  0  0  0  0  0  0  0  0  0  0  0
   -0.8502   -1.6785    0.0000 C   0  0  0  0  0  0  0  0  0  0  0  0
   -1.5646   -2.9160    0.0000 C   0  0  0  0  0  0  0  0  0  0  0  0
   -2.2791   -3.3285    0.0000 C   0  0  1  0  0  0  0  0  0  0  0  0
    2.0076   -0.8535    0.0000 C   0  0  0  0  0  0  0  0  0  0  0  0
   -2.2791   -4.1535    0.0000 C   0  0  0  0  0  0  0  0  0  0  0  0
    2.7220   -0.4410    0.0000 C   0  0  0  0  0  0  0  0  0  0  0  0
   -0.2786    1.2914    0.0000 H   0  0  0  0  0  0  0  0  0  0  0  0
   -1.2931   -0.5977    0.0000 H   0  0  0  0  0  0  0  0  0  0  0  0
    1.2931    0.0704    0.0000 H   0  0  0  0  0  0  0  0  0  0  0  0
   -2.9936   -2.4045    0.0000 H   0  0  0  0  0  0  0  0  0  0  0  0
   -3.4366   -3.1717    0.0000 H   0  0  0  0  0  0  0  0  0  0  0  0
    0.5787    0.6514    0.0000 H   0  0  0  0  0  0  0  0  0  0  0  0
   -3.8051   -4.0975    0.0000 H   0  0  0  0  0  0  0  0  0  0  0  0
    3.4367   -1.7905    0.0000 H   0  0  0  0  0  0  0  0  0  0  0  0
   -0.1357    0.9639    0.0000 H   0  0  0  0  0  0  0  0  0  0  0  0
    0.7909    0.9189    0.0000 H   0  0  0  0  0  0  0  0  0  0  0  0
    0.7909   -0.1511    0.0000 H   0  0  0  0  0  0  0  0  0  0  0  0
   -2.2903    0.5609    0.0000 H   0  0  0  0  0  0  0  0  0  0  0  0
   -1.0623    0.0940    0.0000 H   0  0  0  0  0  0  0  0  0  0  0  0
    1.5026    2.7507    0.0000 H   0  0  0  0  0  0  0  0  0  0  0  0
   -2.2903    4.3319    0.0000 H   0  0  0  0  0  0  0  0  0  0  0  0
   -1.7630    4.6363    0.0000 H   0  0  0  0  0  0  0  0  0  0  0  0
   -3.9414    1.4973    0.0000 H   0  0  0  0  0  0  0  0  0  0  0  0
   -3.9414    3.3955    0.0000 H   0  0  0  0  0  0  0  0  0  0  0  0
    1.5174    4.6488    0.0000 H   0  0  0  0  0  0  0  0  0  0  0  0
   -0.1264    5.5980    0.0000 H   0  0  0  0  0  0  0  0  0  0  0  0
   -2.4913   -1.5560    0.0000 H   0  0  0  0  0  0  0  0  0  0  0  0
   -2.4912   -2.6260    0.0000 H   0  0  0  0  0  0  0  0  0  0  0  0
   -0.6380   -3.4510    0.0000 H   0  0  0  0  0  0  0  0  0  0  0  0
   -1.5646   -3.9860    0.0000 H   0  0  0  0  0  0  0  0  0  0  0  0
   -2.2791   -2.2585    0.0000 H   0  0  0  0  0  0  0  0  0  0  0  0
    2.0076   -1.9235    0.0000 H   0  0  0  0  0  0  0  0  0  0  0  0
    2.9343   -1.3885    0.0000 H   0  0  0  0  0  0  0  0  0  0  0  0
  1 12  1  0  0  0  0
  1 18  1  0  0  0  0
  2 41  1  0  0  0  0
  3 28  2  0  0  0  0
  4 30  2  0  0  0  0
  5 34  1  0  0  0  0
  5 42  1  0  0  0  0
  6 34  2  0  0  0  0
  7 35  1  0  0  0  0
  7 43  1  0  0  0  0
  8 35  2  0  0  0  0
  9 30  1  0  0  0  0
  9 37  1  0  0  0  0
 10 28  1  0  0  0  0
 10 33  1  0  0  0  0
 10 38  1  0  0  0  0
 11 39  1  0  0  0  0
 11 40  1  0  0  0  0
 12 13  1  0  0  0  0
 12 14  1  0  0  0  0
 12 36  1  6  0  0  0
 13  2  1  0  0  0  0
 13 15  1  0  0  0  0
 13 44  1  1  0  0  0
 14 16  1  0  0  0  0
 14 19  2  0  0  0  0
 15 17  1  0  0  0  0
 15 21  2  0  0  0  0
 16 17  1  0  0  0  0
 16 22  2  0  0  0  0
 17 23  2  0  0  0  0
 18 20  1  0  0  0  0
 18 45  1  0  0  0  0
 18 46  1  0  0  0  0
 19 24  1  0  0  0  0
 19 47  1  0  0  0  0
 20  9  1  0  0  0  0
 20 28  1  0  0  0  0
 20 48  1  6  0  0  0
 21 26  1  0  0  0  0
 21 49  1  0  0  0  0
 22 25  1  0  0  0  0
 22 50  1  0  0  0  0
 23 27  1  0  0  0  0
 23 51  1  0  0  0  0
 24 25  2  0  0  0  0
 24 52  1  0  0  0  0
 25 53  1  0  0  0  0
 26 27  2  0  0  0  0
 26 54  1  0  0  0  0
 27 55  1  0  0  0  0
 29 30  1  0  0  0  0
 29 31  1  0  0  0  0
 29 56  1  0  0  0  0
 29 57  1  0  0  0  0
 31 32  1  0  0  0  0
 31 58  1  0  0  0  0
 31 59  1  0  0  0  0
 32 11  1  0  0  0  0
 32 34  1  0  0  0  0
 32 60  1  6  0  0  0
 33 35  1  0  0  0  0
 33 61  1  0  0  0  0
 33 62  1  0  0  0  0
M  END
>  <DRUGBANK_ID>
DB04187

>  <SECONDARY_ACCESSION_NUMBERS>
EXPT01642

>  <COMMON_NAME>
(9S,10S)-9-(S-glutathionyl)-10-hydroxy-9,10-dihydrophenanthrene

$$$$
