
 OpenBabel10282417072D

 32 31  0  0  1  0  0  0  0  0999 V2000
    4.9204   -1.5395    0.0000 C   0  0  0  0  0  0  0  0  0  0  0  0
    2.7770   -0.3020    0.0000 C   0  0  0  0  0  0  0  0  0  0  0  0
    4.9204   -0.7145    0.0000 C   0  0  2  0  0  0  0  0  0  0  0  0
    2.0625   -0.7145    0.0000 C   0  0  1  0  0  0  0  0  0  0  0  0
    3.4914   -0.7145    0.0000 C   0  0  2  0  0  0  0  0  0  0  0  0
    5.6349   -0.3020    0.0000 C   0  0  1  0  0  0  0  0  0  0  0  0
    1.3480   -0.3020    0.0000 C   0  0  0  0  0  0  0  0  0  0  0  0
    6.3493   -0.7145    0.0000 C   0  0  0  0  0  0  0  0  0  0  0  0
    2.0625   -1.5395    0.0000 N   0  0  0  0  0  0  0  0  0  0  0  0
    5.6349    0.5230    0.0000 N   0  0  0  0  0  0  0  0  0  0  0  0
    3.4914   -1.5395    0.0000 O   0  0  0  0  0  0  0  0  0  0  0  0
    0.6336   -0.7145    0.0000 O   0  0  0  0  0  0  0  0  0  0  0  0
    1.3480    0.5230    0.0000 O   0  0  0  0  0  0  0  0  0  0  0  0
    7.0638   -0.3020    0.0000 O   0  0  0  0  0  0  0  0  0  0  0  0
    6.3493   -1.5395    0.0000 O   0  0  0  0  0  0  0  0  0  0  0  0
    4.2059   -0.3020    0.0000 O   0  0  0  0  0  0  0  0  0  0  0  0
    5.7329   -0.8577    0.0000 H   0  0  0  0  0  0  0  0  0  0  0  0
    2.0625    0.1105    0.0000 H   0  0  0  0  0  0  0  0  0  0  0  0
    2.7770   -1.1270    0.0000 H   0  0  0  0  0  0  0  0  0  0  0  0
    5.9170   -1.0772    0.0000 H   0  0  0  0  0  0  0  0  0  0  0  0
    3.9938   -2.0745    0.0000 H   0  0  0  0  0  0  0  0  0  0  0  0
    5.8470   -2.0745    0.0000 H   0  0  0  0  0  0  0  0  0  0  0  0
    4.9204   -2.6095    0.0000 H   0  0  0  0  0  0  0  0  0  0  0  0
    2.7770    0.7680    0.0000 H   0  0  0  0  0  0  0  0  0  0  0  0
    3.7037    0.2330    0.0000 H   0  0  0  0  0  0  0  0  0  0  0  0
    1.1792   -2.0495    0.0000 H   0  0  0  0  0  0  0  0  0  0  0  0
    2.9458   -2.0495    0.0000 H   0  0  0  0  0  0  0  0  0  0  0  0
    6.5182    1.0330    0.0000 H   0  0  0  0  0  0  0  0  0  0  0  0
    4.7516    1.0330    0.0000 H   0  0  0  0  0  0  0  0  0  0  0  0
    2.6514   -2.0245    0.0000 H   0  0  0  0  0  0  0  0  0  0  0  0
    2.1595    0.9915    0.0000 H   0  0  0  0  0  0  0  0  0  0  0  0
    5.5378   -2.0080    0.0000 H   0  0  0  0  0  0  0  0  0  0  0  0
  1 21  1  0  0  0  0
  1 22  1  0  0  0  0
  1 23  1  0  0  0  0
  2 24  1  0  0  0  0
  2 25  1  0  0  0  0
  3  1  1  0  0  0  0
  3 17  1  6  0  0  0
  4  2  1  0  0  0  0
  4  9  1  0  0  0  0
  4 18  1  1  0  0  0
  5  2  1  0  0  0  0
  5 11  1  0  0  0  0
  5 19  1  6  0  0  0
  6  3  1  0  0  0  0
  6 10  1  0  0  0  0
  6 20  1  1  0  0  0
  7  4  1  0  0  0  0
  8  6  1  0  0  0  0
  9 26  1  0  0  0  0
  9 27  1  0  0  0  0
 10 28  1  0  0  0  0
 10 29  1  0  0  0  0
 11 30  1  0  0  0  0
 12  7  2  0  0  0  0
 13  7  1  0  0  0  0
 13 31  1  0  0  0  0
 14  8  2  0  0  0  0
 15  8  1  0  0  0  0
 15 32  1  0  0  0  0
 16  3  1  0  0  0  0
 16  5  1  0  0  0  0
M  END
>  <DRUGBANK_ID>
DB01817

>  <SECONDARY_ACCESSION_NUMBERS>
EXPT00445

>  <COMMON_NAME>
Threonine-Aspartic Ester

$$$$
