
 OpenBabel10282417072D

 37 38  0  0  0  0  0  0  0  0999 V2000
    0.7222    0.4267    0.0000 C   0  0  3  0  0  0  0  0  0  0  0  0
    0.7282   -0.4286    0.0000 N   0  0  0  0  0  0  0  0  0  0  0  0
   -0.0625    0.7595    0.0000 O   0  0  0  0  0  0  0  0  0  0  0  0
    1.3880    0.8685    0.0000 C   0  0  0  0  0  0  0  0  0  0  0  0
    0.0645   -0.9774    0.0000 C   0  0  0  0  0  0  0  0  0  0  0  0
    1.4465   -0.8886    0.0000 C   0  0  0  0  0  0  0  0  0  0  0  0
   -0.7101    0.2673    0.0000 C   0  0  0  0  0  0  0  0  0  0  0  0
    2.1263    0.4871    0.0000 C   0  0  0  0  0  0  0  0  0  0  0  0
    1.3880    1.7077    0.0000 O   0  0  0  0  0  0  0  0  0  0  0  0
    0.3772   -1.7077    0.0000 C   0  0  0  0  0  0  0  0  0  0  0  0
    1.1741   -1.7077    0.0000 N   0  0  0  0  0  0  0  0  0  0  0  0
   -0.7101   -0.5376    0.0000 C   0  0  0  0  0  0  0  0  0  0  0  0
   -1.4364    0.6546    0.0000 C   0  0  0  0  0  0  0  0  0  0  0  0
    2.4773    1.2316    0.0000 C   0  0  0  0  0  0  0  0  0  0  0  0
    2.8707    0.1079    0.0000 C   0  0  0  0  0  0  0  0  0  0  0  0
    1.7511   -0.2430    0.0000 C   0  0  0  0  0  0  0  0  0  0  0  0
   -1.4081   -0.9774    0.0000 C   0  0  0  0  0  0  0  0  0  0  0  0
   -2.1607    0.2370    0.0000 C   0  0  0  0  0  0  0  0  0  0  0  0
   -2.1607   -0.5940    0.0000 C   0  0  0  0  0  0  0  0  0  0  0  0
   -2.8707   -1.0036    0.0000 Cl  0  0  0  0  0  0  0  0  0  0  0  0
   -0.1679   -0.1671    0.0000 H   0  0  0  0  0  0  0  0  0  0  0  0
   -0.9385   -0.7344    0.0000 H   0  0  0  0  0  0  0  0  0  0  0  0
    2.4194   -0.5444    0.0000 H   0  0  0  0  0  0  0  0  0  0  0  0
   -0.1910   -2.5692    0.0000 H   0  0  0  0  0  0  0  0  0  0  0  0
    0.1934   -1.0362    0.0000 H   0  0  0  0  0  0  0  0  0  0  0  0
   -1.4535    1.6865    0.0000 H   0  0  0  0  0  0  0  0  0  0  0  0
    3.5436    1.3204    0.0000 H   0  0  0  0  0  0  0  0  0  0  0  0
    1.8673    2.1107    0.0000 H   0  0  0  0  0  0  0  0  0  0  0  0
    2.9336    2.1994    0.0000 H   0  0  0  0  0  0  0  0  0  0  0  0
    2.9268   -0.9606    0.0000 H   0  0  0  0  0  0  0  0  0  0  0  0
    3.7680    0.6908    0.0000 H   0  0  0  0  0  0  0  0  0  0  0  0
    3.8241   -0.3778    0.0000 H   0  0  0  0  0  0  0  0  0  0  0  0
    0.6824   -0.2953    0.0000 H   0  0  0  0  0  0  0  0  0  0  0  0
    2.3307   -1.1424    0.0000 H   0  0  0  0  0  0  0  0  0  0  0  0
    1.2620   -1.1947    0.0000 H   0  0  0  0  0  0  0  0  0  0  0  0
   -1.3611   -2.0083    0.0000 H   0  0  0  0  0  0  0  0  0  0  0  0
   -3.0543    0.7533    0.0000 H   0  0  0  0  0  0  0  0  0  0  0  0
  1  2  1  0  0  0  0
  1  3  1  0  0  0  0
  1  4  1  0  0  0  0
  1 21  1  0  0  0  0
  2  5  1  0  0  0  0
  2  6  1  0  0  0  0
  3  7  1  0  0  0  0
  4  8  1  0  0  0  0
  4  9  2  0  0  0  0
  5 10  2  0  0  0  0
  5 22  1  0  0  0  0
  6 11  2  0  0  0  0
  6 23  1  0  0  0  0
  7 12  1  0  0  0  0
  7 13  2  0  0  0  0
  8 14  1  0  0  0  0
  8 15  1  0  0  0  0
  8 16  1  0  0  0  0
 10 11  1  0  0  0  0
 10 24  1  0  0  0  0
 12 17  2  0  0  0  0
 12 25  1  0  0  0  0
 13 18  1  0  0  0  0
 13 26  1  0  0  0  0
 14 27  1  0  0  0  0
 14 28  1  0  0  0  0
 14 29  1  0  0  0  0
 15 30  1  0  0  0  0
 15 31  1  0  0  0  0
 15 32  1  0  0  0  0
 16 33  1  0  0  0  0
 16 34  1  0  0  0  0
 16 35  1  0  0  0  0
 17 19  1  0  0  0  0
 17 36  1  0  0  0  0
 18 19  2  0  0  0  0
 18 37  1  0  0  0  0
 19 20  1  0  0  0  0
M  END
>  <DRUGBANK_ID>
DB15580

>  <COMMON_NAME>
Climbazole

>  <CAS_NUMBER>
38083-17-9

>  <UNII>
9N42CW7I54

>  <SYNONYMS>
Climbazol; Climbazole; Climbazolum

$$$$
