
 OpenBabel10282417072D

 37 36  0  0  0  0  0  0  0  0999 V2000
   -2.1434    1.0312    0.0000 C   0  0  0  0  0  0  0  0  0  0  0  0
    2.1433    1.0312    0.0000 C   0  0  0  0  0  0  0  0  0  0  0  0
   -2.8577    0.6186    0.0000 N   0  0  0  0  0  0  0  0  0  0  0  0
    2.1433    1.8561    0.0000 O   0  0  0  0  0  0  0  0  0  0  0  0
   -1.4289    0.6186    0.0000 N   0  0  0  0  0  0  0  0  0  0  0  0
    1.4289    0.6186    0.0000 C   0  0  1  0  0  0  0  0  0  0  0  0
   -2.1434    1.8561    0.0000 N   0  0  0  0  0  0  0  0  0  0  0  0
    1.4289   -0.2062    0.0000 N   0  0  0  0  0  0  0  0  0  0  0  0
   -0.7144    1.0312    0.0000 C   0  0  0  0  0  0  0  0  0  0  0  0
    0.7144    1.0312    0.0000 C   0  0  0  0  0  0  0  0  0  0  0  0
    0.0000    0.6186    0.0000 C   0  0  0  0  0  0  0  0  0  0  0  0
    2.8577    0.6186    0.0000 O   0  0  0  0  0  0  0  0  0  0  0  0
    0.7144   -0.6186    0.0000 C   0  0  0  0  0  0  0  0  0  0  0  0
    0.7144   -1.4437    0.0000 O   0  0  0  0  0  0  0  0  0  0  0  0
    0.0000   -0.2062    0.0000 C   0  0  0  0  0  0  0  0  0  0  0  0
    0.0000   -1.8561    0.0000 O   0  0  0  0  0  0  0  0  0  0  0  0
   -0.7144   -0.6186    0.0000 C   0  0  0  0  0  0  0  0  0  0  0  0
   -0.7144   -1.4437    0.0000 C   0  0  0  0  0  0  0  0  0  0  0  0
   -1.4289   -1.8561    0.0000 O   0  0  0  0  0  0  0  0  0  0  0  0
   -3.7104    1.1107    0.0000 H   0  0  0  0  0  0  0  0  0  0  0  0
   -1.4289   -0.3659    0.0000 H   0  0  0  0  0  0  0  0  0  0  0  0
    2.3556    0.0837    0.0000 H   0  0  0  0  0  0  0  0  0  0  0  0
   -1.2908    2.3483    0.0000 H   0  0  0  0  0  0  0  0  0  0  0  0
   -2.9960    2.3483    0.0000 H   0  0  0  0  0  0  0  0  0  0  0  0
    2.2815   -0.6985    0.0000 H   0  0  0  0  0  0  0  0  0  0  0  0
   -0.7144    2.1012    0.0000 H   0  0  0  0  0  0  0  0  0  0  0  0
    0.2123    1.5661    0.0000 H   0  0  0  0  0  0  0  0  0  0  0  0
    0.7144    2.1012    0.0000 H   0  0  0  0  0  0  0  0  0  0  0  0
   -0.2123    1.5661    0.0000 H   0  0  0  0  0  0  0  0  0  0  0  0
    0.0000   -0.4514    0.0000 H   0  0  0  0  0  0  0  0  0  0  0  0
    0.9267    0.0837    0.0000 H   0  0  0  0  0  0  0  0  0  0  0  0
    2.8576   -0.3184    0.0000 H   0  0  0  0  0  0  0  0  0  0  0  0
    0.0000    0.8638    0.0000 H   0  0  0  0  0  0  0  0  0  0  0  0
   -0.9266    0.3288    0.0000 H   0  0  0  0  0  0  0  0  0  0  0  0
   -1.6410   -0.0836    0.0000 H   0  0  0  0  0  0  0  0  0  0  0  0
   -1.6411   -1.1536    0.0000 H   0  0  0  0  0  0  0  0  0  0  0  0
   -2.2403   -1.3875    0.0000 H   0  0  0  0  0  0  0  0  0  0  0  0
  1  3  2  0  0  0  0
  1  5  1  0  0  0  0
  1  7  1  0  0  0  0
  2  6  1  0  0  0  0
  2  4  2  0  0  0  0
  3 20  1  0  0  0  0
  5  9  1  0  0  0  0
  5 21  1  0  0  0  0
  6 10  1  0  0  0  0
  6  8  1  0  0  0  0
  6 22  1  6  0  0  0
  7 23  1  0  0  0  0
  7 24  1  0  0  0  0
  8 13  1  0  0  0  0
  8 25  1  0  0  0  0
  9 11  1  0  0  0  0
  9 26  1  0  0  0  0
  9 27  1  0  0  0  0
 10 11  1  0  0  0  0
 10 28  1  0  0  0  0
 10 29  1  0  0  0  0
 11 30  1  0  0  0  0
 11 31  1  0  0  0  0
 12  2  1  0  0  0  0
 12 32  1  0  0  0  0
 14 13  2  0  0  0  0
 15 13  1  0  0  0  0
 15 33  1  0  0  0  0
 15 34  1  0  0  0  0
 17 15  1  0  0  0  0
 17 35  1  0  0  0  0
 17 36  1  0  0  0  0
 18 16  2  0  0  0  0
 18 17  1  0  0  0  0
 19 18  1  0  0  0  0
 19 37  1  0  0  0  0
M  END
>  <DRUGBANK_ID>
DB02501

>  <SECONDARY_ACCESSION_NUMBERS>
EXPT02979

>  <COMMON_NAME>
N(2)-succinyl-L-arginine

>  <SYNONYMS>
N2-Succinyl-L-arginine; Succinyl-arginine; Succinylarginine

$$$$
