1044
 OpenBabel10282417072D

 49 52  0  0  1  0  0  0  0  0999 V2000
    3.7935    1.1846    0.0000 F   0  0  0  0  0  0  0  0  0  0  0  0
    5.2224   -1.2904    0.0000 O   0  0  0  0  0  0  0  0  0  0  0  0
    6.6649    2.0382    0.0000 O   0  0  0  0  0  0  0  0  0  0  0  0
    8.8510    0.7948    0.0000 O   0  0  0  0  0  0  0  0  0  0  0  0
    8.1317    2.0295    0.0000 O   0  0  0  0  0  0  0  0  0  0  0  0
    6.6745   -0.4940    0.0000 N   0  0  0  0  0  0  0  0  0  0  0  0
    3.7935   -0.4654    0.0000 N   0  0  0  0  0  0  0  0  0  0  0  0
    2.3645   -1.2904    0.0000 N   0  0  0  0  0  0  0  0  0  0  0  0
    6.6649   -1.3190    0.0000 C   0  0  0  0  0  0  0  0  0  0  0  0
    7.0692   -2.0382    0.0000 C   0  0  0  0  0  0  0  0  0  0  0  0
    6.2442   -2.0286    0.0000 C   0  0  0  0  0  0  0  0  0  0  0  0
    5.9370   -0.0529    0.0000 C   0  0  0  0  0  0  0  0  0  0  0  0
    7.4220   -0.0700    0.0000 C   0  0  0  0  0  0  0  0  0  0  0  0
    5.2224   -0.4654    0.0000 C   0  0  0  0  0  0  0  0  0  0  0  0
    5.9370    0.7721    0.0000 C   0  0  0  0  0  0  0  0  0  0  0  0
    4.5080   -0.0529    0.0000 C   0  0  0  0  0  0  0  0  0  0  0  0
    3.0791   -0.0529    0.0000 C   0  0  0  0  0  0  0  0  0  0  0  0
    2.3645   -0.4654    0.0000 C   0  0  3  0  0  0  0  0  0  0  0  0
    3.7935   -1.2904    0.0000 C   0  0  0  0  0  0  0  0  0  0  0  0
    3.0791   -1.7029    0.0000 C   0  0  0  0  0  0  0  0  0  0  0  0
    7.4220    0.7893    0.0000 C   0  0  0  0  0  0  0  0  0  0  0  0
    6.6745    1.2132    0.0000 C   0  0  0  0  0  0  0  0  0  0  0  0
    5.2224    1.1846    0.0000 C   0  0  0  0  0  0  0  0  0  0  0  0
    4.5080    0.7721    0.0000 C   0  0  0  0  0  0  0  0  0  0  0  0
    1.6500   -0.0529    0.0000 C   0  0  0  0  0  0  0  0  0  0  0  0
    8.1349    1.2045    0.0000 C   0  0  0  0  0  0  0  0  0  0  0  0
    4.5080   -1.7029    0.0000 C   0  0  0  0  0  0  0  0  0  0  0  0
    8.8547   -0.1422    0.0000 H   0  0  0  0  0  0  0  0  0  0  0  0
    1.4812   -1.8004    0.0000 H   0  0  0  0  0  0  0  0  0  0  0  0
    6.6526   -2.3889    0.0000 H   0  0  0  0  0  0  0  0  0  0  0  0
    7.9896   -2.5839    0.0000 H   0  0  0  0  0  0  0  0  0  0  0  0
    6.7803   -3.0685    0.0000 H   0  0  0  0  0  0  0  0  0  0  0  0
    5.3114   -2.5528    0.0000 H   0  0  0  0  0  0  0  0  0  0  0  0
    6.5091   -3.0653    0.0000 H   0  0  0  0  0  0  0  0  0  0  0  0
    8.3138   -0.5894    0.0000 H   0  0  0  0  0  0  0  0  0  0  0  0
    3.0792    1.0171    0.0000 H   0  0  0  0  0  0  0  0  0  0  0  0
    2.1525    0.4822    0.0000 H   0  0  0  0  0  0  0  0  0  0  0  0
    3.2911   -1.0004    0.0000 H   0  0  0  0  0  0  0  0  0  0  0  0
    4.7202   -1.8254    0.0000 H   0  0  0  0  0  0  0  0  0  0  0  0
    3.7935   -2.3604    0.0000 H   0  0  0  0  0  0  0  0  0  0  0  0
    3.0792   -2.7729    0.0000 H   0  0  0  0  0  0  0  0  0  0  0  0
    4.0058   -2.2379    0.0000 H   0  0  0  0  0  0  0  0  0  0  0  0
    5.2223    2.2166    0.0000 H   0  0  0  0  0  0  0  0  0  0  0  0
    1.6500    1.0171    0.0000 H   0  0  0  0  0  0  0  0  0  0  0  0
    0.7234   -0.5879    0.0000 H   0  0  0  0  0  0  0  0  0  0  0  0
    0.7233    0.4821    0.0000 H   0  0  0  0  0  0  0  0  0  0  0  0
    3.5813   -1.1679    0.0000 H   0  0  0  0  0  0  0  0  0  0  0  0
    4.5080   -2.7729    0.0000 H   0  0  0  0  0  0  0  0  0  0  0  0
    3.5814   -2.2379    0.0000 H   0  0  0  0  0  0  0  0  0  0  0  0
  1 24  1  0  0  0  0
  2 14  1  0  0  0  0
  2 27  1  0  0  0  0
  3 22  2  0  0  0  0
  4 26  1  0  0  0  0
  4 28  1  0  0  0  0
  5 26  2  0  0  0  0
  6  9  1  0  0  0  0
  6 12  1  0  0  0  0
  6 13  1  0  0  0  0
  7 16  1  0  0  0  0
  7 17  1  0  0  0  0
  7 19  1  0  0  0  0
  8 18  1  0  0  0  0
  8 20  1  0  0  0  0
  8 29  1  0  0  0  0
  9 10  1  0  0  0  0
  9 11  1  0  0  0  0
  9 30  1  0  0  0  0
 10 11  1  0  0  0  0
 10 31  1  0  0  0  0
 10 32  1  0  0  0  0
 11 33  1  0  0  0  0
 11 34  1  0  0  0  0
 12 14  2  0  0  0  0
 12 15  1  0  0  0  0
 13 21  2  0  0  0  0
 13 35  1  0  0  0  0
 14 16  1  0  0  0  0
 15 22  1  0  0  0  0
 15 23  2  0  0  0  0
 16 24  2  0  0  0  0
 17 18  1  0  0  0  0
 17 36  1  0  0  0  0
 17 37  1  0  0  0  0
 18 25  1  0  0  0  0
 18 38  1  0  0  0  0
 19 20  1  0  0  0  0
 19 39  1  0  0  0  0
 19 40  1  0  0  0  0
 20 41  1  0  0  0  0
 20 42  1  0  0  0  0
 21 22  1  0  0  0  0
 21 26  1  0  0  0  0
 23 24  1  0  0  0  0
 23 43  1  0  0  0  0
 25 44  1  0  0  0  0
 25 45  1  0  0  0  0
 25 46  1  0  0  0  0
 27 47  1  0  0  0  0
 27 48  1  0  0  0  0
 27 49  1  0  0  0  0
M  END
>  <DRUGBANK_ID>
DB01044

>  <SECONDARY_ACCESSION_NUMBERS>
APRD00996

>  <COMMON_NAME>
Gatifloxacin

>  <CAS_NUMBER>
112811-59-3

>  <UNII>
81485Y3A9A

>  <SYNONYMS>
1-Cyclopropyl-1,4-dihydro-6-fluoro-8-methoxy-7-(3-methyl-1-piperazinyl)-4-oxo-3-quinolinecarboxylic acid; 1-cyclopropyl-6-fluoro- 8-methoxy-7-(3-methylpiperazin-1-yl)- 4-oxo-quinoline-3-carboxylic acid; Gatifloxacin; Gatifloxacin anhydrous; Gatifloxacine; Gatifloxacino; Gatifloxacinum

$$$$
