
 OpenBabel10282417072D

 49 52  0  0  0  0  0  0  0  0999 V2000
    2.8452   -0.9219    0.0000 C   0  0  0  0  0  0  0  0  0  0  0  0
    2.8452   -0.0969    0.0000 N   0  0  0  0  0  0  0  0  0  0  0  0
    3.5465    0.3156    0.0000 C   0  0  0  0  0  0  0  0  0  0  0  0
    4.2890   -0.0969    0.0000 C   0  0  0  0  0  0  0  0  0  0  0  0
    4.2890   -0.9219    0.0000 C   0  0  0  0  0  0  0  0  0  0  0  0
    3.5465   -1.3344    0.0000 C   0  0  0  0  0  0  0  0  0  0  0  0
    2.1440   -1.3344    0.0000 C   0  0  0  0  0  0  0  0  0  0  0  0
    1.4015   -0.9219    0.0000 N   0  0  0  0  0  0  0  0  0  0  0  0
    1.4015   -0.0969    0.0000 C   0  0  2  0  0  0  0  0  0  0  0  0
    2.1440    0.3156    0.0000 C   0  0  0  0  0  0  0  0  0  0  0  0
    0.6590   -1.3344    0.0000 C   0  0  1  0  0  0  0  0  0  0  0  0
   -0.0423   -0.9219    0.0000 C   0  0  0  0  0  0  0  0  0  0  0  0
   -0.0423   -0.0969    0.0000 C   0  0  0  0  0  0  0  0  0  0  0  0
    0.6590    0.3156    0.0000 O   0  0  0  0  0  0  0  0  0  0  0  0
    2.1440   -2.1594    0.0000 O   0  0  0  0  0  0  0  0  0  0  0  0
    3.5465   -2.1594    0.0000 O   0  0  0  0  0  0  0  0  0  0  0  0
    4.9902   -1.3344    0.0000 O   0  0  0  0  0  0  0  0  0  0  0  0
    4.9902    0.3156    0.0000 C   0  0  0  0  0  0  0  0  0  0  0  0
    5.6914   -0.0969    0.0000 N   0  0  0  0  0  0  0  0  0  0  0  0
    4.9902    1.1406    0.0000 O   0  0  0  0  0  0  0  0  0  0  0  0
    6.3926    0.3156    0.0000 C   0  0  0  0  0  0  0  0  0  0  0  0
    7.0940   -0.0969    0.0000 C   0  0  0  0  0  0  0  0  0  0  0  0
    7.7952    0.3156    0.0000 C   0  0  0  0  0  0  0  0  0  0  0  0
    8.5376   -0.0969    0.0000 C   0  0  0  0  0  0  0  0  0  0  0  0
    8.5376   -0.9219    0.0000 C   0  0  0  0  0  0  0  0  0  0  0  0
    7.8365   -1.3344    0.0000 C   0  0  0  0  0  0  0  0  0  0  0  0
    7.0940   -0.9219    0.0000 C   0  0  0  0  0  0  0  0  0  0  0  0
    6.3926   -1.3344    0.0000 F   0  0  0  0  0  0  0  0  0  0  0  0
    9.2390   -1.3344    0.0000 F   0  0  0  0  0  0  0  0  0  0  0  0
    1.4015    0.7281    0.0000 H   0  0  0  0  0  0  0  0  0  0  0  0
    0.6488   -2.1593    0.0000 C   0  0  0  0  0  0  0  0  0  0  0  0
    3.5338    1.3475    0.0000 H   0  0  0  0  0  0  0  0  0  0  0  0
    2.1572    1.3855    0.0000 H   0  0  0  0  0  0  0  0  0  0  0  0
    3.0761    0.8411    0.0000 H   0  0  0  0  0  0  0  0  0  0  0  0
    1.5778   -1.8827    0.0000 H   0  0  0  0  0  0  0  0  0  0  0  0
   -0.9711   -1.4531    0.0000 H   0  0  0  0  0  0  0  0  0  0  0  0
   -0.9679   -0.3850    0.0000 H   0  0  0  0  0  0  0  0  0  0  0  0
   -0.9711    0.4343    0.0000 H   0  0  0  0  0  0  0  0  0  0  0  0
   -0.0488    0.9731    0.0000 H   0  0  0  0  0  0  0  0  0  0  0  0
    2.7350   -2.6279    0.0000 H   0  0  0  0  0  0  0  0  0  0  0  0
    5.6914   -1.0814    0.0000 H   0  0  0  0  0  0  0  0  0  0  0  0
    6.3925    1.3856    0.0000 H   0  0  0  0  0  0  0  0  0  0  0  0
    7.3214    0.8469    0.0000 H   0  0  0  0  0  0  0  0  0  0  0  0
    7.7825    1.3475    0.0000 H   0  0  0  0  0  0  0  0  0  0  0  0
    9.4271    0.4264    0.0000 H   0  0  0  0  0  0  0  0  0  0  0  0
    7.8493   -2.3663    0.0000 H   0  0  0  0  0  0  0  0  0  0  0  0
   -0.2844   -2.6828    0.0000 H   0  0  0  0  0  0  0  0  0  0  0  0
    1.5688   -2.7057    0.0000 H   0  0  0  0  0  0  0  0  0  0  0  0
    0.6356   -3.2292    0.0000 H   0  0  0  0  0  0  0  0  0  0  0  0
  1  2  1  0  0  0  0
  1  6  2  0  0  0  0
  1  7  1  0  0  0  0
  2  3  1  0  0  0  0
  2 10  1  0  0  0  0
  3  4  2  0  0  0  0
  3 32  1  0  0  0  0
  4  5  1  0  0  0  0
  4 18  1  0  0  0  0
  5  6  1  0  0  0  0
  5 17  2  0  0  0  0
  6 16  1  0  0  0  0
  7  8  1  0  0  0  0
  7 15  2  0  0  0  0
  8  9  1  0  0  0  0
  8 11  1  0  0  0  0
  9 10  1  0  0  0  0
  9 14  1  0  0  0  0
  9 30  1  6  0  0  0
 10 33  1  0  0  0  0
 10 34  1  0  0  0  0
 11 12  1  0  0  0  0
 11 31  1  0  0  0  0
 11 35  1  1  0  0  0
 12 13  1  0  0  0  0
 12 36  1  0  0  0  0
 12 37  1  0  0  0  0
 13 14  1  0  0  0  0
 13 38  1  0  0  0  0
 13 39  1  0  0  0  0
 16 40  1  0  0  0  0
 18 19  1  0  0  0  0
 18 20  2  0  0  0  0
 19 21  1  0  0  0  0
 19 41  1  0  0  0  0
 21 22  1  0  0  0  0
 21 42  1  0  0  0  0
 21 43  1  0  0  0  0
 22 23  2  0  0  0  0
 22 27  1  0  0  0  0
 23 24  1  0  0  0  0
 23 44  1  0  0  0  0
 24 25  2  0  0  0  0
 24 45  1  0  0  0  0
 25 26  1  0  0  0  0
 25 29  1  0  0  0  0
 26 27  2  0  0  0  0
 26 46  1  0  0  0  0
 27 28  1  0  0  0  0
 31 47  1  0  0  0  0
 31 48  1  0  0  0  0
 31 49  1  0  0  0  0
M  END
>  <DRUGBANK_ID>
DB08930

>  <COMMON_NAME>
Dolutegravir

>  <CAS_NUMBER>
1051375-16-6

>  <UNII>
DKO1W9H7M1

>  <SYNONYMS>
Dolutegravir

$$$$
