
 OpenBabel10282417072D

 41 43  0  0  0  0  0  0  0  0999 V2000
    1.2674   -2.6117    0.0000 O   0  0  0  0  0  0  0  0  0  0  0  0
   -1.0502    0.3361    0.0000 C   0  0  0  0  0  0  0  0  0  0  0  0
   -0.6560   -1.2712    0.0000 C   0  0  3  0  0  0  0  0  0  0  0  0
   -0.4425   -0.4744    0.0000 C   0  0  3  0  0  0  0  0  0  0  0  0
   -2.0848   -2.0961    0.0000 C   0  0  0  0  0  0  0  0  0  0  0  0
   -2.4974   -1.3817    0.0000 C   0  0  0  0  0  0  0  0  0  0  0  0
    1.0685   -1.1004    0.0000 C   0  0  0  0  0  0  0  0  0  0  0  0
    0.8550   -1.8973    0.0000 C   0  0  0  0  0  0  0  0  0  0  0  0
   -0.9640    1.1564    0.0000 C   0  0  0  0  0  0  0  0  0  0  0  0
   -1.8039    0.6715    0.0000 C   0  0  0  0  0  0  0  0  0  0  0  0
   -0.8696   -2.0681    0.0000 C   0  0  0  0  0  0  0  0  0  0  0  0
    1.7829   -0.6879    0.0000 C   0  0  0  0  0  0  0  0  0  0  0  0
    1.7829    0.1369    0.0000 C   0  0  0  0  0  0  0  0  0  0  0  0
    2.4974    0.5493    0.0000 C   0  0  0  0  0  0  0  0  0  0  0  0
    1.0685    0.5493    0.0000 C   0  0  0  0  0  0  0  0  0  0  0  0
    2.4974    1.3742    0.0000 C   0  0  0  0  0  0  0  0  0  0  0  0
    1.0685    1.3742    0.0000 C   0  0  0  0  0  0  0  0  0  0  0  0
    1.7829    1.7867    0.0000 C   0  0  0  0  0  0  0  0  0  0  0  0
    1.7829    2.6117    0.0000 C   0  0  0  0  0  0  0  0  0  0  0  0
   -1.4777   -0.2036    0.0000 H   0  0  0  0  0  0  0  0  0  0  0  0
   -2.3617   -3.1297    0.0000 H   0  0  0  0  0  0  0  0  0  0  0  0
   -3.1456   -2.2359    0.0000 H   0  0  0  0  0  0  0  0  0  0  0  0
   -3.5145   -1.0496    0.0000 H   0  0  0  0  0  0  0  0  0  0  0  0
   -3.1713   -2.2128    0.0000 H   0  0  0  0  0  0  0  0  0  0  0  0
    0.0135    1.5916    0.0000 H   0  0  0  0  0  0  0  0  0  0  0  0
   -1.8297    1.7853    0.0000 H   0  0  0  0  0  0  0  0  0  0  0  0
   -0.8522    2.2205    0.0000 H   0  0  0  0  0  0  0  0  0  0  0  0
   -1.9159    1.7356    0.0000 H   0  0  0  0  0  0  0  0  0  0  0  0
   -2.6694    0.0424    0.0000 H   0  0  0  0  0  0  0  0  0  0  0  0
   -2.7815    1.1065    0.0000 H   0  0  0  0  0  0  0  0  0  0  0  0
   -1.9032   -2.3450    0.0000 H   0  0  0  0  0  0  0  0  0  0  0  0
   -0.1131   -2.8248    0.0000 H   0  0  0  0  0  0  0  0  0  0  0  0
   -1.1466   -3.1016    0.0000 H   0  0  0  0  0  0  0  0  0  0  0  0
    2.6766   -1.2039    0.0000 H   0  0  0  0  0  0  0  0  0  0  0  0
    3.3911    0.0332    0.0000 H   0  0  0  0  0  0  0  0  0  0  0  0
    0.1748    0.0333    0.0000 H   0  0  0  0  0  0  0  0  0  0  0  0
    3.3911    1.8902    0.0000 H   0  0  0  0  0  0  0  0  0  0  0  0
    0.1748    1.8902    0.0000 H   0  0  0  0  0  0  0  0  0  0  0  0
    2.7095    3.1467    0.0000 H   0  0  0  0  0  0  0  0  0  0  0  0
    0.8563    3.1467    0.0000 H   0  0  0  0  0  0  0  0  0  0  0  0
    1.7829    3.6817    0.0000 H   0  0  0  0  0  0  0  0  0  0  0  0
  1  8  2  0  0  0  0
  2  3  1  0  0  0  0
  2  4  1  0  0  0  0
  2  9  1  0  0  0  0
  2 10  1  0  0  0  0
  3  5  1  0  0  0  0
  3  8  1  0  0  0  0
  3 11  1  0  0  0  0
  4  6  1  0  0  0  0
  4  7  1  0  0  0  0
  4 20  1  0  0  0  0
  5  6  1  0  0  0  0
  5 21  1  0  0  0  0
  5 22  1  0  0  0  0
  6 23  1  0  0  0  0
  6 24  1  0  0  0  0
  7  8  1  0  0  0  0
  7 12  2  0  0  0  0
  9 25  1  0  0  0  0
  9 26  1  0  0  0  0
  9 27  1  0  0  0  0
 10 28  1  0  0  0  0
 10 29  1  0  0  0  0
 10 30  1  0  0  0  0
 11 31  1  0  0  0  0
 11 32  1  0  0  0  0
 11 33  1  0  0  0  0
 12 13  1  0  0  0  0
 12 34  1  0  0  0  0
 13 14  2  0  0  0  0
 13 15  1  0  0  0  0
 14 16  1  0  0  0  0
 14 35  1  0  0  0  0
 15 17  2  0  0  0  0
 15 36  1  0  0  0  0
 16 18  2  0  0  0  0
 16 37  1  0  0  0  0
 17 18  1  0  0  0  0
 17 38  1  0  0  0  0
 18 19  1  0  0  0  0
 19 39  1  0  0  0  0
 19 40  1  0  0  0  0
 19 41  1  0  0  0  0
M  END
>  <DRUGBANK_ID>
DB11219

>  <COMMON_NAME>
Enzacamene

>  <CAS_NUMBER>
36861-47-9

>  <UNII>
8I3XWY40L9

>  <SYNONYMS>
(+/-)-3-(p-methylbenzylidene)camphor; 3-(4-methylbenzylidene)camphor; 3-(p-Methylbenzylidene)-DL-camphor; 4-MBC; 4-methylbenzylidene camphor; enzacam√®ne; Enzacamene; Enzacamene D-L form; enzacameno; enzacamenum; Methyl benzylidene camphor

$$$$
