
 OpenBabel10282417072D

 61 63  0  0  0  0  0  0  0  0999 V2000
   -1.7861   -1.4598    0.0000 C   0  0  0  0  0  0  0  0  0  0  0  0
   -1.7861   -0.6347    0.0000 C   0  0  0  0  0  0  0  0  0  0  0  0
   -2.5006   -1.8722    0.0000 C   0  0  0  0  0  0  0  0  0  0  0  0
   -1.0717   -1.8722    0.0000 C   0  0  0  0  0  0  0  0  0  0  0  0
   -1.0717   -0.2222    0.0000 C   0  0  0  0  0  0  0  0  0  0  0  0
   -2.5006   -0.2222    0.0000 C   0  0  0  0  0  0  0  0  0  0  0  0
   -3.2151   -1.4598    0.0000 C   0  0  0  0  0  0  0  0  0  0  0  0
   -2.5006   -2.6972    0.0000 C   0  0  0  0  0  0  0  0  0  0  0  0
   -1.0717   -2.6972    0.0000 C   0  0  0  0  0  0  0  0  0  0  0  0
   -1.0717    0.6027    0.0000 C   0  0  3  0  0  0  0  0  0  0  0  0
   -3.2151   -0.6347    0.0000 C   0  0  0  0  0  0  0  0  0  0  0  0
   -1.7861   -3.1098    0.0000 C   0  0  0  0  0  0  0  0  0  0  0  0
   -1.7861    1.0152    0.0000 C   0  0  0  0  0  0  0  0  0  0  0  0
   -0.3572    1.0152    0.0000 C   0  0  0  0  0  0  0  0  0  0  0  0
   -1.7861    1.8402    0.0000 C   0  0  3  0  0  0  0  0  0  0  0  0
    0.3572    0.6027    0.0000 O   0  0  0  0  0  0  0  0  0  0  0  0
   -0.3572    1.8402    0.0000 O   0  0  0  0  0  0  0  0  0  0  0  0
   -1.1187    2.3251    0.0000 C   0  0  0  0  0  0  0  0  0  0  0  0
   -2.4536    2.3251    0.0000 O   0  0  0  0  0  0  0  0  0  0  0  0
    1.0716    1.0152    0.0000 C   0  0  0  0  0  0  0  0  0  0  0  0
   -1.3736    3.1098    0.0000 C   0  0  0  0  0  0  0  0  0  0  0  0
   -2.1986    3.1098    0.0000 C   0  0  0  0  0  0  0  0  0  0  0  0
    1.7861    0.6027    0.0000 C   0  0  0  0  0  0  0  0  0  0  0  0
    2.5006    1.0152    0.0000 N   0  0  0  0  0  0  0  0  0  0  0  0
    2.5006    1.8402    0.0000 C   0  0  0  0  0  0  0  0  0  0  0  0
    3.2151    0.6027    0.0000 C   0  0  0  0  0  0  0  0  0  0  0  0
    3.2151    2.2527    0.0000 C   0  0  0  0  0  0  0  0  0  0  0  0
    3.2151   -0.2222    0.0000 C   0  0  0  0  0  0  0  0  0  0  0  0
   -0.1780   -1.3562    0.0000 H   0  0  0  0  0  0  0  0  0  0  0  0
   -0.1450   -0.7572    0.0000 H   0  0  0  0  0  0  0  0  0  0  0  0
   -0.1451    0.3128    0.0000 H   0  0  0  0  0  0  0  0  0  0  0  0
   -2.5006    0.8098    0.0000 H   0  0  0  0  0  0  0  0  0  0  0  0
   -4.1088   -1.9759    0.0000 H   0  0  0  0  0  0  0  0  0  0  0  0
   -3.3944   -3.2132    0.0000 H   0  0  0  0  0  0  0  0  0  0  0  0
   -0.1779   -3.2131    0.0000 H   0  0  0  0  0  0  0  0  0  0  0  0
   -1.9984    0.0677    0.0000 H   0  0  0  0  0  0  0  0  0  0  0  0
   -4.1088   -0.1187    0.0000 H   0  0  0  0  0  0  0  0  0  0  0  0
   -1.7861   -4.1418    0.0000 H   0  0  0  0  0  0  0  0  0  0  0  0
   -2.7128    0.4802    0.0000 H   0  0  0  0  0  0  0  0  0  0  0  0
   -2.7127    1.5502    0.0000 H   0  0  0  0  0  0  0  0  0  0  0  0
   -0.8327    1.3544    0.0000 H   0  0  0  0  0  0  0  0  0  0  0  0
   -0.1011    1.9944    0.0000 H   0  0  0  0  0  0  0  0  0  0  0  0
   -0.3621    3.0817    0.0000 H   0  0  0  0  0  0  0  0  0  0  0  0
    1.0716    2.0852    0.0000 H   0  0  0  0  0  0  0  0  0  0  0  0
    1.9982    1.5502    0.0000 H   0  0  0  0  0  0  0  0  0  0  0  0
   -0.7446    3.9754    0.0000 H   0  0  0  0  0  0  0  0  0  0  0  0
   -1.8594    4.0632    0.0000 H   0  0  0  0  0  0  0  0  0  0  0  0
   -2.8275    3.9755    0.0000 H   0  0  0  0  0  0  0  0  0  0  0  0
   -1.7128    4.0632    0.0000 H   0  0  0  0  0  0  0  0  0  0  0  0
    1.7861   -0.4673    0.0000 H   0  0  0  0  0  0  0  0  0  0  0  0
    2.7127    0.0677    0.0000 H   0  0  0  0  0  0  0  0  0  0  0  0
    1.5740    2.3752    0.0000 H   0  0  0  0  0  0  0  0  0  0  0  0
    2.5006    2.9102    0.0000 H   0  0  0  0  0  0  0  0  0  0  0  0
    4.1417    1.1377    0.0000 H   0  0  0  0  0  0  0  0  0  0  0  0
    4.1417    0.0677    0.0000 H   0  0  0  0  0  0  0  0  0  0  0  0
    4.1417    1.7177    0.0000 H   0  0  0  0  0  0  0  0  0  0  0  0
    3.2151    3.3227    0.0000 H   0  0  0  0  0  0  0  0  0  0  0  0
    4.1418    2.7877    0.0000 H   0  0  0  0  0  0  0  0  0  0  0  0
    2.2885   -0.7572    0.0000 H   0  0  0  0  0  0  0  0  0  0  0  0
    4.1417   -0.7572    0.0000 H   0  0  0  0  0  0  0  0  0  0  0  0
    3.2151   -1.2922    0.0000 H   0  0  0  0  0  0  0  0  0  0  0  0
  1  2  1  0  0  0  0
  1  3  2  0  0  0  0
  1  4  1  0  0  0  0
  2  5  1  0  0  0  0
  2  6  2  0  0  0  0
  3  7  1  0  0  0  0
  3  8  1  0  0  0  0
  4  9  2  0  0  0  0
  4 29  1  0  0  0  0
  5 10  1  0  0  0  0
  5 30  1  0  0  0  0
  5 31  1  0  0  0  0
  6 11  1  0  0  0  0
  6 32  1  0  0  0  0
  7 11  2  0  0  0  0
  7 33  1  0  0  0  0
  8 12  2  0  0  0  0
  8 34  1  0  0  0  0
  9 12  1  0  0  0  0
  9 35  1  0  0  0  0
 10 13  1  0  0  0  0
 10 14  1  0  0  0  0
 10 36  1  0  0  0  0
 11 37  1  0  0  0  0
 12 38  1  0  0  0  0
 13 15  1  0  0  0  0
 13 39  1  0  0  0  0
 13 40  1  0  0  0  0
 14 16  1  0  0  0  0
 14 17  2  0  0  0  0
 15 18  1  0  0  0  0
 15 19  1  0  0  0  0
 15 41  1  0  0  0  0
 16 20  1  0  0  0  0
 18 21  1  0  0  0  0
 18 42  1  0  0  0  0
 18 43  1  0  0  0  0
 19 22  1  0  0  0  0
 20 23  1  0  0  0  0
 20 44  1  0  0  0  0
 20 45  1  0  0  0  0
 21 22  1  0  0  0  0
 21 46  1  0  0  0  0
 21 47  1  0  0  0  0
 22 48  1  0  0  0  0
 22 49  1  0  0  0  0
 23 24  1  0  0  0  0
 23 50  1  0  0  0  0
 23 51  1  0  0  0  0
 24 25  1  0  0  0  0
 24 26  1  0  0  0  0
 25 27  1  0  0  0  0
 25 52  1  0  0  0  0
 25 53  1  0  0  0  0
 26 28  1  0  0  0  0
 26 54  1  0  0  0  0
 26 55  1  0  0  0  0
 27 56  1  0  0  0  0
 27 57  1  0  0  0  0
 27 58  1  0  0  0  0
 28 59  1  0  0  0  0
 28 60  1  0  0  0  0
 28 61  1  0  0  0  0
M  END
>  <DRUGBANK_ID>
DB13588

>  <COMMON_NAME>
Naftidrofuryl

>  <CAS_NUMBER>
31329-57-4

>  <UNII>
42H8PQ0NMJ

>  <SYNONYMS>
Nafronyl; Naftidrofurilo; Naftidrofuryl; Naftidrofurylum

$$$$
