1518
 OpenBabel10282417072D

 56 58  0  0  0  0  0  0  0  0999 V2000
    2.8876    3.0780    0.0000 O   0  0  0  0  0  0  0  0  0  0  0  0
    3.8558    3.8905    0.0000 O   0  0  0  0  0  0  0  0  0  0  0  0
    3.4106   -1.3491    0.0000 O   0  0  0  0  0  0  0  0  0  0  0  0
    4.1251    0.7135    0.0000 N   0  0  0  0  0  0  0  0  0  0  0  0
    4.1251    2.3635    0.0000 C   0  0  0  0  0  0  0  0  0  0  0  0
    3.4106    1.9510    0.0000 C   0  0  0  0  0  0  0  0  0  0  0  0
    4.8396    1.9510    0.0000 C   0  0  0  0  0  0  0  0  0  0  0  0
    3.4106    1.1260    0.0000 C   0  0  0  0  0  0  0  0  0  0  0  0
    4.8396    1.1260    0.0000 C   0  0  0  0  0  0  0  0  0  0  0  0
    4.7571    2.8938    0.0000 C   0  0  0  0  0  0  0  0  0  0  0  0
    3.7126    3.0780    0.0000 C   0  0  0  0  0  0  0  0  0  0  0  0
    4.1251   -0.1115    0.0000 C   0  0  0  0  0  0  0  0  0  0  0  0
    4.6138    3.7063    0.0000 C   0  0  0  0  0  0  0  0  0  0  0  0
    5.5323    2.6117    0.0000 C   0  0  0  0  0  0  0  0  0  0  0  0
    3.4106   -0.5241    0.0000 C   0  0  0  0  0  0  0  0  0  0  0  0
    5.2458    4.2366    0.0000 C   0  0  0  0  0  0  0  0  0  0  0  0
    6.1644    3.1420    0.0000 C   0  0  0  0  0  0  0  0  0  0  0  0
    6.0211    3.9545    0.0000 C   0  0  0  0  0  0  0  0  0  0  0  0
    2.4751    3.7925    0.0000 C   0  0  0  0  0  0  0  0  0  0  0  0
    2.6961   -1.7616    0.0000 C   0  0  0  0  0  0  0  0  0  0  0  0
    1.6500    3.7925    0.0000 C   0  0  0  0  0  0  0  0  0  0  0  0
    2.6961   -2.5866    0.0000 C   0  0  0  0  0  0  0  0  0  0  0  0
    3.4106   -2.9991    0.0000 C   0  0  0  0  0  0  0  0  0  0  0  0
    1.9816   -2.9991    0.0000 C   0  0  0  0  0  0  0  0  0  0  0  0
    3.4106   -3.8241    0.0000 C   0  0  0  0  0  0  0  0  0  0  0  0
    1.9816   -3.8241    0.0000 C   0  0  0  0  0  0  0  0  0  0  0  0
    2.6961   -4.2366    0.0000 C   0  0  0  0  0  0  0  0  0  0  0  0
    2.4840    2.4860    0.0000 H   0  0  0  0  0  0  0  0  0  0  0  0
    2.4840    1.4160    0.0000 H   0  0  0  0  0  0  0  0  0  0  0  0
    5.7662    2.4860    0.0000 H   0  0  0  0  0  0  0  0  0  0  0  0
    5.7662    1.4160    0.0000 H   0  0  0  0  0  0  0  0  0  0  0  0
    2.4840    0.5910    0.0000 H   0  0  0  0  0  0  0  0  0  0  0  0
    2.4840    1.6610    0.0000 H   0  0  0  0  0  0  0  0  0  0  0  0
    5.7662    0.5910    0.0000 H   0  0  0  0  0  0  0  0  0  0  0  0
    5.7662    1.6610    0.0000 H   0  0  0  0  0  0  0  0  0  0  0  0
    5.0518   -0.6465    0.0000 H   0  0  0  0  0  0  0  0  0  0  0  0
    4.1252   -1.1815    0.0000 H   0  0  0  0  0  0  0  0  0  0  0  0
    3.6440    4.0592    0.0000 H   0  0  0  0  0  0  0  0  0  0  0  0
    5.7115    1.5954    0.0000 H   0  0  0  0  0  0  0  0  0  0  0  0
    2.4839    0.0109    0.0000 H   0  0  0  0  0  0  0  0  0  0  0  0
    3.4105    0.5459    0.0000 H   0  0  0  0  0  0  0  0  0  0  0  0
    5.0666    5.2529    0.0000 H   0  0  0  0  0  0  0  0  0  0  0  0
    7.1342    2.7890    0.0000 H   0  0  0  0  0  0  0  0  0  0  0  0
    6.8116    4.6179    0.0000 H   0  0  0  0  0  0  0  0  0  0  0  0
    3.0101    4.7191    0.0000 H   0  0  0  0  0  0  0  0  0  0  0  0
    1.9401    4.7191    0.0000 H   0  0  0  0  0  0  0  0  0  0  0  0
    1.7695   -1.2266    0.0000 H   0  0  0  0  0  0  0  0  0  0  0  0
    1.7695   -2.2966    0.0000 H   0  0  0  0  0  0  0  0  0  0  0  0
    1.1150    4.7191    0.0000 H   0  0  0  0  0  0  0  0  0  0  0  0
    1.1150    2.8659    0.0000 H   0  0  0  0  0  0  0  0  0  0  0  0
    0.5800    3.7925    0.0000 H   0  0  0  0  0  0  0  0  0  0  0  0
    4.3043   -2.4831    0.0000 H   0  0  0  0  0  0  0  0  0  0  0  0
    1.0879   -2.4831    0.0000 H   0  0  0  0  0  0  0  0  0  0  0  0
    4.3043   -4.3401    0.0000 H   0  0  0  0  0  0  0  0  0  0  0  0
    1.0879   -4.3401    0.0000 H   0  0  0  0  0  0  0  0  0  0  0  0
    2.6961   -5.2686    0.0000 H   0  0  0  0  0  0  0  0  0  0  0  0
  1 11  1  0  0  0  0
  1 19  1  0  0  0  0
  2 11  2  0  0  0  0
  3 15  1  0  0  0  0
  3 20  1  0  0  0  0
  4  8  1  0  0  0  0
  4  9  1  0  0  0  0
  4 12  1  0  0  0  0
  5  6  1  0  0  0  0
  5  7  1  0  0  0  0
  5 10  1  0  0  0  0
  5 11  1  0  0  0  0
  6  8  1  0  0  0  0
  6 28  1  0  0  0  0
  6 29  1  0  0  0  0
  7  9  1  0  0  0  0
  7 30  1  0  0  0  0
  7 31  1  0  0  0  0
  8 32  1  0  0  0  0
  8 33  1  0  0  0  0
  9 34  1  0  0  0  0
  9 35  1  0  0  0  0
 10 13  2  0  0  0  0
 10 14  1  0  0  0  0
 12 15  1  0  0  0  0
 12 36  1  0  0  0  0
 12 37  1  0  0  0  0
 13 16  1  0  0  0  0
 13 38  1  0  0  0  0
 14 17  2  0  0  0  0
 14 39  1  0  0  0  0
 15 40  1  0  0  0  0
 15 41  1  0  0  0  0
 16 18  2  0  0  0  0
 16 42  1  0  0  0  0
 17 18  1  0  0  0  0
 17 43  1  0  0  0  0
 18 44  1  0  0  0  0
 19 21  1  0  0  0  0
 19 45  1  0  0  0  0
 19 46  1  0  0  0  0
 20 22  1  0  0  0  0
 20 47  1  0  0  0  0
 20 48  1  0  0  0  0
 21 49  1  0  0  0  0
 21 50  1  0  0  0  0
 21 51  1  0  0  0  0
 22 23  2  0  0  0  0
 22 24  1  0  0  0  0
 23 25  1  0  0  0  0
 23 52  1  0  0  0  0
 24 26  2  0  0  0  0
 24 53  1  0  0  0  0
 25 27  2  0  0  0  0
 25 54  1  0  0  0  0
 26 27  1  0  0  0  0
 26 55  1  0  0  0  0
 27 56  1  0  0  0  0
M  END
>  <DRUGBANK_ID>
DB01518

>  <COMMON_NAME>
Benzethidine

>  <CAS_NUMBER>
3691-78-9

>  <UNII>
X0I74BAR02

>  <SYNONYMS>
Benzethidine

$$$$
