
 OpenBabel10282417072D

 16 16  0  0  0  0  0  0  0  0999 V2000
   -0.7146    0.6188    0.0000 C   0  0  0  0  0  0  0  0  0  0  0  0
   -1.4290    0.2062    0.0000 C   0  0  0  0  0  0  0  0  0  0  0  0
   -1.4290   -0.6188    0.0000 C   0  0  0  0  0  0  0  0  0  0  0  0
   -0.7146   -1.0313    0.0000 C   0  0  0  0  0  0  0  0  0  0  0  0
    0.0000   -0.6188    0.0000 C   0  0  0  0  0  0  0  0  0  0  0  0
    0.0000    0.2062    0.0000 C   0  0  0  0  0  0  0  0  0  0  0  0
   -0.7146    1.4439    0.0000 N   0  3  0  0  0  0  0  0  0  0  0  0
   -1.4290    1.8564    0.0000 O   0  0  0  0  0  0  0  0  0  0  0  0
    0.0000    1.8564    0.0000 O   0  5  0  0  0  0  0  0  0  0  0  0
    0.7146   -1.0313    0.0000 N   0  3  0  0  0  0  0  0  0  0  0  0
    1.4291   -0.6188    0.0000 O   0  5  0  0  0  0  0  0  0  0  0  0
    0.7146   -1.8564    0.0000 O   0  0  0  0  0  0  0  0  0  0  0  0
   -2.3228    0.7221    0.0000 H   0  0  0  0  0  0  0  0  0  0  0  0
   -2.3227   -1.1348    0.0000 H   0  0  0  0  0  0  0  0  0  0  0  0
   -0.7147   -2.0633    0.0000 H   0  0  0  0  0  0  0  0  0  0  0  0
    0.8937    0.7222    0.0000 H   0  0  0  0  0  0  0  0  0  0  0  0
  1  2  1  0  0  0  0
  1  6  2  0  0  0  0
  1  7  1  0  0  0  0
  2  3  2  0  0  0  0
  2 13  1  0  0  0  0
  3  4  1  0  0  0  0
  3 14  1  0  0  0  0
  4  5  2  0  0  0  0
  4 15  1  0  0  0  0
  5  6  1  0  0  0  0
  5 10  1  0  0  0  0
  6 16  1  0  0  0  0
  7  8  2  0  0  0  0
  7  9  1  0  0  0  0
 10 11  1  0  0  0  0
 10 12  2  0  0  0  0
M  CHG  4   7   1   9  -1  10   1  11  -1
M  END
>  <DRUGBANK_ID>
DB02680

>  <SECONDARY_ACCESSION_NUMBERS>
EXPT02350

>  <COMMON_NAME>
1,3-Dinitrobenzene

>  <CAS_NUMBER>
99-65-0

>  <UNII>
DK8B627BU0

>  <SYNONYMS>
1,3-dinitro-benzene; 2,4-Dinitrobenzene; m-Dinitrobenzene; m-DNB; meta-Dinitrobenzene

$$$$
