D4M
 OpenBabel10282417072D

 33 34  0  0  0  0  0  0  0  0999 V2000
   -1.0880    3.8128    0.0000 O   0  0  0  0  0  0  0  0  0  0  0  0
   -1.0880    2.9878    0.0000 P   0  0  0  0  0  0  0  0  0  0  0  0
   -1.9130    2.9878    0.0000 O   0  0  0  0  0  0  0  0  0  0  0  0
   -0.2630    2.9878    0.0000 O   0  0  0  0  0  0  0  0  0  0  0  0
   -1.0880    2.1628    0.0000 O   0  0  0  0  0  0  0  0  0  0  0  0
   -0.3736    1.7503    0.0000 C   0  0  0  0  0  0  0  0  0  0  0  0
   -0.3736    0.9253    0.0000 C   0  0  1  0  0  0  0  0  0  0  0  0
    0.2939    0.4404    0.0000 O   0  0  0  0  0  0  0  0  0  0  0  0
   -1.0410    0.4404    0.0000 C   0  0  0  0  0  0  0  0  0  0  0  0
   -0.7861   -0.3442    0.0000 C   0  0  0  0  0  0  0  0  0  0  0  0
    0.0389   -0.3442    0.0000 C   0  0  2  0  0  0  0  0  0  0  0  0
    0.5239   -1.0117    0.0000 N   0  0  0  0  0  0  0  0  0  0  0  0
    1.3443   -0.9254    0.0000 C   0  0  0  0  0  0  0  0  0  0  0  0
    1.8293   -1.5929    0.0000 C   0  0  0  0  0  0  0  0  0  0  0  0
    2.6497   -1.5066    0.0000 C   0  0  0  0  0  0  0  0  0  0  0  0
    1.4937   -2.3465    0.0000 C   0  0  0  0  0  0  0  0  0  0  0  0
    1.9786   -3.0140    0.0000 O   0  0  0  0  0  0  0  0  0  0  0  0
    0.6732   -2.4328    0.0000 N   0  0  0  0  0  0  0  0  0  0  0  0
    0.1883   -1.7653    0.0000 C   0  0  0  0  0  0  0  0  0  0  0  0
   -0.6322   -1.8516    0.0000 O   0  0  0  0  0  0  0  0  0  0  0  0
    0.1467    1.1904    0.0000 H   0  0  0  0  0  0  0  0  0  0  0  0
    0.6157   -0.2529    0.0000 H   0  0  0  0  0  0  0  0  0  0  0  0
   -0.2480    4.2978    0.0000 H   0  0  0  0  0  0  0  0  0  0  0  0
    0.2220    2.1478    0.0000 H   0  0  0  0  0  0  0  0  0  0  0  0
    0.5531    2.2853    0.0000 H   0  0  0  0  0  0  0  0  0  0  0  0
    0.5530    1.2153    0.0000 H   0  0  0  0  0  0  0  0  0  0  0  0
   -2.0225    0.7593    0.0000 H   0  0  0  0  0  0  0  0  0  0  0  0
   -1.3927   -1.1791    0.0000 H   0  0  0  0  0  0  0  0  0  0  0  0
    1.7640    0.0174    0.0000 H   0  0  0  0  0  0  0  0  0  0  0  0
    3.2787   -2.3722    0.0000 H   0  0  0  0  0  0  0  0  0  0  0  0
    3.0848   -0.5291    0.0000 H   0  0  0  0  0  0  0  0  0  0  0  0
    3.7138   -1.3947    0.0000 H   0  0  0  0  0  0  0  0  0  0  0  0
    0.2728   -3.3322    0.0000 H   0  0  0  0  0  0  0  0  0  0  0  0
  1  2  1  0  0  0  0
  1 23  1  0  0  0  0
  2  3  2  0  0  0  0
  2  4  1  0  0  0  0
  2  5  1  0  0  0  0
  4 24  1  0  0  0  0
  5  6  1  0  0  0  0
  6 25  1  0  0  0  0
  6 26  1  0  0  0  0
  7  6  1  0  0  0  0
  7  8  1  0  0  0  0
  7  9  1  0  0  0  0
  7 21  1  6  0  0  0
  8 11  1  0  0  0  0
  9 10  2  0  0  0  0
  9 27  1  0  0  0  0
 10 11  1  0  0  0  0
 10 28  1  0  0  0  0
 11 12  1  0  0  0  0
 11 22  1  6  0  0  0
 12 13  1  0  0  0  0
 12 19  1  0  0  0  0
 13 14  2  0  0  0  0
 13 29  1  0  0  0  0
 14 15  1  0  0  0  0
 14 16  1  0  0  0  0
 15 30  1  0  0  0  0
 15 31  1  0  0  0  0
 15 32  1  0  0  0  0
 16 17  2  0  0  0  0
 16 18  1  0  0  0  0
 18 19  1  0  0  0  0
 18 33  1  0  0  0  0
 19 20  2  0  0  0  0
M  END
>  <DRUGBANK_ID>
DB04672

>  <COMMON_NAME>
Cyclic 3',5'-thymidine monophosphate

>  <CAS_NUMBER>
6453-60-7

>  <UNII>
Q77PE87U4K

>  <SYNONYMS>
3',5'-Cyclic dTMP; cTMP; Cyclic TMP; Thymidine cyclophosphate

$$$$
