
 OpenBabel10282417072D

 81 84  0  0  1  0  0  0  0  0999 V2000
    6.5823   -1.3472    0.0000 C   0  0  0  0  0  0  0  0  0  0  0  0
    7.4073   -1.3472    0.0000 N   0  0  0  0  0  0  0  0  0  0  0  0
    7.8198   -2.0617    0.0000 C   0  0  1  0  0  0  0  0  0  0  0  0
    7.4073   -2.7761    0.0000 C   0  0  0  0  0  0  0  0  0  0  0  0
    8.6448   -2.0617    0.0000 C   0  0  0  0  0  0  0  0  0  0  0  0
    9.0573   -1.3472    0.0000 O   0  0  0  0  0  0  0  0  0  0  0  0
    9.0573   -2.7761    0.0000 N   0  0  0  0  0  0  0  0  0  0  0  0
    9.8823   -2.7761    0.0000 C   0  0  2  0  0  0  0  0  0  0  0  0
   10.2948   -3.4906    0.0000 C   0  0  0  0  0  0  0  0  0  0  0  0
    9.8823   -4.2051    0.0000 O   0  0  0  0  0  0  0  0  0  0  0  0
   11.1198   -3.4906    0.0000 N   0  0  0  0  0  0  0  0  0  0  0  0
   11.6048   -2.8232    0.0000 C   0  0  0  0  0  0  0  0  0  0  0  0
   12.3894   -3.0781    0.0000 C   0  0  2  0  0  0  0  0  0  0  0  0
   12.3894   -3.9031    0.0000 C   0  0  0  0  0  0  0  0  0  0  0  0
   11.6048   -4.1581    0.0000 C   0  0  1  0  0  0  0  0  0  0  0  0
   11.3498   -4.9427    0.0000 C   0  0  0  0  0  0  0  0  0  0  0  0
   10.5429   -5.1142    0.0000 O   0  0  0  0  0  0  0  0  0  0  0  0
   11.9019   -5.5558    0.0000 N   0  0  0  0  0  0  0  0  0  0  0  0
   12.7088   -5.3842    0.0000 C   0  0  2  0  0  0  0  0  0  0  0  0
   12.9638   -4.5996    0.0000 C   0  0  0  0  0  0  0  0  0  0  0  0
   13.7707   -4.4281    0.0000 C   0  0  0  0  0  0  0  0  0  0  0  0
   14.3228   -5.0412    0.0000 C   0  0  0  0  0  0  0  0  0  0  0  0
   14.0678   -5.8258    0.0000 C   0  0  0  0  0  0  0  0  0  0  0  0
   14.6199   -6.4389    0.0000 C   0  0  0  0  0  0  0  0  0  0  0  0
   14.3649   -7.2235    0.0000 C   0  0  0  0  0  0  0  0  0  0  0  0
   13.5580   -7.3951    0.0000 C   0  0  0  0  0  0  0  0  0  0  0  0
   13.0059   -6.7820    0.0000 C   0  0  0  0  0  0  0  0  0  0  0  0
   13.2609   -5.9973    0.0000 C   0  0  0  0  0  0  0  0  0  0  0  0
   13.0568   -2.5932    0.0000 O   0  0  0  0  0  0  0  0  0  0  0  0
   13.8105   -2.9287    0.0000 C   0  0  0  0  0  0  0  0  0  0  0  0
   14.4779   -2.4438    0.0000 C   0  0  0  0  0  0  0  0  0  0  0  0
   15.2316   -2.7794    0.0000 C   0  0  0  0  0  0  0  0  0  0  0  0
   15.3179   -3.5999    0.0000 C   0  0  0  0  0  0  0  0  0  0  0  0
   14.6504   -4.0848    0.0000 C   0  0  0  0  0  0  0  0  0  0  0  0
   13.8967   -3.7492    0.0000 C   0  0  0  0  0  0  0  0  0  0  0  0
   10.2948   -2.0617    0.0000 C   0  0  0  0  0  0  0  0  0  0  0  0
   11.0093   -2.4742    0.0000 C   0  0  0  0  0  0  0  0  0  0  0  0
    9.5804   -1.6492    0.0000 C   0  0  0  0  0  0  0  0  0  0  0  0
   10.7073   -1.3472    0.0000 C   0  0  0  0  0  0  0  0  0  0  0  0
    6.0473   -0.4206    0.0000 H   0  0  0  0  0  0  0  0  0  0  0  0
    6.0473   -2.2738    0.0000 H   0  0  0  0  0  0  0  0  0  0  0  0
    5.5123   -1.3472    0.0000 H   0  0  0  0  0  0  0  0  0  0  0  0
    7.9173   -0.4639    0.0000 H   0  0  0  0  0  0  0  0  0  0  0  0
    6.7498   -2.0617    0.0000 H   0  0  0  0  0  0  0  0  0  0  0  0
    6.3373   -2.7761    0.0000 H   0  0  0  0  0  0  0  0  0  0  0  0
    7.9423   -3.7028    0.0000 H   0  0  0  0  0  0  0  0  0  0  0  0
    6.8723   -3.7027    0.0000 H   0  0  0  0  0  0  0  0  0  0  0  0
    8.5651   -3.6287    0.0000 H   0  0  0  0  0  0  0  0  0  0  0  0
    9.3473   -3.7027    0.0000 H   0  0  0  0  0  0  0  0  0  0  0  0
   11.2742   -1.8056    0.0000 H   0  0  0  0  0  0  0  0  0  0  0  0
   12.3614   -2.0666    0.0000 H   0  0  0  0  0  0  0  0  0  0  0  0
   12.2220   -2.0213    0.0000 H   0  0  0  0  0  0  0  0  0  0  0  0
   13.2551   -4.5320    0.0000 H   0  0  0  0  0  0  0  0  0  0  0  0
   12.2221   -4.9599    0.0000 H   0  0  0  0  0  0  0  0  0  0  0  0
   12.3614   -4.9147    0.0000 H   0  0  0  0  0  0  0  0  0  0  0  0
   11.5977   -6.4921    0.0000 H   0  0  0  0  0  0  0  0  0  0  0  0
   11.9928   -4.5890    0.0000 H   0  0  0  0  0  0  0  0  0  0  0  0
   12.2479   -3.8044    0.0000 H   0  0  0  0  0  0  0  0  0  0  0  0
   13.2945   -3.5820    0.0000 H   0  0  0  0  0  0  0  0  0  0  0  0
   14.1013   -3.4105    0.0000 H   0  0  0  0  0  0  0  0  0  0  0  0
   14.8173   -4.2056    0.0000 H   0  0  0  0  0  0  0  0  0  0  0  0
   15.3694   -4.8187    0.0000 H   0  0  0  0  0  0  0  0  0  0  0  0
   15.0387   -5.8364    0.0000 H   0  0  0  0  0  0  0  0  0  0  0  0
   15.6294   -6.2243    0.0000 H   0  0  0  0  0  0  0  0  0  0  0  0
   15.0555   -7.9904    0.0000 H   0  0  0  0  0  0  0  0  0  0  0  0
   13.2392   -8.3766    0.0000 H   0  0  0  0  0  0  0  0  0  0  0  0
   11.9965   -6.9966    0.0000 H   0  0  0  0  0  0  0  0  0  0  0  0
   14.3700   -1.4175    0.0000 H   0  0  0  0  0  0  0  0  0  0  0  0
   16.0665   -2.1728    0.0000 H   0  0  0  0  0  0  0  0  0  0  0  0
   16.2607   -4.0196    0.0000 H   0  0  0  0  0  0  0  0  0  0  0  0
   14.7582   -5.1112    0.0000 H   0  0  0  0  0  0  0  0  0  0  0  0
   13.0618   -4.3558    0.0000 H   0  0  0  0  0  0  0  0  0  0  0  0
   11.0093   -3.5442    0.0000 H   0  0  0  0  0  0  0  0  0  0  0  0
   11.9359   -1.9392    0.0000 H   0  0  0  0  0  0  0  0  0  0  0  0
   11.9360   -3.0092    0.0000 H   0  0  0  0  0  0  0  0  0  0  0  0
    9.5804   -0.5792    0.0000 H   0  0  0  0  0  0  0  0  0  0  0  0
    8.6537   -2.1842    0.0000 H   0  0  0  0  0  0  0  0  0  0  0  0
    8.6538   -1.1142    0.0000 H   0  0  0  0  0  0  0  0  0  0  0  0
   11.7773   -1.3472    0.0000 H   0  0  0  0  0  0  0  0  0  0  0  0
   10.1723   -0.4206    0.0000 H   0  0  0  0  0  0  0  0  0  0  0  0
   11.2423   -0.4205    0.0000 H   0  0  0  0  0  0  0  0  0  0  0  0
  1  2  1  0  0  0  0
  1 40  1  0  0  0  0
  1 41  1  0  0  0  0
  1 42  1  0  0  0  0
  2  3  1  0  0  0  0
  2 43  1  0  0  0  0
  3  4  1  0  0  0  0
  3  5  1  0  0  0  0
  3 44  1  1  0  0  0
  4 45  1  0  0  0  0
  4 46  1  0  0  0  0
  4 47  1  0  0  0  0
  5  6  2  0  0  0  0
  5  7  1  0  0  0  0
  7 48  1  0  0  0  0
  8  7  1  0  0  0  0
  8  9  1  0  0  0  0
  8 36  1  0  0  0  0
  8 49  1  6  0  0  0
  9 10  2  0  0  0  0
  9 11  1  0  0  0  0
 11 12  1  0  0  0  0
 11 15  1  0  0  0  0
 12 13  1  0  0  0  0
 12 50  1  0  0  0  0
 12 51  1  0  0  0  0
 13 14  1  0  0  0  0
 13 29  1  0  0  0  0
 13 52  1  6  0  0  0
 14 15  1  0  0  0  0
 14 53  1  0  0  0  0
 14 54  1  0  0  0  0
 15 16  1  0  0  0  0
 15 55  1  6  0  0  0
 16 17  2  0  0  0  0
 16 18  1  0  0  0  0
 18 56  1  0  0  0  0
 19 18  1  0  0  0  0
 19 20  1  0  0  0  0
 19 28  1  0  0  0  0
 19 57  1  1  0  0  0
 20 21  1  0  0  0  0
 20 58  1  0  0  0  0
 20 59  1  0  0  0  0
 21 22  1  0  0  0  0
 21 60  1  0  0  0  0
 21 61  1  0  0  0  0
 22 23  1  0  0  0  0
 22 62  1  0  0  0  0
 22 63  1  0  0  0  0
 23 24  2  0  0  0  0
 23 28  1  0  0  0  0
 24 25  1  0  0  0  0
 24 64  1  0  0  0  0
 25 26  2  0  0  0  0
 25 65  1  0  0  0  0
 26 27  1  0  0  0  0
 26 66  1  0  0  0  0
 27 28  2  0  0  0  0
 27 67  1  0  0  0  0
 29 30  1  0  0  0  0
 30 31  2  0  0  0  0
 30 35  1  0  0  0  0
 31 32  1  0  0  0  0
 31 68  1  0  0  0  0
 32 33  2  0  0  0  0
 32 69  1  0  0  0  0
 33 34  1  0  0  0  0
 33 70  1  0  0  0  0
 34 35  2  0  0  0  0
 34 71  1  0  0  0  0
 35 72  1  0  0  0  0
 36 37  1  0  0  0  0
 36 38  1  0  0  0  0
 36 39  1  0  0  0  0
 37 73  1  0  0  0  0
 37 74  1  0  0  0  0
 37 75  1  0  0  0  0
 38 76  1  0  0  0  0
 38 77  1  0  0  0  0
 38 78  1  0  0  0  0
 39 79  1  0  0  0  0
 39 80  1  0  0  0  0
 39 81  1  0  0  0  0
M  END
>  <DRUGBANK_ID>
DB04612

>  <COMMON_NAME>
N-METHYLALANYL-3-METHYLVALYL-4-PHENOXY-N-(1,2,3,4-TETRAHYDRONAPHTHALEN-1-YL)PROLINAMIDE

$$$$
