
 OpenBabel10282417072D

 27 27  0  0  0  0  0  0  0  0999 V2000
    1.7606    1.7779    0.0000 Ag  0  3  0  0  0  0  0  0  0  0  0  0
    2.4751    0.5404    0.0000 S   0  0  0  0  0  0  0  0  0  0  0  0
    1.6500    0.5404    0.0000 O   0  0  0  0  0  0  0  0  0  0  0  0
    3.3001    0.5404    0.0000 O   0  0  0  0  0  0  0  0  0  0  0  0
    2.4751    1.3654    0.0000 N   0  5  0  0  0  0  0  0  0  0  0  0
    2.4751   -2.7597    0.0000 N   0  0  0  0  0  0  0  0  0  0  0  0
    3.1895    2.6029    0.0000 N   0  0  0  0  0  0  0  0  0  0  0  0
    3.9041    1.3654    0.0000 N   0  0  0  0  0  0  0  0  0  0  0  0
    2.4751   -0.2846    0.0000 C   0  0  0  0  0  0  0  0  0  0  0  0
    1.7606   -0.6971    0.0000 C   0  0  0  0  0  0  0  0  0  0  0  0
    3.1895   -0.6971    0.0000 C   0  0  0  0  0  0  0  0  0  0  0  0
    2.4751   -1.9347    0.0000 C   0  0  0  0  0  0  0  0  0  0  0  0
    1.7606   -1.5222    0.0000 C   0  0  0  0  0  0  0  0  0  0  0  0
    3.1895   -1.5222    0.0000 C   0  0  0  0  0  0  0  0  0  0  0  0
    3.1895    1.7779    0.0000 C   0  0  0  0  0  0  0  0  0  0  0  0
    3.9041    3.0154    0.0000 C   0  0  0  0  0  0  0  0  0  0  0  0
    4.6185    1.7779    0.0000 C   0  0  0  0  0  0  0  0  0  0  0  0
    4.6185    2.6029    0.0000 C   0  0  0  0  0  0  0  0  0  0  0  0
    1.6225   -3.2520    0.0000 H   0  0  0  0  0  0  0  0  0  0  0  0
    3.3277   -3.2519    0.0000 H   0  0  0  0  0  0  0  0  0  0  0  0
    0.8669   -0.1811    0.0000 H   0  0  0  0  0  0  0  0  0  0  0  0
    4.0832   -0.1811    0.0000 H   0  0  0  0  0  0  0  0  0  0  0  0
    0.8669   -2.0382    0.0000 H   0  0  0  0  0  0  0  0  0  0  0  0
    4.0832   -2.0382    0.0000 H   0  0  0  0  0  0  0  0  0  0  0  0
    3.9042    4.0474    0.0000 H   0  0  0  0  0  0  0  0  0  0  0  0
    5.5122    1.2619    0.0000 H   0  0  0  0  0  0  0  0  0  0  0  0
    5.5122    3.1189    0.0000 H   0  0  0  0  0  0  0  0  0  0  0  0
  2  3  2  0  0  0  0
  2  4  2  0  0  0  0
  2  5  1  0  0  0  0
  2  9  1  0  0  0  0
  5 15  1  0  0  0  0
  6 12  1  0  0  0  0
  6 19  1  0  0  0  0
  6 20  1  0  0  0  0
  7 15  1  0  0  0  0
  7 16  2  0  0  0  0
  8 15  2  0  0  0  0
  8 17  1  0  0  0  0
  9 10  2  0  0  0  0
  9 11  1  0  0  0  0
 10 13  1  0  0  0  0
 10 21  1  0  0  0  0
 11 14  2  0  0  0  0
 11 22  1  0  0  0  0
 12 13  2  0  0  0  0
 12 14  1  0  0  0  0
 13 23  1  0  0  0  0
 14 24  1  0  0  0  0
 16 18  1  0  0  0  0
 16 25  1  0  0  0  0
 17 18  2  0  0  0  0
 17 26  1  0  0  0  0
 18 27  1  0  0  0  0
M  CHG  2   1   1   5  -1
M  END
>  <DRUGBANK_ID>
DB05245

>  <COMMON_NAME>
Silver sulfadiazine

>  <CAS_NUMBER>
22199-08-2

>  <UNII>
W46JY43EJR

>  <SYNONYMS>
Silver sulfadiazinate; Silver sulfadiazine; Silver sulphadiazine; Sulfadiazine silver; Sulfadiazine silver salt

$$$$
