
 OpenBabel10282417072D

 46 48  0  0  0  0  0  0  0  0999 V2000
   -3.5202    1.2813    0.0000 C   0  0  0  0  0  0  0  0  0  0  0  0
   -2.8057    0.8688    0.0000 N   0  0  0  0  0  0  0  0  0  0  0  0
   -2.8057    0.0438    0.0000 C   0  0  0  0  0  0  0  0  0  0  0  0
   -2.0913    1.2813    0.0000 C   0  0  0  0  0  0  0  0  0  0  0  0
   -1.3768    0.8688    0.0000 C   0  0  0  0  0  0  0  0  0  0  0  0
   -0.6623    1.2813    0.0000 C   0  0  0  0  0  0  0  0  0  0  0  0
    0.0521    0.8688    0.0000 C   0  0  3  0  0  0  0  0  0  0  0  0
    0.5824    0.2368    0.0000 C   0  0  0  0  0  0  0  0  0  0  0  0
    0.3003   -0.5385    0.0000 C   0  0  0  0  0  0  0  0  0  0  0  0
    0.8306   -1.1705    0.0000 C   0  0  0  0  0  0  0  0  0  0  0  0
    1.6430   -1.0272    0.0000 C   0  0  0  0  0  0  0  0  0  0  0  0
    1.9252   -0.2520    0.0000 C   0  0  0  0  0  0  0  0  0  0  0  0
    1.3949    0.3800    0.0000 C   0  0  0  0  0  0  0  0  0  0  0  0
    1.6771    1.1553    0.0000 S   0  0  0  0  0  0  0  0  0  0  0  0
    1.1468    1.7873    0.0000 C   0  0  0  0  0  0  0  0  0  0  0  0
    0.3343    1.6440    0.0000 C   0  0  0  0  0  0  0  0  0  0  0  0
   -0.1960    2.2760    0.0000 C   0  0  0  0  0  0  0  0  0  0  0  0
    0.0862    3.0512    0.0000 C   0  0  0  0  0  0  0  0  0  0  0  0
    0.8986    3.1945    0.0000 C   0  0  0  0  0  0  0  0  0  0  0  0
    1.4289    2.5625    0.0000 C   0  0  0  0  0  0  0  0  0  0  0  0
   -0.4441    3.6832    0.0000 O   0  0  0  0  0  0  0  0  0  0  0  0
   -0.1620    4.4585    0.0000 C   0  0  0  0  0  0  0  0  0  0  0  0
   -0.4782    0.2368    0.0000 O   0  0  0  0  0  0  0  0  0  0  0  0
   -3.5202    2.3513    0.0000 H   0  0  0  0  0  0  0  0  0  0  0  0
   -4.4468    0.7463    0.0000 H   0  0  0  0  0  0  0  0  0  0  0  0
   -4.4469    1.8163    0.0000 H   0  0  0  0  0  0  0  0  0  0  0  0
   -3.7323   -0.4912    0.0000 H   0  0  0  0  0  0  0  0  0  0  0  0
   -1.8791   -0.4912    0.0000 H   0  0  0  0  0  0  0  0  0  0  0  0
   -2.8057   -1.0262    0.0000 H   0  0  0  0  0  0  0  0  0  0  0  0
   -2.0913    2.3513    0.0000 H   0  0  0  0  0  0  0  0  0  0  0  0
   -1.1647    1.8163    0.0000 H   0  0  0  0  0  0  0  0  0  0  0  0
   -1.3768   -0.2012    0.0000 H   0  0  0  0  0  0  0  0  0  0  0  0
   -0.4502    0.3338    0.0000 H   0  0  0  0  0  0  0  0  0  0  0  0
   -0.6623    2.3513    0.0000 H   0  0  0  0  0  0  0  0  0  0  0  0
    0.2644    1.8163    0.0000 H   0  0  0  0  0  0  0  0  0  0  0  0
   -0.7160   -0.7177    0.0000 H   0  0  0  0  0  0  0  0  0  0  0  0
    0.4777   -2.1403    0.0000 H   0  0  0  0  0  0  0  0  0  0  0  0
    2.3064   -1.8178    0.0000 H   0  0  0  0  0  0  0  0  0  0  0  0
    2.9415   -0.0728    0.0000 H   0  0  0  0  0  0  0  0  0  0  0  0
   -1.2123    2.0968    0.0000 H   0  0  0  0  0  0  0  0  0  0  0  0
    1.2515    4.1643    0.0000 H   0  0  0  0  0  0  0  0  0  0  0  0
    2.4452    2.7417    0.0000 H   0  0  0  0  0  0  0  0  0  0  0  0
    0.8917    4.6444    0.0000 H   0  0  0  0  0  0  0  0  0  0  0  0
   -0.8499    5.2781    0.0000 H   0  0  0  0  0  0  0  0  0  0  0  0
    0.2039    5.4640    0.0000 H   0  0  0  0  0  0  0  0  0  0  0  0
   -1.4335    0.4052    0.0000 H   0  0  0  0  0  0  0  0  0  0  0  0
  1  2  1  0  0  0  0
  1 24  1  0  0  0  0
  1 25  1  0  0  0  0
  1 26  1  0  0  0  0
  2  3  1  0  0  0  0
  2  4  1  0  0  0  0
  3 27  1  0  0  0  0
  3 28  1  0  0  0  0
  3 29  1  0  0  0  0
  4  5  1  0  0  0  0
  4 30  1  0  0  0  0
  4 31  1  0  0  0  0
  5  6  1  0  0  0  0
  5 32  1  0  0  0  0
  5 33  1  0  0  0  0
  6  7  1  0  0  0  0
  6 34  1  0  0  0  0
  6 35  1  0  0  0  0
  7  8  1  0  0  0  0
  7 16  1  0  0  0  0
  7 23  1  0  0  0  0
  8  9  2  0  0  0  0
  8 13  1  0  0  0  0
  9 10  1  0  0  0  0
  9 36  1  0  0  0  0
 10 11  2  0  0  0  0
 10 37  1  0  0  0  0
 11 12  1  0  0  0  0
 11 38  1  0  0  0  0
 12 13  2  0  0  0  0
 12 39  1  0  0  0  0
 13 14  1  0  0  0  0
 14 15  1  0  0  0  0
 15 16  2  0  0  0  0
 15 20  1  0  0  0  0
 16 17  1  0  0  0  0
 17 18  2  0  0  0  0
 17 40  1  0  0  0  0
 18 19  1  0  0  0  0
 18 21  1  0  0  0  0
 19 20  2  0  0  0  0
 19 41  1  0  0  0  0
 20 42  1  0  0  0  0
 21 22  1  0  0  0  0
 22 43  1  0  0  0  0
 22 44  1  0  0  0  0
 22 45  1  0  0  0  0
 23 46  1  0  0  0  0
M  END
>  <DRUGBANK_ID>
DB13822

>  <COMMON_NAME>
Meprotixol

>  <CAS_NUMBER>
4295-63-0

>  <UNII>
2JXZ154Z0Q

>  <SYNONYMS>
Meprotixol

$$$$
