
 OpenBabel10282417072D

 77 80  0  0  0  0  0  0  0  0999 V2000
    0.3613    0.1991    0.0000 O   0  0  0  0  0  0  0  0  0  0  0  0
    3.9284   -3.5254    0.0000 O   0  0  0  0  0  0  0  0  0  0  0  0
    3.9191   -1.0423    0.0000 O   0  0  0  0  0  0  0  0  0  0  0  0
    4.6326   -2.2746    0.0000 O   0  0  0  0  0  0  0  0  0  0  0  0
   -3.9284   -3.1085    0.0000 O   0  0  0  0  0  0  0  0  0  0  0  0
    1.0748   -1.0330    0.0000 N   0  0  0  0  0  0  0  0  0  0  0  0
    1.1118    0.6810    0.0000 N   0  0  0  0  0  0  0  0  0  0  0  0
    2.4367    0.6810    0.0000 N   0  0  0  0  0  0  0  0  0  0  0  0
   -0.3334   -1.8669    0.0000 N   0  0  0  0  0  0  0  0  0  0  0  0
   -4.6326   -1.8762    0.0000 N   0  0  0  0  0  0  0  0  0  0  0  0
    1.7696   -0.6346    0.0000 C   0  0  2  0  0  0  0  0  0  0  0  0
    1.7696    0.1991    0.0000 C   0  0  0  0  0  0  0  0  0  0  0  0
    0.3613   -0.6254    0.0000 C   0  0  0  0  0  0  0  0  0  0  0  0
    1.0748   -1.8669    0.0000 C   0  0  0  0  0  0  0  0  0  0  0  0
   -0.3334   -1.0330    0.0000 C   0  0  2  0  0  0  0  0  0  0  0  0
    1.3619    1.4593    0.0000 C   0  0  0  0  0  0  0  0  0  0  0  0
    1.7789   -2.2746    0.0000 C   0  0  0  0  0  0  0  0  0  0  0  0
   -1.7789   -1.0423    0.0000 C   0  0  0  0  0  0  0  0  0  0  0  0
   -1.0469   -0.6254    0.0000 C   0  0  0  0  0  0  0  0  0  0  0  0
    3.2058   -2.2746    0.0000 C   0  0  0  0  0  0  0  0  0  0  0  0
   -2.4923   -0.6254    0.0000 C   0  0  0  0  0  0  0  0  0  0  0  0
   -1.7789   -1.8669    0.0000 C   0  0  0  0  0  0  0  0  0  0  0  0
    2.1773    1.4593    0.0000 C   0  0  0  0  0  0  0  0  0  0  0  0
    0.8895    2.1078    0.0000 C   0  0  0  0  0  0  0  0  0  0  0  0
    2.4923   -1.8669    0.0000 C   0  0  0  0  0  0  0  0  0  0  0  0
    3.2058   -3.1085    0.0000 C   0  0  0  0  0  0  0  0  0  0  0  0
   -3.2058   -1.8669    0.0000 C   0  0  0  0  0  0  0  0  0  0  0  0
    1.7789   -3.1085    0.0000 C   0  0  0  0  0  0  0  0  0  0  0  0
   -3.2058   -1.0423    0.0000 C   0  0  0  0  0  0  0  0  0  0  0  0
   -2.4923   -2.2839    0.0000 C   0  0  0  0  0  0  0  0  0  0  0  0
    2.4738   -1.0423    0.0000 C   0  0  0  0  0  0  0  0  0  0  0  0
    2.4923   -3.5254    0.0000 C   0  0  0  0  0  0  0  0  0  0  0  0
    3.9191   -1.8669    0.0000 C   0  0  0  0  0  0  0  0  0  0  0  0
    1.2322    2.8582    0.0000 C   0  0  0  0  0  0  0  0  0  0  0  0
    0.0649    2.0151    0.0000 C   0  0  0  0  0  0  0  0  0  0  0  0
   -3.9284   -2.2839    0.0000 C   0  0  0  0  0  0  0  0  0  0  0  0
   -2.4923    0.1991    0.0000 C   0  0  0  0  0  0  0  0  0  0  0  0
   -1.0469   -2.2931    0.0000 C   0  0  0  0  0  0  0  0  0  0  0  0
    0.7411    3.5254    0.0000 C   0  0  0  0  0  0  0  0  0  0  0  0
   -0.4169    2.6915    0.0000 C   0  0  0  0  0  0  0  0  0  0  0  0
   -0.0834    3.4419    0.0000 C   0  0  0  0  0  0  0  0  0  0  0  0
    4.6326   -3.1177    0.0000 C   0  0  0  0  0  0  0  0  0  0  0  0
    4.6368   -3.2116    0.0000 H   0  0  0  0  0  0  0  0  0  0  0  0
    3.3737    0.3790    0.0000 H   0  0  0  0  0  0  0  0  0  0  0  0
   -1.2167   -2.3769    0.0000 H   0  0  0  0  0  0  0  0  0  0  0  0
    0.5499   -2.3769    0.0000 H   0  0  0  0  0  0  0  0  0  0  0  0
   -4.6314   -0.8917    0.0000 H   0  0  0  0  0  0  0  0  0  0  0  0
   -5.4858   -2.3674    0.0000 H   0  0  0  0  0  0  0  0  0  0  0  0
    1.7674   -1.7046    0.0000 H   0  0  0  0  0  0  0  0  0  0  0  0
    0.1478   -2.4013    0.0000 H   0  0  0  0  0  0  0  0  0  0  0  0
    1.0738   -2.9369    0.0000 H   0  0  0  0  0  0  0  0  0  0  0  0
    0.5951   -1.5648    0.0000 H   0  0  0  0  0  0  0  0  0  0  0  0
   -1.0462    0.4446    0.0000 H   0  0  0  0  0  0  0  0  0  0  0  0
   -1.9718   -0.0874    0.0000 H   0  0  0  0  0  0  0  0  0  0  0  0
    2.7807    2.2965    0.0000 H   0  0  0  0  0  0  0  0  0  0  0  0
    2.4923   -0.8349    0.0000 H   0  0  0  0  0  0  0  0  0  0  0  0
    0.8838   -3.6221    0.0000 H   0  0  0  0  0  0  0  0  0  0  0  0
   -4.1009   -0.5286    0.0000 H   0  0  0  0  0  0  0  0  0  0  0  0
   -2.4923   -3.3159    0.0000 H   0  0  0  0  0  0  0  0  0  0  0  0
    2.4725   -2.1123    0.0000 H   0  0  0  0  0  0  0  0  0  0  0  0
    3.4011   -0.5084    0.0000 H   0  0  0  0  0  0  0  0  0  0  0  0
    3.3998   -1.5784    0.0000 H   0  0  0  0  0  0  0  0  0  0  0  0
    2.4923   -4.5574    0.0000 H   0  0  0  0  0  0  0  0  0  0  0  0
    2.2587    2.9644    0.0000 H   0  0  0  0  0  0  0  0  0  0  0  0
   -0.3559    1.0728    0.0000 H   0  0  0  0  0  0  0  0  0  0  0  0
   -1.5657    0.7341    0.0000 H   0  0  0  0  0  0  0  0  0  0  0  0
   -3.4189    0.7341    0.0000 H   0  0  0  0  0  0  0  0  0  0  0  0
   -2.4923    1.2691    0.0000 H   0  0  0  0  0  0  0  0  0  0  0  0
   -1.0508   -3.3631    0.0000 H   0  0  0  0  0  0  0  0  0  0  0  0
   -0.1183   -1.7615    0.0000 H   0  0  0  0  0  0  0  0  0  0  0  0
   -0.1222   -2.8315    0.0000 H   0  0  0  0  0  0  0  0  0  0  0  0
    1.1597    4.4687    0.0000 H   0  0  0  0  0  0  0  0  0  0  0  0
   -1.4437    2.5881    0.0000 H   0  0  0  0  0  0  0  0  0  0  0  0
   -0.6887    4.2778    0.0000 H   0  0  0  0  0  0  0  0  0  0  0  0
    5.5599   -3.6516    0.0000 H   0  0  0  0  0  0  0  0  0  0  0  0
    4.6313   -2.0477    0.0000 H   0  0  0  0  0  0  0  0  0  0  0  0
    5.5586   -2.5816    0.0000 H   0  0  0  0  0  0  0  0  0  0  0  0
  1 13  2  0  0  0  0
  2 26  1  0  0  0  0
  2 42  1  0  0  0  0
  3 33  2  0  0  0  0
  4 33  1  0  0  0  0
  4 43  1  0  0  0  0
  5 36  2  0  0  0  0
  6 11  1  0  0  0  0
  6 13  1  0  0  0  0
  6 14  1  0  0  0  0
  7 12  2  0  0  0  0
  7 16  1  0  0  0  0
  8 12  1  0  0  0  0
  8 23  1  0  0  0  0
  8 44  1  0  0  0  0
  9 45  1  0  0  0  0
  9 46  1  0  0  0  0
 10 36  1  0  0  0  0
 10 47  1  0  0  0  0
 10 48  1  0  0  0  0
 11 12  1  0  0  0  0
 11 31  1  0  0  0  0
 11 49  1  1  0  0  0
 13 15  1  0  0  0  0
 14 17  1  0  0  0  0
 14 50  1  0  0  0  0
 14 51  1  0  0  0  0
 15  9  1  0  0  0  0
 15 19  1  0  0  0  0
 15 52  1  6  0  0  0
 16 23  2  0  0  0  0
 16 24  1  0  0  0  0
 17 25  1  0  0  0  0
 17 28  2  0  0  0  0
 18 19  1  0  0  0  0
 18 21  2  0  0  0  0
 18 22  1  0  0  0  0
 19 53  1  0  0  0  0
 19 54  1  0  0  0  0
 20 25  2  0  0  0  0
 20 26  1  0  0  0  0
 20 33  1  0  0  0  0
 21 29  1  0  0  0  0
 21 37  1  0  0  0  0
 22 30  2  0  0  0  0
 22 38  1  0  0  0  0
 23 55  1  0  0  0  0
 24 34  2  0  0  0  0
 24 35  1  0  0  0  0
 25 56  1  0  0  0  0
 26 32  2  0  0  0  0
 27 29  2  0  0  0  0
 27 30  1  0  0  0  0
 27 36  1  0  0  0  0
 28 32  1  0  0  0  0
 28 57  1  0  0  0  0
 29 58  1  0  0  0  0
 30 59  1  0  0  0  0
 31 60  1  0  0  0  0
 31 61  1  0  0  0  0
 31 62  1  0  0  0  0
 32 63  1  0  0  0  0
 34 39  1  0  0  0  0
 34 64  1  0  0  0  0
 35 40  2  0  0  0  0
 35 65  1  0  0  0  0
 37 66  1  0  0  0  0
 37 67  1  0  0  0  0
 37 68  1  0  0  0  0
 38 69  1  0  0  0  0
 38 70  1  0  0  0  0
 38 71  1  0  0  0  0
 39 41  2  0  0  0  0
 39 72  1  0  0  0  0
 40 41  1  0  0  0  0
 40 73  1  0  0  0  0
 41 74  1  0  0  0  0
 42 75  1  0  0  0  0
 42 76  1  0  0  0  0
 42 77  1  0  0  0  0
M  END
>  <DRUGBANK_ID>
DB09272

>  <COMMON_NAME>
Eluxadoline

>  <CAS_NUMBER>
864821-90-9

>  <UNII>
45TPJ4MBQ1

>  <SYNONYMS>
5-({(4-carbamoyl-2,6-dimethyl-L-phenylalanyl)[(1S)-1-(4-phenyl-1H-imidazol-2-yl)ethyl]amino}methyl)-2-methoxybenzoic acid; Eluxadoline

$$$$
