
 OpenBabel10282417072D

111115  0  0  0  0  0  0  0  0999 V2000
    4.6802    1.8764    0.0000 S   0  0  0  0  0  0  0  0  0  0  0  0
   -8.5969    2.2078    0.0000 P   0  0  0  0  0  0  0  0  0  0  0  0
   -6.0226    1.1849    0.0000 P   0  0  3  0  0  0  0  0  0  0  0  0
   -4.6012    1.3319    0.0000 P   0  0  3  0  0  0  0  0  0  0  0  0
   -8.1137   -0.2706    0.0000 O   0  0  0  0  0  0  0  0  0  0  0  0
   -9.1500    1.5956    0.0000 O   0  0  0  0  0  0  0  0  0  0  0  0
  -10.2076    0.1454    0.0000 O   0  0  0  0  0  0  0  0  0  0  0  0
   -6.6909    0.7011    0.0000 O   0  0  0  0  0  0  0  0  0  0  0  0
   -8.0438    2.8199    0.0000 O   0  0  0  0  0  0  0  0  0  0  0  0
   -9.2091    2.7609    0.0000 O   0  0  0  0  0  0  0  0  0  0  0  0
   -5.3543    1.6687    0.0000 O   0  0  0  0  0  0  0  0  0  0  0  0
   -7.9848    1.6547    0.0000 O   0  0  0  0  0  0  0  0  0  0  0  0
   -3.8481    0.9950    0.0000 O   0  0  0  0  0  0  0  0  0  0  0  0
   -5.5388    0.5167    0.0000 O   0  0  0  0  0  0  0  0  0  0  0  0
   -6.5063    1.8533    0.0000 O   0  0  0  0  0  0  0  0  0  0  0  0
   -1.5888   -0.0155    0.0000 O   0  0  0  0  0  0  0  0  0  0  0  0
   -4.2644    2.0849    0.0000 O   0  0  0  0  0  0  0  0  0  0  0  0
   -4.9381    0.5788    0.0000 O   0  0  0  0  0  0  0  0  0  0  0  0
   -1.0901    2.1094    0.0000 O   0  0  0  0  0  0  0  0  0  0  0  0
    1.7526    2.4032    0.0000 O   0  0  0  0  0  0  0  0  0  0  0  0
    6.0168    2.8439    0.0000 O   0  0  0  0  0  0  0  0  0  0  0  0
   -9.1551   -1.3084    0.0000 N   0  0  0  0  0  0  0  0  0  0  0  0
   -9.1551   -2.6363    0.0000 N   0  0  0  0  0  0  0  0  0  0  0  0
  -10.6502   -1.1474    0.0000 N   0  0  0  0  0  0  0  0  0  0  0  0
  -11.3647   -2.3849    0.0000 N   0  0  0  0  0  0  0  0  0  0  0  0
  -10.6502   -3.6224    0.0000 N   0  0  0  0  0  0  0  0  0  0  0  0
   -0.2522    0.9519    0.0000 N   0  0  0  0  0  0  0  0  0  0  0  0
    2.5905    1.2457    0.0000 N   0  0  0  0  0  0  0  0  0  0  0  0
    9.7249    3.3914    0.0000 N   0  0  0  0  0  0  0  0  0  0  0  0
    6.8547    1.6864    0.0000 N   0  0  0  0  0  0  0  0  0  0  0  0
   -8.8965    0.8105    0.0000 C   0  0  1  0  0  0  0  0  0  0  0  0
   -9.3826    0.1439    0.0000 C   0  0  2  0  0  0  0  0  0  0  0  0
   -8.1122    0.5543    0.0000 C   0  0  1  0  0  0  0  0  0  0  0  0
   -8.8988   -0.5242    0.0000 C   0  0  1  0  0  0  0  0  0  0  0  0
   -7.4440    1.0381    0.0000 C   0  0  0  0  0  0  0  0  0  0  0  0
   -9.9357   -1.5599    0.0000 C   0  0  0  0  0  0  0  0  0  0  0  0
   -8.6736   -1.9724    0.0000 C   0  0  0  0  0  0  0  0  0  0  0  0
   -9.9357   -2.3849    0.0000 C   0  0  0  0  0  0  0  0  0  0  0  0
   -2.4267    1.1419    0.0000 C   0  0  0  0  0  0  0  0  0  0  0  0
  -10.6502   -2.7974    0.0000 C   0  0  0  0  0  0  0  0  0  0  0  0
   -1.6736    0.8050    0.0000 C   0  0  2  0  0  0  0  0  0  0  0  0
   -3.1798    1.4788    0.0000 C   0  0  0  0  0  0  0  0  0  0  0  0
   -2.0898    1.8950    0.0000 C   0  0  0  0  0  0  0  0  0  0  0  0
   -2.7636    0.3888    0.0000 C   0  0  0  0  0  0  0  0  0  0  0  0
  -11.3647   -1.5599    0.0000 C   0  0  0  0  0  0  0  0  0  0  0  0
   -1.0053    1.2888    0.0000 C   0  0  0  0  0  0  0  0  0  0  0  0
    0.4160    1.4357    0.0000 C   0  0  0  0  0  0  0  0  0  0  0  0
    1.1691    1.0989    0.0000 C   0  0  0  0  0  0  0  0  0  0  0  0
    1.8374    1.5826    0.0000 C   0  0  0  0  0  0  0  0  0  0  0  0
    8.9443    2.3172    0.0000 C   0  0  0  0  0  0  0  0  0  0  0  0
    8.2761    1.8334    0.0000 C   0  0  0  0  0  0  0  0  0  0  0  0
    9.7237    2.0617    0.0000 C   0  0  0  0  0  0  0  0  0  0  0  0
   10.2086    2.7292    0.0000 C   0  0  0  0  0  0  0  0  0  0  0  0
    3.2588    1.7295    0.0000 C   0  0  0  0  0  0  0  0  0  0  0  0
    7.5230    2.1702    0.0000 C   0  0  0  0  0  0  0  0  0  0  0  0
    8.9451    3.1373    0.0000 C   0  0  0  0  0  0  0  0  0  0  0  0
   10.0593    1.3080    0.0000 C   0  0  0  0  0  0  0  0  0  0  0  0
    4.0119    1.3927    0.0000 C   0  0  0  0  0  0  0  0  0  0  0  0
   11.0292    2.6429    0.0000 C   0  0  0  0  0  0  0  0  0  0  0  0
   10.8797    1.2218    0.0000 C   0  0  0  0  0  0  0  0  0  0  0  0
   11.3647    1.8892    0.0000 C   0  0  0  0  0  0  0  0  0  0  0  0
    5.4333    1.5396    0.0000 C   0  0  0  0  0  0  0  0  0  0  0  0
    6.1016    2.0233    0.0000 C   0  0  0  0  0  0  0  0  0  0  0  0
  -10.2072   -3.8782    0.0000 H   0  0  0  0  0  0  0  0  0  0  0  0
  -11.0932   -3.8782    0.0000 H   0  0  0  0  0  0  0  0  0  0  0  0
   -0.1996    0.4431    0.0000 H   0  0  0  0  0  0  0  0  0  0  0  0
    2.6430    0.7369    0.0000 H   0  0  0  0  0  0  0  0  0  0  0  0
    9.8821    3.8782    0.0000 H   0  0  0  0  0  0  0  0  0  0  0  0
    6.9073    1.1777    0.0000 H   0  0  0  0  0  0  0  0  0  0  0  0
  -10.6911    0.9863    0.0000 H   0  0  0  0  0  0  0  0  0  0  0  0
   -7.0954    2.6165    0.0000 H   0  0  0  0  0  0  0  0  0  0  0  0
   -9.0058    3.7094    0.0000 H   0  0  0  0  0  0  0  0  0  0  0  0
   -5.9348   -0.3688    0.0000 H   0  0  0  0  0  0  0  0  0  0  0  0
   -2.3745   -0.5843    0.0000 H   0  0  0  0  0  0  0  0  0  0  0  0
   -3.2995    2.1846    0.0000 H   0  0  0  0  0  0  0  0  0  0  0  0
   -9.9530    0.9798    0.0000 H   0  0  0  0  0  0  0  0  0  0  0  0
   -9.8667    1.0981    0.0000 H   0  0  0  0  0  0  0  0  0  0  0  0
   -7.1597    0.0669    0.0000 H   0  0  0  0  0  0  0  0  0  0  0  0
   -8.1435   -1.2821    0.0000 H   0  0  0  0  0  0  0  0  0  0  0  0
   -7.5540    2.1024    0.0000 H   0  0  0  0  0  0  0  0  0  0  0  0
   -8.4208    1.4750    0.0000 H   0  0  0  0  0  0  0  0  0  0  0  0
   -7.6416   -1.9724    0.0000 H   0  0  0  0  0  0  0  0  0  0  0  0
   -2.5403    0.1776    0.0000 H   0  0  0  0  0  0  0  0  0  0  0  0
   -3.2898    2.5431    0.0000 H   0  0  0  0  0  0  0  0  0  0  0  0
   -2.3130    2.1062    0.0000 H   0  0  0  0  0  0  0  0  0  0  0  0
   -1.0255    2.0050    0.0000 H   0  0  0  0  0  0  0  0  0  0  0  0
   -2.7172    2.7618    0.0000 H   0  0  0  0  0  0  0  0  0  0  0  0
   -1.6529    2.8717    0.0000 H   0  0  0  0  0  0  0  0  0  0  0  0
   -3.8279    0.2788    0.0000 H   0  0  0  0  0  0  0  0  0  0  0  0
   -2.1362   -0.4780    0.0000 H   0  0  0  0  0  0  0  0  0  0  0  0
   -3.2005   -0.5879    0.0000 H   0  0  0  0  0  0  0  0  0  0  0  0
  -12.2584   -1.0439    0.0000 H   0  0  0  0  0  0  0  0  0  0  0  0
    0.3059    2.5000    0.0000 H   0  0  0  0  0  0  0  0  0  0  0  0
    1.2827    2.0632    0.0000 H   0  0  0  0  0  0  0  0  0  0  0  0
    1.2791    0.0346    0.0000 H   0  0  0  0  0  0  0  0  0  0  0  0
    2.1458    0.6620    0.0000 H   0  0  0  0  0  0  0  0  0  0  0  0
    8.3862    0.7691    0.0000 H   0  0  0  0  0  0  0  0  0  0  0  0
    7.4094    1.2059    0.0000 H   0  0  0  0  0  0  0  0  0  0  0  0
    3.1487    2.7938    0.0000 H   0  0  0  0  0  0  0  0  0  0  0  0
    4.1255    2.3570    0.0000 H   0  0  0  0  0  0  0  0  0  0  0  0
    7.4129    3.2345    0.0000 H   0  0  0  0  0  0  0  0  0  0  0  0
    8.3897    2.7977    0.0000 H   0  0  0  0  0  0  0  0  0  0  0  0
    8.1102    3.7439    0.0000 H   0  0  0  0  0  0  0  0  0  0  0  0
    9.4527    0.4731    0.0000 H   0  0  0  0  0  0  0  0  0  0  0  0
    4.1219    0.3284    0.0000 H   0  0  0  0  0  0  0  0  0  0  0  0
    3.1452    0.7652    0.0000 H   0  0  0  0  0  0  0  0  0  0  0  0
   11.6359    3.4778    0.0000 H   0  0  0  0  0  0  0  0  0  0  0  0
   11.2994    0.2790    0.0000 H   0  0  0  0  0  0  0  0  0  0  0  0
   12.3910    1.7812    0.0000 H   0  0  0  0  0  0  0  0  0  0  0  0
    5.5433    0.4753    0.0000 H   0  0  0  0  0  0  0  0  0  0  0  0
    6.4100    1.1027    0.0000 H   0  0  0  0  0  0  0  0  0  0  0  0
  1 58  1  0  0  0  0
  1 62  1  0  0  0  0
  2  6  1  0  0  0  0
  2  9  1  0  0  0  0
  2 10  1  0  0  0  0
  2 12  2  0  0  0  0
  3  8  1  0  0  0  0
  3 11  1  0  0  0  0
  3 14  1  0  0  0  0
  3 15  2  0  0  0  0
  4 11  1  0  0  0  0
  4 13  1  0  0  0  0
  4 17  1  0  0  0  0
  4 18  2  0  0  0  0
  5 33  1  0  0  0  0
  5 34  1  0  0  0  0
  7 70  1  0  0  0  0
  8 35  1  0  0  0  0
  9 71  1  0  0  0  0
 10 72  1  0  0  0  0
 13 42  1  0  0  0  0
 14 73  1  0  0  0  0
 16 74  1  0  0  0  0
 17 75  1  0  0  0  0
 19 46  2  0  0  0  0
 20 49  2  0  0  0  0
 21 63  2  0  0  0  0
 22 36  1  0  0  0  0
 22 37  1  0  0  0  0
 23 37  2  0  0  0  0
 23 38  1  0  0  0  0
 24 36  2  0  0  0  0
 24 45  1  0  0  0  0
 25 40  1  0  0  0  0
 25 45  2  0  0  0  0
 26 40  1  0  0  0  0
 26 64  1  0  0  0  0
 26 65  1  0  0  0  0
 27 46  1  0  0  0  0
 27 47  1  0  0  0  0
 27 66  1  0  0  0  0
 28 49  1  0  0  0  0
 28 54  1  0  0  0  0
 28 67  1  0  0  0  0
 29 53  1  0  0  0  0
 29 56  1  0  0  0  0
 29 68  1  0  0  0  0
 30 55  1  0  0  0  0
 30 63  1  0  0  0  0
 30 69  1  0  0  0  0
 31  6  1  0  0  0  0
 31 32  1  0  0  0  0
 31 33  1  0  0  0  0
 31 76  1  1  0  0  0
 32  7  1  0  0  0  0
 32 34  1  0  0  0  0
 32 77  1  1  0  0  0
 33 35  1  0  0  0  0
 33 78  1  6  0  0  0
 34 22  1  0  0  0  0
 34 79  1  6  0  0  0
 35 80  1  0  0  0  0
 35 81  1  0  0  0  0
 36 38  1  0  0  0  0
 37 82  1  0  0  0  0
 38 40  2  0  0  0  0
 39 41  1  0  0  0  0
 39 42  1  0  0  0  0
 39 43  1  0  0  0  0
 39 44  1  0  0  0  0
 41 16  1  0  0  0  0
 41 46  1  0  0  0  0
 41 83  1  1  0  0  0
 42 84  1  0  0  0  0
 42 85  1  0  0  0  0
 43 86  1  0  0  0  0
 43 87  1  0  0  0  0
 43 88  1  0  0  0  0
 44 89  1  0  0  0  0
 44 90  1  0  0  0  0
 44 91  1  0  0  0  0
 45 92  1  0  0  0  0
 47 48  1  0  0  0  0
 47 93  1  0  0  0  0
 47 94  1  0  0  0  0
 48 49  1  0  0  0  0
 48 95  1  0  0  0  0
 48 96  1  0  0  0  0
 50 51  1  0  0  0  0
 50 52  1  0  0  0  0
 50 56  2  0  0  0  0
 51 55  1  0  0  0  0
 51 97  1  0  0  0  0
 51 98  1  0  0  0  0
 52 53  1  0  0  0  0
 52 57  2  0  0  0  0
 53 59  2  0  0  0  0
 54 58  1  0  0  0  0
 54 99  1  0  0  0  0
 54100  1  0  0  0  0
 55101  1  0  0  0  0
 55102  1  0  0  0  0
 56103  1  0  0  0  0
 57 60  1  0  0  0  0
 57104  1  0  0  0  0
 58105  1  0  0  0  0
 58106  1  0  0  0  0
 59 61  1  0  0  0  0
 59107  1  0  0  0  0
 60 61  2  0  0  0  0
 60108  1  0  0  0  0
 61109  1  0  0  0  0
 62 63  1  0  0  0  0
 62110  1  0  0  0  0
 62111  1  0  0  0  0
M  END
>  <DRUGBANK_ID>
DB02931

>  <SECONDARY_ACCESSION_NUMBERS>
EXPT00990

>  <COMMON_NAME>
CoA-s-acetyl tryptamine

>  <SYNONYMS>
CoA-S-acetyl-tryptamine

$$$$
