
 OpenBabel10282417072D

 51 54  0  0  0  0  0  0  0  0999 V2000
   -0.9990   -0.5617    0.0000 S   0  0  0  0  0  0  0  0  0  0  0  0
    0.1915   -5.8097    0.0000 F   0  0  0  0  0  0  0  0  0  0  0  0
    1.0982   -5.0754    0.0000 F   0  0  0  0  0  0  0  0  0  0  0  0
    0.3640   -4.1687    0.0000 F   0  0  0  0  0  0  0  0  0  0  0  0
   -1.0947   -5.5161    0.0000 O   0  0  0  0  0  0  0  0  0  0  0  0
   -1.9251   -2.8536    0.0000 O   0  0  0  0  0  0  0  0  0  0  0  0
   -0.9520    1.9857    0.0000 N   0  0  0  0  0  0  0  0  0  0  0  0
   -0.6197   -3.4348    0.0000 N   0  0  0  0  0  0  0  0  0  0  0  0
   -0.7690   -2.0137    0.0000 N   0  0  0  0  0  0  0  0  0  0  0  0
   -2.0789   -1.3462    0.0000 N   0  0  0  0  0  0  0  0  0  0  0  0
    0.4769    1.9857    0.0000 N   0  0  0  0  0  0  0  0  0  0  0  0
    0.4769    4.4607    0.0000 N   0  0  0  0  0  0  0  0  0  0  0  0
    1.1914    3.2232    0.0000 N   0  0  0  0  0  0  0  0  0  0  0  0
    1.2776    5.6938    0.0000 N   0  0  0  0  0  0  0  0  0  0  0  0
    1.9450    4.5377    0.0000 N   0  0  0  0  0  0  0  0  0  0  0  0
    2.0846    5.8653    0.0000 N   0  0  0  0  0  0  0  0  0  0  0  0
   -1.6664    0.7482    0.0000 C   0  0  0  0  0  0  0  0  0  0  0  0
   -0.9520    1.1607    0.0000 C   0  0  0  0  0  0  0  0  0  0  0  0
   -1.6664   -0.0767    0.0000 C   0  0  0  0  0  0  0  0  0  0  0  0
   -0.9552   -4.1885    0.0000 C   0  0  0  0  0  0  0  0  0  0  0  0
   -0.5427   -4.9030    0.0000 C   0  0  0  0  0  0  0  0  0  0  0  0
   -1.7622   -4.3600    0.0000 C   0  0  0  0  0  0  0  0  0  0  0  0
   -1.8484   -5.1805    0.0000 C   0  0  0  0  0  0  0  0  0  0  0  0
   -2.3338   -0.5617    0.0000 C   0  0  0  0  0  0  0  0  0  0  0  0
   -0.2374    2.3982    0.0000 C   0  0  0  0  0  0  0  0  0  0  0  0
   -1.2539   -1.3462    0.0000 C   0  0  0  0  0  0  0  0  0  0  0  0
    0.2777   -4.9892    0.0000 C   0  0  0  0  0  0  0  0  0  0  0  0
   -1.1046   -2.7674    0.0000 C   0  0  0  0  0  0  0  0  0  0  0  0
   -0.2374    3.2232    0.0000 C   0  0  0  0  0  0  0  0  0  0  0  0
   -2.5629   -5.5930    0.0000 C   0  0  0  0  0  0  0  0  0  0  0  0
    0.4769    3.6357    0.0000 C   0  0  0  0  0  0  0  0  0  0  0  0
    1.1914    2.3982    0.0000 C   0  0  0  0  0  0  0  0  0  0  0  0
    1.1914    4.8732    0.0000 C   0  0  0  0  0  0  0  0  0  0  0  0
    2.4971    5.1507    0.0000 C   0  0  0  0  0  0  0  0  0  0  0  0
   -1.8046    2.4780    0.0000 H   0  0  0  0  0  0  0  0  0  0  0  0
    0.3594   -3.3319    0.0000 H   0  0  0  0  0  0  0  0  0  0  0  0
    0.2101   -1.9108    0.0000 H   0  0  0  0  0  0  0  0  0  0  0  0
   -0.3757    4.9530    0.0000 H   0  0  0  0  0  0  0  0  0  0  0  0
    0.5460    6.3526    0.0000 H   0  0  0  0  0  0  0  0  0  0  0  0
   -2.5931    1.2832    0.0000 H   0  0  0  0  0  0  0  0  0  0  0  0
   -2.5930    0.2132    0.0000 H   0  0  0  0  0  0  0  0  0  0  0  0
   -0.0253    0.6257    0.0000 H   0  0  0  0  0  0  0  0  0  0  0  0
   -0.9520    0.0907    0.0000 H   0  0  0  0  0  0  0  0  0  0  0  0
   -2.5291   -3.6695    0.0000 H   0  0  0  0  0  0  0  0  0  0  0  0
   -3.3153   -0.2428    0.0000 H   0  0  0  0  0  0  0  0  0  0  0  0
   -1.1312    3.7392    0.0000 H   0  0  0  0  0  0  0  0  0  0  0  0
   -3.4895   -5.0580    0.0000 H   0  0  0  0  0  0  0  0  0  0  0  0
   -2.5629   -6.6630    0.0000 H   0  0  0  0  0  0  0  0  0  0  0  0
   -3.4896   -6.1280    0.0000 H   0  0  0  0  0  0  0  0  0  0  0  0
    2.0851    1.8822    0.0000 H   0  0  0  0  0  0  0  0  0  0  0  0
    3.5234    5.0427    0.0000 H   0  0  0  0  0  0  0  0  0  0  0  0
  1 19  1  0  0  0  0
  1 26  1  0  0  0  0
  2 27  1  0  0  0  0
  3 27  1  0  0  0  0
  4 27  1  0  0  0  0
  5 21  1  0  0  0  0
  5 23  1  0  0  0  0
  6 28  2  0  0  0  0
  7 18  1  0  0  0  0
  7 25  1  0  0  0  0
  7 35  1  0  0  0  0
  8 20  1  0  0  0  0
  8 28  1  0  0  0  0
  8 36  1  0  0  0  0
  9 26  1  0  0  0  0
  9 28  1  0  0  0  0
  9 37  1  0  0  0  0
 10 24  1  0  0  0  0
 10 26  2  0  0  0  0
 11 25  1  0  0  0  0
 11 32  2  0  0  0  0
 12 31  1  0  0  0  0
 12 33  1  0  0  0  0
 12 38  1  0  0  0  0
 13 31  2  0  0  0  0
 13 32  1  0  0  0  0
 14 16  1  0  0  0  0
 14 33  1  0  0  0  0
 14 39  1  0  0  0  0
 15 33  2  0  0  0  0
 15 34  1  0  0  0  0
 16 34  2  0  0  0  0
 17 18  1  0  0  0  0
 17 19  1  0  0  0  0
 17 40  1  0  0  0  0
 17 41  1  0  0  0  0
 18 42  1  0  0  0  0
 18 43  1  0  0  0  0
 19 24  2  0  0  0  0
 20 21  2  0  0  0  0
 20 22  1  0  0  0  0
 21 27  1  0  0  0  0
 22 23  2  0  0  0  0
 22 44  1  0  0  0  0
 23 30  1  0  0  0  0
 24 45  1  0  0  0  0
 25 29  2  0  0  0  0
 29 31  1  0  0  0  0
 29 46  1  0  0  0  0
 30 47  1  0  0  0  0
 30 48  1  0  0  0  0
 30 49  1  0  0  0  0
 32 50  1  0  0  0  0
 34 51  1  0  0  0  0
M  END
>  <DRUGBANK_ID>
DB07789

>  <COMMON_NAME>
1-[5-Methyl-2-(trifluoromethyl)furan-3-yl]-3-[5-[2-[[6-(1H-1,2,4-triazol-5-ylamino)pyrimidin-4-yl]amino]ethyl]-1,3-thiazol-2-yl]urea

>  <UNII>
CL76HU6PN3

$$$$
