
 OpenBabel10282417072D

 63 68  0  0  1  0  0  0  0  0999 V2000
    0.8334   -5.7414    0.0000 F   0  0  0  0  0  0  0  0  0  0  0  0
    1.0884   -4.9567    0.0000 C   0  0  0  0  0  0  0  0  0  0  0  0
    0.5363   -4.3437    0.0000 C   0  0  0  0  0  0  0  0  0  0  0  0
    0.7913   -3.5590    0.0000 C   0  0  0  0  0  0  0  0  0  0  0  0
    1.5983   -3.3875    0.0000 C   0  0  0  0  0  0  0  0  0  0  0  0
    2.1503   -4.0006    0.0000 C   0  0  0  0  0  0  0  0  0  0  0  0
    1.8953   -4.7852    0.0000 C   0  0  0  0  0  0  0  0  0  0  0  0
    1.8532   -2.6029    0.0000 N   0  0  0  0  0  0  0  0  0  0  0  0
    1.3683   -1.9354    0.0000 N   0  0  0  0  0  0  0  0  0  0  0  0
    1.8532   -1.2680    0.0000 C   0  0  0  0  0  0  0  0  0  0  0  0
    2.6378   -1.5229    0.0000 C   0  0  0  0  0  0  0  0  0  0  0  0
    3.3523   -1.1104    0.0000 C   0  0  0  0  0  0  0  0  0  0  0  0
    4.0668   -1.5229    0.0000 C   0  0  2  0  0  0  0  0  0  0  0  0
    4.7812   -1.1104    0.0000 C   0  0  0  0  0  0  0  0  0  0  0  0
    5.4957   -1.5229    0.0000 N   0  0  0  0  0  0  0  0  0  0  0  0
    5.4957   -2.3479    0.0000 C   0  0  0  0  0  0  0  0  0  0  0  0
    4.7812   -2.7604    0.0000 C   0  0  0  0  0  0  0  0  0  0  0  0
    4.0668   -2.3479    0.0000 C   0  0  0  0  0  0  0  0  0  0  0  0
    3.3523   -2.7604    0.0000 C   0  0  0  0  0  0  0  0  0  0  0  0
    2.6378   -2.3479    0.0000 C   0  0  0  0  0  0  0  0  0  0  0  0
    6.2102   -1.1104    0.0000 S   0  0  0  0  0  0  0  0  0  0  0  0
    6.6227   -1.8249    0.0000 O   0  0  0  0  0  0  0  0  0  0  0  0
    5.7977   -0.3960    0.0000 O   0  0  0  0  0  0  0  0  0  0  0  0
    6.9246   -0.6979    0.0000 C   0  0  0  0  0  0  0  0  0  0  0  0
    6.9246    0.1271    0.0000 C   0  0  0  0  0  0  0  0  0  0  0  0
    7.6391    0.5396    0.0000 C   0  0  0  0  0  0  0  0  0  0  0  0
    8.3536    0.1271    0.0000 C   0  0  0  0  0  0  0  0  0  0  0  0
    8.3536   -0.6979    0.0000 C   0  0  0  0  0  0  0  0  0  0  0  0
    7.6391   -1.1104    0.0000 C   0  0  0  0  0  0  0  0  0  0  0  0
    9.0681    0.5396    0.0000 C   0  0  0  0  0  0  0  0  0  0  0  0
    9.7825    0.9521    0.0000 F   0  0  0  0  0  0  0  0  0  0  0  0
    9.4806   -0.1749    0.0000 F   0  0  0  0  0  0  0  0  0  0  0  0
    8.6556    1.2540    0.0000 F   0  0  0  0  0  0  0  0  0  0  0  0
    4.0668   -0.6979    0.0000 C   0  0  0  0  0  0  0  0  0  0  0  0
    4.7812   -0.2854    0.0000 O   0  0  0  0  0  0  0  0  0  0  0  0
    3.3523   -0.2854    0.0000 C   0  0  0  0  0  0  0  0  0  0  0  0
    2.6378   -0.6979    0.0000 C   0  0  0  0  0  0  0  0  0  0  0  0
    1.9233   -0.2854    0.0000 C   0  0  0  0  0  0  0  0  0  0  0  0
    1.9233    0.5396    0.0000 C   0  0  0  0  0  0  0  0  0  0  0  0
    2.6378    0.9521    0.0000 C   0  0  0  0  0  0  0  0  0  0  0  0
    3.3523    0.5396    0.0000 N   0  0  0  0  0  0  0  0  0  0  0  0
   -0.4731   -4.5583    0.0000 H   0  0  0  0  0  0  0  0  0  0  0  0
    0.1008   -2.7920    0.0000 H   0  0  0  0  0  0  0  0  0  0  0  0
    3.1598   -3.7861    0.0000 H   0  0  0  0  0  0  0  0  0  0  0  0
    2.5858   -5.5522    0.0000 H   0  0  0  0  0  0  0  0  0  0  0  0
    1.5343   -0.2865    0.0000 H   0  0  0  0  0  0  0  0  0  0  0  0
    3.3523   -0.0404    0.0000 H   0  0  0  0  0  0  0  0  0  0  0  0
    4.2789   -0.5754    0.0000 H   0  0  0  0  0  0  0  0  0  0  0  0
    4.7812   -0.0404    0.0000 H   0  0  0  0  0  0  0  0  0  0  0  0
    5.7078   -0.5754    0.0000 H   0  0  0  0  0  0  0  0  0  0  0  0
    6.4223   -2.8829    0.0000 H   0  0  0  0  0  0  0  0  0  0  0  0
    5.4957   -3.4179    0.0000 H   0  0  0  0  0  0  0  0  0  0  0  0
    4.7812   -3.8304    0.0000 H   0  0  0  0  0  0  0  0  0  0  0  0
    3.8545   -3.2954    0.0000 H   0  0  0  0  0  0  0  0  0  0  0  0
    3.3523   -3.7924    0.0000 H   0  0  0  0  0  0  0  0  0  0  0  0
    6.0309    0.6431    0.0000 H   0  0  0  0  0  0  0  0  0  0  0  0
    7.6391    1.5716    0.0000 H   0  0  0  0  0  0  0  0  0  0  0  0
    9.2473   -1.2139    0.0000 H   0  0  0  0  0  0  0  0  0  0  0  0
    7.6391   -2.1424    0.0000 H   0  0  0  0  0  0  0  0  0  0  0  0
    2.6378   -1.7299    0.0000 H   0  0  0  0  0  0  0  0  0  0  0  0
    1.0296   -0.8014    0.0000 H   0  0  0  0  0  0  0  0  0  0  0  0
    1.0296    1.0556    0.0000 H   0  0  0  0  0  0  0  0  0  0  0  0
    2.6378    1.9841    0.0000 H   0  0  0  0  0  0  0  0  0  0  0  0
  1  2  1  0  0  0  0
  2  3  2  0  0  0  0
  2  7  1  0  0  0  0
  3  4  1  0  0  0  0
  3 42  1  0  0  0  0
  4  5  2  0  0  0  0
  4 43  1  0  0  0  0
  5  6  1  0  0  0  0
  5  8  1  0  0  0  0
  6  7  2  0  0  0  0
  6 44  1  0  0  0  0
  7 45  1  0  0  0  0
  8  9  1  0  0  0  0
  8 20  1  0  0  0  0
  9 10  2  0  0  0  0
 10 11  1  0  0  0  0
 10 46  1  0  0  0  0
 11 12  1  0  0  0  0
 11 20  2  0  0  0  0
 12 47  1  0  0  0  0
 12 48  1  0  0  0  0
 13 12  1  0  0  0  0
 13 14  1  0  0  0  0
 13 18  1  0  0  0  0
 13 34  1  1  0  0  0
 14 15  1  0  0  0  0
 14 49  1  0  0  0  0
 14 50  1  0  0  0  0
 15 16  1  0  0  0  0
 15 21  1  0  0  0  0
 16 17  1  0  0  0  0
 16 51  1  0  0  0  0
 16 52  1  0  0  0  0
 17 18  1  0  0  0  0
 17 53  1  0  0  0  0
 17 54  1  0  0  0  0
 18 19  2  0  0  0  0
 19 20  1  0  0  0  0
 19 55  1  0  0  0  0
 21 22  2  0  0  0  0
 21 23  2  0  0  0  0
 21 24  1  0  0  0  0
 24 25  2  0  0  0  0
 24 29  1  0  0  0  0
 25 26  1  0  0  0  0
 25 56  1  0  0  0  0
 26 27  2  0  0  0  0
 26 57  1  0  0  0  0
 27 28  1  0  0  0  0
 27 30  1  0  0  0  0
 28 29  2  0  0  0  0
 28 58  1  0  0  0  0
 29 59  1  0  0  0  0
 30 31  1  0  0  0  0
 30 32  1  0  0  0  0
 30 33  1  0  0  0  0
 34 35  2  0  0  0  0
 34 36  1  0  0  0  0
 36 37  2  0  0  0  0
 36 41  1  0  0  0  0
 37 38  1  0  0  0  0
 37 60  1  0  0  0  0
 38 39  2  0  0  0  0
 38 61  1  0  0  0  0
 39 40  1  0  0  0  0
 39 62  1  0  0  0  0
 40 41  2  0  0  0  0
 40 63  1  0  0  0  0
M  END
>  <DRUGBANK_ID>
DB18025

>  <COMMON_NAME>
Dazucorilant

>  <CAS_NUMBER>
1496508-34-9

>  <UNII>
HR4RD5RBJ6

>  <SYNONYMS>
Methanone, ((4ar)-1-(4-fluorophenyl)-1,4,5,6,7,8-hexahydro-6-((4-(trifluoromethyl)phenyl)sulfonyl)-4ah-pyrazolo(3,4-g)isoquinolin-4a-yl)-2-pyridinyl-

$$$$
