
 OpenBabel10282417072D

 43 41  0  0  0  0  0  0  0  0999 V2000
    0.0000    0.0000    0.0000 Na  0  3  0  0  0  0  0  0  0  0  0  0
    2.2393   -0.2669    0.0000 C   0  0  0  0  0  0  0  0  0  0  0  0
    2.9538    0.1456    0.0000 C   0  0  0  0  0  0  0  0  0  0  0  0
    3.6682   -0.2669    0.0000 C   0  0  0  0  0  0  0  0  0  0  0  0
    4.3827    0.1456    0.0000 C   0  0  0  0  0  0  0  0  0  0  0  0
    5.0972   -0.2669    0.0000 C   0  0  0  0  0  0  0  0  0  0  0  0
    5.8116    0.1456    0.0000 C   0  0  0  0  0  0  0  0  0  0  0  0
    6.5261   -0.2669    0.0000 C   0  0  0  0  0  0  0  0  0  0  0  0
    7.2406    0.1456    0.0000 C   0  0  0  0  0  0  0  0  0  0  0  0
    7.9551   -0.2669    0.0000 C   0  0  0  0  0  0  0  0  0  0  0  0
    8.6695    0.1456    0.0000 C   0  0  0  0  0  0  0  0  0  0  0  0
    9.3840   -0.2669    0.0000 C   0  0  0  0  0  0  0  0  0  0  0  0
   10.0985    0.1456    0.0000 C   0  0  0  0  0  0  0  0  0  0  0  0
   10.8129   -0.2669    0.0000 O   0  0  0  0  0  0  0  0  0  0  0  0
   11.5274    0.1456    0.0000 S   0  0  0  0  0  0  0  0  0  0  0  0
   12.2419    0.5581    0.0000 O   0  5  0  0  0  0  0  0  0  0  0  0
   11.9399   -0.5689    0.0000 O   0  0  0  0  0  0  0  0  0  0  0  0
   11.1149    0.8601    0.0000 O   0  0  0  0  0  0  0  0  0  0  0  0
    1.3127    0.2681    0.0000 H   0  0  0  0  0  0  0  0  0  0  0  0
    2.2393   -1.3369    0.0000 H   0  0  0  0  0  0  0  0  0  0  0  0
    1.3126   -0.8019    0.0000 H   0  0  0  0  0  0  0  0  0  0  0  0
    2.9538    1.2156    0.0000 H   0  0  0  0  0  0  0  0  0  0  0  0
    3.8805    0.6806    0.0000 H   0  0  0  0  0  0  0  0  0  0  0  0
    3.6682   -1.3369    0.0000 H   0  0  0  0  0  0  0  0  0  0  0  0
    4.5948   -0.8019    0.0000 H   0  0  0  0  0  0  0  0  0  0  0  0
    4.3827    1.2156    0.0000 H   0  0  0  0  0  0  0  0  0  0  0  0
    5.3093    0.6806    0.0000 H   0  0  0  0  0  0  0  0  0  0  0  0
    5.0972   -1.3369    0.0000 H   0  0  0  0  0  0  0  0  0  0  0  0
    6.0239   -0.8019    0.0000 H   0  0  0  0  0  0  0  0  0  0  0  0
    5.8116    1.2156    0.0000 H   0  0  0  0  0  0  0  0  0  0  0  0
    6.7382    0.6806    0.0000 H   0  0  0  0  0  0  0  0  0  0  0  0
    6.5261   -1.3369    0.0000 H   0  0  0  0  0  0  0  0  0  0  0  0
    7.4527   -0.8019    0.0000 H   0  0  0  0  0  0  0  0  0  0  0  0
    7.2406    1.2156    0.0000 H   0  0  0  0  0  0  0  0  0  0  0  0
    8.1672    0.6806    0.0000 H   0  0  0  0  0  0  0  0  0  0  0  0
    7.9551   -1.3369    0.0000 H   0  0  0  0  0  0  0  0  0  0  0  0
    8.8818   -0.8019    0.0000 H   0  0  0  0  0  0  0  0  0  0  0  0
    8.6695    1.2156    0.0000 H   0  0  0  0  0  0  0  0  0  0  0  0
    9.5961    0.6806    0.0000 H   0  0  0  0  0  0  0  0  0  0  0  0
    9.3840   -1.3369    0.0000 H   0  0  0  0  0  0  0  0  0  0  0  0
   10.3106   -0.8019    0.0000 H   0  0  0  0  0  0  0  0  0  0  0  0
   10.0985    1.2156    0.0000 H   0  0  0  0  0  0  0  0  0  0  0  0
   11.0252    0.6806    0.0000 H   0  0  0  0  0  0  0  0  0  0  0  0
  2  3  1  0  0  0  0
  2 19  1  0  0  0  0
  2 20  1  0  0  0  0
  2 21  1  0  0  0  0
  3  4  1  0  0  0  0
  3 22  1  0  0  0  0
  3 23  1  0  0  0  0
  4  5  1  0  0  0  0
  4 24  1  0  0  0  0
  4 25  1  0  0  0  0
  5  6  1  0  0  0  0
  5 26  1  0  0  0  0
  5 27  1  0  0  0  0
  6  7  1  0  0  0  0
  6 28  1  0  0  0  0
  6 29  1  0  0  0  0
  7  8  1  0  0  0  0
  7 30  1  0  0  0  0
  7 31  1  0  0  0  0
  8  9  1  0  0  0  0
  8 32  1  0  0  0  0
  8 33  1  0  0  0  0
  9 10  1  0  0  0  0
  9 34  1  0  0  0  0
  9 35  1  0  0  0  0
 10 11  1  0  0  0  0
 10 36  1  0  0  0  0
 10 37  1  0  0  0  0
 11 12  1  0  0  0  0
 11 38  1  0  0  0  0
 11 39  1  0  0  0  0
 12 13  1  0  0  0  0
 12 40  1  0  0  0  0
 12 41  1  0  0  0  0
 13 14  1  0  0  0  0
 13 42  1  0  0  0  0
 13 43  1  0  0  0  0
 14 15  1  0  0  0  0
 15 16  1  0  0  0  0
 15 17  2  0  0  0  0
 15 18  2  0  0  0  0
M  CHG  2   1   1  16  -1
M  END
>  <DRUGBANK_ID>
DB00815

>  <SECONDARY_ACCESSION_NUMBERS>
APRD01606

>  <COMMON_NAME>
Sodium lauryl sulfate

>  <CAS_NUMBER>
151-21-3

>  <UNII>
368GB5141J

>  <SYNONYMS>
Laurylsiran sodny; NaDS; Natrium laurylsulfuricum; SDS; SLS; Sodium dodecyl sulfate; Sodium dodecyl sulphate; Sodium dodecylsulfate; Sodium laurilsulfate; Sodium lauryl sulfate; Sodium lauryl sulphate

$$$$
