
 OpenBabel10282417072D

 65 64  0  0  1  0  0  0  0  0999 V2000
   -9.1263    2.5046    0.0000 C   0  0  0  0  0  0  0  0  0  0  0  0
   -8.4118    2.0921    0.0000 C   0  0  0  0  0  0  0  0  0  0  0  0
   -8.4118    1.2671    0.0000 C   0  0  0  0  0  0  0  0  0  0  0  0
   -7.6974    0.8546    0.0000 C   0  0  0  0  0  0  0  0  0  0  0  0
   -7.6974    0.0296    0.0000 C   0  0  0  0  0  0  0  0  0  0  0  0
   -6.9829   -0.3829    0.0000 C   0  0  0  0  0  0  0  0  0  0  0  0
   -6.9829   -1.2079    0.0000 C   0  0  0  0  0  0  0  0  0  0  0  0
   -6.2684   -1.6204    0.0000 C   0  0  0  0  0  0  0  0  0  0  0  0
   -6.2684   -2.4454    0.0000 C   0  0  0  0  0  0  0  0  0  0  0  0
   -5.5539   -2.8579    0.0000 C   0  0  0  0  0  0  0  0  0  0  0  0
   -4.8395   -2.4454    0.0000 C   0  0  0  0  0  0  0  0  0  0  0  0
   -4.1250   -2.8579    0.0000 C   0  0  0  0  0  0  0  0  0  0  0  0
   -3.4105   -2.4454    0.0000 C   0  0  0  0  0  0  0  0  0  0  0  0
   -2.6961   -2.8579    0.0000 C   0  0  0  0  0  0  0  0  0  0  0  0
   -1.9816   -2.4454    0.0000 C   0  0  0  0  0  0  0  0  0  0  0  0
   -1.2671   -2.8579    0.0000 C   0  0  0  0  0  0  0  0  0  0  0  0
   -0.5526   -2.4454    0.0000 C   0  0  0  0  0  0  0  0  0  0  0  0
    0.1618   -2.8579    0.0000 C   0  0  0  0  0  0  0  0  0  0  0  0
    3.0197   -2.8579    0.0000 C   0  0  0  0  0  0  0  0  0  0  0  0
    2.3052   -2.4454    0.0000 C   0  0  2  0  0  0  0  0  0  0  0  0
    1.5908   -2.8579    0.0000 C   0  0  0  0  0  0  0  0  0  0  0  0
    3.7342   -2.4454    0.0000 O   0  0  0  0  0  0  0  0  0  0  0  0
    2.3052   -1.6204    0.0000 O   0  0  0  0  0  0  0  0  0  0  0  0
    1.5908   -3.6829    0.0000 O   0  0  0  0  0  0  0  0  0  0  0  0
    0.8763   -2.4454    0.0000 O   0  0  0  0  0  0  0  0  0  0  0  0
   -6.9829   -2.8579    0.0000 H   0  0  0  0  0  0  0  0  0  0  0  0
   -5.5539   -3.6829    0.0000 H   0  0  0  0  0  0  0  0  0  0  0  0
    2.3052   -3.2704    0.0000 H   0  0  0  0  0  0  0  0  0  0  0  0
   -9.1263    3.5746    0.0000 H   0  0  0  0  0  0  0  0  0  0  0  0
  -10.0529    1.9696    0.0000 H   0  0  0  0  0  0  0  0  0  0  0  0
  -10.0530    3.0396    0.0000 H   0  0  0  0  0  0  0  0  0  0  0  0
   -7.4852    2.6271    0.0000 H   0  0  0  0  0  0  0  0  0  0  0  0
   -7.4852    1.5571    0.0000 H   0  0  0  0  0  0  0  0  0  0  0  0
   -9.3385    0.7321    0.0000 H   0  0  0  0  0  0  0  0  0  0  0  0
   -8.4118    0.1971    0.0000 H   0  0  0  0  0  0  0  0  0  0  0  0
   -6.7707    1.3896    0.0000 H   0  0  0  0  0  0  0  0  0  0  0  0
   -6.7708    0.3196    0.0000 H   0  0  0  0  0  0  0  0  0  0  0  0
   -8.6240   -0.5054    0.0000 H   0  0  0  0  0  0  0  0  0  0  0  0
   -7.6974   -1.0404    0.0000 H   0  0  0  0  0  0  0  0  0  0  0  0
   -6.0563    0.1521    0.0000 H   0  0  0  0  0  0  0  0  0  0  0  0
   -6.0563   -0.9179    0.0000 H   0  0  0  0  0  0  0  0  0  0  0  0
   -7.9095   -1.7429    0.0000 H   0  0  0  0  0  0  0  0  0  0  0  0
   -6.9829   -2.2779    0.0000 H   0  0  0  0  0  0  0  0  0  0  0  0
   -5.3418   -1.0854    0.0000 H   0  0  0  0  0  0  0  0  0  0  0  0
   -5.3418   -2.1554    0.0000 H   0  0  0  0  0  0  0  0  0  0  0  0
   -4.8395   -1.3754    0.0000 H   0  0  0  0  0  0  0  0  0  0  0  0
   -3.9129   -1.9104    0.0000 H   0  0  0  0  0  0  0  0  0  0  0  0
   -4.1250   -3.9279    0.0000 H   0  0  0  0  0  0  0  0  0  0  0  0
   -3.1984   -3.3929    0.0000 H   0  0  0  0  0  0  0  0  0  0  0  0
   -3.4105   -1.3754    0.0000 H   0  0  0  0  0  0  0  0  0  0  0  0
   -2.4838   -1.9104    0.0000 H   0  0  0  0  0  0  0  0  0  0  0  0
   -2.6961   -3.9279    0.0000 H   0  0  0  0  0  0  0  0  0  0  0  0
   -1.7695   -3.3929    0.0000 H   0  0  0  0  0  0  0  0  0  0  0  0
   -1.9816   -1.3754    0.0000 H   0  0  0  0  0  0  0  0  0  0  0  0
   -1.0550   -1.9104    0.0000 H   0  0  0  0  0  0  0  0  0  0  0  0
   -1.2671   -3.9279    0.0000 H   0  0  0  0  0  0  0  0  0  0  0  0
   -0.3405   -3.3929    0.0000 H   0  0  0  0  0  0  0  0  0  0  0  0
   -0.5526   -1.3754    0.0000 H   0  0  0  0  0  0  0  0  0  0  0  0
    0.3741   -1.9104    0.0000 H   0  0  0  0  0  0  0  0  0  0  0  0
    0.1618   -3.9279    0.0000 H   0  0  0  0  0  0  0  0  0  0  0  0
    1.0884   -3.3929    0.0000 H   0  0  0  0  0  0  0  0  0  0  0  0
    3.0197   -3.9279    0.0000 H   0  0  0  0  0  0  0  0  0  0  0  0
    3.9463   -3.3929    0.0000 H   0  0  0  0  0  0  0  0  0  0  0  0
    4.5742   -2.9304    0.0000 H   0  0  0  0  0  0  0  0  0  0  0  0
    3.1452   -1.1354    0.0000 H   0  0  0  0  0  0  0  0  0  0  0  0
  1 29  1  0  0  0  0
  1 30  1  0  0  0  0
  1 31  1  0  0  0  0
  2  1  1  0  0  0  0
  2 32  1  0  0  0  0
  2 33  1  0  0  0  0
  3  2  1  0  0  0  0
  3 34  1  0  0  0  0
  3 35  1  0  0  0  0
  4  3  1  0  0  0  0
  4 36  1  0  0  0  0
  4 37  1  0  0  0  0
  5  4  1  0  0  0  0
  5 38  1  0  0  0  0
  5 39  1  0  0  0  0
  6  5  1  0  0  0  0
  6 40  1  0  0  0  0
  6 41  1  0  0  0  0
  7  6  1  0  0  0  0
  7 42  1  0  0  0  0
  7 43  1  0  0  0  0
  8  7  1  0  0  0  0
  8 44  1  0  0  0  0
  8 45  1  0  0  0  0
  9  8  1  0  0  0  0
 10  9  2  0  0  0  0
 11 10  1  0  0  0  0
 11 46  1  0  0  0  0
 11 47  1  0  0  0  0
 12 11  1  0  0  0  0
 12 48  1  0  0  0  0
 12 49  1  0  0  0  0
 13 12  1  0  0  0  0
 13 50  1  0  0  0  0
 13 51  1  0  0  0  0
 14 13  1  0  0  0  0
 14 52  1  0  0  0  0
 14 53  1  0  0  0  0
 15 14  1  0  0  0  0
 15 54  1  0  0  0  0
 15 55  1  0  0  0  0
 16 15  1  0  0  0  0
 16 56  1  0  0  0  0
 16 57  1  0  0  0  0
 17 16  1  0  0  0  0
 17 58  1  0  0  0  0
 17 59  1  0  0  0  0
 18 17  1  0  0  0  0
 18 60  1  0  0  0  0
 18 61  1  0  0  0  0
 19 62  1  0  0  0  0
 19 63  1  0  0  0  0
 20 19  1  0  0  0  0
 20 23  1  0  0  0  0
 20 28  1  1  0  0  0
 21 20  1  0  0  0  0
 22 19  1  0  0  0  0
 22 64  1  0  0  0  0
 23 65  1  0  0  0  0
 24 21  2  0  0  0  0
 25 18  1  0  0  0  0
 25 21  1  0  0  0  0
 26  9  1  0  0  0  0
 27 10  1  0  0  0  0
M  END
>  <DRUGBANK_ID>
DB03831

>  <SECONDARY_ACCESSION_NUMBERS>
EXPT02220

>  <COMMON_NAME>
[(Z)-octadec-9-enyl] (2R)-2,3-bis(oxidanyl)propanoate

$$$$
