
 OpenBabel10282417072D

 37 37  0  0  1  0  0  0  0  0999 V2000
   -0.8662   -3.6883    0.0000 C   0  0  0  0  0  0  0  0  0  0  0  0
    2.1375    1.0487    0.0000 C   0  0  0  0  0  0  0  0  0  0  0  0
    3.3750    3.1921    0.0000 C   0  0  0  0  0  0  0  0  0  0  0  0
   -0.9524   -2.8678    0.0000 C   0  0  0  0  0  0  0  0  0  0  0  0
   -0.2850   -2.3829    0.0000 C   0  0  0  0  0  0  0  0  0  0  0  0
    0.4875    2.4777    0.0000 C   0  0  0  0  0  0  0  0  0  0  0  0
   -0.5045    0.1555    0.0000 C   0  0  0  0  0  0  0  0  0  0  0  0
    1.7250    1.7632    0.0000 C   0  0  2  0  0  0  0  0  0  0  0  0
    2.9625    2.4777    0.0000 C   0  0  0  0  0  0  0  0  0  0  0  0
    0.9000    1.7632    0.0000 C   0  0  2  0  0  0  0  0  0  0  0  0
    0.2100   -0.2570    0.0000 C   0  0  0  0  0  0  0  0  0  0  0  0
    0.4875    1.0487    0.0000 C   0  0  1  0  0  0  0  0  0  0  0  0
    0.2962   -1.0775    0.0000 C   0  0  0  0  0  0  0  0  0  0  0  0
    0.8231    0.2950    0.0000 N   0  0  0  0  0  0  0  0  0  0  0  0
    0.9000    3.1921    0.0000 O   0  0  0  0  0  0  0  0  0  0  0  0
    3.3750    1.7632    0.0000 O   0  0  0  0  0  0  0  0  0  0  0  0
    1.0499   -1.4130    0.0000 O   0  0  0  0  0  0  0  0  0  0  0  0
   -0.3712   -1.5624    0.0000 O   0  0  0  0  0  0  0  0  0  0  0  0
    2.1375    2.4777    0.0000 O   0  0  0  0  0  0  0  0  0  0  0  0
   -0.3330    0.9625    0.0000 S   0  0  0  0  0  0  0  0  0  0  0  0
    1.5818    0.9507    0.0000 H   0  0  0  0  0  0  0  0  0  0  0  0
    1.3125    2.4777    0.0000 H   0  0  0  0  0  0  0  0  0  0  0  0
    1.2469    0.7264    0.0000 H   0  0  0  0  0  0  0  0  0  0  0  0
   -1.7011   -4.2949    0.0000 H   0  0  0  0  0  0  0  0  0  0  0  0
    0.0766   -4.1081    0.0000 H   0  0  0  0  0  0  0  0  0  0  0  0
    1.6025    0.1221    0.0000 H   0  0  0  0  0  0  0  0  0  0  0  0
    3.2075    1.0487    0.0000 H   0  0  0  0  0  0  0  0  0  0  0  0
    2.6725    0.1220    0.0000 H   0  0  0  0  0  0  0  0  0  0  0  0
    4.4450    3.1921    0.0000 H   0  0  0  0  0  0  0  0  0  0  0  0
    2.8400    4.1188    0.0000 H   0  0  0  0  0  0  0  0  0  0  0  0
    3.9100    4.1187    0.0000 H   0  0  0  0  0  0  0  0  0  0  0  0
   -1.8952   -2.4480    0.0000 H   0  0  0  0  0  0  0  0  0  0  0  0
    0.6925   -2.8181    0.0000 H   0  0  0  0  0  0  0  0  0  0  0  0
    0.5807   -1.7540    0.0000 H   0  0  0  0  0  0  0  0  0  0  0  0
   -0.5445    2.4777    0.0000 H   0  0  0  0  0  0  0  0  0  0  0  0
   -1.4473   -0.2643    0.0000 H   0  0  0  0  0  0  0  0  0  0  0  0
    1.7861    0.0903    0.0000 H   0  0  0  0  0  0  0  0  0  0  0  0
  1 24  1  0  0  0  0
  1 25  1  0  0  0  0
  2 26  1  0  0  0  0
  2 27  1  0  0  0  0
  2 28  1  0  0  0  0
  3 29  1  0  0  0  0
  3 30  1  0  0  0  0
  3 31  1  0  0  0  0
  4  1  2  0  0  0  0
  4 32  1  0  0  0  0
  5  4  1  0  0  0  0
  5 33  1  0  0  0  0
  5 34  1  0  0  0  0
  6 35  1  0  0  0  0
  7 36  1  0  0  0  0
  8  2  1  0  0  0  0
  8 21  1  1  0  0  0
  9  3  1  0  0  0  0
 10  6  1  0  0  0  0
 10  8  1  0  0  0  0
 10 22  1  1  0  0  0
 11  7  2  0  0  0  0
 12 10  1  0  0  0  0
 12 23  1  6  0  0  0
 13 11  1  0  0  0  0
 14 11  1  0  0  0  0
 14 12  1  0  0  0  0
 14 37  1  0  0  0  0
 15  6  2  0  0  0  0
 16  9  2  0  0  0  0
 17 13  2  0  0  0  0
 18  5  1  0  0  0  0
 18 13  1  0  0  0  0
 19  8  1  0  0  0  0
 19  9  1  0  0  0  0
 20  7  1  0  0  0  0
 20 12  1  0  0  0  0
M  END
>  <DRUGBANK_ID>
DB06904

>  <COMMON_NAME>
(5S,6S)-6-[(R)ACETOXYETH-2-YL]-PENEM-3-CARBOXYLATEPROPANE

$$$$
