MKC
 OpenBabel10282417072D

 44 45  0  0  0  0  0  0  0  0999 V2000
    1.0554   -0.7707    0.0000 C   0  0  0  0  0  0  0  0  0  0  0  0
    1.7699   -1.1832    0.0000 C   0  0  0  0  0  0  0  0  0  0  0  0
    1.7699   -2.0082    0.0000 C   0  0  0  0  0  0  0  0  0  0  0  0
    1.0554   -2.4207    0.0000 C   0  0  0  0  0  0  0  0  0  0  0  0
    0.3409   -2.0082    0.0000 C   0  0  0  0  0  0  0  0  0  0  0  0
    0.3409   -1.1832    0.0000 C   0  0  0  0  0  0  0  0  0  0  0  0
    0.3409    0.4668    0.0000 C   0  0  0  0  0  0  0  0  0  0  0  0
   -0.3735    0.0543    0.0000 N   0  0  0  0  0  0  0  0  0  0  0  0
   -1.0880    0.4668    0.0000 C   0  0  0  0  0  0  0  0  0  0  0  0
   -1.8025    0.0543    0.0000 O   0  0  0  0  0  0  0  0  0  0  0  0
   -1.0880    1.2918    0.0000 N   0  0  0  0  0  0  0  0  0  0  0  0
   -0.3735    1.7043    0.0000 C   0  0  0  0  0  0  0  0  0  0  0  0
   -0.3735    2.5293    0.0000 O   0  0  0  0  0  0  0  0  0  0  0  0
    0.3409    1.2918    0.0000 C   0  0  0  0  0  0  0  0  0  0  0  0
    1.0554    0.0543    0.0000 C   0  0  0  0  0  0  0  0  0  0  0  0
    1.0554    1.7043    0.0000 C   0  0  0  0  0  0  0  0  0  0  0  0
    1.0554    2.5293    0.0000 C   0  0  0  0  0  0  0  0  0  0  0  0
    1.7699    1.2918    0.0000 C   0  0  0  0  0  0  0  0  0  0  0  0
   -0.3735   -0.7707    0.0000 C   0  0  0  0  0  0  0  0  0  0  0  0
   -1.0880   -1.1832    0.0000 O   0  0  0  0  0  0  0  0  0  0  0  0
   -1.8025   -0.7707    0.0000 C   0  0  0  0  0  0  0  0  0  0  0  0
   -2.5170   -1.1832    0.0000 C   0  0  0  0  0  0  0  0  0  0  0  0
    2.6636   -0.6672    0.0000 H   0  0  0  0  0  0  0  0  0  0  0  0
    2.6636   -2.5242    0.0000 H   0  0  0  0  0  0  0  0  0  0  0  0
    1.0554   -3.4527    0.0000 H   0  0  0  0  0  0  0  0  0  0  0  0
   -0.5528   -2.5242    0.0000 H   0  0  0  0  0  0  0  0  0  0  0  0
   -0.5528   -0.6672    0.0000 H   0  0  0  0  0  0  0  0  0  0  0  0
   -1.9406    1.7841    0.0000 H   0  0  0  0  0  0  0  0  0  0  0  0
    1.9820    0.5893    0.0000 H   0  0  0  0  0  0  0  0  0  0  0  0
    1.0554    1.1243    0.0000 H   0  0  0  0  0  0  0  0  0  0  0  0
    1.9820    2.2393    0.0000 H   0  0  0  0  0  0  0  0  0  0  0  0
    1.9820    3.0643    0.0000 H   0  0  0  0  0  0  0  0  0  0  0  0
    0.1288    3.0643    0.0000 H   0  0  0  0  0  0  0  0  0  0  0  0
    1.0554    3.5993    0.0000 H   0  0  0  0  0  0  0  0  0  0  0  0
    1.7699    0.2218    0.0000 H   0  0  0  0  0  0  0  0  0  0  0  0
    2.6965    1.8268    0.0000 H   0  0  0  0  0  0  0  0  0  0  0  0
    2.6966    0.7568    0.0000 H   0  0  0  0  0  0  0  0  0  0  0  0
    0.5531   -1.3057    0.0000 H   0  0  0  0  0  0  0  0  0  0  0  0
   -0.3735   -1.8407    0.0000 H   0  0  0  0  0  0  0  0  0  0  0  0
   -1.8025    0.2993    0.0000 H   0  0  0  0  0  0  0  0  0  0  0  0
   -2.7291   -0.2357    0.0000 H   0  0  0  0  0  0  0  0  0  0  0  0
   -3.4436   -0.6482    0.0000 H   0  0  0  0  0  0  0  0  0  0  0  0
   -2.5170   -2.2532    0.0000 H   0  0  0  0  0  0  0  0  0  0  0  0
   -3.4437   -1.7182    0.0000 H   0  0  0  0  0  0  0  0  0  0  0  0
  1  2  2  0  0  0  0
  1  6  1  0  0  0  0
  1 15  1  0  0  0  0
  2  3  1  0  0  0  0
  2 23  1  0  0  0  0
  3  4  2  0  0  0  0
  3 24  1  0  0  0  0
  4  5  1  0  0  0  0
  4 25  1  0  0  0  0
  5  6  2  0  0  0  0
  5 26  1  0  0  0  0
  6 27  1  0  0  0  0
  7  8  1  0  0  0  0
  7 14  2  0  0  0  0
  7 15  1  0  0  0  0
  8  9  1  0  0  0  0
  8 19  1  0  0  0  0
  9 10  2  0  0  0  0
  9 11  1  0  0  0  0
 11 12  1  0  0  0  0
 11 28  1  0  0  0  0
 12 13  2  0  0  0  0
 12 14  1  0  0  0  0
 14 16  1  0  0  0  0
 15 29  1  0  0  0  0
 15 30  1  0  0  0  0
 16 17  1  0  0  0  0
 16 18  1  0  0  0  0
 16 31  1  0  0  0  0
 17 32  1  0  0  0  0
 17 33  1  0  0  0  0
 17 34  1  0  0  0  0
 18 35  1  0  0  0  0
 18 36  1  0  0  0  0
 18 37  1  0  0  0  0
 19 20  1  0  0  0  0
 19 38  1  0  0  0  0
 19 39  1  0  0  0  0
 20 21  1  0  0  0  0
 21 22  1  0  0  0  0
 21 40  1  0  0  0  0
 21 41  1  0  0  0  0
 22 42  1  0  0  0  0
 22 43  1  0  0  0  0
 22 44  1  0  0  0  0
M  END
>  <DRUGBANK_ID>
DB08188

>  <SECONDARY_ACCESSION_NUMBERS>
DB12488

>  <COMMON_NAME>
Emivirine

>  <CAS_NUMBER>
149950-60-7

>  <UNII>
X87G8IX72O

>  <SYNONYMS>
1-(ethoxymethyl)-5-(1-methylethyl)-6-(phenylmethyl)pyrimidine-2,4(1H,3H)-dione; 6-benzyl-1-(ethoxymethyl)-5-(1-methylethyl)uracil; Emivirine

$$$$
