
 OpenBabel10282417072D

 35 35  0  0  0  0  0  0  0  0999 V2000
    3.6020    1.1118    0.0000 N   0  0  0  0  0  0  0  0  0  0  0  0
    2.4751   -0.8403    0.0000 C   0  0  0  0  0  0  0  0  0  0  0  0
    3.9041   -0.8403    0.0000 C   0  0  0  0  0  0  0  0  0  0  0  0
    3.1895    0.3972    0.0000 C   0  0  0  0  0  0  0  0  0  0  0  0
    3.1895   -1.2528    0.0000 C   0  0  0  0  0  0  0  0  0  0  0  0
    2.4751   -0.0153    0.0000 C   0  0  0  0  0  0  0  0  0  0  0  0
    3.9041   -0.0153    0.0000 C   0  0  0  0  0  0  0  0  0  0  0  0
    2.0625   -1.5547    0.0000 C   0  0  0  0  0  0  0  0  0  0  0  0
    1.6500   -0.8403    0.0000 C   0  0  0  0  0  0  0  0  0  0  0  0
    4.3166   -1.5547    0.0000 C   0  0  0  0  0  0  0  0  0  0  0  0
    4.7291   -0.8403    0.0000 C   0  0  0  0  0  0  0  0  0  0  0  0
    2.7770    1.1118    0.0000 C   0  0  0  0  0  0  0  0  0  0  0  0
    4.6220    1.1119    0.0000 H   0  0  0  0  0  0  0  0  0  0  0  0
    3.0919    1.9951    0.0000 H   0  0  0  0  0  0  0  0  0  0  0  0
    3.1894   -2.3228    0.0000 H   0  0  0  0  0  0  0  0  0  0  0  0
    4.1161   -1.7879    0.0000 H   0  0  0  0  0  0  0  0  0  0  0  0
    1.5484    0.5197    0.0000 H   0  0  0  0  0  0  0  0  0  0  0  0
    2.4751    1.0547    0.0000 H   0  0  0  0  0  0  0  0  0  0  0  0
    4.8307    0.5197    0.0000 H   0  0  0  0  0  0  0  0  0  0  0  0
    3.9040    1.0547    0.0000 H   0  0  0  0  0  0  0  0  0  0  0  0
    0.9925   -1.5545    0.0000 H   0  0  0  0  0  0  0  0  0  0  0  0
    2.5974   -2.4814    0.0000 H   0  0  0  0  0  0  0  0  0  0  0  0
    1.5274   -2.4813    0.0000 H   0  0  0  0  0  0  0  0  0  0  0  0
    1.1150    0.0863    0.0000 H   0  0  0  0  0  0  0  0  0  0  0  0
    1.1150   -1.7669    0.0000 H   0  0  0  0  0  0  0  0  0  0  0  0
    0.5800   -0.8403    0.0000 H   0  0  0  0  0  0  0  0  0  0  0  0
    3.7816   -2.4814    0.0000 H   0  0  0  0  0  0  0  0  0  0  0  0
    5.3866   -1.5547    0.0000 H   0  0  0  0  0  0  0  0  0  0  0  0
    4.8516   -2.4813    0.0000 H   0  0  0  0  0  0  0  0  0  0  0  0
    5.2641   -1.7669    0.0000 H   0  0  0  0  0  0  0  0  0  0  0  0
    5.2641    0.0863    0.0000 H   0  0  0  0  0  0  0  0  0  0  0  0
    5.7991   -0.8403    0.0000 H   0  0  0  0  0  0  0  0  0  0  0  0
    3.3121    2.0384    0.0000 H   0  0  0  0  0  0  0  0  0  0  0  0
    1.7070    1.1119    0.0000 H   0  0  0  0  0  0  0  0  0  0  0  0
    2.2421    2.0385    0.0000 H   0  0  0  0  0  0  0  0  0  0  0  0
  1  4  1  0  0  0  0
  1 13  1  0  0  0  0
  1 14  1  0  0  0  0
  2  5  1  0  0  0  0
  2  6  1  0  0  0  0
  2  8  1  0  0  0  0
  2  9  1  0  0  0  0
  3  5  1  0  0  0  0
  3  7  1  0  0  0  0
  3 10  1  0  0  0  0
  3 11  1  0  0  0  0
  4  6  1  0  0  0  0
  4  7  1  0  0  0  0
  4 12  1  0  0  0  0
  5 15  1  0  0  0  0
  5 16  1  0  0  0  0
  6 17  1  0  0  0  0
  6 18  1  0  0  0  0
  7 19  1  0  0  0  0
  7 20  1  0  0  0  0
  8 21  1  0  0  0  0
  8 22  1  0  0  0  0
  8 23  1  0  0  0  0
  9 24  1  0  0  0  0
  9 25  1  0  0  0  0
  9 26  1  0  0  0  0
 10 27  1  0  0  0  0
 10 28  1  0  0  0  0
 10 29  1  0  0  0  0
 11 30  1  0  0  0  0
 11 31  1  0  0  0  0
 11 32  1  0  0  0  0
 12 33  1  0  0  0  0
 12 34  1  0  0  0  0
 12 35  1  0  0  0  0
M  END
>  <DRUGBANK_ID>
DB04926

>  <COMMON_NAME>
Neramexane

>  <CAS_NUMBER>
219810-59-0

>  <UNII>
856DX0KJ84

>  <SYNONYMS>
Neramexane

$$$$
