
 OpenBabel10282417072D

160166  0  0  0  0  0  0  0  0999 V2000
    0.8659   -1.4342    0.0000 N   0  0  0  0  0  0  0  0  0  0  0  0
    4.0760   -4.0167    0.0000 N   0  0  0  0  0  0  0  0  0  0  0  0
    1.2357   -0.6982    0.0000 C   0  0  2  0  0  0  0  0  0  0  0  0
    1.2388   -2.1659    0.0000 C   0  0  0  0  0  0  0  0  0  0  0  0
    4.0806   -3.1867    0.0000 C   0  0  0  0  0  0  0  0  0  0  0  0
    1.1049   -5.0253    0.0000 C   0  0  2  0  0  0  0  0  0  0  0  0
    0.7917   -2.8564    0.0000 C   0  0  1  0  0  0  0  0  0  0  0  0
    1.9520   -0.2891    0.0000 C   0  0  0  0  0  0  0  0  0  0  0  0
    4.7961   -2.7818    0.0000 C   0  0  1  0  0  0  0  0  0  0  0  0
    1.1716   -3.5976    0.0000 N   0  0  0  0  0  0  0  0  0  0  0  0
    2.0099   -4.7885    0.0000 N   0  0  0  0  0  0  0  0  0  0  0  0
    4.8008   -1.9520    0.0000 N   0  0  0  0  0  0  0  0  0  0  0  0
    0.7245   -4.2882    0.0000 C   0  0  0  0  0  0  0  0  0  0  0  0
    2.6645   -0.7017    0.0000 N   0  0  0  0  0  0  0  0  0  0  0  0
   -2.6965   -8.2933    0.0000 S   0  0  0  0  0  0  0  0  0  0  0  0
    2.6254   -4.2375    0.0000 C   0  0  0  0  0  0  0  0  0  0  0  0
    3.4080   -4.4964    0.0000 C   0  0  2  0  0  0  0  0  0  0  0  0
    5.5211   -1.5435    0.0000 C   0  0  0  0  0  0  0  0  0  0  0  0
    9.9037    1.7199    0.0000 N   0  0  0  0  0  0  0  0  0  0  0  0
    0.7711   -5.7753    0.0000 C   0  0  1  0  0  0  0  0  0  0  0  0
   10.5689    0.5556    0.0000 C   0  0  0  0  0  0  0  0  0  0  0  0
    0.0410   -1.3965    0.0000 C   0  0  0  0  0  0  0  0  0  0  0  0
   11.1219    1.1666    0.0000 C   0  0  0  0  0  0  0  0  0  0  0  0
    9.8160    0.8984    0.0000 C   0  0  0  0  0  0  0  0  0  0  0  0
   10.7135    1.8869    0.0000 O   0  0  0  0  0  0  0  0  0  0  0  0
    0.6504   -0.1152    0.0000 C   0  0  2  0  0  0  0  0  0  0  0  0
    5.5204   -0.7213    0.0000 C   0  0  1  0  0  0  0  0  0  0  0  0
   -1.5434   -7.4535    0.0000 C   0  0  0  0  0  0  0  0  0  0  0  0
    6.9480   -0.7330    0.0000 C   0  0  0  0  0  0  0  0  0  0  0  0
    3.3848   -0.2933    0.0000 C   0  0  1  0  0  0  0  0  0  0  0  0
   -0.0868   -0.4958    0.0000 C   0  0  1  0  0  0  0  0  0  0  0  0
    6.2406   -0.3128    0.0000 N   0  0  0  0  0  0  0  0  0  0  0  0
   -0.0290   -2.8195    0.0000 C   0  0  1  0  0  0  0  0  0  0  0  0
   -2.3654   -7.5344    0.0000 O   0  0  0  0  0  0  0  0  0  0  0  0
   -0.4069   -2.0913    0.0000 C   0  0  0  0  0  0  0  0  0  0  0  0
   -0.0481   -5.8650    0.0000 C   0  0  2  0  0  0  0  0  0  0  0  0
   -0.3910   -6.6179    0.0000 C   0  0  0  0  0  0  0  0  0  0  0  0
    4.8124   -0.3051    0.0000 C   0  0  0  0  0  0  0  0  0  0  0  0
   -1.2046   -6.7001    0.0000 C   0  0  0  0  0  0  0  0  0  0  0  0
    4.7389   -4.5061    0.0000 C   0  0  0  0  0  0  0  0  0  0  0  0
    3.6590   -5.2811    0.0000 C   0  0  0  0  0  0  0  0  0  0  0  0
    4.0922   -0.7135    0.0000 C   0  0  1  0  0  0  0  0  0  0  0  0
   -1.2358   -2.0530    0.0000 C   0  0  0  0  0  0  0  0  0  0  0  0
    3.3686   -2.7700    0.0000 O   0  0  0  0  0  0  0  0  0  0  0  0
    2.0679   -2.2043    0.0000 O   0  0  0  0  0  0  0  0  0  0  0  0
   -1.9429   -8.6321    0.0000 O   0  0  0  0  0  0  0  0  0  0  0  0
   -3.4554   -7.9622    0.0000 O   0  0  0  0  0  0  0  0  0  0  0  0
   11.9393    1.0795    0.0000 C   0  0  0  0  0  0  0  0  0  0  0  0
    7.6682   -0.3246    0.0000 C   0  0  0  0  0  0  0  0  0  0  0  0
    1.9559    0.5368    0.0000 O   0  0  0  0  0  0  0  0  0  0  0  0
    9.0957    0.4900    0.0000 C   0  0  0  0  0  0  0  0  0  0  0  0
   -1.0554   -8.1227    0.0000 C   0  0  0  0  0  0  0  0  0  0  0  0
   -0.0963   -4.2511    0.0000 O   0  0  0  0  0  0  0  0  0  0  0  0
    2.4585   -3.4277    0.0000 O   0  0  0  0  0  0  0  0  0  0  0  0
    6.2283   -1.9637    0.0000 O   0  0  0  0  0  0  0  0  0  0  0  0
    6.9480   -1.5595    0.0000 O   0  0  0  0  0  0  0  0  0  0  0  0
    5.5082   -3.1986    0.0000 C   0  0  2  0  0  0  0  0  0  0  0  0
    4.4800   -5.2887    0.0000 C   0  0  1  0  0  0  0  0  0  0  0  0
    0.1023   -7.2795    0.0000 C   0  0  0  0  0  0  0  0  0  0  0  0
   -3.0381   -9.0379    0.0000 O   0  0  0  0  0  0  0  0  0  0  0  0
   -1.6747   -2.7447    0.0000 O   0  0  0  0  0  0  0  0  0  0  0  0
   -0.2322   -8.0336    0.0000 C   0  0  0  0  0  0  0  0  0  0  0  0
    7.6674    0.4978    0.0000 C   0  0  0  0  0  0  0  0  0  0  0  0
    8.3761   -0.7408    0.0000 C   0  0  0  0  0  0  0  0  0  0  0  0
    9.0963   -0.3323    0.0000 C   0  0  0  0  0  0  0  0  0  0  0  0
    8.3837    0.9067    0.0000 C   0  0  0  0  0  0  0  0  0  0  0  0
   12.4238    1.7391    0.0000 C   0  0  0  0  0  0  0  0  0  0  0  0
   12.2701    0.3206    0.0000 C   0  0  0  0  0  0  0  0  0  0  0  0
    1.2547   -6.4438    0.0000 O   0  0  0  0  0  0  0  0  0  0  0  0
   -1.6129   -1.3206    0.0000 N   0  0  0  0  0  0  0  0  0  0  0  0
    0.7752    0.7005    0.0000 O   0  0  0  0  0  0  0  0  0  0  0  0
    3.3842    0.5291    0.0000 O   0  0  0  0  0  0  0  0  0  0  0  0
   -0.5318   -5.1965    0.0000 O   0  0  0  0  0  0  0  0  0  0  0  0
   -0.4734   -3.5188    0.0000 O   0  0  0  0  0  0  0  0  0  0  0  0
   13.5803    0.8917    0.0000 C   0  0  0  0  0  0  0  0  0  0  0  0
    4.0882   -1.5393    0.0000 O   0  0  0  0  0  0  0  0  0  0  0  0
   13.2453    1.6514    0.0000 C   0  0  0  0  0  0  0  0  0  0  0  0
   13.0903    0.2246    0.0000 C   0  0  0  0  0  0  0  0  0  0  0  0
   -1.3936   -8.8721    0.0000 O   0  0  0  0  0  0  0  0  0  0  0  0
    4.9590   -5.9607    0.0000 O   0  0  0  0  0  0  0  0  0  0  0  0
    6.2244   -2.7896    0.0000 O   0  0  0  0  0  0  0  0  0  0  0  0
   -0.8175   -0.1184    0.0000 C   0  0  0  0  0  0  0  0  0  0  0  0
   14.4017    0.8041    0.0000 O   0  0  0  0  0  0  0  0  0  0  0  0
    5.5048   -4.0204    0.0000 C   0  0  0  0  0  0  0  0  0  0  0  0
   14.7332    0.0492    0.0000 C   0  0  0  0  0  0  0  0  0  0  0  0
   14.2480   -0.6146    0.0000 C   0  0  0  0  0  0  0  0  0  0  0  0
   14.0929   -2.0412    0.0000 C   0  0  0  0  0  0  0  0  0  0  0  0
   14.5787   -1.3735    0.0000 C   0  0  0  0  0  0  0  0  0  0  0  0
   14.4249   -2.7919    0.0000 C   0  0  0  0  0  0  0  0  0  0  0  0
    2.0122   -1.4344    0.0000 H   0  0  0  0  0  0  0  0  0  0  0  0
    1.5404   -4.0480    0.0000 H   0  0  0  0  0  0  0  0  0  0  0  0
    1.8603   -2.9104    0.0000 H   0  0  0  0  0  0  0  0  0  0  0  0
    3.8733   -2.2402    0.0000 H   0  0  0  0  0  0  0  0  0  0  0  0
    2.1548   -3.6473    0.0000 H   0  0  0  0  0  0  0  0  0  0  0  0
    2.4759   -5.6557    0.0000 H   0  0  0  0  0  0  0  0  0  0  0  0
    3.9515   -1.4541    0.0000 H   0  0  0  0  0  0  0  0  0  0  0  0
    2.6600   -1.6862    0.0000 H   0  0  0  0  0  0  0  0  0  0  0  0
    3.2464   -3.4387    0.0000 H   0  0  0  0  0  0  0  0  0  0  0  0
    1.8353   -5.6645    0.0000 H   0  0  0  0  0  0  0  0  0  0  0  0
   10.7779   -0.4550    0.0000 H   0  0  0  0  0  0  0  0  0  0  0  0
   -0.6787   -2.1883    0.0000 H   0  0  0  0  0  0  0  0  0  0  0  0
   -0.9817   -1.0819    0.0000 H   0  0  0  0  0  0  0  0  0  0  0  0
    1.6668    0.2191    0.0000 H   0  0  0  0  0  0  0  0  0  0  0  0
    4.5919   -1.2531    0.0000 H   0  0  0  0  0  0  0  0  0  0  0  0
    2.4601    0.2450    0.0000 H   0  0  0  0  0  0  0  0  0  0  0  0
   -0.9592   -1.1153    0.0000 H   0  0  0  0  0  0  0  0  0  0  0  0
    6.2505    0.6717    0.0000 H   0  0  0  0  0  0  0  0  0  0  0  0
    0.4650   -3.7686    0.0000 H   0  0  0  0  0  0  0  0  0  0  0  0
    0.1697   -1.1900    0.0000 H   0  0  0  0  0  0  0  0  0  0  0  0
   -0.8989   -1.1411    0.0000 H   0  0  0  0  0  0  0  0  0  0  0  0
    0.3859   -4.8870    0.0000 H   0  0  0  0  0  0  0  0  0  0  0  0
    4.8207    0.7649    0.0000 H   0  0  0  0  0  0  0  0  0  0  0  0
    3.8899    0.2371    0.0000 H   0  0  0  0  0  0  0  0  0  0  0  0
   -1.8080   -5.8629    0.0000 H   0  0  0  0  0  0  0  0  0  0  0  0
    5.7587   -4.1821    0.0000 H   0  0  0  0  0  0  0  0  0  0  0  0
    5.4910   -5.2672    0.0000 H   0  0  0  0  0  0  0  0  0  0  0  0
    3.0241   -6.1424    0.0000 H   0  0  0  0  0  0  0  0  0  0  0  0
    4.1370   -6.2384    0.0000 H   0  0  0  0  0  0  0  0  0  0  0  0
    5.0155   -1.2543    0.0000 H   0  0  0  0  0  0  0  0  0  0  0  0
    5.5139   -2.1286    0.0000 H   0  0  0  0  0  0  0  0  0  0  0  0
    3.9855   -6.2376    0.0000 H   0  0  0  0  0  0  0  0  0  0  0  0
    1.1279   -7.1646    0.0000 H   0  0  0  0  0  0  0  0  0  0  0  0
   -4.0039   -9.1284    0.0000 H   0  0  0  0  0  0  0  0  0  0  0  0
    0.3763   -8.8671    0.0000 H   0  0  0  0  0  0  0  0  0  0  0  0
    6.7747    1.0155    0.0000 H   0  0  0  0  0  0  0  0  0  0  0  0
    8.3681   -1.7728    0.0000 H   0  0  0  0  0  0  0  0  0  0  0  0
    9.9882   -0.8514    0.0000 H   0  0  0  0  0  0  0  0  0  0  0  0
    8.3893    1.9387    0.0000 H   0  0  0  0  0  0  0  0  0  0  0  0
   12.0073    2.6833    0.0000 H   0  0  0  0  0  0  0  0  0  0  0  0
   11.6553   -0.5083    0.0000 H   0  0  0  0  0  0  0  0  0  0  0  0
    0.8583   -7.3291    0.0000 H   0  0  0  0  0  0  0  0  0  0  0  0
   -1.0802   -0.4927    0.0000 H   0  0  0  0  0  0  0  0  0  0  0  0
   -2.5963   -1.2732    0.0000 H   0  0  0  0  0  0  0  0  0  0  0  0
    1.6789    1.0529    0.0000 H   0  0  0  0  0  0  0  0  0  0  0  0
    4.2239    1.0147    0.0000 H   0  0  0  0  0  0  0  0  0  0  0  0
   -0.1355   -4.3111    0.0000 H   0  0  0  0  0  0  0  0  0  0  0  0
   -1.4425   -3.4776    0.0000 H   0  0  0  0  0  0  0  0  0  0  0  0
    3.2458   -2.0202    0.0000 H   0  0  0  0  0  0  0  0  0  0  0  0
   13.8541    2.4847    0.0000 H   0  0  0  0  0  0  0  0  0  0  0  0
   13.5020   -0.7217    0.0000 H   0  0  0  0  0  0  0  0  0  0  0  0
   -2.3259   -8.9653    0.0000 H   0  0  0  0  0  0  0  0  0  0  0  0
    4.5565   -6.8432    0.0000 H   0  0  0  0  0  0  0  0  0  0  0  0
    7.0621   -3.2786    0.0000 H   0  0  0  0  0  0  0  0  0  0  0  0
   -0.8676    0.9504    0.0000 H   0  0  0  0  0  0  0  0  0  0  0  0
   -1.7181   -0.6962    0.0000 H   0  0  0  0  0  0  0  0  0  0  0  0
   -1.7682    0.3726    0.0000 H   0  0  0  0  0  0  0  0  0  0  0  0
    4.5759   -4.5516    0.0000 H   0  0  0  0  0  0  0  0  0  0  0  0
    6.4292   -4.5592    0.0000 H   0  0  0  0  0  0  0  0  0  0  0  0
    5.5004   -5.0904    0.0000 H   0  0  0  0  0  0  0  0  0  0  0  0
   15.7969   -0.0669    0.0000 H   0  0  0  0  0  0  0  0  0  0  0  0
   15.1651   -0.9298    0.0000 H   0  0  0  0  0  0  0  0  0  0  0  0
   13.1845   -0.4970    0.0000 H   0  0  0  0  0  0  0  0  0  0  0  0
   13.6133   -1.4760    0.0000 H   0  0  0  0  0  0  0  0  0  0  0  0
   13.0289   -1.9277    0.0000 H   0  0  0  0  0  0  0  0  0  0  0  0
   13.4622   -2.9056    0.0000 H   0  0  0  0  0  0  0  0  0  0  0  0
   15.6423   -1.4899    0.0000 H   0  0  0  0  0  0  0  0  0  0  0  0
   15.2129   -0.5117    0.0000 H   0  0  0  0  0  0  0  0  0  0  0  0
   13.7938   -3.6560    0.0000 H   0  0  0  0  0  0  0  0  0  0  0  0
   15.4888   -2.9064    0.0000 H   0  0  0  0  0  0  0  0  0  0  0  0
   14.8577   -3.7705    0.0000 H   0  0  0  0  0  0  0  0  0  0  0  0
  2 17  1  0  0  0  0
  3  1  1  0  0  0  0
  3  8  1  0  0  0  0
  3 90  1  6  0  0  0
  4  1  1  0  0  0  0
  5  2  1  0  0  0  0
  6 13  1  0  0  0  0
  6 91  1  6  0  0  0
  7  4  1  0  0  0  0
  7 92  1  6  0  0  0
  9 12  1  0  0  0  0
  9  5  1  0  0  0  0
  9 93  1  6  0  0  0
 10  7  1  0  0  0  0
 10 94  1  0  0  0  0
 11  6  1  0  0  0  0
 11 95  1  0  0  0  0
 12 18  1  0  0  0  0
 12 96  1  0  0  0  0
 13 10  1  0  0  0  0
 14  8  1  0  0  0  0
 14 97  1  0  0  0  0
 15 34  1  0  0  0  0
 16 11  1  0  0  0  0
 17 16  1  0  0  0  0
 17 98  1  6  0  0  0
 18 27  1  0  0  0  0
 19 24  2  0  0  0  0
 20  6  1  0  0  0  0
 20 69  1  0  0  0  0
 20 99  1  1  0  0  0
 21 24  1  0  0  0  0
 21100  1  0  0  0  0
 22  1  1  0  0  0  0
 22101  1  0  0  0  0
 22102  1  0  0  0  0
 23 21  2  0  0  0  0
 23 25  1  0  0  0  0
 24 51  1  0  0  0  0
 25 19  1  0  0  0  0
 26  3  1  0  0  0  0
 26 71  1  0  0  0  0
 26 31  1  0  0  0  0
 26103  1  1  0  0  0
 27 38  1  0  0  0  0
 27104  1  1  0  0  0
 28 39  1  0  0  0  0
 28 52  2  0  0  0  0
 29 32  1  0  0  0  0
 30 14  1  0  0  0  0
 30 72  1  0  0  0  0
 30105  1  1  0  0  0
 31 22  1  0  0  0  0
 31 82  1  0  0  0  0
 31106  1  1  0  0  0
 32 27  1  0  0  0  0
 32107  1  0  0  0  0
 33  7  1  0  0  0  0
 33 74  1  0  0  0  0
 33108  1  1  0  0  0
 34 28  1  0  0  0  0
 35 33  1  0  0  0  0
 35109  1  0  0  0  0
 35110  1  0  0  0  0
 36 20  1  0  0  0  0
 36 73  1  0  0  0  0
 36111  1  1  0  0  0
 37 36  1  0  0  0  0
 38 42  1  0  0  0  0
 38112  1  0  0  0  0
 38113  1  0  0  0  0
 39 37  2  0  0  0  0
 39114  1  0  0  0  0
 40  2  1  0  0  0  0
 40115  1  0  0  0  0
 40116  1  0  0  0  0
 41 17  1  0  0  0  0
 41117  1  0  0  0  0
 41118  1  0  0  0  0
 42 30  1  0  0  0  0
 42 76  1  0  0  0  0
 42119  1  6  0  0  0
 43 35  1  0  0  0  0
 44  5  2  0  0  0  0
 45  4  2  0  0  0  0
 46 15  2  0  0  0  0
 47 15  2  0  0  0  0
 48 23  1  0  0  0  0
 49 29  1  0  0  0  0
 50  8  2  0  0  0  0
 51 65  2  0  0  0  0
 52 62  1  0  0  0  0
 53 13  2  0  0  0  0
 54 16  2  0  0  0  0
 55 18  2  0  0  0  0
 56 29  2  0  0  0  0
 57  9  1  0  0  0  0
 57 81  1  0  0  0  0
 57120  1  1  0  0  0
 58 41  1  0  0  0  0
 58 80  1  0  0  0  0
 58 40  1  0  0  0  0
 58121  1  1  0  0  0
 59 37  1  0  0  0  0
 59122  1  0  0  0  0
 60 15  1  0  0  0  0
 60123  1  0  0  0  0
 61 43  2  0  0  0  0
 62 59  2  0  0  0  0
 62124  1  0  0  0  0
 63 49  1  0  0  0  0
 63125  1  0  0  0  0
 64 49  2  0  0  0  0
 64126  1  0  0  0  0
 65 64  1  0  0  0  0
 65127  1  0  0  0  0
 66 63  2  0  0  0  0
 66 51  1  0  0  0  0
 66128  1  0  0  0  0
 67 48  1  0  0  0  0
 67129  1  0  0  0  0
 68 48  2  0  0  0  0
 68130  1  0  0  0  0
 69131  1  0  0  0  0
 70 43  1  0  0  0  0
 70132  1  0  0  0  0
 70133  1  0  0  0  0
 71134  1  0  0  0  0
 72135  1  0  0  0  0
 73136  1  0  0  0  0
 74137  1  0  0  0  0
 75 78  2  0  0  0  0
 76138  1  0  0  0  0
 77 67  2  0  0  0  0
 77 75  1  0  0  0  0
 77139  1  0  0  0  0
 78 68  1  0  0  0  0
 78140  1  0  0  0  0
 79 52  1  0  0  0  0
 79141  1  0  0  0  0
 80142  1  0  0  0  0
 81143  1  0  0  0  0
 82144  1  0  0  0  0
 82145  1  0  0  0  0
 82146  1  0  0  0  0
 83 75  1  0  0  0  0
 84 57  1  0  0  0  0
 84147  1  0  0  0  0
 84148  1  0  0  0  0
 84149  1  0  0  0  0
 85 83  1  0  0  0  0
 85150  1  0  0  0  0
 85151  1  0  0  0  0
 86 85  1  0  0  0  0
 86152  1  0  0  0  0
 86153  1  0  0  0  0
 87 88  1  0  0  0  0
 87154  1  0  0  0  0
 87155  1  0  0  0  0
 88 86  1  0  0  0  0
 88156  1  0  0  0  0
 88157  1  0  0  0  0
 89 87  1  0  0  0  0
 89158  1  0  0  0  0
 89159  1  0  0  0  0
 89160  1  0  0  0  0
M  END
>  <DRUGBANK_ID>
DB01141

>  <SECONDARY_ACCESSION_NUMBERS>
APRD01114

>  <COMMON_NAME>
Micafungin

>  <CAS_NUMBER>
235114-32-6

>  <UNII>
R10H71BSWG

>  <SYNONYMS>
Micafungin; Micafungina

$$$$
