
 OpenBabel10282417072D

 31 32  0  0  1  0  0  0  0  0999 V2000
   -0.8093   -0.8021    0.0000 C   0  0  1  0  0  0  0  0  0  0  0  0
    0.0155   -0.8021    0.0000 C   0  0  1  0  0  0  0  0  0  0  0  0
    0.2722   -0.0181    0.0000 C   0  0  1  0  0  0  0  0  0  0  0  0
   -0.3968    0.4685    0.0000 O   0  0  0  0  0  0  0  0  0  0  0  0
   -1.0620   -0.0181    0.0000 C   0  0  2  0  0  0  0  0  0  0  0  0
   -1.4800    0.7018    0.0000 C   0  0  0  0  0  0  0  0  0  0  0  0
   -2.3049    0.6996    0.0000 O   0  0  0  0  0  0  0  0  0  0  0  0
   -1.7800   -0.4229    0.0000 N   0  0  0  0  0  0  0  0  0  0  0  0
   -2.4966   -0.8313    0.0000 N   0  3  0  0  0  0  0  0  0  0  0  0
   -3.2133   -1.2395    0.0000 N   0  5  0  0  0  0  0  0  0  0  0  0
   -1.2950   -1.4688    0.0000 O   0  0  0  0  0  0  0  0  0  0  0  0
    0.4995   -1.4700    0.0000 F   0  0  0  0  0  0  0  0  0  0  0  0
    1.0578    0.2356    0.0000 N   0  0  0  0  0  0  0  0  0  0  0  0
    1.7674   -0.1788    0.0000 C   0  0  0  0  0  0  0  0  0  0  0  0
    2.4830    0.2242    0.0000 N   0  0  0  0  0  0  0  0  0  0  0  0
    2.4941    1.0494    0.0000 C   0  0  0  0  0  0  0  0  0  0  0  0
    1.7833    1.4700    0.0000 C   0  0  0  0  0  0  0  0  0  0  0  0
    1.0615    1.0652    0.0000 C   0  0  0  0  0  0  0  0  0  0  0  0
    1.7609   -1.0037    0.0000 O   0  0  0  0  0  0  0  0  0  0  0  0
    3.2133    1.4533    0.0000 N   0  0  0  0  0  0  0  0  0  0  0  0
   -1.8658   -0.6328    0.0000 H   0  0  0  0  0  0  0  0  0  0  0  0
   -0.4709   -1.7552    0.0000 H   0  0  0  0  0  0  0  0  0  0  0  0
    1.0273   -0.7762    0.0000 H   0  0  0  0  0  0  0  0  0  0  0  0
   -0.9474    1.6298    0.0000 H   0  0  0  0  0  0  0  0  0  0  0  0
   -2.0174    1.6270    0.0000 H   0  0  0  0  0  0  0  0  0  0  0  0
   -2.7921    1.5383    0.0000 H   0  0  0  0  0  0  0  0  0  0  0  0
   -2.2596   -1.3662    0.0000 H   0  0  0  0  0  0  0  0  0  0  0  0
    1.7953    2.5019    0.0000 H   0  0  0  0  0  0  0  0  0  0  0  0
    0.1722    1.5888    0.0000 H   0  0  0  0  0  0  0  0  0  0  0  0
    4.0600    0.9509    0.0000 H   0  0  0  0  0  0  0  0  0  0  0  0
    3.2250    2.4377    0.0000 H   0  0  0  0  0  0  0  0  0  0  0  0
  1 11  1  0  0  0  0
  1  2  1  0  0  0  0
  1 21  1  1  0  0  0
  2 12  1  0  0  0  0
  2  3  1  0  0  0  0
  2 22  1  6  0  0  0
  3 13  1  0  0  0  0
  3  4  1  0  0  0  0
  3 23  1  6  0  0  0
  4  5  1  0  0  0  0
  5  1  1  0  0  0  0
  5  6  1  0  0  0  0
  5  8  1  6  0  0  0
  6  7  1  0  0  0  0
  6 24  1  0  0  0  0
  6 25  1  0  0  0  0
  7 26  1  0  0  0  0
  8  9  2  0  0  0  0
  9 10  2  0  0  0  0
 11 27  1  0  0  0  0
 13 14  1  0  0  0  0
 13 18  1  0  0  0  0
 14 15  1  0  0  0  0
 14 19  2  0  0  0  0
 15 16  2  0  0  0  0
 16 17  1  0  0  0  0
 16 20  1  0  0  0  0
 17 18  2  0  0  0  0
 17 28  1  0  0  0  0
 18 29  1  0  0  0  0
 20 30  1  0  0  0  0
 20 31  1  0  0  0  0
M  CHG  2   9   1  10  -1
M  END
>  <DRUGBANK_ID>
DB16407

>  <COMMON_NAME>
Azvudine

>  <CAS_NUMBER>
1011529-10-4

>  <UNII>
IJ2XP0ID0K

>  <SYNONYMS>
Azvudine

$$$$
