
 OpenBabel10282417072D

 71 74  0  0  0  0  0  0  0  0999 V2000
    2.4434   -0.2765    0.0000 C   0  0  0  0  0  0  0  0  0  0  0  0
    2.9289   -0.9462    0.0000 N   0  0  0  0  0  0  0  0  0  0  0  0
    2.9289    0.3930    0.0000 N   0  0  0  0  0  0  0  0  0  0  0  0
    3.7151    0.1357    0.0000 C   0  0  0  0  0  0  0  0  0  0  0  0
    3.7151   -0.6841    0.0000 C   0  0  0  0  0  0  0  0  0  0  0  0
   -4.5690   -0.9899    0.0000 C   0  0  0  0  0  0  0  0  0  0  0  0
   -4.5690   -1.8149    0.0000 C   0  0  0  0  0  0  0  0  0  0  0  0
   -0.0315   -0.2765    0.0000 N   0  0  0  0  0  0  0  0  0  0  0  0
    1.6184   -0.2765    0.0000 C   0  0  0  0  0  0  0  0  0  0  0  0
   -3.7440   -0.9899    0.0000 C   0  0  0  0  0  0  0  0  0  0  0  0
   -5.2824   -2.2276    0.0000 O   0  0  0  0  0  0  0  0  0  0  0  0
    1.2060   -0.9899    0.0000 C   0  0  0  0  0  0  0  0  0  0  0  0
    1.2060    0.4366    0.0000 C   0  0  0  0  0  0  0  0  0  0  0  0
   -3.3316   -0.2765    0.0000 C   0  0  0  0  0  0  0  0  0  0  0  0
   -3.3316   -1.7033    0.0000 C   0  0  0  0  0  0  0  0  0  0  0  0
    0.3810   -0.9899    0.0000 C   0  0  0  0  0  0  0  0  0  0  0  0
    0.3810    0.4366    0.0000 C   0  0  0  0  0  0  0  0  0  0  0  0
    2.6763    1.1792    0.0000 C   0  0  0  0  0  0  0  0  0  0  0  0
   -0.8565   -0.2765    0.0000 C   0  0  0  0  0  0  0  0  0  0  0  0
   -3.8556   -2.2276    0.0000 O   0  0  0  0  0  0  0  0  0  0  0  0
   -2.0939   -0.9899    0.0000 C   0  0  0  0  0  0  0  0  0  0  0  0
   -2.5066   -0.2765    0.0000 C   0  0  0  0  0  0  0  0  0  0  0  0
   -2.5066   -1.7033    0.0000 C   0  0  0  0  0  0  0  0  0  0  0  0
   -1.2689   -0.9899    0.0000 C   0  0  0  0  0  0  0  0  0  0  0  0
    4.4285    0.5531    0.0000 C   0  0  0  0  0  0  0  0  0  0  0  0
   -5.3892   -0.9899    0.0000 C   0  0  0  0  0  0  0  0  0  0  0  0
   -4.5690   -0.1600    0.0000 C   0  0  0  0  0  0  0  0  0  0  0  0
    4.4285   -1.1015    0.0000 C   0  0  0  0  0  0  0  0  0  0  0  0
    4.0354    1.6159    0.0000 O   0  0  0  0  0  0  0  0  0  0  0  0
    3.2296    1.7908    0.0000 C   0  0  0  0  0  0  0  0  0  0  0  0
    4.5885    2.2276    0.0000 C   0  0  0  0  0  0  0  0  0  0  0  0
    5.1418    0.1357    0.0000 C   0  0  0  0  0  0  0  0  0  0  0  0
    5.1418   -0.6841    0.0000 C   0  0  0  0  0  0  0  0  0  0  0  0
    5.3892    2.0576    0.0000 C   0  0  0  0  0  0  0  0  0  0  0  0
    0.5484   -0.2766    0.0000 H   0  0  0  0  0  0  0  0  0  0  0  0
    1.7407   -1.9167    0.0000 H   0  0  0  0  0  0  0  0  0  0  0  0
    0.6709   -1.9165    0.0000 H   0  0  0  0  0  0  0  0  0  0  0  0
    1.7407    1.3634    0.0000 H   0  0  0  0  0  0  0  0  0  0  0  0
    0.6708    1.3631    0.0000 H   0  0  0  0  0  0  0  0  0  0  0  0
   -3.8474    0.6174    0.0000 H   0  0  0  0  0  0  0  0  0  0  0  0
   -3.8474   -2.5972    0.0000 H   0  0  0  0  0  0  0  0  0  0  0  0
   -0.1537   -1.9167    0.0000 H   0  0  0  0  0  0  0  0  0  0  0  0
   -0.6890   -0.9904    0.0000 H   0  0  0  0  0  0  0  0  0  0  0  0
   -0.1536    1.3635    0.0000 H   0  0  0  0  0  0  0  0  0  0  0  0
    0.9162    1.3631    0.0000 H   0  0  0  0  0  0  0  0  0  0  0  0
    1.6303    1.4046    0.0000 H   0  0  0  0  0  0  0  0  0  0  0  0
    2.3483    2.1977    0.0000 H   0  0  0  0  0  0  0  0  0  0  0  0
   -1.3912    0.6503    0.0000 H   0  0  0  0  0  0  0  0  0  0  0  0
   -1.9265   -0.2761    0.0000 H   0  0  0  0  0  0  0  0  0  0  0  0
   -3.8564   -3.1646    0.0000 H   0  0  0  0  0  0  0  0  0  0  0  0
   -1.9910    0.6175    0.0000 H   0  0  0  0  0  0  0  0  0  0  0  0
   -1.9910   -2.5973    0.0000 H   0  0  0  0  0  0  0  0  0  0  0  0
   -0.7342   -1.9167    0.0000 H   0  0  0  0  0  0  0  0  0  0  0  0
   -0.1989   -0.9903    0.0000 H   0  0  0  0  0  0  0  0  0  0  0  0
    4.4285    1.5851    0.0000 H   0  0  0  0  0  0  0  0  0  0  0  0
   -5.9242   -0.0633    0.0000 H   0  0  0  0  0  0  0  0  0  0  0  0
   -5.9242   -1.9165    0.0000 H   0  0  0  0  0  0  0  0  0  0  0  0
   -6.4592   -0.9899    0.0000 H   0  0  0  0  0  0  0  0  0  0  0  0
   -3.6424    0.3750    0.0000 H   0  0  0  0  0  0  0  0  0  0  0  0
   -5.4956    0.3750    0.0000 H   0  0  0  0  0  0  0  0  0  0  0  0
   -4.5690    0.9100    0.0000 H   0  0  0  0  0  0  0  0  0  0  0  0
    4.4285   -2.1335    0.0000 H   0  0  0  0  0  0  0  0  0  0  0  0
    2.9023    2.8095    0.0000 H   0  0  0  0  0  0  0  0  0  0  0  0
    2.1836    2.0162    0.0000 H   0  0  0  0  0  0  0  0  0  0  0  0
    4.2588    3.2455    0.0000 H   0  0  0  0  0  0  0  0  0  0  0  0
    5.3047    3.0225    0.0000 H   0  0  0  0  0  0  0  0  0  0  0  0
    6.0370    0.6491    0.0000 H   0  0  0  0  0  0  0  0  0  0  0  0
    6.0370   -1.1975    0.0000 H   0  0  0  0  0  0  0  0  0  0  0  0
    5.7201    1.0400    0.0000 H   0  0  0  0  0  0  0  0  0  0  0  0
    6.1050    2.8529    0.0000 H   0  0  0  0  0  0  0  0  0  0  0  0
    6.4359    1.8354    0.0000 H   0  0  0  0  0  0  0  0  0  0  0  0
  2  1  2  0  0  0  0
  3  1  1  0  0  0  0
  4  3  1  0  0  0  0
  4  5  1  0  0  0  0
  5  2  1  0  0  0  0
  6 10  1  0  0  0  0
  7  6  1  0  0  0  0
  8 17  1  0  0  0  0
  8 16  1  0  0  0  0
  9  1  1  0  0  0  0
  9 35  1  0  0  0  0
 10 15  2  0  0  0  0
 11  7  2  0  0  0  0
 12  9  1  0  0  0  0
 12 36  1  0  0  0  0
 12 37  1  0  0  0  0
 13  9  1  0  0  0  0
 13 38  1  0  0  0  0
 13 39  1  0  0  0  0
 14 22  2  0  0  0  0
 14 10  1  0  0  0  0
 14 40  1  0  0  0  0
 15 23  1  0  0  0  0
 15 41  1  0  0  0  0
 16 12  1  0  0  0  0
 16 42  1  0  0  0  0
 16 43  1  0  0  0  0
 17 13  1  0  0  0  0
 17 44  1  0  0  0  0
 17 45  1  0  0  0  0
 18  3  1  0  0  0  0
 18 46  1  0  0  0  0
 18 47  1  0  0  0  0
 19  8  1  0  0  0  0
 19 48  1  0  0  0  0
 19 49  1  0  0  0  0
 20  7  1  0  0  0  0
 20 50  1  0  0  0  0
 21 24  1  0  0  0  0
 22 21  1  0  0  0  0
 22 51  1  0  0  0  0
 23 21  2  0  0  0  0
 23 52  1  0  0  0  0
 24 19  1  0  0  0  0
 24 53  1  0  0  0  0
 24 54  1  0  0  0  0
 25  4  2  0  0  0  0
 25 55  1  0  0  0  0
 26  6  1  0  0  0  0
 26 56  1  0  0  0  0
 26 57  1  0  0  0  0
 26 58  1  0  0  0  0
 27  6  1  0  0  0  0
 27 59  1  0  0  0  0
 27 60  1  0  0  0  0
 27 61  1  0  0  0  0
 28  5  2  0  0  0  0
 28 62  1  0  0  0  0
 29 30  1  0  0  0  0
 30 18  1  0  0  0  0
 30 63  1  0  0  0  0
 30 64  1  0  0  0  0
 31 29  1  0  0  0  0
 31 65  1  0  0  0  0
 31 66  1  0  0  0  0
 32 25  1  0  0  0  0
 32 33  2  0  0  0  0
 32 67  1  0  0  0  0
 33 28  1  0  0  0  0
 33 68  1  0  0  0  0
 34 31  1  0  0  0  0
 34 69  1  0  0  0  0
 34 70  1  0  0  0  0
 34 71  1  0  0  0  0
M  END
>  <DRUGBANK_ID>
DB11591

>  <COMMON_NAME>
Bilastine

>  <CAS_NUMBER>
202189-78-4

>  <UNII>
PA1123N395

>  <SYNONYMS>
Bilastina; Bilastine

$$$$
