
 OpenBabel10282417072D

 71 73  0  0  1  0  0  0  0  0999 V2000
    0.7145   -2.8875    0.0000 C   0  0  0  0  0  0  0  0  0  0  0  0
    0.7145   -3.7125    0.0000 C   0  0  2  0  0  0  0  0  0  0  0  0
    1.4289   -4.1250    0.0000 O   0  0  0  0  0  0  0  0  0  0  0  0
    1.4289   -4.9500    0.0000 C   0  0  1  0  0  0  0  0  0  0  0  0
    2.1434   -5.3625    0.0000 O   0  0  0  0  0  0  0  0  0  0  0  0
    2.8579   -4.9500    0.0000 C   0  0  2  0  0  0  0  0  0  0  0  0
    2.8579   -4.1250    0.0000 C   0  0  1  0  0  0  0  0  0  0  0  0
    2.1434   -3.7125    0.0000 O   0  0  0  0  0  0  0  0  0  0  0  0
    3.5724   -3.7125    0.0000 C   0  0  1  0  0  0  0  0  0  0  0  0
    3.5724   -2.8875    0.0000 O   0  0  0  0  0  0  0  0  0  0  0  0
    4.2868   -4.1250    0.0000 C   0  0  1  0  0  0  0  0  0  0  0  0
    5.0013   -3.7125    0.0000 C   0  0  0  0  0  0  0  0  0  0  0  0
    5.7158   -4.1250    0.0000 O   0  0  0  0  0  0  0  0  0  0  0  0
    4.2868   -4.9500    0.0000 O   0  0  0  0  0  0  0  0  0  0  0  0
    3.5724   -5.3625    0.0000 C   0  0  1  0  0  0  0  0  0  0  0  0
    3.5724   -6.1875    0.0000 O   0  0  0  0  0  0  0  0  0  0  0  0
    4.2868   -6.6000    0.0000 C   0  0  1  0  0  0  0  0  0  0  0  0
    5.0013   -6.1875    0.0000 C   0  0  2  0  0  0  0  0  0  0  0  0
    5.0013   -5.3625    0.0000 O   0  0  0  0  0  0  0  0  0  0  0  0
    5.7158   -6.6000    0.0000 C   0  0  1  0  0  0  0  0  0  0  0  0
    6.4302   -6.1875    0.0000 N   0  0  0  0  0  0  0  0  0  0  0  0
    7.1447   -6.6000    0.0000 C   0  0  0  0  0  0  0  0  0  0  0  0
    7.8592   -6.1875    0.0000 C   0  0  0  0  0  0  0  0  0  0  0  0
    7.1447   -7.4250    0.0000 O   0  0  0  0  0  0  0  0  0  0  0  0
    5.7158   -7.4250    0.0000 C   0  0  2  0  0  0  0  0  0  0  0  0
    6.4302   -7.8375    0.0000 O   0  0  0  0  0  0  0  0  0  0  0  0
    5.0013   -7.8375    0.0000 O   0  0  0  0  0  0  0  0  0  0  0  0
    4.2868   -7.4250    0.0000 C   0  0  2  0  0  0  0  0  0  0  0  0
    3.5724   -7.8375    0.0000 C   0  0  0  0  0  0  0  0  0  0  0  0
    2.8579   -7.4250    0.0000 O   0  0  0  0  0  0  0  0  0  0  0  0
    0.7145   -5.3625    0.0000 C   0  0  1  0  0  0  0  0  0  0  0  0
    0.7145   -6.1875    0.0000 O   0  0  0  0  0  0  0  0  0  0  0  0
    0.0000   -4.9500    0.0000 C   0  0  2  0  0  0  0  0  0  0  0  0
   -0.7145   -5.3625    0.0000 O   0  0  0  0  0  0  0  0  0  0  0  0
    0.0000   -4.1250    0.0000 C   0  0  2  0  0  0  0  0  0  0  0  0
   -0.7145   -3.7125    0.0000 O   0  0  0  0  0  0  0  0  0  0  0  0
    1.6411   -2.3525    0.0000 H   0  0  0  0  0  0  0  0  0  0  0  0
   -0.2121   -2.3525    0.0000 H   0  0  0  0  0  0  0  0  0  0  0  0
    0.7145   -1.8175    0.0000 H   0  0  0  0  0  0  0  0  0  0  0  0
    1.6412   -3.1775    0.0000 H   0  0  0  0  0  0  0  0  0  0  0  0
    2.3555   -4.4150    0.0000 H   0  0  0  0  0  0  0  0  0  0  0  0
    1.9313   -4.4150    0.0000 H   0  0  0  0  0  0  0  0  0  0  0  0
    1.9313   -4.6600    0.0000 H   0  0  0  0  0  0  0  0  0  0  0  0
    2.1434   -2.7425    0.0000 H   0  0  0  0  0  0  0  0  0  0  0  0
    2.6458   -3.1775    0.0000 H   0  0  0  0  0  0  0  0  0  0  0  0
    4.4124   -2.4025    0.0000 H   0  0  0  0  0  0  0  0  0  0  0  0
    4.2868   -3.0550    0.0000 H   0  0  0  0  0  0  0  0  0  0  0  0
    5.0013   -2.6425    0.0000 H   0  0  0  0  0  0  0  0  0  0  0  0
    5.9279   -3.1775    0.0000 H   0  0  0  0  0  0  0  0  0  0  0  0
    5.7158   -5.0950    0.0000 H   0  0  0  0  0  0  0  0  0  0  0  0
    4.4991   -5.8975    0.0000 H   0  0  0  0  0  0  0  0  0  0  0  0
    4.2868   -5.5300    0.0000 H   0  0  0  0  0  0  0  0  0  0  0  0
    4.0747   -5.6525    0.0000 H   0  0  0  0  0  0  0  0  0  0  0  0
    5.8413   -4.8775    0.0000 H   0  0  0  0  0  0  0  0  0  0  0  0
    5.7158   -5.5300    0.0000 H   0  0  0  0  0  0  0  0  0  0  0  0
    6.4302   -5.2030    0.0000 H   0  0  0  0  0  0  0  0  0  0  0  0
    8.7858   -6.7225    0.0000 H   0  0  0  0  0  0  0  0  0  0  0  0
    7.8592   -5.1175    0.0000 H   0  0  0  0  0  0  0  0  0  0  0  0
    8.7859   -5.6525    0.0000 H   0  0  0  0  0  0  0  0  0  0  0  0
    6.6425   -6.8900    0.0000 H   0  0  0  0  0  0  0  0  0  0  0  0
    6.4302   -8.8075    0.0000 H   0  0  0  0  0  0  0  0  0  0  0  0
    4.2868   -8.4950    0.0000 H   0  0  0  0  0  0  0  0  0  0  0  0
    3.5724   -8.9075    0.0000 H   0  0  0  0  0  0  0  0  0  0  0  0
    2.6458   -8.3725    0.0000 H   0  0  0  0  0  0  0  0  0  0  0  0
    2.8579   -6.4550    0.0000 H   0  0  0  0  0  0  0  0  0  0  0  0
    1.6412   -5.8975    0.0000 H   0  0  0  0  0  0  0  0  0  0  0  0
   -0.1255   -6.6725    0.0000 H   0  0  0  0  0  0  0  0  0  0  0  0
    0.0000   -6.0200    0.0000 H   0  0  0  0  0  0  0  0  0  0  0  0
   -1.5545   -4.8775    0.0000 H   0  0  0  0  0  0  0  0  0  0  0  0
   -0.9266   -4.6600    0.0000 H   0  0  0  0  0  0  0  0  0  0  0  0
   -0.7145   -2.7425    0.0000 H   0  0  0  0  0  0  0  0  0  0  0  0
  1 37  1  0  0  0  0
  1 38  1  0  0  0  0
  1 39  1  0  0  0  0
  2  1  1  0  0  0  0
  2  3  1  0  0  0  0
  2 35  1  0  0  0  0
  2 40  1  1  0  0  0
  3  4  1  0  0  0  0
  4  5  1  0  0  0  0
  4 31  1  0  0  0  0
  4 41  1  6  0  0  0
  6  5  1  0  0  0  0
  6  7  1  0  0  0  0
  6 15  1  0  0  0  0
  6 42  1  1  0  0  0
  7  8  1  0  0  0  0
  7  9  1  0  0  0  0
  7 43  1  6  0  0  0
  8 44  1  0  0  0  0
  9 10  1  0  0  0  0
  9 11  1  0  0  0  0
  9 45  1  6  0  0  0
 10 46  1  0  0  0  0
 11 12  1  0  0  0  0
 11 14  1  0  0  0  0
 11 47  1  6  0  0  0
 12 13  1  0  0  0  0
 12 48  1  0  0  0  0
 12 49  1  0  0  0  0
 13 50  1  0  0  0  0
 14 15  1  0  0  0  0
 15 16  1  0  0  0  0
 15 51  1  6  0  0  0
 17 16  1  0  0  0  0
 17 18  1  0  0  0  0
 17 28  1  0  0  0  0
 17 52  1  6  0  0  0
 18 19  1  0  0  0  0
 18 20  1  0  0  0  0
 18 53  1  1  0  0  0
 19 54  1  0  0  0  0
 20 21  1  0  0  0  0
 20 25  1  0  0  0  0
 20 55  1  6  0  0  0
 21 22  1  0  0  0  0
 21 56  1  0  0  0  0
 22 23  1  0  0  0  0
 22 24  2  0  0  0  0
 23 57  1  0  0  0  0
 23 58  1  0  0  0  0
 23 59  1  0  0  0  0
 25 26  1  0  0  0  0
 25 27  1  0  0  0  0
 25 60  1  1  0  0  0
 26 61  1  0  0  0  0
 27 28  1  0  0  0  0
 28 29  1  0  0  0  0
 28 62  1  1  0  0  0
 29 30  1  0  0  0  0
 29 63  1  0  0  0  0
 29 64  1  0  0  0  0
 30 65  1  0  0  0  0
 31 32  1  0  0  0  0
 31 33  1  0  0  0  0
 31 66  1  6  0  0  0
 32 67  1  0  0  0  0
 33 34  1  0  0  0  0
 33 35  1  0  0  0  0
 33 68  1  1  0  0  0
 34 69  1  0  0  0  0
 35 36  1  0  0  0  0
 35 70  1  1  0  0  0
 36 71  1  0  0  0  0
M  END
>  <DRUGBANK_ID>
DB04678

>  <COMMON_NAME>
H TYPE II TRISACCHARIDE

$$$$
