BEY
 OpenBabel10282417072D

 49 50  0  0  0  0  0  0  0  0999 V2000
    0.2120   -0.6112    0.0000 O   0  0  0  0  0  0  0  0  0  0  0  0
   -0.0581    0.1683    0.0000 P   0  0  1  0  0  0  0  0  0  0  0  0
   -0.3281    0.9479    0.0000 O   0  0  0  0  0  0  0  0  0  0  0  0
   -0.8376   -0.1017    0.0000 C   0  0  1  0  0  0  0  0  0  0  0  0
   -1.4613    0.4384    0.0000 C   0  0  0  0  0  0  0  0  0  0  0  0
   -2.2408    0.1683    0.0000 C   0  0  0  0  0  0  0  0  0  0  0  0
   -2.8645    0.7084    0.0000 C   0  0  0  0  0  0  0  0  0  0  0  0
   -3.6440    0.4384    0.0000 C   0  0  0  0  0  0  0  0  0  0  0  0
   -4.2677    0.9785    0.0000 C   0  0  0  0  0  0  0  0  0  0  0  0
   -4.1118    1.7886    0.0000 C   0  0  0  0  0  0  0  0  0  0  0  0
   -3.3322    2.0586    0.0000 C   0  0  0  0  0  0  0  0  0  0  0  0
   -2.7086    1.5185    0.0000 C   0  0  0  0  0  0  0  0  0  0  0  0
   -0.9936   -0.9119    0.0000 N   0  0  0  0  0  0  0  0  0  0  0  0
    0.7215    0.4384    0.0000 C   0  0  0  0  0  0  0  0  0  0  0  0
    1.3451   -0.1017    0.0000 C   0  0  2  0  0  0  0  0  0  0  0  0
    1.1892   -0.9119    0.0000 C   0  0  0  0  0  0  0  0  0  0  0  0
    1.8128   -1.4519    0.0000 O   0  0  0  0  0  0  0  0  0  0  0  0
    0.4096   -1.1819    0.0000 O   0  0  0  0  0  0  0  0  0  0  0  0
    2.1247    0.1683    0.0000 C   0  0  0  0  0  0  0  0  0  0  0  0
    2.7483   -0.3718    0.0000 C   0  0  0  0  0  0  0  0  0  0  0  0
    3.5278   -0.1017    0.0000 C   0  0  0  0  0  0  0  0  0  0  0  0
    4.1515   -0.6418    0.0000 C   0  0  0  0  0  0  0  0  0  0  0  0
    3.9956   -1.4519    0.0000 C   0  0  0  0  0  0  0  0  0  0  0  0
    3.2160   -1.7220    0.0000 C   0  0  0  0  0  0  0  0  0  0  0  0
    2.5924   -1.1819    0.0000 C   0  0  0  0  0  0  0  0  0  0  0  0
   -0.7273    0.4717    0.0000 H   0  0  0  0  0  0  0  0  0  0  0  0
    0.7933   -0.2929    0.0000 H   0  0  0  0  0  0  0  0  0  0  0  0
   -0.4230   -1.3445    0.0000 H   0  0  0  0  0  0  0  0  0  0  0  0
   -1.2592    1.4891    0.0000 H   0  0  0  0  0  0  0  0  0  0  0  0
   -2.2702    1.1388    0.0000 H   0  0  0  0  0  0  0  0  0  0  0  0
   -2.4429   -0.8824    0.0000 H   0  0  0  0  0  0  0  0  0  0  0  0
   -3.2518   -0.1820    0.0000 H   0  0  0  0  0  0  0  0  0  0  0  0
   -3.8390   -0.5750    0.0000 H   0  0  0  0  0  0  0  0  0  0  0  0
   -5.2428    0.6407    0.0000 H   0  0  0  0  0  0  0  0  0  0  0  0
   -4.8919    2.4642    0.0000 H   0  0  0  0  0  0  0  0  0  0  0  0
   -3.1371    3.0720    0.0000 H   0  0  0  0  0  0  0  0  0  0  0  0
   -1.7334    1.8563    0.0000 H   0  0  0  0  0  0  0  0  0  0  0  0
   -1.9574   -1.2457    0.0000 H   0  0  0  0  0  0  0  0  0  0  0  0
   -0.2226   -1.5797    0.0000 H   0  0  0  0  0  0  0  0  0  0  0  0
    0.9237    1.4891    0.0000 H   0  0  0  0  0  0  0  0  0  0  0  0
    1.7326    0.7886    0.0000 H   0  0  0  0  0  0  0  0  0  0  0  0
   -0.2987   -0.5684    0.0000 H   0  0  0  0  0  0  0  0  0  0  0  0
    2.3270    1.2190    0.0000 H   0  0  0  0  0  0  0  0  0  0  0  0
    3.1358    0.5185    0.0000 H   0  0  0  0  0  0  0  0  0  0  0  0
    3.7228    0.9117    0.0000 H   0  0  0  0  0  0  0  0  0  0  0  0
    5.1266   -0.3040    0.0000 H   0  0  0  0  0  0  0  0  0  0  0  0
    4.7757   -2.1275    0.0000 H   0  0  0  0  0  0  0  0  0  0  0  0
    3.0210   -2.7354    0.0000 H   0  0  0  0  0  0  0  0  0  0  0  0
    1.6172   -1.5197    0.0000 H   0  0  0  0  0  0  0  0  0  0  0  0
  1 28  1  0  0  0  0
  2  1  1  0  0  0  0
  2  3  2  6  0  0  0
  2  4  1  0  0  0  0
  2 14  1  0  0  0  0
  4  5  1  0  0  0  0
  4 13  1  0  0  0  0
  4 26  1  1  0  0  0
  5  6  1  0  0  0  0
  5 29  1  0  0  0  0
  5 30  1  0  0  0  0
  6  7  1  0  0  0  0
  6 31  1  0  0  0  0
  6 32  1  0  0  0  0
  7  8  2  0  0  0  0
  7 12  1  0  0  0  0
  8  9  1  0  0  0  0
  8 33  1  0  0  0  0
  9 10  2  0  0  0  0
  9 34  1  0  0  0  0
 10 11  1  0  0  0  0
 10 35  1  0  0  0  0
 11 12  2  0  0  0  0
 11 36  1  0  0  0  0
 12 37  1  0  0  0  0
 13 38  1  0  0  0  0
 13 39  1  0  0  0  0
 14 15  1  0  0  0  0
 14 40  1  0  0  0  0
 14 41  1  0  0  0  0
 15 16  1  0  0  0  0
 15 19  1  0  0  0  0
 15 27  1  6  0  0  0
 16 17  2  0  0  0  0
 16 18  1  0  0  0  0
 18 42  1  0  0  0  0
 19 20  1  0  0  0  0
 19 43  1  0  0  0  0
 19 44  1  0  0  0  0
 20 21  2  0  0  0  0
 20 25  1  0  0  0  0
 21 22  1  0  0  0  0
 21 45  1  0  0  0  0
 22 23  2  0  0  0  0
 22 46  1  0  0  0  0
 23 24  1  0  0  0  0
 23 47  1  0  0  0  0
 24 25  2  0  0  0  0
 24 48  1  0  0  0  0
 25 49  1  0  0  0  0
M  END
>  <DRUGBANK_ID>
DB07448

>  <COMMON_NAME>
(2S)-3-[(R)-[(1S)-1-amino-3-phenylpropyl](hydroxy)phosphoryl]-2-benzylpropanoic acid

$$$$
