
 OpenBabel10282417072D

 28 27  0  0  0  0  0  0  0  0999 V2000
   -0.7124   -0.6196    0.0000 C   0  0  0  0  0  0  0  0  0  0  0  0
   -1.4268   -0.2054    0.0000 N   0  3  0  0  0  0  0  0  0  0  0  0
    0.0019   -0.2054    0.0000 C   0  0  3  0  0  0  0  0  0  0  0  0
   -2.1413    0.2047    0.0000 C   0  0  0  0  0  0  0  0  0  0  0  0
    0.7165   -0.6196    0.0000 O   0  0  0  0  0  0  0  0  0  0  0  0
    0.0019    0.6189    0.0000 C   0  0  0  0  0  0  0  0  0  0  0  0
    1.4268   -0.2054    0.0000 C   0  0  0  0  0  0  0  0  0  0  0  0
    2.1413   -0.6196    0.0000 N   0  0  0  0  0  0  0  0  0  0  0  0
    1.4268    0.6189    0.0000 O   0  0  0  0  0  0  0  0  0  0  0  0
   -1.4268    0.6196    0.0000 C   0  0  0  0  0  0  0  0  0  0  0  0
   -2.1413   -0.6179    0.0000 C   0  0  0  0  0  0  0  0  0  0  0  0
   -0.7124   -1.6896    0.0000 H   0  0  0  0  0  0  0  0  0  0  0  0
    0.2148   -1.1537    0.0000 H   0  0  0  0  0  0  0  0  0  0  0  0
    0.0020   -1.2754    0.0000 H   0  0  0  0  0  0  0  0  0  0  0  0
   -2.1440    1.2747    0.0000 H   0  0  0  0  0  0  0  0  0  0  0  0
   -3.0666   -0.3327    0.0000 H   0  0  0  0  0  0  0  0  0  0  0  0
   -3.0693    0.7373    0.0000 H   0  0  0  0  0  0  0  0  0  0  0  0
    0.9285    1.1539    0.0000 H   0  0  0  0  0  0  0  0  0  0  0  0
   -0.9247    1.1539    0.0000 H   0  0  0  0  0  0  0  0  0  0  0  0
    0.0019    1.6889    0.0000 H   0  0  0  0  0  0  0  0  0  0  0  0
    2.1396   -1.6041    0.0000 H   0  0  0  0  0  0  0  0  0  0  0  0
    2.9948   -0.1289    0.0000 H   0  0  0  0  0  0  0  0  0  0  0  0
   -0.5002    1.1546    0.0000 H   0  0  0  0  0  0  0  0  0  0  0  0
   -2.3534    1.1546    0.0000 H   0  0  0  0  0  0  0  0  0  0  0  0
   -1.4268    1.6896    0.0000 H   0  0  0  0  0  0  0  0  0  0  0  0
   -3.0679   -0.0829    0.0000 H   0  0  0  0  0  0  0  0  0  0  0  0
   -2.1413   -1.6879    0.0000 H   0  0  0  0  0  0  0  0  0  0  0  0
   -3.0680   -1.1529    0.0000 H   0  0  0  0  0  0  0  0  0  0  0  0
  1  2  1  0  0  0  0
  1  3  1  0  0  0  0
  1 12  1  0  0  0  0
  1 13  1  0  0  0  0
  2  4  1  0  0  0  0
  2 10  1  0  0  0  0
  2 11  1  0  0  0  0
  3  5  1  0  0  0  0
  3  6  1  0  0  0  0
  3 14  1  0  0  0  0
  4 15  1  0  0  0  0
  4 16  1  0  0  0  0
  4 17  1  0  0  0  0
  5  7  1  0  0  0  0
  6 18  1  0  0  0  0
  6 19  1  0  0  0  0
  6 20  1  0  0  0  0
  7  8  1  0  0  0  0
  7  9  2  0  0  0  0
  8 21  1  0  0  0  0
  8 22  1  0  0  0  0
 10 23  1  0  0  0  0
 10 24  1  0  0  0  0
 10 25  1  0  0  0  0
 11 26  1  0  0  0  0
 11 27  1  0  0  0  0
 11 28  1  0  0  0  0
M  CHG  1   2   1
M  END
>  <DRUGBANK_ID>
DB01019

>  <SECONDARY_ACCESSION_NUMBERS>
APRD00051

>  <COMMON_NAME>
Bethanechol

>  <CAS_NUMBER>
674-38-4

>  <UNII>
004F72P8F4

>  <SYNONYMS>
(2-hydroxypropyl)trimethylammonium carbamate; 2-(carbamoyloxy)-N,N,N-trimethylpropan-1-aminium; 2-carbamoyloxypropyl-trimethylazanium; Amidopropyldimethylbetaine; Bethanechol; Carbamoyl-beta-methylcholine; carbamoyl-β-methylcholine; Carbamyl-beta-methylcholine; carbamyl-β-methylcholine

$$$$
