BSB
 OpenBabel10282417072D

 34 35  0  0  0  0  0  0  0  0999 V2000
    0.7758   -0.5956    0.0000 C   0  0  0  0  0  0  0  0  0  0  0  0
    1.4902   -1.0081    0.0000 C   0  0  0  0  0  0  0  0  0  0  0  0
    1.4902   -1.8331    0.0000 C   0  0  0  0  0  0  0  0  0  0  0  0
    0.7758   -2.2456    0.0000 C   0  0  0  0  0  0  0  0  0  0  0  0
    0.0613   -1.8331    0.0000 C   0  0  0  0  0  0  0  0  0  0  0  0
    0.0613   -1.0081    0.0000 C   0  0  0  0  0  0  0  0  0  0  0  0
   -0.6532   -0.5956    0.0000 C   0  0  0  0  0  0  0  0  0  0  0  0
   -1.3676   -1.0081    0.0000 O   0  0  0  0  0  0  0  0  0  0  0  0
   -0.6532    0.2294    0.0000 N   0  0  0  0  0  0  0  0  0  0  0  0
   -1.3676    0.6419    0.0000 C   0  0  0  0  0  0  0  0  0  0  0  0
    2.2047   -2.2456    0.0000 S   0  0  0  0  0  0  0  0  0  0  0  0
    2.9192   -2.6581    0.0000 N   0  0  0  0  0  0  0  0  0  0  0  0
    2.6172   -1.5311    0.0000 O   0  0  0  0  0  0  0  0  0  0  0  0
    1.7922   -2.9601    0.0000 O   0  0  0  0  0  0  0  0  0  0  0  0
   -1.3676    1.4669    0.0000 C   0  0  0  0  0  0  0  0  0  0  0  0
   -2.0821    1.8794    0.0000 C   0  0  0  0  0  0  0  0  0  0  0  0
   -2.0821    2.7044    0.0000 C   0  0  0  0  0  0  0  0  0  0  0  0
   -1.3676    3.1169    0.0000 C   0  0  0  0  0  0  0  0  0  0  0  0
   -0.6532    2.7044    0.0000 C   0  0  0  0  0  0  0  0  0  0  0  0
   -0.6532    1.8794    0.0000 C   0  0  0  0  0  0  0  0  0  0  0  0
    0.7758    0.4364    0.0000 H   0  0  0  0  0  0  0  0  0  0  0  0
    2.3839   -0.4921    0.0000 H   0  0  0  0  0  0  0  0  0  0  0  0
    0.7758   -3.2776    0.0000 H   0  0  0  0  0  0  0  0  0  0  0  0
   -0.8324   -2.3491    0.0000 H   0  0  0  0  0  0  0  0  0  0  0  0
    0.1994    0.7216    0.0000 H   0  0  0  0  0  0  0  0  0  0  0  0
   -2.2943    0.1069    0.0000 H   0  0  0  0  0  0  0  0  0  0  0  0
   -2.2942    1.1769    0.0000 H   0  0  0  0  0  0  0  0  0  0  0  0
    2.9192   -3.6781    0.0000 H   0  0  0  0  0  0  0  0  0  0  0  0
    3.8025   -2.1481    0.0000 H   0  0  0  0  0  0  0  0  0  0  0  0
   -2.9758    1.3634    0.0000 H   0  0  0  0  0  0  0  0  0  0  0  0
   -2.9758    3.2204    0.0000 H   0  0  0  0  0  0  0  0  0  0  0  0
   -1.3676    4.1489    0.0000 H   0  0  0  0  0  0  0  0  0  0  0  0
    0.2405    3.2204    0.0000 H   0  0  0  0  0  0  0  0  0  0  0  0
    0.2405    1.3634    0.0000 H   0  0  0  0  0  0  0  0  0  0  0  0
  1  2  2  0  0  0  0
  1  6  1  0  0  0  0
  1 21  1  0  0  0  0
  2  3  1  0  0  0  0
  2 22  1  0  0  0  0
  3  4  2  0  0  0  0
  3 11  1  0  0  0  0
  4  5  1  0  0  0  0
  4 23  1  0  0  0  0
  5  6  2  0  0  0  0
  5 24  1  0  0  0  0
  6  7  1  0  0  0  0
  7  8  2  0  0  0  0
  7  9  1  0  0  0  0
  9 10  1  0  0  0  0
  9 25  1  0  0  0  0
 10 15  1  0  0  0  0
 10 26  1  0  0  0  0
 10 27  1  0  0  0  0
 11 12  1  0  0  0  0
 11 13  2  0  0  0  0
 11 14  2  0  0  0  0
 12 28  1  0  0  0  0
 12 29  1  0  0  0  0
 15 16  2  0  0  0  0
 15 20  1  0  0  0  0
 16 17  1  0  0  0  0
 16 30  1  0  0  0  0
 17 18  2  0  0  0  0
 17 31  1  0  0  0  0
 18 19  1  0  0  0  0
 18 32  1  0  0  0  0
 19 20  2  0  0  0  0
 19 33  1  0  0  0  0
 20 34  1  0  0  0  0
M  END
>  <DRUGBANK_ID>
DB01748

>  <SECONDARY_ACCESSION_NUMBERS>
EXPT00761

>  <COMMON_NAME>
N-Benzyl-4-Sulfamoyl-Benzamide

>  <UNII>
6LQK8L3YE9

$$$$
