Xanthotoxin
 OpenBabel10282417072D

 24 26  0  0  0  0  0  0  0  0999 V2000
    2.6378    0.1271    0.0000 C   0  0  0  0  0  0  0  0  0  0  0  0
    3.3523   -0.2854    0.0000 O   0  0  0  0  0  0  0  0  0  0  0  0
    3.3523   -1.1104    0.0000 C   0  0  0  0  0  0  0  0  0  0  0  0
    4.0668   -1.5229    0.0000 C   0  0  0  0  0  0  0  0  0  0  0  0
    4.7812   -1.1104    0.0000 O   0  0  0  0  0  0  0  0  0  0  0  0
    5.4957   -1.5229    0.0000 C   0  0  0  0  0  0  0  0  0  0  0  0
    6.2102   -1.1104    0.0000 O   0  0  0  0  0  0  0  0  0  0  0  0
    5.4957   -2.3479    0.0000 C   0  0  0  0  0  0  0  0  0  0  0  0
    4.7812   -2.7604    0.0000 C   0  0  0  0  0  0  0  0  0  0  0  0
    4.0668   -2.3479    0.0000 C   0  0  0  0  0  0  0  0  0  0  0  0
    3.3523   -2.7604    0.0000 C   0  0  0  0  0  0  0  0  0  0  0  0
    2.6378   -2.3479    0.0000 C   0  0  0  0  0  0  0  0  0  0  0  0
    2.6378   -1.5229    0.0000 C   0  0  0  0  0  0  0  0  0  0  0  0
    1.8532   -1.2680    0.0000 O   0  0  0  0  0  0  0  0  0  0  0  0
    1.3683   -1.9354    0.0000 C   0  0  0  0  0  0  0  0  0  0  0  0
    1.8532   -2.6029    0.0000 C   0  0  0  0  0  0  0  0  0  0  0  0
    2.6378    1.1971    0.0000 H   0  0  0  0  0  0  0  0  0  0  0  0
    1.7112   -0.4079    0.0000 H   0  0  0  0  0  0  0  0  0  0  0  0
    1.7111    0.6621    0.0000 H   0  0  0  0  0  0  0  0  0  0  0  0
    6.3894   -2.8639    0.0000 H   0  0  0  0  0  0  0  0  0  0  0  0
    4.7812   -3.7924    0.0000 H   0  0  0  0  0  0  0  0  0  0  0  0
    3.3523   -3.7924    0.0000 H   0  0  0  0  0  0  0  0  0  0  0  0
    0.3363   -1.9354    0.0000 H   0  0  0  0  0  0  0  0  0  0  0  0
    1.5343   -3.5844    0.0000 H   0  0  0  0  0  0  0  0  0  0  0  0
  1  2  1  0  0  0  0
  1 17  1  0  0  0  0
  1 18  1  0  0  0  0
  1 19  1  0  0  0  0
  2  3  1  0  0  0  0
  3  4  2  0  0  0  0
  3 13  1  0  0  0  0
  4  5  1  0  0  0  0
  4 10  1  0  0  0  0
  5  6  1  0  0  0  0
  6  7  2  0  0  0  0
  6  8  1  0  0  0  0
  8  9  2  0  0  0  0
  8 20  1  0  0  0  0
  9 10  1  0  0  0  0
  9 21  1  0  0  0  0
 10 11  2  0  0  0  0
 11 12  1  0  0  0  0
 11 22  1  0  0  0  0
 12 13  2  0  0  0  0
 12 16  1  0  0  0  0
 13 14  1  0  0  0  0
 14 15  1  0  0  0  0
 15 16  2  0  0  0  0
 15 23  1  0  0  0  0
 16 24  1  0  0  0  0
M  END
>  <DRUGBANK_ID>
DB00553

>  <SECONDARY_ACCESSION_NUMBERS>
APRD00157

>  <COMMON_NAME>
Methoxsalen

>  <CAS_NUMBER>
298-81-7

>  <UNII>
U4VJ29L7BQ

>  <SYNONYMS>
6-hydroxy-7-methoxy-5-benzofuranacrylic acid δ-lactone; 8-methoxy-[furano-3'.2':6.7-coumarin]; 8-methoxy-2',3',6,7-furocoumarin; 8-methoxy-4',5':6,7-furocoumarin; 8-Methoxyfuranocoumarin; 8-methoxypsoralen; 8-MOP; 8-MP; 9-methoxy-7H-furo[3,2-g][1]benzopyran-7-one; Ammoidin; Methoxsalen; Méthoxsalène; Metoxaleno; O-methylxanthotoxol; Xanthotoxin; Xanthotoxine

$$$$
