
 OpenBabel10282417072D

 32 32  0  0  0  0  0  0  0  0999 V2000
   -2.8579    4.1250    0.0000 C   0  0  0  0  0  0  0  0  0  0  0  0
   -2.1434    3.7125    0.0000 C   0  0  0  0  0  0  0  0  0  0  0  0
   -1.4289    4.1250    0.0000 C   0  0  0  0  0  0  0  0  0  0  0  0
   -0.7145    3.7125    0.0000 C   0  0  0  0  0  0  0  0  0  0  0  0
    0.0000    4.1250    0.0000 C   0  0  0  0  0  0  0  0  0  0  0  0
    0.7145    3.7125    0.0000 C   0  0  0  0  0  0  0  0  0  0  0  0
    2.1434    3.7125    0.0000 C   0  0  0  0  0  0  0  0  0  0  0  0
    2.8579    4.1250    0.0000 C   0  0  0  0  0  0  0  0  0  0  0  0
    2.1434    5.3625    0.0000 C   0  0  0  0  0  0  0  0  0  0  0  0
    1.4289    4.1250    0.0000 C   0  0  0  0  0  0  0  0  0  0  0  0
    2.8579    4.9500    0.0000 C   0  0  0  0  0  0  0  0  0  0  0  0
    1.4289    4.9500    0.0000 C   0  0  0  0  0  0  0  0  0  0  0  0
    3.5724    5.3625    0.0000 O   0  0  0  0  0  0  0  0  0  0  0  0
    0.7145    5.3625    0.0000 O   0  0  0  0  0  0  0  0  0  0  0  0
   -2.8579    5.1950    0.0000 H   0  0  0  0  0  0  0  0  0  0  0  0
   -3.7845    3.5900    0.0000 H   0  0  0  0  0  0  0  0  0  0  0  0
   -3.7846    4.6600    0.0000 H   0  0  0  0  0  0  0  0  0  0  0  0
   -2.1434    2.6425    0.0000 H   0  0  0  0  0  0  0  0  0  0  0  0
   -1.2168    3.1775    0.0000 H   0  0  0  0  0  0  0  0  0  0  0  0
   -1.4289    5.1950    0.0000 H   0  0  0  0  0  0  0  0  0  0  0  0
   -0.5022    4.6600    0.0000 H   0  0  0  0  0  0  0  0  0  0  0  0
   -0.7145    2.6425    0.0000 H   0  0  0  0  0  0  0  0  0  0  0  0
    0.2121    3.1775    0.0000 H   0  0  0  0  0  0  0  0  0  0  0  0
    0.0000    5.1950    0.0000 H   0  0  0  0  0  0  0  0  0  0  0  0
    0.9266    4.6600    0.0000 H   0  0  0  0  0  0  0  0  0  0  0  0
    0.7145    2.6425    0.0000 H   0  0  0  0  0  0  0  0  0  0  0  0
    1.6412    3.1775    0.0000 H   0  0  0  0  0  0  0  0  0  0  0  0
    2.1434    2.6805    0.0000 H   0  0  0  0  0  0  0  0  0  0  0  0
    3.7516    3.6090    0.0000 H   0  0  0  0  0  0  0  0  0  0  0  0
    2.1434    6.3945    0.0000 H   0  0  0  0  0  0  0  0  0  0  0  0
    4.3839    4.8940    0.0000 H   0  0  0  0  0  0  0  0  0  0  0  0
    0.7145    6.2995    0.0000 H   0  0  0  0  0  0  0  0  0  0  0  0
  1 15  1  0  0  0  0
  1 16  1  0  0  0  0
  1 17  1  0  0  0  0
  2  1  1  0  0  0  0
  2 18  1  0  0  0  0
  2 19  1  0  0  0  0
  3  2  1  0  0  0  0
  3 20  1  0  0  0  0
  3 21  1  0  0  0  0
  4  3  1  0  0  0  0
  4 22  1  0  0  0  0
  4 23  1  0  0  0  0
  5  4  1  0  0  0  0
  5 24  1  0  0  0  0
  5 25  1  0  0  0  0
  6  5  1  0  0  0  0
  6 26  1  0  0  0  0
  6 27  1  0  0  0  0
  7 28  1  0  0  0  0
  8  7  2  0  0  0  0
  8 29  1  0  0  0  0
  9 30  1  0  0  0  0
 10  6  1  0  0  0  0
 10  7  1  0  0  0  0
 11  8  1  0  0  0  0
 11  9  2  0  0  0  0
 12  9  1  0  0  0  0
 12 10  2  0  0  0  0
 13 11  1  0  0  0  0
 13 31  1  0  0  0  0
 14 12  1  0  0  0  0
 14 32  1  0  0  0  0
M  END
>  <DRUGBANK_ID>
DB11254

>  <COMMON_NAME>
Hexylresorcinol

>  <CAS_NUMBER>
136-77-6

>  <UNII>
R9QTB5E82N

>  <SYNONYMS>
4-hexyl-1,3-benzenediol; 4-hexylresorcinol; Hexylresorcinol

$$$$
