
 OpenBabel10282417072D

 53 57  0  0  1  0  0  0  0  0999 V2000
    3.9297    1.3118    0.0000 C   0  0  0  0  0  0  0  0  0  0  0  0
    3.5848    2.0612    0.0000 C   0  0  0  0  0  0  0  0  0  0  0  0
    2.7633    2.1372    0.0000 C   0  0  0  0  0  0  0  0  0  0  0  0
    2.2867    1.4638    0.0000 C   0  0  0  0  0  0  0  0  0  0  0  0
    2.6316    0.7144    0.0000 C   0  0  0  0  0  0  0  0  0  0  0  0
    3.4531    0.6384    0.0000 C   0  0  0  0  0  0  0  0  0  0  0  0
    1.9599   -0.0391    0.0000 C   0  0  0  0  0  0  0  0  0  0  0  0
    2.6316   -0.7146    0.0000 C   0  0  0  0  0  0  0  0  0  0  0  0
    3.5133   -0.3924    0.0000 C   0  0  0  0  0  0  0  0  0  0  0  0
    4.0313   -1.0024    0.0000 C   0  0  0  0  0  0  0  0  0  0  0  0
    3.8651   -1.8105    0.0000 C   0  0  0  0  0  0  0  0  0  0  0  0
    3.0822   -2.0706    0.0000 C   0  0  0  0  0  0  0  0  0  0  0  0
    2.4654   -1.5227    0.0000 C   0  0  0  0  0  0  0  0  0  0  0  0
    1.7280   -2.0263    0.0000 Cl  0  0  0  0  0  0  0  0  0  0  0  0
    1.3941   -0.0001    0.0000 N   0  0  0  0  0  0  0  0  0  0  0  0
    1.1624    0.9268    0.0000 C   0  0  2  0  0  0  0  0  0  0  0  0
    0.5174    0.4124    0.0000 C   0  0  0  0  0  0  0  0  0  0  0  0
    0.5174   -0.4126    0.0000 C   0  0  0  0  0  0  0  0  0  0  0  0
    1.1624   -0.9270    0.0000 C   0  0  1  0  0  0  0  0  0  0  0  0
    1.9667   -0.7434    0.0000 C   0  0  0  0  0  0  0  0  0  0  0  0
    2.3247   -0.0001    0.0000 C   0  0  2  0  0  0  0  0  0  0  0  0
    1.9667    0.7432    0.0000 C   0  0  0  0  0  0  0  0  0  0  0  0
    3.0597    0.3744    0.0000 C   0  0  0  0  0  0  0  0  0  0  0  0
    3.1029    1.1983    0.0000 N   0  0  0  0  0  0  0  0  0  0  0  0
    3.8380    1.5729    0.0000 C   0  0  0  0  0  0  0  0  0  0  0  0
    4.5299    1.1235    0.0000 C   0  0  0  0  0  0  0  0  0  0  0  0
    4.4867    0.2997    0.0000 C   0  0  0  0  0  0  0  0  0  0  0  0
    3.7517   -0.0749    0.0000 N   0  0  0  0  0  0  0  0  0  0  0  0
    3.1099   -0.5808    0.0000 O   0  0  0  0  0  0  0  0  0  0  0  0
    1.4547    1.8719    0.0000 Cl  0  0  0  0  0  0  0  0  0  0  0  0
    4.9573    1.2167    0.0000 H   0  0  0  0  0  0  0  0  0  0  0  0
    4.1809    2.9036    0.0000 H   0  0  0  0  0  0  0  0  0  0  0  0
    2.3319    3.0747    0.0000 H   0  0  0  0  0  0  0  0  0  0  0  0
    3.8845   -0.2991    0.0000 H   0  0  0  0  0  0  0  0  0  0  0  0
    1.5153   -1.0124    0.0000 H   0  0  0  0  0  0  0  0  0  0  0  0
    3.7768    0.6054    0.0000 H   0  0  0  0  0  0  0  0  0  0  0  0
    5.0311   -0.7465    0.0000 H   0  0  0  0  0  0  0  0  0  0  0  0
    4.6366   -2.4960    0.0000 H   0  0  0  0  0  0  0  0  0  0  0  0
    2.8744   -3.0815    0.0000 H   0  0  0  0  0  0  0  0  0  0  0  0
    0.8194   -0.0867    0.0000 H   0  0  0  0  0  0  0  0  0  0  0  0
   -0.4466    0.8766    0.0000 H   0  0  0  0  0  0  0  0  0  0  0  0
   -0.3886   -0.1569    0.0000 H   0  0  0  0  0  0  0  0  0  0  0  0
   -0.4466   -0.8768    0.0000 H   0  0  0  0  0  0  0  0  0  0  0  0
    0.3976   -1.4759    0.0000 H   0  0  0  0  0  0  0  0  0  0  0  0
    0.8194    0.0865    0.0000 H   0  0  0  0  0  0  0  0  0  0  0  0
    2.6338   -1.5800    0.0000 H   0  0  0  0  0  0  0  0  0  0  0  0
    3.0300   -0.6236    0.0000 H   0  0  0  0  0  0  0  0  0  0  0  0
    2.6338    1.5798    0.0000 H   0  0  0  0  0  0  0  0  0  0  0  0
    1.6133    1.7532    0.0000 H   0  0  0  0  0  0  0  0  0  0  0  0
    3.8920    2.6035    0.0000 H   0  0  0  0  0  0  0  0  0  0  0  0
    5.4494    1.5920    0.0000 H   0  0  0  0  0  0  0  0  0  0  0  0
    5.3522   -0.2623    0.0000 H   0  0  0  0  0  0  0  0  0  0  0  0
    3.0003   -1.5446    0.0000 H   0  0  0  0  0  0  0  0  0  0  0  0
  1  2  2  0  0  0  0
  1  6  1  0  0  0  0
  1 31  1  0  0  0  0
  2  3  1  0  0  0  0
  2 32  1  0  0  0  0
  3  4  2  0  0  0  0
  3 33  1  0  0  0  0
  4  5  1  0  0  0  0
  4 30  1  0  0  0  0
  5  6  2  0  0  0  0
  5  7  1  0  0  0  0
  6 34  1  0  0  0  0
  7  8  1  0  0  0  0
  7 15  1  0  0  0  0
  7 35  1  0  0  0  0
  8  9  2  0  0  0  0
  8 13  1  0  0  0  0
  9 10  1  0  0  0  0
  9 36  1  0  0  0  0
 10 11  2  0  0  0  0
 10 37  1  0  0  0  0
 11 12  1  0  0  0  0
 11 38  1  0  0  0  0
 12 13  2  0  0  0  0
 12 39  1  0  0  0  0
 13 14  1  0  0  0  0
 16 15  1  0  0  0  0
 16 17  1  0  0  0  0
 16 22  1  0  0  0  0
 16 40  1  1  0  0  0
 17 18  1  0  0  0  0
 17 41  1  0  0  0  0
 17 42  1  0  0  0  0
 18 19  1  0  0  0  0
 18 43  1  0  0  0  0
 18 44  1  0  0  0  0
 19 15  1  0  0  0  0
 19 20  1  0  0  0  0
 19 45  1  1  0  0  0
 20 21  1  0  0  0  0
 20 46  1  0  0  0  0
 20 47  1  0  0  0  0
 21 22  1  0  0  0  0
 21 23  1  0  0  0  0
 21 29  1  1  0  0  0
 22 48  1  0  0  0  0
 22 49  1  0  0  0  0
 23 24  2  0  0  0  0
 23 28  1  0  0  0  0
 24 25  1  0  0  0  0
 25 26  2  0  0  0  0
 25 50  1  0  0  0  0
 26 27  1  0  0  0  0
 26 51  1  0  0  0  0
 27 28  2  0  0  0  0
 27 52  1  0  0  0  0
 29 53  1  0  0  0  0
M  END
>  <DRUGBANK_ID>
DB12782

>  <COMMON_NAME>
SCH-486757

>  <CAS_NUMBER>
524019-25-8

>  <UNII>
2HV668N62T

$$$$
