DST
 OpenBabel10282417072D

 28 27  0  0  0  0  0  0  0  0999 V2000
   -3.1910    0.4591    0.0000 O   0  0  0  0  0  0  0  0  0  0  0  0
   -2.4765    0.0466    0.0000 P   0  0  0  0  0  0  0  0  0  0  0  0
   -2.8890   -0.6679    0.0000 O   0  0  0  0  0  0  0  0  0  0  0  0
   -2.0640    0.7612    0.0000 O   0  0  0  0  0  0  0  0  0  0  0  0
   -1.7620   -0.3659    0.0000 O   0  0  0  0  0  0  0  0  0  0  0  0
   -1.0475    0.0466    0.0000 P   0  0  1  0  0  0  0  0  0  0  0  0
   -0.6349   -0.6679    0.0000 O   0  0  0  0  0  0  0  0  0  0  0  0
   -1.4600    0.7612    0.0000 O   0  0  0  0  0  0  0  0  0  0  0  0
   -0.3329    0.4591    0.0000 S   0  0  0  0  0  0  0  0  0  0  0  0
    0.3815    0.0466    0.0000 C   0  0  0  0  0  0  0  0  0  0  0  0
    1.0961    0.4591    0.0000 C   0  0  0  0  0  0  0  0  0  0  0  0
    1.8106    0.0466    0.0000 C   0  0  0  0  0  0  0  0  0  0  0  0
    2.5251    0.4591    0.0000 C   0  0  0  0  0  0  0  0  0  0  0  0
    1.8106   -0.7785    0.0000 C   0  0  0  0  0  0  0  0  0  0  0  0
   -3.1910    1.4291    0.0000 H   0  0  0  0  0  0  0  0  0  0  0  0
   -3.8590   -0.6679    0.0000 H   0  0  0  0  0  0  0  0  0  0  0  0
   -1.1198   -1.5080    0.0000 H   0  0  0  0  0  0  0  0  0  0  0  0
    0.3814   -1.0234    0.0000 H   0  0  0  0  0  0  0  0  0  0  0  0
    1.3081   -0.4885    0.0000 H   0  0  0  0  0  0  0  0  0  0  0  0
    1.0961    1.5291    0.0000 H   0  0  0  0  0  0  0  0  0  0  0  0
    2.0228    0.9941    0.0000 H   0  0  0  0  0  0  0  0  0  0  0  0
    2.7372   -0.4884    0.0000 H   0  0  0  0  0  0  0  0  0  0  0  0
    3.4517   -0.0759    0.0000 H   0  0  0  0  0  0  0  0  0  0  0  0
    2.5251    1.5291    0.0000 H   0  0  0  0  0  0  0  0  0  0  0  0
    3.4518    0.9941    0.0000 H   0  0  0  0  0  0  0  0  0  0  0  0
    0.8840   -1.3135    0.0000 H   0  0  0  0  0  0  0  0  0  0  0  0
    2.7372   -1.3135    0.0000 H   0  0  0  0  0  0  0  0  0  0  0  0
    1.8106   -1.8485    0.0000 H   0  0  0  0  0  0  0  0  0  0  0  0
  1  2  1  0  0  0  0
  1 15  1  0  0  0  0
  2  3  1  0  0  0  0
  2  4  2  0  0  0  0
  2  5  1  0  0  0  0
  3 16  1  0  0  0  0
  6  5  1  0  0  0  0
  6  7  1  0  0  0  0
  6  8  2  6  0  0  0
  6  9  1  0  0  0  0
  7 17  1  0  0  0  0
  9 10  1  0  0  0  0
 10 11  1  0  0  0  0
 10 18  1  0  0  0  0
 10 19  1  0  0  0  0
 11 12  1  0  0  0  0
 11 20  1  0  0  0  0
 11 21  1  0  0  0  0
 12 13  1  0  0  0  0
 12 14  1  0  0  0  0
 12 22  1  0  0  0  0
 13 23  1  0  0  0  0
 13 24  1  0  0  0  0
 13 25  1  0  0  0  0
 14 26  1  0  0  0  0
 14 27  1  0  0  0  0
 14 28  1  0  0  0  0
M  END
>  <DRUGBANK_ID>
DB02270

>  <SECONDARY_ACCESSION_NUMBERS>
EXPT01279

>  <COMMON_NAME>
Dimethylallyl S-Thiolodiphosphate

$$$$
