
 OpenBabel10282417072D

 12 11  0  0  0  0  0  0  0  0999 V2000
    2.0625    0.7145    0.0000 O   0  0  0  0  0  0  0  0  0  0  0  0
    1.2375    0.7145    0.0000 C   0  0  0  0  0  0  0  0  0  0  0  0
    0.8250    1.4289    0.0000 O   0  0  0  0  0  0  0  0  0  0  0  0
    0.8250    0.0000    0.0000 C   0  0  0  0  0  0  0  0  0  0  0  0
    0.0000    0.0000    0.0000 C   0  0  0  0  0  0  0  0  0  0  0  0
   -0.4125   -0.7145    0.0000 C   0  0  0  0  0  0  0  0  0  0  0  0
    0.0000   -1.4289    0.0000 O   0  0  0  0  0  0  0  0  0  0  0  0
   -1.2375   -0.7145    0.0000 O   0  0  0  0  0  0  0  0  0  0  0  0
    2.5310   -0.0970    0.0000 H   0  0  0  0  0  0  0  0  0  0  0  0
    1.3410   -0.8937    0.0000 H   0  0  0  0  0  0  0  0  0  0  0  0
   -0.5160    0.8937    0.0000 H   0  0  0  0  0  0  0  0  0  0  0  0
   -0.4685   -2.2404    0.0000 H   0  0  0  0  0  0  0  0  0  0  0  0
  1  2  1  0  0  0  0
  1  9  1  0  0  0  0
  2  3  2  0  0  0  0
  2  4  1  0  0  0  0
  4  5  2  0  0  0  0
  4 10  1  0  0  0  0
  5  6  1  0  0  0  0
  5 11  1  0  0  0  0
  6  7  1  0  0  0  0
  6  8  2  0  0  0  0
  7 12  1  0  0  0  0
M  END
>  <DRUGBANK_ID>
DB01677

>  <SECONDARY_ACCESSION_NUMBERS>
EXPT01460; EXPT01511

>  <COMMON_NAME>
Fumaric acid

>  <CAS_NUMBER>
110-17-8

>  <UNII>
88XHZ13131

>  <SYNONYMS>
(2E)-2-butenedioic acid; (E)-2-butenedioic acid; Fumaric acid; Fumaricum acidum; Fumars√§ure; trans-1,2-ethylenedicarboxylic acid; trans-but-2-enedioic acid; trans-Butenedioic acid

$$$$
