761
 OpenBabel10282417072D

 28 29  0  0  0  0  0  0  0  0999 V2000
   -2.3048    0.0274    0.0000 C   0  0  0  0  0  0  0  0  0  0  0  0
   -1.5903   -0.3851    0.0000 C   0  0  0  0  0  0  0  0  0  0  0  0
   -0.8758    0.0274    0.0000 C   0  0  0  0  0  0  0  0  0  0  0  0
   -0.8758    0.8524    0.0000 C   0  0  0  0  0  0  0  0  0  0  0  0
   -1.5903    1.2649    0.0000 C   0  0  0  0  0  0  0  0  0  0  0  0
   -2.3048    0.8524    0.0000 C   0  0  0  0  0  0  0  0  0  0  0  0
   -0.1613   -0.3851    0.0000 C   0  0  0  0  0  0  0  0  0  0  0  0
    0.5531    0.0274    0.0000 C   0  0  0  0  0  0  0  0  0  0  0  0
    0.5531    0.8524    0.0000 C   0  0  0  0  0  0  0  0  0  0  0  0
   -0.1613    1.2649    0.0000 C   0  0  0  0  0  0  0  0  0  0  0  0
    1.2676    1.2649    0.0000 C   0  0  0  0  0  0  0  0  0  0  0  0
    1.2676    2.0899    0.0000 O   0  0  0  0  0  0  0  0  0  0  0  0
    1.9821    0.8524    0.0000 O   0  0  0  0  0  0  0  0  0  0  0  0
    1.2676   -0.3851    0.0000 N   0  0  0  0  0  0  0  0  0  0  0  0
    1.2676   -1.2101    0.0000 C   0  0  0  0  0  0  0  0  0  0  0  0
    0.5531   -1.6226    0.0000 O   0  0  0  0  0  0  0  0  0  0  0  0
    1.9821   -1.6226    0.0000 C   0  0  0  0  0  0  0  0  0  0  0  0
    2.6965   -1.2101    0.0000 O   0  0  0  0  0  0  0  0  0  0  0  0
    1.9821   -2.4476    0.0000 O   0  0  0  0  0  0  0  0  0  0  0  0
   -3.1985   -0.4886    0.0000 H   0  0  0  0  0  0  0  0  0  0  0  0
   -1.5903   -1.4171    0.0000 H   0  0  0  0  0  0  0  0  0  0  0  0
   -1.5903    2.2969    0.0000 H   0  0  0  0  0  0  0  0  0  0  0  0
   -3.1985    1.3684    0.0000 H   0  0  0  0  0  0  0  0  0  0  0  0
   -0.1613   -1.4171    0.0000 H   0  0  0  0  0  0  0  0  0  0  0  0
   -0.1613    2.2969    0.0000 H   0  0  0  0  0  0  0  0  0  0  0  0
    1.9821   -0.0846    0.0000 H   0  0  0  0  0  0  0  0  0  0  0  0
    2.1202    0.1072    0.0000 H   0  0  0  0  0  0  0  0  0  0  0  0
    1.1706   -2.9161    0.0000 H   0  0  0  0  0  0  0  0  0  0  0  0
  1  2  2  0  0  0  0
  1  6  1  0  0  0  0
  1 20  1  0  0  0  0
  2  3  1  0  0  0  0
  2 21  1  0  0  0  0
  3  4  2  0  0  0  0
  3  7  1  0  0  0  0
  4  5  1  0  0  0  0
  4 10  1  0  0  0  0
  5  6  2  0  0  0  0
  5 22  1  0  0  0  0
  6 23  1  0  0  0  0
  7  8  2  0  0  0  0
  7 24  1  0  0  0  0
  8  9  1  0  0  0  0
  8 14  1  0  0  0  0
  9 10  2  0  0  0  0
  9 11  1  0  0  0  0
 10 25  1  0  0  0  0
 11 12  2  0  0  0  0
 11 13  1  0  0  0  0
 13 26  1  0  0  0  0
 14 15  1  0  0  0  0
 14 27  1  0  0  0  0
 15 16  2  0  0  0  0
 15 17  1  0  0  0  0
 17 18  2  0  0  0  0
 17 19  1  0  0  0  0
 19 28  1  0  0  0  0
M  END
>  <DRUGBANK_ID>
DB01734

>  <SECONDARY_ACCESSION_NUMBERS>
EXPT00298

>  <COMMON_NAME>
3-(Oxalyl-Amino)-Naphthalene-2-Carboxylic Acid

$$$$
