539
 OpenBabel10282417072D

 57 59  0  0  0  0  0  0  0  0999 V2000
    3.0791    4.1251    0.0000 Cl  0  0  0  0  0  0  0  0  0  0  0  0
    4.5080   -1.6500    0.0000 O   0  0  0  0  0  0  0  0  0  0  0  0
    3.0791   -3.3001    0.0000 N   0  0  0  0  0  0  0  0  0  0  0  0
    4.5080    1.6500    0.0000 C   0  0  0  0  0  0  0  0  0  0  0  0
    3.7935    2.0625    0.0000 C   0  0  0  0  0  0  0  0  0  0  0  0
    4.5080    0.8250    0.0000 C   0  0  0  0  0  0  0  0  0  0  0  0
    3.7935    2.8876    0.0000 C   0  0  0  0  0  0  0  0  0  0  0  0
    5.2224    2.0625    0.0000 C   0  0  0  0  0  0  0  0  0  0  0  0
    3.0791    1.6500    0.0000 C   0  0  0  0  0  0  0  0  0  0  0  0
    5.2224    0.4125    0.0000 C   0  0  0  0  0  0  0  0  0  0  0  0
    3.7935    0.4125    0.0000 C   0  0  0  0  0  0  0  0  0  0  0  0
    3.0791    3.3001    0.0000 C   0  0  0  0  0  0  0  0  0  0  0  0
    4.5080   -0.8250    0.0000 C   0  0  0  0  0  0  0  0  0  0  0  0
    5.2224   -0.4125    0.0000 C   0  0  0  0  0  0  0  0  0  0  0  0
    3.7935   -0.4125    0.0000 C   0  0  0  0  0  0  0  0  0  0  0  0
    5.2224    2.8876    0.0000 C   0  0  0  0  0  0  0  0  0  0  0  0
    5.9370    1.6500    0.0000 C   0  0  0  0  0  0  0  0  0  0  0  0
    3.0791    0.8250    0.0000 C   0  0  0  0  0  0  0  0  0  0  0  0
    2.3645    2.0625    0.0000 C   0  0  0  0  0  0  0  0  0  0  0  0
    3.7935   -2.8876    0.0000 C   0  0  0  0  0  0  0  0  0  0  0  0
    3.7935   -2.0625    0.0000 C   0  0  0  0  0  0  0  0  0  0  0  0
    5.9370    3.3001    0.0000 C   0  0  0  0  0  0  0  0  0  0  0  0
    6.6515    2.0625    0.0000 C   0  0  0  0  0  0  0  0  0  0  0  0
    2.3645    0.4125    0.0000 C   0  0  0  0  0  0  0  0  0  0  0  0
    1.6500    1.6500    0.0000 C   0  0  0  0  0  0  0  0  0  0  0  0
    6.6515    2.8876    0.0000 C   0  0  0  0  0  0  0  0  0  0  0  0
    1.6500    0.8250    0.0000 C   0  0  0  0  0  0  0  0  0  0  0  0
    2.3645   -2.8876    0.0000 C   0  0  0  0  0  0  0  0  0  0  0  0
    3.0791   -4.1251    0.0000 C   0  0  0  0  0  0  0  0  0  0  0  0
    4.7202    3.4226    0.0000 H   0  0  0  0  0  0  0  0  0  0  0  0
    3.7935    3.9576    0.0000 H   0  0  0  0  0  0  0  0  0  0  0  0
    6.1161    0.9285    0.0000 H   0  0  0  0  0  0  0  0  0  0  0  0
    2.8998    0.9285    0.0000 H   0  0  0  0  0  0  0  0  0  0  0  0
    2.1524    2.7651    0.0000 H   0  0  0  0  0  0  0  0  0  0  0  0
    3.0791    2.2301    0.0000 H   0  0  0  0  0  0  0  0  0  0  0  0
    6.1161   -0.9285    0.0000 H   0  0  0  0  0  0  0  0  0  0  0  0
    2.8998   -0.9285    0.0000 H   0  0  0  0  0  0  0  0  0  0  0  0
    4.3287    3.4036    0.0000 H   0  0  0  0  0  0  0  0  0  0  0  0
    5.9370    0.6180    0.0000 H   0  0  0  0  0  0  0  0  0  0  0  0
    3.9728    0.3090    0.0000 H   0  0  0  0  0  0  0  0  0  0  0  0
    2.3645    3.0945    0.0000 H   0  0  0  0  0  0  0  0  0  0  0  0
    4.7202   -3.4226    0.0000 H   0  0  0  0  0  0  0  0  0  0  0  0
    4.7201   -2.3526    0.0000 H   0  0  0  0  0  0  0  0  0  0  0  0
    2.8669   -1.5275    0.0000 H   0  0  0  0  0  0  0  0  0  0  0  0
    2.8669   -2.5975    0.0000 H   0  0  0  0  0  0  0  0  0  0  0  0
    5.9370    4.3321    0.0000 H   0  0  0  0  0  0  0  0  0  0  0  0
    7.5452    1.5465    0.0000 H   0  0  0  0  0  0  0  0  0  0  0  0
    2.3645   -0.6195    0.0000 H   0  0  0  0  0  0  0  0  0  0  0  0
    0.7563    2.1660    0.0000 H   0  0  0  0  0  0  0  0  0  0  0  0
    7.5452    3.4036    0.0000 H   0  0  0  0  0  0  0  0  0  0  0  0
    0.7563    0.3090    0.0000 H   0  0  0  0  0  0  0  0  0  0  0  0
    2.3644   -1.8176    0.0000 H   0  0  0  0  0  0  0  0  0  0  0  0
    1.4379   -3.4227    0.0000 H   0  0  0  0  0  0  0  0  0  0  0  0
    1.4378   -2.3527    0.0000 H   0  0  0  0  0  0  0  0  0  0  0  0
    2.1525   -4.6601    0.0000 H   0  0  0  0  0  0  0  0  0  0  0  0
    4.0057   -4.6601    0.0000 H   0  0  0  0  0  0  0  0  0  0  0  0
    3.0791   -5.1951    0.0000 H   0  0  0  0  0  0  0  0  0  0  0  0
  1 12  1  0  0  0  0
  2 13  1  0  0  0  0
  2 21  1  0  0  0  0
  3 20  1  0  0  0  0
  3 28  1  0  0  0  0
  3 29  1  0  0  0  0
  4  5  2  0  0  0  0
  4  6  1  0  0  0  0
  4  8  1  0  0  0  0
  5  7  1  0  0  0  0
  5  9  1  0  0  0  0
  6 10  2  0  0  0  0
  6 11  1  0  0  0  0
  7 12  1  0  0  0  0
  7 30  1  0  0  0  0
  7 31  1  0  0  0  0
  8 16  2  0  0  0  0
  8 17  1  0  0  0  0
  9 18  2  0  0  0  0
  9 19  1  0  0  0  0
 10 14  1  0  0  0  0
 10 32  1  0  0  0  0
 11 15  2  0  0  0  0
 11 33  1  0  0  0  0
 12 34  1  0  0  0  0
 12 35  1  0  0  0  0
 13 14  2  0  0  0  0
 13 15  1  0  0  0  0
 14 36  1  0  0  0  0
 15 37  1  0  0  0  0
 16 22  1  0  0  0  0
 16 38  1  0  0  0  0
 17 23  2  0  0  0  0
 17 39  1  0  0  0  0
 18 24  1  0  0  0  0
 18 40  1  0  0  0  0
 19 25  2  0  0  0  0
 19 41  1  0  0  0  0
 20 21  1  0  0  0  0
 20 42  1  0  0  0  0
 20 43  1  0  0  0  0
 21 44  1  0  0  0  0
 21 45  1  0  0  0  0
 22 26  2  0  0  0  0
 22 46  1  0  0  0  0
 23 26  1  0  0  0  0
 23 47  1  0  0  0  0
 24 27  2  0  0  0  0
 24 48  1  0  0  0  0
 25 27  1  0  0  0  0
 25 49  1  0  0  0  0
 26 50  1  0  0  0  0
 27 51  1  0  0  0  0
 28 52  1  0  0  0  0
 28 53  1  0  0  0  0
 28 54  1  0  0  0  0
 29 55  1  0  0  0  0
 29 56  1  0  0  0  0
 29 57  1  0  0  0  0
M  END
>  <DRUGBANK_ID>
DB00539

>  <SECONDARY_ACCESSION_NUMBERS>
APRD00391

>  <COMMON_NAME>
Toremifene

>  <CAS_NUMBER>
89778-26-7

>  <UNII>
7NFE54O27T

>  <SYNONYMS>
Toremifene; Toremifeno; Toremifenum

$$$$
