NAM
 OpenBabel10282417072D

 30 31  0  0  0  0  0  0  0  0999 V2000
   -1.6484   -0.6971    0.0000 N   0  0  0  0  0  0  0  0  0  0  0  0
   -0.9339   -1.1096    0.0000 C   0  0  1  0  0  0  0  0  0  0  0  0
   -0.2194   -0.6971    0.0000 C   0  0  0  0  0  0  0  0  0  0  0  0
   -0.9339   -1.9346    0.0000 C   0  0  0  0  0  0  0  0  0  0  0  0
   -1.6484   -2.3471    0.0000 O   0  0  0  0  0  0  0  0  0  0  0  0
   -0.2194   -2.3471    0.0000 N   0  0  0  0  0  0  0  0  0  0  0  0
   -0.2194    0.1279    0.0000 C   0  0  0  0  0  0  0  0  0  0  0  0
   -0.9339    0.5404    0.0000 C   0  0  0  0  0  0  0  0  0  0  0  0
   -0.9339    1.3654    0.0000 C   0  0  0  0  0  0  0  0  0  0  0  0
   -0.2194    1.7779    0.0000 C   0  0  0  0  0  0  0  0  0  0  0  0
    0.4950    1.3654    0.0000 C   0  0  0  0  0  0  0  0  0  0  0  0
    1.2095    1.7779    0.0000 C   0  0  0  0  0  0  0  0  0  0  0  0
    1.9240    1.3654    0.0000 C   0  0  0  0  0  0  0  0  0  0  0  0
    1.9240    0.5404    0.0000 C   0  0  0  0  0  0  0  0  0  0  0  0
    1.2095    0.1279    0.0000 C   0  0  0  0  0  0  0  0  0  0  0  0
    0.4950    0.5404    0.0000 C   0  0  0  0  0  0  0  0  0  0  0  0
   -0.9339   -0.5257    0.0000 H   0  0  0  0  0  0  0  0  0  0  0  0
   -1.6484    0.3229    0.0000 H   0  0  0  0  0  0  0  0  0  0  0  0
   -2.5317   -1.2071    0.0000 H   0  0  0  0  0  0  0  0  0  0  0  0
    0.7072   -1.2321    0.0000 H   0  0  0  0  0  0  0  0  0  0  0  0
    0.7072   -0.1621    0.0000 H   0  0  0  0  0  0  0  0  0  0  0  0
   -0.2194   -3.3316    0.0000 H   0  0  0  0  0  0  0  0  0  0  0  0
    0.6332   -1.8548    0.0000 H   0  0  0  0  0  0  0  0  0  0  0  0
   -1.8276    0.0244    0.0000 H   0  0  0  0  0  0  0  0  0  0  0  0
   -1.8276    1.8814    0.0000 H   0  0  0  0  0  0  0  0  0  0  0  0
   -0.2194    2.8099    0.0000 H   0  0  0  0  0  0  0  0  0  0  0  0
    1.2095    2.8099    0.0000 H   0  0  0  0  0  0  0  0  0  0  0  0
    2.8177    1.8814    0.0000 H   0  0  0  0  0  0  0  0  0  0  0  0
    2.8177    0.0244    0.0000 H   0  0  0  0  0  0  0  0  0  0  0  0
    1.2095   -0.9041    0.0000 H   0  0  0  0  0  0  0  0  0  0  0  0
  1 18  1  0  0  0  0
  1 19  1  0  0  0  0
  2  1  1  0  0  0  0
  2  3  1  0  0  0  0
  2  4  1  0  0  0  0
  2 17  1  6  0  0  0
  3  7  1  0  0  0  0
  3 20  1  0  0  0  0
  3 21  1  0  0  0  0
  4  5  2  0  0  0  0
  4  6  1  0  0  0  0
  6 22  1  0  0  0  0
  6 23  1  0  0  0  0
  7  8  2  0  0  0  0
  7 16  1  0  0  0  0
  8  9  1  0  0  0  0
  8 24  1  0  0  0  0
  9 10  2  0  0  0  0
  9 25  1  0  0  0  0
 10 11  1  0  0  0  0
 10 26  1  0  0  0  0
 11 12  1  0  0  0  0
 11 16  2  0  0  0  0
 12 13  2  0  0  0  0
 12 27  1  0  0  0  0
 13 14  1  0  0  0  0
 13 28  1  0  0  0  0
 14 15  2  0  0  0  0
 14 29  1  0  0  0  0
 15 16  1  0  0  0  0
 15 30  1  0  0  0  0
M  END
>  <DRUGBANK_ID>
DB08253

>  <COMMON_NAME>
NAM NAPTHYLAMINOALANINE

$$$$
