ZZA
 OpenBabel10282417072D

 22 23  0  0  0  0  0  0  0  0999 V2000
    3.7313   10.8614    0.0000 O   0  0  0  0  0  0  0  0  0  0  0  0
    3.0169   10.4489    0.0000 C   0  0  0  0  0  0  0  0  0  0  0  0
    2.3024   10.8614    0.0000 O   0  0  0  0  0  0  0  0  0  0  0  0
    3.0169    9.6239    0.0000 C   0  0  0  0  0  0  0  0  0  0  0  0
    3.6843    9.1390    0.0000 C   0  0  0  0  0  0  0  0  0  0  0  0
    3.4294    8.3544    0.0000 N   0  0  0  0  0  0  0  0  0  0  0  0
    2.6044    8.3544    0.0000 N   0  0  0  0  0  0  0  0  0  0  0  0
    2.3494    9.1390    0.0000 C   0  0  0  0  0  0  0  0  0  0  0  0
    2.1195    7.6870    0.0000 C   0  0  0  0  0  0  0  0  0  0  0  0
    2.4550    6.9333    0.0000 C   0  0  0  0  0  0  0  0  0  0  0  0
    1.9701    6.2658    0.0000 C   0  0  0  0  0  0  0  0  0  0  0  0
    1.1496    6.3521    0.0000 C   0  0  0  0  0  0  0  0  0  0  0  0
    0.8140    7.1057    0.0000 C   0  0  0  0  0  0  0  0  0  0  0  0
    1.2990    7.7732    0.0000 C   0  0  0  0  0  0  0  0  0  0  0  0
    4.5428   10.3929    0.0000 H   0  0  0  0  0  0  0  0  0  0  0  0
    4.6658    9.4579    0.0000 H   0  0  0  0  0  0  0  0  0  0  0  0
    1.3679    9.4579    0.0000 H   0  0  0  0  0  0  0  0  0  0  0  0
    3.4813    6.8254    0.0000 H   0  0  0  0  0  0  0  0  0  0  0  0
    2.3898    5.3230    0.0000 H   0  0  0  0  0  0  0  0  0  0  0  0
    0.5430    5.5172    0.0000 H   0  0  0  0  0  0  0  0  0  0  0  0
   -0.2123    7.2135    0.0000 H   0  0  0  0  0  0  0  0  0  0  0  0
    0.8792    8.7160    0.0000 H   0  0  0  0  0  0  0  0  0  0  0  0
  1  2  1  0  0  0  0
  1 15  1  0  0  0  0
  2  3  2  0  0  0  0
  2  4  1  0  0  0  0
  4  5  1  0  0  0  0
  4  8  2  0  0  0  0
  5  6  2  0  0  0  0
  5 16  1  0  0  0  0
  6  7  1  0  0  0  0
  7  8  1  0  0  0  0
  7  9  1  0  0  0  0
  8 17  1  0  0  0  0
  9 10  1  0  0  0  0
  9 14  2  0  0  0  0
 10 11  2  0  0  0  0
 10 18  1  0  0  0  0
 11 12  1  0  0  0  0
 11 19  1  0  0  0  0
 12 13  2  0  0  0  0
 12 20  1  0  0  0  0
 13 14  1  0  0  0  0
 13 21  1  0  0  0  0
 14 22  1  0  0  0  0
M  END
>  <DRUGBANK_ID>
DB08790

>  <COMMON_NAME>
1-PHENYL-1H-PYRAZOLE-4-CARBOXYLIC ACID

$$$$
