
 OpenBabel10282417072D

 45 46  0  0  0  0  0  0  0  0999 V2000
   -5.9710    2.4402    0.0000 O   0  0  0  0  0  0  0  0  0  0  0  0
   -6.6854    2.0277    0.0000 C   0  0  1  0  0  0  0  0  0  0  0  0
   -6.6854    1.2027    0.0000 C   0  0  2  0  0  0  0  0  0  0  0  0
   -5.9710    0.7902    0.0000 C   0  0  1  0  0  0  0  0  0  0  0  0
   -5.2565    1.2027    0.0000 C   0  0  2  0  0  0  0  0  0  0  0  0
   -5.2565    2.0277    0.0000 C   0  0  1  0  0  0  0  0  0  0  0  0
   -4.5420    2.4402    0.0000 O   0  0  0  0  0  0  0  0  0  0  0  0
   -4.5420    0.7902    0.0000 O   0  0  0  0  0  0  0  0  0  0  0  0
   -5.9710   -0.0348    0.0000 O   0  0  0  0  0  0  0  0  0  0  0  0
   -7.3999    0.7902    0.0000 O   0  0  0  0  0  0  0  0  0  0  0  0
   -7.3999    2.4402    0.0000 C   0  0  0  0  0  0  0  0  0  0  0  0
   -8.1144    2.0277    0.0000 O   0  0  0  0  0  0  0  0  0  0  0  0
   -3.1131    4.0902    0.0000 O   0  0  0  0  0  0  0  0  0  0  0  0
   -3.8275    3.6777    0.0000 C   0  0  1  0  0  0  0  0  0  0  0  0
   -3.8275    2.8527    0.0000 C   0  0  2  0  0  0  0  0  0  0  0  0
   -3.1131    2.4402    0.0000 C   0  0  1  0  0  0  0  0  0  0  0  0
   -2.3986    2.8527    0.0000 C   0  0  2  0  0  0  0  0  0  0  0  0
   -2.3986    3.6777    0.0000 C   0  0  3  0  0  0  0  0  0  0  0  0
   -1.6841    4.0902    0.0000 O   0  0  0  0  0  0  0  0  0  0  0  0
   -1.6841    2.4402    0.0000 O   0  0  0  0  0  0  0  0  0  0  0  0
   -3.1131    1.6152    0.0000 O   0  0  0  0  0  0  0  0  0  0  0  0
   -4.5420    4.0902    0.0000 C   0  0  0  0  0  0  0  0  0  0  0  0
   -5.2565    3.6777    0.0000 O   0  0  0  0  0  0  0  0  0  0  0  0
   -6.6854    3.0977    0.0000 H   0  0  0  0  0  0  0  0  0  0  0  0
   -7.6120    1.7377    0.0000 H   0  0  0  0  0  0  0  0  0  0  0  0
   -6.8977    0.2552    0.0000 H   0  0  0  0  0  0  0  0  0  0  0  0
   -5.2565    0.1327    0.0000 H   0  0  0  0  0  0  0  0  0  0  0  0
   -4.3299    1.4927    0.0000 H   0  0  0  0  0  0  0  0  0  0  0  0
   -4.5420   -0.1798    0.0000 H   0  0  0  0  0  0  0  0  0  0  0  0
   -6.8110   -0.5198    0.0000 H   0  0  0  0  0  0  0  0  0  0  0  0
   -8.2399    1.2752    0.0000 H   0  0  0  0  0  0  0  0  0  0  0  0
   -7.3999    3.5102    0.0000 H   0  0  0  0  0  0  0  0  0  0  0  0
   -8.3265    2.9752    0.0000 H   0  0  0  0  0  0  0  0  0  0  0  0
   -8.9544    2.5127    0.0000 H   0  0  0  0  0  0  0  0  0  0  0  0
   -3.8275    4.7477    0.0000 H   0  0  0  0  0  0  0  0  0  0  0  0
   -4.7541    3.3877    0.0000 H   0  0  0  0  0  0  0  0  0  0  0  0
   -4.0398    1.9052    0.0000 H   0  0  0  0  0  0  0  0  0  0  0  0
   -2.3986    1.7827    0.0000 H   0  0  0  0  0  0  0  0  0  0  0  0
   -3.3252    3.1427    0.0000 H   0  0  0  0  0  0  0  0  0  0  0  0
   -0.8441    3.6052    0.0000 H   0  0  0  0  0  0  0  0  0  0  0  0
   -1.6841    1.4702    0.0000 H   0  0  0  0  0  0  0  0  0  0  0  0
   -3.9531    1.1302    0.0000 H   0  0  0  0  0  0  0  0  0  0  0  0
   -4.5420    5.1602    0.0000 H   0  0  0  0  0  0  0  0  0  0  0  0
   -5.4686    4.6252    0.0000 H   0  0  0  0  0  0  0  0  0  0  0  0
   -6.0965    4.1627    0.0000 H   0  0  0  0  0  0  0  0  0  0  0  0
  1  2  1  0  0  0  0
  1  6  1  0  0  0  0
  2  3  1  0  0  0  0
  2 11  1  0  0  0  0
  2 24  1  6  0  0  0
  3  4  1  0  0  0  0
  3 10  1  0  0  0  0
  3 25  1  1  0  0  0
  4  5  1  0  0  0  0
  4  9  1  0  0  0  0
  4 26  1  6  0  0  0
  5  6  1  0  0  0  0
  5  8  1  0  0  0  0
  5 27  1  1  0  0  0
  6  7  1  0  0  0  0
  6 28  1  1  0  0  0
  8 29  1  0  0  0  0
  9 30  1  0  0  0  0
 10 31  1  0  0  0  0
 11 12  1  0  0  0  0
 11 32  1  0  0  0  0
 11 33  1  0  0  0  0
 12 34  1  0  0  0  0
 13 14  1  0  0  0  0
 13 18  1  0  0  0  0
 14 15  1  0  0  0  0
 14 22  1  0  0  0  0
 14 35  1  6  0  0  0
 15 16  1  0  0  0  0
 15  7  1  0  0  0  0
 15 36  1  1  0  0  0
 16 17  1  0  0  0  0
 16 21  1  0  0  0  0
 16 37  1  6  0  0  0
 17 18  1  0  0  0  0
 17 20  1  0  0  0  0
 17 38  1  1  0  0  0
 18 19  1  0  0  0  0
 18 39  1  0  0  0  0
 19 40  1  0  0  0  0
 20 41  1  0  0  0  0
 21 42  1  0  0  0  0
 22 23  1  0  0  0  0
 22 43  1  0  0  0  0
 22 44  1  0  0  0  0
 23 45  1  0  0  0  0
M  END
>  <DRUGBANK_ID>
DB03323

>  <SECONDARY_ACCESSION_NUMBERS>
EXPT02111

>  <COMMON_NAME>
Maltose

>  <CAS_NUMBER>
69-79-4

>  <UNII>
66Y63L379N

>  <SYNONYMS>
D-(+)-maltose; Maltose anhydrous

$$$$
