
 OpenBabel10282417072D

 30 31  0  0  0  0  0  0  0  0999 V2000
   -0.5537    0.2539    0.0000 C   0  0  0  0  0  0  0  0  0  0  0  0
   -1.0565   -0.4006    0.0000 C   0  0  0  0  0  0  0  0  0  0  0  0
    0.2683    0.2670    0.0000 C   0  0  0  0  0  0  0  0  0  0  0  0
   -1.0198    0.9478    0.0000 C   0  0  0  0  0  0  0  0  0  0  0  0
   -1.8367   -0.1151    0.0000 C   0  0  0  0  0  0  0  0  0  0  0  0
   -0.8574   -1.1965    0.0000 C   0  0  0  0  0  0  0  0  0  0  0  0
    0.7998   -0.3612    0.0000 C   0  0  0  0  0  0  0  0  0  0  0  0
   -1.8158    0.7095    0.0000 C   0  0  0  0  0  0  0  0  0  0  0  0
   -0.7344    1.7202    0.0000 C   0  0  0  0  0  0  0  0  0  0  0  0
   -0.1086   -1.5447    0.0000 C   0  0  0  0  0  0  0  0  0  0  0  0
   -1.4937   -1.7202    0.0000 C   0  0  0  0  0  0  0  0  0  0  0  0
    0.6323   -1.1756    0.0000 C   0  0  0  0  0  0  0  0  0  0  0  0
    1.6010   -0.1728    0.0000 C   0  0  0  0  0  0  0  0  0  0  0  0
    1.8367    0.6178    0.0000 C   0  0  0  0  0  0  0  0  0  0  0  0
    0.6951    1.2066    0.0000 H   0  0  0  0  0  0  0  0  0  0  0  0
   -2.6900   -0.6955    0.0000 H   0  0  0  0  0  0  0  0  0  0  0  0
   -2.6357    1.3362    0.0000 H   0  0  0  0  0  0  0  0  0  0  0  0
    0.3202    1.9009    0.0000 H   0  0  0  0  0  0  0  0  0  0  0  0
   -1.4182    2.5432    0.0000 H   0  0  0  0  0  0  0  0  0  0  0  0
   -0.3635    2.7239    0.0000 H   0  0  0  0  0  0  0  0  0  0  0  0
   -0.0947   -2.5766    0.0000 H   0  0  0  0  0  0  0  0  0  0  0  0
   -2.4956   -1.3447    0.0000 H   0  0  0  0  0  0  0  0  0  0  0  0
   -1.3179   -2.7757    0.0000 H   0  0  0  0  0  0  0  0  0  0  0  0
   -2.3199   -2.4002    0.0000 H   0  0  0  0  0  0  0  0  0  0  0  0
    1.4503   -1.8048    0.0000 H   0  0  0  0  0  0  0  0  0  0  0  0
    2.3350   -0.9513    0.0000 H   0  0  0  0  0  0  0  0  0  0  0  0
    2.6421    0.0744    0.0000 H   0  0  0  0  0  0  0  0  0  0  0  0
    2.8776    0.8658    0.0000 H   0  0  0  0  0  0  0  0  0  0  0  0
    1.1015    1.3952    0.0000 H   0  0  0  0  0  0  0  0  0  0  0  0
    2.1424    1.6432    0.0000 H   0  0  0  0  0  0  0  0  0  0  0  0
  1  2  1  0  0  0  0
  1  3  1  0  0  0  0
  1  4  2  0  0  0  0
  2  5  1  0  0  0  0
  2  6  2  0  0  0  0
  3  7  2  0  0  0  0
  3 15  1  0  0  0  0
  4  8  1  0  0  0  0
  4  9  1  0  0  0  0
  5  8  2  0  0  0  0
  5 16  1  0  0  0  0
  6 10  1  0  0  0  0
  6 11  1  0  0  0  0
  7 12  1  0  0  0  0
  7 13  1  0  0  0  0
  8 17  1  0  0  0  0
  9 18  1  0  0  0  0
  9 19  1  0  0  0  0
  9 20  1  0  0  0  0
 10 12  2  0  0  0  0
 10 21  1  0  0  0  0
 11 22  1  0  0  0  0
 11 23  1  0  0  0  0
 11 24  1  0  0  0  0
 12 25  1  0  0  0  0
 13 14  1  0  0  0  0
 13 26  1  0  0  0  0
 13 27  1  0  0  0  0
 14 28  1  0  0  0  0
 14 29  1  0  0  0  0
 14 30  1  0  0  0  0
M  END
>  <DRUGBANK_ID>
DB15931

>  <COMMON_NAME>
Chamazulene

>  <CAS_NUMBER>
529-05-5

>  <UNII>
Z439UH6E5F

>  <SYNONYMS>
Camazulene; Chamazulen; Dimethulene

$$$$
