321
 OpenBabel10282417072D

 44 46  0  0  0  0  0  0  0  0999 V2000
    2.5995   -1.7286    0.0000 N   0  0  0  0  0  0  0  0  0  0  0  0
    3.6160    2.5536    0.0000 C   0  0  0  0  0  0  0  0  0  0  0  0
    4.4410    2.5536    0.0000 C   0  0  0  0  0  0  0  0  0  0  0  0
    4.0285    0.7464    0.0000 C   0  0  0  0  0  0  0  0  0  0  0  0
    3.1016    1.9086    0.0000 C   0  0  0  0  0  0  0  0  0  0  0  0
    4.9554    1.9086    0.0000 C   0  0  0  0  0  0  0  0  0  0  0  0
    3.2852    1.1043    0.0000 C   0  0  0  0  0  0  0  0  0  0  0  0
    4.7718    1.1043    0.0000 C   0  0  0  0  0  0  0  0  0  0  0  0
    4.0285   -0.0786    0.0000 C   0  0  0  0  0  0  0  0  0  0  0  0
    3.3140   -0.4911    0.0000 C   0  0  0  0  0  0  0  0  0  0  0  0
    2.2844    2.1745    0.0000 C   0  0  0  0  0  0  0  0  0  0  0  0
    5.7725    2.1745    0.0000 C   0  0  0  0  0  0  0  0  0  0  0  0
    2.6643    0.5102    0.0000 C   0  0  0  0  0  0  0  0  0  0  0  0
    5.3926    0.5102    0.0000 C   0  0  0  0  0  0  0  0  0  0  0  0
    3.3139   -1.3161    0.0000 C   0  0  0  0  0  0  0  0  0  0  0  0
    1.6500    1.5950    0.0000 C   0  0  0  0  0  0  0  0  0  0  0  0
    6.4070    1.5949    0.0000 C   0  0  0  0  0  0  0  0  0  0  0  0
    1.8412    0.7571    0.0000 C   0  0  0  0  0  0  0  0  0  0  0  0
    6.2157    0.7571    0.0000 C   0  0  0  0  0  0  0  0  0  0  0  0
    2.5995   -2.5536    0.0000 C   0  0  0  0  0  0  0  0  0  0  0  0
    1.8850   -1.3161    0.0000 C   0  0  0  0  0  0  0  0  0  0  0  0
    3.1518    3.5176    0.0000 H   0  0  0  0  0  0  0  0  0  0  0  0
    2.5527    2.6734    0.0000 H   0  0  0  0  0  0  0  0  0  0  0  0
    4.9052    3.5176    0.0000 H   0  0  0  0  0  0  0  0  0  0  0  0
    5.5043    2.6734    0.0000 H   0  0  0  0  0  0  0  0  0  0  0  0
    4.9222   -0.5946    0.0000 H   0  0  0  0  0  0  0  0  0  0  0  0
    2.3874    0.0440    0.0000 H   0  0  0  0  0  0  0  0  0  0  0  0
    2.3873   -1.0260    0.0000 H   0  0  0  0  0  0  0  0  0  0  0  0
    2.0664    3.1832    0.0000 H   0  0  0  0  0  0  0  0  0  0  0  0
    5.9905    3.1832    0.0000 H   0  0  0  0  0  0  0  0  0  0  0  0
    2.9056   -0.4932    0.0000 H   0  0  0  0  0  0  0  0  0  0  0  0
    5.1513   -0.4932    0.0000 H   0  0  0  0  0  0  0  0  0  0  0  0
    4.2405   -1.8511    0.0000 H   0  0  0  0  0  0  0  0  0  0  0  0
    4.2406   -0.7812    0.0000 H   0  0  0  0  0  0  0  0  0  0  0  0
    0.6650    1.9031    0.0000 H   0  0  0  0  0  0  0  0  0  0  0  0
    7.3920    1.9029    0.0000 H   0  0  0  0  0  0  0  0  0  0  0  0
    1.0874    0.0522    0.0000 H   0  0  0  0  0  0  0  0  0  0  0  0
    6.9694    0.0522    0.0000 H   0  0  0  0  0  0  0  0  0  0  0  0
    1.6729   -3.0886    0.0000 H   0  0  0  0  0  0  0  0  0  0  0  0
    3.5261   -3.0886    0.0000 H   0  0  0  0  0  0  0  0  0  0  0  0
    2.5995   -3.6236    0.0000 H   0  0  0  0  0  0  0  0  0  0  0  0
    1.8850   -0.2461    0.0000 H   0  0  0  0  0  0  0  0  0  0  0  0
    0.9584   -1.8511    0.0000 H   0  0  0  0  0  0  0  0  0  0  0  0
    0.9583   -0.7811    0.0000 H   0  0  0  0  0  0  0  0  0  0  0  0
  1 15  1  0  0  0  0
  1 20  1  0  0  0  0
  1 21  1  0  0  0  0
  2  3  1  0  0  0  0
  2  5  1  0  0  0  0
  2 22  1  0  0  0  0
  2 23  1  0  0  0  0
  3  6  1  0  0  0  0
  3 24  1  0  0  0  0
  3 25  1  0  0  0  0
  4  7  1  0  0  0  0
  4  8  1  0  0  0  0
  4  9  2  0  0  0  0
  5  7  1  0  0  0  0
  5 11  2  0  0  0  0
  6  8  1  0  0  0  0
  6 12  2  0  0  0  0
  7 13  2  0  0  0  0
  8 14  2  0  0  0  0
  9 10  1  0  0  0  0
  9 26  1  0  0  0  0
 10 15  1  0  0  0  0
 10 27  1  0  0  0  0
 10 28  1  0  0  0  0
 11 16  1  0  0  0  0
 11 29  1  0  0  0  0
 12 17  1  0  0  0  0
 12 30  1  0  0  0  0
 13 18  1  0  0  0  0
 13 31  1  0  0  0  0
 14 19  1  0  0  0  0
 14 32  1  0  0  0  0
 15 33  1  0  0  0  0
 15 34  1  0  0  0  0
 16 18  2  0  0  0  0
 16 35  1  0  0  0  0
 17 19  2  0  0  0  0
 17 36  1  0  0  0  0
 18 37  1  0  0  0  0
 19 38  1  0  0  0  0
 20 39  1  0  0  0  0
 20 40  1  0  0  0  0
 20 41  1  0  0  0  0
 21 42  1  0  0  0  0
 21 43  1  0  0  0  0
 21 44  1  0  0  0  0
M  END
>  <DRUGBANK_ID>
DB00321

>  <SECONDARY_ACCESSION_NUMBERS>
APRD00227

>  <COMMON_NAME>
Amitriptyline

>  <CAS_NUMBER>
50-48-6

>  <UNII>
1806D8D52K

>  <SYNONYMS>
10,11-dihydro-5-(γ-dimethylaminopropylidene)-5H-dibenzo(a,d)cycloheptene; 10,11-dihydro-N,N-dimethyl-5H-dibenzo(a,d)heptalene-Δ5,γ-propylamine; 3-(10,11-dihydro-5H-dibenzo(a,d)cyclohepten-5-ylidene)-N,N-dimethyl-1-propanamine; 3-(10,11-dihydro-5H-dibenzo[a,d]cyclohepten-5-ylidene)-N,N-dimethylpropan-1-amine; 5-(3-dimethylaminopropylidene)-10,11-dihydro-5H-dibenzo(a,d)cycloheptatriene; 5-(3-dimethylaminopropylidene)-10,11-dihydro-5H-dibenzo(a,d)cycloheptene; 5-(γ-dimethylaminopropylidene)-5H-dibenzo[a,d][1,4]cycloheptadiene; Amitriptilina; Amitriptylin; Amitriptyline; Amitriptylinum

$$$$
