N-acetylneuraminic acid.mol
 OpenBabel10282417072D

 40 40  0  0  0  0  0  0  0  0999 V2000
    1.5210    1.7216    0.0000 C   0  0  0  0  0  0  0  0  0  0  0  0
    1.2389    0.9464    0.0000 C   0  0  1  0  0  0  0  0  0  0  0  0
    2.0513    0.8031    0.0000 O   0  0  0  0  0  0  0  0  0  0  0  0
    1.2389    0.1214    0.0000 O   0  0  0  0  0  0  0  0  0  0  0  0
    0.5244   -0.2911    0.0000 C   0  0  1  0  0  0  0  0  0  0  0  0
    0.5244   -1.1161    0.0000 C   0  0  2  0  0  0  0  0  0  0  0  0
   -0.1901   -1.5286    0.0000 O   0  0  0  0  0  0  0  0  0  0  0  0
    1.2389   -1.5286    0.0000 C   0  0  2  0  0  0  0  0  0  0  0  0
    1.2389   -2.3536    0.0000 O   0  0  0  0  0  0  0  0  0  0  0  0
    1.9533   -1.1161    0.0000 C   0  0  0  0  0  0  0  0  0  0  0  0
    1.9533   -0.2911    0.0000 O   0  0  0  0  0  0  0  0  0  0  0  0
   -0.1901    0.1214    0.0000 C   0  0  2  0  0  0  0  0  0  0  0  0
   -0.9046   -0.2911    0.0000 N   0  0  0  0  0  0  0  0  0  0  0  0
   -0.1901    0.9464    0.0000 C   0  0  1  0  0  0  0  0  0  0  0  0
   -0.9046    1.3589    0.0000 O   0  0  0  0  0  0  0  0  0  0  0  0
    0.5244    1.3589    0.0000 C   0  0  0  0  0  0  0  0  0  0  0  0
    2.3335    1.8649    0.0000 O   0  0  0  0  0  0  0  0  0  0  0  0
    0.9907    2.3536    0.0000 O   0  0  0  0  0  0  0  0  0  0  0  0
   -1.6190    0.1214    0.0000 C   0  0  0  0  0  0  0  0  0  0  0  0
   -1.6190    0.9464    0.0000 O   0  0  0  0  0  0  0  0  0  0  0  0
   -2.3335   -0.2911    0.0000 C   0  0  0  0  0  0  0  0  0  0  0  0
    2.3830   -0.1084    0.0000 H   0  0  0  0  0  0  0  0  0  0  0  0
    1.4510   -0.8261    0.0000 H   0  0  0  0  0  0  0  0  0  0  0  0
   -0.4022   -0.5811    0.0000 H   0  0  0  0  0  0  0  0  0  0  0  0
   -1.0301   -1.0436    0.0000 H   0  0  0  0  0  0  0  0  0  0  0  0
    0.3123   -2.0636    0.0000 H   0  0  0  0  0  0  0  0  0  0  0  0
    0.3989   -2.8386    0.0000 H   0  0  0  0  0  0  0  0  0  0  0  0
    2.8800   -1.6511    0.0000 H   0  0  0  0  0  0  0  0  0  0  0  0
    2.8799   -0.5811    0.0000 H   0  0  0  0  0  0  0  0  0  0  0  0
    2.7933    0.1939    0.0000 H   0  0  0  0  0  0  0  0  0  0  0  0
   -0.1901   -0.9486    0.0000 H   0  0  0  0  0  0  0  0  0  0  0  0
   -0.9046   -1.2756    0.0000 H   0  0  0  0  0  0  0  0  0  0  0  0
   -1.1167    0.4114    0.0000 H   0  0  0  0  0  0  0  0  0  0  0  0
   -0.9046    2.3289    0.0000 H   0  0  0  0  0  0  0  0  0  0  0  0
    0.5244    2.4289    0.0000 H   0  0  0  0  0  0  0  0  0  0  0  0
    1.4510    1.8939    0.0000 H   0  0  0  0  0  0  0  0  0  0  0  0
    1.3112    3.2341    0.0000 H   0  0  0  0  0  0  0  0  0  0  0  0
   -3.2601    0.2439    0.0000 H   0  0  0  0  0  0  0  0  0  0  0  0
   -2.3335   -1.3611    0.0000 H   0  0  0  0  0  0  0  0  0  0  0  0
   -3.2602   -0.8261    0.0000 H   0  0  0  0  0  0  0  0  0  0  0  0
  1 17  2  0  0  0  0
  1 18  1  0  0  0  0
  2  1  1  1  0  0  0
  2  3  1  0  0  0  0
  2  4  1  0  0  0  0
  2 16  1  0  0  0  0
  3 22  1  0  0  0  0
  5  4  1  0  0  0  0
  5  6  1  0  0  0  0
  5 12  1  0  0  0  0
  5 23  1  6  0  0  0
  6  7  1  0  0  0  0
  6  8  1  0  0  0  0
  6 24  1  6  0  0  0
  7 25  1  0  0  0  0
  8  9  1  0  0  0  0
  8 10  1  0  0  0  0
  8 26  1  6  0  0  0
  9 27  1  0  0  0  0
 10 11  1  0  0  0  0
 10 28  1  0  0  0  0
 10 29  1  0  0  0  0
 11 30  1  0  0  0  0
 12 13  1  0  0  0  0
 12 14  1  0  0  0  0
 12 31  1  1  0  0  0
 13 19  1  0  0  0  0
 13 32  1  0  0  0  0
 14 15  1  0  0  0  0
 14 16  1  0  0  0  0
 14 33  1  6  0  0  0
 15 34  1  0  0  0  0
 16 35  1  0  0  0  0
 16 36  1  0  0  0  0
 18 37  1  0  0  0  0
 19 20  2  0  0  0  0
 19 21  1  0  0  0  0
 21 38  1  0  0  0  0
 21 39  1  0  0  0  0
 21 40  1  0  0  0  0
M  END
>  <DRUGBANK_ID>
DB04265

>  <SECONDARY_ACCESSION_NUMBERS>
EXPT02915

>  <COMMON_NAME>
N-acetyl-beta-neuraminic acid

>  <CAS_NUMBER>
19342-33-7

>  <UNII>
TIP79W5HPN

>  <SYNONYMS>
(-)-N-acetyl-beta-neuraminic acid; beta-sialic acid; N-acetyl-beta-D-neuraminic acid; N-acetyl-β-neuraminic acid; β-Neu5Ac

$$$$
