TR1
 OpenBabel10282417072D

 63 64  0  0  0  0  0  0  0  0999 V2000
    1.2106   -0.1219    0.0000 N   0  0  0  0  0  0  0  0  0  0  0  0
    0.4961    0.2906    0.0000 C   0  0  2  0  0  0  0  0  0  0  0  0
   -0.2184   -0.1219    0.0000 C   0  0  0  0  0  0  0  0  0  0  0  0
   -0.2184   -0.9469    0.0000 O   0  0  0  0  0  0  0  0  0  0  0  0
    4.7829   -1.3594    0.0000 C   0  0  0  0  0  0  0  0  0  0  0  0
    5.4974   -0.9469    0.0000 C   0  0  0  0  0  0  0  0  0  0  0  0
    4.7829   -2.1844    0.0000 C   0  0  0  0  0  0  0  0  0  0  0  0
    6.2119   -1.3594    0.0000 C   0  0  0  0  0  0  0  0  0  0  0  0
    5.4974   -2.5969    0.0000 C   0  0  0  0  0  0  0  0  0  0  0  0
    6.2119   -2.1844    0.0000 C   0  0  0  0  0  0  0  0  0  0  0  0
    2.6395   -0.1219    0.0000 C   0  0  0  0  0  0  0  0  0  0  0  0
    3.3540    0.2906    0.0000 C   0  0  0  0  0  0  0  0  0  0  0  0
    2.6395   -0.9469    0.0000 C   0  0  0  0  0  0  0  0  0  0  0  0
    4.0684   -0.1219    0.0000 C   0  0  0  0  0  0  0  0  0  0  0  0
    3.3540   -1.3594    0.0000 C   0  0  0  0  0  0  0  0  0  0  0  0
    4.0684   -0.9469    0.0000 C   0  0  0  0  0  0  0  0  0  0  0  0
    1.9250    0.2906    0.0000 C   0  0  0  0  0  0  0  0  0  0  0  0
    0.4961    1.1156    0.0000 C   0  0  0  0  0  0  0  0  0  0  0  0
   -0.2184    1.5281    0.0000 S   0  0  0  0  0  0  0  0  0  0  0  0
   -0.9328    0.2906    0.0000 N   0  0  0  0  0  0  0  0  0  0  0  0
   -1.6473   -0.1219    0.0000 C   0  0  0  0  0  0  0  0  0  0  0  0
   -2.3618    0.2906    0.0000 C   0  0  0  0  0  0  0  0  0  0  0  0
   -2.3618    1.1156    0.0000 O   0  0  0  0  0  0  0  0  0  0  0  0
   -3.0763   -0.1219    0.0000 N   0  0  0  0  0  0  0  0  0  0  0  0
   -3.7907    0.2906    0.0000 C   0  0  1  0  0  0  0  0  0  0  0  0
   -3.7907    1.1156    0.0000 C   0  0  0  0  0  0  0  0  0  0  0  0
   -4.5052    1.5281    0.0000 C   0  0  0  0  0  0  0  0  0  0  0  0
   -3.0763    1.5281    0.0000 C   0  0  0  0  0  0  0  0  0  0  0  0
   -4.5052   -0.1219    0.0000 C   0  0  0  0  0  0  0  0  0  0  0  0
   -4.5052   -0.9469    0.0000 O   0  0  0  0  0  0  0  0  0  0  0  0
   -5.2197    0.2906    0.0000 O   0  0  0  0  0  0  0  0  0  0  0  0
   -5.9341   -0.1219    0.0000 C   0  0  0  0  0  0  0  0  0  0  0  0
    0.4961   -0.2933    0.0000 H   0  0  0  0  0  0  0  0  0  0  0  0
   -3.2850    0.5826    0.0000 H   0  0  0  0  0  0  0  0  0  0  0  0
    1.2106   -1.1419    0.0000 H   0  0  0  0  0  0  0  0  0  0  0  0
    5.4974    0.0851    0.0000 H   0  0  0  0  0  0  0  0  0  0  0  0
    3.8892   -2.7004    0.0000 H   0  0  0  0  0  0  0  0  0  0  0  0
    7.1056   -0.8434    0.0000 H   0  0  0  0  0  0  0  0  0  0  0  0
    5.4974   -3.6289    0.0000 H   0  0  0  0  0  0  0  0  0  0  0  0
    7.1056   -2.7004    0.0000 H   0  0  0  0  0  0  0  0  0  0  0  0
    3.3540    1.3226    0.0000 H   0  0  0  0  0  0  0  0  0  0  0  0
    1.7458   -1.4629    0.0000 H   0  0  0  0  0  0  0  0  0  0  0  0
    4.9621    0.3941    0.0000 H   0  0  0  0  0  0  0  0  0  0  0  0
    3.3540   -2.3914    0.0000 H   0  0  0  0  0  0  0  0  0  0  0  0
    1.9250    1.3606    0.0000 H   0  0  0  0  0  0  0  0  0  0  0  0
    2.8516    0.8256    0.0000 H   0  0  0  0  0  0  0  0  0  0  0  0
    1.4227    1.6506    0.0000 H   0  0  0  0  0  0  0  0  0  0  0  0
    0.4961    2.1856    0.0000 H   0  0  0  0  0  0  0  0  0  0  0  0
   -0.2184    2.8881    0.0000 H   0  0  0  0  0  0  0  0  0  0  0  0
   -0.9328    1.2751    0.0000 H   0  0  0  0  0  0  0  0  0  0  0  0
   -1.6473   -1.1919    0.0000 H   0  0  0  0  0  0  0  0  0  0  0  0
   -2.5739   -0.6569    0.0000 H   0  0  0  0  0  0  0  0  0  0  0  0
   -3.0763   -1.1064    0.0000 H   0  0  0  0  0  0  0  0  0  0  0  0
   -3.7907    2.1856    0.0000 H   0  0  0  0  0  0  0  0  0  0  0  0
   -4.5052    2.5981    0.0000 H   0  0  0  0  0  0  0  0  0  0  0  0
   -5.4318    0.9931    0.0000 H   0  0  0  0  0  0  0  0  0  0  0  0
   -5.4319    2.0631    0.0000 H   0  0  0  0  0  0  0  0  0  0  0  0
   -2.1496    0.9931    0.0000 H   0  0  0  0  0  0  0  0  0  0  0  0
   -3.0763    2.5981    0.0000 H   0  0  0  0  0  0  0  0  0  0  0  0
   -2.1497    2.0631    0.0000 H   0  0  0  0  0  0  0  0  0  0  0  0
   -6.8608    0.4131    0.0000 H   0  0  0  0  0  0  0  0  0  0  0  0
   -5.9341   -1.1919    0.0000 H   0  0  0  0  0  0  0  0  0  0  0  0
   -6.8607   -0.6569    0.0000 H   0  0  0  0  0  0  0  0  0  0  0  0
  1 17  1  0  0  0  0
  1 35  1  0  0  0  0
  2  1  1  0  0  0  0
  2  3  1  0  0  0  0
  2 18  1  0  0  0  0
  2 33  1  1  0  0  0
  3  4  2  0  0  0  0
  3 20  1  0  0  0  0
  5  6  2  0  0  0  0
  5  7  1  0  0  0  0
  5 16  1  0  0  0  0
  6  8  1  0  0  0  0
  6 36  1  0  0  0  0
  7  9  2  0  0  0  0
  7 37  1  0  0  0  0
  8 10  2  0  0  0  0
  8 38  1  0  0  0  0
  9 10  1  0  0  0  0
  9 39  1  0  0  0  0
 10 40  1  0  0  0  0
 11 12  2  0  0  0  0
 11 13  1  0  0  0  0
 11 17  1  0  0  0  0
 12 14  1  0  0  0  0
 12 41  1  0  0  0  0
 13 15  2  0  0  0  0
 13 42  1  0  0  0  0
 14 16  2  0  0  0  0
 14 43  1  0  0  0  0
 15 16  1  0  0  0  0
 15 44  1  0  0  0  0
 17 45  1  0  0  0  0
 17 46  1  0  0  0  0
 18 19  1  0  0  0  0
 18 47  1  0  0  0  0
 18 48  1  0  0  0  0
 19 49  1  0  0  0  0
 20 21  1  0  0  0  0
 20 50  1  0  0  0  0
 21 22  1  0  0  0  0
 21 51  1  0  0  0  0
 21 52  1  0  0  0  0
 22 23  2  0  0  0  0
 22 24  1  0  0  0  0
 24 53  1  0  0  0  0
 25 24  1  0  0  0  0
 25 26  1  0  0  0  0
 25 29  1  0  0  0  0
 25 34  1  1  0  0  0
 26 27  1  0  0  0  0
 26 28  1  0  0  0  0
 26 54  1  0  0  0  0
 27 55  1  0  0  0  0
 27 56  1  0  0  0  0
 27 57  1  0  0  0  0
 28 58  1  0  0  0  0
 28 59  1  0  0  0  0
 28 60  1  0  0  0  0
 29 30  2  0  0  0  0
 29 31  1  0  0  0  0
 31 32  1  0  0  0  0
 32 61  1  0  0  0  0
 32 62  1  0  0  0  0
 32 63  1  0  0  0  0
M  END
>  <DRUGBANK_ID>
DB08643

>  <COMMON_NAME>
2-(2-{2-[(BIPHENYL-4-YLMETHYL)-AMINO]-3-MERCAPTO-PENTANOYLAMINO}-ACETYLAMINO)-3-METHYL-BUTYRIC ACID METHYL ESTER

$$$$
