
 OpenBabel10282417072D

 34 34  0  0  0  0  0  0  0  0999 V2000
   -3.5724    3.7125    0.0000 C   0  0  0  0  0  0  0  0  0  0  0  0
   -2.8579    4.1250    0.0000 C   0  0  0  0  0  0  0  0  0  0  0  0
   -2.1434    3.7125    0.0000 C   0  0  0  0  0  0  0  0  0  0  0  0
    2.1434    3.7125    0.0000 C   0  0  0  0  0  0  0  0  0  0  0  0
    1.4289    4.9500    0.0000 C   0  0  0  0  0  0  0  0  0  0  0  0
    2.8579    4.1250    0.0000 C   0  0  0  0  0  0  0  0  0  0  0  0
    2.1434    5.3625    0.0000 C   0  0  0  0  0  0  0  0  0  0  0  0
   -1.4289    4.1250    0.0000 C   0  0  0  0  0  0  0  0  0  0  0  0
    0.0000    4.1250    0.0000 C   0  0  0  0  0  0  0  0  0  0  0  0
    1.4289    4.1250    0.0000 C   0  0  0  0  0  0  0  0  0  0  0  0
    2.8579    4.9500    0.0000 C   0  0  0  0  0  0  0  0  0  0  0  0
    0.7145    3.7125    0.0000 C   0  0  3  0  0  0  0  0  0  0  0  0
   -0.7145    3.7125    0.0000 N   0  0  0  0  0  0  0  0  0  0  0  0
    3.5724    5.3625    0.0000 O   0  0  0  0  0  0  0  0  0  0  0  0
    0.7145    2.8875    0.0000 O   0  0  0  0  0  0  0  0  0  0  0  0
   -4.4990    4.2475    0.0000 H   0  0  0  0  0  0  0  0  0  0  0  0
   -3.5724    2.6425    0.0000 H   0  0  0  0  0  0  0  0  0  0  0  0
   -4.4991    3.1775    0.0000 H   0  0  0  0  0  0  0  0  0  0  0  0
   -2.8579    5.1950    0.0000 H   0  0  0  0  0  0  0  0  0  0  0  0
   -1.9313    4.6600    0.0000 H   0  0  0  0  0  0  0  0  0  0  0  0
   -2.1434    2.6425    0.0000 H   0  0  0  0  0  0  0  0  0  0  0  0
   -1.2168    3.1775    0.0000 H   0  0  0  0  0  0  0  0  0  0  0  0
    2.1434    2.6805    0.0000 H   0  0  0  0  0  0  0  0  0  0  0  0
    0.5352    5.4660    0.0000 H   0  0  0  0  0  0  0  0  0  0  0  0
    3.7516    3.6090    0.0000 H   0  0  0  0  0  0  0  0  0  0  0  0
    2.1434    6.3945    0.0000 H   0  0  0  0  0  0  0  0  0  0  0  0
   -1.4289    5.1950    0.0000 H   0  0  0  0  0  0  0  0  0  0  0  0
   -0.5022    4.6600    0.0000 H   0  0  0  0  0  0  0  0  0  0  0  0
    0.0000    5.1950    0.0000 H   0  0  0  0  0  0  0  0  0  0  0  0
   -0.9266    4.6600    0.0000 H   0  0  0  0  0  0  0  0  0  0  0  0
    0.7145    4.7825    0.0000 H   0  0  0  0  0  0  0  0  0  0  0  0
   -0.7145    2.6925    0.0000 H   0  0  0  0  0  0  0  0  0  0  0  0
    4.3839    4.8940    0.0000 H   0  0  0  0  0  0  0  0  0  0  0  0
   -0.1255    2.4025    0.0000 H   0  0  0  0  0  0  0  0  0  0  0  0
  1 16  1  0  0  0  0
  1 17  1  0  0  0  0
  1 18  1  0  0  0  0
  2  1  1  0  0  0  0
  2 19  1  0  0  0  0
  2 20  1  0  0  0  0
  3  2  1  0  0  0  0
  3 21  1  0  0  0  0
  3 22  1  0  0  0  0
  4 23  1  0  0  0  0
  5 24  1  0  0  0  0
  6  4  1  0  0  0  0
  6 25  1  0  0  0  0
  7  5  2  0  0  0  0
  7 26  1  0  0  0  0
  8  3  1  0  0  0  0
  8 27  1  0  0  0  0
  8 28  1  0  0  0  0
  9 29  1  0  0  0  0
  9 30  1  0  0  0  0
 10  4  2  0  0  0  0
 10  5  1  0  0  0  0
 11  6  2  0  0  0  0
 11  7  1  0  0  0  0
 12  9  1  0  0  0  0
 12 10  1  0  0  0  0
 12 31  1  0  0  0  0
 13  8  1  0  0  0  0
 13  9  1  0  0  0  0
 13 32  1  0  0  0  0
 14 11  1  0  0  0  0
 14 33  1  0  0  0  0
 15 12  1  0  0  0  0
 15 34  1  0  0  0  0
M  END
>  <DRUGBANK_ID>
DB13206

>  <COMMON_NAME>
Bamethan

>  <CAS_NUMBER>
3703-79-5

>  <UNII>
Y08ZFJ9TFK

>  <SYNONYMS>
1-(4-Hydroxyphenyl)-1-hydroxy-2-butylaminoethane; 1-(p-Hydroxyphenyl)-2-butylaminoethanol; 2-Butylamino-1-p-hydroxyphenylethanol; Bametano; Bamethan; Bamethane; Bamethanum; N-Butylnorsynephrine

$$$$
