
 OpenBabel10282417072D

 36 38  0  0  0  0  0  0  0  0999 V2000
    2.0367    6.8277    0.0000 C   0  0  0  0  0  0  0  0  0  0  0  0
    2.7512    7.2402    0.0000 C   0  0  0  0  0  0  0  0  0  0  0  0
    3.4656    6.8277    0.0000 C   0  0  0  0  0  0  0  0  0  0  0  0
    3.4656    6.0027    0.0000 C   0  0  0  0  0  0  0  0  0  0  0  0
    2.7512    5.5902    0.0000 C   0  0  0  0  0  0  0  0  0  0  0  0
    2.0367    6.0027    0.0000 C   0  0  0  0  0  0  0  0  0  0  0  0
    2.7512    4.7652    0.0000 C   0  0  0  0  0  0  0  0  0  0  0  0
    3.4656    4.3527    0.0000 N   0  0  0  0  0  0  0  0  0  0  0  0
    3.4656    3.5277    0.0000 C   0  0  3  0  0  0  0  0  0  0  0  0
    4.1331    3.0428    0.0000 C   0  0  0  0  0  0  0  0  0  0  0  0
    4.9177    3.2977    0.0000 O   0  0  0  0  0  0  0  0  0  0  0  0
    3.8781    2.2581    0.0000 N   0  0  0  0  0  0  0  0  0  0  0  0
    3.0531    2.2581    0.0000 O   0  0  0  0  0  0  0  0  0  0  0  0
    2.7982    3.0428    0.0000 C   0  0  0  0  0  0  0  0  0  0  0  0
    2.7512    8.0652    0.0000 C   0  0  0  0  0  0  0  0  0  0  0  0
    2.0367    8.4777    0.0000 N   0  0  0  0  0  0  0  0  0  0  0  0
    2.0367    9.3027    0.0000 C   0  0  3  0  0  0  0  0  0  0  0  0
    1.3693    9.7876    0.0000 C   0  0  0  0  0  0  0  0  0  0  0  0
    0.5846    9.5327    0.0000 O   0  0  0  0  0  0  0  0  0  0  0  0
    1.6242   10.5722    0.0000 N   0  0  0  0  0  0  0  0  0  0  0  0
    2.4492   10.5722    0.0000 O   0  0  0  0  0  0  0  0  0  0  0  0
    2.7041    9.7876    0.0000 C   0  0  0  0  0  0  0  0  0  0  0  0
    1.1430    7.3437    0.0000 H   0  0  0  0  0  0  0  0  0  0  0  0
    4.3593    7.3437    0.0000 H   0  0  0  0  0  0  0  0  0  0  0  0
    4.3593    5.4867    0.0000 H   0  0  0  0  0  0  0  0  0  0  0  0
    1.1430    5.4867    0.0000 H   0  0  0  0  0  0  0  0  0  0  0  0
    1.8575    4.2492    0.0000 H   0  0  0  0  0  0  0  0  0  0  0  0
    4.4190    4.0135    0.0000 H   0  0  0  0  0  0  0  0  0  0  0  0
    4.4568    1.4616    0.0000 H   0  0  0  0  0  0  0  0  0  0  0  0
    1.7806    3.3735    0.0000 H   0  0  0  0  0  0  0  0  0  0  0  0
    2.6308    4.0996    0.0000 H   0  0  0  0  0  0  0  0  0  0  0  0
    3.6449    8.5812    0.0000 H   0  0  0  0  0  0  0  0  0  0  0  0
    1.0833    8.8169    0.0000 H   0  0  0  0  0  0  0  0  0  0  0  0
    1.0455   11.3687    0.0000 H   0  0  0  0  0  0  0  0  0  0  0  0
    3.7217    9.4569    0.0000 H   0  0  0  0  0  0  0  0  0  0  0  0
    2.8715    8.7308    0.0000 H   0  0  0  0  0  0  0  0  0  0  0  0
  1  2  2  0  0  0  0
  1  6  1  0  0  0  0
  1 23  1  0  0  0  0
  2  3  1  0  0  0  0
  2 15  1  0  0  0  0
  3  4  2  0  0  0  0
  3 24  1  0  0  0  0
  4  5  1  0  0  0  0
  4 25  1  0  0  0  0
  5  6  2  0  0  0  0
  5  7  1  0  0  0  0
  6 26  1  0  0  0  0
  7  8  2  0  0  0  0
  7 27  1  0  0  0  0
  8  9  1  0  0  0  0
  9 10  1  0  0  0  0
  9 14  1  0  0  0  0
  9 28  1  0  0  0  0
 10 11  2  0  0  0  0
 10 12  1  0  0  0  0
 12 13  1  0  0  0  0
 12 29  1  0  0  0  0
 13 14  1  0  0  0  0
 14 30  1  0  0  0  0
 14 31  1  0  0  0  0
 15 16  2  0  0  0  0
 15 32  1  0  0  0  0
 16 17  1  0  0  0  0
 17 18  1  0  0  0  0
 17 22  1  0  0  0  0
 17 33  1  0  0  0  0
 18 19  2  0  0  0  0
 18 20  1  0  0  0  0
 20 21  1  0  0  0  0
 20 34  1  0  0  0  0
 21 22  1  0  0  0  0
 22 35  1  0  0  0  0
 22 36  1  0  0  0  0
M  END
>  <DRUGBANK_ID>
DB12954

>  <COMMON_NAME>
Terizidone

>  <CAS_NUMBER>
25683-71-0

>  <UNII>
1199LEX5N8

>  <SYNONYMS>
Terizidone

$$$$
