
 OpenBabel10282417072D

 52 56  0  0  1  0  0  0  0  0999 V2000
    4.7812    2.1896    0.0000 C   0  0  0  0  0  0  0  0  0  0  0  0
    4.7812    1.3646    0.0000 O   0  0  0  0  0  0  0  0  0  0  0  0
    4.0668    0.9521    0.0000 C   0  0  0  0  0  0  0  0  0  0  0  0
    4.0668    0.1271    0.0000 C   0  0  0  0  0  0  0  0  0  0  0  0
    3.3523   -0.2854    0.0000 C   0  0  0  0  0  0  0  0  0  0  0  0
    2.6378    0.1271    0.0000 C   0  0  0  0  0  0  0  0  0  0  0  0
    2.6378    0.9521    0.0000 C   0  0  0  0  0  0  0  0  0  0  0  0
    3.3523    1.3646    0.0000 C   0  0  0  0  0  0  0  0  0  0  0  0
    3.3523    2.1896    0.0000 O   0  0  0  0  0  0  0  0  0  0  0  0
    2.6378    2.6021    0.0000 C   0  0  0  0  0  0  0  0  0  0  0  0
    1.9233    1.3646    0.0000 O   0  0  0  0  0  0  0  0  0  0  0  0
    1.9233    2.1896    0.0000 C   0  0  0  0  0  0  0  0  0  0  0  0
    3.3523   -1.1104    0.0000 C   0  0  2  0  0  0  0  0  0  0  0  0
    4.0668   -1.5229    0.0000 C   0  0  0  0  0  0  0  0  0  0  0  0
    4.7812   -1.1104    0.0000 C   0  0  0  0  0  0  0  0  0  0  0  0
    5.4957   -1.5229    0.0000 C   0  0  0  0  0  0  0  0  0  0  0  0
    5.4957   -2.3479    0.0000 C   0  0  0  0  0  0  0  0  0  0  0  0
    4.7812   -2.7604    0.0000 C   0  0  0  0  0  0  0  0  0  0  0  0
    4.0668   -2.3479    0.0000 C   0  0  0  0  0  0  0  0  0  0  0  0
    3.3523   -2.7604    0.0000 C   0  0  1  0  0  0  0  0  0  0  0  0
    2.6378   -2.3479    0.0000 C   0  0  2  0  0  0  0  0  0  0  0  0
    2.6378   -1.5229    0.0000 C   0  0  1  0  0  0  0  0  0  0  0  0
    1.8532   -1.2680    0.0000 C   0  0  0  0  0  0  0  0  0  0  0  0
    1.5983   -0.4834    0.0000 O   0  0  0  0  0  0  0  0  0  0  0  0
    1.3683   -1.9354    0.0000 O   0  0  0  0  0  0  0  0  0  0  0  0
    1.8532   -2.6029    0.0000 C   0  0  0  0  0  0  0  0  0  0  0  0
    3.3523   -3.5854    0.0000 O   0  0  0  0  0  0  0  0  0  0  0  0
    6.2803   -2.6029    0.0000 O   0  0  0  0  0  0  0  0  0  0  0  0
    6.7652   -1.9354    0.0000 C   0  0  0  0  0  0  0  0  0  0  0  0
    6.2803   -1.2680    0.0000 O   0  0  0  0  0  0  0  0  0  0  0  0
    5.7078    2.7246    0.0000 H   0  0  0  0  0  0  0  0  0  0  0  0
    3.8546    2.7246    0.0000 H   0  0  0  0  0  0  0  0  0  0  0  0
    4.7812    3.2596    0.0000 H   0  0  0  0  0  0  0  0  0  0  0  0
    4.9605   -0.3889    0.0000 H   0  0  0  0  0  0  0  0  0  0  0  0
    1.7441   -0.3889    0.0000 H   0  0  0  0  0  0  0  0  0  0  0  0
    2.6378    3.6721    0.0000 H   0  0  0  0  0  0  0  0  0  0  0  0
    1.7112    2.0671    0.0000 H   0  0  0  0  0  0  0  0  0  0  0  0
    1.7111    3.1371    0.0000 H   0  0  0  0  0  0  0  0  0  0  0  0
    2.8499    2.7246    0.0000 H   0  0  0  0  0  0  0  0  0  0  0  0
    0.9967    2.7246    0.0000 H   0  0  0  0  0  0  0  0  0  0  0  0
    1.9233    3.2596    0.0000 H   0  0  0  0  0  0  0  0  0  0  0  0
    4.2789   -0.5754    0.0000 H   0  0  0  0  0  0  0  0  0  0  0  0
    4.7812   -0.0784    0.0000 H   0  0  0  0  0  0  0  0  0  0  0  0
    4.7812   -3.7924    0.0000 H   0  0  0  0  0  0  0  0  0  0  0  0
    4.2789   -3.2954    0.0000 H   0  0  0  0  0  0  0  0  0  0  0  0
    2.5260   -3.4120    0.0000 H   0  0  0  0  0  0  0  0  0  0  0  0
    1.7722   -2.1518    0.0000 H   0  0  0  0  0  0  0  0  0  0  0  0
    1.5226   -3.6205    0.0000 H   0  0  0  0  0  0  0  0  0  0  0  0
    2.6098   -3.3595    0.0000 H   0  0  0  0  0  0  0  0  0  0  0  0
    2.5123   -4.0704    0.0000 H   0  0  0  0  0  0  0  0  0  0  0  0
    7.8352   -1.9354    0.0000 H   0  0  0  0  0  0  0  0  0  0  0  0
    7.2510   -0.9820    0.0000 H   0  0  0  0  0  0  0  0  0  0  0  0
  1  2  1  0  0  0  0
  1 31  1  0  0  0  0
  1 32  1  0  0  0  0
  1 33  1  0  0  0  0
  2  3  1  0  0  0  0
  3  4  2  0  0  0  0
  3  8  1  0  0  0  0
  4  5  1  0  0  0  0
  4 34  1  0  0  0  0
  5  6  2  0  0  0  0
  6  7  1  0  0  0  0
  6 35  1  0  0  0  0
  7  8  2  0  0  0  0
  7 11  1  0  0  0  0
  8  9  1  0  0  0  0
  9 10  1  0  0  0  0
 10 36  1  0  0  0  0
 10 37  1  0  0  0  0
 10 38  1  0  0  0  0
 11 12  1  0  0  0  0
 12 39  1  0  0  0  0
 12 40  1  0  0  0  0
 12 41  1  0  0  0  0
 13  5  1  0  0  0  0
 13 14  1  0  0  0  0
 13 22  1  0  0  0  0
 13 42  1  1  0  0  0
 14 15  2  0  0  0  0
 14 19  1  0  0  0  0
 15 16  1  0  0  0  0
 15 43  1  0  0  0  0
 16 17  2  0  0  0  0
 16 30  1  0  0  0  0
 17 18  1  0  0  0  0
 17 28  1  0  0  0  0
 18 19  2  0  0  0  0
 18 44  1  0  0  0  0
 19 20  1  0  0  0  0
 20 21  1  0  0  0  0
 20 27  1  0  0  0  0
 20 45  1  1  0  0  0
 21 22  1  0  0  0  0
 21 26  1  0  0  0  0
 21 46  1  6  0  0  0
 22 23  1  0  0  0  0
 22 47  1  6  0  0  0
 23 24  2  0  0  0  0
 23 25  1  0  0  0  0
 25 26  1  0  0  0  0
 26 48  1  0  0  0  0
 26 49  1  0  0  0  0
 27 50  1  0  0  0  0
 28 29  1  0  0  0  0
 29 30  1  0  0  0  0
 29 51  1  0  0  0  0
 29 52  1  0  0  0  0
M  END
>  <DRUGBANK_ID>
DB12802

>  <COMMON_NAME>
Picropodophyllin

>  <CAS_NUMBER>
477-47-4

>  <UNII>
0F35AOI227

$$$$
