
 OpenBabel10282417072D

 45 47  0  0  0  0  0  0  0  0999 V2000
   -2.3649   -4.9661    0.0000 Cl  0  0  0  0  0  0  0  0  0  0  0  0
    1.8748    4.1815    0.0000 S   0  0  0  0  0  0  0  0  0  0  0  0
   -0.2214   -2.0785    0.0000 N   0  0  0  0  0  0  0  0  0  0  0  0
    0.4929    2.4590    0.0000 N   0  0  0  0  0  0  0  0  0  0  0  0
    1.9220    2.4590    0.0000 N   0  0  0  0  0  0  0  0  0  0  0  0
    0.4929   -0.8410    0.0000 C   0  0  0  0  0  0  0  0  0  0  0  0
   -0.2214   -1.2535    0.0000 C   0  0  0  0  0  0  0  0  0  0  0  0
    0.4929   -0.0160    0.0000 C   0  0  0  0  0  0  0  0  0  0  0  0
   -0.9359   -2.4910    0.0000 C   0  0  0  0  0  0  0  0  0  0  0  0
   -0.9359   -3.3160    0.0000 C   0  0  0  0  0  0  0  0  0  0  0  0
   -0.2214    0.3965    0.0000 C   0  0  0  0  0  0  0  0  0  0  0  0
    1.2074    0.3965    0.0000 C   0  0  0  0  0  0  0  0  0  0  0  0
   -0.2214    1.2215    0.0000 C   0  0  0  0  0  0  0  0  0  0  0  0
    1.2074    1.2215    0.0000 C   0  0  0  0  0  0  0  0  0  0  0  0
    0.4929    1.6340    0.0000 C   0  0  0  0  0  0  0  0  0  0  0  0
   -1.6504   -3.7285    0.0000 C   0  0  0  0  0  0  0  0  0  0  0  0
   -0.2214   -3.7285    0.0000 C   0  0  0  0  0  0  0  0  0  0  0  0
   -1.6504   -4.5536    0.0000 C   0  0  0  0  0  0  0  0  0  0  0  0
   -0.2214   -4.5536    0.0000 C   0  0  0  0  0  0  0  0  0  0  0  0
   -0.9359   -4.9661    0.0000 C   0  0  0  0  0  0  0  0  0  0  0  0
    1.2074    2.8715    0.0000 C   0  0  0  0  0  0  0  0  0  0  0  0
    1.2074    3.6965    0.0000 C   0  0  0  0  0  0  0  0  0  0  0  0
    0.5400    4.1815    0.0000 C   0  0  0  0  0  0  0  0  0  0  0  0
    0.7949    4.9661    0.0000 C   0  0  0  0  0  0  0  0  0  0  0  0
    1.6199    4.9661    0.0000 C   0  0  0  0  0  0  0  0  0  0  0  0
    0.2214   -2.3343    0.0000 H   0  0  0  0  0  0  0  0  0  0  0  0
    2.3649    2.7148    0.0000 H   0  0  0  0  0  0  0  0  0  0  0  0
    1.9220    1.9475    0.0000 H   0  0  0  0  0  0  0  0  0  0  0  0
    1.4196   -1.3760    0.0000 H   0  0  0  0  0  0  0  0  0  0  0  0
    1.4195   -0.3060    0.0000 H   0  0  0  0  0  0  0  0  0  0  0  0
   -1.1481   -0.7185    0.0000 H   0  0  0  0  0  0  0  0  0  0  0  0
   -0.2215   -0.1835    0.0000 H   0  0  0  0  0  0  0  0  0  0  0  0
   -1.8625   -1.9560    0.0000 H   0  0  0  0  0  0  0  0  0  0  0  0
   -1.8625   -3.0260    0.0000 H   0  0  0  0  0  0  0  0  0  0  0  0
   -1.1152   -0.1195    0.0000 H   0  0  0  0  0  0  0  0  0  0  0  0
    2.1011   -0.1195    0.0000 H   0  0  0  0  0  0  0  0  0  0  0  0
   -1.1152    1.7375    0.0000 H   0  0  0  0  0  0  0  0  0  0  0  0
    2.1011    1.7375    0.0000 H   0  0  0  0  0  0  0  0  0  0  0  0
   -2.5441   -3.2125    0.0000 H   0  0  0  0  0  0  0  0  0  0  0  0
    0.6723   -3.2125    0.0000 H   0  0  0  0  0  0  0  0  0  0  0  0
    0.6723   -5.0696    0.0000 H   0  0  0  0  0  0  0  0  0  0  0  0
   -0.9359   -5.9981    0.0000 H   0  0  0  0  0  0  0  0  0  0  0  0
   -0.4415    3.8626    0.0000 H   0  0  0  0  0  0  0  0  0  0  0  0
    0.1883    5.8010    0.0000 H   0  0  0  0  0  0  0  0  0  0  0  0
    2.2265    5.8010    0.0000 H   0  0  0  0  0  0  0  0  0  0  0  0
  1 18  1  0  0  0  0
  2 22  1  0  0  0  0
  2 25  1  0  0  0  0
  3  7  1  0  0  0  0
  3  9  1  0  0  0  0
  3 26  1  0  0  0  0
  4 15  1  0  0  0  0
  4 21  2  0  0  0  0
  5 21  1  0  0  0  0
  5 27  1  0  0  0  0
  5 28  1  0  0  0  0
  6  7  1  0  0  0  0
  6  8  1  0  0  0  0
  6 29  1  0  0  0  0
  6 30  1  0  0  0  0
  7 31  1  0  0  0  0
  7 32  1  0  0  0  0
  8 11  2  0  0  0  0
  8 12  1  0  0  0  0
  9 10  1  0  0  0  0
  9 33  1  0  0  0  0
  9 34  1  0  0  0  0
 10 16  2  0  0  0  0
 10 17  1  0  0  0  0
 11 13  1  0  0  0  0
 11 35  1  0  0  0  0
 12 14  2  0  0  0  0
 12 36  1  0  0  0  0
 13 15  2  0  0  0  0
 13 37  1  0  0  0  0
 14 15  1  0  0  0  0
 14 38  1  0  0  0  0
 16 18  1  0  0  0  0
 16 39  1  0  0  0  0
 17 19  2  0  0  0  0
 17 40  1  0  0  0  0
 18 20  2  0  0  0  0
 19 20  1  0  0  0  0
 19 41  1  0  0  0  0
 20 42  1  0  0  0  0
 21 22  1  0  0  0  0
 22 23  2  0  0  0  0
 23 24  1  0  0  0  0
 23 43  1  0  0  0  0
 24 25  2  0  0  0  0
 24 44  1  0  0  0  0
 25 45  1  0  0  0  0
M  END
>  <DRUGBANK_ID>
DB03449

>  <SECONDARY_ACCESSION_NUMBERS>
EXPT00560

>  <COMMON_NAME>
N-(4-{2-[(3-chlorobenzyl)amino]ethyl}phenyl)thiophene-2-carboximidamide

$$$$
