
 OpenBabel10282417072D

184188  0  0  1  0  0  0  0  0999 V2000
    4.2868    7.0599    0.0000 C   0  0  0  0  0  0  0  0  0  0  0  0
    3.6331    6.5566    0.0000 C   0  0  2  0  0  0  0  0  0  0  0  0
    3.7420    5.7389    0.0000 C   0  0  1  0  0  0  0  0  0  0  0  0
    4.3958    6.2421    0.0000 C   0  0  0  0  0  0  0  0  0  0  0  0
    4.7883    6.9677    0.0000 O   0  0  0  0  0  0  0  0  0  0  0  0
    5.1585    5.9276    0.0000 N   0  0  0  0  0  0  0  0  0  0  0  0
    5.2674    5.1098    0.0000 C   0  0  1  0  0  0  0  0  0  0  0  0
    4.6137    4.6066    0.0000 C   0  0  0  0  0  0  0  0  0  0  0  0
    4.7226    3.7888    0.0000 S   0  0  0  0  0  0  0  0  0  0  0  0
    4.0689    3.2855    0.0000 S   0  0  0  0  0  0  0  0  0  0  0  0
    4.1779    2.4678    0.0000 C   0  0  0  0  0  0  0  0  0  0  0  0
    3.5241    1.9645    0.0000 C   0  0  1  0  0  0  0  0  0  0  0  0
    3.6331    1.1468    0.0000 C   0  0  0  0  0  0  0  0  0  0  0  0
    4.3958    0.8322    0.0000 O   0  0  0  0  0  0  0  0  0  0  0  0
    2.9794    0.6435    0.0000 N   0  0  0  0  0  0  0  0  0  0  0  0
    2.2167    0.9580    0.0000 C   0  0  2  0  0  0  0  0  0  0  0  0
    2.1077    1.7758    0.0000 C   0  0  0  0  0  0  0  0  0  0  0  0
    2.7614    2.2791    0.0000 O   0  0  0  0  0  0  0  0  0  0  0  0
    1.3450    2.0903    0.0000 N   0  0  0  0  0  0  0  0  0  0  0  0
    1.2361    2.9081    0.0000 C   0  0  1  0  0  0  0  0  0  0  0  0
    1.8898    3.4114    0.0000 C   0  0  0  0  0  0  0  0  0  0  0  0
    2.6525    3.0968    0.0000 O   0  0  0  0  0  0  0  0  0  0  0  0
    1.7808    4.2291    0.0000 N   0  0  0  0  0  0  0  0  0  0  0  0
    2.4346    4.7324    0.0000 C   0  0  2  0  0  0  0  0  0  0  0  0
    2.3256    5.5502    0.0000 C   0  0  0  0  0  0  0  0  0  0  0  0
    1.8935    6.2529    0.0000 O   0  0  0  0  0  0  0  0  0  0  0  0
    2.9794    6.0534    0.0000 N   0  0  0  0  0  0  0  0  0  0  0  0
    1.6719    5.0469    0.0000 C   0  0  0  0  0  0  0  0  0  0  0  0
    1.5629    5.8647    0.0000 C   0  0  0  0  0  0  0  0  0  0  0  0
    0.8002    6.1792    0.0000 C   0  0  0  0  0  0  0  0  0  0  0  0
    0.6913    6.9970    0.0000 C   0  0  0  0  0  0  0  0  0  0  0  0
   -0.0714    7.3115    0.0000 N   0  0  0  0  0  0  0  0  0  0  0  0
    0.4734    3.2226    0.0000 C   0  0  0  0  0  0  0  0  0  0  0  0
   -0.1804    2.7194    0.0000 C   0  0  0  0  0  0  0  0  0  0  0  0
   -0.1575    1.8947    0.0000 C   0  0  0  0  0  0  0  0  0  0  0  0
   -0.9347    1.6181    0.0000 N   0  0  0  0  0  0  0  0  0  0  0  0
   -1.4380    2.2718    0.0000 C   0  0  0  0  0  0  0  0  0  0  0  0
   -0.9718    2.9525    0.0000 C   0  0  0  0  0  0  0  0  0  0  0  0
   -1.3281    3.6966    0.0000 C   0  0  0  0  0  0  0  0  0  0  0  0
   -2.1506    3.7600    0.0000 C   0  0  0  0  0  0  0  0  0  0  0  0
   -2.6169    3.0794    0.0000 C   0  0  0  0  0  0  0  0  0  0  0  0
   -2.2605    2.3353    0.0000 C   0  0  0  0  0  0  0  0  0  0  0  0
    1.5629    0.4548    0.0000 C   0  0  0  0  0  0  0  0  0  0  0  0
    1.6719   -0.3630    0.0000 C   0  0  0  0  0  0  0  0  0  0  0  0
    2.4346   -0.6775    0.0000 C   0  0  0  0  0  0  0  0  0  0  0  0
    2.5435   -1.4953    0.0000 C   0  0  0  0  0  0  0  0  0  0  0  0
    1.8898   -1.9985    0.0000 C   0  0  0  0  0  0  0  0  0  0  0  0
    1.1271   -1.6840    0.0000 C   0  0  0  0  0  0  0  0  0  0  0  0
    1.0182   -0.8662    0.0000 C   0  0  0  0  0  0  0  0  0  0  0  0
    4.2868    1.6500    0.0000 N   0  0  0  0  0  0  0  0  0  0  0  0
    4.9406    2.1532    0.0000 C   0  0  0  0  0  0  0  0  0  0  0  0
    4.8316    2.9710    0.0000 O   0  0  0  0  0  0  0  0  0  0  0  0
    5.7033    1.8387    0.0000 C   0  0  1  0  0  0  0  0  0  0  0  0
    5.8122    1.0209    0.0000 C   0  0  0  0  0  0  0  0  0  0  0  0
    6.5749    0.7064    0.0000 C   0  0  0  0  0  0  0  0  0  0  0  0
    7.2286    1.2097    0.0000 C   0  0  0  0  0  0  0  0  0  0  0  0
    7.9913    0.8951    0.0000 C   0  0  0  0  0  0  0  0  0  0  0  0
    8.1003    0.0774    0.0000 C   0  0  0  0  0  0  0  0  0  0  0  0
    7.4465   -0.4259    0.0000 C   0  0  0  0  0  0  0  0  0  0  0  0
    6.6839   -0.1114    0.0000 C   0  0  0  0  0  0  0  0  0  0  0  0
    6.3570    2.3420    0.0000 N   0  0  0  0  0  0  0  0  0  0  0  0
    7.1197    2.0274    0.0000 C   0  0  0  0  0  0  0  0  0  0  0  0
    7.6885    1.4299    0.0000 O   0  0  0  0  0  0  0  0  0  0  0  0
    7.7734    2.5307    0.0000 C   0  0  0  0  0  0  0  0  0  0  0  0
    8.5361    2.2162    0.0000 N   0  0  0  0  0  0  0  0  0  0  0  0
    9.1898    2.7194    0.0000 C   0  0  0  0  0  0  0  0  0  0  0  0
    9.9525    2.4049    0.0000 C   0  0  0  0  0  0  0  0  0  0  0  0
   10.6063    2.9081    0.0000 N   0  0  0  0  0  0  0  0  0  0  0  0
   11.3690    2.5936    0.0000 C   0  0  0  0  0  0  0  0  0  0  0  0
   12.0227    3.0968    0.0000 C   0  0  0  0  0  0  0  0  0  0  0  0
   12.7854    2.7823    0.0000 N   0  0  0  0  0  0  0  0  0  0  0  0
   13.4391    3.2855    0.0000 C   0  0  0  0  0  0  0  0  0  0  0  0
   13.3302    4.1033    0.0000 C   0  0  0  0  0  0  0  0  0  0  0  0
   12.5675    4.4178    0.0000 O   0  0  0  0  0  0  0  0  0  0  0  0
   13.9839    4.6066    0.0000 O   0  0  0  0  0  0  0  0  0  0  0  0
   12.8943    1.9645    0.0000 C   0  0  0  0  0  0  0  0  0  0  0  0
   13.6570    1.6500    0.0000 C   0  0  0  0  0  0  0  0  0  0  0  0
   14.3108    2.1532    0.0000 O   0  0  0  0  0  0  0  0  0  0  0  0
   13.7660    0.8322    0.0000 O   0  0  0  0  0  0  0  0  0  0  0  0
   10.4973    3.7259    0.0000 C   0  0  0  0  0  0  0  0  0  0  0  0
   11.1510    4.2291    0.0000 C   0  0  0  0  0  0  0  0  0  0  0  0
   11.0421    5.0469    0.0000 O   0  0  0  0  0  0  0  0  0  0  0  0
   11.9137    3.9146    0.0000 O   0  0  0  0  0  0  0  0  0  0  0  0
    8.6451    1.3984    0.0000 C   0  0  0  0  0  0  0  0  0  0  0  0
    9.4077    1.0838    0.0000 C   0  0  0  0  0  0  0  0  0  0  0  0
   10.0615    1.5871    0.0000 O   0  0  0  0  0  0  0  0  0  0  0  0
    9.5167    0.2661    0.0000 O   0  0  0  0  0  0  0  0  0  0  0  0
    6.0301    4.7953    0.0000 C   0  0  0  0  0  0  0  0  0  0  0  0
    6.1391    3.9775    0.0000 O   0  0  0  0  0  0  0  0  0  0  0  0
    6.6839    5.2985    0.0000 N   0  0  0  0  0  0  0  0  0  0  0  0
    7.4465    4.9840    0.0000 C   0  0  2  0  0  0  0  0  0  0  0  0
    7.5555    4.1662    0.0000 C   0  0  0  0  0  0  0  0  0  0  0  0
    8.3182    3.8517    0.0000 O   0  0  0  0  0  0  0  0  0  0  0  0
    8.1003    5.4872    0.0000 C   0  0  1  0  0  0  0  0  0  0  0  0
    7.9913    6.3050    0.0000 C   0  0  0  0  0  0  0  0  0  0  0  0
    8.8630    5.1727    0.0000 O   0  0  0  0  0  0  0  0  0  0  0  0
    2.8704    6.8712    0.0000 O   0  0  0  0  0  0  0  0  0  0  0  0
    5.2760    6.6520    0.0000 H   0  0  0  0  0  0  0  0  0  0  0  0
    4.1454    8.1205    0.0000 H   0  0  0  0  0  0  0  0  0  0  0  0
    5.1346    7.7127    0.0000 H   0  0  0  0  0  0  0  0  0  0  0  0
    4.6223    6.1487    0.0000 H   0  0  0  0  0  0  0  0  0  0  0  0
    4.1500    6.7281    0.0000 H   0  0  0  0  0  0  0  0  0  0  0  0
    5.9386    6.5281    0.0000 H   0  0  0  0  0  0  0  0  0  0  0  0
    6.1153    5.7625    0.0000 H   0  0  0  0  0  0  0  0  0  0  0  0
    3.6245    5.0146    0.0000 H   0  0  0  0  0  0  0  0  0  0  0  0
    3.7658    3.9540    0.0000 H   0  0  0  0  0  0  0  0  0  0  0  0
    5.1671    2.0599    0.0000 H   0  0  0  0  0  0  0  0  0  0  0  0
    4.3192    1.4072    0.0000 H   0  0  0  0  0  0  0  0  0  0  0  0
    4.5847    2.1058    0.0000 H   0  0  0  0  0  0  0  0  0  0  0  0
    3.1095   -0.3324    0.0000 H   0  0  0  0  0  0  0  0  0  0  0  0
    2.3580   -0.1026    0.0000 H   0  0  0  0  0  0  0  0  0  0  0  0
    0.5649    1.4898    0.0000 H   0  0  0  0  0  0  0  0  0  0  0  0
    0.3882    2.2554    0.0000 H   0  0  0  0  0  0  0  0  0  0  0  0
    0.8706    4.6044    0.0000 H   0  0  0  0  0  0  0  0  0  0  0  0
    1.3740    4.5911    0.0000 H   0  0  0  0  0  0  0  0  0  0  0  0
    2.8494    7.0293    0.0000 H   0  0  0  0  0  0  0  0  0  0  0  0
    0.8241    4.3942    0.0000 H   0  0  0  0  0  0  0  0  0  0  0  0
    0.6827    5.4548    0.0000 H   0  0  0  0  0  0  0  0  0  0  0  0
    2.4107    6.5174    0.0000 H   0  0  0  0  0  0  0  0  0  0  0  0
    1.4215    6.9253    0.0000 H   0  0  0  0  0  0  0  0  0  0  0  0
   -0.0477    5.5265    0.0000 H   0  0  0  0  0  0  0  0  0  0  0  0
   -0.1890    6.5872    0.0000 H   0  0  0  0  0  0  0  0  0  0  0  0
    1.5392    7.6497    0.0000 H   0  0  0  0  0  0  0  0  0  0  0  0
    0.5500    8.0576    0.0000 H   0  0  0  0  0  0  0  0  0  0  0  0
   -0.2061    8.3226    0.0000 H   0  0  0  0  0  0  0  0  0  0  0  0
   -0.8796    6.6893    0.0000 H   0  0  0  0  0  0  0  0  0  0  0  0
    0.3321    4.2832    0.0000 H   0  0  0  0  0  0  0  0  0  0  0  0
   -0.5158    3.6306    0.0000 H   0  0  0  0  0  0  0  0  0  0  0  0
    0.6939    1.3115    0.0000 H   0  0  0  0  0  0  0  0  0  0  0  0
   -1.2128    0.6737    0.0000 H   0  0  0  0  0  0  0  0  0  0  0  0
   -0.7449    4.5480    0.0000 H   0  0  0  0  0  0  0  0  0  0  0  0
   -2.5963    4.6908    0.0000 H   0  0  0  0  0  0  0  0  0  0  0  0
   -3.6458    3.1588    0.0000 H   0  0  0  0  0  0  0  0  0  0  0  0
   -2.8437    1.4839    0.0000 H   0  0  0  0  0  0  0  0  0  0  0  0
    0.5737    0.8628    0.0000 H   0  0  0  0  0  0  0  0  0  0  0  0
    0.7150   -0.1979    0.0000 H   0  0  0  0  0  0  0  0  0  0  0  0
    3.2524   -0.0480    0.0000 H   0  0  0  0  0  0  0  0  0  0  0  0
    3.4975   -1.8888    0.0000 H   0  0  0  0  0  0  0  0  0  0  0  0
    2.0261   -3.0215    0.0000 H   0  0  0  0  0  0  0  0  0  0  0  0
    0.3093   -2.3135    0.0000 H   0  0  0  0  0  0  0  0  0  0  0  0
    0.0642   -0.4727    0.0000 H   0  0  0  0  0  0  0  0  0  0  0  0
    4.4168    0.6741    0.0000 H   0  0  0  0  0  0  0  0  0  0  0  0
    5.5619    2.8993    0.0000 H   0  0  0  0  0  0  0  0  0  0  0  0
    4.9643    0.3682    0.0000 H   0  0  0  0  0  0  0  0  0  0  0  0
    5.9535   -0.0397    0.0000 H   0  0  0  0  0  0  0  0  0  0  0  0
    7.0923    2.2327    0.0000 H   0  0  0  0  0  0  0  0  0  0  0  0
    8.8091    1.5246    0.0000 H   0  0  0  0  0  0  0  0  0  0  0  0
    9.0544   -0.3160    0.0000 H   0  0  0  0  0  0  0  0  0  0  0  0
    7.5828   -1.4489    0.0000 H   0  0  0  0  0  0  0  0  0  0  0  0
    5.8661   -0.7409    0.0000 H   0  0  0  0  0  0  0  0  0  0  0  0
    6.2270    3.3179    0.0000 H   0  0  0  0  0  0  0  0  0  0  0  0
    7.6320    3.5913    0.0000 H   0  0  0  0  0  0  0  0  0  0  0  0
    8.6212    3.1834    0.0000 H   0  0  0  0  0  0  0  0  0  0  0  0
    9.0485    3.7800    0.0000 H   0  0  0  0  0  0  0  0  0  0  0  0
   10.0377    3.3721    0.0000 H   0  0  0  0  0  0  0  0  0  0  0  0
   10.0938    1.3443    0.0000 H   0  0  0  0  0  0  0  0  0  0  0  0
   10.9417    1.9969    0.0000 H   0  0  0  0  0  0  0  0  0  0  0  0
   11.5103    1.5330    0.0000 H   0  0  0  0  0  0  0  0  0  0  0  0
   12.3582    2.1857    0.0000 H   0  0  0  0  0  0  0  0  0  0  0  0
   11.8814    4.1574    0.0000 H   0  0  0  0  0  0  0  0  0  0  0  0
   12.8706    3.7495    0.0000 H   0  0  0  0  0  0  0  0  0  0  0  0
   14.4283    2.8775    0.0000 H   0  0  0  0  0  0  0  0  0  0  0  0
   14.2870    3.9381    0.0000 H   0  0  0  0  0  0  0  0  0  0  0  0
   14.8502    4.2494    0.0000 H   0  0  0  0  0  0  0  0  0  0  0  0
   12.0464    1.3118    0.0000 H   0  0  0  0  0  0  0  0  0  0  0  0
   13.0356    0.9039    0.0000 H   0  0  0  0  0  0  0  0  0  0  0  0
   13.0235    0.2606    0.0000 H   0  0  0  0  0  0  0  0  0  0  0  0
    9.5081    4.1338    0.0000 H   0  0  0  0  0  0  0  0  0  0  0  0
   10.3560    4.7865    0.0000 H   0  0  0  0  0  0  0  0  0  0  0  0
   12.0375    2.9858    0.0000 H   0  0  0  0  0  0  0  0  0  0  0  0
    7.7972    0.7457    0.0000 H   0  0  0  0  0  0  0  0  0  0  0  0
    8.7863    0.3378    0.0000 H   0  0  0  0  0  0  0  0  0  0  0  0
    8.7743   -0.3055    0.0000 H   0  0  0  0  0  0  0  0  0  0  0  0
    6.5539    6.2744    0.0000 H   0  0  0  0  0  0  0  0  0  0  0  0
    6.5986    4.3313    0.0000 H   0  0  0  0  0  0  0  0  0  0  0  0
    6.7077    3.5135    0.0000 H   0  0  0  0  0  0  0  0  0  0  0  0
    7.6969    3.1056    0.0000 H   0  0  0  0  0  0  0  0  0  0  0  0
    8.4463    2.8902    0.0000 H   0  0  0  0  0  0  0  0  0  0  0  0
    8.2416    4.4266    0.0000 H   0  0  0  0  0  0  0  0  0  0  0  0
    8.8391    6.9577    0.0000 H   0  0  0  0  0  0  0  0  0  0  0  0
    7.0021    6.7129    0.0000 H   0  0  0  0  0  0  0  0  0  0  0  0
    7.8499    7.3656    0.0000 H   0  0  0  0  0  0  0  0  0  0  0  0
    8.9911    4.2112    0.0000 H   0  0  0  0  0  0  0  0  0  0  0  0
    2.7424    7.8327    0.0000 H   0  0  0  0  0  0  0  0  0  0  0  0
  1  2  1  0  0  0  0
  1 98  1  0  0  0  0
  1 99  1  0  0  0  0
  1100  1  0  0  0  0
  2 97  1  0  0  0  0
  2101  1  1  0  0  0
  3  2  1  0  0  0  0
  3  4  1  0  0  0  0
  3 27  1  0  0  0  0
  3102  1  6  0  0  0
  4  5  2  0  0  0  0
  4  6  1  0  0  0  0
  6  7  1  0  0  0  0
  6103  1  0  0  0  0
  7  8  1  0  0  0  0
  7 88  1  0  0  0  0
  7104  1  1  0  0  0
  8  9  1  0  0  0  0
  8105  1  0  0  0  0
  8106  1  0  0  0  0
  9 10  1  0  0  0  0
 10 11  1  0  0  0  0
 11 12  1  0  0  0  0
 11107  1  0  0  0  0
 11108  1  0  0  0  0
 12 13  1  0  0  0  0
 12 50  1  0  0  0  0
 12109  1  1  0  0  0
 13 14  2  0  0  0  0
 13 15  1  0  0  0  0
 15 16  1  0  0  0  0
 15110  1  0  0  0  0
 16 17  1  0  0  0  0
 16 43  1  0  0  0  0
 16111  1  6  0  0  0
 17 18  2  0  0  0  0
 17 19  1  0  0  0  0
 19 20  1  0  0  0  0
 19112  1  0  0  0  0
 20 21  1  0  0  0  0
 20 33  1  0  0  0  0
 20113  1  1  0  0  0
 21 22  2  0  0  0  0
 21 23  1  0  0  0  0
 23 24  1  0  0  0  0
 23114  1  0  0  0  0
 24 25  1  0  0  0  0
 24 28  1  0  0  0  0
 24115  1  6  0  0  0
 25 26  2  0  0  0  0
 25 27  1  0  0  0  0
 27116  1  0  0  0  0
 28 29  1  0  0  0  0
 28117  1  0  0  0  0
 28118  1  0  0  0  0
 29 30  1  0  0  0  0
 29119  1  0  0  0  0
 29120  1  0  0  0  0
 30 31  1  0  0  0  0
 30121  1  0  0  0  0
 30122  1  0  0  0  0
 31 32  1  0  0  0  0
 31123  1  0  0  0  0
 31124  1  0  0  0  0
 32125  1  0  0  0  0
 32126  1  0  0  0  0
 33 34  1  0  0  0  0
 33127  1  0  0  0  0
 33128  1  0  0  0  0
 34 35  2  0  0  0  0
 34 38  1  0  0  0  0
 35 36  1  0  0  0  0
 35129  1  0  0  0  0
 36 37  1  0  0  0  0
 36130  1  0  0  0  0
 37 38  1  0  0  0  0
 37 42  2  0  0  0  0
 38 39  2  0  0  0  0
 39 40  1  0  0  0  0
 39131  1  0  0  0  0
 40 41  2  0  0  0  0
 40132  1  0  0  0  0
 41 42  1  0  0  0  0
 41133  1  0  0  0  0
 42134  1  0  0  0  0
 43 44  1  0  0  0  0
 43135  1  0  0  0  0
 43136  1  0  0  0  0
 44 45  2  0  0  0  0
 44 49  1  0  0  0  0
 45 46  1  0  0  0  0
 45137  1  0  0  0  0
 46 47  2  0  0  0  0
 46138  1  0  0  0  0
 47 48  1  0  0  0  0
 47139  1  0  0  0  0
 48 49  2  0  0  0  0
 48140  1  0  0  0  0
 49141  1  0  0  0  0
 50 51  1  0  0  0  0
 50142  1  0  0  0  0
 51 52  2  0  0  0  0
 51 53  1  0  0  0  0
 53 54  1  0  0  0  0
 53 61  1  0  0  0  0
 53143  1  1  0  0  0
 54 55  1  0  0  0  0
 54144  1  0  0  0  0
 54145  1  0  0  0  0
 55 56  2  0  0  0  0
 55 60  1  0  0  0  0
 56 57  1  0  0  0  0
 56146  1  0  0  0  0
 57 58  2  0  0  0  0
 57147  1  0  0  0  0
 58 59  1  0  0  0  0
 58148  1  0  0  0  0
 59 60  2  0  0  0  0
 59149  1  0  0  0  0
 60150  1  0  0  0  0
 61 62  1  0  0  0  0
 61151  1  0  0  0  0
 62 63  2  0  0  0  0
 62 64  1  0  0  0  0
 64 65  1  0  0  0  0
 64152  1  0  0  0  0
 64153  1  0  0  0  0
 65 66  1  0  0  0  0
 65 84  1  0  0  0  0
 66 67  1  0  0  0  0
 66154  1  0  0  0  0
 66155  1  0  0  0  0
 67 68  1  0  0  0  0
 67156  1  0  0  0  0
 67157  1  0  0  0  0
 68 69  1  0  0  0  0
 68 80  1  0  0  0  0
 69 70  1  0  0  0  0
 69158  1  0  0  0  0
 69159  1  0  0  0  0
 70 71  1  0  0  0  0
 70160  1  0  0  0  0
 70161  1  0  0  0  0
 71 72  1  0  0  0  0
 71 76  1  0  0  0  0
 72 73  1  0  0  0  0
 72162  1  0  0  0  0
 72163  1  0  0  0  0
 73 74  2  0  0  0  0
 73 75  1  0  0  0  0
 75164  1  0  0  0  0
 76 77  1  0  0  0  0
 76165  1  0  0  0  0
 76166  1  0  0  0  0
 77 78  2  0  0  0  0
 77 79  1  0  0  0  0
 79167  1  0  0  0  0
 80 81  1  0  0  0  0
 80168  1  0  0  0  0
 80169  1  0  0  0  0
 81 82  2  0  0  0  0
 81 83  1  0  0  0  0
 83170  1  0  0  0  0
 84 85  1  0  0  0  0
 84171  1  0  0  0  0
 84172  1  0  0  0  0
 85 86  2  0  0  0  0
 85 87  1  0  0  0  0
 87173  1  0  0  0  0
 88 89  2  0  0  0  0
 88 90  1  0  0  0  0
 90174  1  0  0  0  0
 91 90  1  0  0  0  0
 91 92  1  0  0  0  0
 91 94  1  0  0  0  0
 91175  1  6  0  0  0
 92 93  1  0  0  0  0
 92176  1  0  0  0  0
 92177  1  0  0  0  0
 93178  1  0  0  0  0
 94 95  1  0  0  0  0
 94 96  1  0  0  0  0
 94179  1  6  0  0  0
 95180  1  0  0  0  0
 95181  1  0  0  0  0
 95182  1  0  0  0  0
 96183  1  0  0  0  0
 97184  1  0  0  0  0
M  END
>  <DRUGBANK_ID>
DB12602

>  <COMMON_NAME>
Pentetreotide

>  <CAS_NUMBER>
138661-02-6

>  <UNII>
G083B71P98

>  <SYNONYMS>
Pentetreotida; Pentetreotide

$$$$
