
 OpenBabel10282417072D

 32 34  0  0  0  0  0  0  0  0999 V2000
    1.4058    0.8060    0.0000 N   0  0  0  0  0  0  0  0  0  0  0  0
    0.6908    1.2151    0.0000 C   0  0  0  0  0  0  0  0  0  0  0  0
    1.4162   -1.0088    0.0000 C   0  0  2  0  0  0  0  0  0  0  0  0
    2.1242    1.2220    0.0000 C   0  0  0  0  0  0  0  0  0  0  0  0
    0.6874    2.0469    0.0000 C   0  0  0  0  0  0  0  0  0  0  0  0
   -0.0240    0.8060    0.0000 C   0  0  0  0  0  0  0  0  0  0  0  0
    0.3884   -0.4348    0.0000 O   0  0  0  0  0  0  0  0  0  0  0  0
    1.0174   -1.7891    0.0000 C   0  0  1  0  0  0  0  0  0  0  0  0
    2.1209    2.0538    0.0000 N   0  0  0  0  0  0  0  0  0  0  0  0
   -0.0275    2.4559    0.0000 C   0  0  0  0  0  0  0  0  0  0  0  0
   -0.7355    1.2185    0.0000 C   0  0  0  0  0  0  0  0  0  0  0  0
   -0.6393   -1.0088    0.0000 C   0  0  1  0  0  0  0  0  0  0  0  0
   -0.2577   -1.7891    0.0000 C   0  0  1  0  0  0  0  0  0  0  0  0
    1.2375   -2.4559    0.0000 O   0  0  0  0  0  0  0  0  0  0  0  0
   -0.7355    2.0435    0.0000 C   0  0  0  0  0  0  0  0  0  0  0  0
   -1.4505    0.8095    0.0000 Cl  0  0  0  0  0  0  0  0  0  0  0  0
   -1.2511   -0.4898    0.0000 C   0  0  0  0  0  0  0  0  0  0  0  0
   -0.5396   -2.4559    0.0000 O   0  0  0  0  0  0  0  0  0  0  0  0
   -1.4470    2.4559    0.0000 Cl  0  0  0  0  0  0  0  0  0  0  0  0
   -2.1242   -0.8610    0.0000 O   0  0  0  0  0  0  0  0  0  0  0  0
    0.8720   -0.0875    0.0000 H   0  0  0  0  0  0  0  0  0  0  0  0
    3.0193    0.7083    0.0000 H   0  0  0  0  0  0  0  0  0  0  0  0
   -0.0269   -0.2260    0.0000 H   0  0  0  0  0  0  0  0  0  0  0  0
    2.0842   -1.8712    0.0000 H   0  0  0  0  0  0  0  0  0  0  0  0
   -0.0315    3.4879    0.0000 H   0  0  0  0  0  0  0  0  0  0  0  0
   -0.5356    0.0562    0.0000 H   0  0  0  0  0  0  0  0  0  0  0  0
    0.3335   -2.6809    0.0000 H   0  0  0  0  0  0  0  0  0  0  0  0
    0.5918   -3.1798    0.0000 H   0  0  0  0  0  0  0  0  0  0  0  0
   -1.0904    0.5681    0.0000 H   0  0  0  0  0  0  0  0  0  0  0  0
   -2.0965    0.1660    0.0000 H   0  0  0  0  0  0  0  0  0  0  0  0
   -1.5022   -2.5755    0.0000 H   0  0  0  0  0  0  0  0  0  0  0  0
   -2.8992   -0.2777    0.0000 H   0  0  0  0  0  0  0  0  0  0  0  0
  1  2  1  0  0  0  0
  1  4  1  0  0  0  0
  2  5  1  0  0  0  0
  2  6  2  0  0  0  0
  3  1  1  0  0  0  0
  3  7  1  0  0  0  0
  3  8  1  0  0  0  0
  3 21  1  6  0  0  0
  4  9  2  0  0  0  0
  4 22  1  0  0  0  0
  5 10  2  0  0  0  0
  5  9  1  0  0  0  0
  6 11  1  0  0  0  0
  6 23  1  0  0  0  0
  7 12  1  0  0  0  0
  8 13  1  0  0  0  0
  8 14  1  0  0  0  0
  8 24  1  1  0  0  0
 10 15  1  0  0  0  0
 10 25  1  0  0  0  0
 11 16  1  0  0  0  0
 11 15  2  0  0  0  0
 12 17  1  0  0  0  0
 12 13  1  0  0  0  0
 12 26  1  6  0  0  0
 13 18  1  0  0  0  0
 13 27  1  1  0  0  0
 14 28  1  0  0  0  0
 15 19  1  0  0  0  0
 17 20  1  0  0  0  0
 17 29  1  0  0  0  0
 17 30  1  0  0  0  0
 18 31  1  0  0  0  0
 20 32  1  0  0  0  0
M  END
>  <DRUGBANK_ID>
DB08473

>  <COMMON_NAME>
Dichlororibofuranosylbenzimidazole

>  <CAS_NUMBER>
53-85-0

>  <UNII>
8153319T3Q

>  <SYNONYMS>
5,6-dichloro-1-beta-D-ribofuranosyl-1H-benzimidazole

$$$$
