STN
 OpenBabel10282417072D

 28 27  0  0  0  0  0  0  0  0999 V2000
   -2.0614   -0.4590    0.0000 C   0  0  0  0  0  0  0  0  0  0  0  0
   -1.3470   -0.0465    0.0000 C   0  0  0  0  0  0  0  0  0  0  0  0
    0.7965   -0.4590    0.0000 C   0  0  0  0  0  0  0  0  0  0  0  0
    0.0820   -0.0465    0.0000 C   0  0  1  0  0  0  0  0  0  0  0  0
   -0.6325   -0.4590    0.0000 C   0  0  0  0  0  0  0  0  0  0  0  0
   -1.3470    0.7785    0.0000 C   0  0  0  0  0  0  0  0  0  0  0  0
    0.0820    0.7785    0.0000 C   0  0  0  0  0  0  0  0  0  0  0  0
    2.2254   -0.4590    0.0000 C   0  0  0  0  0  0  0  0  0  0  0  0
    1.5109    0.7785    0.0000 O   0  0  0  0  0  0  0  0  0  0  0  0
    1.5109   -0.0465    0.0000 N   0  0  0  0  0  0  0  0  0  0  0  0
    2.9399   -0.0465    0.0000 O   0  0  0  0  0  0  0  0  0  0  0  0
   -0.6325    1.1910    0.0000 O   0  0  0  0  0  0  0  0  0  0  0  0
    0.7965    1.1910    0.0000 O   0  0  0  0  0  0  0  0  0  0  0  0
    0.0820   -0.6304    0.0000 H   0  0  0  0  0  0  0  0  0  0  0  0
   -2.9881    0.0760    0.0000 H   0  0  0  0  0  0  0  0  0  0  0  0
   -2.0614   -1.5290    0.0000 H   0  0  0  0  0  0  0  0  0  0  0  0
   -2.9880   -0.9940    0.0000 H   0  0  0  0  0  0  0  0  0  0  0  0
   -0.4204    0.4885    0.0000 H   0  0  0  0  0  0  0  0  0  0  0  0
    0.7965   -1.5290    0.0000 H   0  0  0  0  0  0  0  0  0  0  0  0
    1.7232   -0.9940    0.0000 H   0  0  0  0  0  0  0  0  0  0  0  0
   -0.6325   -1.5290    0.0000 H   0  0  0  0  0  0  0  0  0  0  0  0
    0.2941   -0.9940    0.0000 H   0  0  0  0  0  0  0  0  0  0  0  0
   -0.4204    1.3135    0.0000 H   0  0  0  0  0  0  0  0  0  0  0  0
   -2.2736    1.3135    0.0000 H   0  0  0  0  0  0  0  0  0  0  0  0
   -1.3470    1.8485    0.0000 H   0  0  0  0  0  0  0  0  0  0  0  0
    2.2254   -1.4910    0.0000 H   0  0  0  0  0  0  0  0  0  0  0  0
    2.3509    1.2635    0.0000 H   0  0  0  0  0  0  0  0  0  0  0  0
    1.6080    0.7225    0.0000 H   0  0  0  0  0  0  0  0  0  0  0  0
  1  2  1  0  0  0  0
  1 15  1  0  0  0  0
  1 16  1  0  0  0  0
  1 17  1  0  0  0  0
  2  5  1  0  0  0  0
  2  6  1  0  0  0  0
  2 18  1  0  0  0  0
  3  4  1  0  0  0  0
  3 10  1  0  0  0  0
  3 19  1  0  0  0  0
  3 20  1  0  0  0  0
  4  5  1  0  0  0  0
  4  7  1  0  0  0  0
  4 14  1  6  0  0  0
  5 21  1  0  0  0  0
  5 22  1  0  0  0  0
  6 23  1  0  0  0  0
  6 24  1  0  0  0  0
  6 25  1  0  0  0  0
  7 12  2  0  0  0  0
  7 13  1  0  0  0  0
  8 10  1  0  0  0  0
  8 11  2  0  0  0  0
  8 26  1  0  0  0  0
  9 10  1  0  0  0  0
  9 27  1  0  0  0  0
 13 28  1  0  0  0  0
M  END
>  <DRUGBANK_ID>
DB03683

>  <SECONDARY_ACCESSION_NUMBERS>
EXPT02969

>  <COMMON_NAME>
2-{[Formyl(Hydroxy)Amino]Methyl}-4-Methylpentanoic Acid

$$$$
