
 OpenBabel10282417072D

 25 24  0  0  0  0  0  0  0  0999 V2000
    0.8250    2.8579    0.0000 C   0  0  0  0  0  0  0  0  0  0  0  0
    0.4125    2.1434    0.0000 C   0  0  0  0  0  0  0  0  0  0  0  0
    0.8250    1.4289    0.0000 C   0  0  0  0  0  0  0  0  0  0  0  0
    0.1105    1.0164    0.0000 C   0  0  0  0  0  0  0  0  0  0  0  0
    1.5395    1.8414    0.0000 C   0  0  0  0  0  0  0  0  0  0  0  0
    2.2539    1.4289    0.0000 C   0  0  0  0  0  0  0  0  0  0  0  0
    1.2375    0.7145    0.0000 O   0  0  0  0  0  0  0  0  0  0  0  0
    0.8250    0.0000    0.0000 C   0  0  0  0  0  0  0  0  0  0  0  0
    1.2375   -0.7145    0.0000 O   0  0  0  0  0  0  0  0  0  0  0  0
    0.0000    0.0000    0.0000 N   0  0  0  0  0  0  0  0  0  0  0  0
    1.8950    2.8579    0.0000 H   0  0  0  0  0  0  0  0  0  0  0  0
    0.2900    3.7845    0.0000 H   0  0  0  0  0  0  0  0  0  0  0  0
    1.3600    3.7846    0.0000 H   0  0  0  0  0  0  0  0  0  0  0  0
   -0.6575    2.1434    0.0000 H   0  0  0  0  0  0  0  0  0  0  0  0
   -0.1225    1.2168    0.0000 H   0  0  0  0  0  0  0  0  0  0  0  0
   -0.8161    1.5514    0.0000 H   0  0  0  0  0  0  0  0  0  0  0  0
    0.1105   -0.0536    0.0000 H   0  0  0  0  0  0  0  0  0  0  0  0
   -0.8162    0.4814    0.0000 H   0  0  0  0  0  0  0  0  0  0  0  0
    1.5395    2.9114    0.0000 H   0  0  0  0  0  0  0  0  0  0  0  0
    2.4662    2.3764    0.0000 H   0  0  0  0  0  0  0  0  0  0  0  0
    2.2539    0.3589    0.0000 H   0  0  0  0  0  0  0  0  0  0  0  0
    3.1806    1.9639    0.0000 H   0  0  0  0  0  0  0  0  0  0  0  0
    3.1805    0.8939    0.0000 H   0  0  0  0  0  0  0  0  0  0  0  0
   -0.4923    0.8526    0.0000 H   0  0  0  0  0  0  0  0  0  0  0  0
   -0.4922   -0.8526    0.0000 H   0  0  0  0  0  0  0  0  0  0  0  0
  1  2  1  0  0  0  0
  1 11  1  0  0  0  0
  1 12  1  0  0  0  0
  1 13  1  0  0  0  0
  2  3  1  0  0  0  0
  2 14  1  0  0  0  0
  2 15  1  0  0  0  0
  3  4  1  0  0  0  0
  3  5  1  0  0  0  0
  3  7  1  0  0  0  0
  4 16  1  0  0  0  0
  4 17  1  0  0  0  0
  4 18  1  0  0  0  0
  5  6  1  0  0  0  0
  5 19  1  0  0  0  0
  5 20  1  0  0  0  0
  6 21  1  0  0  0  0
  6 22  1  0  0  0  0
  6 23  1  0  0  0  0
  7  8  1  0  0  0  0
  8  9  2  0  0  0  0
  8 10  1  0  0  0  0
 10 24  1  0  0  0  0
 10 25  1  0  0  0  0
M  END
>  <DRUGBANK_ID>
DB13572

>  <COMMON_NAME>
Emylcamate

>  <CAS_NUMBER>
78-28-4

>  <UNII>
KCJ747D3R4

>  <SYNONYMS>
Emylcamate

$$$$
