924
 OpenBabel10282417072D

 42 44  0  0  0  0  0  0  0  0999 V2000
    2.5993   -1.7285    0.0000 N   0  0  0  0  0  0  0  0  0  0  0  0
    4.0282    0.7463    0.0000 C   0  0  0  0  0  0  0  0  0  0  0  0
    4.7714    1.1042    0.0000 C   0  0  0  0  0  0  0  0  0  0  0  0
    3.2848    1.1042    0.0000 C   0  0  0  0  0  0  0  0  0  0  0  0
    3.3137   -0.4911    0.0000 C   0  0  0  0  0  0  0  0  0  0  0  0
    4.0282   -0.0786    0.0000 C   0  0  0  0  0  0  0  0  0  0  0  0
    3.3136   -1.3160    0.0000 C   0  0  0  0  0  0  0  0  0  0  0  0
    4.9550    1.9084    0.0000 C   0  0  0  0  0  0  0  0  0  0  0  0
    3.1013    1.9084    0.0000 C   0  0  0  0  0  0  0  0  0  0  0  0
    4.4406    2.5534    0.0000 C   0  0  0  0  0  0  0  0  0  0  0  0
    3.6157    2.5534    0.0000 C   0  0  0  0  0  0  0  0  0  0  0  0
    5.3922    0.5102    0.0000 C   0  0  0  0  0  0  0  0  0  0  0  0
    2.6641    0.5102    0.0000 C   0  0  0  0  0  0  0  0  0  0  0  0
    5.7720    2.1743    0.0000 C   0  0  0  0  0  0  0  0  0  0  0  0
    2.2842    2.1743    0.0000 C   0  0  0  0  0  0  0  0  0  0  0  0
    6.2152    0.7570    0.0000 C   0  0  0  0  0  0  0  0  0  0  0  0
    1.8410    0.7570    0.0000 C   0  0  0  0  0  0  0  0  0  0  0  0
    6.4064    1.5948    0.0000 C   0  0  0  0  0  0  0  0  0  0  0  0
    1.6499    1.5949    0.0000 C   0  0  0  0  0  0  0  0  0  0  0  0
    2.5993   -2.5534    0.0000 C   0  0  0  0  0  0  0  0  0  0  0  0
    1.8848   -1.3160    0.0000 C   0  0  0  0  0  0  0  0  0  0  0  0
    2.3871    0.0440    0.0000 H   0  0  0  0  0  0  0  0  0  0  0  0
    2.3870   -1.0260    0.0000 H   0  0  0  0  0  0  0  0  0  0  0  0
    4.9219   -0.5946    0.0000 H   0  0  0  0  0  0  0  0  0  0  0  0
    4.2402   -1.8510    0.0000 H   0  0  0  0  0  0  0  0  0  0  0  0
    4.2403   -0.7811    0.0000 H   0  0  0  0  0  0  0  0  0  0  0  0
    4.8884    3.4832    0.0000 H   0  0  0  0  0  0  0  0  0  0  0  0
    3.1679    3.4832    0.0000 H   0  0  0  0  0  0  0  0  0  0  0  0
    5.1509   -0.4932    0.0000 H   0  0  0  0  0  0  0  0  0  0  0  0
    2.9055   -0.4932    0.0000 H   0  0  0  0  0  0  0  0  0  0  0  0
    5.9899    3.1830    0.0000 H   0  0  0  0  0  0  0  0  0  0  0  0
    2.0663    3.1830    0.0000 H   0  0  0  0  0  0  0  0  0  0  0  0
    6.9690    0.0521    0.0000 H   0  0  0  0  0  0  0  0  0  0  0  0
    1.0872    0.0521    0.0000 H   0  0  0  0  0  0  0  0  0  0  0  0
    7.3914    1.9028    0.0000 H   0  0  0  0  0  0  0  0  0  0  0  0
    0.6650    1.9030    0.0000 H   0  0  0  0  0  0  0  0  0  0  0  0
    1.6727   -3.0884    0.0000 H   0  0  0  0  0  0  0  0  0  0  0  0
    3.5259   -3.0884    0.0000 H   0  0  0  0  0  0  0  0  0  0  0  0
    2.5993   -3.6234    0.0000 H   0  0  0  0  0  0  0  0  0  0  0  0
    1.8848   -0.2460    0.0000 H   0  0  0  0  0  0  0  0  0  0  0  0
    0.9582   -1.8510    0.0000 H   0  0  0  0  0  0  0  0  0  0  0  0
    0.9581   -0.7810    0.0000 H   0  0  0  0  0  0  0  0  0  0  0  0
  1  7  1  0  0  0  0
  1 20  1  0  0  0  0
  1 21  1  0  0  0  0
  2  3  1  0  0  0  0
  2  4  1  0  0  0  0
  2  6  2  0  0  0  0
  3  8  1  0  0  0  0
  3 12  2  0  0  0  0
  4  9  1  0  0  0  0
  4 13  2  0  0  0  0
  5  6  1  0  0  0  0
  5  7  1  0  0  0  0
  5 22  1  0  0  0  0
  5 23  1  0  0  0  0
  6 24  1  0  0  0  0
  7 25  1  0  0  0  0
  7 26  1  0  0  0  0
  8 10  1  0  0  0  0
  8 14  2  0  0  0  0
  9 11  1  0  0  0  0
  9 15  2  0  0  0  0
 10 11  2  0  0  0  0
 10 27  1  0  0  0  0
 11 28  1  0  0  0  0
 12 16  1  0  0  0  0
 12 29  1  0  0  0  0
 13 17  1  0  0  0  0
 13 30  1  0  0  0  0
 14 18  1  0  0  0  0
 14 31  1  0  0  0  0
 15 19  1  0  0  0  0
 15 32  1  0  0  0  0
 16 18  2  0  0  0  0
 16 33  1  0  0  0  0
 17 19  2  0  0  0  0
 17 34  1  0  0  0  0
 18 35  1  0  0  0  0
 19 36  1  0  0  0  0
 20 37  1  0  0  0  0
 20 38  1  0  0  0  0
 20 39  1  0  0  0  0
 21 40  1  0  0  0  0
 21 41  1  0  0  0  0
 21 42  1  0  0  0  0
M  END
>  <DRUGBANK_ID>
DB00924

>  <SECONDARY_ACCESSION_NUMBERS>
APRD00213

>  <COMMON_NAME>
Cyclobenzaprine

>  <CAS_NUMBER>
303-53-7

>  <UNII>
69O5WQQ5TI

>  <SYNONYMS>
(3-Dibenzo[a,d]cyclohepten-5-ylidene-propyl)-dimethyl-amine; Ciclobenzaprina; Cyclobenzaprine; Cyclobenzaprinum; N,N-dimethyl-5H-dibenzo(a,d)cycloheptene-Δ5,γ-propylamine

$$$$
