
 OpenBabel10282417072D

 73 76  0  0  0  0  0  0  0  0999 V2000
   10.7171  -10.3125    0.0000 C   0  0  0  0  0  0  0  0  0  0  0  0
   10.0026   -9.9000    0.0000 C   0  0  0  0  0  0  0  0  0  0  0  0
    9.2881  -10.3125    0.0000 O   0  0  0  0  0  0  0  0  0  0  0  0
   10.0026   -9.0750    0.0000 N   0  0  0  0  0  0  0  0  0  0  0  0
    9.2881   -8.6625    0.0000 C   0  0  0  0  0  0  0  0  0  0  0  0
    8.5737   -9.0750    0.0000 C   0  0  0  0  0  0  0  0  0  0  0  0
    7.8592   -8.6625    0.0000 C   0  0  0  0  0  0  0  0  0  0  0  0
    7.1447   -9.0750    0.0000 C   0  0  0  0  0  0  0  0  0  0  0  0
    6.4302   -8.6625    0.0000 N   0  0  0  0  0  0  0  0  0  0  0  0
    5.7158   -9.0750    0.0000 C   0  0  0  0  0  0  0  0  0  0  0  0
    5.0013   -8.6625    0.0000 C   0  0  0  0  0  0  0  0  0  0  0  0
    4.2868   -9.0750    0.0000 C   0  0  0  0  0  0  0  0  0  0  0  0
    3.5724   -8.6625    0.0000 N   0  0  0  0  0  0  0  0  0  0  0  0
    2.8579   -9.0750    0.0000 C   0  0  0  0  0  0  0  0  0  0  0  0
    2.8579   -9.9000    0.0000 O   0  0  0  0  0  0  0  0  0  0  0  0
    2.1434   -8.6625    0.0000 C   0  0  0  0  0  0  0  0  0  0  0  0
    1.4289   -9.0750    0.0000 C   0  0  0  0  0  0  0  0  0  0  0  0
    0.7145   -8.6625    0.0000 C   0  0  0  0  0  0  0  0  0  0  0  0
    0.7145   -7.8375    0.0000 C   0  0  0  0  0  0  0  0  0  0  0  0
    1.4289   -7.4250    0.0000 C   0  0  0  0  0  0  0  0  0  0  0  0
    2.1434   -7.8375    0.0000 C   0  0  0  0  0  0  0  0  0  0  0  0
    2.8579   -7.4250    0.0000 N   0  0  0  0  0  0  0  0  0  0  0  0
    3.5724   -7.8375    0.0000 C   0  0  0  0  0  0  0  0  0  0  0  0
    4.2868   -7.4250    0.0000 O   0  0  0  0  0  0  0  0  0  0  0  0
   10.7171   -8.6625    0.0000 C   0  0  0  0  0  0  0  0  0  0  0  0
   11.4315   -9.0750    0.0000 C   0  0  0  0  0  0  0  0  0  0  0  0
   12.1460   -8.6625    0.0000 C   0  0  0  0  0  0  0  0  0  0  0  0
   12.8605   -9.0750    0.0000 N   0  0  0  0  0  0  0  0  0  0  0  0
   13.5749   -8.6625    0.0000 C   0  0  0  0  0  0  0  0  0  0  0  0
   13.5749   -7.8375    0.0000 O   0  0  0  0  0  0  0  0  0  0  0  0
   14.2894   -9.0750    0.0000 C   0  0  0  0  0  0  0  0  0  0  0  0
   15.0039   -8.6625    0.0000 C   0  0  0  0  0  0  0  0  0  0  0  0
   15.7184   -9.0750    0.0000 C   0  0  0  0  0  0  0  0  0  0  0  0
   15.7184   -9.9000    0.0000 C   0  0  0  0  0  0  0  0  0  0  0  0
   15.0039  -10.3125    0.0000 C   0  0  0  0  0  0  0  0  0  0  0  0
   14.2894   -9.9000    0.0000 C   0  0  0  0  0  0  0  0  0  0  0  0
   13.5749  -10.3125    0.0000 N   0  0  0  0  0  0  0  0  0  0  0  0
   12.8605   -9.9000    0.0000 C   0  0  0  0  0  0  0  0  0  0  0  0
   12.1460  -10.3125    0.0000 O   0  0  0  0  0  0  0  0  0  0  0  0
   10.7171  -11.3825    0.0000 H   0  0  0  0  0  0  0  0  0  0  0  0
   11.6437   -9.7775    0.0000 H   0  0  0  0  0  0  0  0  0  0  0  0
   11.6438  -10.8475    0.0000 H   0  0  0  0  0  0  0  0  0  0  0  0
    9.2881   -7.5925    0.0000 H   0  0  0  0  0  0  0  0  0  0  0  0
    8.3614   -8.1275    0.0000 H   0  0  0  0  0  0  0  0  0  0  0  0
    8.5737  -10.1450    0.0000 H   0  0  0  0  0  0  0  0  0  0  0  0
    7.6471   -9.6100    0.0000 H   0  0  0  0  0  0  0  0  0  0  0  0
    7.8592   -7.5925    0.0000 H   0  0  0  0  0  0  0  0  0  0  0  0
    6.9326   -8.1275    0.0000 H   0  0  0  0  0  0  0  0  0  0  0  0
    7.1447  -10.1450    0.0000 H   0  0  0  0  0  0  0  0  0  0  0  0
    6.2181   -9.6100    0.0000 H   0  0  0  0  0  0  0  0  0  0  0  0
    6.4302   -7.6425    0.0000 H   0  0  0  0  0  0  0  0  0  0  0  0
    5.7158  -10.1450    0.0000 H   0  0  0  0  0  0  0  0  0  0  0  0
    4.7892   -9.6100    0.0000 H   0  0  0  0  0  0  0  0  0  0  0  0
    5.0013   -7.5925    0.0000 H   0  0  0  0  0  0  0  0  0  0  0  0
    4.0747   -8.1275    0.0000 H   0  0  0  0  0  0  0  0  0  0  0  0
    4.2868  -10.1450    0.0000 H   0  0  0  0  0  0  0  0  0  0  0  0
    3.3601   -9.6100    0.0000 H   0  0  0  0  0  0  0  0  0  0  0  0
    1.4289  -10.1070    0.0000 H   0  0  0  0  0  0  0  0  0  0  0  0
   -0.1792   -9.1785    0.0000 H   0  0  0  0  0  0  0  0  0  0  0  0
   -0.1792   -7.3215    0.0000 H   0  0  0  0  0  0  0  0  0  0  0  0
    1.4289   -6.3930    0.0000 H   0  0  0  0  0  0  0  0  0  0  0  0
    2.8579   -6.4405    0.0000 H   0  0  0  0  0  0  0  0  0  0  0  0
   10.7171   -7.5925    0.0000 H   0  0  0  0  0  0  0  0  0  0  0  0
   11.6438   -8.1275    0.0000 H   0  0  0  0  0  0  0  0  0  0  0  0
   11.4315  -10.1450    0.0000 H   0  0  0  0  0  0  0  0  0  0  0  0
   12.3581   -9.6100    0.0000 H   0  0  0  0  0  0  0  0  0  0  0  0
   12.1460   -7.5925    0.0000 H   0  0  0  0  0  0  0  0  0  0  0  0
   13.0726   -8.1275    0.0000 H   0  0  0  0  0  0  0  0  0  0  0  0
   15.0039   -7.6305    0.0000 H   0  0  0  0  0  0  0  0  0  0  0  0
   16.6121   -8.5590    0.0000 H   0  0  0  0  0  0  0  0  0  0  0  0
   16.6121  -10.4160    0.0000 H   0  0  0  0  0  0  0  0  0  0  0  0
   15.0039  -11.3445    0.0000 H   0  0  0  0  0  0  0  0  0  0  0  0
   13.5749  -11.2970    0.0000 H   0  0  0  0  0  0  0  0  0  0  0  0
  1  2  1  0  0  0  0
  1 40  1  0  0  0  0
  1 41  1  0  0  0  0
  1 42  1  0  0  0  0
  2  3  2  0  0  0  0
  2  4  1  0  0  0  0
  4  5  1  0  0  0  0
  4 25  1  0  0  0  0
  5  6  1  0  0  0  0
  5 43  1  0  0  0  0
  5 44  1  0  0  0  0
  6  7  1  0  0  0  0
  6 45  1  0  0  0  0
  6 46  1  0  0  0  0
  7  8  1  0  0  0  0
  7 47  1  0  0  0  0
  7 48  1  0  0  0  0
  8  9  1  0  0  0  0
  8 49  1  0  0  0  0
  8 50  1  0  0  0  0
  9 10  1  0  0  0  0
  9 51  1  0  0  0  0
 10 11  1  0  0  0  0
 10 52  1  0  0  0  0
 10 53  1  0  0  0  0
 11 12  1  0  0  0  0
 11 54  1  0  0  0  0
 11 55  1  0  0  0  0
 12 13  1  0  0  0  0
 12 56  1  0  0  0  0
 12 57  1  0  0  0  0
 13 14  1  0  0  0  0
 13 23  1  0  0  0  0
 14 15  2  0  0  0  0
 14 16  1  0  0  0  0
 16 17  2  0  0  0  0
 16 21  1  0  0  0  0
 17 18  1  0  0  0  0
 17 58  1  0  0  0  0
 18 19  2  0  0  0  0
 18 59  1  0  0  0  0
 19 20  1  0  0  0  0
 19 60  1  0  0  0  0
 20 21  2  0  0  0  0
 20 61  1  0  0  0  0
 21 22  1  0  0  0  0
 22 23  1  0  0  0  0
 22 62  1  0  0  0  0
 23 24  2  0  0  0  0
 25 26  1  0  0  0  0
 25 63  1  0  0  0  0
 25 64  1  0  0  0  0
 26 27  1  0  0  0  0
 26 65  1  0  0  0  0
 26 66  1  0  0  0  0
 27 28  1  0  0  0  0
 27 67  1  0  0  0  0
 27 68  1  0  0  0  0
 28 29  1  0  0  0  0
 28 38  1  0  0  0  0
 29 30  2  0  0  0  0
 29 31  1  0  0  0  0
 31 32  2  0  0  0  0
 31 36  1  0  0  0  0
 32 33  1  0  0  0  0
 32 69  1  0  0  0  0
 33 34  2  0  0  0  0
 33 70  1  0  0  0  0
 34 35  1  0  0  0  0
 34 71  1  0  0  0  0
 35 36  2  0  0  0  0
 35 72  1  0  0  0  0
 36 37  1  0  0  0  0
 37 38  1  0  0  0  0
 37 73  1  0  0  0  0
 38 39  2  0  0  0  0
M  END
>  <DRUGBANK_ID>
DB11670

>  <COMMON_NAME>
SP-8203

>  <CAS_NUMBER>
1176758-04-5

>  <UNII>
UYE03B60KA

$$$$
