
 OpenBabel10282417072D

 55 57  0  0  0  0  0  0  0  0999 V2000
   -0.5998   -0.1749    0.0000 C   0  0  0  0  0  0  0  0  0  0  0  0
   -0.7713    0.6319    0.0000 C   0  0  0  0  0  0  0  0  0  0  0  0
   -0.1582    1.1840    0.0000 C   0  0  0  0  0  0  0  0  0  0  0  0
    0.6263    0.9290    0.0000 C   0  0  0  0  0  0  0  0  0  0  0  0
   -1.7275    1.6939    0.0000 C   0  0  0  0  0  0  0  0  0  0  0  0
    0.5203   -1.1835    0.0000 C   0  0  0  0  0  0  0  0  0  0  0  0
    1.3408   -1.0973    0.0000 C   0  0  0  0  0  0  0  0  0  0  0  0
    2.2660    0.0451    0.0000 C   0  0  0  0  0  0  0  0  0  0  0  0
   -1.1296   -1.1835    0.0000 O   0  0  0  0  0  0  0  0  0  0  0  0
   -0.7171   -1.8980    0.0000 C   0  0  0  0  0  0  0  0  0  0  0  0
   -1.1296   -2.6125    0.0000 N   0  0  0  0  0  0  0  0  0  0  0  0
   -1.9546   -2.6125    0.0000 C   0  0  1  0  0  0  0  0  0  0  0  0
   -2.3671   -3.3270    0.0000 C   0  0  0  0  0  0  0  0  0  0  0  0
   -3.1921   -3.3270    0.0000 C   0  0  0  0  0  0  0  0  0  0  0  0
   -2.3671   -1.8980    0.0000 C   0  0  0  0  0  0  0  0  0  0  0  0
   -1.9546   -1.1835    0.0000 O   0  0  0  0  0  0  0  0  0  0  0  0
    0.1078   -1.8980    0.0000 C   0  0  0  0  0  0  0  0  0  0  0  0
    0.1847   -0.4299    0.0000 C   0  0  0  0  0  0  0  0  0  0  0  0
    1.8928   -1.7104    0.0000 C   0  0  0  0  0  0  0  0  0  0  0  0
    1.5123   -0.2903    0.0000 N   0  0  0  0  0  0  0  0  0  0  0  0
    0.7978    0.1221    0.0000 C   0  0  0  0  0  0  0  0  0  0  0  0
   -1.5559    0.8869    0.0000 O   0  0  0  0  0  0  0  0  0  0  0  0
    2.9334   -0.4397    0.0000 O   0  0  0  0  0  0  0  0  0  0  0  0
    2.3522    0.8656    0.0000 C   0  0  0  0  0  0  0  0  0  0  0  0
    1.6848    1.3505    0.0000 C   0  0  0  0  0  0  0  0  0  0  0  0
    1.7710    2.1710    0.0000 C   0  0  0  0  0  0  0  0  0  0  0  0
    2.5247    2.5066    0.0000 C   0  0  0  0  0  0  0  0  0  0  0  0
    2.6109    3.3270    0.0000 Cl  0  0  0  0  0  0  0  0  0  0  0  0
    3.1921    2.0216    0.0000 C   0  0  0  0  0  0  0  0  0  0  0  0
    3.1059    1.2012    0.0000 C   0  0  0  0  0  0  0  0  0  0  0  0
   -1.3668   -0.8654    0.0000 H   0  0  0  0  0  0  0  0  0  0  0  0
   -0.3727    2.1935    0.0000 H   0  0  0  0  0  0  0  0  0  0  0  0
    1.3933    1.6195    0.0000 H   0  0  0  0  0  0  0  0  0  0  0  0
   -0.9324    2.4099    0.0000 H   0  0  0  0  0  0  0  0  0  0  0  0
   -2.7452    2.0245    0.0000 H   0  0  0  0  0  0  0  0  0  0  0  0
   -1.9500    2.7405    0.0000 H   0  0  0  0  0  0  0  0  0  0  0  0
   -0.6373   -3.4651    0.0000 H   0  0  0  0  0  0  0  0  0  0  0  0
   -1.4196   -3.5391    0.0000 H   0  0  0  0  0  0  0  0  0  0  0  0
   -1.8321   -4.2536    0.0000 H   0  0  0  0  0  0  0  0  0  0  0  0
   -2.9021   -4.2536    0.0000 H   0  0  0  0  0  0  0  0  0  0  0  0
   -3.7271   -2.4004    0.0000 H   0  0  0  0  0  0  0  0  0  0  0  0
   -3.7271   -4.2536    0.0000 H   0  0  0  0  0  0  0  0  0  0  0  0
   -4.2621   -3.3270    0.0000 H   0  0  0  0  0  0  0  0  0  0  0  0
   -3.4371   -1.8980    0.0000 H   0  0  0  0  0  0  0  0  0  0  0  0
   -2.9021   -0.9714    0.0000 H   0  0  0  0  0  0  0  0  0  0  0  0
   -0.9846   -1.1835    0.0000 H   0  0  0  0  0  0  0  0  0  0  0  0
    0.6428   -2.8246    0.0000 H   0  0  0  0  0  0  0  0  0  0  0  0
   -0.4272   -2.8246    0.0000 H   0  0  0  0  0  0  0  0  0  0  0  0
    1.5621   -2.7280    0.0000 H   0  0  0  0  0  0  0  0  0  0  0  0
    2.9394   -1.4880    0.0000 H   0  0  0  0  0  0  0  0  0  0  0  0
    2.6087   -2.5056    0.0000 H   0  0  0  0  0  0  0  0  0  0  0  0
    0.7420    0.9307    0.0000 H   0  0  0  0  0  0  0  0  0  0  0  0
    0.9361    2.7776    0.0000 H   0  0  0  0  0  0  0  0  0  0  0  0
    4.1349    2.4413    0.0000 H   0  0  0  0  0  0  0  0  0  0  0  0
    3.9408    0.5946    0.0000 H   0  0  0  0  0  0  0  0  0  0  0  0
  1  2  2  0  0  0  0
  1 31  1  0  0  0  0
  2  3  1  0  0  0  0
  2 22  1  0  0  0  0
  3  4  2  0  0  0  0
  3 32  1  0  0  0  0
  4 33  1  0  0  0  0
  5 22  1  0  0  0  0
  5 34  1  0  0  0  0
  5 35  1  0  0  0  0
  5 36  1  0  0  0  0
  6  7  2  0  0  0  0
  7 20  1  0  0  0  0
  8 20  1  0  0  0  0
  8 23  2  0  0  0  0
 10  9  2  0  0  0  0
 10 11  1  0  0  0  0
 11 37  1  0  0  0  0
 12 11  1  0  0  0  0
 12 13  1  0  0  0  0
 12 15  1  0  0  0  0
 12 38  1  6  0  0  0
 13 14  1  0  0  0  0
 13 39  1  0  0  0  0
 13 40  1  0  0  0  0
 14 41  1  0  0  0  0
 14 42  1  0  0  0  0
 14 43  1  0  0  0  0
 15 16  1  0  0  0  0
 15 44  1  0  0  0  0
 15 45  1  0  0  0  0
 16 46  1  0  0  0  0
 17  6  1  0  0  0  0
 17 10  1  0  0  0  0
 17 47  1  0  0  0  0
 17 48  1  0  0  0  0
 18  1  1  0  0  0  0
 18  6  1  0  0  0  0
 19  7  1  0  0  0  0
 19 49  1  0  0  0  0
 19 50  1  0  0  0  0
 19 51  1  0  0  0  0
 21  4  1  0  0  0  0
 21 18  2  0  0  0  0
 21 20  1  0  0  0  0
 24  8  1  0  0  0  0
 24 25  1  0  0  0  0
 24 30  2  0  0  0  0
 25 52  1  0  0  0  0
 26 25  2  0  0  0  0
 26 53  1  0  0  0  0
 27 26  1  0  0  0  0
 27 28  1  0  0  0  0
 29 27  2  0  0  0  0
 29 54  1  0  0  0  0
 30 29  1  0  0  0  0
 30 55  1  0  0  0  0
M  END
>  <DRUGBANK_ID>
DB07984

>  <COMMON_NAME>
2-[1-(4-chlorobenzoyl)-5-methoxy-2-methyl-1H-indol-3-yl]-n-[(1S)-1-(hydroxymethyl)propyl]acetamide

$$$$
