
 OpenBabel10282417072D

 48 51  0  0  0  0  0  0  0  0999 V2000
   -0.3957   -0.5343    0.0000 C   0  0  0  0  0  0  0  0  0  0  0  0
    0.2736   -0.9524    0.0000 C   0  0  1  0  0  0  0  0  0  0  0  0
   -0.3957    0.3024    0.0000 C   0  0  0  0  0  0  0  0  0  0  0  0
   -1.1485   -0.9524    0.0000 C   0  0  0  0  0  0  0  0  0  0  0  0
    0.2736   -1.7473    0.0000 C   0  0  0  0  0  0  0  0  0  0  0  0
    0.3155    0.6788    0.0000 C   0  0  0  0  0  0  0  0  0  0  0  0
   -1.1485   -1.7473    0.0000 C   0  0  0  0  0  0  0  0  0  0  0  0
   -1.8178   -0.5343    0.0000 C   0  0  0  0  0  0  0  0  0  0  0  0
   -0.4374   -2.1656    0.0000 C   0  0  0  0  0  0  0  0  0  0  0  0
   -1.8178   -2.1656    0.0000 C   0  0  0  0  0  0  0  0  0  0  0  0
   -2.5290   -0.9524    0.0000 C   0  0  0  0  0  0  0  0  0  0  0  0
   -2.5290   -1.7473    0.0000 C   0  0  0  0  0  0  0  0  0  0  0  0
   -3.2402   -2.1656    0.0000 O   0  0  0  0  0  0  0  0  0  0  0  0
    0.2736   -0.0321    0.0000 H   0  0  0  0  0  0  0  0  0  0  0  0
    1.0266    1.2645    0.0000 C   0  0  0  0  0  0  0  0  0  0  0  0
    1.0685   -1.3708    0.0000 H   0  0  0  0  0  0  0  0  0  0  0  0
    1.8112    0.5155    0.0000 C   0  0  1  0  0  0  0  0  0  0  0  0
    1.0266    0.2606    0.0000 C   0  0  2  0  0  0  0  0  0  0  0  0
    1.0267   -0.5343    0.0000 C   0  0  1  0  0  0  0  0  0  0  0  0
    1.8113   -0.8192    0.0000 C   0  0  0  0  0  0  0  0  0  0  0  0
    2.2962   -0.1517    0.0000 C   0  0  0  0  0  0  0  0  0  0  0  0
    1.8112    1.3405    0.0000 C   0  0  0  0  0  0  0  0  0  0  0  0
    2.5257    1.7530    0.0000 C   0  0  0  0  0  0  0  0  0  0  0  0
    3.2402    2.1656    0.0000 N   0  0  0  0  0  0  0  0  0  0  0  0
    2.5257    0.9280    0.0000 O   0  0  0  0  0  0  0  0  0  0  0  0
   -1.3123    0.8544    0.0000 H   0  0  0  0  0  0  0  0  0  0  0  0
   -0.3661    1.3720    0.0000 H   0  0  0  0  0  0  0  0  0  0  0  0
    1.2024   -2.2785    0.0000 H   0  0  0  0  0  0  0  0  0  0  0  0
    0.2802   -2.8173    0.0000 H   0  0  0  0  0  0  0  0  0  0  0  0
    0.3395    1.7485    0.0000 H   0  0  0  0  0  0  0  0  0  0  0  0
    1.2502    1.1996    0.0000 H   0  0  0  0  0  0  0  0  0  0  0  0
   -1.8034    0.5356    0.0000 H   0  0  0  0  0  0  0  0  0  0  0  0
   -2.7429    0.0033    0.0000 H   0  0  0  0  0  0  0  0  0  0  0  0
   -0.4374   -3.2356    0.0000 H   0  0  0  0  0  0  0  0  0  0  0  0
   -1.3662   -2.6968    0.0000 H   0  0  0  0  0  0  0  0  0  0  0  0
   -1.8039   -3.1975    0.0000 H   0  0  0  0  0  0  0  0  0  0  0  0
   -3.4577   -0.4210    0.0000 H   0  0  0  0  0  0  0  0  0  0  0  0
   -3.4546   -1.4892    0.0000 H   0  0  0  0  0  0  0  0  0  0  0  0
    1.9532    1.7995    0.0000 H   0  0  0  0  0  0  0  0  0  0  0  0
    0.1000    1.7995    0.0000 H   0  0  0  0  0  0  0  0  0  0  0  0
    1.0266    2.3345    0.0000 H   0  0  0  0  0  0  0  0  0  0  0  0
    2.1246   -1.8423    0.0000 H   0  0  0  0  0  0  0  0  0  0  0  0
    2.8667   -0.9955    0.0000 H   0  0  0  0  0  0  0  0  0  0  0  0
    3.3662   -0.1515    0.0000 H   0  0  0  0  0  0  0  0  0  0  0  0
    2.7818    0.8018    0.0000 H   0  0  0  0  0  0  0  0  0  0  0  0
    0.8846    1.8755    0.0000 H   0  0  0  0  0  0  0  0  0  0  0  0
    1.8112    2.4105    0.0000 H   0  0  0  0  0  0  0  0  0  0  0  0
    3.3657    0.4430    0.0000 H   0  0  0  0  0  0  0  0  0  0  0  0
  1  2  1  0  0  0  0
  1  3  1  0  0  0  0
  1  4  2  0  0  0  0
  2  5  1  0  0  0  0
  2 14  1  1  0  0  0
  2 19  1  0  0  0  0
  3  6  1  0  0  0  0
  3 26  1  0  0  0  0
  3 27  1  0  0  0  0
  4  7  1  0  0  0  0
  4  8  1  0  0  0  0
  5  9  1  0  0  0  0
  5 28  1  0  0  0  0
  5 29  1  0  0  0  0
  6 18  1  0  0  0  0
  6 30  1  0  0  0  0
  6 31  1  0  0  0  0
  7 10  2  0  0  0  0
  7  9  1  0  0  0  0
  8 11  1  0  0  0  0
  8 32  1  0  0  0  0
  8 33  1  0  0  0  0
  9 34  1  0  0  0  0
  9 35  1  0  0  0  0
 10 12  1  0  0  0  0
 10 36  1  0  0  0  0
 11 12  1  0  0  0  0
 11 37  1  0  0  0  0
 11 38  1  0  0  0  0
 12 13  2  0  0  0  0
 15 39  1  0  0  0  0
 15 40  1  0  0  0  0
 15 41  1  0  0  0  0
 17 18  1  0  0  0  0
 17 21  1  0  0  0  0
 17 22  1  0  0  0  0
 17 25  1  1  0  0  0
 18 15  1  1  0  0  0
 18 19  1  0  0  0  0
 19 16  1  6  0  0  0
 19 20  1  0  0  0  0
 20 21  1  0  0  0  0
 20 42  1  0  0  0  0
 20 43  1  0  0  0  0
 21 44  1  0  0  0  0
 21 45  1  0  0  0  0
 22 23  1  0  0  0  0
 22 46  1  0  0  0  0
 22 47  1  0  0  0  0
 23 24  3  0  0  0  0
 25 48  1  0  0  0  0
M  END
>  <DRUGBANK_ID>
DB09123

>  <COMMON_NAME>
Dienogest

>  <CAS_NUMBER>
65928-58-7

>  <UNII>
46M3EV8HHE

>  <SYNONYMS>
17-alpha-Cyanomethyl-17-beta-hydroxy-estra-4,9(10)-dien-3-one; 17alpha-17-Hydroxy-3-oxo-19-norpregna-4,9-diene-21-nitrile; Dienogest; Dienogestril; Dienogestum; Endometrion

$$$$
