
 OpenBabel10282417072D

 19 19  0  0  1  0  0  0  0  0999 V2000
    9.3555   -8.7515    0.0000 C   0  0  0  0  0  0  0  0  0  0  0  0
    9.3518   -7.9305    0.0000 C   0  0  2  0  0  0  0  0  0  0  0  0
    8.6438   -9.1620    0.0000 C   0  0  0  0  0  0  0  0  0  0  0  0
   10.0711   -9.1620    0.0000 C   0  0  0  0  0  0  0  0  0  0  0  0
   10.0598   -7.5200    0.0000 C   0  0  0  0  0  0  0  0  0  0  0  0
    8.5989   -7.4827    0.0000 O   0  0  0  0  0  0  0  0  0  0  0  0
    8.6438   -9.9905    0.0000 C   0  0  0  0  0  0  0  0  0  0  0  0
   10.0711   -9.9905    0.0000 C   0  0  0  0  0  0  0  0  0  0  0  0
   10.7716   -7.9267    0.0000 O   0  0  0  0  0  0  0  0  0  0  0  0
   10.0560   -6.7027    0.0000 O   0  0  0  0  0  0  0  0  0  0  0  0
    9.3555  -10.4084    0.0000 C   0  0  0  0  0  0  0  0  0  0  0  0
    8.4229   -8.4616    0.0000 H   0  0  0  0  0  0  0  0  0  0  0  0
    7.7502   -8.6458    0.0000 H   0  0  0  0  0  0  0  0  0  0  0  0
   10.9641   -8.6448    0.0000 H   0  0  0  0  0  0  0  0  0  0  0  0
    8.6115   -6.5128    0.0000 H   0  0  0  0  0  0  0  0  0  0  0  0
    7.7482  -10.5032    0.0000 H   0  0  0  0  0  0  0  0  0  0  0  0
   10.9661  -10.5043    0.0000 H   0  0  0  0  0  0  0  0  0  0  0  0
   10.7758   -8.8637    0.0000 H   0  0  0  0  0  0  0  0  0  0  0  0
    9.3543  -11.4404    0.0000 H   0  0  0  0  0  0  0  0  0  0  0  0
  1  2  1  0  0  0  0
  1  3  2  0  0  0  0
  1  4  1  0  0  0  0
  2  5  1  0  0  0  0
  2  6  1  0  0  0  0
  2 12  1  6  0  0  0
  3  7  1  0  0  0  0
  3 13  1  0  0  0  0
  4  8  2  0  0  0  0
  4 14  1  0  0  0  0
  5  9  1  0  0  0  0
  5 10  2  0  0  0  0
  6 15  1  0  0  0  0
  7 11  2  0  0  0  0
  7 16  1  0  0  0  0
  8 11  1  0  0  0  0
  8 17  1  0  0  0  0
  9 18  1  0  0  0  0
 11 19  1  0  0  0  0
M  END
>  <DRUGBANK_ID>
DB02280

>  <SECONDARY_ACCESSION_NUMBERS>
EXPT02794

>  <COMMON_NAME>
(R)-Mandelic acid

>  <CAS_NUMBER>
611-71-2

>  <UNII>
PPL7YW1M9W

>  <SYNONYMS>
(−)-(R)-mandelic acid; (−)-mandelic acid; (−)-α-hydroxyphenylacetic acid; (2R)-2-hydroxy-2-phenylacetic acid; (R)-2-Hydroxy-2-phenylacetic acid; (R)-Mandelsäure; (R)-α-hydroxybenzeneacetic acid; (R)-α-hydroxyphenylacetic acid; D-2-phenylglycolic acid; D-mandelic acid; D(−)-mandelic acid

$$$$
