
 OpenBabel10282417072D

 99105  0  0  0  0  0  0  0  0999 V2000
   -2.8810   -1.4620    0.0000 C   0  0  0  0  0  0  0  0  0  0  0  0
   -2.8810   -0.6443    0.0000 N   0  0  0  0  0  0  0  0  0  0  0  0
   -2.1719   -1.0531    0.0000 C   0  0  0  0  0  0  0  0  0  0  0  0
   -2.1719   -1.8755    0.0000 O   0  0  0  0  0  0  0  0  0  0  0  0
   -1.4533   -0.6444    0.0000 C   0  0  2  0  0  0  0  0  0  0  0  0
   -1.3648   -1.4589    0.0000 H   0  0  0  0  0  0  0  0  0  0  0  0
   -0.6675   -0.8941    0.0000 C   0  0  0  0  0  0  0  0  0  0  0  0
   -0.1850   -0.2263    0.0000 C   0  0  2  0  0  0  0  0  0  0  0  0
    0.6374   -0.2263    0.0000 O   0  0  0  0  0  0  0  0  0  0  0  0
    1.0066   -0.9644    0.0000 C   0  0  0  0  0  0  0  0  0  0  0  0
    0.5530   -1.6602    0.0000 C   0  0  0  0  0  0  0  0  0  0  0  0
   -0.2781   -1.6602    0.0000 C   0  0  0  0  0  0  0  0  0  0  0  0
   -0.7208   -2.3091    0.0000 C   0  0  0  0  0  0  0  0  0  0  0  0
   -0.3457   -3.0418    0.0000 C   0  0  0  0  0  0  0  0  0  0  0  0
   -0.7603   -3.7574    0.0000 O   0  0  0  0  0  0  0  0  0  0  0  0
   -0.3457   -4.4684    0.0000 C   0  0  0  0  0  0  0  0  0  0  0  0
    0.4763   -3.0418    0.0000 C   0  0  0  0  0  0  0  0  0  0  0  0
    0.8874   -3.7594    0.0000 C   0  0  0  0  0  0  0  0  0  0  0  0
    0.9242   -2.3911    0.0000 C   0  0  0  0  0  0  0  0  0  0  0  0
    1.7492   -2.4415    0.0000 N   0  0  0  0  0  0  0  0  0  0  0  0
    2.1977   -1.7532    0.0000 C   0  0  0  0  0  0  0  0  0  0  0  0
    3.0292   -1.7532    0.0000 C   0  0  0  0  0  0  0  0  0  0  0  0
    3.5114   -1.0881    0.0000 S   0  0  0  0  0  0  0  0  0  0  0  0
    4.2956   -1.3404    0.0000 C   0  0  0  0  0  0  0  0  0  0  0  0
    4.2956   -2.1659    0.0000 C   0  0  0  0  0  0  0  0  0  0  0  0
    5.0114   -2.5786    0.0000 C   0  0  0  0  0  0  0  0  0  0  0  0
    5.0114   -3.4580    0.0000 C   0  0  0  0  0  0  0  0  0  0  0  0
    5.7269   -2.1659    0.0000 C   0  0  0  0  0  0  0  0  0  0  0  0
    3.5114   -2.4184    0.0000 N   0  0  0  0  0  0  0  0  0  0  0  0
    1.8288   -1.0203    0.0000 C   0  0  0  0  0  0  0  0  0  0  0  0
   -0.6673    0.4327    0.0000 C   0  0  0  0  0  0  0  0  0  0  0  0
   -1.4533    0.1781    0.0000 C   0  0  1  0  0  0  0  0  0  0  0  0
   -1.3647    1.0022    0.0000 H   0  0  0  0  0  0  0  0  0  0  0  0
   -2.1719    0.5917    0.0000 C   0  0  0  0  0  0  0  0  0  0  0  0
   -2.1719    1.4191    0.0000 O   0  0  0  0  0  0  0  0  0  0  0  0
   -2.8659    0.1631    0.0000 N   0  0  0  0  0  0  0  0  0  0  0  0
   -3.5901    0.5917    0.0000 C   0  0  2  0  0  0  0  0  0  0  0  0
   -3.3206    1.5018    0.0000 C   0  0  0  0  0  0  0  0  0  0  0  0
   -2.6704    1.7214    0.0000 O   0  0  0  0  0  0  0  0  0  0  0  0
   -3.9149    2.0740    0.0000 N   0  0  0  0  0  0  0  0  0  0  0  0
   -3.7164    2.8749    0.0000 S   0  0  0  0  0  0  0  0  0  0  0  0
   -2.9156    2.6764    0.0000 O   0  0  0  0  0  0  0  0  0  0  0  0
   -3.5180    3.6757    0.0000 C   0  0  0  0  0  0  0  0  0  0  0  0
   -3.7464    4.4684    0.0000 C   0  0  0  0  0  0  0  0  0  0  0  0
   -2.9456    4.2699    0.0000 C   0  0  0  0  0  0  0  0  0  0  0  0
   -4.5173    3.0733    0.0000 O   0  0  0  0  0  0  0  0  0  0  0  0
   -4.2001    1.0269    0.0000 C   0  0  0  0  0  0  0  0  0  0  0  0
   -4.3041    0.1783    0.0000 C   0  0  1  0  0  0  0  0  0  0  0  0
   -4.8946   -0.3127    0.0000 H   0  0  0  0  0  0  0  0  0  0  0  0
   -5.0227    0.5919    0.0000 C   0  0  0  0  0  0  0  0  0  0  0  0
   -5.7269    0.1783    0.0000 C   0  0  0  0  0  0  0  0  0  0  0  0
   -5.7269   -0.6442    0.0000 C   0  0  0  0  0  0  0  0  0  0  0  0
   -5.0227   -1.0530    0.0000 C   0  0  0  0  0  0  0  0  0  0  0  0
   -4.3041   -0.6442    0.0000 C   0  0  0  0  0  0  0  0  0  0  0  0
   -3.5901   -1.0530    0.0000 C   0  0  0  0  0  0  0  0  0  0  0  0
   -3.8076   -1.9970    0.0000 H   0  0  0  0  0  0  0  0  0  0  0  0
   -1.9544   -1.9970    0.0000 H   0  0  0  0  0  0  0  0  0  0  0  0
   -2.8810   -2.5320    0.0000 H   0  0  0  0  0  0  0  0  0  0  0  0
   -0.3322   -1.9102    0.0000 H   0  0  0  0  0  0  0  0  0  0  0  0
    0.3899   -1.0577    0.0000 H   0  0  0  0  0  0  0  0  0  0  0  0
    0.3020   -1.1790    0.0000 H   0  0  0  0  0  0  0  0  0  0  0  0
   -0.7602   -0.7477    0.0000 H   0  0  0  0  0  0  0  0  0  0  0  0
   -1.7508   -2.2444    0.0000 H   0  0  0  0  0  0  0  0  0  0  0  0
   -0.8767   -5.3973    0.0000 H   0  0  0  0  0  0  0  0  0  0  0  0
    0.7243   -4.4638    0.0000 H   0  0  0  0  0  0  0  0  0  0  0  0
    0.1933   -5.3927    0.0000 H   0  0  0  0  0  0  0  0  0  0  0  0
    0.3493   -4.6842    0.0000 H   0  0  0  0  0  0  0  0  0  0  0  0
    1.9574   -3.7630    0.0000 H   0  0  0  0  0  0  0  0  0  0  0  0
    1.4193   -4.6878    0.0000 H   0  0  0  0  0  0  0  0  0  0  0  0
    5.1296   -0.7326    0.0000 H   0  0  0  0  0  0  0  0  0  0  0  0
    5.9379   -3.1138    0.0000 H   0  0  0  0  0  0  0  0  0  0  0  0
    4.0848   -3.9930    0.0000 H   0  0  0  0  0  0  0  0  0  0  0  0
    5.9380   -3.9930    0.0000 H   0  0  0  0  0  0  0  0  0  0  0  0
    5.0114   -4.5280    0.0000 H   0  0  0  0  0  0  0  0  0  0  0  0
    6.6533   -2.7013    0.0000 H   0  0  0  0  0  0  0  0  0  0  0  0
    5.7273   -1.0959    0.0000 H   0  0  0  0  0  0  0  0  0  0  0  0
    6.6538   -1.6313    0.0000 H   0  0  0  0  0  0  0  0  0  0  0  0
    2.3997   -0.1606    0.0000 H   0  0  0  0  0  0  0  0  0  0  0  0
   -0.3380    1.4508    0.0000 H   0  0  0  0  0  0  0  0  0  0  0  0
   -1.4240    1.1892    0.0000 H   0  0  0  0  0  0  0  0  0  0  0  0
   -2.8566   -0.8214    0.0000 H   0  0  0  0  0  0  0  0  0  0  0  0
   -4.8609    1.8013    0.0000 H   0  0  0  0  0  0  0  0  0  0  0  0
   -3.2604    4.7142    0.0000 H   0  0  0  0  0  0  0  0  0  0  0  0
   -4.5171    5.2107    0.0000 H   0  0  0  0  0  0  0  0  0  0  0  0
   -3.2289    5.4049    0.0000 H   0  0  0  0  0  0  0  0  0  0  0  0
   -1.9174    4.5662    0.0000 H   0  0  0  0  0  0  0  0  0  0  0  0
   -2.3933    3.3534    0.0000 H   0  0  0  0  0  0  0  0  0  0  0  0
   -4.6311    2.0063    0.0000 H   0  0  0  0  0  0  0  0  0  0  0  0
   -5.2587    0.8709    0.0000 H   0  0  0  0  0  0  0  0  0  0  0  0
   -5.0272    1.6239    0.0000 H   0  0  0  0  0  0  0  0  0  0  0  0
   -6.6226    0.6910    0.0000 H   0  0  0  0  0  0  0  0  0  0  0  0
   -6.6542   -1.1781    0.0000 H   0  0  0  0  0  0  0  0  0  0  0  0
   -5.7288   -1.7142    0.0000 H   0  0  0  0  0  0  0  0  0  0  0  0
   -5.0274   -2.1230    0.0000 H   0  0  0  0  0  0  0  0  0  0  0  0
   -4.0989   -1.5930    0.0000 H   0  0  0  0  0  0  0  0  0  0  0  0
   -4.3026    0.4258    0.0000 H   0  0  0  0  0  0  0  0  0  0  0  0
   -3.3780   -0.1082    0.0000 H   0  0  0  0  0  0  0  0  0  0  0  0
   -3.5886   -2.1230    0.0000 H   0  0  0  0  0  0  0  0  0  0  0  0
   -2.6633   -1.5877    0.0000 H   0  0  0  0  0  0  0  0  0  0  0  0
  1 56  1  0  0  0  0
  1 57  1  0  0  0  0
  1 58  1  0  0  0  0
  2  1  1  0  0  0  0
  2  3  1  0  0  0  0
  3  4  2  0  0  0  0
  3  5  1  0  0  0  0
  5  6  1  6  0  0  0
  5  7  1  0  0  0  0
  5 32  1  0  0  0  0
  7 59  1  0  0  0  0
  7 60  1  0  0  0  0
  8  7  1  0  0  0  0
  8  9  1  0  0  0  0
  8 61  1  6  0  0  0
  9 10  1  0  0  0  0
 10 11  1  0  0  0  0
 11 12  1  0  0  0  0
 11 19  2  0  0  0  0
 12 13  2  0  0  0  0
 12 62  1  0  0  0  0
 13 14  1  0  0  0  0
 13 63  1  0  0  0  0
 14 15  1  0  0  0  0
 14 17  2  0  0  0  0
 15 16  1  0  0  0  0
 16 64  1  0  0  0  0
 16 65  1  0  0  0  0
 16 66  1  0  0  0  0
 17 18  1  0  0  0  0
 18 67  1  0  0  0  0
 18 68  1  0  0  0  0
 18 69  1  0  0  0  0
 19 17  1  0  0  0  0
 19 20  1  0  0  0  0
 20 21  2  0  0  0  0
 21 22  1  0  0  0  0
 21 30  1  0  0  0  0
 22 23  1  0  0  0  0
 24 23  1  0  0  0  0
 24 70  1  0  0  0  0
 25 24  2  0  0  0  0
 25 26  1  0  0  0  0
 26 27  1  0  0  0  0
 26 28  1  0  0  0  0
 26 71  1  0  0  0  0
 27 72  1  0  0  0  0
 27 73  1  0  0  0  0
 27 74  1  0  0  0  0
 28 75  1  0  0  0  0
 28 76  1  0  0  0  0
 28 77  1  0  0  0  0
 29 25  1  0  0  0  0
 29 22  2  0  0  0  0
 30 10  2  0  0  0  0
 30 78  1  0  0  0  0
 31  8  1  0  0  0  0
 31 79  1  0  0  0  0
 31 80  1  0  0  0  0
 32 31  1  0  0  0  0
 32 33  1  1  0  0  0
 32 34  1  0  0  0  0
 34 35  2  0  0  0  0
 36 34  1  0  0  0  0
 36 37  1  0  0  0  0
 36 81  1  0  0  0  0
 37 38  1  6  0  0  0
 37 47  1  0  0  0  0
 38 39  2  0  0  0  0
 38 40  1  0  0  0  0
 40 41  1  0  0  0  0
 40 82  1  0  0  0  0
 41 42  2  0  0  0  0
 41 43  1  0  0  0  0
 41 46  2  0  0  0  0
 43 44  1  0  0  0  0
 43 45  1  0  0  0  0
 43 83  1  0  0  0  0
 44 45  1  0  0  0  0
 44 84  1  0  0  0  0
 44 85  1  0  0  0  0
 45 86  1  0  0  0  0
 45 87  1  0  0  0  0
 47 88  1  0  0  0  0
 47 89  1  0  0  0  0
 48 47  1  0  0  0  0
 48 49  1  1  0  0  0
 48 50  1  0  0  0  0
 48 37  1  0  0  0  0
 50 90  1  0  0  0  0
 51 50  2  0  0  0  0
 51 52  1  0  0  0  0
 51 91  1  0  0  0  0
 52 53  1  0  0  0  0
 52 92  1  0  0  0  0
 52 93  1  0  0  0  0
 53 54  1  0  0  0  0
 53 94  1  0  0  0  0
 53 95  1  0  0  0  0
 54 55  1  0  0  0  0
 54 96  1  0  0  0  0
 54 97  1  0  0  0  0
 55  2  1  0  0  0  0
 55 98  1  0  0  0  0
 55 99  1  0  0  0  0
M  END
>  <DRUGBANK_ID>
DB06290

>  <COMMON_NAME>
Simeprevir

>  <CAS_NUMBER>
923604-59-5

>  <UNII>
9WS5RD66HZ

>  <SYNONYMS>
Simeprevir

$$$$
