
 OpenBabel10282417072D

 47 49  0  0  0  0  0  0  0  0999 V2000
    0.7145    0.4125    0.0000 C   0  0  0  0  0  0  0  0  0  0  0  0
    0.7145   -0.4125    0.0000 C   0  0  0  0  0  0  0  0  0  0  0  0
   -0.7145    0.4125    0.0000 C   0  0  0  0  0  0  0  0  0  0  0  0
   -0.7145   -0.4125    0.0000 C   0  0  0  0  0  0  0  0  0  0  0  0
   -1.4289    0.8250    0.0000 C   0  0  0  0  0  0  0  0  0  0  0  0
   -1.4289   -0.8250    0.0000 C   0  0  0  0  0  0  0  0  0  0  0  0
   -2.1434   -0.4125    0.0000 C   0  0  0  0  0  0  0  0  0  0  0  0
   -2.1434    0.4125    0.0000 C   0  0  0  0  0  0  0  0  0  0  0  0
    2.1434    0.4125    0.0000 C   0  0  0  0  0  0  0  0  0  0  0  0
    0.0000   -0.8250    0.0000 N   0  0  0  0  0  0  0  0  0  0  0  0
    1.4289    0.8250    0.0000 N   0  0  0  0  0  0  0  0  0  0  0  0
    1.4289   -0.8250    0.0000 C   0  0  0  0  0  0  0  0  0  0  0  0
    1.4289   -1.6500    0.0000 O   0  0  0  0  0  0  0  0  0  0  0  0
    2.8579    0.8250    0.0000 O   0  0  0  0  0  0  0  0  0  0  0  0
    2.1434   -0.4125    0.0000 N   0  0  0  0  0  0  0  0  0  0  0  0
    0.0000    0.8250    0.0000 N   0  0  0  0  0  0  0  0  0  0  0  0
    0.0000    1.6500    0.0000 C   0  0  0  0  0  0  0  0  0  0  0  0
   -0.7145    2.0625    0.0000 C   0  0  1  0  0  0  0  0  0  0  0  0
   -0.7145    2.8875    0.0000 C   0  0  1  0  0  0  0  0  0  0  0  0
   -1.4289    1.6500    0.0000 O   0  0  0  0  0  0  0  0  0  0  0  0
   -1.4289    3.3000    0.0000 C   0  0  1  0  0  0  0  0  0  0  0  0
    0.0000    3.3000    0.0000 O   0  0  0  0  0  0  0  0  0  0  0  0
   -1.4289    4.1250    0.0000 C   0  0  0  0  0  0  0  0  0  0  0  0
   -2.1434    2.8875    0.0000 O   0  0  0  0  0  0  0  0  0  0  0  0
   -2.1434    4.5375    0.0000 O   0  0  0  0  0  0  0  0  0  0  0  0
   -2.8579    0.8250    0.0000 C   0  0  0  0  0  0  0  0  0  0  0  0
   -2.8579   -0.8250    0.0000 C   0  0  0  0  0  0  0  0  0  0  0  0
   -1.4289    1.8570    0.0000 H   0  0  0  0  0  0  0  0  0  0  0  0
   -1.4289   -1.8570    0.0000 H   0  0  0  0  0  0  0  0  0  0  0  0
    2.9960   -0.9048    0.0000 H   0  0  0  0  0  0  0  0  0  0  0  0
    0.9266    2.1850    0.0000 H   0  0  0  0  0  0  0  0  0  0  0  0
   -0.0000    2.7200    0.0000 H   0  0  0  0  0  0  0  0  0  0  0  0
   -0.7145    0.9925    0.0000 H   0  0  0  0  0  0  0  0  0  0  0  0
    0.2121    2.3525    0.0000 H   0  0  0  0  0  0  0  0  0  0  0  0
   -2.2690    2.1350    0.0000 H   0  0  0  0  0  0  0  0  0  0  0  0
   -1.4289    2.2300    0.0000 H   0  0  0  0  0  0  0  0  0  0  0  0
    0.8400    2.8150    0.0000 H   0  0  0  0  0  0  0  0  0  0  0  0
   -0.5023    4.6600    0.0000 H   0  0  0  0  0  0  0  0  0  0  0  0
   -1.4289    5.1950    0.0000 H   0  0  0  0  0  0  0  0  0  0  0  0
   -2.9834    3.3725    0.0000 H   0  0  0  0  0  0  0  0  0  0  0  0
   -2.1434    5.5075    0.0000 H   0  0  0  0  0  0  0  0  0  0  0  0
   -2.8579    1.8950    0.0000 H   0  0  0  0  0  0  0  0  0  0  0  0
   -3.7845    0.2900    0.0000 H   0  0  0  0  0  0  0  0  0  0  0  0
   -3.7846    1.3600    0.0000 H   0  0  0  0  0  0  0  0  0  0  0  0
   -3.7845   -0.2900    0.0000 H   0  0  0  0  0  0  0  0  0  0  0  0
   -2.8579   -1.8950    0.0000 H   0  0  0  0  0  0  0  0  0  0  0  0
   -3.7846   -1.3600    0.0000 H   0  0  0  0  0  0  0  0  0  0  0  0
  2  1  1  0  0  0  0
  2 12  1  0  0  0  0
  3  4  1  0  0  0  0
  4 10  1  0  0  0  0
  5  3  2  0  0  0  0
  5  8  1  0  0  0  0
  5 28  1  0  0  0  0
  6  4  2  0  0  0  0
  6 29  1  0  0  0  0
  7  6  1  0  0  0  0
  7 27  1  0  0  0  0
  8  7  2  0  0  0  0
  8 26  1  0  0  0  0
  9 14  2  0  0  0  0
 10  2  2  0  0  0  0
 11  1  2  0  0  0  0
 11  9  1  0  0  0  0
 12 15  1  0  0  0  0
 12 13  2  0  0  0  0
 15  9  1  0  0  0  0
 15 30  1  0  0  0  0
 16  3  1  0  0  0  0
 16  1  1  0  0  0  0
 16 17  1  0  0  0  0
 17 18  1  0  0  0  0
 17 31  1  0  0  0  0
 17 32  1  0  0  0  0
 18 19  1  0  0  0  0
 18 20  1  0  0  0  0
 18 33  1  1  0  0  0
 19 21  1  0  0  0  0
 19 22  1  0  0  0  0
 19 34  1  6  0  0  0
 20 35  1  0  0  0  0
 21 23  1  0  0  0  0
 21 24  1  0  0  0  0
 21 36  1  1  0  0  0
 22 37  1  0  0  0  0
 23 25  1  0  0  0  0
 23 38  1  0  0  0  0
 23 39  1  0  0  0  0
 24 40  1  0  0  0  0
 25 41  1  0  0  0  0
 26 42  1  0  0  0  0
 26 43  1  0  0  0  0
 26 44  1  0  0  0  0
 27 45  1  0  0  0  0
 27 46  1  0  0  0  0
 27 47  1  0  0  0  0
M  END
>  <DRUGBANK_ID>
DB00140

>  <SECONDARY_ACCESSION_NUMBERS>
NUTR00010; APRD00626; EXPT02760; DB09358

>  <COMMON_NAME>
Riboflavin

>  <CAS_NUMBER>
83-88-5

>  <UNII>
TLM2976OFR

>  <SYNONYMS>
1-Deoxy-1-(7,8-dimethyl-2,4-dioxo-3,4-dihydrobenzo[g]pteridin-10(2H)-yl)pentitol; 6,7-Dimethyl-9-D-ribitylisoalloxazine; 7,8-Dimethyl-10-(D-ribo-2,3,4,5-tetrahydroxypentyl)isoalloxazine; 7,8-Dimethyl-10-ribitylisoalloxazine; Lactoflavin; Lactoflavine; Riboflavin; Riboflavina; Riboflavine; Riboflavinum; Vitamin B2; Vitamin Bi; Vitamin G

$$$$
