Cytidine monophosphate.mol
 OpenBabel10282417072D

 35 36  0  0  0  0  0  0  0  0999 V2000
   -1.5793   -0.7219    0.0000 C   0  0  0  0  0  0  0  0  0  0  0  0
   -0.8649   -0.3094    0.0000 C   0  0  2  0  0  0  0  0  0  0  0  0
   -0.7786    0.5111    0.0000 C   0  0  1  0  0  0  0  0  0  0  0  0
   -1.3917    1.0632    0.0000 O   0  0  0  0  0  0  0  0  0  0  0  0
    0.0283    0.6827    0.0000 C   0  0  1  0  0  0  0  0  0  0  0  0
    0.3639    1.4363    0.0000 O   0  0  0  0  0  0  0  0  0  0  0  0
    0.4408   -0.0318    0.0000 C   0  0  1  0  0  0  0  0  0  0  0  0
   -0.1112   -0.6449    0.0000 O   0  0  0  0  0  0  0  0  0  0  0  0
    1.2613   -0.1181    0.0000 N   0  0  0  0  0  0  0  0  0  0  0  0
    1.7462    0.5494    0.0000 C   0  0  0  0  0  0  0  0  0  0  0  0
    1.4107    1.3031    0.0000 O   0  0  0  0  0  0  0  0  0  0  0  0
    2.5667    0.4631    0.0000 N   0  0  0  0  0  0  0  0  0  0  0  0
    2.9023   -0.2905    0.0000 C   0  0  0  0  0  0  0  0  0  0  0  0
    3.7228   -0.3768    0.0000 N   0  0  0  0  0  0  0  0  0  0  0  0
    2.4174   -0.9580    0.0000 C   0  0  0  0  0  0  0  0  0  0  0  0
    1.5969   -0.8717    0.0000 C   0  0  0  0  0  0  0  0  0  0  0  0
   -3.0083   -0.7219    0.0000 P   0  0  0  0  0  0  0  0  0  0  0  0
   -2.5958   -1.4363    0.0000 O   0  0  0  0  0  0  0  0  0  0  0  0
   -2.2938   -0.3094    0.0000 O   0  0  0  0  0  0  0  0  0  0  0  0
   -3.7228   -1.1344    0.0000 O   0  0  0  0  0  0  0  0  0  0  0  0
   -3.4208   -0.0074    0.0000 O   0  0  0  0  0  0  0  0  0  0  0  0
   -1.5793   -1.7919    0.0000 H   0  0  0  0  0  0  0  0  0  0  0  0
   -2.5059   -1.2569    0.0000 H   0  0  0  0  0  0  0  0  0  0  0  0
   -1.7623    0.2734    0.0000 H   0  0  0  0  0  0  0  0  0  0  0  0
   -1.7776    0.1277    0.0000 H   0  0  0  0  0  0  0  0  0  0  0  0
   -1.1900    2.0120    0.0000 H   0  0  0  0  0  0  0  0  0  0  0  0
   -0.6451    1.5142    0.0000 H   0  0  0  0  0  0  0  0  0  0  0  0
    1.3286    1.5376    0.0000 H   0  0  0  0  0  0  0  0  0  0  0  0
   -0.6233    0.0800    0.0000 H   0  0  0  0  0  0  0  0  0  0  0  0
    4.1232   -1.2762    0.0000 H   0  0  0  0  0  0  0  0  0  0  0  0
    4.3015    0.4196    0.0000 H   0  0  0  0  0  0  0  0  0  0  0  0
    2.8371   -1.9008    0.0000 H   0  0  0  0  0  0  0  0  0  0  0  0
    0.9903   -1.7066    0.0000 H   0  0  0  0  0  0  0  0  0  0  0  0
   -4.5628   -0.6494    0.0000 H   0  0  0  0  0  0  0  0  0  0  0  0
   -2.9358    0.8326    0.0000 H   0  0  0  0  0  0  0  0  0  0  0  0
  1 19  1  0  0  0  0
  1 22  1  0  0  0  0
  1 23  1  0  0  0  0
  2  1  1  0  0  0  0
  2  3  1  0  0  0  0
  2  8  1  0  0  0  0
  2 24  1  1  0  0  0
  3  4  1  0  0  0  0
  3  5  1  0  0  0  0
  3 25  1  6  0  0  0
  4 26  1  0  0  0  0
  5  6  1  0  0  0  0
  5  7  1  0  0  0  0
  5 27  1  6  0  0  0
  6 28  1  0  0  0  0
  7  8  1  0  0  0  0
  7  9  1  0  0  0  0
  7 29  1  1  0  0  0
  9 10  1  0  0  0  0
  9 16  1  0  0  0  0
 10 11  2  0  0  0  0
 10 12  1  0  0  0  0
 12 13  2  0  0  0  0
 13 14  1  0  0  0  0
 13 15  1  0  0  0  0
 14 30  1  0  0  0  0
 14 31  1  0  0  0  0
 15 16  2  0  0  0  0
 15 32  1  0  0  0  0
 16 33  1  0  0  0  0
 17 18  2  0  0  0  0
 17 19  1  0  0  0  0
 17 20  1  0  0  0  0
 17 21  1  0  0  0  0
 20 34  1  0  0  0  0
 21 35  1  0  0  0  0
M  END
>  <DRUGBANK_ID>
DB03403

>  <SECONDARY_ACCESSION_NUMBERS>
EXPT00796

>  <COMMON_NAME>
Cytidine-5'-Monophosphate

>  <CAS_NUMBER>
63-37-6

>  <UNII>
F469818O25

>  <SYNONYMS>
5'-CMP; CMP; Cytidine monophosphate; cytidylate; Cytidylic acid; pC

$$$$
