
 OpenBabel10282417072D

  3  2  0  0  0  0  0  0  0  0999 V2000
    1.6500    0.0000    0.0000 S   0  0  0  0  0  0  0  0  0  0  0  0
    2.4750    0.0000    0.0000 Se  0  0  0  0  0  0  0  0  0  0  0  0
    3.3000    0.0000    0.0000 S   0  0  0  0  0  0  0  0  0  0  0  0
  1  2  2  0  0  0  0
  2  3  2  0  0  0  0
M  END
>  <DRUGBANK_ID>
DB00971

>  <SECONDARY_ACCESSION_NUMBERS>
APRD01323

>  <COMMON_NAME>
Selenium Sulfide

>  <CAS_NUMBER>
7488-56-4

>  <UNII>
Z69D9E381Q

>  <SYNONYMS>
Selenii disulfidum; Selenium disulfide; Selenium disulphide; Selenium Sulfide; Selenium sulfide, micronized; Selenium sulphide; Selenium sulphide, micronized; Selenium(IV) disulfide; Selenium(IV) disulphide; Selenium(IV) sulfide; Selenium(IV) sulphide

$$$$
