440
 OpenBabel10282417072D

 39 40  0  0  0  0  0  0  0  0999 V2000
    6.3799    1.6995    0.0000 O   0  0  0  0  0  0  0  0  0  0  0  0
    3.5220    1.6995    0.0000 O   0  0  0  0  0  0  0  0  0  0  0  0
    4.9509    2.5246    0.0000 O   0  0  0  0  0  0  0  0  0  0  0  0
    3.5220   -2.4256    0.0000 N   0  0  0  0  0  0  0  0  0  0  0  0
    2.8075   -1.1880    0.0000 N   0  0  0  0  0  0  0  0  0  0  0  0
    4.9509   -2.4256    0.0000 N   0  0  0  0  0  0  0  0  0  0  0  0
    2.0930   -2.4256    0.0000 N   0  0  0  0  0  0  0  0  0  0  0  0
    4.9509   -0.7755    0.0000 C   0  0  0  0  0  0  0  0  0  0  0  0
    4.9509    0.0495    0.0000 C   0  0  0  0  0  0  0  0  0  0  0  0
    4.2365   -1.1880    0.0000 C   0  0  0  0  0  0  0  0  0  0  0  0
    4.2365    0.4620    0.0000 C   0  0  0  0  0  0  0  0  0  0  0  0
    5.6655    0.4620    0.0000 C   0  0  0  0  0  0  0  0  0  0  0  0
    5.6655    1.2870    0.0000 C   0  0  0  0  0  0  0  0  0  0  0  0
    4.2365    1.2870    0.0000 C   0  0  0  0  0  0  0  0  0  0  0  0
    4.9509    1.6995    0.0000 C   0  0  0  0  0  0  0  0  0  0  0  0
    4.2365   -2.0130    0.0000 C   0  0  0  0  0  0  0  0  0  0  0  0
    3.5220   -0.7755    0.0000 C   0  0  0  0  0  0  0  0  0  0  0  0
    2.8075   -2.0130    0.0000 C   0  0  0  0  0  0  0  0  0  0  0  0
    7.0944    1.2870    0.0000 C   0  0  0  0  0  0  0  0  0  0  0  0
    2.8075    1.2870    0.0000 C   0  0  0  0  0  0  0  0  0  0  0  0
    5.6655    2.9371    0.0000 C   0  0  0  0  0  0  0  0  0  0  0  0
    4.9508   -3.4101    0.0000 H   0  0  0  0  0  0  0  0  0  0  0  0
    5.8036   -1.9335    0.0000 H   0  0  0  0  0  0  0  0  0  0  0  0
    1.2404   -1.9334    0.0000 H   0  0  0  0  0  0  0  0  0  0  0  0
    2.0931   -3.4101    0.0000 H   0  0  0  0  0  0  0  0  0  0  0  0
    5.8776   -1.3105    0.0000 H   0  0  0  0  0  0  0  0  0  0  0  0
    4.9509   -1.8455    0.0000 H   0  0  0  0  0  0  0  0  0  0  0  0
    3.3428   -0.0540    0.0000 H   0  0  0  0  0  0  0  0  0  0  0  0
    6.5592   -0.0540    0.0000 H   0  0  0  0  0  0  0  0  0  0  0  0
    3.5220    0.2565    0.0000 H   0  0  0  0  0  0  0  0  0  0  0  0
    7.0944    0.2170    0.0000 H   0  0  0  0  0  0  0  0  0  0  0  0
    8.0210    1.8220    0.0000 H   0  0  0  0  0  0  0  0  0  0  0  0
    8.0211    0.7520    0.0000 H   0  0  0  0  0  0  0  0  0  0  0  0
    1.8809    1.8220    0.0000 H   0  0  0  0  0  0  0  0  0  0  0  0
    2.8075    0.2170    0.0000 H   0  0  0  0  0  0  0  0  0  0  0  0
    1.8808    0.7520    0.0000 H   0  0  0  0  0  0  0  0  0  0  0  0
    6.5921    2.4020    0.0000 H   0  0  0  0  0  0  0  0  0  0  0  0
    5.6656    4.0071    0.0000 H   0  0  0  0  0  0  0  0  0  0  0  0
    6.5922    3.4720    0.0000 H   0  0  0  0  0  0  0  0  0  0  0  0
  1 13  1  0  0  0  0
  1 19  1  0  0  0  0
  2 14  1  0  0  0  0
  2 20  1  0  0  0  0
  3 15  1  0  0  0  0
  3 21  1  0  0  0  0
  4 16  2  0  0  0  0
  4 18  1  0  0  0  0
  5 17  1  0  0  0  0
  5 18  2  0  0  0  0
  6 16  1  0  0  0  0
  6 22  1  0  0  0  0
  6 23  1  0  0  0  0
  7 18  1  0  0  0  0
  7 24  1  0  0  0  0
  7 25  1  0  0  0  0
  8  9  1  0  0  0  0
  8 10  1  0  0  0  0
  8 26  1  0  0  0  0
  8 27  1  0  0  0  0
  9 11  2  0  0  0  0
  9 12  1  0  0  0  0
 10 16  1  0  0  0  0
 10 17  2  0  0  0  0
 11 14  1  0  0  0  0
 11 28  1  0  0  0  0
 12 13  2  0  0  0  0
 12 29  1  0  0  0  0
 13 15  1  0  0  0  0
 14 15  2  0  0  0  0
 17 30  1  0  0  0  0
 19 31  1  0  0  0  0
 19 32  1  0  0  0  0
 19 33  1  0  0  0  0
 20 34  1  0  0  0  0
 20 35  1  0  0  0  0
 20 36  1  0  0  0  0
 21 37  1  0  0  0  0
 21 38  1  0  0  0  0
 21 39  1  0  0  0  0
M  END
>  <DRUGBANK_ID>
DB00440

>  <SECONDARY_ACCESSION_NUMBERS>
APRD00103

>  <COMMON_NAME>
Trimethoprim

>  <CAS_NUMBER>
738-70-5

>  <UNII>
AN164J8Y0X

>  <SYNONYMS>
2,4-diamino-5-(3,4,5-trimethoxybenzyl)pyrimidine; 5-[(3,4,5-trimethoxyphenyl)methyl]-2,4-pyrimidinediamine; Trimethoprim; Trim√©thoprime; Trimethoprimum; Trimetoprima

$$$$
