205
 OpenBabel10282417072D

 30 31  0  0  0  0  0  0  0  0999 V2000
    3.5220    3.0154    0.0000 Cl  0  0  0  0  0  0  0  0  0  0  0  0
    4.2365   -1.5222    0.0000 N   0  0  0  0  0  0  0  0  0  0  0  0
    2.8075   -1.5222    0.0000 N   0  0  0  0  0  0  0  0  0  0  0  0
    2.0930   -0.2846    0.0000 N   0  0  0  0  0  0  0  0  0  0  0  0
    3.5220   -2.7597    0.0000 N   0  0  0  0  0  0  0  0  0  0  0  0
    3.5220   -0.2846    0.0000 C   0  0  0  0  0  0  0  0  0  0  0  0
    4.2365   -0.6971    0.0000 C   0  0  0  0  0  0  0  0  0  0  0  0
    4.9509   -0.2846    0.0000 C   0  0  0  0  0  0  0  0  0  0  0  0
    3.5220    0.5404    0.0000 C   0  0  0  0  0  0  0  0  0  0  0  0
    2.8075   -0.6971    0.0000 C   0  0  0  0  0  0  0  0  0  0  0  0
    2.8075    0.9529    0.0000 C   0  0  0  0  0  0  0  0  0  0  0  0
    4.2365    0.9529    0.0000 C   0  0  0  0  0  0  0  0  0  0  0  0
    5.6655   -0.6971    0.0000 C   0  0  0  0  0  0  0  0  0  0  0  0
    3.5220   -1.9347    0.0000 C   0  0  0  0  0  0  0  0  0  0  0  0
    2.8075    1.7779    0.0000 C   0  0  0  0  0  0  0  0  0  0  0  0
    4.2365    1.7779    0.0000 C   0  0  0  0  0  0  0  0  0  0  0  0
    3.5220    2.1904    0.0000 C   0  0  0  0  0  0  0  0  0  0  0  0
    2.0930    0.6999    0.0000 H   0  0  0  0  0  0  0  0  0  0  0  0
    1.2404   -0.7769    0.0000 H   0  0  0  0  0  0  0  0  0  0  0  0
    2.6694   -3.2520    0.0000 H   0  0  0  0  0  0  0  0  0  0  0  0
    4.3746   -3.2519    0.0000 H   0  0  0  0  0  0  0  0  0  0  0  0
    4.9508    0.7854    0.0000 H   0  0  0  0  0  0  0  0  0  0  0  0
    5.8775    0.2505    0.0000 H   0  0  0  0  0  0  0  0  0  0  0  0
    1.9138    0.4369    0.0000 H   0  0  0  0  0  0  0  0  0  0  0  0
    5.1302    0.4369    0.0000 H   0  0  0  0  0  0  0  0  0  0  0  0
    5.6656   -1.7671    0.0000 H   0  0  0  0  0  0  0  0  0  0  0  0
    6.5921   -0.1620    0.0000 H   0  0  0  0  0  0  0  0  0  0  0  0
    6.5922   -1.2320    0.0000 H   0  0  0  0  0  0  0  0  0  0  0  0
    1.9138    2.2939    0.0000 H   0  0  0  0  0  0  0  0  0  0  0  0
    5.1302    2.2939    0.0000 H   0  0  0  0  0  0  0  0  0  0  0  0
  1 17  1  0  0  0  0
  2  7  1  0  0  0  0
  2 14  2  0  0  0  0
  3 10  2  0  0  0  0
  3 14  1  0  0  0  0
  4 10  1  0  0  0  0
  4 18  1  0  0  0  0
  4 19  1  0  0  0  0
  5 14  1  0  0  0  0
  5 20  1  0  0  0  0
  5 21  1  0  0  0  0
  6  7  2  0  0  0  0
  6  9  1  0  0  0  0
  6 10  1  0  0  0  0
  7  8  1  0  0  0  0
  8 13  1  0  0  0  0
  8 22  1  0  0  0  0
  8 23  1  0  0  0  0
  9 11  2  0  0  0  0
  9 12  1  0  0  0  0
 11 15  1  0  0  0  0
 11 24  1  0  0  0  0
 12 16  2  0  0  0  0
 12 25  1  0  0  0  0
 13 26  1  0  0  0  0
 13 27  1  0  0  0  0
 13 28  1  0  0  0  0
 15 17  2  0  0  0  0
 15 29  1  0  0  0  0
 16 17  1  0  0  0  0
 16 30  1  0  0  0  0
M  END
>  <DRUGBANK_ID>
DB00205

>  <SECONDARY_ACCESSION_NUMBERS>
APRD00599

>  <COMMON_NAME>
Pyrimethamine

>  <CAS_NUMBER>
58-14-0

>  <UNII>
Z3614QOX8W

>  <SYNONYMS>
2,4-Diamino-5-(4-chlorophenyl)-6-ethylpyrimidine; 2,4-Diamino-5-(P-chlorophenyl)-6-ethylpyrimidine; 2,4-Diamino-5-chlorophenyl-6-ethylpyrimidine; 5-(4-Chlorophenyl)-6-ethyl-2,4-diaminopyrimidine; 5-(4-Chlorophenyl)-6-ethyl-2,4-pyrimidinediamine; 5-(4'-Chlorophenyl)-2,4-diamino-6-ethylpyrimidine; CD; Chloridine; Chloridyn; Diaminopyritamin; Ethylpyrimidine; Pirimetamina; Primethamine; Pyrimethamine; Pyrim√©thamine; Pyrimethaminum

$$$$
