LLG
 OpenBabel10282417072D

 32 33  0  0  0  0  0  0  0  0999 V2000
   -3.5205   -0.1667    0.0000 N   0  0  0  0  0  0  0  0  0  0  0  0
   -2.0916   -0.1667    0.0000 C   0  0  0  0  0  0  0  0  0  0  0  0
   -2.8061    0.2458    0.0000 C   0  0  0  0  0  0  0  0  0  0  0  0
    0.0518    0.2458    0.0000 C   0  0  0  0  0  0  0  0  0  0  0  0
   -0.6626   -0.1667    0.0000 C   0  0  0  0  0  0  0  0  0  0  0  0
    2.1952    1.4833    0.0000 C   0  0  0  0  0  0  0  0  0  0  0  0
    2.1952   -0.1667    0.0000 C   0  0  0  0  0  0  0  0  0  0  0  0
    0.7663   -0.1667    0.0000 C   0  0  0  0  0  0  0  0  0  0  0  0
    1.4808   -1.4042    0.0000 C   0  0  0  0  0  0  0  0  0  0  0  0
   -1.3771    0.2458    0.0000 O   0  0  0  0  0  0  0  0  0  0  0  0
    0.7663   -0.9917    0.0000 C   0  0  0  0  0  0  0  0  0  0  0  0
    2.1952   -0.9917    0.0000 C   0  0  0  0  0  0  0  0  0  0  0  0
    1.4808    0.2458    0.0000 C   0  0  0  0  0  0  0  0  0  0  0  0
    1.4808    1.0708    0.0000 C   0  0  0  0  0  0  0  0  0  0  0  0
    2.9097    1.0708    0.0000 C   0  0  0  0  0  0  0  0  0  0  0  0
    2.9097    0.2458    0.0000 C   0  0  0  0  0  0  0  0  0  0  0  0
   -0.6626   -0.9917    0.0000 O   0  0  0  0  0  0  0  0  0  0  0  0
   -4.4039    0.3433    0.0000 H   0  0  0  0  0  0  0  0  0  0  0  0
   -3.5205   -1.1867    0.0000 H   0  0  0  0  0  0  0  0  0  0  0  0
   -2.0916   -1.2367    0.0000 H   0  0  0  0  0  0  0  0  0  0  0  0
   -1.1650   -0.7017    0.0000 H   0  0  0  0  0  0  0  0  0  0  0  0
   -2.8061    1.3158    0.0000 H   0  0  0  0  0  0  0  0  0  0  0  0
   -1.8795    0.7808    0.0000 H   0  0  0  0  0  0  0  0  0  0  0  0
    0.0518    1.3158    0.0000 H   0  0  0  0  0  0  0  0  0  0  0  0
    0.9784    0.7808    0.0000 H   0  0  0  0  0  0  0  0  0  0  0  0
    2.1952    2.5153    0.0000 H   0  0  0  0  0  0  0  0  0  0  0  0
    1.4808   -2.4362    0.0000 H   0  0  0  0  0  0  0  0  0  0  0  0
   -0.1274   -1.5077    0.0000 H   0  0  0  0  0  0  0  0  0  0  0  0
    3.0889   -1.5077    0.0000 H   0  0  0  0  0  0  0  0  0  0  0  0
    0.5871    1.5868    0.0000 H   0  0  0  0  0  0  0  0  0  0  0  0
    3.8034    1.5868    0.0000 H   0  0  0  0  0  0  0  0  0  0  0  0
    3.8034   -0.2702    0.0000 H   0  0  0  0  0  0  0  0  0  0  0  0
  1  3  1  0  0  0  0
  1 18  1  0  0  0  0
  1 19  1  0  0  0  0
  2  3  1  0  0  0  0
  2 10  1  0  0  0  0
  2 20  1  0  0  0  0
  2 21  1  0  0  0  0
  3 22  1  0  0  0  0
  3 23  1  0  0  0  0
  4  5  1  0  0  0  0
  4  8  1  0  0  0  0
  4 24  1  0  0  0  0
  4 25  1  0  0  0  0
  5 10  1  0  0  0  0
  5 17  2  0  0  0  0
  6 14  2  0  0  0  0
  6 15  1  0  0  0  0
  6 26  1  0  0  0  0
  7 12  2  0  0  0  0
  7 13  1  0  0  0  0
  7 16  1  0  0  0  0
  8 11  1  0  0  0  0
  8 13  2  0  0  0  0
  9 11  2  0  0  0  0
  9 12  1  0  0  0  0
  9 27  1  0  0  0  0
 11 28  1  0  0  0  0
 12 29  1  0  0  0  0
 13 14  1  0  0  0  0
 14 30  1  0  0  0  0
 15 16  2  0  0  0  0
 15 31  1  0  0  0  0
 16 32  1  0  0  0  0
M  END
>  <DRUGBANK_ID>
DB08115

>  <COMMON_NAME>
2-aminoethyl naphthalen-1-ylacetate

$$$$
