6JZ
 OpenBabel10282417072D

 43 42  0  0  0  0  0  0  0  0999 V2000
   -5.7162    0.2262    0.0000 C   0  0  0  0  0  0  0  0  0  0  0  0
   -5.0017   -0.1863    0.0000 C   0  0  0  0  0  0  0  0  0  0  0  0
   -4.2871    0.2262    0.0000 O   0  0  0  0  0  0  0  0  0  0  0  0
   -3.5727   -0.1863    0.0000 C   0  0  0  0  0  0  0  0  0  0  0  0
   -2.8581    0.2262    0.0000 C   0  0  0  0  0  0  0  0  0  0  0  0
   -2.1436   -0.1863    0.0000 O   0  0  0  0  0  0  0  0  0  0  0  0
   -1.4291    0.2262    0.0000 C   0  0  0  0  0  0  0  0  0  0  0  0
   -0.7146   -0.1863    0.0000 C   0  0  0  0  0  0  0  0  0  0  0  0
    0.0000    0.2262    0.0000 O   0  0  0  0  0  0  0  0  0  0  0  0
    0.7146   -0.1863    0.0000 C   0  0  0  0  0  0  0  0  0  0  0  0
    1.4290    0.2262    0.0000 C   0  0  0  0  0  0  0  0  0  0  0  0
    2.1436   -0.1863    0.0000 O   0  0  0  0  0  0  0  0  0  0  0  0
    2.8581    0.2262    0.0000 C   0  0  0  0  0  0  0  0  0  0  0  0
    3.5726   -0.1863    0.0000 C   0  0  0  0  0  0  0  0  0  0  0  0
    4.2871    0.2262    0.0000 O   0  0  0  0  0  0  0  0  0  0  0  0
    5.0017   -0.1863    0.0000 C   0  0  0  0  0  0  0  0  0  0  0  0
    5.7162    0.2262    0.0000 C   0  0  0  0  0  0  0  0  0  0  0  0
   -5.7162    1.2962    0.0000 H   0  0  0  0  0  0  0  0  0  0  0  0
   -6.6428   -0.3088    0.0000 H   0  0  0  0  0  0  0  0  0  0  0  0
   -6.6429    0.7612    0.0000 H   0  0  0  0  0  0  0  0  0  0  0  0
   -5.0017   -1.2563    0.0000 H   0  0  0  0  0  0  0  0  0  0  0  0
   -4.0751   -0.7214    0.0000 H   0  0  0  0  0  0  0  0  0  0  0  0
   -3.5728   -1.2563    0.0000 H   0  0  0  0  0  0  0  0  0  0  0  0
   -2.6461   -0.7214    0.0000 H   0  0  0  0  0  0  0  0  0  0  0  0
   -2.8581    1.2962    0.0000 H   0  0  0  0  0  0  0  0  0  0  0  0
   -1.9314    0.7612    0.0000 H   0  0  0  0  0  0  0  0  0  0  0  0
   -1.4291    1.2962    0.0000 H   0  0  0  0  0  0  0  0  0  0  0  0
   -0.5025    0.7612    0.0000 H   0  0  0  0  0  0  0  0  0  0  0  0
   -0.7146   -1.2563    0.0000 H   0  0  0  0  0  0  0  0  0  0  0  0
    0.2120   -0.7214    0.0000 H   0  0  0  0  0  0  0  0  0  0  0  0
    0.7147   -1.2563    0.0000 H   0  0  0  0  0  0  0  0  0  0  0  0
    1.6413   -0.7213    0.0000 H   0  0  0  0  0  0  0  0  0  0  0  0
    1.4289    1.2962    0.0000 H   0  0  0  0  0  0  0  0  0  0  0  0
    2.3556    0.7613    0.0000 H   0  0  0  0  0  0  0  0  0  0  0  0
    2.8581    1.2962    0.0000 H   0  0  0  0  0  0  0  0  0  0  0  0
    3.7847    0.7612    0.0000 H   0  0  0  0  0  0  0  0  0  0  0  0
    3.5726   -1.2563    0.0000 H   0  0  0  0  0  0  0  0  0  0  0  0
    4.4992   -0.7213    0.0000 H   0  0  0  0  0  0  0  0  0  0  0  0
    5.0017   -1.2563    0.0000 H   0  0  0  0  0  0  0  0  0  0  0  0
    5.9284   -0.7213    0.0000 H   0  0  0  0  0  0  0  0  0  0  0  0
    6.6428   -0.3088    0.0000 H   0  0  0  0  0  0  0  0  0  0  0  0
    5.7162    1.2962    0.0000 H   0  0  0  0  0  0  0  0  0  0  0  0
    6.6429    0.7612    0.0000 H   0  0  0  0  0  0  0  0  0  0  0  0
  1  2  1  0  0  0  0
  1 18  1  0  0  0  0
  1 19  1  0  0  0  0
  1 20  1  0  0  0  0
  2  3  1  0  0  0  0
  2 21  1  0  0  0  0
  2 22  1  0  0  0  0
  3  4  1  0  0  0  0
  4  5  1  0  0  0  0
  4 23  1  0  0  0  0
  4 24  1  0  0  0  0
  5  6  1  0  0  0  0
  5 25  1  0  0  0  0
  5 26  1  0  0  0  0
  6  7  1  0  0  0  0
  7  8  1  0  0  0  0
  7 27  1  0  0  0  0
  7 28  1  0  0  0  0
  8  9  1  0  0  0  0
  8 29  1  0  0  0  0
  8 30  1  0  0  0  0
  9 10  1  0  0  0  0
 10 11  1  0  0  0  0
 10 31  1  0  0  0  0
 10 32  1  0  0  0  0
 11 12  1  0  0  0  0
 11 33  1  0  0  0  0
 11 34  1  0  0  0  0
 12 13  1  0  0  0  0
 13 14  1  0  0  0  0
 13 35  1  0  0  0  0
 13 36  1  0  0  0  0
 14 15  1  0  0  0  0
 14 37  1  0  0  0  0
 14 38  1  0  0  0  0
 15 16  1  0  0  0  0
 16 17  1  0  0  0  0
 16 39  1  0  0  0  0
 16 40  1  0  0  0  0
 17 41  1  0  0  0  0
 17 42  1  0  0  0  0
 17 43  1  0  0  0  0
M  END
>  <DRUGBANK_ID>
DB02343

>  <SECONDARY_ACCESSION_NUMBERS>
EXPT02478

>  <COMMON_NAME>
3,6,9,12,15-Pentaoxaheptadecane

>  <CAS_NUMBER>
4353-28-0

>  <UNII>
XO8API468S

$$$$
