
 OpenBabel10282417072D

 48 50  0  0  0  0  0  0  0  0999 V2000
    1.8313   -4.2715    0.0000 C   0  0  0  0  0  0  0  0  0  0  0  0
    1.8313   -5.0965    0.0000 C   0  0  0  0  0  0  0  0  0  0  0  0
    2.5458   -5.5090    0.0000 C   0  0  0  0  0  0  0  0  0  0  0  0
    2.5458   -6.3340    0.0000 N   0  0  0  0  0  0  0  0  0  0  0  0
    1.8313   -6.7465    0.0000 C   0  0  0  0  0  0  0  0  0  0  0  0
    1.8313   -7.5715    0.0000 C   0  0  0  0  0  0  0  0  0  0  0  0
    2.5458   -7.9840    0.0000 N   0  0  0  0  0  0  0  0  0  0  0  0
    2.5458   -8.8090    0.0000 C   0  0  0  0  0  0  0  0  0  0  0  0
    3.2603   -9.2215    0.0000 C   0  0  0  0  0  0  0  0  0  0  0  0
    2.7300   -9.8534    0.0000 F   0  0  0  0  0  0  0  0  0  0  0  0
    3.5424   -8.4462    0.0000 C   0  0  0  0  0  0  0  0  0  0  0  0
    4.3549   -8.3029    0.0000 C   0  0  0  0  0  0  0  0  0  0  0  0
    4.8852   -8.9349    0.0000 N   0  0  0  0  0  0  0  0  0  0  0  0
    4.6030   -9.7102    0.0000 C   0  0  0  0  0  0  0  0  0  0  0  0
    3.7906   -9.8534    0.0000 C   0  0  0  0  0  0  0  0  0  0  0  0
    5.6977   -8.7917    0.0000 C   0  0  0  0  0  0  0  0  0  0  0  0
    5.9798   -8.0164    0.0000 O   0  0  0  0  0  0  0  0  0  0  0  0
    6.2280   -9.4237    0.0000 C   0  0  0  0  0  0  0  0  0  0  0  0
    7.0404   -9.2804    0.0000 C   0  0  0  0  0  0  0  0  0  0  0  0
    7.5707   -9.9124    0.0000 C   0  0  0  0  0  0  0  0  0  0  0  0
    7.2886  -10.6876    0.0000 C   0  0  0  0  0  0  0  0  0  0  0  0
    7.8189  -11.3196    0.0000 F   0  0  0  0  0  0  0  0  0  0  0  0
    6.4761  -10.8309    0.0000 C   0  0  0  0  0  0  0  0  0  0  0  0
    6.1939  -11.6061    0.0000 Cl  0  0  0  0  0  0  0  0  0  0  0  0
    5.9458  -10.1989    0.0000 C   0  0  0  0  0  0  0  0  0  0  0  0
    1.1168   -6.3340    0.0000 N   0  0  0  0  0  0  0  0  0  0  0  0
    1.1168   -5.5090    0.0000 C   0  0  0  0  0  0  0  0  0  0  0  0
    2.7579   -3.7365    0.0000 H   0  0  0  0  0  0  0  0  0  0  0  0
    0.9047   -3.7365    0.0000 H   0  0  0  0  0  0  0  0  0  0  0  0
    1.8313   -3.2015    0.0000 H   0  0  0  0  0  0  0  0  0  0  0  0
    3.4395   -4.9930    0.0000 H   0  0  0  0  0  0  0  0  0  0  0  0
    0.9047   -8.1065    0.0000 H   0  0  0  0  0  0  0  0  0  0  0  0
    1.8313   -8.6415    0.0000 H   0  0  0  0  0  0  0  0  0  0  0  0
    3.4291   -7.4740    0.0000 H   0  0  0  0  0  0  0  0  0  0  0  0
    1.6192   -9.3440    0.0000 H   0  0  0  0  0  0  0  0  0  0  0  0
    2.5458   -9.8790    0.0000 H   0  0  0  0  0  0  0  0  0  0  0  0
    2.8546   -7.6266    0.0000 H   0  0  0  0  0  0  0  0  0  0  0  0
    3.9083   -7.4407    0.0000 H   0  0  0  0  0  0  0  0  0  0  0  0
    4.7208   -7.2974    0.0000 H   0  0  0  0  0  0  0  0  0  0  0  0
    5.4086   -8.1171    0.0000 H   0  0  0  0  0  0  0  0  0  0  0  0
    5.2908  -10.5299    0.0000 H   0  0  0  0  0  0  0  0  0  0  0  0
    4.2370  -10.7157    0.0000 H   0  0  0  0  0  0  0  0  0  0  0  0
    3.4246  -10.8589    0.0000 H   0  0  0  0  0  0  0  0  0  0  0  0
    2.7369  -10.0392    0.0000 H   0  0  0  0  0  0  0  0  0  0  0  0
    7.3933   -8.3106    0.0000 H   0  0  0  0  0  0  0  0  0  0  0  0
    8.5870   -9.7332    0.0000 H   0  0  0  0  0  0  0  0  0  0  0  0
    4.9295  -10.3781    0.0000 H   0  0  0  0  0  0  0  0  0  0  0  0
    0.2231   -4.9930    0.0000 H   0  0  0  0  0  0  0  0  0  0  0  0
  1  2  1  0  0  0  0
  1 28  1  0  0  0  0
  1 29  1  0  0  0  0
  1 30  1  0  0  0  0
  2  3  2  0  0  0  0
  2 27  1  0  0  0  0
  3  4  1  0  0  0  0
  3 31  1  0  0  0  0
  4  5  2  0  0  0  0
  5  6  1  0  0  0  0
  5 26  1  0  0  0  0
  6  7  1  0  0  0  0
  6 32  1  0  0  0  0
  6 33  1  0  0  0  0
  7  8  1  0  0  0  0
  7 34  1  0  0  0  0
  8  9  1  0  0  0  0
  8 35  1  0  0  0  0
  8 36  1  0  0  0  0
  9 10  1  0  0  0  0
  9 11  1  0  0  0  0
  9 15  1  0  0  0  0
 11 12  1  0  0  0  0
 11 37  1  0  0  0  0
 11 38  1  0  0  0  0
 12 13  1  0  0  0  0
 12 39  1  0  0  0  0
 12 40  1  0  0  0  0
 13 14  1  0  0  0  0
 13 16  1  0  0  0  0
 14 15  1  0  0  0  0
 14 41  1  0  0  0  0
 14 42  1  0  0  0  0
 15 43  1  0  0  0  0
 15 44  1  0  0  0  0
 16 17  2  0  0  0  0
 16 18  1  0  0  0  0
 18 19  2  0  0  0  0
 18 25  1  0  0  0  0
 19 20  1  0  0  0  0
 19 45  1  0  0  0  0
 20 21  2  0  0  0  0
 20 46  1  0  0  0  0
 21 22  1  0  0  0  0
 21 23  1  0  0  0  0
 23 24  1  0  0  0  0
 23 25  2  0  0  0  0
 25 47  1  0  0  0  0
 26 27  2  0  0  0  0
 27 48  1  0  0  0  0
M  END
>  <DRUGBANK_ID>
DB16936

>  <COMMON_NAME>
F-15599

>  <CAS_NUMBER>
635323-95-4

>  <UNII>
83481Y1YCX

>  <SYNONYMS>
(3-chloro-4-fluorophenyl)-(4-fluoro-4-(((5-methylpyrimidin-2-ylmethyl)amino)methyl)piperidin-1-yl)methanone; 3-chloro-4-fluorophenyl-(4-fluoro-4-(((5-methylpyrimidin-2-ylmethyl)amino)methyl)piperidin-1yl)methanone; 3-Chloro-4-Fluorophenyl-[4-Fluoro-4-[[(5-Methylpyrimidin-2-ylmethyl)Amino]Methyl]Piperidin-1yl]Methanone; 4-piperidinemethanamine, 1-(3-chloro-4-fluorobenzoyl)-4-fluoro-n-((5-methyl-2-pyrimidinyl)methyl)-; F15599; Methanone, (3-chloro-4-fluorophenyl)(4-fluoro-4-((((5-methyl-2-pyrimidinyl)methyl)amino)methyl)-1-piperidinyl)-; NLX-101; NLX101

$$$$
