
 OpenBabel10282417072D

 27 26  0  0  0  0  0  0  0  0999 V2000
    0.7145    0.5066    0.0000 C   0  0  0  0  0  0  0  0  0  0  0  0
    0.0000    0.0941    0.0000 C   0  0  3  0  0  0  0  0  0  0  0  0
   -0.7146    0.5066    0.0000 C   0  0  0  0  0  0  0  0  0  0  0  0
   -0.7146    1.3317    0.0000 C   0  0  0  0  0  0  0  0  0  0  0  0
    1.4289    0.0941    0.0000 O   0  0  0  0  0  0  0  0  0  0  0  0
    0.7145    1.3317    0.0000 O   0  0  0  0  0  0  0  0  0  0  0  0
   -1.4290    1.7442    0.0000 O   0  0  0  0  0  0  0  0  0  0  0  0
    0.0000    1.7442    0.0000 O   0  0  0  0  0  0  0  0  0  0  0  0
    0.0000   -0.7309    0.0000 C   0  0  0  0  0  0  0  0  0  0  0  0
    0.7145   -1.1434    0.0000 P   0  0  0  0  0  0  0  0  0  0  0  0
    1.4289   -1.5559    0.0000 O   0  0  0  0  0  0  0  0  0  0  0  0
    0.3872   -1.7063    0.0000 O   0  0  0  0  0  0  0  0  0  0  0  0
    1.1270   -0.4289    0.0000 O   0  0  0  0  0  0  0  0  0  0  0  0
   -0.7146   -1.1434    0.0000 P   0  0  0  0  0  0  0  0  0  0  0  0
   -1.4290   -1.5559    0.0000 O   0  0  0  0  0  0  0  0  0  0  0  0
   -1.1270   -0.4289    0.0000 O   0  0  0  0  0  0  0  0  0  0  0  0
   -0.3777   -1.7442    0.0000 O   0  0  0  0  0  0  0  0  0  0  0  0
   -0.0000    1.1641    0.0000 H   0  0  0  0  0  0  0  0  0  0  0  0
   -1.6412   -0.0284    0.0000 H   0  0  0  0  0  0  0  0  0  0  0  0
   -1.6413    1.0416    0.0000 H   0  0  0  0  0  0  0  0  0  0  0  0
    1.5260    1.8002    0.0000 H   0  0  0  0  0  0  0  0  0  0  0  0
    0.8114    1.2756    0.0000 H   0  0  0  0  0  0  0  0  0  0  0  0
   -0.9266   -0.1959    0.0000 H   0  0  0  0  0  0  0  0  0  0  0  0
    1.4289   -2.5259    0.0000 H   0  0  0  0  0  0  0  0  0  0  0  0
   -0.5828   -1.7033    0.0000 H   0  0  0  0  0  0  0  0  0  0  0  0
   -2.2691   -1.0709    0.0000 H   0  0  0  0  0  0  0  0  0  0  0  0
   -0.8732   -2.5781    0.0000 H   0  0  0  0  0  0  0  0  0  0  0  0
  1  2  1  0  0  0  0
  1  5  2  0  0  0  0
  1  6  1  0  0  0  0
  2  3  1  0  0  0  0
  2  9  1  0  0  0  0
  2 18  1  0  0  0  0
  3  4  1  0  0  0  0
  3 19  1  0  0  0  0
  3 20  1  0  0  0  0
  4  7  2  0  0  0  0
  4  8  1  0  0  0  0
  6 21  1  0  0  0  0
  8 22  1  0  0  0  0
  9 10  1  0  0  0  0
  9 14  1  0  0  0  0
  9 23  1  0  0  0  0
 10 11  1  0  0  0  0
 10 12  1  0  0  0  0
 10 13  2  0  0  0  0
 11 24  1  0  0  0  0
 12 25  1  0  0  0  0
 14 15  1  0  0  0  0
 14 16  2  0  0  0  0
 14 17  1  0  0  0  0
 15 26  1  0  0  0  0
 17 27  1  0  0  0  0
M  END
>  <DRUGBANK_ID>
DB16004

>  <COMMON_NAME>
Butedronic acid

>  <CAS_NUMBER>
51395-42-7

>  <UNII>
26PB1U68YF

>  <SYNONYMS>
Butedronic acid

$$$$
