
 OpenBabel10282417072D

 60 63  0  0  0  0  0  0  0  0999 V2000
    5.2862    3.7066    0.0000 C   0  0  0  0  0  0  0  0  0  0  0  0
    4.9989    2.9333    0.0000 O   0  0  0  0  0  0  0  0  0  0  0  0
    4.1855    2.7954    0.0000 C   0  0  0  0  0  0  0  0  0  0  0  0
    3.8981    2.0221    0.0000 N   0  0  0  0  0  0  0  0  0  0  0  0
    3.0847    1.8842    0.0000 C   0  0  0  0  0  0  0  0  0  0  0  0
    2.5587    2.5197    0.0000 C   0  0  0  0  0  0  0  0  0  0  0  0
    2.8460    3.2931    0.0000 C   0  0  0  0  0  0  0  0  0  0  0  0
    3.6594    3.4309    0.0000 C   0  0  0  0  0  0  0  0  0  0  0  0
    1.7917    2.2157    0.0000 C   0  0  2  0  0  0  0  0  0  0  0  0
    1.0607    1.8333    0.0000 C   0  0  0  0  0  0  0  0  0  0  0  0
    0.3640    2.2751    0.0000 C   0  0  0  0  0  0  0  0  0  0  0  0
    0.3983    3.0994    0.0000 C   0  0  1  0  0  0  0  0  0  0  0  0
    1.1292    3.4819    0.0000 C   0  0  0  0  0  0  0  0  0  0  0  0
    1.8260    3.0400    0.0000 C   0  0  0  0  0  0  0  0  0  0  0  0
   -0.2985    3.5412    0.0000 C   0  0  0  0  0  0  0  0  0  0  0  0
   -0.2642    4.3655    0.0000 O   0  0  0  0  0  0  0  0  0  0  0  0
   -1.0295    3.1587    0.0000 N   0  0  0  0  0  0  0  0  0  0  0  0
   -1.0637    2.3345    0.0000 C   0  0  0  0  0  0  0  0  0  0  0  0
   -1.7262    3.6006    0.0000 C   0  0  0  0  0  0  0  0  0  0  0  0
   -2.4572    3.2181    0.0000 C   0  0  0  0  0  0  0  0  0  0  0  0
   -3.1539    3.6599    0.0000 N   0  0  0  0  0  0  0  0  0  0  0  0
   -3.8849    3.2775    0.0000 C   0  0  0  0  0  0  0  0  0  0  0  0
   -4.5816    3.7193    0.0000 C   0  0  0  0  0  0  0  0  0  0  0  0
   -4.5473    4.5436    0.0000 C   0  0  0  0  0  0  0  0  0  0  0  0
   -3.8163    4.9260    0.0000 C   0  0  0  0  0  0  0  0  0  0  0  0
   -3.1196    4.4842    0.0000 C   0  0  0  0  0  0  0  0  0  0  0  0
    1.8438    1.3924    0.0000 O   0  0  0  0  0  0  0  0  0  0  0  0
    2.6429    1.1875    0.0000 C   0  0  0  0  0  0  0  0  0  0  0  0
    2.9469    0.4205    0.0000 O   0  0  0  0  0  0  0  0  0  0  0  0
    6.3412    3.8854    0.0000 H   0  0  0  0  0  0  0  0  0  0  0  0
    4.6039    4.5308    0.0000 H   0  0  0  0  0  0  0  0  0  0  0  0
    5.6588    4.7096    0.0000 H   0  0  0  0  0  0  0  0  0  0  0  0
    2.1879    4.0881    0.0000 H   0  0  0  0  0  0  0  0  0  0  0  0
    4.0188    4.3983    0.0000 H   0  0  0  0  0  0  0  0  0  0  0  0
    1.0162    0.7642    0.0000 H   0  0  0  0  0  0  0  0  0  0  0  0
    0.1126    1.3373    0.0000 H   0  0  0  0  0  0  0  0  0  0  0  0
   -0.5841    1.7791    0.0000 H   0  0  0  0  0  0  0  0  0  0  0  0
   -0.5396    2.8482    0.0000 H   0  0  0  0  0  0  0  0  0  0  0  0
   -0.5498    2.6033    0.0000 H   0  0  0  0  0  0  0  0  0  0  0  0
    1.1736    4.5510    0.0000 H   0  0  0  0  0  0  0  0  0  0  0  0
    2.0773    3.9779    0.0000 H   0  0  0  0  0  0  0  0  0  0  0  0
    2.7741    3.5360    0.0000 H   0  0  0  0  0  0  0  0  0  0  0  0
    2.7296    2.4669    0.0000 H   0  0  0  0  0  0  0  0  0  0  0  0
   -2.0117    1.8384    0.0000 H   0  0  0  0  0  0  0  0  0  0  0  0
   -0.1600    1.7615    0.0000 H   0  0  0  0  0  0  0  0  0  0  0  0
   -1.1081    1.2654    0.0000 H   0  0  0  0  0  0  0  0  0  0  0  0
   -1.6817    4.6697    0.0000 H   0  0  0  0  0  0  0  0  0  0  0  0
   -2.6298    4.1736    0.0000 H   0  0  0  0  0  0  0  0  0  0  0  0
   -2.5016    2.1490    0.0000 H   0  0  0  0  0  0  0  0  0  0  0  0
   -3.4053    2.7220    0.0000 H   0  0  0  0  0  0  0  0  0  0  0  0
   -3.9294    2.2084    0.0000 H   0  0  0  0  0  0  0  0  0  0  0  0
   -4.8330    2.7815    0.0000 H   0  0  0  0  0  0  0  0  0  0  0  0
   -5.5297    3.2233    0.0000 H   0  0  0  0  0  0  0  0  0  0  0  0
   -5.4852    4.2924    0.0000 H   0  0  0  0  0  0  0  0  0  0  0  0
   -5.4509    5.1167    0.0000 H   0  0  0  0  0  0  0  0  0  0  0  0
   -4.5028    5.6127    0.0000 H   0  0  0  0  0  0  0  0  0  0  0  0
   -3.7718    5.9951    0.0000 H   0  0  0  0  0  0  0  0  0  0  0  0
   -2.8682    5.4220    0.0000 H   0  0  0  0  0  0  0  0  0  0  0  0
   -2.1715    4.9802    0.0000 H   0  0  0  0  0  0  0  0  0  0  0  0
   -2.2160    3.9111    0.0000 H   0  0  0  0  0  0  0  0  0  0  0  0
  1  2  1  0  0  0  0
  1 30  1  0  0  0  0
  1 31  1  0  0  0  0
  1 32  1  0  0  0  0
  2  3  1  0  0  0  0
  3  4  2  0  0  0  0
  3  8  1  0  0  0  0
  4  5  1  0  0  0  0
  5  6  2  0  0  0  0
  5 28  1  0  0  0  0
  6  7  1  0  0  0  0
  7  8  2  0  0  0  0
  7 33  1  0  0  0  0
  8 34  1  0  0  0  0
  9  6  1  6  0  0  0
  9 10  1  0  0  0  0
  9 14  1  0  0  0  0
  9 27  1  0  0  0  0
 10 11  1  0  0  0  0
 10 35  1  0  0  0  0
 10 36  1  0  0  0  0
 11 37  1  0  0  0  0
 11 38  1  0  0  0  0
 12 11  1  0  0  0  0
 12 13  1  0  0  0  0
 12 15  1  0  0  0  0
 12 39  1  1  0  0  0
 13 14  1  0  0  0  0
 13 40  1  0  0  0  0
 13 41  1  0  0  0  0
 14 42  1  0  0  0  0
 14 43  1  0  0  0  0
 15 16  2  0  0  0  0
 15 17  1  0  0  0  0
 17 18  1  0  0  0  0
 17 19  1  0  0  0  0
 18 44  1  0  0  0  0
 18 45  1  0  0  0  0
 18 46  1  0  0  0  0
 19 20  1  0  0  0  0
 19 47  1  0  0  0  0
 19 48  1  0  0  0  0
 20 21  1  0  0  0  0
 20 49  1  0  0  0  0
 20 50  1  0  0  0  0
 21 22  1  0  0  0  0
 21 26  1  0  0  0  0
 22 23  1  0  0  0  0
 22 51  1  0  0  0  0
 22 52  1  0  0  0  0
 23 24  1  0  0  0  0
 23 53  1  0  0  0  0
 23 54  1  0  0  0  0
 24 25  1  0  0  0  0
 24 55  1  0  0  0  0
 24 56  1  0  0  0  0
 25 26  1  0  0  0  0
 25 57  1  0  0  0  0
 25 58  1  0  0  0  0
 26 59  1  0  0  0  0
 26 60  1  0  0  0  0
 27 28  1  0  0  0  0
 28 29  2  0  0  0  0
M  END
>  <DRUGBANK_ID>
DB17094

>  <COMMON_NAME>
MK-7288

>  <CAS_NUMBER>
936626-07-2

>  <UNII>
19EF2T21ST

>  <SYNONYMS>
MK-7288 free base; Spiro(cyclohexane-1,5'(7'h)-furo(3,4-b)pyridine)-4-carboxamide, 2'-methoxy-n-methyl-7'-oxo-n-(2-(1-piperidinyl)ethyl)-, trans-

$$$$
