
 OpenBabel10282417072D

 53 52  0  0  0  0  0  0  0  0999 V2000
   -1.2888    7.5059    0.0000 C   0  0  0  0  0  0  0  0  0  0  0  0
   -0.5743    7.0934    0.0000 C   0  0  0  0  0  0  0  0  0  0  0  0
   -0.5743    6.2684    0.0000 C   0  0  0  0  0  0  0  0  0  0  0  0
    0.1401    5.8559    0.0000 C   0  0  0  0  0  0  0  0  0  0  0  0
    0.1401    5.0309    0.0000 C   0  0  0  0  0  0  0  0  0  0  0  0
    0.8546    4.6184    0.0000 C   0  0  0  0  0  0  0  0  0  0  0  0
    0.8546    3.7934    0.0000 C   0  0  0  0  0  0  0  0  0  0  0  0
    1.5691    3.3809    0.0000 C   0  0  0  0  0  0  0  0  0  0  0  0
    1.5691    2.5559    0.0000 C   0  0  0  0  0  0  0  0  0  0  0  0
    2.2836    2.1434    0.0000 C   0  0  0  0  0  0  0  0  0  0  0  0
    2.9980    2.5559    0.0000 C   0  0  0  0  0  0  0  0  0  0  0  0
    3.7125    2.1434    0.0000 C   0  0  0  0  0  0  0  0  0  0  0  0
    4.4270    2.5559    0.0000 C   0  0  0  0  0  0  0  0  0  0  0  0
    5.1414    2.1434    0.0000 C   0  0  0  0  0  0  0  0  0  0  0  0
    5.8559    2.5559    0.0000 C   0  0  0  0  0  0  0  0  0  0  0  0
    6.5704    2.1434    0.0000 C   0  0  0  0  0  0  0  0  0  0  0  0
    7.2849    2.5559    0.0000 C   0  0  0  0  0  0  0  0  0  0  0  0
    7.9993    2.1434    0.0000 C   0  0  0  0  0  0  0  0  0  0  0  0
    8.7138    2.5559    0.0000 O   0  0  0  0  0  0  0  0  0  0  0  0
    7.9993    1.3184    0.0000 Cl  0  0  0  0  0  0  0  0  0  0  0  0
   -1.2888    8.5759    0.0000 H   0  0  0  0  0  0  0  0  0  0  0  0
   -2.2154    6.9709    0.0000 H   0  0  0  0  0  0  0  0  0  0  0  0
   -2.2155    8.0409    0.0000 H   0  0  0  0  0  0  0  0  0  0  0  0
    0.3523    7.6284    0.0000 H   0  0  0  0  0  0  0  0  0  0  0  0
    0.3523    6.5584    0.0000 H   0  0  0  0  0  0  0  0  0  0  0  0
   -1.5010    5.7334    0.0000 H   0  0  0  0  0  0  0  0  0  0  0  0
   -0.5743    5.1984    0.0000 H   0  0  0  0  0  0  0  0  0  0  0  0
    1.0668    6.3909    0.0000 H   0  0  0  0  0  0  0  0  0  0  0  0
    1.0667    5.3209    0.0000 H   0  0  0  0  0  0  0  0  0  0  0  0
   -0.7865    4.4959    0.0000 H   0  0  0  0  0  0  0  0  0  0  0  0
    0.1401    3.9609    0.0000 H   0  0  0  0  0  0  0  0  0  0  0  0
    1.7812    5.1534    0.0000 H   0  0  0  0  0  0  0  0  0  0  0  0
    1.7812    4.0834    0.0000 H   0  0  0  0  0  0  0  0  0  0  0  0
   -0.0720    3.2584    0.0000 H   0  0  0  0  0  0  0  0  0  0  0  0
    0.8546    2.7234    0.0000 H   0  0  0  0  0  0  0  0  0  0  0  0
    2.4957    3.9159    0.0000 H   0  0  0  0  0  0  0  0  0  0  0  0
    2.4957    2.8459    0.0000 H   0  0  0  0  0  0  0  0  0  0  0  0
    0.6754    2.0399    0.0000 H   0  0  0  0  0  0  0  0  0  0  0  0
    2.2836    1.1114    0.0000 H   0  0  0  0  0  0  0  0  0  0  0  0
    2.9980    3.6259    0.0000 H   0  0  0  0  0  0  0  0  0  0  0  0
    3.9246    3.0909    0.0000 H   0  0  0  0  0  0  0  0  0  0  0  0
    3.7125    1.0734    0.0000 H   0  0  0  0  0  0  0  0  0  0  0  0
    4.6391    1.6084    0.0000 H   0  0  0  0  0  0  0  0  0  0  0  0
    4.4270    3.6259    0.0000 H   0  0  0  0  0  0  0  0  0  0  0  0
    5.3537    3.0909    0.0000 H   0  0  0  0  0  0  0  0  0  0  0  0
    5.1414    1.0734    0.0000 H   0  0  0  0  0  0  0  0  0  0  0  0
    6.0680    1.6084    0.0000 H   0  0  0  0  0  0  0  0  0  0  0  0
    5.8559    3.6259    0.0000 H   0  0  0  0  0  0  0  0  0  0  0  0
    6.7825    3.0909    0.0000 H   0  0  0  0  0  0  0  0  0  0  0  0
    6.5704    1.0734    0.0000 H   0  0  0  0  0  0  0  0  0  0  0  0
    7.4970    1.6084    0.0000 H   0  0  0  0  0  0  0  0  0  0  0  0
    7.2849    3.6259    0.0000 H   0  0  0  0  0  0  0  0  0  0  0  0
    8.2116    3.0909    0.0000 H   0  0  0  0  0  0  0  0  0  0  0  0
  1  2  1  0  0  0  0
  1 21  1  0  0  0  0
  1 22  1  0  0  0  0
  1 23  1  0  0  0  0
  2  3  1  0  0  0  0
  2 24  1  0  0  0  0
  2 25  1  0  0  0  0
  3  4  1  0  0  0  0
  3 26  1  0  0  0  0
  3 27  1  0  0  0  0
  4  5  1  0  0  0  0
  4 28  1  0  0  0  0
  4 29  1  0  0  0  0
  5  6  1  0  0  0  0
  5 30  1  0  0  0  0
  5 31  1  0  0  0  0
  6  7  1  0  0  0  0
  6 32  1  0  0  0  0
  6 33  1  0  0  0  0
  7  8  1  0  0  0  0
  7 34  1  0  0  0  0
  7 35  1  0  0  0  0
  8  9  1  0  0  0  0
  8 36  1  0  0  0  0
  8 37  1  0  0  0  0
  9 10  2  0  0  0  0
  9 38  1  0  0  0  0
 10 11  1  0  0  0  0
 10 39  1  0  0  0  0
 11 12  1  0  0  0  0
 11 40  1  0  0  0  0
 11 41  1  0  0  0  0
 12 13  1  0  0  0  0
 12 42  1  0  0  0  0
 12 43  1  0  0  0  0
 13 14  1  0  0  0  0
 13 44  1  0  0  0  0
 13 45  1  0  0  0  0
 14 15  1  0  0  0  0
 14 46  1  0  0  0  0
 14 47  1  0  0  0  0
 15 16  1  0  0  0  0
 15 48  1  0  0  0  0
 15 49  1  0  0  0  0
 16 17  1  0  0  0  0
 16 50  1  0  0  0  0
 16 51  1  0  0  0  0
 17 18  1  0  0  0  0
 17 52  1  0  0  0  0
 17 53  1  0  0  0  0
 18 19  2  0  0  0  0
 18 20  1  0  0  0  0
M  END
>  <DRUGBANK_ID>
DB14666

>  <SECONDARY_ACCESSION_NUMBERS>
DBSALT002228

>  <COMMON_NAME>
Oleoyl chloride

>  <CAS_NUMBER>
112-77-6

>  <UNII>
U83VP176UX

>  <SYNONYMS>
Oleic acid chloride; Oleic chloride; Oleyl chloride

$$$$
