S27
 OpenBabel10282417072D

 53 54  0  0  0  0  0  0  0  0999 V2000
   -1.2892   -0.8238    0.0000 C   0  0  0  0  0  0  0  0  0  0  0  0
   -1.2892   -1.6488    0.0000 C   0  0  0  0  0  0  0  0  0  0  0  0
   -2.0037   -2.0613    0.0000 C   0  0  0  0  0  0  0  0  0  0  0  0
   -2.7181   -1.6488    0.0000 C   0  0  0  0  0  0  0  0  0  0  0  0
   -2.7181   -0.8238    0.0000 C   0  0  0  0  0  0  0  0  0  0  0  0
   -2.0037   -0.4113    0.0000 C   0  0  0  0  0  0  0  0  0  0  0  0
   -0.5747   -0.4113    0.0000 P   0  0  2  0  0  0  0  0  0  0  0  0
   -0.1622   -1.1258    0.0000 O   0  0  0  0  0  0  0  0  0  0  0  0
   -0.9872    0.3032    0.0000 C   0  0  0  0  0  0  0  0  0  0  0  0
    0.1397    0.0012    0.0000 N   0  0  0  0  0  0  0  0  0  0  0  0
    0.8542   -0.4113    0.0000 C   0  0  0  0  0  0  0  0  0  0  0  0
    0.8542   -1.2363    0.0000 C   0  0  0  0  0  0  0  0  0  0  0  0
    1.5687   -1.6488    0.0000 C   0  0  0  0  0  0  0  0  0  0  0  0
    1.5687   -2.4738    0.0000 C   0  0  0  0  0  0  0  0  0  0  0  0
    0.8542   -2.8863    0.0000 C   0  0  0  0  0  0  0  0  0  0  0  0
    0.1397   -2.4738    0.0000 C   0  0  0  0  0  0  0  0  0  0  0  0
    0.1397   -1.6488    0.0000 C   0  0  0  0  0  0  0  0  0  0  0  0
    0.1397    0.8262    0.0000 C   0  0  1  0  0  0  0  0  0  0  0  0
   -0.5747    1.2387    0.0000 C   0  0  0  0  0  0  0  0  0  0  0  0
   -0.5747    2.0637    0.0000 N   0  0  0  0  0  0  0  0  0  0  0  0
   -1.2892    2.4762    0.0000 O   0  0  0  0  0  0  0  0  0  0  0  0
   -1.2892    0.8262    0.0000 O   0  0  0  0  0  0  0  0  0  0  0  0
    0.8542    1.2387    0.0000 C   0  0  0  0  0  0  0  0  0  0  0  0
    0.8542    2.0637    0.0000 C   0  0  0  0  0  0  0  0  0  0  0  0
    0.1397    2.4762    0.0000 C   0  0  0  0  0  0  0  0  0  0  0  0
    1.5687    2.4762    0.0000 C   0  0  0  0  0  0  0  0  0  0  0  0
   -0.3660    0.5342    0.0000 H   0  0  0  0  0  0  0  0  0  0  0  0
   -0.3955   -2.1648    0.0000 H   0  0  0  0  0  0  0  0  0  0  0  0
   -2.0037   -3.0933    0.0000 H   0  0  0  0  0  0  0  0  0  0  0  0
   -3.6118   -2.1648    0.0000 H   0  0  0  0  0  0  0  0  0  0  0  0
   -3.6118   -0.3078    0.0000 H   0  0  0  0  0  0  0  0  0  0  0  0
   -2.0037    0.6207    0.0000 H   0  0  0  0  0  0  0  0  0  0  0  0
   -0.4522    1.2298    0.0000 H   0  0  0  0  0  0  0  0  0  0  0  0
   -2.0572    0.3032    0.0000 H   0  0  0  0  0  0  0  0  0  0  0  0
   -1.5222    1.2299    0.0000 H   0  0  0  0  0  0  0  0  0  0  0  0
    1.7808    0.1237    0.0000 H   0  0  0  0  0  0  0  0  0  0  0  0
    1.7808   -0.9463    0.0000 H   0  0  0  0  0  0  0  0  0  0  0  0
    2.4624   -1.1328    0.0000 H   0  0  0  0  0  0  0  0  0  0  0  0
    2.4624   -2.9898    0.0000 H   0  0  0  0  0  0  0  0  0  0  0  0
    0.8542   -3.9183    0.0000 H   0  0  0  0  0  0  0  0  0  0  0  0
   -0.7540   -2.9898    0.0000 H   0  0  0  0  0  0  0  0  0  0  0  0
   -0.7540   -1.1328    0.0000 H   0  0  0  0  0  0  0  0  0  0  0  0
    0.2779    2.5560    0.0000 H   0  0  0  0  0  0  0  0  0  0  0  0
   -1.2892    3.4462    0.0000 H   0  0  0  0  0  0  0  0  0  0  0  0
    1.7808    0.7037    0.0000 H   0  0  0  0  0  0  0  0  0  0  0  0
    1.7808    1.7737    0.0000 H   0  0  0  0  0  0  0  0  0  0  0  0
    0.8542    3.1337    0.0000 H   0  0  0  0  0  0  0  0  0  0  0  0
    0.1397    3.5462    0.0000 H   0  0  0  0  0  0  0  0  0  0  0  0
   -0.7869    1.9412    0.0000 H   0  0  0  0  0  0  0  0  0  0  0  0
   -0.7870    3.0112    0.0000 H   0  0  0  0  0  0  0  0  0  0  0  0
    2.4953    1.9412    0.0000 H   0  0  0  0  0  0  0  0  0  0  0  0
    1.5687    3.5462    0.0000 H   0  0  0  0  0  0  0  0  0  0  0  0
    2.4954    3.0112    0.0000 H   0  0  0  0  0  0  0  0  0  0  0  0
  1  2  2  0  0  0  0
  1  6  1  0  0  0  0
  1  7  1  0  0  0  0
  2  3  1  0  0  0  0
  2 28  1  0  0  0  0
  3  4  2  0  0  0  0
  3 29  1  0  0  0  0
  4  5  1  0  0  0  0
  4 30  1  0  0  0  0
  5  6  2  0  0  0  0
  5 31  1  0  0  0  0
  6 32  1  0  0  0  0
  7  8  2  1  0  0  0
  7  9  1  0  0  0  0
  7 10  1  0  0  0  0
  9 33  1  0  0  0  0
  9 34  1  0  0  0  0
  9 35  1  0  0  0  0
 10 11  1  0  0  0  0
 11 12  1  0  0  0  0
 11 36  1  0  0  0  0
 11 37  1  0  0  0  0
 12 13  2  0  0  0  0
 12 17  1  0  0  0  0
 13 14  1  0  0  0  0
 13 38  1  0  0  0  0
 14 15  2  0  0  0  0
 14 39  1  0  0  0  0
 15 16  1  0  0  0  0
 15 40  1  0  0  0  0
 16 17  2  0  0  0  0
 16 41  1  0  0  0  0
 17 42  1  0  0  0  0
 18 10  1  0  0  0  0
 18 19  1  0  0  0  0
 18 23  1  0  0  0  0
 18 27  1  6  0  0  0
 19 20  1  0  0  0  0
 19 22  2  0  0  0  0
 20 21  1  0  0  0  0
 20 43  1  0  0  0  0
 21 44  1  0  0  0  0
 23 24  1  0  0  0  0
 23 45  1  0  0  0  0
 23 46  1  0  0  0  0
 24 25  1  0  0  0  0
 24 26  1  0  0  0  0
 24 47  1  0  0  0  0
 25 48  1  0  0  0  0
 25 49  1  0  0  0  0
 25 50  1  0  0  0  0
 26 51  1  0  0  0  0
 26 52  1  0  0  0  0
 26 53  1  0  0  0  0
M  END
>  <DRUGBANK_ID>
DB08507

>  <COMMON_NAME>
N-[[2-METHYL-4-HYDROXYCARBAMOYL]BUT-4-YL-N]-BENZYL-P-[PHENYL]-P-[METHYL]PHOSPHINAMID

$$$$
