
 OpenBabel10282417072D

 83 87  0  0  0  0  0  0  0  0999 V2000
   -5.5779  -12.7964    0.0000 C   0  0  0  0  0  0  0  0  0  0  0  0
   -5.5780  -11.9714    0.0000 N   0  0  0  0  0  0  0  0  0  0  0  0
   -6.2925  -11.5589    0.0000 C   0  0  0  0  0  0  0  0  0  0  0  0
   -4.8635  -11.5588    0.0000 C   0  0  0  0  0  0  0  0  0  0  0  0
   -4.1490  -11.9713    0.0000 C   0  0  0  0  0  0  0  0  0  0  0  0
   -3.4346  -11.5587    0.0000 C   0  0  0  0  0  0  0  0  0  0  0  0
   -3.4346  -10.7337    0.0000 C   0  0  0  0  0  0  0  0  0  0  0  0
   -4.1491  -10.3213    0.0000 C   0  0  0  0  0  0  0  0  0  0  0  0
   -4.8636  -10.7338    0.0000 C   0  0  0  0  0  0  0  0  0  0  0  0
   -5.5781  -10.3214    0.0000 C   0  0  0  0  0  0  0  0  0  0  0  0
   -5.5781   -9.4964    0.0000 C   0  0  0  0  0  0  0  0  0  0  0  0
   -4.8637   -9.0838    0.0000 C   0  0  0  0  0  0  0  0  0  0  0  0
   -4.1492   -9.4963    0.0000 C   0  0  0  0  0  0  0  0  0  0  0  0
   -3.4347   -9.0837    0.0000 S   0  0  0  0  0  0  0  0  0  0  0  0
   -3.0222   -9.7982    0.0000 O   0  0  0  0  0  0  0  0  0  0  0  0
   -3.8473   -8.3693    0.0000 O   0  0  0  0  0  0  0  0  0  0  0  0
   -2.7203   -8.6712    0.0000 N   0  0  0  0  0  0  0  0  0  0  0  0
   -2.7203   -7.8462    0.0000 C   0  0  0  0  0  0  0  0  0  0  0  0
   -2.0059   -7.4337    0.0000 C   0  0  0  0  0  0  0  0  0  0  0  0
   -2.0059   -6.6087    0.0000 C   0  0  0  0  0  0  0  0  0  0  0  0
   -1.2915   -6.1961    0.0000 C   0  0  0  0  0  0  0  0  0  0  0  0
   -1.2915   -5.3711    0.0000 C   0  0  0  0  0  0  0  0  0  0  0  0
   -0.5771   -4.9586    0.0000 C   0  0  0  0  0  0  0  0  0  0  0  0
   -0.5771   -4.1336    0.0000 C   0  0  0  0  0  0  0  0  0  0  0  0
    0.1373   -3.7210    0.0000 C   0  0  0  0  0  0  0  0  0  0  0  0
    0.1373   -2.8960    0.0000 N   0  0  0  0  0  0  0  0  0  0  0  0
    0.8517   -2.4835    0.0000 C   0  0  0  0  0  0  0  0  0  0  0  0
    1.5662   -2.8960    0.0000 O   0  0  0  0  0  0  0  0  0  0  0  0
    0.8517   -1.6585    0.0000 C   0  0  2  0  0  0  0  0  0  0  0  0
    0.1163   -2.0322    0.0000 C   0  0  0  0  0  0  0  0  0  0  0  0
    0.5657   -1.2419    0.0000 C   0  0  1  0  0  0  0  0  0  0  0  0
    1.3012   -1.6156    0.0000 C   0  0  0  0  0  0  0  0  0  0  0  0
    2.0368   -1.2419    0.0000 C   0  0  2  0  0  0  0  0  0  0  0  0
    2.0368   -0.4945    0.0000 C   0  0  0  0  0  0  0  0  0  0  0  0
    1.3012   -0.1208    0.0000 C   0  0  2  0  0  0  0  0  0  0  0  0
    0.5657   -0.4945    0.0000 C   0  0  0  0  0  0  0  0  0  0  0  0
    0.8517   -0.9111    0.0000 C   0  0  0  0  0  0  0  0  0  0  0  0
    1.5873   -2.0322    0.0000 C   0  0  0  0  0  0  0  0  0  0  0  0
   -6.5045  -13.3315    0.0000 H   0  0  0  0  0  0  0  0  0  0  0  0
   -4.6512  -13.3313    0.0000 H   0  0  0  0  0  0  0  0  0  0  0  0
   -5.5778  -13.8664    0.0000 H   0  0  0  0  0  0  0  0  0  0  0  0
   -6.2925  -10.4889    0.0000 H   0  0  0  0  0  0  0  0  0  0  0  0
   -7.2191  -12.0939    0.0000 H   0  0  0  0  0  0  0  0  0  0  0  0
   -7.2192  -11.0239    0.0000 H   0  0  0  0  0  0  0  0  0  0  0  0
   -4.1489  -13.0033    0.0000 H   0  0  0  0  0  0  0  0  0  0  0  0
   -2.5408  -12.0746    0.0000 H   0  0  0  0  0  0  0  0  0  0  0  0
   -2.5409  -10.2176    0.0000 H   0  0  0  0  0  0  0  0  0  0  0  0
   -6.4718  -10.8375    0.0000 H   0  0  0  0  0  0  0  0  0  0  0  0
   -6.4719   -8.9805    0.0000 H   0  0  0  0  0  0  0  0  0  0  0  0
   -4.8638   -8.0518    0.0000 H   0  0  0  0  0  0  0  0  0  0  0  0
   -1.8369   -9.1812    0.0000 H   0  0  0  0  0  0  0  0  0  0  0  0
   -3.6470   -7.3112    0.0000 H   0  0  0  0  0  0  0  0  0  0  0  0
   -2.7203   -6.7762    0.0000 H   0  0  0  0  0  0  0  0  0  0  0  0
   -1.0792   -7.9687    0.0000 H   0  0  0  0  0  0  0  0  0  0  0  0
   -1.0793   -6.8987    0.0000 H   0  0  0  0  0  0  0  0  0  0  0  0
   -2.9326   -6.0738    0.0000 H   0  0  0  0  0  0  0  0  0  0  0  0
   -2.0060   -5.5387    0.0000 H   0  0  0  0  0  0  0  0  0  0  0  0
   -0.3648   -6.7310    0.0000 H   0  0  0  0  0  0  0  0  0  0  0  0
   -0.3649   -5.6611    0.0000 H   0  0  0  0  0  0  0  0  0  0  0  0
   -2.2182   -4.8361    0.0000 H   0  0  0  0  0  0  0  0  0  0  0  0
   -1.2915   -4.3011    0.0000 H   0  0  0  0  0  0  0  0  0  0  0  0
    0.3496   -5.4936    0.0000 H   0  0  0  0  0  0  0  0  0  0  0  0
    0.3495   -4.4236    0.0000 H   0  0  0  0  0  0  0  0  0  0  0  0
   -1.5038   -3.5987    0.0000 H   0  0  0  0  0  0  0  0  0  0  0  0
   -0.5772   -3.0636    0.0000 H   0  0  0  0  0  0  0  0  0  0  0  0
    1.0640   -4.2559    0.0000 H   0  0  0  0  0  0  0  0  0  0  0  0
    1.0639   -3.1860    0.0000 H   0  0  0  0  0  0  0  0  0  0  0  0
   -0.7153   -2.4038    0.0000 H   0  0  0  0  0  0  0  0  0  0  0  0
   -0.6578   -2.7709    0.0000 H   0  0  0  0  0  0  0  0  0  0  0  0
   -0.7271   -1.3737    0.0000 H   0  0  0  0  0  0  0  0  0  0  0  0
    0.8735   -2.2667    0.0000 H   0  0  0  0  0  0  0  0  0  0  0  0
    1.3012   -2.6856    0.0000 H   0  0  0  0  0  0  0  0  0  0  0  0
    2.2132   -2.1752    0.0000 H   0  0  0  0  0  0  0  0  0  0  0  0
    1.2626   -1.9805    0.0000 H   0  0  0  0  0  0  0  0  0  0  0  0
    2.9488    0.0651    0.0000 H   0  0  0  0  0  0  0  0  0  0  0  0
    2.9705   -1.0170    0.0000 H   0  0  0  0  0  0  0  0  0  0  0  0
    1.3012   -1.1908    0.0000 H   0  0  0  0  0  0  0  0  0  0  0  0
   -0.3463    0.0651    0.0000 H   0  0  0  0  0  0  0  0  0  0  0  0
   -0.3680   -1.0171    0.0000 H   0  0  0  0  0  0  0  0  0  0  0  0
   -0.1827   -0.6375    0.0000 H   0  0  0  0  0  0  0  0  0  0  0  0
    0.0039   -1.5638    0.0000 H   0  0  0  0  0  0  0  0  0  0  0  0
    1.8951   -3.0570    0.0000 H   0  0  0  0  0  0  0  0  0  0  0  0
    2.6505   -2.1525    0.0000 H   0  0  0  0  0  0  0  0  0  0  0  0
  1  2  1  0  0  0  0
  1 39  1  0  0  0  0
  1 40  1  0  0  0  0
  1 41  1  0  0  0  0
  2  3  1  0  0  0  0
  2  4  1  0  0  0  0
  3 42  1  0  0  0  0
  3 43  1  0  0  0  0
  3 44  1  0  0  0  0
  4  5  2  0  0  0  0
  4  9  1  0  0  0  0
  5  6  1  0  0  0  0
  5 45  1  0  0  0  0
  6  7  2  0  0  0  0
  6 46  1  0  0  0  0
  7  8  1  0  0  0  0
  7 47  1  0  0  0  0
  8  9  2  0  0  0  0
  8 13  1  0  0  0  0
  9 10  1  0  0  0  0
 10 11  2  0  0  0  0
 10 48  1  0  0  0  0
 11 12  1  0  0  0  0
 11 49  1  0  0  0  0
 12 13  2  0  0  0  0
 12 50  1  0  0  0  0
 13 14  1  0  0  0  0
 14 15  2  0  0  0  0
 14 16  2  0  0  0  0
 14 17  1  0  0  0  0
 17 18  1  0  0  0  0
 17 51  1  0  0  0  0
 18 19  1  0  0  0  0
 18 52  1  0  0  0  0
 18 53  1  0  0  0  0
 19 20  1  0  0  0  0
 19 54  1  0  0  0  0
 19 55  1  0  0  0  0
 20 21  1  0  0  0  0
 20 56  1  0  0  0  0
 20 57  1  0  0  0  0
 21 22  1  0  0  0  0
 21 58  1  0  0  0  0
 21 59  1  0  0  0  0
 22 23  1  0  0  0  0
 22 60  1  0  0  0  0
 22 61  1  0  0  0  0
 23 24  1  0  0  0  0
 23 62  1  0  0  0  0
 23 63  1  0  0  0  0
 24 25  1  0  0  0  0
 24 64  1  0  0  0  0
 24 65  1  0  0  0  0
 25 26  1  0  0  0  0
 25 66  1  0  0  0  0
 25 67  1  0  0  0  0
 26 27  1  0  0  0  0
 26 68  1  0  0  0  0
 27 28  2  0  0  0  0
 29 27  1  6  0  0  0
 29 30  1  0  0  0  0
 29 38  1  0  0  0  0
 29 37  1  0  0  0  0
 30 69  1  0  0  0  0
 30 70  1  0  0  0  0
 31 30  1  0  0  0  0
 31 32  1  0  0  0  0
 31 36  1  0  0  0  0
 31 71  1  1  0  0  0
 32 72  1  0  0  0  0
 32 73  1  0  0  0  0
 33 32  1  0  0  0  0
 33 38  1  0  0  0  0
 33 34  1  0  0  0  0
 33 74  1  1  0  0  0
 34 75  1  0  0  0  0
 34 76  1  0  0  0  0
 35 34  1  0  0  0  0
 35 36  1  0  0  0  0
 35 37  1  0  0  0  0
 35 77  1  6  0  0  0
 36 78  1  0  0  0  0
 36 79  1  0  0  0  0
 37 80  1  0  0  0  0
 37 81  1  0  0  0  0
 38 82  1  0  0  0  0
 38 83  1  0  0  0  0
M  END
>  <DRUGBANK_ID>
DB03031

>  <SECONDARY_ACCESSION_NUMBERS>
EXPT01276

>  <COMMON_NAME>
Adamantane-1-Carboxylic Acid-5-Dimethylamino-Naphthalene-1-Sulfonylamino-Octyl-Amide

$$$$
