1496
 OpenBabel10282417072D

 36 38  0  0  0  0  0  0  0  0999 V2000
    5.1753   -2.6608    0.0000 S   0  0  0  0  0  0  0  0  0  0  0  0
    3.6172    0.5757    0.0000 F   0  0  0  0  0  0  0  0  0  0  0  0
    4.7065    0.1576    0.0000 F   0  0  0  0  0  0  0  0  0  0  0  0
    5.1246    1.2468    0.0000 F   0  0  0  0  0  0  0  0  0  0  0  0
    2.9849    0.2991    0.0000 O   0  0  0  0  0  0  0  0  0  0  0  0
    2.3174   -2.6608    0.0000 O   0  0  0  0  0  0  0  0  0  0  0  0
    3.7464   -0.1858    0.0000 O   0  0  0  0  0  0  0  0  0  0  0  0
    3.7464   -2.6608    0.0000 N   0  0  0  0  0  0  0  0  0  0  0  0
    4.4609   -1.4233    0.0000 N   0  0  0  0  0  0  0  0  0  0  0  0
    3.0319   -1.4233    0.0000 C   0  0  0  0  0  0  0  0  0  0  0  0
    2.3174   -1.0108    0.0000 C   0  0  0  0  0  0  0  0  0  0  0  0
    2.3174   -0.1858    0.0000 C   0  0  0  0  0  0  0  0  0  0  0  0
    3.0319   -2.2483    0.0000 C   0  0  0  0  0  0  0  0  0  0  0  0
    3.7464   -1.0108    0.0000 C   0  0  0  0  0  0  0  0  0  0  0  0
    2.7299    1.0837    0.0000 C   0  0  0  0  0  0  0  0  0  0  0  0
    1.6500    0.2991    0.0000 C   0  0  0  0  0  0  0  0  0  0  0  0
    3.2149    1.7512    0.0000 C   0  0  0  0  0  0  0  0  0  0  0  0
    1.9049    1.0837    0.0000 C   0  0  0  0  0  0  0  0  0  0  0  0
    4.0353    1.6649    0.0000 C   0  0  0  0  0  0  0  0  0  0  0  0
    4.4609   -2.2483    0.0000 C   0  0  0  0  0  0  0  0  0  0  0  0
    2.8793    2.5049    0.0000 C   0  0  0  0  0  0  0  0  0  0  0  0
    4.5203    2.3324    0.0000 C   0  0  0  0  0  0  0  0  0  0  0  0
    4.3710    0.9113    0.0000 C   0  0  0  0  0  0  0  0  0  0  0  0
    3.3643    3.1723    0.0000 C   0  0  0  0  0  0  0  0  0  0  0  0
    4.1848    3.0861    0.0000 C   0  0  0  0  0  0  0  0  0  0  0  0
    3.7464   -3.6453    0.0000 H   0  0  0  0  0  0  0  0  0  0  0  0
    5.3135   -0.9310    0.0000 H   0  0  0  0  0  0  0  0  0  0  0  0
    3.9585   -1.9583    0.0000 H   0  0  0  0  0  0  0  0  0  0  0  0
    1.3908   -1.5458    0.0000 H   0  0  0  0  0  0  0  0  0  0  0  0
    1.3908   -0.4758    0.0000 H   0  0  0  0  0  0  0  0  0  0  0  0
    0.6685   -0.0198    0.0000 H   0  0  0  0  0  0  0  0  0  0  0  0
    1.2983    1.9186    0.0000 H   0  0  0  0  0  0  0  0  0  0  0  0
    1.8530    2.6128    0.0000 H   0  0  0  0  0  0  0  0  0  0  0  0
    5.5466    2.2245    0.0000 H   0  0  0  0  0  0  0  0  0  0  0  0
    2.9446    4.1151    0.0000 H   0  0  0  0  0  0  0  0  0  0  0  0
    4.7914    3.9210    0.0000 H   0  0  0  0  0  0  0  0  0  0  0  0
  1 20  2  0  0  0  0
  2 23  1  0  0  0  0
  3 23  1  0  0  0  0
  4 23  1  0  0  0  0
  5 12  1  0  0  0  0
  5 15  1  0  0  0  0
  6 13  2  0  0  0  0
  7 14  2  0  0  0  0
  8 13  1  0  0  0  0
  8 20  1  0  0  0  0
  8 26  1  0  0  0  0
  9 14  1  0  0  0  0
  9 20  1  0  0  0  0
  9 27  1  0  0  0  0
 10 11  1  0  0  0  0
 10 13  1  0  0  0  0
 10 14  1  0  0  0  0
 10 28  1  0  0  0  0
 11 12  1  0  0  0  0
 11 29  1  0  0  0  0
 11 30  1  0  0  0  0
 12 16  2  0  0  0  0
 15 17  1  0  0  0  0
 15 18  2  0  0  0  0
 16 18  1  0  0  0  0
 16 31  1  0  0  0  0
 17 19  1  0  0  0  0
 17 21  2  0  0  0  0
 18 32  1  0  0  0  0
 19 22  2  0  0  0  0
 19 23  1  0  0  0  0
 21 24  1  0  0  0  0
 21 33  1  0  0  0  0
 22 25  1  0  0  0  0
 22 34  1  0  0  0  0
 24 25  2  0  0  0  0
 24 35  1  0  0  0  0
 25 36  1  0  0  0  0
M  END
>  <DRUGBANK_ID>
DB01496

>  <COMMON_NAME>
Dihydro-2-thioxo-5-((5-(2-(trifluoromethyl)phenyl)-2-furanyl)methyl)-4,6(1H,5H)-pyrimidinedione

>  <CAS_NUMBER>
959343-20-5

>  <UNII>
R1JI58032B

$$$$
