
 OpenBabel10282417072D

240248  0  0  0  0  0  0  0  0999 V2000
   -0.2474    1.2194    0.0000 C   0  0  0  0  0  0  0  0  0  0  0  0
    1.7953    0.0943    0.0000 C   0  0  0  0  0  0  0  0  0  0  0  0
   -6.1229    4.9764    0.0000 C   0  0  0  0  0  0  0  0  0  0  0  0
    1.5738    2.7467    0.0000 C   0  0  0  0  0  0  0  0  0  0  0  0
   -1.5776   -2.7257    0.0000 C   0  0  0  0  0  0  0  0  0  0  0  0
    6.1229   -4.9764    0.0000 C   0  0  0  0  0  0  0  0  0  0  0  0
   -1.9303   -0.0645    0.0000 C   0  0  0  0  0  0  0  0  0  0  0  0
    0.2749   -1.0876    0.0000 C   0  0  0  0  0  0  0  0  0  0  0  0
   -0.9957    1.4348    0.0000 C   0  0  0  0  0  0  0  0  0  0  0  0
    1.5694    0.8398    0.0000 C   0  0  0  0  0  0  0  0  0  0  0  0
   -5.8170    4.1928    0.0000 C   0  0  0  0  0  0  0  0  0  0  0  0
    2.0991    2.1100    0.0000 C   0  0  0  0  0  0  0  0  0  0  0  0
   -2.1027   -2.0946    0.0000 C   0  0  0  0  0  0  0  0  0  0  0  0
    5.8170   -4.1928    0.0000 C   0  0  0  0  0  0  0  0  0  0  0  0
   -1.5704   -0.7728    0.0000 C   0  0  0  0  0  0  0  0  0  0  0  0
    0.9015   -1.4883    0.0000 C   0  0  0  0  0  0  0  0  0  0  0  0
   -0.9910    2.9536    0.0000 C   0  0  0  0  0  0  0  0  0  0  0  0
    1.4706    2.2508    0.0000 C   0  0  0  0  0  0  0  0  0  0  0  0
   -4.5543    3.3385    0.0000 C   0  0  0  0  0  0  0  0  0  0  0  0
    3.0420    0.9240    0.0000 C   0  0  0  0  0  0  0  0  0  0  0  0
   -3.0017   -0.9003    0.0000 C   0  0  0  0  0  0  0  0  0  0  0  0
    4.5543   -3.3383    0.0000 C   0  0  0  0  0  0  0  0  0  0  0  0
   -1.4792   -2.2269    0.0000 C   0  0  0  0  0  0  0  0  0  0  0  0
    0.9926   -3.0116    0.0000 C   0  0  0  0  0  0  0  0  0  0  0  0
   -0.3253    3.4135    0.0000 C   0  0  2  0  0  0  0  0  0  0  0  0
    2.1836    2.6438    0.0000 C   0  0  2  0  0  0  0  0  0  0  0  0
   -3.7521    3.0616    0.0000 C   0  0  2  0  0  0  0  0  0  0  0  0
    3.4135    0.3253    0.0000 C   0  0  2  0  0  0  0  0  0  0  0  0
   -3.4135   -0.3253    0.0000 C   0  0  2  0  0  0  0  0  0  0  0  0
    3.7521   -3.0616    0.0000 C   0  0  2  0  0  0  0  0  0  0  0  0
   -2.1836   -2.6438    0.0000 C   0  0  2  0  0  0  0  0  0  0  0  0
    0.3253   -3.4135    0.0000 C   0  0  2  0  0  0  0  0  0  0  0  0
   -0.4270    0.2895    0.0000 C   0  0  0  0  0  0  0  0  0  0  0  0
    2.4807   -0.2910    0.0000 C   0  0  0  0  0  0  0  0  0  0  0  0
   -6.9548    5.0974    0.0000 C   0  0  0  0  0  0  0  0  0  0  0  0
    0.8647    2.2926    0.0000 C   0  0  0  0  0  0  0  0  0  0  0  0
   -0.8761   -2.2739    0.0000 C   0  0  0  0  0  0  0  0  0  0  0  0
    6.9547   -5.0974    0.0000 C   0  0  0  0  0  0  0  0  0  0  0  0
   -2.5586    0.5264    0.0000 C   0  0  0  0  0  0  0  0  0  0  0  0
    0.4963   -0.2590    0.0000 C   0  0  0  0  0  0  0  0  0  0  0  0
   -0.4882    4.8181    0.0000 C   0  0  2  0  0  0  0  0  0  0  0  0
   -2.6438    2.1836    0.0000 C   0  0  2  0  0  0  0  0  0  0  0  0
    3.0616    3.7521    0.0000 C   0  0  2  0  0  0  0  0  0  0  0  0
   -4.8181   -0.4882    0.0000 C   0  0  2  0  0  0  0  0  0  0  0  0
    4.8181    0.4882    0.0000 C   0  0  2  0  0  0  0  0  0  0  0  0
   -3.0616   -3.7521    0.0000 C   0  0  2  0  0  0  0  0  0  0  0  0
    2.6438   -2.1836    0.0000 C   0  0  2  0  0  0  0  0  0  0  0  0
    0.4882   -4.8181    0.0000 C   0  0  2  0  0  0  0  0  0  0  0  0
    0.3284    4.9125    0.0000 C   0  0  2  0  0  0  0  0  0  0  0  0
   -2.1380    2.8210    0.0000 C   0  0  2  0  0  0  0  0  0  0  0  0
    3.7060    3.2413    0.0000 C   0  0  2  0  0  0  0  0  0  0  0  0
   -4.9125    0.3284    0.0000 C   0  0  2  0  0  0  0  0  0  0  0  0
    4.9125   -0.3284    0.0000 C   0  0  2  0  0  0  0  0  0  0  0  0
   -3.7059   -3.2413    0.0000 C   0  0  2  0  0  0  0  0  0  0  0  0
    2.1380   -2.8210    0.0000 C   0  0  2  0  0  0  0  0  0  0  0  0
   -0.3284   -4.9125    0.0000 C   0  0  2  0  0  0  0  0  0  0  0  0
   -0.8307    4.0656    0.0000 C   0  0  2  0  0  0  0  0  0  0  0  0
    2.2874    3.4622    0.0000 C   0  0  2  0  0  0  0  0  0  0  0  0
   -3.4622    2.2874    0.0000 C   0  0  2  0  0  0  0  0  0  0  0  0
    4.0656    0.8307    0.0000 C   0  0  2  0  0  0  0  0  0  0  0  0
   -4.0656   -0.8307    0.0000 C   0  0  2  0  0  0  0  0  0  0  0  0
    3.4622   -2.2874    0.0000 C   0  0  2  0  0  0  0  0  0  0  0  0
   -2.2874   -3.4622    0.0000 C   0  0  2  0  0  0  0  0  0  0  0  0
    0.8307   -4.0656    0.0000 C   0  0  2  0  0  0  0  0  0  0  0  0
    0.8329    4.2524    0.0000 C   0  0  2  0  0  0  0  0  0  0  0  0
   -2.4179    3.5959    0.0000 C   0  0  2  0  0  0  0  0  0  0  0  0
    3.5959    2.4179    0.0000 C   0  0  2  0  0  0  0  0  0  0  0  0
   -4.2524    0.8329    0.0000 C   0  0  2  0  0  0  0  0  0  0  0  0
    4.2524   -0.8329    0.0000 C   0  0  2  0  0  0  0  0  0  0  0  0
   -3.5959   -2.4179    0.0000 C   0  0  2  0  0  0  0  0  0  0  0  0
    2.4179   -3.5959    0.0000 C   0  0  2  0  0  0  0  0  0  0  0  0
   -0.8329   -4.2524    0.0000 C   0  0  2  0  0  0  0  0  0  0  0  0
   -0.0637   -0.3993    0.0000 O   0  0  0  0  0  0  0  0  0  0  0  0
   -1.1631   -0.0129    0.0000 O   0  0  0  0  0  0  0  0  0  0  0  0
    3.1924   -0.1249    0.0000 O   0  0  0  0  0  0  0  0  0  0  0  0
    2.5131   -1.0219    0.0000 O   0  0  0  0  0  0  0  0  0  0  0  0
   -7.5234    4.4867    0.0000 O   0  0  0  0  0  0  0  0  0  0  0  0
   -7.2399    5.8767    0.0000 O   0  0  0  0  0  0  0  0  0  0  0  0
    0.6556    1.4650    0.0000 O   0  0  0  0  0  0  0  0  0  0  0  0
    0.2975    2.8321    0.0000 O   0  0  0  0  0  0  0  0  0  0  0  0
   -0.7046   -1.4527    0.0000 O   0  0  0  0  0  0  0  0  0  0  0  0
   -0.3271   -2.8282    0.0000 O   0  0  0  0  0  0  0  0  0  0  0  0
    7.5234   -4.4867    0.0000 O   0  0  0  0  0  0  0  0  0  0  0  0
    7.2399   -5.8767    0.0000 O   0  0  0  0  0  0  0  0  0  0  0  0
   -3.1874    0.1226    0.0000 O   0  0  0  0  0  0  0  0  0  0  0  0
   -2.6482    1.3550    0.0000 O   0  0  0  0  0  0  0  0  0  0  0  0
    0.1665    0.4024    0.0000 O   0  0  0  0  0  0  0  0  0  0  0  0
    1.2118   -0.0106    0.0000 O   0  0  0  0  0  0  0  0  0  0  0  0
   -0.8631    5.5771    0.0000 O   0  0  0  0  0  0  0  0  0  0  0  0
   -2.1604    1.8110    0.0000 O   0  0  0  0  0  0  0  0  0  0  0  0
    3.3439    4.5504    0.0000 O   0  0  0  0  0  0  0  0  0  0  0  0
   -5.5741   -0.8729    0.0000 O   0  0  0  0  0  0  0  0  0  0  0  0
    5.5740    0.8734    0.0000 O   0  0  0  0  0  0  0  0  0  0  0  0
   -3.3437   -4.5504    0.0000 O   0  0  0  0  0  0  0  0  0  0  0  0
    2.8182   -1.4790    0.0000 O   0  0  0  0  0  0  0  0  0  0  0  0
    0.8628   -5.5774    0.0000 O   0  0  0  0  0  0  0  0  0  0  0  0
    0.6401    5.6965    0.0000 O   0  0  0  0  0  0  0  0  0  0  0  0
   -1.8137    3.4355    0.0000 O   0  0  0  0  0  0  0  0  0  0  0  0
    4.4806    3.5787    0.0000 O   0  0  0  0  0  0  0  0  0  0  0  0
   -5.7110    0.6108    0.0000 O   0  0  0  0  0  0  0  0  0  0  0  0
    5.7111   -0.6108    0.0000 O   0  0  0  0  0  0  0  0  0  0  0  0
   -4.4817   -3.5736    0.0000 O   0  0  0  0  0  0  0  0  0  0  0  0
    1.8415   -3.4475    0.0000 O   0  0  0  0  0  0  0  0  0  0  0  0
   -0.6402   -5.6965    0.0000 O   0  0  0  0  0  0  0  0  0  0  0  0
    0.4829    3.5066    0.0000 O   0  0  0  0  0  0  0  0  0  0  0  0
   -3.2413    3.7059    0.0000 O   0  0  0  0  0  0  0  0  0  0  0  0
    2.8210    2.1380    0.0000 O   0  0  0  0  0  0  0  0  0  0  0  0
   -3.5066    0.4829    0.0000 O   0  0  0  0  0  0  0  0  0  0  0  0
    3.5066   -0.4829    0.0000 O   0  0  0  0  0  0  0  0  0  0  0  0
   -2.8210   -2.1380    0.0000 O   0  0  0  0  0  0  0  0  0  0  0  0
    3.2413   -3.7060    0.0000 O   0  0  0  0  0  0  0  0  0  0  0  0
   -0.4829   -3.5066    0.0000 O   0  0  0  0  0  0  0  0  0  0  0  0
   -1.6679    3.9744    0.0000 O   0  0  0  0  0  0  0  0  0  0  0  0
    1.6309    3.9897    0.0000 O   0  0  0  0  0  0  0  0  0  0  0  0
   -3.9897    1.6309    0.0000 O   0  0  0  0  0  0  0  0  0  0  0  0
    3.9744    1.6679    0.0000 O   0  0  0  0  0  0  0  0  0  0  0  0
   -3.9744   -1.6679    0.0000 O   0  0  0  0  0  0  0  0  0  0  0  0
    3.9897   -1.6309    0.0000 O   0  0  0  0  0  0  0  0  0  0  0  0
   -1.6309   -3.9897    0.0000 O   0  0  0  0  0  0  0  0  0  0  0  0
    1.6679   -3.9744    0.0000 O   0  0  0  0  0  0  0  0  0  0  0  0
   -1.0724    2.1913    0.0000 S   0  0  0  0  0  0  0  0  0  0  0  0
    1.1809    1.5586    0.0000 S   0  0  0  0  0  0  0  0  0  0  0  0
   -4.9908    4.0551    0.0000 S   0  0  0  0  0  0  0  0  0  0  0  0
    2.6570    1.5721    0.0000 S   0  0  0  0  0  0  0  0  0  0  0  0
   -2.6622   -1.5671    0.0000 S   0  0  0  0  0  0  0  0  0  0  0  0
    4.9908   -4.0550    0.0000 S   0  0  0  0  0  0  0  0  0  0  0  0
   -1.2255   -1.5206    0.0000 S   0  0  0  0  0  0  0  0  0  0  0  0
    0.9414   -2.2545    0.0000 S   0  0  0  0  0  0  0  0  0  0  0  0
    0.6649    1.7786    0.0000 H   0  0  0  0  0  0  0  0  0  0  0  0
    0.6322    0.6101    0.0000 H   0  0  0  0  0  0  0  0  0  0  0  0
    0.9609   -0.5755    0.0000 H   0  0  0  0  0  0  0  0  0  0  0  0
    1.8831   -0.9721    0.0000 H   0  0  0  0  0  0  0  0  0  0  0  0
   -5.4572    5.8141    0.0000 H   0  0  0  0  0  0  0  0  0  0  0  0
   -6.5172    5.9711    0.0000 H   0  0  0  0  0  0  0  0  0  0  0  0
    1.7397    3.8038    0.0000 H   0  0  0  0  0  0  0  0  0  0  0  0
    0.6779    3.3317    0.0000 H   0  0  0  0  0  0  0  0  0  0  0  0
   -1.7400   -3.7833    0.0000 H   0  0  0  0  0  0  0  0  0  0  0  0
   -0.6799   -3.3080    0.0000 H   0  0  0  0  0  0  0  0  0  0  0  0
    5.4572   -5.8141    0.0000 H   0  0  0  0  0  0  0  0  0  0  0  0
    6.5172   -5.9711    0.0000 H   0  0  0  0  0  0  0  0  0  0  0  0
   -1.0740    0.5772    0.0000 H   0  0  0  0  0  0  0  0  0  0  0  0
   -1.8706    1.0038    0.0000 H   0  0  0  0  0  0  0  0  0  0  0  0
   -0.7225   -1.4749    0.0000 H   0  0  0  0  0  0  0  0  0  0  0  0
   -0.5219   -0.3734    0.0000 H   0  0  0  0  0  0  0  0  0  0  0  0
   -1.8170    0.7489    0.0000 H   0  0  0  0  0  0  0  0  0  0  0  0
   -1.9866    1.8386    0.0000 H   0  0  0  0  0  0  0  0  0  0  0  0
    2.5571    1.2514    0.0000 H   0  0  0  0  0  0  0  0  0  0  0  0
    1.9264    1.8485    0.0000 H   0  0  0  0  0  0  0  0  0  0  0  0
   -6.4914    3.3621    0.0000 H   0  0  0  0  0  0  0  0  0  0  0  0
   -5.4382    3.1921    0.0000 H   0  0  0  0  0  0  0  0  0  0  0  0
    1.3138    1.3832    0.0000 H   0  0  0  0  0  0  0  0  0  0  0  0
    2.0882    1.0401    0.0000 H   0  0  0  0  0  0  0  0  0  0  0  0
   -1.3230   -1.3618    0.0000 H   0  0  0  0  0  0  0  0  0  0  0  0
   -2.1019   -1.0246    0.0000 H   0  0  0  0  0  0  0  0  0  0  0  0
    6.4914   -3.3621    0.0000 H   0  0  0  0  0  0  0  0  0  0  0  0
    5.4383   -3.1921    0.0000 H   0  0  0  0  0  0  0  0  0  0  0  0
   -0.6074   -0.3063    0.0000 H   0  0  0  0  0  0  0  0  0  0  0  0
   -0.5630   -1.1334    0.0000 H   0  0  0  0  0  0  0  0  0  0  0  0
    1.8264   -0.9502    0.0000 H   0  0  0  0  0  0  0  0  0  0  0  0
    1.8426   -1.9974    0.0000 H   0  0  0  0  0  0  0  0  0  0  0  0
   -1.9108    3.5003    0.0000 H   0  0  0  0  0  0  0  0  0  0  0  0
   -1.9478    2.4747    0.0000 H   0  0  0  0  0  0  0  0  0  0  0  0
    0.6745    2.9657    0.0000 H   0  0  0  0  0  0  0  0  0  0  0  0
    0.4267    2.0159    0.0000 H   0  0  0  0  0  0  0  0  0  0  0  0
   -5.2255    2.5052    0.0000 H   0  0  0  0  0  0  0  0  0  0  0  0
   -5.6220    3.4085    0.0000 H   0  0  0  0  0  0  0  0  0  0  0  0
    2.1274    0.3687    0.0000 H   0  0  0  0  0  0  0  0  0  0  0  0
    2.0038    1.1831    0.0000 H   0  0  0  0  0  0  0  0  0  0  0  0
   -2.0874   -0.3445    0.0000 H   0  0  0  0  0  0  0  0  0  0  0  0
   -1.9724   -1.1927    0.0000 H   0  0  0  0  0  0  0  0  0  0  0  0
    5.2254   -2.5049    0.0000 H   0  0  0  0  0  0  0  0  0  0  0  0
    5.6220   -3.4083    0.0000 H   0  0  0  0  0  0  0  0  0  0  0  0
   -0.6544   -2.9085    0.0000 H   0  0  0  0  0  0  0  0  0  0  0  0
   -0.4473   -1.9439    0.0000 H   0  0  0  0  0  0  0  0  0  0  0  0
    1.9414   -3.5063    0.0000 H   0  0  0  0  0  0  0  0  0  0  0  0
    1.8883   -2.4262    0.0000 H   0  0  0  0  0  0  0  0  0  0  0  0
   -1.3827    3.5771    0.0000 H   0  0  0  0  0  0  0  0  0  0  0  0
    1.2984    3.2450    0.0000 H   0  0  0  0  0  0  0  0  0  0  0  0
   -4.4988    2.2953    0.0000 H   0  0  0  0  0  0  0  0  0  0  0  0
    3.6030    1.3784    0.0000 H   0  0  0  0  0  0  0  0  0  0  0  0
   -3.5681   -1.3841    0.0000 H   0  0  0  0  0  0  0  0  0  0  0  0
    4.4988   -2.2952    0.0000 H   0  0  0  0  0  0  0  0  0  0  0  0
   -1.2893   -3.2313    0.0000 H   0  0  0  0  0  0  0  0  0  0  0  0
    1.3771   -3.6100    0.0000 H   0  0  0  0  0  0  0  0  0  0  0  0
    0.0233    5.7579    0.0000 H   0  0  0  0  0  0  0  0  0  0  0  0
   -1.5817    2.3135    0.0000 H   0  0  0  0  0  0  0  0  0  0  0  0
    4.0898    4.0481    0.0000 H   0  0  0  0  0  0  0  0  0  0  0  0
   -5.7609    0.0177    0.0000 H   0  0  0  0  0  0  0  0  0  0  0  0
    5.7611   -0.0175    0.0000 H   0  0  0  0  0  0  0  0  0  0  0  0
   -4.0898   -4.0482    0.0000 H   0  0  0  0  0  0  0  0  0  0  0  0
    1.6835   -1.7117    0.0000 H   0  0  0  0  0  0  0  0  0  0  0  0
   -0.0236   -5.7578    0.0000 H   0  0  0  0  0  0  0  0  0  0  0  0
   -0.3223    5.7619    0.0000 H   0  0  0  0  0  0  0  0  0  0  0  0
   -3.0341    3.4058    0.0000 H   0  0  0  0  0  0  0  0  0  0  0  0
    3.8444    4.3023    0.0000 H   0  0  0  0  0  0  0  0  0  0  0  0
   -5.7492   -0.3385    0.0000 H   0  0  0  0  0  0  0  0  0  0  0  0
    5.7492    0.3386    0.0000 H   0  0  0  0  0  0  0  0  0  0  0  0
   -3.8476   -4.3019    0.0000 H   0  0  0  0  0  0  0  0  0  0  0  0
    3.0466   -3.3861    0.0000 H   0  0  0  0  0  0  0  0  0  0  0  0
    0.3223   -5.7619    0.0000 H   0  0  0  0  0  0  0  0  0  0  0  0
   -1.2488    3.0807    0.0000 H   0  0  0  0  0  0  0  0  0  0  0  0
    1.2953    3.0615    0.0000 H   0  0  0  0  0  0  0  0  0  0  0  0
   -4.5187    2.4571    0.0000 H   0  0  0  0  0  0  0  0  0  0  0  0
    3.0807    1.2488    0.0000 H   0  0  0  0  0  0  0  0  0  0  0  0
   -3.0807   -1.2488    0.0000 H   0  0  0  0  0  0  0  0  0  0  0  0
    4.5187   -2.4571    0.0000 H   0  0  0  0  0  0  0  0  0  0  0  0
   -1.2953   -3.0615    0.0000 H   0  0  0  0  0  0  0  0  0  0  0  0
    1.2488   -3.0807    0.0000 H   0  0  0  0  0  0  0  0  0  0  0  0
    1.4530    5.1244    0.0000 H   0  0  0  0  0  0  0  0  0  0  0  0
   -1.4236    3.2006    0.0000 H   0  0  0  0  0  0  0  0  0  0  0  0
    4.6510    2.5960    0.0000 H   0  0  0  0  0  0  0  0  0  0  0  0
   -5.1244    1.4530    0.0000 H   0  0  0  0  0  0  0  0  0  0  0  0
    5.1244   -1.4530    0.0000 H   0  0  0  0  0  0  0  0  0  0  0  0
   -4.6510   -2.5961    0.0000 H   0  0  0  0  0  0  0  0  0  0  0  0
    1.4236   -3.2006    0.0000 H   0  0  0  0  0  0  0  0  0  0  0  0
   -1.4530   -5.1244    0.0000 H   0  0  0  0  0  0  0  0  0  0  0  0
   -1.9048    0.5597    0.0000 H   0  0  0  0  0  0  0  0  0  0  0  0
    1.7232   -1.5259    0.0000 H   0  0  0  0  0  0  0  0  0  0  0  0
   -6.6388    6.5955    0.0000 H   0  0  0  0  0  0  0  0  0  0  0  0
    0.5173    3.7430    0.0000 H   0  0  0  0  0  0  0  0  0  0  0  0
   -0.5740   -3.7321    0.0000 H   0  0  0  0  0  0  0  0  0  0  0  0
    6.6389   -6.5955    0.0000 H   0  0  0  0  0  0  0  0  0  0  0  0
   -1.8918    1.9080    0.0000 H   0  0  0  0  0  0  0  0  0  0  0  0
    1.9205   -0.6235    0.0000 H   0  0  0  0  0  0  0  0  0  0  0  0
   -0.3247    6.3840    0.0000 H   0  0  0  0  0  0  0  0  0  0  0  0
   -2.2891    0.8496    0.0000 H   0  0  0  0  0  0  0  0  0  0  0  0
    4.2976    4.7276    0.0000 H   0  0  0  0  0  0  0  0  0  0  0  0
   -6.3873   -0.3442    0.0000 H   0  0  0  0  0  0  0  0  0  0  0  0
    6.3875    0.3451    0.0000 H   0  0  0  0  0  0  0  0  0  0  0  0
   -4.2973   -4.7278    0.0000 H   0  0  0  0  0  0  0  0  0  0  0  0
    3.7502   -1.2100    0.0000 H   0  0  0  0  0  0  0  0  0  0  0  0
    0.3240   -6.3840    0.0000 H   0  0  0  0  0  0  0  0  0  0  0  0
    1.5999    5.8368    0.0000 H   0  0  0  0  0  0  0  0  0  0  0  0
   -0.8444    3.4724    0.0000 H   0  0  0  0  0  0  0  0  0  0  0  0
    5.2607    3.0022    0.0000 H   0  0  0  0  0  0  0  0  0  0  0  0
   -5.8882    1.5645    0.0000 H   0  0  0  0  0  0  0  0  0  0  0  0
    5.8883   -1.5645    0.0000 H   0  0  0  0  0  0  0  0  0  0  0  0
   -5.2583   -2.9924    0.0000 H   0  0  0  0  0  0  0  0  0  0  0  0
    0.8747   -3.5265    0.0000 H   0  0  0  0  0  0  0  0  0  0  0  0
   -1.6000   -5.8367    0.0000 H   0  0  0  0  0  0  0  0  0  0  0  0
  1129  1  0  0  0  0
  1130  1  0  0  0  0
  2131  1  0  0  0  0
  2132  1  0  0  0  0
  3133  1  0  0  0  0
  3134  1  0  0  0  0
  4135  1  0  0  0  0
  4136  1  0  0  0  0
  5137  1  0  0  0  0
  5138  1  0  0  0  0
  6139  1  0  0  0  0
  6140  1  0  0  0  0
  7141  1  0  0  0  0
  7142  1  0  0  0  0
  8143  1  0  0  0  0
  8144  1  0  0  0  0
  9  1  1  0  0  0  0
  9145  1  0  0  0  0
  9146  1  0  0  0  0
 10  2  1  0  0  0  0
 10147  1  0  0  0  0
 10148  1  0  0  0  0
 11  3  1  0  0  0  0
 11149  1  0  0  0  0
 11150  1  0  0  0  0
 12  4  1  0  0  0  0
 12151  1  0  0  0  0
 12152  1  0  0  0  0
 13  5  1  0  0  0  0
 13153  1  0  0  0  0
 13154  1  0  0  0  0
 14  6  1  0  0  0  0
 14155  1  0  0  0  0
 14156  1  0  0  0  0
 15  7  1  0  0  0  0
 15157  1  0  0  0  0
 15158  1  0  0  0  0
 16  8  1  0  0  0  0
 16159  1  0  0  0  0
 16160  1  0  0  0  0
 17161  1  0  0  0  0
 17162  1  0  0  0  0
 18163  1  0  0  0  0
 18164  1  0  0  0  0
 19165  1  0  0  0  0
 19166  1  0  0  0  0
 20167  1  0  0  0  0
 20168  1  0  0  0  0
 21169  1  0  0  0  0
 21170  1  0  0  0  0
 22171  1  0  0  0  0
 22172  1  0  0  0  0
 23173  1  0  0  0  0
 23174  1  0  0  0  0
 24175  1  0  0  0  0
 24176  1  0  0  0  0
 25 17  1  0  0  0  0
 25177  1  1  0  0  0
 26 18  1  0  0  0  0
 26178  1  1  0  0  0
 27 19  1  0  0  0  0
 27179  1  6  0  0  0
 28 20  1  0  0  0  0
 28180  1  1  0  0  0
 29 21  1  0  0  0  0
 29181  1  1  0  0  0
 30 22  1  0  0  0  0
 30182  1  6  0  0  0
 31 23  1  0  0  0  0
 31183  1  1  0  0  0
 32 24  1  0  0  0  0
 32184  1  1  0  0  0
 33  1  1  0  0  0  0
 34  2  1  0  0  0  0
 35  3  1  0  0  0  0
 36  4  1  0  0  0  0
 37  5  1  0  0  0  0
 38  6  1  0  0  0  0
 39  7  1  0  0  0  0
 40  8  1  0  0  0  0
 41 89  1  0  0  0  0
 41185  1  1  0  0  0
 42 90  1  0  0  0  0
 42186  1  6  0  0  0
 43 91  1  0  0  0  0
 43187  1  1  0  0  0
 44 92  1  0  0  0  0
 44188  1  1  0  0  0
 45 93  1  0  0  0  0
 45189  1  1  0  0  0
 46 94  1  0  0  0  0
 46190  1  1  0  0  0
 47 95  1  0  0  0  0
 47191  1  6  0  0  0
 48 96  1  0  0  0  0
 48192  1  1  0  0  0
 49 41  1  0  0  0  0
 49 97  1  0  0  0  0
 49193  1  6  0  0  0
 50 42  1  0  0  0  0
 50 98  1  0  0  0  0
 50194  1  1  0  0  0
 51 43  1  0  0  0  0
 51 99  1  0  0  0  0
 51195  1  6  0  0  0
 52 44  1  0  0  0  0
 52100  1  0  0  0  0
 52196  1  6  0  0  0
 53 45  1  0  0  0  0
 53101  1  0  0  0  0
 53197  1  6  0  0  0
 54 46  1  0  0  0  0
 54102  1  0  0  0  0
 54198  1  6  0  0  0
 55 47  1  0  0  0  0
 55103  1  0  0  0  0
 55199  1  1  0  0  0
 56 48  1  0  0  0  0
 56104  1  0  0  0  0
 56200  1  6  0  0  0
 57 25  1  0  0  0  0
 57 41  1  0  0  0  0
 57113  1  0  0  0  0
 57201  1  6  0  0  0
 58 26  1  0  0  0  0
 58 43  1  0  0  0  0
 58114  1  0  0  0  0
 58202  1  6  0  0  0
 59 27  1  0  0  0  0
 59 42  1  0  0  0  0
 59115  1  0  0  0  0
 59203  1  1  0  0  0
 60 28  1  0  0  0  0
 60 45  1  0  0  0  0
 60116  1  0  0  0  0
 60204  1  6  0  0  0
 61 29  1  0  0  0  0
 61 44  1  0  0  0  0
 61117  1  0  0  0  0
 61205  1  6  0  0  0
 62 30  1  0  0  0  0
 62 47  1  0  0  0  0
 62118  1  0  0  0  0
 62206  1  1  0  0  0
 63 31  1  0  0  0  0
 63 46  1  0  0  0  0
 63119  1  0  0  0  0
 63207  1  6  0  0  0
 64 32  1  0  0  0  0
 64 48  1  0  0  0  0
 64120  1  0  0  0  0
 64208  1  6  0  0  0
 65 49  1  0  0  0  0
 65114  1  0  0  0  0
 65209  1  6  0  0  0
 66 50  1  0  0  0  0
 66113  1  0  0  0  0
 66210  1  1  0  0  0
 67 51  1  0  0  0  0
 67116  1  0  0  0  0
 67211  1  6  0  0  0
 68 52  1  0  0  0  0
 68115  1  0  0  0  0
 68212  1  6  0  0  0
 69 53  1  0  0  0  0
 69118  1  0  0  0  0
 69213  1  6  0  0  0
 70 54  1  0  0  0  0
 70117  1  0  0  0  0
 70214  1  6  0  0  0
 71 55  1  0  0  0  0
 71120  1  0  0  0  0
 71215  1  1  0  0  0
 72 56  1  0  0  0  0
 72119  1  0  0  0  0
 72216  1  6  0  0  0
 73 33  2  0  0  0  0
 74 33  1  0  0  0  0
 74217  1  0  0  0  0
 75 34  2  0  0  0  0
 76 34  1  0  0  0  0
 76218  1  0  0  0  0
 77 35  2  0  0  0  0
 78 35  1  0  0  0  0
 78219  1  0  0  0  0
 79 36  2  0  0  0  0
 80 36  1  0  0  0  0
 80220  1  0  0  0  0
 81 37  2  0  0  0  0
 82 37  1  0  0  0  0
 82221  1  0  0  0  0
 83 38  2  0  0  0  0
 84 38  1  0  0  0  0
 84222  1  0  0  0  0
 85 39  2  0  0  0  0
 86 39  1  0  0  0  0
 86223  1  0  0  0  0
 87 40  2  0  0  0  0
 88 40  1  0  0  0  0
 88224  1  0  0  0  0
 89225  1  0  0  0  0
 90226  1  0  0  0  0
 91227  1  0  0  0  0
 92228  1  0  0  0  0
 93229  1  0  0  0  0
 94230  1  0  0  0  0
 95231  1  0  0  0  0
 96232  1  0  0  0  0
 97233  1  0  0  0  0
 98234  1  0  0  0  0
 99235  1  0  0  0  0
100236  1  0  0  0  0
101237  1  0  0  0  0
102238  1  0  0  0  0
103239  1  0  0  0  0
104240  1  0  0  0  0
105 25  1  0  0  0  0
105 65  1  0  0  0  0
106 27  1  0  0  0  0
106 66  1  0  0  0  0
107 26  1  0  0  0  0
107 67  1  0  0  0  0
108 29  1  0  0  0  0
108 68  1  0  0  0  0
109 28  1  0  0  0  0
109 69  1  0  0  0  0
110 31  1  0  0  0  0
110 70  1  0  0  0  0
111 30  1  0  0  0  0
111 71  1  0  0  0  0
112 32  1  0  0  0  0
112 72  1  0  0  0  0
121  9  1  0  0  0  0
121 17  1  0  0  0  0
122 10  1  0  0  0  0
122 18  1  0  0  0  0
123 11  1  0  0  0  0
123 19  1  0  0  0  0
124 12  1  0  0  0  0
124 20  1  0  0  0  0
125 13  1  0  0  0  0
125 21  1  0  0  0  0
126 14  1  0  0  0  0
126 22  1  0  0  0  0
127 15  1  0  0  0  0
127 23  1  0  0  0  0
128 16  1  0  0  0  0
128 24  1  0  0  0  0
M  END
>  <DRUGBANK_ID>
DB06206

>  <COMMON_NAME>
Sugammadex

>  <CAS_NUMBER>
343306-71-8

>  <UNII>
361LPM2T56

>  <SYNONYMS>
Sugammadex

$$$$
