
 OpenBabel10282417072D

 32 32  0  0  1  0  0  0  0  0999 V2000
   -0.5902   -0.0666    0.0000 C   0  0  0  0  0  0  0  0  0  0  0  0
   -1.3047   -0.4791    0.0000 C   0  0  0  0  0  0  0  0  0  0  0  0
   -1.3047   -1.3041    0.0000 C   0  0  0  0  0  0  0  0  0  0  0  0
    0.1242   -0.4791    0.0000 C   0  0  0  0  0  0  0  0  0  0  0  0
   -0.5902   -1.7166    0.0000 C   0  0  0  0  0  0  0  0  0  0  0  0
    0.1242   -1.3041    0.0000 C   0  0  0  0  0  0  0  0  0  0  0  0
   -2.0191   -0.0666    0.0000 C   0  0  2  0  0  0  0  0  0  0  0  0
   -2.0191    0.7583    0.0000 C   0  0  2  0  0  0  0  0  0  0  0  0
   -2.7336   -0.4791    0.0000 O   0  0  0  0  0  0  0  0  0  0  0  0
   -2.7336    1.1708    0.0000 N   0  0  0  0  0  0  0  0  0  0  0  0
   -1.3047    1.1708    0.0000 C   0  0  0  0  0  0  0  0  0  0  0  0
   -0.5902    0.7583    0.0000 O   0  0  0  0  0  0  0  0  0  0  0  0
    0.8387   -1.7166    0.0000 N   0  3  0  0  0  0  0  0  0  0  0  0
    0.8387   -2.5416    0.0000 O   0  5  0  0  0  0  0  0  0  0  0  0
    1.5531   -1.3041    0.0000 O   0  0  0  0  0  0  0  0  0  0  0  0
   -2.7336    1.9958    0.0000 C   0  0  0  0  0  0  0  0  0  0  0  0
   -3.4481    2.4083    0.0000 O   0  0  0  0  0  0  0  0  0  0  0  0
   -2.0191    2.4083    0.0000 C   0  0  0  0  0  0  0  0  0  0  0  0
   -0.5902    0.9654    0.0000 H   0  0  0  0  0  0  0  0  0  0  0  0
   -2.1984   -1.8201    0.0000 H   0  0  0  0  0  0  0  0  0  0  0  0
    1.0179    0.0369    0.0000 H   0  0  0  0  0  0  0  0  0  0  0  0
   -0.5902   -2.7486    0.0000 H   0  0  0  0  0  0  0  0  0  0  0  0
   -2.0191   -1.1366    0.0000 H   0  0  0  0  0  0  0  0  0  0  0  0
   -1.0924    0.2233    0.0000 H   0  0  0  0  0  0  0  0  0  0  0  0
   -3.5736    0.0059    0.0000 H   0  0  0  0  0  0  0  0  0  0  0  0
   -3.5862    0.6785    0.0000 H   0  0  0  0  0  0  0  0  0  0  0  0
   -1.3047    2.2408    0.0000 H   0  0  0  0  0  0  0  0  0  0  0  0
   -0.3781    1.7058    0.0000 H   0  0  0  0  0  0  0  0  0  0  0  0
   -0.5902   -0.2117    0.0000 H   0  0  0  0  0  0  0  0  0  0  0  0
   -1.0925    1.8733    0.0000 H   0  0  0  0  0  0  0  0  0  0  0  0
   -2.0191    3.4783    0.0000 H   0  0  0  0  0  0  0  0  0  0  0  0
   -1.0924    2.9433    0.0000 H   0  0  0  0  0  0  0  0  0  0  0  0
  1  4  1  0  0  0  0
  1 19  1  0  0  0  0
  2  1  2  0  0  0  0
  2  7  1  0  0  0  0
  2  3  1  0  0  0  0
  3  5  2  0  0  0  0
  3 20  1  0  0  0  0
  4  6  2  0  0  0  0
  4 21  1  0  0  0  0
  5  6  1  0  0  0  0
  5 22  1  0  0  0  0
  6 13  1  0  0  0  0
  7  8  1  0  0  0  0
  7  9  1  0  0  0  0
  7 23  1  6  0  0  0
  8 10  1  0  0  0  0
  8 11  1  0  0  0  0
  8 24  1  1  0  0  0
  9 25  1  0  0  0  0
 10 26  1  0  0  0  0
 11 12  1  0  0  0  0
 11 27  1  0  0  0  0
 11 28  1  0  0  0  0
 12 29  1  0  0  0  0
 13 14  1  0  0  0  0
 13 15  2  0  0  0  0
 16 17  2  0  0  0  0
 16 10  1  0  0  0  0
 18 16  1  0  0  0  0
 18 30  1  0  0  0  0
 18 31  1  0  0  0  0
 18 32  1  0  0  0  0
M  CHG  2  13   1  14  -1
M  END
>  <DRUGBANK_ID>
DB02608

>  <SECONDARY_ACCESSION_NUMBERS>
EXPT00937

>  <COMMON_NAME>
N-[(1R,2R)-1,3-Dihydroxy-1-(4-nitrophenyl)-2-propanyl]acetamide

>  <CAS_NUMBER>
4423-58-9

$$$$
