B28
 OpenBabel10282417072D

 49 51  0  0  0  0  0  0  0  0999 V2000
    5.6302   -0.9066    0.0000 C   0  0  0  0  0  0  0  0  0  0  0  0
    6.3447   -1.3191    0.0000 C   0  0  0  0  0  0  0  0  0  0  0  0
    6.3447   -2.1441    0.0000 C   0  0  0  0  0  0  0  0  0  0  0  0
    5.6302   -2.5566    0.0000 C   0  0  0  0  0  0  0  0  0  0  0  0
    4.9157   -2.1441    0.0000 C   0  0  0  0  0  0  0  0  0  0  0  0
    4.9157   -1.3191    0.0000 C   0  0  0  0  0  0  0  0  0  0  0  0
    4.2012   -0.9066    0.0000 C   0  0  0  0  0  0  0  0  0  0  0  0
    4.2012   -0.0816    0.0000 C   0  0  0  0  0  0  0  0  0  0  0  0
    3.4868    0.3309    0.0000 C   0  0  0  0  0  0  0  0  0  0  0  0
    3.4868   -1.3191    0.0000 C   0  0  0  0  0  0  0  0  0  0  0  0
    2.7723   -0.9066    0.0000 C   0  0  0  0  0  0  0  0  0  0  0  0
    2.7723   -0.0816    0.0000 C   0  0  0  0  0  0  0  0  0  0  0  0
    2.0578    0.3309    0.0000 C   0  0  0  0  0  0  0  0  0  0  0  0
    1.3434   -0.0816    0.0000 C   0  0  0  0  0  0  0  0  0  0  0  0
    2.0578    1.1559    0.0000 C   0  0  0  0  0  0  0  0  0  0  0  0
    1.3434    1.5684    0.0000 C   0  0  0  0  0  0  0  0  0  0  0  0
    0.6289    1.1559    0.0000 C   0  0  0  0  0  0  0  0  0  0  0  0
    0.6289    0.3309    0.0000 C   0  0  0  0  0  0  0  0  0  0  0  0
   -0.0856   -0.0816    0.0000 C   0  0  0  0  0  0  0  0  0  0  0  0
   -0.0856   -0.9066    0.0000 C   0  0  0  0  0  0  0  0  0  0  0  0
    0.7394   -0.9066    0.0000 P   0  0  0  0  0  0  0  0  0  0  0  0
    0.7394   -0.0816    0.0000 O   0  0  0  0  0  0  0  0  0  0  0  0
    1.5644   -0.9066    0.0000 O   0  0  0  0  0  0  0  0  0  0  0  0
    0.7394   -1.7316    0.0000 O   0  0  0  0  0  0  0  0  0  0  0  0
   -0.9106   -0.9066    0.0000 P   0  0  0  0  0  0  0  0  0  0  0  0
   -1.7356   -0.9066    0.0000 O   0  0  0  0  0  0  0  0  0  0  0  0
   -0.9106   -1.7316    0.0000 O   0  0  0  0  0  0  0  0  0  0  0  0
   -0.9106   -0.0816    0.0000 O   0  0  0  0  0  0  0  0  0  0  0  0
   -0.0856   -1.7316    0.0000 O   0  0  0  0  0  0  0  0  0  0  0  0
    5.6302    0.1254    0.0000 H   0  0  0  0  0  0  0  0  0  0  0  0
    7.2384   -0.8031    0.0000 H   0  0  0  0  0  0  0  0  0  0  0  0
    7.2384   -2.6601    0.0000 H   0  0  0  0  0  0  0  0  0  0  0  0
    5.6302   -3.5886    0.0000 H   0  0  0  0  0  0  0  0  0  0  0  0
    4.0220   -2.6601    0.0000 H   0  0  0  0  0  0  0  0  0  0  0  0
    5.0949    0.4344    0.0000 H   0  0  0  0  0  0  0  0  0  0  0  0
    3.4868    1.3629    0.0000 H   0  0  0  0  0  0  0  0  0  0  0  0
    3.4868   -2.3511    0.0000 H   0  0  0  0  0  0  0  0  0  0  0  0
    1.8786   -1.4226    0.0000 H   0  0  0  0  0  0  0  0  0  0  0  0
    1.3434   -1.1136    0.0000 H   0  0  0  0  0  0  0  0  0  0  0  0
    2.9515    1.6719    0.0000 H   0  0  0  0  0  0  0  0  0  0  0  0
    1.3434    2.6004    0.0000 H   0  0  0  0  0  0  0  0  0  0  0  0
   -0.2648    1.6719    0.0000 H   0  0  0  0  0  0  0  0  0  0  0  0
   -1.0122    0.4534    0.0000 H   0  0  0  0  0  0  0  0  0  0  0  0
   -1.0122   -0.6166    0.0000 H   0  0  0  0  0  0  0  0  0  0  0  0
    1.5794    0.4034    0.0000 H   0  0  0  0  0  0  0  0  0  0  0  0
   -0.1006   -2.2166    0.0000 H   0  0  0  0  0  0  0  0  0  0  0  0
   -1.7506   -2.2166    0.0000 H   0  0  0  0  0  0  0  0  0  0  0  0
   -0.0706    0.4034    0.0000 H   0  0  0  0  0  0  0  0  0  0  0  0
   -0.9256   -2.2166    0.0000 H   0  0  0  0  0  0  0  0  0  0  0  0
  1  2  1  0  0  0  0
  1  6  2  0  0  0  0
  1 30  1  0  0  0  0
  2  3  2  0  0  0  0
  2 31  1  0  0  0  0
  3  4  1  0  0  0  0
  3 32  1  0  0  0  0
  4  5  2  0  0  0  0
  4 33  1  0  0  0  0
  5  6  1  0  0  0  0
  5 34  1  0  0  0  0
  6  7  1  0  0  0  0
  7 10  2  0  0  0  0
  7  8  1  0  0  0  0
  8  9  2  0  0  0  0
  8 35  1  0  0  0  0
  9 12  1  0  0  0  0
  9 36  1  0  0  0  0
 10 11  1  0  0  0  0
 10 37  1  0  0  0  0
 11 12  2  0  0  0  0
 11 38  1  0  0  0  0
 12 13  1  0  0  0  0
 13 14  2  0  0  0  0
 13 15  1  0  0  0  0
 14 18  1  0  0  0  0
 14 39  1  0  0  0  0
 15 16  2  0  0  0  0
 15 40  1  0  0  0  0
 16 17  1  0  0  0  0
 16 41  1  0  0  0  0
 17 18  2  0  0  0  0
 17 42  1  0  0  0  0
 18 19  1  0  0  0  0
 19 20  1  0  0  0  0
 19 43  1  0  0  0  0
 19 44  1  0  0  0  0
 20 29  1  0  0  0  0
 20 25  1  0  0  0  0
 20 21  1  0  0  0  0
 21 23  2  0  0  0  0
 21 22  1  0  0  0  0
 21 24  1  0  0  0  0
 22 45  1  0  0  0  0
 24 46  1  0  0  0  0
 25 26  2  0  0  0  0
 25 28  1  0  0  0  0
 25 27  1  0  0  0  0
 27 47  1  0  0  0  0
 28 48  1  0  0  0  0
 29 49  1  0  0  0  0
M  END
>  <DRUGBANK_ID>
DB07409

>  <COMMON_NAME>
(1-HYDROXY-1-PHOSPHONO-2-[1,1';4',1'']TERPHENYL-3-YL-ETHYL)-PHOSPHONIC ACID

$$$$
