
 OpenBabel10282417072D

 19 18  0  0  1  0  0  0  0  0999 V2000
   30.5669  -11.1406    0.0000 O   0  0  0  0  0  0  0  0  0  0  0  0
   27.7090  -13.6156    0.0000 O   0  0  0  0  0  0  0  0  0  0  0  0
   29.8525   -9.9031    0.0000 O   0  0  0  0  0  0  0  0  0  0  0  0
   29.1380  -13.6156    0.0000 O   0  0  0  0  0  0  0  0  0  0  0  0
   28.4235  -10.7281    0.0000 N   0  0  0  0  0  0  0  0  0  0  0  0
   29.1380  -11.1406    0.0000 C   0  0  2  0  0  0  0  0  0  0  0  0
   29.1380  -11.9656    0.0000 C   0  0  0  0  0  0  0  0  0  0  0  0
   28.4235  -12.3781    0.0000 C   0  0  0  0  0  0  0  0  0  0  0  0
   29.8525  -10.7281    0.0000 C   0  0  0  0  0  0  0  0  0  0  0  0
   28.4235  -13.2031    0.0000 C   0  0  0  0  0  0  0  0  0  0  0  0
   30.5669  -12.0776    0.0000 H   0  0  0  0  0  0  0  0  0  0  0  0
   26.8975  -13.1471    0.0000 H   0  0  0  0  0  0  0  0  0  0  0  0
   28.4235   -9.7081    0.0000 H   0  0  0  0  0  0  0  0  0  0  0  0
   27.5402  -11.2381    0.0000 H   0  0  0  0  0  0  0  0  0  0  0  0
   28.2114  -11.6756    0.0000 H   0  0  0  0  0  0  0  0  0  0  0  0
   30.0646  -12.5006    0.0000 H   0  0  0  0  0  0  0  0  0  0  0  0
   29.1380  -13.0356    0.0000 H   0  0  0  0  0  0  0  0  0  0  0  0
   27.4969  -11.8431    0.0000 H   0  0  0  0  0  0  0  0  0  0  0  0
   27.4969  -12.9131    0.0000 H   0  0  0  0  0  0  0  0  0  0  0  0
  1  9  1  0  0  0  0
  1 11  1  0  0  0  0
  2 10  1  0  0  0  0
  2 12  1  0  0  0  0
  3  9  2  0  0  0  0
  4 10  2  0  0  0  0
  5 13  1  0  0  0  0
  5 14  1  0  0  0  0
  6  5  1  0  0  0  0
  6  7  1  0  0  0  0
  6  9  1  0  0  0  0
  6 15  1  6  0  0  0
  7  8  1  0  0  0  0
  7 16  1  0  0  0  0
  7 17  1  0  0  0  0
  8 10  1  0  0  0  0
  8 18  1  0  0  0  0
  8 19  1  0  0  0  0
M  END
>  <DRUGBANK_ID>
DB02517

>  <SECONDARY_ACCESSION_NUMBERS>
EXPT01180

>  <COMMON_NAME>
D-Glutamic Acid

>  <CAS_NUMBER>
6893-26-1

>  <UNII>
Q479989WEA

$$$$
