1084
 OpenBabel10282417072D

 48 50  0  0  1  0  0  0  0  0999 V2000
    3.8213    1.1875    0.0000 O   0  0  0  0  0  0  0  0  0  0  0  0
    5.1662   -1.6589    0.0000 N   0  0  0  0  0  0  0  0  0  0  0  0
    6.9735   -2.0714    0.0000 N   0  0  0  0  0  0  0  0  0  0  0  0
    3.8597   -0.9950    0.0000 N   0  0  0  0  0  0  0  0  0  0  0  0
    3.8597   -2.3228    0.0000 N   0  0  0  0  0  0  0  0  0  0  0  0
    5.5242   -0.9155    0.0000 C   0  0  0  0  0  0  0  0  0  0  0  0
    5.5242   -2.4022    0.0000 C   0  0  0  0  0  0  0  0  0  0  0  0
    6.3285   -0.7320    0.0000 C   0  0  0  0  0  0  0  0  0  0  0  0
    6.3285   -2.5858    0.0000 C   0  0  0  0  0  0  0  0  0  0  0  0
    6.9735   -1.2464    0.0000 C   0  0  0  0  0  0  0  0  0  0  0  0
    4.3412   -1.6589    0.0000 C   0  0  0  0  0  0  0  0  0  0  0  0
    3.0791   -1.2464    0.0000 C   0  0  0  0  0  0  0  0  0  0  0  0
    4.1159   -0.2108    0.0000 C   0  0  0  0  0  0  0  0  0  0  0  0
    3.0791   -2.0714    0.0000 C   0  0  0  0  0  0  0  0  0  0  0  0
    7.7168   -2.4293    0.0000 C   0  0  0  0  0  0  0  0  0  0  0  0
    3.5650    0.4034    0.0000 C   0  0  0  0  0  0  0  0  0  0  0  0
    2.3645   -0.8338    0.0000 C   0  0  0  0  0  0  0  0  0  0  0  0
    2.3645   -2.4839    0.0000 C   0  0  0  0  0  0  0  0  0  0  0  0
    1.6500   -1.2464    0.0000 C   0  0  0  0  0  0  0  0  0  0  0  0
    1.6500   -2.0714    0.0000 C   0  0  0  0  0  0  0  0  0  0  0  0
    3.2703    1.8016    0.0000 C   0  0  0  0  0  0  0  0  0  0  0  0
    3.5266    2.5858    0.0000 C   0  0  0  0  0  0  0  0  0  0  0  0
    4.8571   -0.0789    0.0000 H   0  0  0  0  0  0  0  0  0  0  0  0
    5.8777    0.0944    0.0000 H   0  0  0  0  0  0  0  0  0  0  0  0
    4.8571   -3.2388    0.0000 H   0  0  0  0  0  0  0  0  0  0  0  0
    5.8776   -3.4122    0.0000 H   0  0  0  0  0  0  0  0  0  0  0  0
    6.5667    0.3112    0.0000 H   0  0  0  0  0  0  0  0  0  0  0  0
    7.3385   -0.3786    0.0000 H   0  0  0  0  0  0  0  0  0  0  0  0
    6.5666   -3.6290    0.0000 H   0  0  0  0  0  0  0  0  0  0  0  0
    5.5719   -3.3424    0.0000 H   0  0  0  0  0  0  0  0  0  0  0  0
    7.9375   -0.7822    0.0000 H   0  0  0  0  0  0  0  0  0  0  0  0
    7.0933   -0.1831    0.0000 H   0  0  0  0  0  0  0  0  0  0  0  0
    5.1629    0.0098    0.0000 H   0  0  0  0  0  0  0  0  0  0  0  0
    4.4484    0.8062    0.0000 H   0  0  0  0  0  0  0  0  0  0  0  0
    7.7968   -3.4963    0.0000 H   0  0  0  0  0  0  0  0  0  0  0  0
    8.6008   -1.8265    0.0000 H   0  0  0  0  0  0  0  0  0  0  0  0
    8.6809   -2.8935    0.0000 H   0  0  0  0  0  0  0  0  0  0  0  0
    2.5180    0.1829    0.0000 H   0  0  0  0  0  0  0  0  0  0  0  0
    3.2324   -0.6136    0.0000 H   0  0  0  0  0  0  0  0  0  0  0  0
    2.3645    0.1982    0.0000 H   0  0  0  0  0  0  0  0  0  0  0  0
    2.3645   -3.5159    0.0000 H   0  0  0  0  0  0  0  0  0  0  0  0
    0.7562   -0.7304    0.0000 H   0  0  0  0  0  0  0  0  0  0  0  0
    0.7563   -2.5874    0.0000 H   0  0  0  0  0  0  0  0  0  0  0  0
    2.2233    1.5810    0.0000 H   0  0  0  0  0  0  0  0  0  0  0  0
    2.5557    2.5980    0.0000 H   0  0  0  0  0  0  0  0  0  0  0  0
    4.5736    2.8065    0.0000 H   0  0  0  0  0  0  0  0  0  0  0  0
    2.8120    3.3822    0.0000 H   0  0  0  0  0  0  0  0  0  0  0  0
    3.8590    3.6029    0.0000 H   0  0  0  0  0  0  0  0  0  0  0  0
  1 16  1  0  0  0  0
  1 21  1  0  0  0  0
  2  6  1  0  0  0  0
  2  7  1  0  0  0  0
  2 11  1  0  0  0  0
  3  9  1  0  0  0  0
  3 10  1  0  0  0  0
  3 15  1  0  0  0  0
  4 11  1  0  0  0  0
  4 12  1  0  0  0  0
  4 13  1  0  0  0  0
  5 11  2  0  0  0  0
  5 14  1  0  0  0  0
  6  8  1  0  0  0  0
  6 23  1  0  0  0  0
  6 24  1  0  0  0  0
  7  9  1  0  0  0  0
  7 25  1  0  0  0  0
  7 26  1  0  0  0  0
  8 10  1  0  0  0  0
  8 27  1  0  0  0  0
  8 28  1  0  0  0  0
  9 29  1  0  0  0  0
  9 30  1  0  0  0  0
 10 31  1  0  0  0  0
 10 32  1  0  0  0  0
 12 14  1  0  0  0  0
 12 17  2  0  0  0  0
 13 16  1  0  0  0  0
 13 33  1  0  0  0  0
 13 34  1  0  0  0  0
 14 18  2  0  0  0  0
 15 35  1  0  0  0  0
 15 36  1  0  0  0  0
 15 37  1  0  0  0  0
 16 38  1  0  0  0  0
 16 39  1  0  0  0  0
 17 19  1  0  0  0  0
 17 40  1  0  0  0  0
 18 20  1  0  0  0  0
 18 41  1  0  0  0  0
 19 20  2  0  0  0  0
 19 42  1  0  0  0  0
 20 43  1  0  0  0  0
 21 22  1  0  0  0  0
 21 44  1  0  0  0  0
 21 45  1  0  0  0  0
 22 46  1  0  0  0  0
 22 47  1  0  0  0  0
 22 48  1  0  0  0  0
M  END
>  <DRUGBANK_ID>
DB01084

>  <SECONDARY_ACCESSION_NUMBERS>
APRD00946

>  <COMMON_NAME>
Emedastine

>  <CAS_NUMBER>
87233-61-2

>  <UNII>
9J1H7Y9OJV

>  <SYNONYMS>
1-(2-Ethoxy-ethyl)-2-(4-methyl-[1,4]diazepan-1-yl)-1H-benzoimidazole; 1-(2-ethoxyethyl)-2-(hexahydro-4-methyl-1H-1,4-diazepin-1-yl)benzimidazole; 1-[2-(ethoxy)ethyl]-2-(4-methyl-1-homopiperazinyl)benzimidazole; Emedastina; Emedastine; Emedastinum

$$$$
