
 OpenBabel10282417072D

 30 32  0  0  0  0  0  0  0  0999 V2000
    2.9440   -0.3134    0.0000 C   0  0  0  0  0  0  0  0  0  0  0  0
    2.5315   -1.0280    0.0000 C   0  0  0  0  0  0  0  0  0  0  0  0
    1.7065   -1.0280    0.0000 C   0  0  0  0  0  0  0  0  0  0  0  0
    1.2940   -0.3134    0.0000 C   0  0  0  0  0  0  0  0  0  0  0  0
    1.7065    0.4009    0.0000 N   0  0  0  0  0  0  0  0  0  0  0  0
    2.5315    0.4009    0.0000 N   0  0  0  0  0  0  0  0  0  0  0  0
    3.7690   -0.3134    0.0000 O   0  0  0  0  0  0  0  0  0  0  0  0
    0.4690   -0.3134    0.0000 S   0  0  0  0  0  0  0  0  0  0  0  0
    0.4690   -1.1385    0.0000 O   0  0  0  0  0  0  0  0  0  0  0  0
    0.4690    0.5115    0.0000 O   0  0  0  0  0  0  0  0  0  0  0  0
   -0.8409   -0.9810    0.0000 O   0  0  0  0  0  0  0  0  0  0  0  0
   -0.3560   -0.3134    0.0000 C   0  0  0  0  0  0  0  0  0  0  0  0
   -0.8409    0.3539    0.0000 C   0  0  0  0  0  0  0  0  0  0  0  0
   -1.6256    0.0990    0.0000 C   0  0  0  0  0  0  0  0  0  0  0  0
   -1.6256   -0.7260    0.0000 C   0  0  0  0  0  0  0  0  0  0  0  0
   -2.3400    0.5115    0.0000 C   0  0  0  0  0  0  0  0  0  0  0  0
   -3.0545    0.0990    0.0000 C   0  0  0  0  0  0  0  0  0  0  0  0
   -3.0545   -0.7260    0.0000 C   0  0  0  0  0  0  0  0  0  0  0  0
   -2.3400   -1.1385    0.0000 C   0  0  0  0  0  0  0  0  0  0  0  0
   -0.5860    1.1385    0.0000 C   0  0  0  0  0  0  0  0  0  0  0  0
   -3.7690    0.5115    0.0000 Cl  0  0  0  0  0  0  0  0  0  0  0  0
    3.0475   -1.9217    0.0000 H   0  0  0  0  0  0  0  0  0  0  0  0
    1.1905   -1.9217    0.0000 H   0  0  0  0  0  0  0  0  0  0  0  0
    3.0237    1.2535    0.0000 H   0  0  0  0  0  0  0  0  0  0  0  0
   -2.3400    1.5435    0.0000 H   0  0  0  0  0  0  0  0  0  0  0  0
   -3.9482   -1.2420    0.0000 H   0  0  0  0  0  0  0  0  0  0  0  0
   -2.3400   -2.1705    0.0000 H   0  0  0  0  0  0  0  0  0  0  0  0
    0.4606    1.3610    0.0000 H   0  0  0  0  0  0  0  0  0  0  0  0
   -1.3020    1.9336    0.0000 H   0  0  0  0  0  0  0  0  0  0  0  0
   -0.2554    2.1561    0.0000 H   0  0  0  0  0  0  0  0  0  0  0  0
  1  2  1  0  0  0  0
  1  6  1  0  0  0  0
  1  7  2  0  0  0  0
  2  3  2  0  0  0  0
  2 22  1  0  0  0  0
  3  4  1  0  0  0  0
  3 23  1  0  0  0  0
  4  5  2  0  0  0  0
  4  8  1  0  0  0  0
  5  6  1  0  0  0  0
  6 24  1  0  0  0  0
  8  9  2  0  0  0  0
  8 10  2  0  0  0  0
  8 12  1  0  0  0  0
 11 12  1  0  0  0  0
 11 15  1  0  0  0  0
 12 13  2  0  0  0  0
 13 14  1  0  0  0  0
 13 20  1  0  0  0  0
 14 15  1  0  0  0  0
 16 17  1  0  0  0  0
 16 14  2  0  0  0  0
 16 25  1  0  0  0  0
 17 18  2  0  0  0  0
 17 21  1  0  0  0  0
 18 19  1  0  0  0  0
 18 26  1  0  0  0  0
 19 15  2  0  0  0  0
 19 27  1  0  0  0  0
 20 28  1  0  0  0  0
 20 29  1  0  0  0  0
 20 30  1  0  0  0  0
M  END
>  <DRUGBANK_ID>
DB07187

>  <COMMON_NAME>
CP-744809

>  <CAS_NUMBER>
463976-07-0

>  <UNII>
U63F8E95J1

$$$$
