HM4
 OpenBabel10282417072D

 38 39  0  0  0  0  0  0  0  0999 V2000
   -3.8564   -2.2849    0.0000 S   0  0  0  0  0  0  0  0  0  0  0  0
   -3.1890   -1.1288    0.0000 N   0  0  0  0  0  0  0  0  0  0  0  0
   -2.3883   -2.3618    0.0000 N   0  0  0  0  0  0  0  0  0  0  0  0
   -2.3883   -0.7118    0.0000 N   0  0  0  0  0  0  0  0  0  0  0  0
   -0.2449   -1.1243    0.0000 N   0  0  0  0  0  0  0  0  0  0  0  0
   -4.4085   -1.6718    0.0000 C   0  0  0  0  0  0  0  0  0  0  0  0
   -3.9960   -0.9573    0.0000 C   0  0  0  0  0  0  0  0  0  0  0  0
   -3.1028   -1.9493    0.0000 C   0  0  0  0  0  0  0  0  0  0  0  0
   -1.6738   -1.9493    0.0000 C   0  0  0  0  0  0  0  0  0  0  0  0
   -1.6738   -1.1243    0.0000 C   0  0  0  0  0  0  0  0  0  0  0  0
   -2.3883    0.1132    0.0000 C   0  0  0  0  0  0  0  0  0  0  0  0
   -1.6738    0.5257    0.0000 C   0  0  0  0  0  0  0  0  0  0  0  0
   -0.9593    0.1132    0.0000 C   0  0  0  0  0  0  0  0  0  0  0  0
   -0.9593   -0.7118    0.0000 C   0  0  0  0  0  0  0  0  0  0  0  0
    0.4696   -0.7118    0.0000 C   0  0  0  0  0  0  0  0  0  0  0  0
    1.8985   -0.7118    0.0000 C   0  0  0  0  0  0  0  0  0  0  0  0
    2.6130   -0.2993    0.0000 C   0  0  0  0  0  0  0  0  0  0  0  0
    2.3110   -1.4263    0.0000 C   0  0  0  0  0  0  0  0  0  0  0  0
    1.4860    0.0027    0.0000 C   0  0  0  0  0  0  0  0  0  0  0  0
   -0.9593   -2.3618    0.0000 O   0  0  0  0  0  0  0  0  0  0  0  0
    0.4696    0.1132    0.0000 O   0  0  0  0  0  0  0  0  0  0  0  0
    1.1841   -1.1243    0.0000 O   0  0  0  0  0  0  0  0  0  0  0  0
   -2.3883   -3.3463    0.0000 H   0  0  0  0  0  0  0  0  0  0  0  0
   -0.2449   -2.1088    0.0000 H   0  0  0  0  0  0  0  0  0  0  0  0
   -5.4348   -1.7797    0.0000 H   0  0  0  0  0  0  0  0  0  0  0  0
   -4.4158   -0.0145    0.0000 H   0  0  0  0  0  0  0  0  0  0  0  0
   -3.2820    0.6292    0.0000 H   0  0  0  0  0  0  0  0  0  0  0  0
   -1.6738    1.5577    0.0000 H   0  0  0  0  0  0  0  0  0  0  0  0
   -0.0656    0.6292    0.0000 H   0  0  0  0  0  0  0  0  0  0  0  0
    3.5396   -0.8343    0.0000 H   0  0  0  0  0  0  0  0  0  0  0  0
    2.6130    0.7707    0.0000 H   0  0  0  0  0  0  0  0  0  0  0  0
    3.5397    0.2357    0.0000 H   0  0  0  0  0  0  0  0  0  0  0  0
    1.7760   -2.3529    0.0000 H   0  0  0  0  0  0  0  0  0  0  0  0
    3.3810   -1.4263    0.0000 H   0  0  0  0  0  0  0  0  0  0  0  0
    2.8460   -2.3530    0.0000 H   0  0  0  0  0  0  0  0  0  0  0  0
    2.0210    0.9293    0.0000 H   0  0  0  0  0  0  0  0  0  0  0  0
    0.4160    0.0027    0.0000 H   0  0  0  0  0  0  0  0  0  0  0  0
    0.9510    0.9294    0.0000 H   0  0  0  0  0  0  0  0  0  0  0  0
  1  6  1  0  0  0  0
  1  8  1  0  0  0  0
  2  7  1  0  0  0  0
  2  8  2  0  0  0  0
  3  8  1  0  0  0  0
  3  9  1  0  0  0  0
  3 23  1  0  0  0  0
  4 11  2  0  0  0  0
  4 10  1  0  0  0  0
  5 14  1  0  0  0  0
  5 15  1  0  0  0  0
  5 24  1  0  0  0  0
  6  7  2  0  0  0  0
  6 25  1  0  0  0  0
  7 26  1  0  0  0  0
  9 10  1  0  0  0  0
  9 20  2  0  0  0  0
 10 14  2  0  0  0  0
 11 12  1  0  0  0  0
 11 27  1  0  0  0  0
 12 13  2  0  0  0  0
 12 28  1  0  0  0  0
 13 14  1  0  0  0  0
 13 29  1  0  0  0  0
 15 22  1  0  0  0  0
 15 21  2  0  0  0  0
 16 22  1  0  0  0  0
 16 17  1  0  0  0  0
 16 18  1  0  0  0  0
 16 19  1  0  0  0  0
 17 30  1  0  0  0  0
 17 31  1  0  0  0  0
 17 32  1  0  0  0  0
 18 33  1  0  0  0  0
 18 34  1  0  0  0  0
 18 35  1  0  0  0  0
 19 36  1  0  0  0  0
 19 37  1  0  0  0  0
 19 38  1  0  0  0  0
M  END
>  <DRUGBANK_ID>
DB07902

>  <COMMON_NAME>
TERT-BUTYL {2-[(1,3-THIAZOL-2-YLAMINO)CARBONYL]PYRIDIN-3-YL}CARBAMATE

$$$$
