DMB
 OpenBabel10282417072D

 34 35  0  0  0  0  0  0  0  0999 V2000
    0.2807   -1.6151    0.0000 C   0  0  0  0  0  0  0  0  0  0  0  0
    0.9952   -2.0276    0.0000 C   0  0  0  0  0  0  0  0  0  0  0  0
    0.9952   -2.8526    0.0000 C   0  0  0  0  0  0  0  0  0  0  0  0
    0.2807   -3.2651    0.0000 C   0  0  0  0  0  0  0  0  0  0  0  0
   -0.4337   -2.8526    0.0000 C   0  0  0  0  0  0  0  0  0  0  0  0
   -0.4337   -2.0276    0.0000 C   0  0  0  0  0  0  0  0  0  0  0  0
   -0.4337    0.4474    0.0000 C   0  0  0  0  0  0  0  0  0  0  0  0
   -1.1482    0.8599    0.0000 C   0  0  0  0  0  0  0  0  0  0  0  0
   -1.1482    1.6849    0.0000 C   0  0  0  0  0  0  0  0  0  0  0  0
   -0.4337    2.0974    0.0000 C   0  0  0  0  0  0  0  0  0  0  0  0
    0.2807    1.6849    0.0000 C   0  0  0  0  0  0  0  0  0  0  0  0
    0.2807    0.8599    0.0000 C   0  0  0  0  0  0  0  0  0  0  0  0
    1.7097   -1.6151    0.0000 C   0  0  0  0  0  0  0  0  0  0  0  0
   -1.8627    2.0974    0.0000 C   0  0  0  0  0  0  0  0  0  0  0  0
    0.9952    2.0974    0.0000 C   0  0  0  0  0  0  0  0  0  0  0  0
    0.2807   -0.7901    0.0000 N   0  0  0  0  0  0  0  0  0  0  0  0
   -0.4337   -0.3776    0.0000 N   0  0  0  0  0  0  0  0  0  0  0  0
    2.4242   -2.0276    0.0000 O   0  0  0  0  0  0  0  0  0  0  0  0
    1.7097   -0.7901    0.0000 O   0  0  0  0  0  0  0  0  0  0  0  0
   -0.4337    2.9224    0.0000 O   0  0  0  0  0  0  0  0  0  0  0  0
    1.8889   -3.3686    0.0000 H   0  0  0  0  0  0  0  0  0  0  0  0
    0.2807   -4.2971    0.0000 H   0  0  0  0  0  0  0  0  0  0  0  0
   -1.3274   -3.3686    0.0000 H   0  0  0  0  0  0  0  0  0  0  0  0
   -1.3274   -1.5116    0.0000 H   0  0  0  0  0  0  0  0  0  0  0  0
   -2.0419    0.3439    0.0000 H   0  0  0  0  0  0  0  0  0  0  0  0
    1.1744    0.3439    0.0000 H   0  0  0  0  0  0  0  0  0  0  0  0
   -1.8627    3.1674    0.0000 H   0  0  0  0  0  0  0  0  0  0  0  0
   -2.7893    1.5624    0.0000 H   0  0  0  0  0  0  0  0  0  0  0  0
   -2.7894    2.6324    0.0000 H   0  0  0  0  0  0  0  0  0  0  0  0
    1.9218    1.5624    0.0000 H   0  0  0  0  0  0  0  0  0  0  0  0
    0.9952    3.1674    0.0000 H   0  0  0  0  0  0  0  0  0  0  0  0
    1.9219    2.6324    0.0000 H   0  0  0  0  0  0  0  0  0  0  0  0
    2.5212   -0.3216    0.0000 H   0  0  0  0  0  0  0  0  0  0  0  0
    0.3778    3.3909    0.0000 H   0  0  0  0  0  0  0  0  0  0  0  0
  1  2  1  0  0  0  0
  1  6  2  0  0  0  0
  1 16  1  0  0  0  0
  2  3  2  0  0  0  0
  2 13  1  0  0  0  0
  3  4  1  0  0  0  0
  3 21  1  0  0  0  0
  4  5  2  0  0  0  0
  4 22  1  0  0  0  0
  5  6  1  0  0  0  0
  5 23  1  0  0  0  0
  6 24  1  0  0  0  0
  7  8  1  0  0  0  0
  7 12  2  0  0  0  0
  7 17  1  0  0  0  0
  8  9  2  0  0  0  0
  8 25  1  0  0  0  0
  9 10  1  0  0  0  0
  9 14  1  0  0  0  0
 10 11  2  0  0  0  0
 10 20  1  0  0  0  0
 11 12  1  0  0  0  0
 11 15  1  0  0  0  0
 12 26  1  0  0  0  0
 13 18  2  0  0  0  0
 13 19  1  0  0  0  0
 14 27  1  0  0  0  0
 14 28  1  0  0  0  0
 14 29  1  0  0  0  0
 15 30  1  0  0  0  0
 15 31  1  0  0  0  0
 15 32  1  0  0  0  0
 16 17  2  0  0  0  0
 19 33  1  0  0  0  0
 20 34  1  0  0  0  0
M  END
>  <DRUGBANK_ID>
DB07667

>  <COMMON_NAME>
2-((3',5'-DIMETHYL-4'-HYDROXYPHENYL)AZO)BENZOIC ACID

$$$$
