621
 OpenBabel10282417072D

 52 55  0  0  1  0  0  0  0  0999 V2000
    7.5474    1.4947    0.0000 O   0  0  0  0  0  0  0  0  0  0  0  0
    2.3727   -0.4535    0.0000 O   0  0  0  0  0  0  0  0  0  0  0  0
    1.6498   -1.7582    0.0000 O   0  0  0  0  0  0  0  0  0  0  0  0
    6.0987   -0.0653    0.0000 C   0  0  2  0  0  0  0  0  0  0  0  0
    6.0987    0.7597    0.0000 C   0  0  1  0  0  0  0  0  0  0  0  0
    5.3843   -0.4777    0.0000 C   0  0  1  0  0  0  0  0  0  0  0  0
    4.6698   -0.0653    0.0000 C   0  0  1  0  0  0  0  0  0  0  0  0
    3.9192   -0.4833    0.0000 C   0  0  2  0  0  0  0  0  0  0  0  0
    6.8793    1.0111    0.0000 C   0  0  2  0  0  0  0  0  0  0  0  0
    5.3843    1.1722    0.0000 C   0  0  0  0  0  0  0  0  0  0  0  0
    4.6698    0.7597    0.0000 C   0  0  0  0  0  0  0  0  0  0  0  0
    6.8793   -0.3166    0.0000 C   0  0  0  0  0  0  0  0  0  0  0  0
    3.9126   -1.3425    0.0000 C   0  0  1  0  0  0  0  0  0  0  0  0
    5.3975   -1.3368    0.0000 C   0  0  0  0  0  0  0  0  0  0  0  0
    7.3607    0.3473    0.0000 C   0  0  0  0  0  0  0  0  0  0  0  0
    4.6567   -1.7722    0.0000 C   0  0  0  0  0  0  0  0  0  0  0  0
    6.0987    1.5846    0.0000 C   0  0  0  0  0  0  0  0  0  0  0  0
    3.1546   -0.0180    0.0000 C   0  0  0  0  0  0  0  0  0  0  0  0
    3.9255    0.3416    0.0000 C   0  0  0  0  0  0  0  0  0  0  0  0
    3.1409   -1.7960    0.0000 C   0  0  0  0  0  0  0  0  0  0  0  0
    6.6257    1.7960    0.0000 C   0  0  0  0  0  0  0  0  0  0  0  0
    2.3658   -1.3485    0.0000 C   0  0  0  0  0  0  0  0  0  0  0  0
    6.1685   -0.7215    0.0000 H   0  0  0  0  0  0  0  0  0  0  0  0
    5.9583   -0.8032    0.0000 H   0  0  0  0  0  0  0  0  0  0  0  0
    5.2415    0.2647    0.0000 H   0  0  0  0  0  0  0  0  0  0  0  0
    3.9151   -2.0025    0.0000 H   0  0  0  0  0  0  0  0  0  0  0  0
    8.4328    1.0986    0.0000 H   0  0  0  0  0  0  0  0  0  0  0  0
    5.3843    2.2422    0.0000 H   0  0  0  0  0  0  0  0  0  0  0  0
    4.4577    1.7072    0.0000 H   0  0  0  0  0  0  0  0  0  0  0  0
    3.7432    1.2947    0.0000 H   0  0  0  0  0  0  0  0  0  0  0  0
    4.6698    1.8297    0.0000 H   0  0  0  0  0  0  0  0  0  0  0  0
    7.2118   -1.3336    0.0000 H   0  0  0  0  0  0  0  0  0  0  0  0
    7.9364   -0.4825    0.0000 H   0  0  0  0  0  0  0  0  0  0  0  0
    6.3303   -1.8611    0.0000 H   0  0  0  0  0  0  0  0  0  0  0  0
    5.4078   -2.4068    0.0000 H   0  0  0  0  0  0  0  0  0  0  0  0
    8.4307    0.3473    0.0000 H   0  0  0  0  0  0  0  0  0  0  0  0
    7.8469   -0.6058    0.0000 H   0  0  0  0  0  0  0  0  0  0  0  0
    4.6608   -2.8422    0.0000 H   0  0  0  0  0  0  0  0  0  0  0  0
    5.5864   -2.3018    0.0000 H   0  0  0  0  0  0  0  0  0  0  0  0
    7.0253    2.1196    0.0000 H   0  0  0  0  0  0  0  0  0  0  0  0
    5.1721    2.1196    0.0000 H   0  0  0  0  0  0  0  0  0  0  0  0
    6.0987    2.6546    0.0000 H   0  0  0  0  0  0  0  0  0  0  0  0
    3.1752    1.0518    0.0000 H   0  0  0  0  0  0  0  0  0  0  0  0
    4.0924    0.4973    0.0000 H   0  0  0  0  0  0  0  0  0  0  0  0
    4.8562    0.8695    0.0000 H   0  0  0  0  0  0  0  0  0  0  0  0
    3.0030    0.8837    0.0000 H   0  0  0  0  0  0  0  0  0  0  0  0
    3.9337    1.4116    0.0000 H   0  0  0  0  0  0  0  0  0  0  0  0
    3.1450   -2.8660    0.0000 H   0  0  0  0  0  0  0  0  0  0  0  0
    2.2153   -2.3328    0.0000 H   0  0  0  0  0  0  0  0  0  0  0  0
    7.3430    2.5900    0.0000 H   0  0  0  0  0  0  0  0  0  0  0  0
    5.5795    2.0202    0.0000 H   0  0  0  0  0  0  0  0  0  0  0  0
    6.2967    2.8142    0.0000 H   0  0  0  0  0  0  0  0  0  0  0  0
  1 27  1  0  0  0  0
  2 18  1  0  0  0  0
  2 22  1  0  0  0  0
  3 22  2  0  0  0  0
  4  5  1  0  0  0  0
  4  6  1  0  0  0  0
  4 12  1  0  0  0  0
  4 23  1  6  0  0  0
  5  9  1  0  0  0  0
  5 10  1  0  0  0  0
  5 17  1  1  0  0  0
  6  7  1  0  0  0  0
  6 14  1  0  0  0  0
  6 24  1  1  0  0  0
  7  8  1  0  0  0  0
  7 11  1  0  0  0  0
  7 25  1  6  0  0  0
  8 13  1  0  0  0  0
  8 18  1  0  0  0  0
  8 19  1  1  0  0  0
  9  1  1  1  0  0  0
  9 15  1  0  0  0  0
  9 21  1  0  0  0  0
 10 11  1  0  0  0  0
 10 28  1  0  0  0  0
 10 29  1  0  0  0  0
 11 30  1  0  0  0  0
 11 31  1  0  0  0  0
 12 15  1  0  0  0  0
 12 32  1  0  0  0  0
 12 33  1  0  0  0  0
 13 16  1  0  0  0  0
 13 20  1  0  0  0  0
 13 26  1  6  0  0  0
 14 16  1  0  0  0  0
 14 34  1  0  0  0  0
 14 35  1  0  0  0  0
 15 36  1  0  0  0  0
 15 37  1  0  0  0  0
 16 38  1  0  0  0  0
 16 39  1  0  0  0  0
 17 40  1  0  0  0  0
 17 41  1  0  0  0  0
 17 42  1  0  0  0  0
 18 43  1  0  0  0  0
 18 44  1  0  0  0  0
 19 45  1  0  0  0  0
 19 46  1  0  0  0  0
 19 47  1  0  0  0  0
 20 22  1  0  0  0  0
 20 48  1  0  0  0  0
 20 49  1  0  0  0  0
 21 50  1  0  0  0  0
 21 51  1  0  0  0  0
 21 52  1  0  0  0  0
M  END
>  <DRUGBANK_ID>
DB00621

>  <SECONDARY_ACCESSION_NUMBERS>
APRD01151

>  <COMMON_NAME>
Oxandrolone

>  <CAS_NUMBER>
53-39-4

>  <UNII>
7H6TM3CT4L

>  <SYNONYMS>
Ossandrolone; Oxandrolon; Oxandrolona; Oxandrolone; Oxandrolonum

$$$$
