
 OpenBabel10282417072D

 56 58  0  0  0  0  0  0  0  0999 V2000
    1.8234   -0.4583    0.0000 C   0  0  0  0  0  0  0  0  0  0  0  0
    2.5378   -0.0458    0.0000 C   0  0  0  0  0  0  0  0  0  0  0  0
    3.2523   -0.4583    0.0000 C   0  0  0  0  0  0  0  0  0  0  0  0
    3.2523   -1.2833    0.0000 C   0  0  0  0  0  0  0  0  0  0  0  0
    2.5378   -1.6958    0.0000 C   0  0  0  0  0  0  0  0  0  0  0  0
    1.8234   -1.2833    0.0000 C   0  0  0  0  0  0  0  0  0  0  0  0
    1.1089   -1.6958    0.0000 C   0  0  0  0  0  0  0  0  0  0  0  0
    0.3944   -1.2833    0.0000 N   0  0  0  0  0  0  0  0  0  0  0  0
   -0.3201   -1.6958    0.0000 C   0  0  0  0  0  0  0  0  0  0  0  0
   -1.0345   -1.2833    0.0000 C   0  0  0  0  0  0  0  0  0  0  0  0
   -1.0345   -0.4583    0.0000 C   0  0  0  0  0  0  0  0  0  0  0  0
   -0.3201   -0.0458    0.0000 C   0  0  0  0  0  0  0  0  0  0  0  0
    0.3944   -0.4583    0.0000 C   0  0  0  0  0  0  0  0  0  0  0  0
   -1.7490   -0.0458    0.0000 N   0  0  0  0  0  0  0  0  0  0  0  0
   -1.7490    0.7792    0.0000 C   0  0  0  0  0  0  0  0  0  0  0  0
   -2.4635    1.1917    0.0000 C   0  0  0  0  0  0  0  0  0  0  0  0
   -3.2481    0.9367    0.0000 C   0  0  0  0  0  0  0  0  0  0  0  0
   -3.7330    1.6042    0.0000 C   0  0  0  0  0  0  0  0  0  0  0  0
   -3.2481    2.2716    0.0000 S   0  0  0  0  0  0  0  0  0  0  0  0
   -2.4635    2.0167    0.0000 C   0  0  0  0  0  0  0  0  0  0  0  0
   -1.7490    2.4292    0.0000 N   0  0  0  0  0  0  0  0  0  0  0  0
   -1.0345    2.0167    0.0000 C   0  0  0  0  0  0  0  0  0  0  0  0
   -1.0345    1.1917    0.0000 N   0  0  0  0  0  0  0  0  0  0  0  0
   -4.5580    1.6042    0.0000 Cl  0  0  0  0  0  0  0  0  0  0  0  0
    3.9668   -1.6958    0.0000 C   0  0  0  0  0  0  0  0  0  0  0  0
    4.6812   -2.1083    0.0000 N   0  0  0  0  0  0  0  0  0  0  0  0
    3.9668   -0.0458    0.0000 F   0  0  0  0  0  0  0  0  0  0  0  0
    8.5116    0.0000    0.0000 C   0  0  0  0  0  0  0  0  0  0  0  0
    7.6866    0.0000    0.0000 C   0  0  0  0  0  0  0  0  0  0  0  0
    7.2741   -0.7145    0.0000 C   0  0  0  0  0  0  0  0  0  0  0  0
    6.4491   -0.7145    0.0000 O   0  0  0  0  0  0  0  0  0  0  0  0
    7.6866   -1.4289    0.0000 O   0  0  0  0  0  0  0  0  0  0  0  0
    8.9241    0.7145    0.0000 C   0  0  0  0  0  0  0  0  0  0  0  0
    8.5116    1.4289    0.0000 O   0  0  0  0  0  0  0  0  0  0  0  0
    9.7491    0.7145    0.0000 O   0  0  0  0  0  0  0  0  0  0  0  0
    0.9297    0.0577    0.0000 H   0  0  0  0  0  0  0  0  0  0  0  0
    2.5378    0.9862    0.0000 H   0  0  0  0  0  0  0  0  0  0  0  0
    2.5378   -2.7278    0.0000 H   0  0  0  0  0  0  0  0  0  0  0  0
    1.1089   -2.7658    0.0000 H   0  0  0  0  0  0  0  0  0  0  0  0
    0.1823   -2.2308    0.0000 H   0  0  0  0  0  0  0  0  0  0  0  0
   -0.3201   -2.7658    0.0000 H   0  0  0  0  0  0  0  0  0  0  0  0
   -1.2468   -2.2308    0.0000 H   0  0  0  0  0  0  0  0  0  0  0  0
   -1.9612   -1.8183    0.0000 H   0  0  0  0  0  0  0  0  0  0  0  0
   -1.9611   -0.7483    0.0000 H   0  0  0  0  0  0  0  0  0  0  0  0
   -1.0345    0.6117    0.0000 H   0  0  0  0  0  0  0  0  0  0  0  0
   -0.3201    1.0242    0.0000 H   0  0  0  0  0  0  0  0  0  0  0  0
    0.6065    0.4892    0.0000 H   0  0  0  0  0  0  0  0  0  0  0  0
    1.3210    0.0767    0.0000 H   0  0  0  0  0  0  0  0  0  0  0  0
    1.3210   -0.9933    0.0000 H   0  0  0  0  0  0  0  0  0  0  0  0
   -2.6016   -0.5381    0.0000 H   0  0  0  0  0  0  0  0  0  0  0  0
   -3.5670   -0.0448    0.0000 H   0  0  0  0  0  0  0  0  0  0  0  0
   -0.1408    2.5327    0.0000 H   0  0  0  0  0  0  0  0  0  0  0  0
    9.0276   -0.8937    0.0000 H   0  0  0  0  0  0  0  0  0  0  0  0
    7.1706    0.8937    0.0000 H   0  0  0  0  0  0  0  0  0  0  0  0
    7.2181   -2.2404    0.0000 H   0  0  0  0  0  0  0  0  0  0  0  0
   10.2176   -0.0970    0.0000 H   0  0  0  0  0  0  0  0  0  0  0  0
  1  2  2  0  0  0  0
  1  6  1  0  0  0  0
  1 36  1  0  0  0  0
  2  3  1  0  0  0  0
  2 37  1  0  0  0  0
  3  4  2  0  0  0  0
  3 27  1  0  0  0  0
  4  5  1  0  0  0  0
  4 25  1  0  0  0  0
  5  6  2  0  0  0  0
  5 38  1  0  0  0  0
  6  7  1  0  0  0  0
  7  8  1  0  0  0  0
  7 39  1  0  0  0  0
  7 40  1  0  0  0  0
  8  9  1  0  0  0  0
  8 13  1  0  0  0  0
  9 10  1  0  0  0  0
  9 41  1  0  0  0  0
  9 42  1  0  0  0  0
 10 11  1  0  0  0  0
 10 43  1  0  0  0  0
 10 44  1  0  0  0  0
 11 12  1  0  0  0  0
 11 14  1  0  0  0  0
 11 45  1  0  0  0  0
 12 13  1  0  0  0  0
 12 46  1  0  0  0  0
 12 47  1  0  0  0  0
 13 48  1  0  0  0  0
 13 49  1  0  0  0  0
 14 15  1  0  0  0  0
 14 50  1  0  0  0  0
 15 16  2  0  0  0  0
 15 23  1  0  0  0  0
 16 17  1  0  0  0  0
 16 20  1  0  0  0  0
 17 18  2  0  0  0  0
 17 51  1  0  0  0  0
 18 19  1  0  0  0  0
 18 24  1  0  0  0  0
 19 20  1  0  0  0  0
 20 21  2  0  0  0  0
 21 22  1  0  0  0  0
 22 23  2  0  0  0  0
 22 52  1  0  0  0  0
 25 26  3  0  0  0  0
 28 29  2  0  0  0  0
 28 33  1  0  0  0  0
 28 53  1  0  0  0  0
 29 30  1  0  0  0  0
 29 54  1  0  0  0  0
 30 31  2  0  0  0  0
 30 32  1  0  0  0  0
 32 55  1  0  0  0  0
 33 34  2  0  0  0  0
 33 35  1  0  0  0  0
 35 56  1  0  0  0  0
M  END
>  <DRUGBANK_ID>
DB05607

>  <COMMON_NAME>
PRX-08066

>  <UNII>
92E9B7675Y

>  <SYNONYMS>
5-((4-(6-CHLOROTHIENO(2,3-D)PYRIMIDINE-4-YLAMINO)PIPERIDIN-1-YL)METHYL)-2-FLUOROBENZONITRILE MONOFUMURATE; 5-((4-(6-chlorothieno[2,3-d]pyrimidine-4-ylamino)piperidin-1-yl)methyl)-2-fluorobenzonitrile monofumurate

$$$$
