
 OpenBabel10282417072D

 50 52  0  0  0  0  0  0  0  0999 V2000
    1.2607    1.7465    0.0000 P   0  0  3  0  0  0  0  0  0  0  0  0
    2.6821    1.8934    0.0000 P   0  0  3  0  0  0  0  0  0  0  0  0
    4.1035    2.0403    0.0000 P   0  0  0  0  0  0  0  0  0  0  0  0
   -0.8303    0.2908    0.0000 O   0  0  0  0  0  0  0  0  0  0  0  0
   -1.8667    2.1572    0.0000 O   0  0  0  0  0  0  0  0  0  0  0  0
   -2.9242    0.7069    0.0000 O   0  0  0  0  0  0  0  0  0  0  0  0
    0.5924    1.2627    0.0000 O   0  0  0  0  0  0  0  0  0  0  0  0
    1.7445    1.0782    0.0000 O   0  0  0  0  0  0  0  0  0  0  0  0
    0.7769    2.4148    0.0000 O   0  0  0  0  0  0  0  0  0  0  0  0
    3.4352    1.5565    0.0000 O   0  0  0  0  0  0  0  0  0  0  0  0
    3.0190    2.6465    0.0000 O   0  0  0  0  0  0  0  0  0  0  0  0
   -3.3668   -3.0608    0.0000 O   0  0  0  0  0  0  0  0  0  0  0  0
    2.3453    1.1403    0.0000 O   0  0  0  0  0  0  0  0  0  0  0  0
    4.7718    2.5241    0.0000 O   0  0  0  0  0  0  0  0  0  0  0  0
    4.5873    1.3720    0.0000 O   0  0  0  0  0  0  0  0  0  0  0  0
    3.6197    2.7086    0.0000 O   0  0  0  0  0  0  0  0  0  0  0  0
   -1.8717   -0.7469    0.0000 N   0  0  0  0  0  0  0  0  0  0  0  0
   -3.3668   -0.5858    0.0000 N   0  0  0  0  0  0  0  0  0  0  0  0
   -1.8717   -2.0747    0.0000 N   0  0  0  0  0  0  0  0  0  0  0  0
   -4.0813   -1.8233    0.0000 N   0  0  0  0  0  0  0  0  0  0  0  0
   -4.7958   -0.5858    0.0000 N   0  0  0  0  0  0  0  0  0  0  0  0
   -1.6131    1.3721    0.0000 C   0  0  1  0  0  0  0  0  0  0  0  0
   -2.0992    0.7055    0.0000 C   0  0  2  0  0  0  0  0  0  0  0  0
   -0.8289    1.1158    0.0000 C   0  0  1  0  0  0  0  0  0  0  0  0
   -1.6154    0.0372    0.0000 C   0  0  1  0  0  0  0  0  0  0  0  0
   -0.1606    1.5996    0.0000 C   0  0  0  0  0  0  0  0  0  0  0  0
   -2.6523   -0.9983    0.0000 C   0  0  0  0  0  0  0  0  0  0  0  0
   -1.3902   -1.4108    0.0000 C   0  0  0  0  0  0  0  0  0  0  0  0
   -2.6523   -1.8233    0.0000 C   0  0  0  0  0  0  0  0  0  0  0  0
    1.9290    2.2303    0.0000 C   0  0  0  0  0  0  0  0  0  0  0  0
   -3.3668   -2.2358    0.0000 C   0  0  0  0  0  0  0  0  0  0  0  0
   -4.0813   -0.9983    0.0000 C   0  0  0  0  0  0  0  0  0  0  0  0
   -1.2164    2.8769    0.0000 H   0  0  0  0  0  0  0  0  0  0  0  0
   -3.4078    1.5478    0.0000 H   0  0  0  0  0  0  0  0  0  0  0  0
    1.3484    0.1927    0.0000 H   0  0  0  0  0  0  0  0  0  0  0  0
    3.9839    2.7462    0.0000 H   0  0  0  0  0  0  0  0  0  0  0  0
    5.6573    2.1280    0.0000 H   0  0  0  0  0  0  0  0  0  0  0  0
    4.1912    0.4865    0.0000 H   0  0  0  0  0  0  0  0  0  0  0  0
   -3.3668    0.3987    0.0000 H   0  0  0  0  0  0  0  0  0  0  0  0
   -4.7958    0.3987    0.0000 H   0  0  0  0  0  0  0  0  0  0  0  0
   -5.6484   -1.0781    0.0000 H   0  0  0  0  0  0  0  0  0  0  0  0
   -2.6696    1.5413    0.0000 H   0  0  0  0  0  0  0  0  0  0  0  0
   -2.5833    1.6597    0.0000 H   0  0  0  0  0  0  0  0  0  0  0  0
    0.1236    0.6284    0.0000 H   0  0  0  0  0  0  0  0  0  0  0  0
   -0.8601   -0.7207    0.0000 H   0  0  0  0  0  0  0  0  0  0  0  0
   -0.2706    2.6639    0.0000 H   0  0  0  0  0  0  0  0  0  0  0  0
   -1.1373    2.0365    0.0000 H   0  0  0  0  0  0  0  0  0  0  0  0
   -0.3582   -1.4108    0.0000 H   0  0  0  0  0  0  0  0  0  0  0  0
    1.8190    3.2946    0.0000 H   0  0  0  0  0  0  0  0  0  0  0  0
    2.7958    2.8577    0.0000 H   0  0  0  0  0  0  0  0  0  0  0  0
  1  7  1  0  0  0  0
  1  8  1  0  0  0  0
  1  9  2  0  0  0  0
  1 30  1  0  0  0  0
  2 10  1  0  0  0  0
  2 11  1  0  0  0  0
  2 13  2  0  0  0  0
  2 30  1  0  0  0  0
  3 10  1  0  0  0  0
  3 14  1  0  0  0  0
  3 15  1  0  0  0  0
  3 16  2  0  0  0  0
  4 24  1  0  0  0  0
  4 25  1  0  0  0  0
  5 33  1  0  0  0  0
  6 34  1  0  0  0  0
  7 26  1  0  0  0  0
  8 35  1  0  0  0  0
 11 36  1  0  0  0  0
 12 31  2  0  0  0  0
 14 37  1  0  0  0  0
 15 38  1  0  0  0  0
 17 27  1  0  0  0  0
 17 28  1  0  0  0  0
 18 27  1  0  0  0  0
 18 32  1  0  0  0  0
 18 39  1  0  0  0  0
 19 28  2  0  0  0  0
 19 29  1  0  0  0  0
 20 31  1  0  0  0  0
 20 32  2  0  0  0  0
 21 32  1  0  0  0  0
 21 40  1  0  0  0  0
 21 41  1  0  0  0  0
 22  5  1  0  0  0  0
 22 23  1  0  0  0  0
 22 24  1  0  0  0  0
 22 42  1  1  0  0  0
 23  6  1  0  0  0  0
 23 25  1  0  0  0  0
 23 43  1  1  0  0  0
 24 26  1  0  0  0  0
 24 44  1  6  0  0  0
 25 17  1  0  0  0  0
 25 45  1  6  0  0  0
 26 46  1  0  0  0  0
 26 47  1  0  0  0  0
 27 29  2  0  0  0  0
 28 48  1  0  0  0  0
 29 31  1  0  0  0  0
 30 49  1  0  0  0  0
 30 50  1  0  0  0  0
M  END
>  <DRUGBANK_ID>
DB03532

>  <SECONDARY_ACCESSION_NUMBERS>
EXPT01527

>  <COMMON_NAME>
Phosphomethylphosphonic acid guanylate ester

$$$$
