
 OpenBabel10282417072D

 66 70  0  0  1  0  0  0  0  0999 V2000
    2.7845    0.6979    0.0000 C   0  0  0  0  0  0  0  0  0  0  0  0
    2.0701    1.1104    0.0000 C   0  0  0  0  0  0  0  0  0  0  0  0
    1.3556    0.6979    0.0000 C   0  0  0  0  0  0  0  0  0  0  0  0
    0.6411    1.1104    0.0000 N   0  0  0  0  0  0  0  0  0  0  0  0
    0.6411    1.9354    0.0000 C   0  0  0  0  0  0  0  0  0  0  0  0
   -0.1435    2.1904    0.0000 C   0  0  0  0  0  0  0  0  0  0  0  0
   -0.6284    1.5229    0.0000 C   0  0  0  0  0  0  0  0  0  0  0  0
   -0.1435    0.8555    0.0000 N   0  0  0  0  0  0  0  0  0  0  0  0
   -1.4534    1.5229    0.0000 C   0  0  2  0  0  0  0  0  0  0  0  0
   -1.8659    0.8085    0.0000 C   0  0  0  0  0  0  0  0  0  0  0  0
   -2.6909    0.8085    0.0000 C   0  0  0  0  0  0  0  0  0  0  0  0
   -3.1034    1.5229    0.0000 C   0  0  0  0  0  0  0  0  0  0  0  0
   -2.6909    2.2374    0.0000 C   0  0  0  0  0  0  0  0  0  0  0  0
   -1.8659    2.2374    0.0000 N   0  0  0  0  0  0  0  0  0  0  0  0
   -1.4534    2.9519    0.0000 C   0  0  0  0  0  0  0  0  0  0  0  0
   -0.6284    2.9519    0.0000 O   0  0  0  0  0  0  0  0  0  0  0  0
   -1.8659    3.6664    0.0000 C   0  0  0  0  0  0  0  0  0  0  0  0
   -2.6909    3.6664    0.0000 C   0  0  0  0  0  0  0  0  0  0  0  0
   -3.1034    4.3808    0.0000 C   0  0  0  0  0  0  0  0  0  0  0  0
   -2.6909    5.0953    0.0000 C   0  0  0  0  0  0  0  0  0  0  0  0
   -1.8659    5.0953    0.0000 C   0  0  0  0  0  0  0  0  0  0  0  0
   -1.4534    4.3808    0.0000 C   0  0  0  0  0  0  0  0  0  0  0  0
   -0.6284    4.3808    0.0000 N   0  0  0  0  0  0  0  0  0  0  0  0
   -0.2159    5.0953    0.0000 S   0  0  0  0  0  0  0  0  0  0  0  0
    0.1966    5.8098    0.0000 O   0  0  0  0  0  0  0  0  0  0  0  0
   -0.9304    5.5078    0.0000 O   0  0  0  0  0  0  0  0  0  0  0  0
    0.4985    4.6828    0.0000 C   0  0  0  0  0  0  0  0  0  0  0  0
   -3.9284    4.3808    0.0000 Cl  0  0  0  0  0  0  0  0  0  0  0  0
    1.3556    2.3479    0.0000 N   0  0  0  0  0  0  0  0  0  0  0  0
    2.0701    1.9354    0.0000 C   0  0  0  0  0  0  0  0  0  0  0  0
    2.7845    2.3479    0.0000 N   0  0  0  0  0  0  0  0  0  0  0  0
    2.8708    3.1684    0.0000 C   0  0  0  0  0  0  0  0  0  0  0  0
    3.6777    3.3400    0.0000 C   0  0  0  0  0  0  0  0  0  0  0  0
    4.0902    2.6255    0.0000 C   0  0  1  0  0  0  0  0  0  0  0  0
    3.5382    2.0124    0.0000 C   0  0  0  0  0  0  0  0  0  0  0  0
    4.9107    2.5392    0.0000 N   0  0  0  0  0  0  0  0  0  0  0  0
    2.7845   -0.3721    0.0000 H   0  0  0  0  0  0  0  0  0  0  0  0
    3.7112    1.2329    0.0000 H   0  0  0  0  0  0  0  0  0  0  0  0
    3.7111    0.1629    0.0000 H   0  0  0  0  0  0  0  0  0  0  0  0
    1.3556   -0.3341    0.0000 H   0  0  0  0  0  0  0  0  0  0  0  0
   -0.4624    3.1719    0.0000 H   0  0  0  0  0  0  0  0  0  0  0  0
   -0.9184    0.5962    0.0000 H   0  0  0  0  0  0  0  0  0  0  0  0
   -1.3309   -0.1182    0.0000 H   0  0  0  0  0  0  0  0  0  0  0  0
   -2.4009   -0.1181    0.0000 H   0  0  0  0  0  0  0  0  0  0  0  0
   -3.2259   -0.1182    0.0000 H   0  0  0  0  0  0  0  0  0  0  0  0
   -3.7609    0.8085    0.0000 H   0  0  0  0  0  0  0  0  0  0  0  0
   -4.1734    1.5229    0.0000 H   0  0  0  0  0  0  0  0  0  0  0  0
   -3.6384    2.4495    0.0000 H   0  0  0  0  0  0  0  0  0  0  0  0
   -3.2259    3.1640    0.0000 H   0  0  0  0  0  0  0  0  0  0  0  0
   -2.1559    3.1640    0.0000 H   0  0  0  0  0  0  0  0  0  0  0  0
   -3.2069    2.7727    0.0000 H   0  0  0  0  0  0  0  0  0  0  0  0
   -3.2069    5.9890    0.0000 H   0  0  0  0  0  0  0  0  0  0  0  0
   -1.3499    5.9890    0.0000 H   0  0  0  0  0  0  0  0  0  0  0  0
   -0.1361    3.5282    0.0000 H   0  0  0  0  0  0  0  0  0  0  0  0
    0.4985    3.6128    0.0000 H   0  0  0  0  0  0  0  0  0  0  0  0
    1.4252    5.2178    0.0000 H   0  0  0  0  0  0  0  0  0  0  0  0
    1.4251    4.1478    0.0000 H   0  0  0  0  0  0  0  0  0  0  0  0
    2.0756    3.8844    0.0000 H   0  0  0  0  0  0  0  0  0  0  0  0
    3.1477    4.2020    0.0000 H   0  0  0  0  0  0  0  0  0  0  0  0
    4.1129    4.3175    0.0000 H   0  0  0  0  0  0  0  0  0  0  0  0
    4.7462    3.3960    0.0000 H   0  0  0  0  0  0  0  0  0  0  0  0
    4.6730    3.5229    0.0000 H   0  0  0  0  0  0  0  0  0  0  0  0
    3.7607    0.9658    0.0000 H   0  0  0  0  0  0  0  0  0  0  0  0
    2.7067    1.3390    0.0000 H   0  0  0  0  0  0  0  0  0  0  0  0
    5.3255    1.6074    0.0000 H   0  0  0  0  0  0  0  0  0  0  0  0
    5.5103    3.3644    0.0000 H   0  0  0  0  0  0  0  0  0  0  0  0
  1  2  1  0  0  0  0
  1 37  1  0  0  0  0
  1 38  1  0  0  0  0
  1 39  1  0  0  0  0
  2  3  2  0  0  0  0
  2 30  1  0  0  0  0
  3  4  1  0  0  0  0
  3 40  1  0  0  0  0
  4  5  1  0  0  0  0
  4  8  1  0  0  0  0
  5  6  2  0  0  0  0
  5 29  1  0  0  0  0
  6  7  1  0  0  0  0
  6 41  1  0  0  0  0
  7  8  2  0  0  0  0
  9  7  1  0  0  0  0
  9 10  1  0  0  0  0
  9 14  1  0  0  0  0
  9 42  1  1  0  0  0
 10 11  1  0  0  0  0
 10 43  1  0  0  0  0
 10 44  1  0  0  0  0
 11 12  1  0  0  0  0
 11 45  1  0  0  0  0
 11 46  1  0  0  0  0
 12 13  1  0  0  0  0
 12 47  1  0  0  0  0
 12 48  1  0  0  0  0
 13 14  1  0  0  0  0
 13 49  1  0  0  0  0
 13 50  1  0  0  0  0
 14 15  1  0  0  0  0
 15 16  2  0  0  0  0
 15 17  1  0  0  0  0
 17 18  2  0  0  0  0
 17 22  1  0  0  0  0
 18 19  1  0  0  0  0
 18 51  1  0  0  0  0
 19 20  2  0  0  0  0
 19 28  1  0  0  0  0
 20 21  1  0  0  0  0
 20 52  1  0  0  0  0
 21 22  2  0  0  0  0
 21 53  1  0  0  0  0
 22 23  1  0  0  0  0
 23 24  1  0  0  0  0
 23 54  1  0  0  0  0
 24 25  2  0  0  0  0
 24 26  2  0  0  0  0
 24 27  1  0  0  0  0
 27 55  1  0  0  0  0
 27 56  1  0  0  0  0
 27 57  1  0  0  0  0
 29 30  2  0  0  0  0
 30 31  1  0  0  0  0
 31 32  1  0  0  0  0
 31 35  1  0  0  0  0
 32 33  1  0  0  0  0
 32 58  1  0  0  0  0
 32 59  1  0  0  0  0
 33 34  1  0  0  0  0
 33 60  1  0  0  0  0
 33 61  1  0  0  0  0
 34 35  1  0  0  0  0
 34 36  1  0  0  0  0
 34 62  1  1  0  0  0
 35 63  1  0  0  0  0
 35 64  1  0  0  0  0
 36 65  1  0  0  0  0
 36 66  1  0  0  0  0
M  END
>  <DRUGBANK_ID>
DB12165

>  <COMMON_NAME>
Presatovir

>  <CAS_NUMBER>
1353625-73-6

>  <UNII>
9628AJ27JA

>  <SYNONYMS>
Presatovir

$$$$
