
 OpenBabel10282417072D

 19 20  0  0  0  0  0  0  0  0999 V2000
   -0.9884   -0.1278    0.0000 N   0  3  0  0  0  0  0  0  0  0  0  0
    1.2215    0.1234    0.0000 N   0  0  0  0  0  0  0  0  0  0  0  0
   -0.2738   -1.3655    0.0000 N   0  0  0  0  0  0  0  0  0  0  0  0
    1.2215   -1.2044    0.0000 N   0  0  0  0  0  0  0  0  0  0  0  0
   -0.2738    1.1098    0.0000 N   0  0  0  0  0  0  0  0  0  0  0  0
    0.4407   -0.1278    0.0000 C   0  0  0  0  0  0  0  0  0  0  0  0
   -0.2738    0.2847    0.0000 C   0  0  0  0  0  0  0  0  0  0  0  0
    0.4407   -0.9530    0.0000 C   0  0  0  0  0  0  0  0  0  0  0  0
   -0.9884   -0.9530    0.0000 C   0  0  0  0  0  0  0  0  0  0  0  0
   -1.7030    0.2847    0.0000 C   0  0  0  0  0  0  0  0  0  0  0  0
    1.7030   -0.5404    0.0000 C   0  0  0  0  0  0  0  0  0  0  0  0
    1.3803    0.6098    0.0000 H   0  0  0  0  0  0  0  0  0  0  0  0
   -0.7169    1.3655    0.0000 H   0  0  0  0  0  0  0  0  0  0  0  0
    0.1691    1.3655    0.0000 H   0  0  0  0  0  0  0  0  0  0  0  0
   -1.8821   -1.4690    0.0000 H   0  0  0  0  0  0  0  0  0  0  0  0
   -1.7031    1.3547    0.0000 H   0  0  0  0  0  0  0  0  0  0  0  0
   -2.6296   -0.2504    0.0000 H   0  0  0  0  0  0  0  0  0  0  0  0
   -2.6297    0.8196    0.0000 H   0  0  0  0  0  0  0  0  0  0  0  0
    2.7350   -0.5403    0.0000 H   0  0  0  0  0  0  0  0  0  0  0  0
  1  7  2  0  0  0  0
  1  9  1  0  0  0  0
  1 10  1  0  0  0  0
  2  6  1  0  0  0  0
  2 11  1  0  0  0  0
  2 12  1  0  0  0  0
  3  8  1  0  0  0  0
  3  9  2  0  0  0  0
  4  8  1  0  0  0  0
  4 11  2  0  0  0  0
  5  7  1  0  0  0  0
  5 13  1  0  0  0  0
  5 14  1  0  0  0  0
  6  7  1  0  0  0  0
  6  8  2  0  0  0  0
  9 15  1  0  0  0  0
 10 16  1  0  0  0  0
 10 17  1  0  0  0  0
 10 18  1  0  0  0  0
 11 19  1  0  0  0  0
M  CHG  1   1   1
M  END
>  <DRUGBANK_ID>
DB03164

>  <SECONDARY_ACCESSION_NUMBERS>
EXPT02082

>  <COMMON_NAME>
6-amino-1-methyl-7H-purin-1-ium

>  <UNII>
98K2TG3E3W

>  <SYNONYMS>
6-amino-1-methylpurine

$$$$
