
 OpenBabel10282417072D

 79 84  0  0  0  0  0  0  0  0999 V2000
    2.2710    0.8185    0.0000 C   0  0  0  0  0  0  0  0  0  0  0  0
    2.0091    1.6008    0.0000 N   0  0  0  0  0  0  0  0  0  0  0  0
    3.0947    0.8151    0.0000 C   0  0  0  0  0  0  0  0  0  0  0  0
    1.8575    0.1051    0.0000 C   0  0  0  0  0  0  0  0  0  0  0  0
    2.6811    2.0936    0.0000 C   0  0  0  0  0  0  0  0  0  0  0  0
    1.2854    2.0075    0.0000 C   0  0  0  0  0  0  0  0  0  0  0  0
    3.3531    1.6008    0.0000 N   0  0  0  0  0  0  0  0  0  0  0  0
    3.5047    0.1017    0.0000 C   0  0  0  0  0  0  0  0  0  0  0  0
    2.2676   -0.6082    0.0000 C   0  0  0  0  0  0  0  0  0  0  0  0
    1.4371   -0.6047    0.0000 C   0  0  0  0  0  0  0  0  0  0  0  0
    2.6811    2.9207    0.0000 O   0  0  0  0  0  0  0  0  0  0  0  0
    0.5755    1.5801    0.0000 C   0  0  0  0  0  0  0  0  0  0  0  0
    3.0912   -0.6116    0.0000 C   0  0  0  0  0  0  0  0  0  0  0  0
    0.6100   -0.5978    0.0000 O   0  0  0  0  0  0  0  0  0  0  0  0
    1.8403   -1.3215    0.0000 O   0  0  0  0  0  0  0  0  0  0  0  0
    3.3979    3.3342    0.0000 C   0  0  0  0  0  0  0  0  0  0  0  0
   -0.1516    1.9833    0.0000 C   0  0  0  0  0  0  0  0  0  0  0  0
    0.5927    0.7668    0.0000 C   0  0  0  0  0  0  0  0  0  0  0  0
    0.1964   -1.3077    0.0000 C   0  0  3  0  0  0  0  0  0  0  0  0
    3.3979    4.1613    0.0000 C   0  0  0  0  0  0  0  0  0  0  0  0
   -0.8615    1.5559    0.0000 C   0  0  0  0  0  0  0  0  0  0  0  0
   -0.1240    0.3257    0.0000 C   0  0  0  0  0  0  0  0  0  0  0  0
   -0.6272   -1.3077    0.0000 O   0  0  0  0  0  0  0  0  0  0  0  0
    0.6031   -2.0211    0.0000 C   0  0  0  0  0  0  0  0  0  0  0  0
   -0.8409    0.7288    0.0000 C   0  0  0  0  0  0  0  0  0  0  0  0
   -1.0373   -2.0176    0.0000 C   0  0  0  0  0  0  0  0  0  0  0  0
   -1.5541    0.3050    0.0000 C   0  0  0  0  0  0  0  0  0  0  0  0
   -1.8574   -2.0176    0.0000 O   0  0  0  0  0  0  0  0  0  0  0  0
   -0.6272   -2.7345    0.0000 O   0  0  0  0  0  0  0  0  0  0  0  0
   -2.2813    0.7048    0.0000 C   0  0  0  0  0  0  0  0  0  0  0  0
   -1.5404   -0.5220    0.0000 C   0  0  0  0  0  0  0  0  0  0  0  0
   -2.2710   -2.7310    0.0000 C   0  0  0  0  0  0  0  0  0  0  0  0
   -2.2951    1.5353    0.0000 C   0  0  0  0  0  0  0  0  0  0  0  0
   -2.9878    0.2809    0.0000 C   0  0  0  0  0  0  0  0  0  0  0  0
   -2.2503   -0.9494    0.0000 C   0  0  0  0  0  0  0  0  0  0  0  0
   -3.0912   -2.7310    0.0000 C   0  0  0  0  0  0  0  0  0  0  0  0
   -1.8574   -3.4479    0.0000 C   0  0  0  0  0  0  0  0  0  0  0  0
   -2.9637    2.0109    0.0000 N   0  0  0  0  0  0  0  0  0  0  0  0
   -1.6266    2.0350    0.0000 N   0  0  0  0  0  0  0  0  0  0  0  0
   -2.9706   -0.5496    0.0000 C   0  0  0  0  0  0  0  0  0  0  0  0
   -3.5047   -3.4479    0.0000 C   0  0  0  0  0  0  0  0  0  0  0  0
   -2.2675   -4.1613    0.0000 C   0  0  0  0  0  0  0  0  0  0  0  0
   -2.7225    2.8035    0.0000 N   0  0  0  0  0  0  0  0  0  0  0  0
   -1.8953    2.8173    0.0000 N   0  0  0  0  0  0  0  0  0  0  0  0
   -3.0912   -4.1613    0.0000 C   0  0  0  0  0  0  0  0  0  0  0  0
    1.2694    3.0774    0.0000 H   0  0  0  0  0  0  0  0  0  0  0  0
    0.3500    2.5270    0.0000 H   0  0  0  0  0  0  0  0  0  0  0  0
    4.5367    0.0998    0.0000 H   0  0  0  0  0  0  0  0  0  0  0  0
    1.7489   -1.5004    0.0000 H   0  0  0  0  0  0  0  0  0  0  0  0
    3.6046   -1.5069    0.0000 H   0  0  0  0  0  0  0  0  0  0  0  0
    4.3245    2.7990    0.0000 H   0  0  0  0  0  0  0  0  0  0  0  0
    4.3246    3.8691    0.0000 H   0  0  0  0  0  0  0  0  0  0  0  0
   -0.1700    3.0151    0.0000 H   0  0  0  0  0  0  0  0  0  0  0  0
    1.4989    0.2730    0.0000 H   0  0  0  0  0  0  0  0  0  0  0  0
   -0.3368   -0.3800    0.0000 H   0  0  0  0  0  0  0  0  0  0  0  0
    4.3245    4.6963    0.0000 H   0  0  0  0  0  0  0  0  0  0  0  0
    2.4713    4.6963    0.0000 H   0  0  0  0  0  0  0  0  0  0  0  0
    3.3979    5.2313    0.0000 H   0  0  0  0  0  0  0  0  0  0  0  0
   -1.7662    2.0525    0.0000 H   0  0  0  0  0  0  0  0  0  0  0  0
   -0.1036   -0.7061    0.0000 H   0  0  0  0  0  0  0  0  0  0  0  0
    0.0630   -2.9448    0.0000 H   0  0  0  0  0  0  0  0  0  0  0  0
    1.6731   -2.0269    0.0000 H   0  0  0  0  0  0  0  0  0  0  0  0
    1.1330   -2.9507    0.0000 H   0  0  0  0  0  0  0  0  0  0  0  0
   -0.6378   -1.0223    0.0000 H   0  0  0  0  0  0  0  0  0  0  0  0
   -2.8061   -3.6576    0.0000 H   0  0  0  0  0  0  0  0  0  0  0  0
   -3.8911    0.7800    0.0000 H   0  0  0  0  0  0  0  0  0  0  0  0
   -2.2321   -1.9812    0.0000 H   0  0  0  0  0  0  0  0  0  0  0  0
   -3.6264   -1.8045    0.0000 H   0  0  0  0  0  0  0  0  0  0  0  0
   -4.1612   -2.7313    0.0000 H   0  0  0  0  0  0  0  0  0  0  0  0
   -0.7874   -3.4471    0.0000 H   0  0  0  0  0  0  0  0  0  0  0  0
   -1.3212   -4.3738    0.0000 H   0  0  0  0  0  0  0  0  0  0  0  0
   -3.8955    1.6932    0.0000 H   0  0  0  0  0  0  0  0  0  0  0  0
   -3.8545   -1.0823    0.0000 H   0  0  0  0  0  0  0  0  0  0  0  0
   -4.5747   -3.4490    0.0000 H   0  0  0  0  0  0  0  0  0  0  0  0
   -4.0384   -4.3753    0.0000 H   0  0  0  0  0  0  0  0  0  0  0  0
   -1.7316   -5.0874    0.0000 H   0  0  0  0  0  0  0  0  0  0  0  0
   -2.8021   -5.0882    0.0000 H   0  0  0  0  0  0  0  0  0  0  0  0
   -3.6254   -5.0884    0.0000 H   0  0  0  0  0  0  0  0  0  0  0  0
   -2.5558   -5.0877    0.0000 H   0  0  0  0  0  0  0  0  0  0  0  0
  1  2  1  0  0  0  0
  1  3  2  0  0  0  0
  1  4  1  0  0  0  0
  2  5  1  0  0  0  0
  2  6  1  0  0  0  0
  3  7  1  0  0  0  0
  3  8  1  0  0  0  0
  4  9  2  0  0  0  0
  4 10  1  0  0  0  0
  5 11  1  0  0  0  0
  5  7  2  0  0  0  0
  6 12  1  0  0  0  0
  6 46  1  0  0  0  0
  6 47  1  0  0  0  0
  8 13  2  0  0  0  0
  8 48  1  0  0  0  0
  9 13  1  0  0  0  0
  9 49  1  0  0  0  0
 10 14  1  0  0  0  0
 10 15  2  0  0  0  0
 11 16  1  0  0  0  0
 12 17  1  0  0  0  0
 12 18  2  0  0  0  0
 13 50  1  0  0  0  0
 14 19  1  0  0  0  0
 16 20  1  0  0  0  0
 16 51  1  0  0  0  0
 16 52  1  0  0  0  0
 17 21  2  0  0  0  0
 17 53  1  0  0  0  0
 18 22  1  0  0  0  0
 18 54  1  0  0  0  0
 19 23  1  0  0  0  0
 19 24  1  0  0  0  0
 19 55  1  0  0  0  0
 20 56  1  0  0  0  0
 20 57  1  0  0  0  0
 20 58  1  0  0  0  0
 21 25  1  0  0  0  0
 21 59  1  0  0  0  0
 22 25  2  0  0  0  0
 22 60  1  0  0  0  0
 23 26  1  0  0  0  0
 24 61  1  0  0  0  0
 24 62  1  0  0  0  0
 24 63  1  0  0  0  0
 25 27  1  0  0  0  0
 26 28  1  0  0  0  0
 26 29  2  0  0  0  0
 27 30  1  0  0  0  0
 27 31  2  0  0  0  0
 28 32  1  0  0  0  0
 30 33  1  0  0  0  0
 30 34  2  0  0  0  0
 31 35  1  0  0  0  0
 31 64  1  0  0  0  0
 32 36  1  0  0  0  0
 32 37  1  0  0  0  0
 32 65  1  0  0  0  0
 33 38  1  0  0  0  0
 33 39  2  0  0  0  0
 34 40  1  0  0  0  0
 34 66  1  0  0  0  0
 35 40  2  0  0  0  0
 35 67  1  0  0  0  0
 36 41  1  0  0  0  0
 36 68  1  0  0  0  0
 36 69  1  0  0  0  0
 37 42  1  0  0  0  0
 37 70  1  0  0  0  0
 37 71  1  0  0  0  0
 38 43  1  0  0  0  0
 38 72  1  0  0  0  0
 39 44  1  0  0  0  0
 40 73  1  0  0  0  0
 41 45  1  0  0  0  0
 41 74  1  0  0  0  0
 41 75  1  0  0  0  0
 42 45  1  0  0  0  0
 42 76  1  0  0  0  0
 42 77  1  0  0  0  0
 43 44  2  0  0  0  0
 45 78  1  0  0  0  0
 45 79  1  0  0  0  0
M  END
>  <DRUGBANK_ID>
DB00796

>  <SECONDARY_ACCESSION_NUMBERS>
APRD00420

>  <COMMON_NAME>
Candesartan cilexetil

>  <CAS_NUMBER>
145040-37-5

>  <UNII>
R85M2X0D68

>  <SYNONYMS>
Candesartan cilexetil

$$$$
