
 OpenBabel10282417072D

 41 43  0  0  0  0  0  0  0  0999 V2000
    1.9332    0.5626    0.0000 C   0  0  0  0  0  0  0  0  0  0  0  0
    1.1097    0.6131    0.0000 C   0  0  1  0  0  0  0  0  0  0  0  0
    0.8074    1.3807    0.0000 C   0  0  0  0  0  0  0  0  0  0  0  0
   -0.0561    1.4930    0.0000 N   0  0  0  0  0  0  0  0  0  0  0  0
   -0.2905    2.2841    0.0000 C   0  0  0  0  0  0  0  0  0  0  0  0
    0.1945    2.9516    0.0000 S   0  0  0  0  0  0  0  0  0  0  0  0
   -1.1152    2.2626    0.0000 N   0  0  0  0  0  0  0  0  0  0  0  0
   -1.4847    1.4557    0.0000 C   0  0  0  0  0  0  0  0  0  0  0  0
   -0.7596    1.0620    0.0000 C   0  0  0  0  0  0  0  0  0  0  0  0
   -0.7381    0.2372    0.0000 C   0  0  0  0  0  0  0  0  0  0  0  0
   -1.4416   -0.1937    0.0000 C   0  0  0  0  0  0  0  0  0  0  0  0
   -1.4200   -1.0185    0.0000 Cl  0  0  0  0  0  0  0  0  0  0  0  0
   -2.1666    0.1999    0.0000 C   0  0  0  0  0  0  0  0  0  0  0  0
   -2.1882    1.0247    0.0000 C   0  0  0  0  0  0  0  0  0  0  0  0
   -0.0924   -0.2763    0.0000 C   0  0  0  0  0  0  0  0  0  0  0  0
    0.7160   -0.1119    0.0000 N   0  0  0  0  0  0  0  0  0  0  0  0
    1.2067   -0.7751    0.0000 C   0  0  0  0  0  0  0  0  0  0  0  0
    0.8777   -1.5317    0.0000 C   0  0  0  0  0  0  0  0  0  0  0  0
    1.3684   -2.1950    0.0000 C   0  0  0  0  0  0  0  0  0  0  0  0
    1.0394   -2.9516    0.0000 C   0  0  0  0  0  0  0  0  0  0  0  0
    2.1882   -2.1016    0.0000 C   0  0  0  0  0  0  0  0  0  0  0  0
   -1.5699    2.9510    0.0000 H   0  0  0  0  0  0  0  0  0  0  0  0
    2.4105   -0.3951    0.0000 H   0  0  0  0  0  0  0  0  0  0  0  0
    2.5239    1.4548    0.0000 H   0  0  0  0  0  0  0  0  0  0  0  0
    3.0012    0.4971    0.0000 H   0  0  0  0  0  0  0  0  0  0  0  0
    1.7387    1.4787    0.0000 H   0  0  0  0  0  0  0  0  0  0  0  0
    1.4655    2.2244    0.0000 H   0  0  0  0  0  0  0  0  0  0  0  0
    0.4011    2.3706    0.0000 H   0  0  0  0  0  0  0  0  0  0  0  0
   -3.0465   -0.3393    0.0000 H   0  0  0  0  0  0  0  0  0  0  0  0
   -3.0951    1.5172    0.0000 H   0  0  0  0  0  0  0  0  0  0  0  0
   -0.3422   -1.3167    0.0000 H   0  0  0  0  0  0  0  0  0  0  0  0
    0.6509   -1.0460    0.0000 H   0  0  0  0  0  0  0  0  0  0  0  0
    2.2698   -0.6540    0.0000 H   0  0  0  0  0  0  0  0  0  0  0  0
    1.8431   -1.6352    0.0000 H   0  0  0  0  0  0  0  0  0  0  0  0
   -0.1477   -1.6485    0.0000 H   0  0  0  0  0  0  0  0  0  0  0  0
   -0.0237   -3.0727    0.0000 H   0  0  0  0  0  0  0  0  0  0  0  0
    1.6758   -3.8117    0.0000 H   0  0  0  0  0  0  0  0  0  0  0  0
    0.6127   -3.9328    0.0000 H   0  0  0  0  0  0  0  0  0  0  0  0
    2.8247   -2.9617    0.0000 H   0  0  0  0  0  0  0  0  0  0  0  0
    2.6149   -1.1203    0.0000 H   0  0  0  0  0  0  0  0  0  0  0  0
    3.2513   -1.9805    0.0000 H   0  0  0  0  0  0  0  0  0  0  0  0
  1 23  1  0  0  0  0
  1 24  1  0  0  0  0
  1 25  1  0  0  0  0
  2  1  1  0  0  0  0
  2  3  1  0  0  0  0
  2 16  1  0  0  0  0
  2 26  1  1  0  0  0
  3  4  1  0  0  0  0
  3 27  1  0  0  0  0
  3 28  1  0  0  0  0
  4  5  1  0  0  0  0
  4  9  1  0  0  0  0
  5  6  2  0  0  0  0
  5  7  1  0  0  0  0
  7  8  1  0  0  0  0
  7 22  1  0  0  0  0
  8  9  2  0  0  0  0
  8 14  1  0  0  0  0
  9 10  1  0  0  0  0
 10 11  2  0  0  0  0
 10 15  1  0  0  0  0
 11 12  1  0  0  0  0
 11 13  1  0  0  0  0
 13 14  2  0  0  0  0
 13 29  1  0  0  0  0
 14 30  1  0  0  0  0
 15 16  1  0  0  0  0
 15 31  1  0  0  0  0
 15 32  1  0  0  0  0
 16 17  1  0  0  0  0
 17 18  1  0  0  0  0
 17 33  1  0  0  0  0
 17 34  1  0  0  0  0
 18 19  2  0  0  0  0
 18 35  1  0  0  0  0
 19 20  1  0  0  0  0
 19 21  1  0  0  0  0
 20 36  1  0  0  0  0
 20 37  1  0  0  0  0
 20 38  1  0  0  0  0
 21 39  1  0  0  0  0
 21 40  1  0  0  0  0
 21 41  1  0  0  0  0
M  END
>  <DRUGBANK_ID>
DB08600

>  <COMMON_NAME>
Tivirapine

>  <CAS_NUMBER>
137332-54-8

>  <UNII>
7WP69N3Y3Y

>  <SYNONYMS>
Tivirapine

$$$$
