
 OpenBabel10282417072D

 89 95  0  0  1  0  0  0  0  0999 V2000
   -1.8388   -0.5122    0.0000 C   0  0  0  0  0  0  0  0  0  0  0  0
   -1.0262   -0.6546    0.0000 C   0  0  0  0  0  0  0  0  0  0  0  0
   -0.4966   -0.0220    0.0000 C   0  0  0  0  0  0  0  0  0  0  0  0
    0.3161   -0.1643    0.0000 C   0  0  0  0  0  0  0  0  0  0  0  0
    0.5991   -0.9392    0.0000 C   0  0  0  0  0  0  0  0  0  0  0  0
    0.0695   -1.5718    0.0000 C   0  0  0  0  0  0  0  0  0  0  0  0
   -0.7431   -1.4295    0.0000 C   0  0  0  0  0  0  0  0  0  0  0  0
   -1.2727   -2.0621    0.0000 O   0  0  0  0  0  0  0  0  0  0  0  0
   -2.0853   -1.9197    0.0000 C   0  0  0  0  0  0  0  0  0  0  0  0
    0.3526   -2.3467    0.0000 O   0  0  0  0  0  0  0  0  0  0  0  0
    1.3472   -1.2870    0.0000 C   0  0  2  0  0  0  0  0  0  0  0  0
    2.1221   -1.0040    0.0000 C   0  0  2  0  0  0  0  0  0  0  0  0
    2.5961   -1.6792    0.0000 C   0  0  0  0  0  0  0  0  0  0  0  0
    3.4179   -1.6064    0.0000 C   0  0  0  0  0  0  0  0  0  0  0  0
    3.7657   -0.8583    0.0000 C   0  0  0  0  0  0  0  0  0  0  0  0
    4.5875   -0.7854    0.0000 C   0  0  0  0  0  0  0  0  0  0  0  0
    5.0614   -1.4607    0.0000 C   0  0  0  0  0  0  0  0  0  0  0  0
    4.7136   -2.2088    0.0000 C   0  0  0  0  0  0  0  0  0  0  0  0
    3.8919   -2.2816    0.0000 C   0  0  0  0  0  0  0  0  0  0  0  0
    3.5440   -3.0297    0.0000 O   0  0  0  0  0  0  0  0  0  0  0  0
    4.0180   -3.7050    0.0000 C   0  0  0  0  0  0  0  0  0  0  0  0
    4.8398   -3.6322    0.0000 O   0  0  0  0  0  0  0  0  0  0  0  0
    3.6702   -4.4531    0.0000 C   0  0  0  0  0  0  0  0  0  0  0  0
    5.1876   -2.8841    0.0000 C   0  0  0  0  0  0  0  0  0  0  0  0
    5.8501   -1.2186    0.0000 O   0  0  0  0  0  0  0  0  0  0  0  0
    5.8636   -0.3937    0.0000 C   0  0  0  0  0  0  0  0  0  0  0  0
    5.0832   -0.1260    0.0000 O   0  0  0  0  0  0  0  0  0  0  0  0
    3.2917   -0.1830    0.0000 C   0  0  1  0  0  0  0  0  0  0  0  0
    2.4699   -0.2559    0.0000 N   0  0  3  0  0  0  0  0  0  0  0  0
    2.1869    0.5191    0.0000 C   0  0  2  0  0  0  0  0  0  0  0  0
    1.4388    0.8669    0.0000 C   0  0  2  0  0  0  0  0  0  0  0  0
    0.6639    0.5838    0.0000 C   0  0  0  0  0  0  0  0  0  0  0  0
    1.1238   -0.1986    0.0000 N   0  0  0  0  0  0  0  0  0  0  0  0
    0.4775    0.3142    0.0000 C   0  0  0  0  0  0  0  0  0  0  0  0
    2.7945    1.0771    0.0000 O   0  0  0  0  0  0  0  0  0  0  0  0
    3.6395    0.5651    0.0000 C   0  0  0  0  0  0  0  0  0  0  0  0
    4.4613    0.6379    0.0000 N   0  0  0  0  0  0  0  0  0  0  0  0
    4.8091    1.3860    0.0000 C   0  0  0  0  0  0  0  0  0  0  0  0
    5.6309    1.4589    0.0000 O   0  0  0  0  0  0  0  0  0  0  0  0
    4.3351    2.0613    0.0000 C   0  0  0  0  0  0  0  0  0  0  0  0
    4.6829    2.8094    0.0000 C   0  0  0  0  0  0  0  0  0  0  0  0
    4.2090    3.4846    0.0000 C   0  0  0  0  0  0  0  0  0  0  0  0
    3.3872    3.4118    0.0000 C   0  0  0  0  0  0  0  0  0  0  0  0
    2.9132    4.0871    0.0000 C   0  0  0  0  0  0  0  0  0  0  0  0
    3.2610    4.8352    0.0000 C   0  0  0  0  0  0  0  0  0  0  0  0
    4.0828    4.9080    0.0000 C   0  0  0  0  0  0  0  0  0  0  0  0
    4.5568    4.2327    0.0000 C   0  0  0  0  0  0  0  0  0  0  0  0
    4.4306    5.6561    0.0000 C   0  0  0  0  0  0  0  0  0  0  0  0
    4.7784    6.4042    0.0000 F   0  0  0  0  0  0  0  0  0  0  0  0
    5.1787    5.3083    0.0000 F   0  0  0  0  0  0  0  0  0  0  0  0
    3.6825    6.0039    0.0000 F   0  0  0  0  0  0  0  0  0  0  0  0
   -2.2058    0.4929    0.0000 H   0  0  0  0  0  0  0  0  0  0  0  0
   -2.5257   -1.3326    0.0000 H   0  0  0  0  0  0  0  0  0  0  0  0
   -2.8927   -0.3275    0.0000 H   0  0  0  0  0  0  0  0  0  0  0  0
   -0.8507    0.9474    0.0000 H   0  0  0  0  0  0  0  0  0  0  0  0
   -2.4523   -0.9146    0.0000 H   0  0  0  0  0  0  0  0  0  0  0  0
   -2.7722   -2.7401    0.0000 H   0  0  0  0  0  0  0  0  0  0  0  0
   -3.1392   -1.7350    0.0000 H   0  0  0  0  0  0  0  0  0  0  0  0
   -0.2488   -3.0652    0.0000 H   0  0  0  0  0  0  0  0  0  0  0  0
    0.6836   -0.4477    0.0000 H   0  0  0  0  0  0  0  0  0  0  0  0
    1.3983   -0.2159    0.0000 H   0  0  0  0  0  0  0  0  0  0  0  0
    2.1450   -2.6495    0.0000 H   0  0  0  0  0  0  0  0  0  0  0  0
    3.2108   -2.5550    0.0000 H   0  0  0  0  0  0  0  0  0  0  0  0
    2.6044   -4.5476    0.0000 H   0  0  0  0  0  0  0  0  0  0  0  0
    4.2849   -5.3289    0.0000 H   0  0  0  0  0  0  0  0  0  0  0  0
    3.2191   -5.4234    0.0000 H   0  0  0  0  0  0  0  0  0  0  0  0
    4.7365   -3.8544    0.0000 H   0  0  0  0  0  0  0  0  0  0  0  0
    6.2534   -2.7896    0.0000 H   0  0  0  0  0  0  0  0  0  0  0  0
    5.8023   -3.7599    0.0000 H   0  0  0  0  0  0  0  0  0  0  0  0
    6.7394    0.2210    0.0000 H   0  0  0  0  0  0  0  0  0  0  0  0
    5.7135    0.6657    0.0000 H   0  0  0  0  0  0  0  0  0  0  0  0
    4.3575   -0.0885    0.0000 H   0  0  0  0  0  0  0  0  0  0  0  0
    3.2265    0.2659    0.0000 H   0  0  0  0  0  0  0  0  0  0  0  0
    1.8791   -0.1083    0.0000 H   0  0  0  0  0  0  0  0  0  0  0  0
   -0.0599    1.3718    0.0000 H   0  0  0  0  0  0  0  0  0  0  0  0
   -0.3935    0.4198    0.0000 H   0  0  0  0  0  0  0  0  0  0  0  0
    0.6344    1.3726    0.0000 H   0  0  0  0  0  0  0  0  0  0  0  0
   -0.5176   -0.0792    0.0000 H   0  0  0  0  0  0  0  0  0  0  0  0
   -0.3607    0.9793    0.0000 H   0  0  0  0  0  0  0  0  0  0  0  0
    3.7199    0.7864    0.0000 H   0  0  0  0  0  0  0  0  0  0  0  0
    3.0248    1.4409    0.0000 H   0  0  0  0  0  0  0  0  0  0  0  0
    4.0906    1.5353    0.0000 H   0  0  0  0  0  0  0  0  0  0  0  0
    5.0269   -0.1679    0.0000 H   0  0  0  0  0  0  0  0  0  0  0  0
    3.3071    1.9702    0.0000 H   0  0  0  0  0  0  0  0  0  0  0  0
    5.7109    2.9005    0.0000 H   0  0  0  0  0  0  0  0  0  0  0  0
    2.9521    2.4760    0.0000 H   0  0  0  0  0  0  0  0  0  0  0  0
    1.8852    3.9960    0.0000 H   0  0  0  0  0  0  0  0  0  0  0  0
    2.6681    5.6799    0.0000 H   0  0  0  0  0  0  0  0  0  0  0  0
    5.5848    4.3238    0.0000 H   0  0  0  0  0  0  0  0  0  0  0  0
  1  2  1  0  0  0  0
  1 52  1  0  0  0  0
  1 53  1  0  0  0  0
  1 54  1  0  0  0  0
  2  3  2  0  0  0  0
  2  7  1  0  0  0  0
  3  4  1  0  0  0  0
  3 55  1  0  0  0  0
  4  5  2  0  0  0  0
  4 32  1  0  0  0  0
  5  6  1  0  0  0  0
  5 11  1  0  0  0  0
  6  7  2  0  0  0  0
  6 10  1  0  0  0  0
  7  8  1  0  0  0  0
  8  9  1  0  0  0  0
  9 56  1  0  0  0  0
  9 57  1  0  0  0  0
  9 58  1  0  0  0  0
 10 59  1  0  0  0  0
 11 12  1  0  0  0  0
 11 33  1  0  0  0  0
 11 60  1  6  0  0  0
 12 13  1  0  0  0  0
 12 29  1  0  0  0  0
 12 61  1  6  0  0  0
 13 14  1  0  0  0  0
 13 62  1  0  0  0  0
 13 63  1  0  0  0  0
 14 15  2  0  0  0  0
 14 19  1  0  0  0  0
 15 16  1  0  0  0  0
 15 28  1  0  0  0  0
 16 17  2  0  0  0  0
 16 27  1  0  0  0  0
 17 18  1  0  0  0  0
 17 25  1  0  0  0  0
 18 19  2  0  0  0  0
 18 24  1  0  0  0  0
 19 20  1  0  0  0  0
 20 21  1  0  0  0  0
 21 22  2  0  0  0  0
 21 23  1  0  0  0  0
 23 64  1  0  0  0  0
 23 65  1  0  0  0  0
 23 66  1  0  0  0  0
 24 67  1  0  0  0  0
 24 68  1  0  0  0  0
 24 69  1  0  0  0  0
 25 26  1  0  0  0  0
 26 27  1  0  0  0  0
 26 70  1  0  0  0  0
 26 71  1  0  0  0  0
 28 29  1  0  0  0  0
 28 36  1  0  0  0  0
 28 72  1  6  0  0  0
 29 30  1  0  0  0  0
 30 31  1  0  0  0  0
 30 35  1  0  0  0  0
 30 73  1  1  0  0  0
 31 32  1  0  0  0  0
 31 33  1  0  0  0  0
 31 74  1  6  0  0  0
 32 75  1  0  0  0  0
 32 76  1  0  0  0  0
 33 34  1  0  0  0  0
 34 77  1  0  0  0  0
 34 78  1  0  0  0  0
 34 79  1  0  0  0  0
 35 80  1  0  0  0  0
 36 37  1  0  0  0  0
 36 81  1  0  0  0  0
 36 82  1  0  0  0  0
 37 38  1  0  0  0  0
 37 83  1  0  0  0  0
 38 39  2  0  0  0  0
 38 40  1  0  0  0  0
 40 41  2  0  0  0  0
 40 84  1  0  0  0  0
 41 42  1  0  0  0  0
 41 85  1  0  0  0  0
 42 43  2  0  0  0  0
 42 47  1  0  0  0  0
 43 44  1  0  0  0  0
 43 86  1  0  0  0  0
 44 45  2  0  0  0  0
 44 87  1  0  0  0  0
 45 46  1  0  0  0  0
 45 88  1  0  0  0  0
 46 47  2  0  0  0  0
 46 48  1  0  0  0  0
 47 89  1  0  0  0  0
 48 49  1  0  0  0  0
 48 50  1  0  0  0  0
 48 51  1  0  0  0  0
M  END
>  <DRUGBANK_ID>
DB12454

>  <COMMON_NAME>
Zalypsis

>  <CAS_NUMBER>
308359-57-1

>  <UNII>
C21EZR41AY

$$$$
