
 OpenBabel10282417072D

 42 45  0  0  0  0  0  0  0  0999 V2000
    7.5008   -2.9229    0.0000 Cl  0  0  0  0  0  0  0  0  0  0  0  0
    6.8886   -0.2019    0.0000 S   0  0  0  0  0  0  0  0  0  0  0  0
    5.5787    0.5596    0.0000 O   0  0  0  0  0  0  0  0  0  0  0  0
    3.8213    2.6915    0.0000 O   0  0  0  0  0  0  0  0  0  0  0  0
    2.7577    1.7371    0.0000 O   0  0  0  0  0  0  0  0  0  0  0  0
    3.8597    0.5090    0.0000 N   0  0  0  0  0  0  0  0  0  0  0  0
    5.5787   -0.8693    0.0000 N   0  0  0  0  0  0  0  0  0  0  0  0
    6.8886   -1.5368    0.0000 N   0  0  0  0  0  0  0  0  0  0  0  0
    3.0790    0.2577    0.0000 C   0  0  0  0  0  0  0  0  0  0  0  0
    3.0790   -0.5674    0.0000 C   0  0  0  0  0  0  0  0  0  0  0  0
    4.3411   -0.1549    0.0000 C   0  0  0  0  0  0  0  0  0  0  0  0
    3.8597   -0.8187    0.0000 C   0  0  0  0  0  0  0  0  0  0  0  0
    4.1159    1.2932    0.0000 C   0  0  0  0  0  0  0  0  0  0  0  0
    2.3645    0.6702    0.0000 C   0  0  0  0  0  0  0  0  0  0  0  0
    2.3645   -0.9799    0.0000 C   0  0  0  0  0  0  0  0  0  0  0  0
    5.1661   -0.1549    0.0000 C   0  0  0  0  0  0  0  0  0  0  0  0
    1.6500    0.2577    0.0000 C   0  0  0  0  0  0  0  0  0  0  0  0
    1.6500   -0.5674    0.0000 C   0  0  0  0  0  0  0  0  0  0  0  0
    3.5650    1.9073    0.0000 C   0  0  0  0  0  0  0  0  0  0  0  0
    6.4037   -0.8693    0.0000 C   0  0  0  0  0  0  0  0  0  0  0  0
    7.6732   -1.2818    0.0000 C   0  0  0  0  0  0  0  0  0  0  0  0
    8.3406   -1.7668    0.0000 C   0  0  0  0  0  0  0  0  0  0  0  0
    7.6732   -0.4568    0.0000 C   0  0  0  0  0  0  0  0  0  0  0  0
    8.2544   -2.5872    0.0000 C   0  0  0  0  0  0  0  0  0  0  0  0
    9.0944   -1.4312    0.0000 C   0  0  0  0  0  0  0  0  0  0  0  0
    8.9219   -3.0722    0.0000 C   0  0  0  0  0  0  0  0  0  0  0  0
    9.7618   -1.9162    0.0000 C   0  0  0  0  0  0  0  0  0  0  0  0
    9.6756   -2.7367    0.0000 C   0  0  0  0  0  0  0  0  0  0  0  0
    4.7382    2.8847    0.0000 H   0  0  0  0  0  0  0  0  0  0  0  0
    5.0865   -1.7219    0.0000 H   0  0  0  0  0  0  0  0  0  0  0  0
    4.1804   -1.7996    0.0000 H   0  0  0  0  0  0  0  0  0  0  0  0
    5.1629    1.5139    0.0000 H   0  0  0  0  0  0  0  0  0  0  0  0
    4.4484    2.3102    0.0000 H   0  0  0  0  0  0  0  0  0  0  0  0
    2.3645    1.7022    0.0000 H   0  0  0  0  0  0  0  0  0  0  0  0
    2.3645   -2.0119    0.0000 H   0  0  0  0  0  0  0  0  0  0  0  0
    0.7563    0.7737    0.0000 H   0  0  0  0  0  0  0  0  0  0  0  0
    0.7563   -1.0834    0.0000 H   0  0  0  0  0  0  0  0  0  0  0  0
    8.5081    0.1498    0.0000 H   0  0  0  0  0  0  0  0  0  0  0  0
    9.2023   -0.4049    0.0000 H   0  0  0  0  0  0  0  0  0  0  0  0
    8.8140   -4.0985    0.0000 H   0  0  0  0  0  0  0  0  0  0  0  0
   10.7046   -1.4965    0.0000 H   0  0  0  0  0  0  0  0  0  0  0  0
   10.5105   -3.3433    0.0000 H   0  0  0  0  0  0  0  0  0  0  0  0
  1 24  1  0  0  0  0
  2 20  1  0  0  0  0
  2 23  1  0  0  0  0
  3 16  2  0  0  0  0
  4 19  1  0  0  0  0
  4 29  1  0  0  0  0
  5 19  2  0  0  0  0
  6  9  1  0  0  0  0
  6 11  1  0  0  0  0
  6 13  1  0  0  0  0
  7 16  1  0  0  0  0
  7 20  1  0  0  0  0
  7 30  1  0  0  0  0
  8 20  2  0  0  0  0
  8 21  1  0  0  0  0
  9 10  1  0  0  0  0
  9 14  2  0  0  0  0
 10 12  1  0  0  0  0
 10 15  2  0  0  0  0
 11 12  2  0  0  0  0
 11 16  1  0  0  0  0
 12 31  1  0  0  0  0
 13 19  1  0  0  0  0
 13 32  1  0  0  0  0
 13 33  1  0  0  0  0
 14 17  1  0  0  0  0
 14 34  1  0  0  0  0
 15 18  1  0  0  0  0
 15 35  1  0  0  0  0
 17 18  2  0  0  0  0
 17 36  1  0  0  0  0
 18 37  1  0  0  0  0
 21 22  1  0  0  0  0
 21 23  2  0  0  0  0
 22 24  1  0  0  0  0
 22 25  2  0  0  0  0
 23 38  1  0  0  0  0
 24 26  2  0  0  0  0
 25 27  1  0  0  0  0
 25 39  1  0  0  0  0
 26 28  1  0  0  0  0
 26 40  1  0  0  0  0
 27 28  2  0  0  0  0
 27 41  1  0  0  0  0
 28 42  1  0  0  0  0
M  END
>  <DRUGBANK_ID>
DB04867

>  <COMMON_NAME>
Lintitript

>  <CAS_NUMBER>
136381-85-6

>  <UNII>
3YFV00531K

>  <SYNONYMS>
Lintitript

$$$$
