AT2
 OpenBabel10282417072D

 40 41  0  0  0  0  0  0  0  0999 V2000
    2.5653    1.4639    0.0000 C   0  0  0  0  0  0  0  0  0  0  0  0
    2.5653    0.6389    0.0000 C   0  0  0  0  0  0  0  0  0  0  0  0
    3.2798    0.2264    0.0000 C   0  0  0  0  0  0  0  0  0  0  0  0
    3.2798   -0.5986    0.0000 C   0  0  0  0  0  0  0  0  0  0  0  0
    1.8509   -0.5986    0.0000 C   0  0  0  0  0  0  0  0  0  0  0  0
    1.8509    0.2264    0.0000 C   0  0  0  0  0  0  0  0  0  0  0  0
    0.4219   -0.5986    0.0000 C   0  0  0  0  0  0  0  0  0  0  0  0
   -0.2925   -1.0111    0.0000 C   0  0  0  0  0  0  0  0  0  0  0  0
   -1.0070   -0.5986    0.0000 C   0  0  0  0  0  0  0  0  0  0  0  0
    2.5653   -1.0111    0.0000 N   0  0  0  0  0  0  0  0  0  0  0  0
    1.1364   -1.0111    0.0000 N   0  0  0  0  0  0  0  0  0  0  0  0
   -1.0070    0.2264    0.0000 N   0  0  0  0  0  0  0  0  0  0  0  0
   -0.2925    0.6389    0.0000 C   0  0  0  0  0  0  0  0  0  0  0  0
    0.4219    0.2264    0.0000 C   0  0  0  0  0  0  0  0  0  0  0  0
   -1.7215    0.6389    0.0000 C   0  0  0  0  0  0  0  0  0  0  0  0
   -1.7215    1.4639    0.0000 O   0  0  0  0  0  0  0  0  0  0  0  0
   -2.4360    0.2264    0.0000 O   0  0  0  0  0  0  0  0  0  0  0  0
   -3.1504    0.6389    0.0000 C   0  0  0  0  0  0  0  0  0  0  0  0
   -3.8649    0.2264    0.0000 C   0  0  0  0  0  0  0  0  0  0  0  0
    3.4919    1.9989    0.0000 H   0  0  0  0  0  0  0  0  0  0  0  0
    1.6387    1.9989    0.0000 H   0  0  0  0  0  0  0  0  0  0  0  0
    2.5653    2.5339    0.0000 H   0  0  0  0  0  0  0  0  0  0  0  0
    4.1735    0.7424    0.0000 H   0  0  0  0  0  0  0  0  0  0  0  0
    4.1735   -1.1146    0.0000 H   0  0  0  0  0  0  0  0  0  0  0  0
    0.9572    0.7424    0.0000 H   0  0  0  0  0  0  0  0  0  0  0  0
    1.3485   -0.0636    0.0000 H   0  0  0  0  0  0  0  0  0  0  0  0
   -0.2925   -2.0811    0.0000 H   0  0  0  0  0  0  0  0  0  0  0  0
   -1.2191   -1.5461    0.0000 H   0  0  0  0  0  0  0  0  0  0  0  0
   -1.9336   -1.1336    0.0000 H   0  0  0  0  0  0  0  0  0  0  0  0
   -1.9336   -0.0636    0.0000 H   0  0  0  0  0  0  0  0  0  0  0  0
    1.1364   -1.9956    0.0000 H   0  0  0  0  0  0  0  0  0  0  0  0
   -0.2925    1.7089    0.0000 H   0  0  0  0  0  0  0  0  0  0  0  0
    0.6342    1.1739    0.0000 H   0  0  0  0  0  0  0  0  0  0  0  0
    1.3486    0.7614    0.0000 H   0  0  0  0  0  0  0  0  0  0  0  0
    0.4219    1.2964    0.0000 H   0  0  0  0  0  0  0  0  0  0  0  0
   -3.1504    1.7089    0.0000 H   0  0  0  0  0  0  0  0  0  0  0  0
   -4.0770    1.1739    0.0000 H   0  0  0  0  0  0  0  0  0  0  0  0
   -4.7915    0.7614    0.0000 H   0  0  0  0  0  0  0  0  0  0  0  0
   -3.8649   -0.8436    0.0000 H   0  0  0  0  0  0  0  0  0  0  0  0
   -4.7916   -0.3086    0.0000 H   0  0  0  0  0  0  0  0  0  0  0  0
  1  2  1  0  0  0  0
  1 20  1  0  0  0  0
  1 21  1  0  0  0  0
  1 22  1  0  0  0  0
  2  3  1  0  0  0  0
  2  6  2  0  0  0  0
  3  4  2  0  0  0  0
  3 23  1  0  0  0  0
  4 10  1  0  0  0  0
  4 24  1  0  0  0  0
  5  6  1  0  0  0  0
  5 10  2  0  0  0  0
  5 11  1  0  0  0  0
  6 25  1  0  0  0  0
  7  8  1  0  0  0  0
  7 11  1  0  0  0  0
  7 14  1  0  0  0  0
  7 26  1  0  0  0  0
  8  9  1  0  0  0  0
  8 27  1  0  0  0  0
  8 28  1  0  0  0  0
  9 12  1  0  0  0  0
  9 29  1  0  0  0  0
  9 30  1  0  0  0  0
 11 31  1  0  0  0  0
 12 13  1  0  0  0  0
 12 15  1  0  0  0  0
 13 14  1  0  0  0  0
 13 32  1  0  0  0  0
 13 33  1  0  0  0  0
 14 34  1  0  0  0  0
 14 35  1  0  0  0  0
 15 16  2  0  0  0  0
 15 17  1  0  0  0  0
 17 18  1  0  0  0  0
 18 19  1  0  0  0  0
 18 36  1  0  0  0  0
 18 37  1  0  0  0  0
 19 38  1  0  0  0  0
 19 39  1  0  0  0  0
 19 40  1  0  0  0  0
M  END
>  <DRUGBANK_ID>
DB07388

>  <COMMON_NAME>
ETHYL 4-[(4-METHYLPYRIDIN-2-YL)AMINO]PIPERIDINE-1-CARBOXYLATE

$$$$
