
 OpenBabel10282417072D

 62 65  0  0  0  0  0  0  0  0999 V2000
    6.3235   -2.1241    0.0000 C   0  0  0  0  0  0  0  0  0  0  0  0
    6.3235   -2.9491    0.0000 C   0  0  0  0  0  0  0  0  0  0  0  0
    6.9910   -3.4340    0.0000 C   0  0  0  0  0  0  0  0  0  0  0  0
    6.7360   -4.2187    0.0000 C   0  0  0  0  0  0  0  0  0  0  0  0
    7.2210   -4.8861    0.0000 O   0  0  0  0  0  0  0  0  0  0  0  0
    5.9110   -4.2187    0.0000 N   0  0  0  0  0  0  0  0  0  0  0  0
    5.6561   -3.4340    0.0000 N   0  0  0  0  0  0  0  0  0  0  0  0
    4.8715   -3.1791    0.0000 C   0  0  0  0  0  0  0  0  0  0  0  0
    5.4261   -4.8861    0.0000 C   0  0  0  0  0  0  0  0  0  0  0  0
    5.7617   -5.6398    0.0000 C   0  0  0  0  0  0  0  0  0  0  0  0
    5.2767   -6.3072    0.0000 C   0  0  0  0  0  0  0  0  0  0  0  0
    4.4563   -6.2210    0.0000 C   0  0  0  0  0  0  0  0  0  0  0  0
    4.1207   -5.4673    0.0000 C   0  0  0  0  0  0  0  0  0  0  0  0
    4.6056   -4.7999    0.0000 C   0  0  0  0  0  0  0  0  0  0  0  0
    7.7756   -3.1791    0.0000 C   0  0  3  0  0  0  0  0  0  0  0  0
    7.9471   -2.3721    0.0000 N   0  0  0  0  0  0  0  0  0  0  0  0
    8.7317   -2.1172    0.0000 C   0  0  0  0  0  0  0  0  0  0  0  0
    8.9033   -1.3102    0.0000 C   0  0  0  0  0  0  0  0  0  0  0  0
    9.6879   -1.0553    0.0000 C   0  0  0  0  0  0  0  0  0  0  0  0
   10.3010   -1.6073    0.0000 C   0  0  0  0  0  0  0  0  0  0  0  0
   10.1295   -2.4143    0.0000 C   0  0  0  0  0  0  0  0  0  0  0  0
    9.3448   -2.6692    0.0000 C   0  0  0  0  0  0  0  0  0  0  0  0
   11.0856   -1.3524    0.0000 S   0  0  0  0  0  0  0  0  0  0  0  0
   11.3405   -2.1370    0.0000 O   0  0  0  0  0  0  0  0  0  0  0  0
   10.8307   -0.5677    0.0000 O   0  0  0  0  0  0  0  0  0  0  0  0
   11.8702   -1.0974    0.0000 N   0  0  0  0  0  0  0  0  0  0  0  0
   12.4833   -1.6495    0.0000 C   0  0  0  0  0  0  0  0  0  0  0  0
   13.2679   -1.3945    0.0000 C   0  0  0  0  0  0  0  0  0  0  0  0
   13.8810   -1.9465    0.0000 C   0  0  0  0  0  0  0  0  0  0  0  0
   13.7095   -2.7535    0.0000 C   0  0  0  0  0  0  0  0  0  0  0  0
   12.9249   -3.0085    0.0000 N   0  0  0  0  0  0  0  0  0  0  0  0
   12.3118   -2.4564    0.0000 N   0  0  0  0  0  0  0  0  0  0  0  0
   14.3226   -3.3056    0.0000 O   0  0  0  0  0  0  0  0  0  0  0  0
   15.1072   -3.0506    0.0000 C   0  0  0  0  0  0  0  0  0  0  0  0
    8.3887   -3.7311    0.0000 S   0  0  0  0  0  0  0  0  0  0  0  0
    9.0018   -4.2832    0.0000 O   0  0  0  0  0  0  0  0  0  0  0  0
    8.9407   -3.1180    0.0000 O   0  0  0  0  0  0  0  0  0  0  0  0
    7.8367   -4.3442    0.0000 O   0  0  0  0  0  0  0  0  0  0  0  0
    7.2501   -1.5891    0.0000 H   0  0  0  0  0  0  0  0  0  0  0  0
    5.3969   -1.5891    0.0000 H   0  0  0  0  0  0  0  0  0  0  0  0
    6.3235   -1.0541    0.0000 H   0  0  0  0  0  0  0  0  0  0  0  0
    4.6490   -2.1325    0.0000 H   0  0  0  0  0  0  0  0  0  0  0  0
    4.0764   -3.8951    0.0000 H   0  0  0  0  0  0  0  0  0  0  0  0
    3.8539   -2.8485    0.0000 H   0  0  0  0  0  0  0  0  0  0  0  0
    6.7880   -5.7477    0.0000 H   0  0  0  0  0  0  0  0  0  0  0  0
    5.6964   -7.2500    0.0000 H   0  0  0  0  0  0  0  0  0  0  0  0
    3.8497   -7.0559    0.0000 H   0  0  0  0  0  0  0  0  0  0  0  0
    3.0944   -5.3594    0.0000 H   0  0  0  0  0  0  0  0  0  0  0  0
    4.1858   -3.8571    0.0000 H   0  0  0  0  0  0  0  0  0  0  0  0
    6.9804   -2.4631    0.0000 H   0  0  0  0  0  0  0  0  0  0  0  0
    7.2155   -1.7133    0.0000 H   0  0  0  0  0  0  0  0  0  0  0  0
    8.1364   -0.6196    0.0000 H   0  0  0  0  0  0  0  0  0  0  0  0
    9.9025   -0.0459    0.0000 H   0  0  0  0  0  0  0  0  0  0  0  0
   10.8964   -3.1049    0.0000 H   0  0  0  0  0  0  0  0  0  0  0  0
    9.1302   -3.6786    0.0000 H   0  0  0  0  0  0  0  0  0  0  0  0
   12.0749   -0.1344    0.0000 H   0  0  0  0  0  0  0  0  0  0  0  0
   13.4824   -0.3850    0.0000 H   0  0  0  0  0  0  0  0  0  0  0  0
   14.8625   -1.6276    0.0000 H   0  0  0  0  0  0  0  0  0  0  0  0
   15.9024   -3.7665    0.0000 H   0  0  0  0  0  0  0  0  0  0  0  0
   15.3296   -2.0040    0.0000 H   0  0  0  0  0  0  0  0  0  0  0  0
   16.1248   -2.7199    0.0000 H   0  0  0  0  0  0  0  0  0  0  0  0
    6.8879   -4.1426    0.0000 H   0  0  0  0  0  0  0  0  0  0  0  0
  1  2  1  0  0  0  0
  1 39  1  0  0  0  0
  1 40  1  0  0  0  0
  1 41  1  0  0  0  0
  2  3  2  0  0  0  0
  2  7  1  0  0  0  0
  3  4  1  0  0  0  0
  3 15  1  0  0  0  0
  4  5  2  0  0  0  0
  4  6  1  0  0  0  0
  6  7  1  0  0  0  0
  6  9  1  0  0  0  0
  7  8  1  0  0  0  0
  8 42  1  0  0  0  0
  8 43  1  0  0  0  0
  8 44  1  0  0  0  0
  9 10  2  0  0  0  0
  9 14  1  0  0  0  0
 10 11  1  0  0  0  0
 10 45  1  0  0  0  0
 11 12  2  0  0  0  0
 11 46  1  0  0  0  0
 12 13  1  0  0  0  0
 12 47  1  0  0  0  0
 13 14  2  0  0  0  0
 13 48  1  0  0  0  0
 14 49  1  0  0  0  0
 15 16  1  0  0  0  0
 15 35  1  0  0  0  0
 15 50  1  0  0  0  0
 16 17  1  0  0  0  0
 16 51  1  0  0  0  0
 17 18  2  0  0  0  0
 17 22  1  0  0  0  0
 18 19  1  0  0  0  0
 18 52  1  0  0  0  0
 19 20  2  0  0  0  0
 19 53  1  0  0  0  0
 20 21  1  0  0  0  0
 20 23  1  0  0  0  0
 21 22  2  0  0  0  0
 21 54  1  0  0  0  0
 22 55  1  0  0  0  0
 23 24  2  0  0  0  0
 23 25  2  0  0  0  0
 23 26  1  0  0  0  0
 26 27  1  0  0  0  0
 26 56  1  0  0  0  0
 27 28  2  0  0  0  0
 27 32  1  0  0  0  0
 28 29  1  0  0  0  0
 28 57  1  0  0  0  0
 29 30  2  0  0  0  0
 29 58  1  0  0  0  0
 30 31  1  0  0  0  0
 30 33  1  0  0  0  0
 31 32  2  0  0  0  0
 33 34  1  0  0  0  0
 34 59  1  0  0  0  0
 34 60  1  0  0  0  0
 34 61  1  0  0  0  0
 35 36  2  0  0  0  0
 35 37  2  0  0  0  0
 35 38  1  0  0  0  0
 38 62  1  0  0  0  0
M  END
>  <DRUGBANK_ID>
DB13556

>  <COMMON_NAME>
Sulfamazone

>  <CAS_NUMBER>
65761-24-2

>  <UNII>
D7B8U8VA9J

>  <SYNONYMS>
Sulfamazone

$$$$
