
 OpenBabel10282417072D

 68 71  0  0  1  0  0  0  0  0999 V2000
    2.1434   -6.1875    0.0000 C   0  0  0  0  0  0  0  0  0  0  0  0
    2.8579   -5.7750    0.0000 C   0  0  0  0  0  0  0  0  0  0  0  0
    2.8579   -4.9500    0.0000 N   0  0  0  0  0  0  0  0  0  0  0  0
    3.5724   -4.5375    0.0000 C   0  0  0  0  0  0  0  0  0  0  0  0
    4.2868   -4.9500    0.0000 C   0  0  0  0  0  0  0  0  0  0  0  0
    4.2868   -5.7750    0.0000 C   0  0  0  0  0  0  0  0  0  0  0  0
    3.5724   -6.1875    0.0000 N   0  0  0  0  0  0  0  0  0  0  0  0
    5.0013   -6.1875    0.0000 N   0  0  0  0  0  0  0  0  0  0  0  0
    5.7158   -5.7750    0.0000 C   0  0  0  0  0  0  0  0  0  0  0  0
    6.4302   -6.1875    0.0000 C   0  0  0  0  0  0  0  0  0  0  0  0
    6.4302   -7.0125    0.0000 N   0  0  3  0  0  0  0  0  0  0  0  0
    7.1447   -7.4250    0.0000 C   0  0  0  0  0  0  0  0  0  0  0  0
    7.1447   -8.2500    0.0000 C   0  0  0  0  0  0  0  0  0  0  0  0
    6.4302   -8.6625    0.0000 O   0  0  0  0  0  0  0  0  0  0  0  0
    5.7158   -8.2500    0.0000 C   0  0  0  0  0  0  0  0  0  0  0  0
    5.7158   -7.4250    0.0000 C   0  0  2  0  0  0  0  0  0  0  0  0
    5.0013   -7.0125    0.0000 C   0  0  0  0  0  0  0  0  0  0  0  0
    5.0013   -4.5375    0.0000 F   0  0  0  0  0  0  0  0  0  0  0  0
    3.5724   -3.7125    0.0000 N   0  0  0  0  0  0  0  0  0  0  0  0
    4.2868   -3.3000    0.0000 N   0  0  0  0  0  0  0  0  0  0  0  0
    4.2868   -2.4750    0.0000 C   0  0  0  0  0  0  0  0  0  0  0  0
    3.5724   -2.0625    0.0000 O   0  0  0  0  0  0  0  0  0  0  0  0
    5.0013   -2.0625    0.0000 C   0  0  2  0  0  0  0  0  0  0  0  0
    5.0013   -1.2375    0.0000 C   0  0  0  0  0  0  0  0  0  0  0  0
    5.7158   -0.8250    0.0000 C   0  0  0  0  0  0  0  0  0  0  0  0
    5.8020   -0.0045    0.0000 C   0  0  0  0  0  0  0  0  0  0  0  0
    6.6090    0.1670    0.0000 C   0  0  0  0  0  0  0  0  0  0  0  0
    7.0215   -0.5475    0.0000 C   0  0  0  0  0  0  0  0  0  0  0  0
    6.4694   -1.1606    0.0000 C   0  0  0  0  0  0  0  0  0  0  0  0
    5.7158   -2.4750    0.0000 C   0  0  0  0  0  0  0  0  0  0  0  0
    5.7158   -3.3000    0.0000 N   0  0  0  0  0  0  0  0  0  0  0  0
    6.4302   -3.7125    0.0000 C   0  0  0  0  0  0  0  0  0  0  0  0
    6.4302   -4.5375    0.0000 O   0  0  0  0  0  0  0  0  0  0  0  0
    5.0013   -3.7125    0.0000 O   0  0  0  0  0  0  0  0  0  0  0  0
    1.2168   -5.6525    0.0000 H   0  0  0  0  0  0  0  0  0  0  0  0
    2.1434   -7.2575    0.0000 H   0  0  0  0  0  0  0  0  0  0  0  0
    1.2167   -6.7225    0.0000 H   0  0  0  0  0  0  0  0  0  0  0  0
    5.7158   -4.7050    0.0000 H   0  0  0  0  0  0  0  0  0  0  0  0
    6.6425   -5.2400    0.0000 H   0  0  0  0  0  0  0  0  0  0  0  0
    7.3569   -5.6525    0.0000 H   0  0  0  0  0  0  0  0  0  0  0  0
    7.3568   -6.7225    0.0000 H   0  0  0  0  0  0  0  0  0  0  0  0
    8.0713   -6.8900    0.0000 H   0  0  0  0  0  0  0  0  0  0  0  0
    8.0713   -7.9600    0.0000 H   0  0  0  0  0  0  0  0  0  0  0  0
    8.0713   -8.7850    0.0000 H   0  0  0  0  0  0  0  0  0  0  0  0
    7.1447   -9.3200    0.0000 H   0  0  0  0  0  0  0  0  0  0  0  0
    4.7891   -8.7850    0.0000 H   0  0  0  0  0  0  0  0  0  0  0  0
    4.7892   -7.7150    0.0000 H   0  0  0  0  0  0  0  0  0  0  0  0
    6.6425   -7.9600    0.0000 H   0  0  0  0  0  0  0  0  0  0  0  0
    4.0747   -7.5475    0.0000 H   0  0  0  0  0  0  0  0  0  0  0  0
    4.0747   -6.4775    0.0000 H   0  0  0  0  0  0  0  0  0  0  0  0
    2.7198   -3.2203    0.0000 H   0  0  0  0  0  0  0  0  0  0  0  0
    5.1394   -3.7922    0.0000 H   0  0  0  0  0  0  0  0  0  0  0  0
    4.0747   -1.5275    0.0000 H   0  0  0  0  0  0  0  0  0  0  0  0
    4.0747   -0.7025    0.0000 H   0  0  0  0  0  0  0  0  0  0  0  0
    5.0013   -0.1675    0.0000 H   0  0  0  0  0  0  0  0  0  0  0  0
    6.6425   -0.2900    0.0000 H   0  0  0  0  0  0  0  0  0  0  0  0
    5.0068    0.7115    0.0000 H   0  0  0  0  0  0  0  0  0  0  0  0
    6.0790    1.0290    0.0000 H   0  0  0  0  0  0  0  0  0  0  0  0
    7.0442    1.1445    0.0000 H   0  0  0  0  0  0  0  0  0  0  0  0
    7.6775    0.2230    0.0000 H   0  0  0  0  0  0  0  0  0  0  0  0
    8.0856   -0.6594    0.0000 H   0  0  0  0  0  0  0  0  0  0  0  0
    7.4049   -1.5464    0.0000 H   0  0  0  0  0  0  0  0  0  0  0  0
    6.6918   -2.2072    0.0000 H   0  0  0  0  0  0  0  0  0  0  0  0
    5.6378   -1.8339    0.0000 H   0  0  0  0  0  0  0  0  0  0  0  0
    6.6424   -1.9400    0.0000 H   0  0  0  0  0  0  0  0  0  0  0  0
    6.6424   -3.0100    0.0000 H   0  0  0  0  0  0  0  0  0  0  0  0
    7.3239   -3.1965    0.0000 H   0  0  0  0  0  0  0  0  0  0  0  0
    4.1613   -3.2275    0.0000 H   0  0  0  0  0  0  0  0  0  0  0  0
  1  2  1  0  0  0  0
  1 35  1  0  0  0  0
  1 36  1  0  0  0  0
  1 37  1  0  0  0  0
  2  3  2  0  0  0  0
  2  7  1  0  0  0  0
  3  4  1  0  0  0  0
  4  5  2  0  0  0  0
  4 19  1  0  0  0  0
  5  6  1  0  0  0  0
  5 18  1  0  0  0  0
  6  7  2  0  0  0  0
  6  8  1  0  0  0  0
  8  9  1  0  0  0  0
  8 17  1  0  0  0  0
  9 10  1  0  0  0  0
  9 38  1  0  0  0  0
  9 39  1  0  0  0  0
 10 11  1  0  0  0  0
 10 40  1  0  0  0  0
 10 41  1  0  0  0  0
 11 12  1  0  0  0  0
 12 13  1  0  0  0  0
 12 42  1  0  0  0  0
 12 43  1  0  0  0  0
 13 14  1  0  0  0  0
 13 44  1  0  0  0  0
 13 45  1  0  0  0  0
 14 15  1  0  0  0  0
 15 16  1  0  0  0  0
 15 46  1  0  0  0  0
 15 47  1  0  0  0  0
 16 11  1  0  0  0  0
 16 17  1  0  0  0  0
 16 48  1  1  0  0  0
 17 49  1  0  0  0  0
 17 50  1  0  0  0  0
 19 20  1  0  0  0  0
 19 51  1  0  0  0  0
 20 21  1  0  0  0  0
 20 52  1  0  0  0  0
 21 22  2  0  0  0  0
 23 21  1  0  0  0  0
 23 24  1  0  0  0  0
 23 30  1  0  0  0  0
 23 53  1  1  0  0  0
 24 25  1  0  0  0  0
 24 54  1  0  0  0  0
 24 55  1  0  0  0  0
 25 26  1  0  0  0  0
 25 29  1  0  0  0  0
 25 56  1  0  0  0  0
 26 27  1  0  0  0  0
 26 57  1  0  0  0  0
 26 58  1  0  0  0  0
 27 28  1  0  0  0  0
 27 59  1  0  0  0  0
 27 60  1  0  0  0  0
 28 29  1  0  0  0  0
 28 61  1  0  0  0  0
 28 62  1  0  0  0  0
 29 63  1  0  0  0  0
 29 64  1  0  0  0  0
 30 31  1  0  0  0  0
 30 65  1  0  0  0  0
 30 66  1  0  0  0  0
 31 32  1  0  0  0  0
 31 34  1  0  0  0  0
 32 33  2  0  0  0  0
 32 67  1  0  0  0  0
 34 68  1  0  0  0  0
M  END
>  <DRUGBANK_ID>
DB11912

>  <COMMON_NAME>
Lanopepden

>  <CAS_NUMBER>
1152107-25-9

>  <UNII>
12M6KFD07E

>  <SYNONYMS>
Lanopepden

$$$$
