
 OpenBabel10282417072D

 50 53  0  0  0  0  0  0  0  0999 V2000
    6.2102    4.4104    0.0000 C   0  0  0  0  0  0  0  0  0  0  0  0
    6.2102    3.5854    0.0000 O   0  0  0  0  0  0  0  0  0  0  0  0
    5.4957    3.1729    0.0000 C   0  0  0  0  0  0  0  0  0  0  0  0
    5.4957    2.3479    0.0000 C   0  0  0  0  0  0  0  0  0  0  0  0
    6.2102    1.9354    0.0000 O   0  0  0  0  0  0  0  0  0  0  0  0
    6.9246    2.3479    0.0000 C   0  0  0  0  0  0  0  0  0  0  0  0
    7.6391    1.9354    0.0000 C   0  0  0  0  0  0  0  0  0  0  0  0
    8.3536    2.3479    0.0000 C   0  0  0  0  0  0  0  0  0  0  0  0
    8.3536    3.1729    0.0000 O   0  0  0  0  0  0  0  0  0  0  0  0
    9.0681    3.5854    0.0000 C   0  0  0  0  0  0  0  0  0  0  0  0
    9.0681    1.9354    0.0000 C   0  0  0  0  0  0  0  0  0  0  0  0
    9.0681    1.1104    0.0000 C   0  0  0  0  0  0  0  0  0  0  0  0
    8.3536    0.6979    0.0000 C   0  0  0  0  0  0  0  0  0  0  0  0
    8.3536   -0.1271    0.0000 F   0  0  0  0  0  0  0  0  0  0  0  0
    7.6391    1.1104    0.0000 C   0  0  0  0  0  0  0  0  0  0  0  0
    6.9246    0.6979    0.0000 F   0  0  0  0  0  0  0  0  0  0  0  0
    4.7812    1.9354    0.0000 C   0  0  0  0  0  0  0  0  0  0  0  0
    4.0668    2.3479    0.0000 C   0  0  0  0  0  0  0  0  0  0  0  0
    3.3523    1.9354    0.0000 N   0  0  0  0  0  0  0  0  0  0  0  0
    3.3523    1.1104    0.0000 C   0  0  0  0  0  0  0  0  0  0  0  0
    4.0668    0.6979    0.0000 O   0  0  0  0  0  0  0  0  0  0  0  0
    2.6378    0.6979    0.0000 N   0  0  0  0  0  0  0  0  0  0  0  0
    1.9233    1.1104    0.0000 C   0  0  0  0  0  0  0  0  0  0  0  0
    1.1387    0.8555    0.0000 C   0  0  0  0  0  0  0  0  0  0  0  0
    0.6538    1.5229    0.0000 S   0  0  0  0  0  0  0  0  0  0  0  0
    1.1387    2.1904    0.0000 C   0  0  0  0  0  0  0  0  0  0  0  0
    0.8838    2.9750    0.0000 C   0  0  0  0  0  0  0  0  0  0  0  0
    0.0768    3.1465    0.0000 O   0  0  0  0  0  0  0  0  0  0  0  0
    1.4358    3.5881    0.0000 O   0  0  0  0  0  0  0  0  0  0  0  0
    1.9233    1.9354    0.0000 C   0  0  0  0  0  0  0  0  0  0  0  0
    2.6378    2.3479    0.0000 C   0  0  0  0  0  0  0  0  0  0  0  0
    2.6378    3.1729    0.0000 O   0  0  0  0  0  0  0  0  0  0  0  0
    4.0668    3.1729    0.0000 C   0  0  0  0  0  0  0  0  0  0  0  0
    3.3523    3.5854    0.0000 F   0  0  0  0  0  0  0  0  0  0  0  0
    4.7812    3.5854    0.0000 C   0  0  0  0  0  0  0  0  0  0  0  0
    7.1368    4.9454    0.0000 H   0  0  0  0  0  0  0  0  0  0  0  0
    5.2836    4.9454    0.0000 H   0  0  0  0  0  0  0  0  0  0  0  0
    6.2102    5.4804    0.0000 H   0  0  0  0  0  0  0  0  0  0  0  0
    6.9246    3.4179    0.0000 H   0  0  0  0  0  0  0  0  0  0  0  0
    7.8512    2.8829    0.0000 H   0  0  0  0  0  0  0  0  0  0  0  0
    9.9947    3.0504    0.0000 H   0  0  0  0  0  0  0  0  0  0  0  0
    9.0681    4.6554    0.0000 H   0  0  0  0  0  0  0  0  0  0  0  0
    9.9948    4.1204    0.0000 H   0  0  0  0  0  0  0  0  0  0  0  0
    9.9618    2.4514    0.0000 H   0  0  0  0  0  0  0  0  0  0  0  0
    9.9618    0.5944    0.0000 H   0  0  0  0  0  0  0  0  0  0  0  0
    4.7812    0.9034    0.0000 H   0  0  0  0  0  0  0  0  0  0  0  0
    2.6378   -0.2866    0.0000 H   0  0  0  0  0  0  0  0  0  0  0  0
    0.8198   -0.1260    0.0000 H   0  0  0  0  0  0  0  0  0  0  0  0
   -0.2128    4.0376    0.0000 H   0  0  0  0  0  0  0  0  0  0  0  0
    4.7812    4.6174    0.0000 H   0  0  0  0  0  0  0  0  0  0  0  0
  1  2  1  0  0  0  0
  1 36  1  0  0  0  0
  1 37  1  0  0  0  0
  1 38  1  0  0  0  0
  2  3  1  0  0  0  0
  3  4  2  0  0  0  0
  3 35  1  0  0  0  0
  4  5  1  0  0  0  0
  4 17  1  0  0  0  0
  5  6  1  0  0  0  0
  6  7  1  0  0  0  0
  6 39  1  0  0  0  0
  6 40  1  0  0  0  0
  7  8  2  0  0  0  0
  7 15  1  0  0  0  0
  8  9  1  0  0  0  0
  8 11  1  0  0  0  0
  9 10  1  0  0  0  0
 10 41  1  0  0  0  0
 10 42  1  0  0  0  0
 10 43  1  0  0  0  0
 11 12  2  0  0  0  0
 11 44  1  0  0  0  0
 12 13  1  0  0  0  0
 12 45  1  0  0  0  0
 13 14  1  0  0  0  0
 13 15  2  0  0  0  0
 15 16  1  0  0  0  0
 17 18  2  0  0  0  0
 17 46  1  0  0  0  0
 18 19  1  0  0  0  0
 18 33  1  0  0  0  0
 19 20  1  0  0  0  0
 19 31  1  0  0  0  0
 20 21  2  0  0  0  0
 20 22  1  0  0  0  0
 22 23  1  0  0  0  0
 22 47  1  0  0  0  0
 23 24  2  0  0  0  0
 23 30  1  0  0  0  0
 24 25  1  0  0  0  0
 24 48  1  0  0  0  0
 25 26  1  0  0  0  0
 26 27  1  0  0  0  0
 26 30  2  0  0  0  0
 27 28  1  0  0  0  0
 27 29  2  0  0  0  0
 28 49  1  0  0  0  0
 30 31  1  0  0  0  0
 31 32  2  0  0  0  0
 33 34  1  0  0  0  0
 33 35  2  0  0  0  0
 35 50  1  0  0  0  0
M  END
>  <DRUGBANK_ID>
DB17083

>  <COMMON_NAME>
Linzagolix

>  <CAS_NUMBER>
935283-04-8

>  <UNII>
7CDW97HUEX

>  <SYNONYMS>
3-(5-((2,3-difluoro-6-methoxyphenyl)methoxy)-2-fluoro-4-methoxyphenyl)-2,4-dioxo-1,2,3,4-tetrahydrothieno(3,4-d)pyrimidine-5-carboxylic acid; Linzagolix; Thieno(3,4-d)pyrimidine-5-carboxylic acid, 3-(5-((2,3-difluoro-6-methoxyphenyl)methoxy)-2-fluoro-4-methoxyphenyl)-1,2,3,4-tetrahydro-2,4-dioxo-

$$$$
