7X1
 OpenBabel10282417072D

 60 64  0  0  0  0  0  0  0  0999 V2000
    5.2983    6.2279    0.0000 C   0  0  0  0  0  0  0  0  0  0  0  0
    6.0128    6.6404    0.0000 O   0  0  0  0  0  0  0  0  0  0  0  0
    6.7273    6.2279    0.0000 C   0  0  0  0  0  0  0  0  0  0  0  0
    7.4417    6.6404    0.0000 C   0  0  0  0  0  0  0  0  0  0  0  0
    8.1562    6.2279    0.0000 C   0  0  0  0  0  0  0  0  0  0  0  0
    8.8707    6.6404    0.0000 C   0  0  0  0  0  0  0  0  0  0  0  0
    8.8707    7.4654    0.0000 N   0  0  0  0  0  0  0  0  0  0  0  0
    9.5851    7.8779    0.0000 C   0  0  0  0  0  0  0  0  0  0  0  0
    9.5851    8.7029    0.0000 C   0  0  0  0  0  0  0  0  0  0  0  0
    8.9720    9.2549    0.0000 O   0  0  0  0  0  0  0  0  0  0  0  0
    9.3076   10.0086    0.0000 C   0  0  0  0  0  0  0  0  0  0  0  0
   10.1281    9.9223    0.0000 O   0  0  0  0  0  0  0  0  0  0  0  0
   10.2996    9.1154    0.0000 C   0  0  0  0  0  0  0  0  0  0  0  0
   11.0141    8.7029    0.0000 C   0  0  0  0  0  0  0  0  0  0  0  0
   11.0141    7.8779    0.0000 C   0  0  0  0  0  0  0  0  0  0  0  0
   10.2996    7.4654    0.0000 C   0  0  0  0  0  0  0  0  0  0  0  0
   10.2996    6.6404    0.0000 Cl  0  0  0  0  0  0  0  0  0  0  0  0
    9.5851    6.2279    0.0000 N   0  0  0  0  0  0  0  0  0  0  0  0
    9.5851    5.4029    0.0000 C   0  0  0  0  0  0  0  0  0  0  0  0
    8.8707    4.9904    0.0000 N   0  0  0  0  0  0  0  0  0  0  0  0
    8.1562    5.4029    0.0000 C   0  0  0  0  0  0  0  0  0  0  0  0
    7.4417    4.9904    0.0000 C   0  0  0  0  0  0  0  0  0  0  0  0
    6.7273    5.4029    0.0000 C   0  0  0  0  0  0  0  0  0  0  0  0
    6.0128    4.9904    0.0000 O   0  0  0  0  0  0  0  0  0  0  0  0
    6.0128    4.1654    0.0000 C   0  0  0  0  0  0  0  0  0  0  0  0
    5.2983    3.7529    0.0000 C   0  0  0  0  0  0  0  0  0  0  0  0
    5.2983    2.9279    0.0000 C   0  0  0  0  0  0  0  0  0  0  0  0
    4.5838    2.5154    0.0000 N   0  0  0  0  0  0  0  0  0  0  0  0
    4.5838    1.6904    0.0000 C   0  0  0  0  0  0  0  0  0  0  0  0
    3.8694    1.2779    0.0000 C   0  0  0  0  0  0  0  0  0  0  0  0
    3.1549    1.6904    0.0000 C   0  0  0  0  0  0  0  0  0  0  0  0
    3.1549    2.5154    0.0000 C   0  0  0  0  0  0  0  0  0  0  0  0
    3.8694    2.9279    0.0000 C   0  0  0  0  0  0  0  0  0  0  0  0
    4.3717    6.7629    0.0000 H   0  0  0  0  0  0  0  0  0  0  0  0
    5.2983    5.1579    0.0000 H   0  0  0  0  0  0  0  0  0  0  0  0
    4.3716    5.6929    0.0000 H   0  0  0  0  0  0  0  0  0  0  0  0
    7.4417    7.6724    0.0000 H   0  0  0  0  0  0  0  0  0  0  0  0
    8.0181    7.9576    0.0000 H   0  0  0  0  0  0  0  0  0  0  0  0
    8.7727   10.9353    0.0000 H   0  0  0  0  0  0  0  0  0  0  0  0
    9.8904   10.9059    0.0000 H   0  0  0  0  0  0  0  0  0  0  0  0
   11.9078    9.2189    0.0000 H   0  0  0  0  0  0  0  0  0  0  0  0
   11.9078    7.3619    0.0000 H   0  0  0  0  0  0  0  0  0  0  0  0
   10.4788    4.8869    0.0000 H   0  0  0  0  0  0  0  0  0  0  0  0
    7.4417    3.9584    0.0000 H   0  0  0  0  0  0  0  0  0  0  0  0
    6.9394    3.6304    0.0000 H   0  0  0  0  0  0  0  0  0  0  0  0
    6.0128    3.0954    0.0000 H   0  0  0  0  0  0  0  0  0  0  0  0
    4.3717    4.2879    0.0000 H   0  0  0  0  0  0  0  0  0  0  0  0
    4.3717    3.2179    0.0000 H   0  0  0  0  0  0  0  0  0  0  0  0
    6.2249    2.3929    0.0000 H   0  0  0  0  0  0  0  0  0  0  0  0
    5.2983    1.8579    0.0000 H   0  0  0  0  0  0  0  0  0  0  0  0
    5.5105    1.1554    0.0000 H   0  0  0  0  0  0  0  0  0  0  0  0
    4.5838    0.6204    0.0000 H   0  0  0  0  0  0  0  0  0  0  0  0
    3.8694    0.2079    0.0000 H   0  0  0  0  0  0  0  0  0  0  0  0
    2.9428    0.7429    0.0000 H   0  0  0  0  0  0  0  0  0  0  0  0
    2.2283    1.1554    0.0000 H   0  0  0  0  0  0  0  0  0  0  0  0
    2.2283    2.2254    0.0000 H   0  0  0  0  0  0  0  0  0  0  0  0
    2.2283    3.0504    0.0000 H   0  0  0  0  0  0  0  0  0  0  0  0
    3.1549    3.5854    0.0000 H   0  0  0  0  0  0  0  0  0  0  0  0
    3.8694    3.9979    0.0000 H   0  0  0  0  0  0  0  0  0  0  0  0
    2.9428    3.4629    0.0000 H   0  0  0  0  0  0  0  0  0  0  0  0
  1  2  1  0  0  0  0
  1 34  1  0  0  0  0
  1 35  1  0  0  0  0
  1 36  1  0  0  0  0
  2  3  1  0  0  0  0
  3  4  1  0  0  0  0
  3 23  2  0  0  0  0
  4  5  2  0  0  0  0
  4 37  1  0  0  0  0
  5  6  1  0  0  0  0
  5 21  1  0  0  0  0
  6  7  1  0  0  0  0
  6 18  2  0  0  0  0
  7  8  1  0  0  0  0
  7 38  1  0  0  0  0
  8  9  1  0  0  0  0
  8 16  2  0  0  0  0
  9 10  1  0  0  0  0
  9 13  2  0  0  0  0
 10 11  1  0  0  0  0
 11 12  1  0  0  0  0
 11 39  1  0  0  0  0
 11 40  1  0  0  0  0
 12 13  1  0  0  0  0
 13 14  1  0  0  0  0
 14 15  2  0  0  0  0
 14 41  1  0  0  0  0
 15 16  1  0  0  0  0
 15 42  1  0  0  0  0
 16 17  1  0  0  0  0
 18 19  1  0  0  0  0
 19 20  2  0  0  0  0
 19 43  1  0  0  0  0
 20 21  1  0  0  0  0
 21 22  2  0  0  0  0
 22 23  1  0  0  0  0
 22 44  1  0  0  0  0
 23 24  1  0  0  0  0
 24 25  1  0  0  0  0
 25 26  1  0  0  0  0
 25 45  1  0  0  0  0
 25 46  1  0  0  0  0
 26 27  1  0  0  0  0
 26 47  1  0  0  0  0
 26 48  1  0  0  0  0
 27 28  1  0  0  0  0
 27 49  1  0  0  0  0
 27 50  1  0  0  0  0
 28 29  1  0  0  0  0
 28 33  1  0  0  0  0
 29 30  1  0  0  0  0
 29 51  1  0  0  0  0
 29 52  1  0  0  0  0
 30 31  1  0  0  0  0
 30 53  1  0  0  0  0
 30 54  1  0  0  0  0
 31 32  1  0  0  0  0
 31 55  1  0  0  0  0
 31 56  1  0  0  0  0
 32 33  1  0  0  0  0
 32 57  1  0  0  0  0
 32 58  1  0  0  0  0
 33 59  1  0  0  0  0
 33 60  1  0  0  0  0
M  END
>  <DRUGBANK_ID>
DB07249

>  <COMMON_NAME>
N-(5-chloro-1,3-benzodioxol-4-yl)-6-methoxy-7-(3-piperidin-1-ylpropoxy)quinazolin-4-amine

$$$$
