D25
 OpenBabel10282417072D

 25 27  0  0  0  0  0  0  0  0999 V2000
  -18.9023    6.7752    0.0000 C   0  0  0  0  0  0  0  0  0  0  0  0
  -18.2349    6.2903    0.0000 C   0  0  0  0  0  0  0  0  0  0  0  0
  -17.4502    6.5452    0.0000 C   0  0  0  0  0  0  0  0  0  0  0  0
  -17.1953    7.3299    0.0000 C   0  0  0  0  0  0  0  0  0  0  0  0
  -19.5697    6.2903    0.0000 C   0  0  0  0  0  0  0  0  0  0  0  0
  -16.7828    6.0603    0.0000 O   0  0  0  0  0  0  0  0  0  0  0  0
  -16.1154    6.5452    0.0000 N   0  0  0  0  0  0  0  0  0  0  0  0
  -16.3703    7.3299    0.0000 C   0  0  0  0  0  0  0  0  0  0  0  0
  -15.8854    7.9973    0.0000 C   0  0  0  0  0  0  0  0  0  0  0  0
  -16.2209    8.7510    0.0000 C   0  0  0  0  0  0  0  0  0  0  0  0
  -15.7360    9.4184    0.0000 C   0  0  0  0  0  0  0  0  0  0  0  0
  -14.9155    9.3322    0.0000 C   0  0  0  0  0  0  0  0  0  0  0  0
  -14.5800    8.5785    0.0000 C   0  0  0  0  0  0  0  0  0  0  0  0
  -15.0649    7.9111    0.0000 C   0  0  0  0  0  0  0  0  0  0  0  0
  -18.4898    5.5057    0.0000 N   0  0  0  0  0  0  0  0  0  0  0  0
  -19.3148    5.5057    0.0000 N   0  0  0  0  0  0  0  0  0  0  0  0
  -18.9023    7.8072    0.0000 H   0  0  0  0  0  0  0  0  0  0  0  0
  -17.8019    8.1648    0.0000 H   0  0  0  0  0  0  0  0  0  0  0  0
  -20.5512    6.6092    0.0000 H   0  0  0  0  0  0  0  0  0  0  0  0
  -17.2472    8.8589    0.0000 H   0  0  0  0  0  0  0  0  0  0  0  0
  -16.1558   10.3612    0.0000 H   0  0  0  0  0  0  0  0  0  0  0  0
  -14.3089   10.1671    0.0000 H   0  0  0  0  0  0  0  0  0  0  0  0
  -13.5537    8.4706    0.0000 H   0  0  0  0  0  0  0  0  0  0  0  0
  -14.6451    6.9683    0.0000 H   0  0  0  0  0  0  0  0  0  0  0  0
  -19.8935    4.7092    0.0000 H   0  0  0  0  0  0  0  0  0  0  0  0
  1  2  1  0  0  0  0
  1  5  2  0  0  0  0
  1 17  1  0  0  0  0
  2  3  1  0  0  0  0
  2 15  2  0  0  0  0
  3  4  2  0  0  0  0
  3  6  1  0  0  0  0
  4  8  1  0  0  0  0
  4 18  1  0  0  0  0
  5 16  1  0  0  0  0
  5 19  1  0  0  0  0
  6  7  1  0  0  0  0
  7  8  2  0  0  0  0
  8  9  1  0  0  0  0
  9 10  1  0  0  0  0
  9 14  2  0  0  0  0
 10 11  2  0  0  0  0
 10 20  1  0  0  0  0
 11 12  1  0  0  0  0
 11 21  1  0  0  0  0
 12 13  2  0  0  0  0
 12 22  1  0  0  0  0
 13 14  1  0  0  0  0
 13 23  1  0  0  0  0
 14 24  1  0  0  0  0
 15 16  1  0  0  0  0
 16 25  1  0  0  0  0
M  END
>  <DRUGBANK_ID>
DB07613

>  <COMMON_NAME>
3-phenyl-5-(1H-pyrazol-3-yl)isoxazole

$$$$
