
 OpenBabel10282417072D

 63 66  0  0  0  0  0  0  0  0999 V2000
   -0.0145    0.4270    0.0000 C   0  0  2  0  0  0  0  0  0  0  0  0
    0.7328    0.6843    0.0000 C   0  0  2  0  0  0  0  0  0  0  0  0
   -2.1790   -0.7812    0.0000 C   0  0  2  0  0  0  0  0  0  0  0  0
   -0.7134   -0.7861    0.0000 C   0  0  1  0  0  0  0  0  0  0  0  0
   -0.0145   -0.3736    0.0000 C   0  0  2  0  0  0  0  0  0  0  0  0
   -1.4364   -0.3930    0.0000 C   0  0  2  0  0  0  0  0  0  0  0  0
   -2.1790   -1.6111    0.0000 C   0  0  0  0  0  0  0  0  0  0  0  0
   -0.7134    0.8444    0.0000 C   0  0  0  0  0  0  0  0  0  0  0  0
   -1.4364    0.4270    0.0000 C   0  0  2  0  0  0  0  0  0  0  0  0
   -2.8923   -0.3494    0.0000 C   0  0  0  0  0  0  0  0  0  0  0  0
    0.7328    1.6160    0.0000 C   0  0  0  0  0  0  0  0  0  0  0  0
   -2.9069   -2.0091    0.0000 C   0  0  0  0  0  0  0  0  0  0  0  0
    1.4996    1.0337    0.0000 O   0  0  0  0  0  0  0  0  0  0  0  0
    2.2033    0.6114    0.0000 C   0  0  0  0  0  0  0  0  0  0  0  0
    1.1938    0.0145    0.0000 C   0  0  0  0  0  0  0  0  0  0  0  0
    0.7620   -0.6114    0.0000 C   0  0  0  0  0  0  0  0  0  0  0  0
   -0.7134   -1.6160    0.0000 C   0  0  0  0  0  0  0  0  0  0  0  0
   -3.6348   -0.7812    0.0000 C   0  0  0  0  0  0  0  0  0  0  0  0
   -3.6348   -1.5674    0.0000 C   0  0  0  0  0  0  0  0  0  0  0  0
   -1.4510   -2.0382    0.0000 C   0  0  0  0  0  0  0  0  0  0  0  0
    1.4462    2.0382    0.0000 O   0  0  0  0  0  0  0  0  0  0  0  0
    2.2033   -0.2038    0.0000 O   0  0  0  0  0  0  0  0  0  0  0  0
    0.0339    2.0382    0.0000 O   0  0  0  0  0  0  0  0  0  0  0  0
   -4.3531   -1.9508    0.0000 O   0  0  0  0  0  0  0  0  0  0  0  0
   -0.0145    1.2520    0.0000 C   0  0  0  0  0  0  0  0  0  0  0  0
    2.1596    1.6160    0.0000 C   0  0  0  0  0  0  0  0  0  0  0  0
   -2.1547    0.8444    0.0000 O   0  0  0  0  0  0  0  0  0  0  0  0
    2.9021    1.0337    0.0000 O   0  0  0  0  0  0  0  0  0  0  0  0
   -2.1790    0.0049    0.0000 C   0  0  0  0  0  0  0  0  0  0  0  0
    2.8293    2.0382    0.0000 Cl  0  0  0  0  0  0  0  0  0  0  0  0
    3.6543    0.6114    0.0000 C   0  0  0  0  0  0  0  0  0  0  0  0
    4.3531    1.0337    0.0000 C   0  0  0  0  0  0  0  0  0  0  0  0
   -0.0145   -1.2763    0.0000 H   0  0  0  0  0  0  0  0  0  0  0  0
   -0.7134    0.1018    0.0000 H   0  0  0  0  0  0  0  0  0  0  0  0
   -1.4219   -1.2180    0.0000 H   0  0  0  0  0  0  0  0  0  0  0  0
   -0.7055    1.9144    0.0000 H   0  0  0  0  0  0  0  0  0  0  0  0
   -1.6381    1.3828    0.0000 H   0  0  0  0  0  0  0  0  0  0  0  0
   -2.3638   -0.1067    0.0000 H   0  0  0  0  0  0  0  0  0  0  0  0
   -2.8832    0.6826    0.0000 H   0  0  0  0  0  0  0  0  0  0  0  0
   -2.9301   -3.0408    0.0000 H   0  0  0  0  0  0  0  0  0  0  0  0
    2.2638    0.0139    0.0000 H   0  0  0  0  0  0  0  0  0  0  0  0
    1.6909   -0.9330    0.0000 H   0  0  0  0  0  0  0  0  0  0  0  0
    1.1136   -1.6220    0.0000 H   0  0  0  0  0  0  0  0  0  0  0  0
    1.8223   -0.7549    0.0000 H   0  0  0  0  0  0  0  0  0  0  0  0
    0.2122   -2.1527    0.0000 H   0  0  0  0  0  0  0  0  0  0  0  0
   -0.7164   -2.6860    0.0000 H   0  0  0  0  0  0  0  0  0  0  0  0
   -4.5293   -0.2666    0.0000 H   0  0  0  0  0  0  0  0  0  0  0  0
   -1.4567   -3.1082    0.0000 H   0  0  0  0  0  0  0  0  0  0  0  0
   -2.3809   -2.5675    0.0000 H   0  0  0  0  0  0  0  0  0  0  0  0
    0.9121    1.7870    0.0000 H   0  0  0  0  0  0  0  0  0  0  0  0
   -0.9411    1.7870    0.0000 H   0  0  0  0  0  0  0  0  0  0  0  0
   -0.0145    2.3220    0.0000 H   0  0  0  0  0  0  0  0  0  0  0  0
    2.1746    0.5461    0.0000 H   0  0  0  0  0  0  0  0  0  0  0  0
    3.1001    1.1057    0.0000 H   0  0  0  0  0  0  0  0  0  0  0  0
   -2.1520    1.8144    0.0000 H   0  0  0  0  0  0  0  0  0  0  0  0
   -1.2524    0.5399    0.0000 H   0  0  0  0  0  0  0  0  0  0  0  0
   -3.1056    0.5399    0.0000 H   0  0  0  0  0  0  0  0  0  0  0  0
   -2.1790    1.0749    0.0000 H   0  0  0  0  0  0  0  0  0  0  0  0
    3.6714   -0.4585    0.0000 H   0  0  0  0  0  0  0  0  0  0  0  0
    4.5904    0.0932    0.0000 H   0  0  0  0  0  0  0  0  0  0  0  0
    5.2903    0.5173    0.0000 H   0  0  0  0  0  0  0  0  0  0  0  0
    4.3317    2.1035    0.0000 H   0  0  0  0  0  0  0  0  0  0  0  0
    5.2689    1.5871    0.0000 H   0  0  0  0  0  0  0  0  0  0  0  0
  1 25  1  1  0  0  0
  2  1  1  0  0  0  0
  2 11  1  1  0  0  0
  2 13  1  0  0  0  0
  3  6  1  0  0  0  0
  3 29  1  1  0  0  0
  4  5  1  0  0  0  0
  4 34  1  1  0  0  0
  5  1  1  0  0  0  0
  5 33  1  6  0  0  0
  6  9  1  0  0  0  0
  6 35  1  6  0  0  0
  6  4  1  0  0  0  0
  7  3  1  0  0  0  0
  7 20  1  0  0  0  0
  8  1  1  0  0  0  0
  8 36  1  0  0  0  0
  8 37  1  0  0  0  0
  9  8  1  0  0  0  0
  9 27  1  0  0  0  0
  9 38  1  6  0  0  0
 10  3  1  0  0  0  0
 10 39  1  0  0  0  0
 12  7  2  0  0  0  0
 12 40  1  0  0  0  0
 14 13  1  0  0  0  0
 15  2  1  0  0  0  0
 15 41  1  0  0  0  0
 15 42  1  0  0  0  0
 16  5  1  0  0  0  0
 16 15  1  0  0  0  0
 16 43  1  0  0  0  0
 16 44  1  0  0  0  0
 17  4  1  0  0  0  0
 17 45  1  0  0  0  0
 17 46  1  0  0  0  0
 18 10  2  0  0  0  0
 18 47  1  0  0  0  0
 19 18  1  0  0  0  0
 19 12  1  0  0  0  0
 20 17  1  0  0  0  0
 20 48  1  0  0  0  0
 20 49  1  0  0  0  0
 21 11  1  0  0  0  0
 22 14  2  0  0  0  0
 23 11  2  0  0  0  0
 24 19  2  0  0  0  0
 25 50  1  0  0  0  0
 25 51  1  0  0  0  0
 25 52  1  0  0  0  0
 26 21  1  0  0  0  0
 26 53  1  0  0  0  0
 26 54  1  0  0  0  0
 27 55  1  0  0  0  0
 28 14  1  0  0  0  0
 29 56  1  0  0  0  0
 29 57  1  0  0  0  0
 29 58  1  0  0  0  0
 30 26  1  0  0  0  0
 31 28  1  0  0  0  0
 31 59  1  0  0  0  0
 31 60  1  0  0  0  0
 32 31  1  0  0  0  0
 32 61  1  0  0  0  0
 32 62  1  0  0  0  0
 32 63  1  0  0  0  0
M  END
>  <DRUGBANK_ID>
DB14596

>  <SECONDARY_ACCESSION_NUMBERS>
DBSALT000930

>  <COMMON_NAME>
Loteprednol etabonate

>  <CAS_NUMBER>
82034-46-6

>  <UNII>
YEH1EZ96K6

>  <SYNONYMS>
Loteprednol etabonate

$$$$
