
 OpenBabel10282417072D

 54 56  0  0  0  0  0  0  0  0999 V2000
   -0.0000    4.9500    0.0000 C   0  0  0  0  0  0  0  0  0  0  0  0
    0.7145    4.5375    0.0000 C   0  0  0  0  0  0  0  0  0  0  0  0
   -0.0000    5.7750    0.0000 C   0  0  0  0  0  0  0  0  0  0  0  0
    1.4289    4.9500    0.0000 C   0  0  0  0  0  0  0  0  0  0  0  0
    0.7145    6.1875    0.0000 C   0  0  0  0  0  0  0  0  0  0  0  0
    6.4302    7.0125    0.0000 C   0  0  0  0  0  0  0  0  0  0  0  0
    5.7158    7.4250    0.0000 C   0  0  0  0  0  0  0  0  0  0  0  0
    2.1434    6.1875    0.0000 C   0  0  0  0  0  0  0  0  0  0  0  0
    2.8579    5.7750    0.0000 C   0  0  0  0  0  0  0  0  0  0  0  0
    9.2881    6.1875    0.0000 C   0  0  0  0  0  0  0  0  0  0  0  0
    8.5737    7.4250    0.0000 C   0  0  0  0  0  0  0  0  0  0  0  0
   10.0026    7.4250    0.0000 C   0  0  0  0  0  0  0  0  0  0  0  0
    5.7158    5.7750    0.0000 C   0  0  0  0  0  0  0  0  0  0  0  0
    1.4289    5.7750    0.0000 C   0  0  0  0  0  0  0  0  0  0  0  0
    9.2881    7.0125    0.0000 C   0  0  0  0  0  0  0  0  0  0  0  0
    6.4302    6.1875    0.0000 C   0  0  0  0  0  0  0  0  0  0  0  0
    5.0013    6.1875    0.0000 C   0  0  0  0  0  0  0  0  0  0  0  0
    8.5737    5.7750    0.0000 C   0  0  0  0  0  0  0  0  0  0  0  0
    7.8592    7.0125    0.0000 C   0  0  0  0  0  0  0  0  0  0  0  0
    5.0013    7.0125    0.0000 C   0  0  0  0  0  0  0  0  0  0  0  0
   10.7171    7.0125    0.0000 C   0  0  0  0  0  0  0  0  0  0  0  0
    7.8592    6.1875    0.0000 C   0  0  0  0  0  0  0  0  0  0  0  0
    4.2868    5.7750    0.0000 C   0  0  3  0  0  0  0  0  0  0  0  0
    8.5737    4.9500    0.0000 Br  0  0  0  0  0  0  0  0  0  0  0  0
    7.1447    7.4250    0.0000 Br  0  0  0  0  0  0  0  0  0  0  0  0
    3.5724    6.1875    0.0000 N   0  0  0  0  0  0  0  0  0  0  0  0
    4.2868    7.4250    0.0000 O   0  0  0  0  0  0  0  0  0  0  0  0
   11.4315    7.4250    0.0000 O   0  0  0  0  0  0  0  0  0  0  0  0
   10.7171    6.1875    0.0000 O   0  0  0  0  0  0  0  0  0  0  0  0
    4.2868    4.9500    0.0000 O   0  0  0  0  0  0  0  0  0  0  0  0
    7.1447    5.7750    0.0000 O   0  0  0  0  0  0  0  0  0  0  0  0
   -0.8937    4.4340    0.0000 H   0  0  0  0  0  0  0  0  0  0  0  0
    0.7145    3.5055    0.0000 H   0  0  0  0  0  0  0  0  0  0  0  0
   -0.8937    6.2910    0.0000 H   0  0  0  0  0  0  0  0  0  0  0  0
    2.3226    4.4340    0.0000 H   0  0  0  0  0  0  0  0  0  0  0  0
    0.7145    7.2195    0.0000 H   0  0  0  0  0  0  0  0  0  0  0  0
    7.3239    7.5285    0.0000 H   0  0  0  0  0  0  0  0  0  0  0  0
    5.7158    8.4570    0.0000 H   0  0  0  0  0  0  0  0  0  0  0  0
    2.1434    7.2575    0.0000 H   0  0  0  0  0  0  0  0  0  0  0  0
    1.2168    6.7225    0.0000 H   0  0  0  0  0  0  0  0  0  0  0  0
    2.8579    4.7050    0.0000 H   0  0  0  0  0  0  0  0  0  0  0  0
    3.7845    5.2400    0.0000 H   0  0  0  0  0  0  0  0  0  0  0  0
   10.1818    5.6715    0.0000 H   0  0  0  0  0  0  0  0  0  0  0  0
    8.5737    8.4570    0.0000 H   0  0  0  0  0  0  0  0  0  0  0  0
   10.0026    8.4950    0.0000 H   0  0  0  0  0  0  0  0  0  0  0  0
   10.9292    7.9600    0.0000 H   0  0  0  0  0  0  0  0  0  0  0  0
    5.7158    4.7430    0.0000 H   0  0  0  0  0  0  0  0  0  0  0  0
   11.6438    6.4775    0.0000 H   0  0  0  0  0  0  0  0  0  0  0  0
    4.2868    6.8450    0.0000 H   0  0  0  0  0  0  0  0  0  0  0  0
    3.5724    7.2075    0.0000 H   0  0  0  0  0  0  0  0  0  0  0  0
    4.2868    8.3620    0.0000 H   0  0  0  0  0  0  0  0  0  0  0  0
   12.2430    6.9565    0.0000 H   0  0  0  0  0  0  0  0  0  0  0  0
    9.9056    5.7190    0.0000 H   0  0  0  0  0  0  0  0  0  0  0  0
    3.4468    4.4650    0.0000 H   0  0  0  0  0  0  0  0  0  0  0  0
  1 32  1  0  0  0  0
  2  1  2  0  0  0  0
  2 33  1  0  0  0  0
  3  1  1  0  0  0  0
  3 34  1  0  0  0  0
  4  2  1  0  0  0  0
  4 35  1  0  0  0  0
  5  3  2  0  0  0  0
  5 36  1  0  0  0  0
  6 37  1  0  0  0  0
  7  6  2  0  0  0  0
  7 38  1  0  0  0  0
  8 39  1  0  0  0  0
  8 40  1  0  0  0  0
  9  8  1  0  0  0  0
  9 41  1  0  0  0  0
  9 42  1  0  0  0  0
 10 43  1  0  0  0  0
 11 44  1  0  0  0  0
 12 45  1  0  0  0  0
 12 46  1  0  0  0  0
 13 47  1  0  0  0  0
 14  4  2  0  0  0  0
 14  5  1  0  0  0  0
 14  8  1  0  0  0  0
 15 10  2  0  0  0  0
 15 11  1  0  0  0  0
 15 12  1  0  0  0  0
 16  6  1  0  0  0  0
 16 13  2  0  0  0  0
 17 13  1  0  0  0  0
 18 10  1  0  0  0  0
 19 11  2  0  0  0  0
 20  7  1  0  0  0  0
 20 17  2  0  0  0  0
 21 12  1  0  0  0  0
 21 48  1  0  0  0  0
 22 18  2  0  0  0  0
 22 19  1  0  0  0  0
 23 17  1  0  0  0  0
 23 49  1  0  0  0  0
 24 18  1  0  0  0  0
 25 19  1  0  0  0  0
 26  9  1  0  0  0  0
 26 23  1  0  0  0  0
 26 50  1  0  0  0  0
 27 20  1  0  0  0  0
 27 51  1  0  0  0  0
 28 21  1  0  0  0  0
 28 52  1  0  0  0  0
 29 21  1  0  0  0  0
 29 53  1  0  0  0  0
 30 23  1  0  0  0  0
 30 54  1  0  0  0  0
 31 16  1  0  0  0  0
 31 22  1  0  0  0  0
M  END
>  <DRUGBANK_ID>
DB02106

>  <SECONDARY_ACCESSION_NUMBERS>
EXPT00196

>  <COMMON_NAME>
[3,5-Dibromo-4-(4-Hydroxy-3-Phenethylcarbamoyl-Phenoxy)-Phenyl]-Acetic Acid

$$$$
