
 OpenBabel10282417072D

 41 45  0  0  0  0  0  0  0  0999 V2000
   -5.6660   -3.2287    0.0000 C   0  0  0  0  0  0  0  0  0  0  0  0
   -4.9986   -2.7438    0.0000 N   0  0  0  0  0  0  0  0  0  0  0  0
   -4.9986   -1.9188    0.0000 C   0  0  0  0  0  0  0  0  0  0  0  0
   -4.2139   -1.6638    0.0000 C   0  0  0  0  0  0  0  0  0  0  0  0
   -3.7290   -2.3313    0.0000 C   0  0  0  0  0  0  0  0  0  0  0  0
   -4.2139   -2.9987    0.0000 N   0  0  0  0  0  0  0  0  0  0  0  0
   -3.9590   -0.8792    0.0000 C   0  0  0  0  0  0  0  0  0  0  0  0
   -4.5110   -0.2661    0.0000 C   0  0  0  0  0  0  0  0  0  0  0  0
   -4.2561    0.5185    0.0000 C   0  0  0  0  0  0  0  0  0  0  0  0
   -3.4491    0.6900    0.0000 C   0  0  0  0  0  0  0  0  0  0  0  0
   -3.0366    1.4045    0.0000 N   0  0  0  0  0  0  0  0  0  0  0  0
   -2.2296    1.2330    0.0000 N   0  0  0  0  0  0  0  0  0  0  0  0
   -2.1434    0.4125    0.0000 C   0  0  0  0  0  0  0  0  0  0  0  0
   -2.8971    0.0769    0.0000 N   0  0  0  0  0  0  0  0  0  0  0  0
   -3.1520   -0.7077    0.0000 N   0  0  0  0  0  0  0  0  0  0  0  0
   -1.4289    0.0000    0.0000 C   0  0  0  0  0  0  0  0  0  0  0  0
   -0.7145   -0.4125    0.0000 C   0  0  0  0  0  0  0  0  0  0  0  0
   -0.7145   -1.2375    0.0000 C   0  0  0  0  0  0  0  0  0  0  0  0
    0.0000   -1.6500    0.0000 C   0  0  0  0  0  0  0  0  0  0  0  0
    0.7145   -1.2375    0.0000 C   0  0  0  0  0  0  0  0  0  0  0  0
    0.7145   -0.4125    0.0000 C   0  0  0  0  0  0  0  0  0  0  0  0
    0.0000   -0.0000    0.0000 C   0  0  0  0  0  0  0  0  0  0  0  0
    1.4289   -0.0000    0.0000 C   0  0  0  0  0  0  0  0  0  0  0  0
    2.1434   -0.4125    0.0000 C   0  0  0  0  0  0  0  0  0  0  0  0
    2.1434   -1.2375    0.0000 C   0  0  0  0  0  0  0  0  0  0  0  0
    1.4289   -1.6500    0.0000 N   0  0  0  0  0  0  0  0  0  0  0  0
   -1.8414   -0.7145    0.0000 F   0  0  0  0  0  0  0  0  0  0  0  0
   -1.0164    0.7145    0.0000 F   0  0  0  0  0  0  0  0  0  0  0  0
   -6.6435   -2.7935    0.0000 H   0  0  0  0  0  0  0  0  0  0  0  0
   -5.5541   -4.2928    0.0000 H   0  0  0  0  0  0  0  0  0  0  0  0
   -6.5316   -3.8576    0.0000 H   0  0  0  0  0  0  0  0  0  0  0  0
   -5.8335   -1.3122    0.0000 H   0  0  0  0  0  0  0  0  0  0  0  0
   -2.6970   -2.3313    0.0000 H   0  0  0  0  0  0  0  0  0  0  0  0
   -5.5204   -0.4807    0.0000 H   0  0  0  0  0  0  0  0  0  0  0  0
   -4.9466    1.2854    0.0000 H   0  0  0  0  0  0  0  0  0  0  0  0
   -1.6082   -1.7535    0.0000 H   0  0  0  0  0  0  0  0  0  0  0  0
    0.0000   -2.6820    0.0000 H   0  0  0  0  0  0  0  0  0  0  0  0
    0.0000    1.0320    0.0000 H   0  0  0  0  0  0  0  0  0  0  0  0
    1.4289    1.0320    0.0000 H   0  0  0  0  0  0  0  0  0  0  0  0
    3.0371    0.1035    0.0000 H   0  0  0  0  0  0  0  0  0  0  0  0
    3.0371   -1.7535    0.0000 H   0  0  0  0  0  0  0  0  0  0  0  0
  1  2  1  0  0  0  0
  1 29  1  0  0  0  0
  1 30  1  0  0  0  0
  1 31  1  0  0  0  0
  2  3  1  0  0  0  0
  2  6  1  0  0  0  0
  3  4  2  0  0  0  0
  3 32  1  0  0  0  0
  4  5  1  0  0  0  0
  4  7  1  0  0  0  0
  5  6  2  0  0  0  0
  5 33  1  0  0  0  0
  7  8  1  0  0  0  0
  7 15  2  0  0  0  0
  8  9  2  0  0  0  0
  8 34  1  0  0  0  0
  9 10  1  0  0  0  0
  9 35  1  0  0  0  0
 10 11  2  0  0  0  0
 10 14  1  0  0  0  0
 11 12  1  0  0  0  0
 12 13  2  0  0  0  0
 13 14  1  0  0  0  0
 13 16  1  0  0  0  0
 14 15  1  0  0  0  0
 16 17  1  0  0  0  0
 16 27  1  0  0  0  0
 16 28  1  0  0  0  0
 17 18  2  0  0  0  0
 17 22  1  0  0  0  0
 18 19  1  0  0  0  0
 18 36  1  0  0  0  0
 19 20  2  0  0  0  0
 19 37  1  0  0  0  0
 20 21  1  0  0  0  0
 20 26  1  0  0  0  0
 21 22  2  0  0  0  0
 21 23  1  0  0  0  0
 22 38  1  0  0  0  0
 23 24  2  0  0  0  0
 23 39  1  0  0  0  0
 24 25  1  0  0  0  0
 24 40  1  0  0  0  0
 25 26  2  0  0  0  0
 25 41  1  0  0  0  0
M  END
>  <DRUGBANK_ID>
DB13113

>  <COMMON_NAME>
JNJ-38877605

>  <CAS_NUMBER>
943540-75-8

>  <UNII>
15UDG410PN

$$$$
