43A
 OpenBabel10282417072D

 41 44  0  0  0  0  0  0  0  0999 V2000
    3.0691   -1.2661    0.0000 C   0  0  0  0  0  0  0  0  0  0  0  0
    2.3546   -1.6786    0.0000 C   0  0  0  0  0  0  0  0  0  0  0  0
    1.6401   -1.2661    0.0000 C   0  0  0  0  0  0  0  0  0  0  0  0
    1.6401   -0.4411    0.0000 C   0  0  0  0  0  0  0  0  0  0  0  0
    2.3546   -0.0286    0.0000 C   0  0  0  0  0  0  0  0  0  0  0  0
    3.0691   -0.4411    0.0000 C   0  0  0  0  0  0  0  0  0  0  0  0
    3.7835   -1.6786    0.0000 O   0  0  0  0  0  0  0  0  0  0  0  0
    2.3546   -2.5036    0.0000 O   0  0  0  0  0  0  0  0  0  0  0  0
    1.6401   -2.9161    0.0000 C   0  0  0  0  0  0  0  0  0  0  0  0
    0.9256   -0.0286    0.0000 C   0  0  0  0  0  0  0  0  0  0  0  0
    0.2112   -0.4411    0.0000 C   0  0  0  0  0  0  0  0  0  0  0  0
   -0.5033   -0.0286    0.0000 C   0  0  0  0  0  0  0  0  0  0  0  0
   -0.5033    0.7964    0.0000 C   0  0  0  0  0  0  0  0  0  0  0  0
    0.2112    1.2089    0.0000 C   0  0  0  0  0  0  0  0  0  0  0  0
    0.9256    0.7964    0.0000 C   0  0  0  0  0  0  0  0  0  0  0  0
   -1.2879   -0.2835    0.0000 N   0  0  0  0  0  0  0  0  0  0  0  0
   -1.7728    0.3839    0.0000 C   0  0  0  0  0  0  0  0  0  0  0  0
   -1.2879    1.0514    0.0000 C   0  0  0  0  0  0  0  0  0  0  0  0
   -2.5978    0.3839    0.0000 O   0  0  0  0  0  0  0  0  0  0  0  0
   -1.5429    1.8360    0.0000 C   0  0  0  0  0  0  0  0  0  0  0  0
   -2.3498    2.0075    0.0000 C   0  0  0  0  0  0  0  0  0  0  0  0
   -2.9629    1.4555    0.0000 N   0  0  0  0  0  0  0  0  0  0  0  0
   -3.6774    1.8680    0.0000 C   0  0  0  0  0  0  0  0  0  0  0  0
   -3.5059    2.6750    0.0000 C   0  0  0  0  0  0  0  0  0  0  0  0
   -2.6854    2.7612    0.0000 C   0  0  0  0  0  0  0  0  0  0  0  0
    0.7464   -1.7821    0.0000 H   0  0  0  0  0  0  0  0  0  0  0  0
    2.3546    1.0034    0.0000 H   0  0  0  0  0  0  0  0  0  0  0  0
    3.9628    0.0749    0.0000 H   0  0  0  0  0  0  0  0  0  0  0  0
    3.7835   -2.6156    0.0000 H   0  0  0  0  0  0  0  0  0  0  0  0
    0.7135   -2.3811    0.0000 H   0  0  0  0  0  0  0  0  0  0  0  0
    1.6401   -3.9861    0.0000 H   0  0  0  0  0  0  0  0  0  0  0  0
    0.7134   -3.4511    0.0000 H   0  0  0  0  0  0  0  0  0  0  0  0
    0.2112   -1.4731    0.0000 H   0  0  0  0  0  0  0  0  0  0  0  0
    0.2112    2.2409    0.0000 H   0  0  0  0  0  0  0  0  0  0  0  0
    1.8193    1.3124    0.0000 H   0  0  0  0  0  0  0  0  0  0  0  0
   -1.5921   -1.2198    0.0000 H   0  0  0  0  0  0  0  0  0  0  0  0
   -0.8524    2.6030    0.0000 H   0  0  0  0  0  0  0  0  0  0  0  0
   -2.8600    0.4764    0.0000 H   0  0  0  0  0  0  0  0  0  0  0  0
   -4.6202    1.4482    0.0000 H   0  0  0  0  0  0  0  0  0  0  0  0
   -4.1964    3.4419    0.0000 H   0  0  0  0  0  0  0  0  0  0  0  0
   -2.1694    3.6549    0.0000 H   0  0  0  0  0  0  0  0  0  0  0  0
  1  2  1  0  0  0  0
  1  6  2  0  0  0  0
  1  7  1  0  0  0  0
  2  3  2  0  0  0  0
  2  8  1  0  0  0  0
  3  4  1  0  0  0  0
  3 26  1  0  0  0  0
  4  5  2  0  0  0  0
  4 10  1  0  0  0  0
  5  6  1  0  0  0  0
  5 27  1  0  0  0  0
  6 28  1  0  0  0  0
  7 29  1  0  0  0  0
  8  9  1  0  0  0  0
  9 30  1  0  0  0  0
  9 31  1  0  0  0  0
  9 32  1  0  0  0  0
 10 11  2  0  0  0  0
 10 15  1  0  0  0  0
 11 12  1  0  0  0  0
 11 33  1  0  0  0  0
 12 13  2  0  0  0  0
 12 16  1  0  0  0  0
 13 14  1  0  0  0  0
 13 18  1  0  0  0  0
 14 15  2  0  0  0  0
 14 34  1  0  0  0  0
 15 35  1  0  0  0  0
 16 17  1  0  0  0  0
 16 36  1  0  0  0  0
 17 18  1  0  0  0  0
 17 19  2  0  0  0  0
 18 20  2  0  0  0  0
 20 21  1  0  0  0  0
 20 37  1  0  0  0  0
 21 22  1  0  0  0  0
 21 25  2  0  0  0  0
 22 23  1  0  0  0  0
 22 38  1  0  0  0  0
 23 24  2  0  0  0  0
 23 39  1  0  0  0  0
 24 25  1  0  0  0  0
 24 40  1  0  0  0  0
 25 41  1  0  0  0  0
M  END
>  <DRUGBANK_ID>
DB07078

>  <COMMON_NAME>
(3Z)-6-(4-HYDROXY-3-METHOXYPHENYL)-3-(1H-PYRROL-2-YLMETHYLENE)-1,3-DIHYDRO-2H-INDOL-2-ONE

$$$$
