
 OpenBabel10282417072D

 13 12  0  0  0  0  0  0  0  0999 V2000
   23.7719  -10.7753    0.0000 S   0  0  0  0  0  0  0  0  0  0  0  0
   25.9153  -10.3628    0.0000 S   0  0  0  0  0  0  0  0  0  0  0  0
   23.0574  -11.1878    0.0000 O   0  0  0  0  0  0  0  0  0  0  0  0
   23.3594  -10.0608    0.0000 O   0  0  0  0  0  0  0  0  0  0  0  0
   24.1844  -11.4898    0.0000 O   0  0  0  0  0  0  0  0  0  0  0  0
   24.4864  -10.3628    0.0000 C   0  0  0  0  0  0  0  0  0  0  0  0
   25.2009  -10.7753    0.0000 C   0  0  0  0  0  0  0  0  0  0  0  0
   27.0931  -11.0427    0.0000 H   0  0  0  0  0  0  0  0  0  0  0  0
   22.2174  -10.7028    0.0000 H   0  0  0  0  0  0  0  0  0  0  0  0
   24.4864   -9.2928    0.0000 H   0  0  0  0  0  0  0  0  0  0  0  0
   25.4130   -9.8278    0.0000 H   0  0  0  0  0  0  0  0  0  0  0  0
   25.2009  -11.8453    0.0000 H   0  0  0  0  0  0  0  0  0  0  0  0
   24.2743  -11.3103    0.0000 H   0  0  0  0  0  0  0  0  0  0  0  0
  1  3  1  0  0  0  0
  1  4  2  0  0  0  0
  1  5  2  0  0  0  0
  1  6  1  0  0  0  0
  2  7  1  0  0  0  0
  2  8  1  0  0  0  0
  3  9  1  0  0  0  0
  6  7  1  0  0  0  0
  6 10  1  0  0  0  0
  6 11  1  0  0  0  0
  7 12  1  0  0  0  0
  7 13  1  0  0  0  0
M  END
>  <DRUGBANK_ID>
DB09110

>  <COMMON_NAME>
Coenzyme M

>  <CAS_NUMBER>
3375-50-6

>  <UNII>
VHD28S0H7F

>  <SYNONYMS>
2-Mercaptoethane; 2-Mercaptoethanesulfonate; 2-mercaptoethanesulfonic acid; 2-mercaptoethanesulphonic acid; 2-mercaptoethylsulfonate; 2-sulfanylethylsulfonate; Coenzima M; Coenzym M; CoM; HS-CoM; reduced coenzyme M; reduced CoM; Î²-mercaptoethanesulfonic acid

$$$$
