782
 OpenBabel10282417072D

 57 59  0  0  0  0  0  0  0  0999 V2000
    4.5640   -0.1920    0.0000 O   0  0  0  0  0  0  0  0  0  0  0  0
    3.8495   -3.0795    0.0000 O   0  0  0  0  0  0  0  0  0  0  0  0
    3.1350   -0.1920    0.0000 O   0  0  0  0  0  0  0  0  0  0  0  0
    5.2784    1.8705    0.0000 N   0  3  0  0  0  0  0  0  0  0  0  0
    6.1034    1.8705    0.0000 C   0  0  0  0  0  0  0  0  0  0  0  0
    5.2784    2.6955    0.0000 C   0  0  0  0  0  0  0  0  0  0  0  0
    5.2784    1.0455    0.0000 C   0  0  0  0  0  0  0  0  0  0  0  0
    4.4534    1.8705    0.0000 C   0  0  0  0  0  0  0  0  0  0  0  0
    6.5159    1.1561    0.0000 C   0  0  0  0  0  0  0  0  0  0  0  0
    6.5159    2.5851    0.0000 C   0  0  0  0  0  0  0  0  0  0  0  0
    5.9929    3.1080    0.0000 C   0  0  0  0  0  0  0  0  0  0  0  0
    4.5640    3.1080    0.0000 C   0  0  0  0  0  0  0  0  0  0  0  0
    4.5640    0.6330    0.0000 C   0  0  0  0  0  0  0  0  0  0  0  0
    3.8495   -1.4295    0.0000 C   0  0  0  0  0  0  0  0  0  0  0  0
    3.8495   -0.6045    0.0000 C   0  0  0  0  0  0  0  0  0  0  0  0
    4.5640   -1.8420    0.0000 C   0  0  0  0  0  0  0  0  0  0  0  0
    3.1350   -1.8420    0.0000 C   0  0  0  0  0  0  0  0  0  0  0  0
    4.5640   -2.6670    0.0000 C   0  0  0  0  0  0  0  0  0  0  0  0
    3.1350   -2.6670    0.0000 C   0  0  0  0  0  0  0  0  0  0  0  0
    5.3015   -1.4008    0.0000 C   0  0  0  0  0  0  0  0  0  0  0  0
    2.3975   -1.4008    0.0000 C   0  0  0  0  0  0  0  0  0  0  0  0
    5.3015   -3.1080    0.0000 C   0  0  0  0  0  0  0  0  0  0  0  0
    2.3975   -3.1080    0.0000 C   0  0  0  0  0  0  0  0  0  0  0  0
    6.0490   -1.8248    0.0000 C   0  0  0  0  0  0  0  0  0  0  0  0
    1.6500   -1.8248    0.0000 C   0  0  0  0  0  0  0  0  0  0  0  0
    6.0490   -2.6841    0.0000 C   0  0  0  0  0  0  0  0  0  0  0  0
    1.6500   -2.6841    0.0000 C   0  0  0  0  0  0  0  0  0  0  0  0
    7.1734    1.8706    0.0000 H   0  0  0  0  0  0  0  0  0  0  0  0
    5.2784    3.7655    0.0000 H   0  0  0  0  0  0  0  0  0  0  0  0
    6.2051    0.5105    0.0000 H   0  0  0  0  0  0  0  0  0  0  0  0
    5.2784   -0.0245    0.0000 H   0  0  0  0  0  0  0  0  0  0  0  0
    3.9184    2.7971    0.0000 H   0  0  0  0  0  0  0  0  0  0  0  0
    3.9184    0.9439    0.0000 H   0  0  0  0  0  0  0  0  0  0  0  0
    3.3834    1.8705    0.0000 H   0  0  0  0  0  0  0  0  0  0  0  0
    5.9809    0.2294    0.0000 H   0  0  0  0  0  0  0  0  0  0  0  0
    7.5859    1.1561    0.0000 H   0  0  0  0  0  0  0  0  0  0  0  0
    7.0509    0.2295    0.0000 H   0  0  0  0  0  0  0  0  0  0  0  0
    7.5859    2.5852    0.0000 H   0  0  0  0  0  0  0  0  0  0  0  0
    5.9808    3.5117    0.0000 H   0  0  0  0  0  0  0  0  0  0  0  0
    7.0508    3.5118    0.0000 H   0  0  0  0  0  0  0  0  0  0  0  0
    6.9195    2.5730    0.0000 H   0  0  0  0  0  0  0  0  0  0  0  0
    5.9929    4.1780    0.0000 H   0  0  0  0  0  0  0  0  0  0  0  0
    6.9196    3.6430    0.0000 H   0  0  0  0  0  0  0  0  0  0  0  0
    4.5640    4.1780    0.0000 H   0  0  0  0  0  0  0  0  0  0  0  0
    3.6373    2.5730    0.0000 H   0  0  0  0  0  0  0  0  0  0  0  0
    3.6374    3.6430    0.0000 H   0  0  0  0  0  0  0  0  0  0  0  0
    3.6373    1.1680    0.0000 H   0  0  0  0  0  0  0  0  0  0  0  0
    4.5640    1.7030    0.0000 H   0  0  0  0  0  0  0  0  0  0  0  0
    3.8495   -2.4995    0.0000 H   0  0  0  0  0  0  0  0  0  0  0  0
    5.2896   -0.3689    0.0000 H   0  0  0  0  0  0  0  0  0  0  0  0
    2.4094   -0.3689    0.0000 H   0  0  0  0  0  0  0  0  0  0  0  0
    5.2896   -4.1399    0.0000 H   0  0  0  0  0  0  0  0  0  0  0  0
    2.4094   -4.1399    0.0000 H   0  0  0  0  0  0  0  0  0  0  0  0
    6.9408   -1.3054    0.0000 H   0  0  0  0  0  0  0  0  0  0  0  0
    0.7582   -1.3054    0.0000 H   0  0  0  0  0  0  0  0  0  0  0  0
    6.9407   -3.2036    0.0000 H   0  0  0  0  0  0  0  0  0  0  0  0
    0.7583   -3.2036    0.0000 H   0  0  0  0  0  0  0  0  0  0  0  0
  1 13  1  0  0  0  0
  1 15  1  0  0  0  0
  2 18  1  0  0  0  0
  2 19  1  0  0  0  0
  3 15  2  0  0  0  0
  4  5  1  0  0  0  0
  4  6  1  0  0  0  0
  4  7  1  0  0  0  0
  4  8  1  0  0  0  0
  5  9  1  0  0  0  0
  5 10  1  0  0  0  0
  5 28  1  0  0  0  0
  6 11  1  0  0  0  0
  6 12  1  0  0  0  0
  6 29  1  0  0  0  0
  7 13  1  0  0  0  0
  7 30  1  0  0  0  0
  7 31  1  0  0  0  0
  8 32  1  0  0  0  0
  8 33  1  0  0  0  0
  8 34  1  0  0  0  0
  9 35  1  0  0  0  0
  9 36  1  0  0  0  0
  9 37  1  0  0  0  0
 10 38  1  0  0  0  0
 10 39  1  0  0  0  0
 10 40  1  0  0  0  0
 11 41  1  0  0  0  0
 11 42  1  0  0  0  0
 11 43  1  0  0  0  0
 12 44  1  0  0  0  0
 12 45  1  0  0  0  0
 12 46  1  0  0  0  0
 13 47  1  0  0  0  0
 13 48  1  0  0  0  0
 14 15  1  0  0  0  0
 14 16  1  0  0  0  0
 14 17  1  0  0  0  0
 14 49  1  0  0  0  0
 16 18  1  0  0  0  0
 16 20  2  0  0  0  0
 17 19  1  0  0  0  0
 17 21  2  0  0  0  0
 18 22  2  0  0  0  0
 19 23  2  0  0  0  0
 20 24  1  0  0  0  0
 20 50  1  0  0  0  0
 21 25  1  0  0  0  0
 21 51  1  0  0  0  0
 22 26  1  0  0  0  0
 22 52  1  0  0  0  0
 23 27  1  0  0  0  0
 23 53  1  0  0  0  0
 24 26  2  0  0  0  0
 24 54  1  0  0  0  0
 25 27  2  0  0  0  0
 25 55  1  0  0  0  0
 26 56  1  0  0  0  0
 27 57  1  0  0  0  0
M  CHG  1   4   1
M  END
>  <DRUGBANK_ID>
DB00782

>  <SECONDARY_ACCESSION_NUMBERS>
APRD00177

>  <COMMON_NAME>
Propantheline

>  <CAS_NUMBER>
298-50-0

>  <UNII>
1306V2B0Q8

>  <SYNONYMS>
Propantheline

$$$$
