616
 OpenBabel10282417072D

 60 61  0  0  0  0  0  0  0  0999 V2000
    0.6548    2.2429    0.0000 O   0  0  0  0  0  0  0  0  0  0  0  0
    0.6548    1.4179    0.0000 C   0  0  0  0  0  0  0  0  0  0  0  0
    1.3693    1.0054    0.0000 C   0  0  1  0  0  0  0  0  0  0  0  0
    2.0838    1.4179    0.0000 C   0  0  0  0  0  0  0  0  0  0  0  0
    2.0838    2.2429    0.0000 C   0  0  0  0  0  0  0  0  0  0  0  0
    2.7982    1.0054    0.0000 C   0  0  0  0  0  0  0  0  0  0  0  0
    1.3693    0.1804    0.0000 C   0  0  1  0  0  0  0  0  0  0  0  0
    2.0367   -0.3045    0.0000 C   0  0  2  0  0  0  0  0  0  0  0  0
    2.8214   -0.0496    0.0000 N   0  0  0  0  0  0  0  0  0  0  0  0
    3.4344   -0.6016    0.0000 S   0  0  0  0  0  0  0  0  0  0  0  0
    4.0475   -1.1537    0.0000 O   0  0  0  0  0  0  0  0  0  0  0  0
    3.9865    0.0115    0.0000 O   0  0  0  0  0  0  0  0  0  0  0  0
    2.8824   -1.2147    0.0000 C   0  0  0  0  0  0  0  0  0  0  0  0
    1.7818   -1.0892    0.0000 C   0  0  0  0  0  0  0  0  0  0  0  0
    0.9568   -1.0892    0.0000 C   0  0  0  0  0  0  0  0  0  0  0  0
    0.7019   -0.3045    0.0000 N   0  0  0  0  0  0  0  0  0  0  0  0
   -0.0828   -0.0496    0.0000 C   0  0  0  0  0  0  0  0  0  0  0  0
   -0.2543    0.7574    0.0000 O   0  0  0  0  0  0  0  0  0  0  0  0
   -0.6959   -0.6016    0.0000 C   0  0  0  0  0  0  0  0  0  0  0  0
   -1.4805   -0.3467    0.0000 C   0  0  0  0  0  0  0  0  0  0  0  0
   -2.0936   -0.8987    0.0000 C   0  0  0  0  0  0  0  0  0  0  0  0
   -2.8782   -0.6438    0.0000 N   0  0  0  0  0  0  0  0  0  0  0  0
   -3.4913   -1.1958    0.0000 C   0  0  0  0  0  0  0  0  0  0  0  0
   -4.2759   -0.9409    0.0000 C   0  0  0  0  0  0  0  0  0  0  0  0
   -4.4474   -0.1339    0.0000 C   0  0  0  0  0  0  0  0  0  0  0  0
   -3.8344    0.4181    0.0000 C   0  0  0  0  0  0  0  0  0  0  0  0
   -3.0497    0.1632    0.0000 C   0  0  0  0  0  0  0  0  0  0  0  0
    1.1696    1.5541    0.0000 H   0  0  0  0  0  0  0  0  0  0  0  0
    1.8896    0.4455    0.0000 H   0  0  0  0  0  0  0  0  0  0  0  0
    2.1281    0.2722    0.0000 H   0  0  0  0  0  0  0  0  0  0  0  0
   -0.2389    0.9019    0.0000 H   0  0  0  0  0  0  0  0  0  0  0  0
    3.0105    1.9529    0.0000 H   0  0  0  0  0  0  0  0  0  0  0  0
    3.0104    2.7779    0.0000 H   0  0  0  0  0  0  0  0  0  0  0  0
    1.1572    2.7779    0.0000 H   0  0  0  0  0  0  0  0  0  0  0  0
    2.0838    3.3129    0.0000 H   0  0  0  0  0  0  0  0  0  0  0  0
    2.7982   -0.0646    0.0000 H   0  0  0  0  0  0  0  0  0  0  0  0
    3.7249    1.5404    0.0000 H   0  0  0  0  0  0  0  0  0  0  0  0
    3.7248    0.4704    0.0000 H   0  0  0  0  0  0  0  0  0  0  0  0
    3.0335    0.9481    0.0000 H   0  0  0  0  0  0  0  0  0  0  0  0
    1.8358   -0.9923    0.0000 H   0  0  0  0  0  0  0  0  0  0  0  0
    3.2131   -2.2323    0.0000 H   0  0  0  0  0  0  0  0  0  0  0  0
    2.1665   -2.0099    0.0000 H   0  0  0  0  0  0  0  0  0  0  0  0
    2.4108   -1.9548    0.0000 H   0  0  0  0  0  0  0  0  0  0  0  0
    1.2960   -2.0426    0.0000 H   0  0  0  0  0  0  0  0  0  0  0  0
    0.3278   -1.9548    0.0000 H   0  0  0  0  0  0  0  0  0  0  0  0
   -0.1000   -0.9218    0.0000 H   0  0  0  0  0  0  0  0  0  0  0  0
   -0.4813   -1.6110    0.0000 H   0  0  0  0  0  0  0  0  0  0  0  0
   -1.6951    0.6627    0.0000 H   0  0  0  0  0  0  0  0  0  0  0  0
   -1.8711   -1.9453    0.0000 H   0  0  0  0  0  0  0  0  0  0  0  0
   -2.8888   -1.6147    0.0000 H   0  0  0  0  0  0  0  0  0  0  0  0
   -3.2688   -2.2424    0.0000 H   0  0  0  0  0  0  0  0  0  0  0  0
   -4.2865   -1.9118    0.0000 H   0  0  0  0  0  0  0  0  0  0  0  0
   -5.0711   -1.6569    0.0000 H   0  0  0  0  0  0  0  0  0  0  0  0
   -5.2935   -0.6102    0.0000 H   0  0  0  0  0  0  0  0  0  0  0  0
   -5.4650    0.1967    0.0000 H   0  0  0  0  0  0  0  0  0  0  0  0
   -4.6699    0.9127    0.0000 H   0  0  0  0  0  0  0  0  0  0  0  0
   -4.0569    1.4647    0.0000 H   0  0  0  0  0  0  0  0  0  0  0  0
   -3.0393    1.1341    0.0000 H   0  0  0  0  0  0  0  0  0  0  0  0
   -2.2545    0.8792    0.0000 H   0  0  0  0  0  0  0  0  0  0  0  0
   -3.2722    1.2098    0.0000 H   0  0  0  0  0  0  0  0  0  0  0  0
  1  2  2  0  0  0  0
  2  3  1  0  0  0  0
  2 31  1  0  0  0  0
  3  4  1  0  0  0  0
  3 28  1  6  0  0  0
  4  5  1  0  0  0  0
  4  6  1  0  0  0  0
  4 32  1  0  0  0  0
  5 33  1  0  0  0  0
  5 34  1  0  0  0  0
  5 35  1  0  0  0  0
  6 36  1  0  0  0  0
  6 37  1  0  0  0  0
  6 38  1  0  0  0  0
  7  3  1  0  0  0  0
  7  8  1  0  0  0  0
  7 16  1  0  0  0  0
  7 29  1  6  0  0  0
  8  9  1  0  0  0  0
  8 14  1  0  0  0  0
  8 30  1  1  0  0  0
  9 10  1  0  0  0  0
  9 39  1  0  0  0  0
 10 11  2  0  0  0  0
 10 12  2  0  0  0  0
 10 13  1  0  0  0  0
 13 40  1  0  0  0  0
 13 41  1  0  0  0  0
 13 42  1  0  0  0  0
 14 15  1  0  0  0  0
 14 43  1  0  0  0  0
 14 44  1  0  0  0  0
 15 16  1  0  0  0  0
 15 45  1  0  0  0  0
 15 46  1  0  0  0  0
 16 17  1  0  0  0  0
 17 18  2  0  0  0  0
 17 19  1  0  0  0  0
 19 20  2  0  0  0  0
 19 47  1  0  0  0  0
 20 21  1  0  0  0  0
 20 48  1  0  0  0  0
 21 22  1  0  0  0  0
 21 49  1  0  0  0  0
 21 50  1  0  0  0  0
 22 23  1  0  0  0  0
 22 27  1  0  0  0  0
 23 24  1  0  0  0  0
 23 51  1  0  0  0  0
 23 52  1  0  0  0  0
 24 25  1  0  0  0  0
 24 53  1  0  0  0  0
 24 54  1  0  0  0  0
 25 26  1  0  0  0  0
 25 55  1  0  0  0  0
 25 56  1  0  0  0  0
 26 27  1  0  0  0  0
 26 57  1  0  0  0  0
 26 58  1  0  0  0  0
 27 59  1  0  0  0  0
 27 60  1  0  0  0  0
M  END
>  <DRUGBANK_ID>
DB03890

>  <SECONDARY_ACCESSION_NUMBERS>
EXPT00265

>  <COMMON_NAME>
N-[2-(1-Formyl-2-Methyl-Propyl)-1-(4-Piperidin-1-Yl-but-2-Enoyl)-Pyrrolidin-3-Yl]-Methanesulfonamide

$$$$
