693
 OpenBabel10282417072D

 51 54  0  0  0  0  0  0  0  0999 V2000
    3.6140    0.4249    0.0000 C   0  0  0  0  0  0  0  0  0  0  0  0
    3.6140   -0.4001    0.0000 C   0  0  0  0  0  0  0  0  0  0  0  0
    2.8995   -0.8126    0.0000 C   0  0  0  0  0  0  0  0  0  0  0  0
    2.1851   -0.4001    0.0000 C   0  0  0  0  0  0  0  0  0  0  0  0
    2.1851    0.4249    0.0000 C   0  0  0  0  0  0  0  0  0  0  0  0
    2.8995    0.8374    0.0000 C   0  0  0  0  0  0  0  0  0  0  0  0
    4.3285    0.8374    0.0000 C   0  0  0  0  0  0  0  0  0  0  0  0
    5.0429    0.4249    0.0000 N   0  0  0  0  0  0  0  0  0  0  0  0
    4.3285    1.6624    0.0000 N   0  3  0  0  0  0  0  0  0  0  0  0
    1.4004   -0.6551    0.0000 N   0  0  0  0  0  0  0  0  0  0  0  0
    1.4004    0.6798    0.0000 N   0  0  0  0  0  0  0  0  0  0  0  0
    0.9155    0.0124    0.0000 C   0  0  0  0  0  0  0  0  0  0  0  0
    0.0905    0.0124    0.0000 C   0  0  0  0  0  0  0  0  0  0  0  0
   -0.3220   -0.7021    0.0000 C   0  0  0  0  0  0  0  0  0  0  0  0
   -1.1470   -0.7021    0.0000 C   0  0  0  0  0  0  0  0  0  0  0  0
   -1.5595   -1.4166    0.0000 C   0  0  2  0  0  0  0  0  0  0  0  0
   -2.3845   -1.4166    0.0000 C   0  0  0  0  0  0  0  0  0  0  0  0
   -2.7970   -2.1310    0.0000 O   0  0  0  0  0  0  0  0  0  0  0  0
   -2.7970   -0.7021    0.0000 O   0  5  0  0  0  0  0  0  0  0  0  0
   -1.1470   -2.1310    0.0000 C   0  0  0  0  0  0  0  0  0  0  0  0
   -1.5595   -2.8455    0.0000 C   0  0  0  0  0  0  0  0  0  0  0  0
   -1.1470   -3.5600    0.0000 O   0  0  0  0  0  0  0  0  0  0  0  0
   -2.3845   -2.8455    0.0000 O   0  5  0  0  0  0  0  0  0  0  0  0
   -1.5595    0.0124    0.0000 C   0  0  0  0  0  0  0  0  0  0  0  0
   -1.1470    0.7269    0.0000 C   0  0  0  0  0  0  0  0  0  0  0  0
   -0.3220    0.7269    0.0000 C   0  0  0  0  0  0  0  0  0  0  0  0
    0.0905    1.4413    0.0000 O   0  5  0  0  0  0  0  0  0  0  0  0
   -1.5595    1.4413    0.0000 C   0  0  0  0  0  0  0  0  0  0  0  0
   -2.3845    1.4413    0.0000 C   0  0  0  0  0  0  0  0  0  0  0  0
   -2.7970    2.1558    0.0000 C   0  0  0  0  0  0  0  0  0  0  0  0
   -2.3845    2.8703    0.0000 C   0  0  0  0  0  0  0  0  0  0  0  0
   -1.5595    2.8703    0.0000 C   0  0  0  0  0  0  0  0  0  0  0  0
   -1.1470    2.1558    0.0000 C   0  0  0  0  0  0  0  0  0  0  0  0
   -2.7970    0.7269    0.0000 F   0  0  0  0  0  0  0  0  0  0  0  0
    4.5077   -0.9161    0.0000 H   0  0  0  0  0  0  0  0  0  0  0  0
    2.8995   -1.8446    0.0000 H   0  0  0  0  0  0  0  0  0  0  0  0
    2.8995    1.8694    0.0000 H   0  0  0  0  0  0  0  0  0  0  0  0
    5.0429   -0.5596    0.0000 H   0  0  0  0  0  0  0  0  0  0  0  0
    5.8955    0.9171    0.0000 H   0  0  0  0  0  0  0  0  0  0  0  0
    5.1811    2.1547    0.0000 H   0  0  0  0  0  0  0  0  0  0  0  0
    3.4759    2.1547    0.0000 H   0  0  0  0  0  0  0  0  0  0  0  0
    1.0962   -1.5914    0.0000 H   0  0  0  0  0  0  0  0  0  0  0  0
    0.1940   -1.5958    0.0000 H   0  0  0  0  0  0  0  0  0  0  0  0
   -0.4895   -1.4166    0.0000 H   0  0  0  0  0  0  0  0  0  0  0  0
   -0.0770   -2.1310    0.0000 H   0  0  0  0  0  0  0  0  0  0  0  0
   -0.6120   -3.0576    0.0000 H   0  0  0  0  0  0  0  0  0  0  0  0
   -2.5915    0.0124    0.0000 H   0  0  0  0  0  0  0  0  0  0  0  0
   -3.8290    2.1558    0.0000 H   0  0  0  0  0  0  0  0  0  0  0  0
   -2.9005    3.7640    0.0000 H   0  0  0  0  0  0  0  0  0  0  0  0
   -1.0435    3.7640    0.0000 H   0  0  0  0  0  0  0  0  0  0  0  0
   -0.1150    2.1558    0.0000 H   0  0  0  0  0  0  0  0  0  0  0  0
  1  2  2  0  0  0  0
  1  6  1  0  0  0  0
  1  7  1  0  0  0  0
  2  3  1  0  0  0  0
  2 35  1  0  0  0  0
  3  4  2  0  0  0  0
  3 36  1  0  0  0  0
  4  5  1  0  0  0  0
  4 10  1  0  0  0  0
  5  6  2  0  0  0  0
  5 11  1  0  0  0  0
  6 37  1  0  0  0  0
  7  8  1  0  0  0  0
  7  9  2  0  0  0  0
  8 38  1  0  0  0  0
  8 39  1  0  0  0  0
  9 40  1  0  0  0  0
  9 41  1  0  0  0  0
 10 12  1  0  0  0  0
 10 42  1  0  0  0  0
 11 12  2  0  0  0  0
 12 13  1  0  0  0  0
 13 14  2  0  0  0  0
 13 26  1  0  0  0  0
 14 15  1  0  0  0  0
 14 43  1  0  0  0  0
 15 16  1  0  0  0  0
 15 24  2  0  0  0  0
 16 17  1  0  0  0  0
 16 20  1  0  0  0  0
 16 44  1  6  0  0  0
 17 18  2  0  0  0  0
 17 19  1  0  0  0  0
 20 21  1  0  0  0  0
 20 45  1  0  0  0  0
 20 46  1  0  0  0  0
 21 22  2  0  0  0  0
 21 23  1  0  0  0  0
 24 25  1  0  0  0  0
 24 47  1  0  0  0  0
 25 26  2  0  0  0  0
 25 28  1  0  0  0  0
 26 27  1  0  0  0  0
 28 29  2  0  0  0  0
 28 33  1  0  0  0  0
 29 30  1  0  0  0  0
 29 34  1  0  0  0  0
 30 31  2  0  0  0  0
 30 48  1  0  0  0  0
 31 32  1  0  0  0  0
 31 49  1  0  0  0  0
 32 33  2  0  0  0  0
 32 50  1  0  0  0  0
 33 51  1  0  0  0  0
M  CHG  4   9   1  19  -1  23  -1  27  -1
M  END
>  <DRUGBANK_ID>
DB01741

>  <SECONDARY_ACCESSION_NUMBERS>
EXPT00281

>  <COMMON_NAME>
CRA_17693

$$$$
