
 OpenBabel10282417072D

 26 27  0  0  0  0  0  0  0  0999 V2000
    2.8159   -2.4082    0.0000 C   0  0  0  0  0  0  0  0  0  0  0  0
    2.1015   -1.9957    0.0000 C   0  0  0  0  0  0  0  0  0  0  0  0
    1.3870   -2.4082    0.0000 S   0  0  0  0  0  0  0  0  0  0  0  0
    0.6725   -1.9957    0.0000 Bi  0  0  0  0  0  0  0  0  0  0  0  0
   -0.0811   -2.3313    0.0000 S   0  0  0  0  0  0  0  0  0  0  0  0
   -0.6332   -1.7182    0.0000 C   0  0  0  0  0  0  0  0  0  0  0  0
   -0.2207   -1.0037    0.0000 C   0  0  0  0  0  0  0  0  0  0  0  0
    0.5863   -1.1752    0.0000 S   0  0  0  0  0  0  0  0  0  0  0  0
    3.5304   -1.9957    0.0000 S   0  0  0  0  0  0  0  0  0  0  0  0
    4.2449   -2.4082    0.0000 Bi  0  0  0  0  0  0  0  0  0  0  0  0
    4.9986   -2.0727    0.0000 S   0  0  0  0  0  0  0  0  0  0  0  0
    5.5506   -2.6857    0.0000 C   0  0  0  0  0  0  0  0  0  0  0  0
    5.1381   -3.4002    0.0000 C   0  0  0  0  0  0  0  0  0  0  0  0
    4.3311   -3.2287    0.0000 S   0  0  0  0  0  0  0  0  0  0  0  0
    2.8159   -3.4782    0.0000 H   0  0  0  0  0  0  0  0  0  0  0  0
    3.7425   -2.9432    0.0000 H   0  0  0  0  0  0  0  0  0  0  0  0
    2.1015   -0.9257    0.0000 H   0  0  0  0  0  0  0  0  0  0  0  0
    1.1749   -1.4607    0.0000 H   0  0  0  0  0  0  0  0  0  0  0  0
   -1.6973   -1.8301    0.0000 H   0  0  0  0  0  0  0  0  0  0  0  0
   -1.2160   -0.8208    0.0000 H   0  0  0  0  0  0  0  0  0  0  0  0
   -0.6559   -0.0262    0.0000 H   0  0  0  0  0  0  0  0  0  0  0  0
    0.4526   -0.1721    0.0000 H   0  0  0  0  0  0  0  0  0  0  0  0
    6.6147   -2.5738    0.0000 H   0  0  0  0  0  0  0  0  0  0  0  0
    6.1334   -3.5831    0.0000 H   0  0  0  0  0  0  0  0  0  0  0  0
    5.5733   -4.3777    0.0000 H   0  0  0  0  0  0  0  0  0  0  0  0
    4.4648   -4.2318    0.0000 H   0  0  0  0  0  0  0  0  0  0  0  0
  1  2  1  0  0  0  0
  1  9  1  0  0  0  0
  1 15  1  0  0  0  0
  1 16  1  0  0  0  0
  2  3  1  0  0  0  0
  2 17  1  0  0  0  0
  2 18  1  0  0  0  0
  3  4  1  0  0  0  0
  4  5  1  0  0  0  0
  4  8  1  0  0  0  0
  5  6  1  0  0  0  0
  6  7  1  0  0  0  0
  6 19  1  0  0  0  0
  6 20  1  0  0  0  0
  7  8  1  0  0  0  0
  7 21  1  0  0  0  0
  7 22  1  0  0  0  0
  9 10  1  0  0  0  0
 10 11  1  0  0  0  0
 10 14  1  0  0  0  0
 11 12  1  0  0  0  0
 12 13  1  0  0  0  0
 12 23  1  0  0  0  0
 12 24  1  0  0  0  0
 13 14  1  0  0  0  0
 13 25  1  0  0  0  0
 13 26  1  0  0  0  0
M  END
>  <DRUGBANK_ID>
DB17784

>  <COMMON_NAME>
Pravibismane

>  <CAS_NUMBER>
175880-68-9

>  <UNII>
G3T79NDD38

>  <SYNONYMS>
1,2-(bis(1,3-dithia-2-bismolane)thio)ethane; 1,2-bis((1,3-dithia-2-bismolan-2-yl)thio)ethane; 1,2-bis((1,3-dithia-2-bismolane-2-yl)thio)ethane; 1,3,2-dithiabismolane, 2,2'-(1,2-ethanediylbis(thio))bis; 2,2'-(1,2-ethanediylbis(thio))bis(1,3,2-dithiabismolane); 2,2'-(ethane-1,2-diylbis(sulfanediyl))bis(1,3,2-dithiabismolane); BisEDT

$$$$
