BI3
 OpenBabel10282417072D

 49 53  0  0  0  0  0  0  0  0999 V2000
   -2.8973   -2.2314    0.0000 N   0  0  0  0  0  0  0  0  0  0  0  0
   -2.0903   -2.0599    0.0000 C   0  0  0  0  0  0  0  0  0  0  0  0
   -1.8354   -1.2752    0.0000 C   0  0  0  0  0  0  0  0  0  0  0  0
   -1.0284   -1.1037    0.0000 C   0  0  0  0  0  0  0  0  0  0  0  0
   -0.7735   -0.3191    0.0000 N   0  0  0  0  0  0  0  0  0  0  0  0
    0.0111   -0.0641    0.0000 C   0  0  0  0  0  0  0  0  0  0  0  0
   -1.2584    0.3484    0.0000 C   0  0  0  0  0  0  0  0  0  0  0  0
   -2.0789    0.4346    0.0000 C   0  0  0  0  0  0  0  0  0  0  0  0
   -2.4145    1.1883    0.0000 C   0  0  0  0  0  0  0  0  0  0  0  0
   -1.9295    1.8557    0.0000 C   0  0  0  0  0  0  0  0  0  0  0  0
   -1.1091    1.7695    0.0000 C   0  0  0  0  0  0  0  0  0  0  0  0
   -0.7735    1.0158    0.0000 C   0  0  0  0  0  0  0  0  0  0  0  0
    0.0111    0.7609    0.0000 C   0  0  0  0  0  0  0  0  0  0  0  0
    0.6786    1.2458    0.0000 C   0  0  0  0  0  0  0  0  0  0  0  0
    0.6786    2.0708    0.0000 C   0  0  0  0  0  0  0  0  0  0  0  0
    0.0111    2.5557    0.0000 O   0  0  0  0  0  0  0  0  0  0  0  0
    1.4632    2.3257    0.0000 N   0  0  0  0  0  0  0  0  0  0  0  0
    1.9481    1.6583    0.0000 C   0  0  0  0  0  0  0  0  0  0  0  0
    2.7731    1.6583    0.0000 O   0  0  0  0  0  0  0  0  0  0  0  0
    1.4632    0.9908    0.0000 C   0  0  0  0  0  0  0  0  0  0  0  0
    1.7181    0.2062    0.0000 C   0  0  0  0  0  0  0  0  0  0  0  0
    2.5027   -0.0487    0.0000 C   0  0  0  0  0  0  0  0  0  0  0  0
    3.2172    0.3638    0.0000 C   0  0  0  0  0  0  0  0  0  0  0  0
    3.9317   -0.0487    0.0000 C   0  0  0  0  0  0  0  0  0  0  0  0
    3.9317   -0.8737    0.0000 C   0  0  0  0  0  0  0  0  0  0  0  0
    3.2172   -1.2862    0.0000 C   0  0  0  0  0  0  0  0  0  0  0  0
    2.5027   -0.8737    0.0000 C   0  0  0  0  0  0  0  0  0  0  0  0
    1.7181   -1.1287    0.0000 N   0  0  0  0  0  0  0  0  0  0  0  0
    1.2332   -0.4612    0.0000 C   0  0  0  0  0  0  0  0  0  0  0  0
   -3.5798   -1.4734    0.0000 H   0  0  0  0  0  0  0  0  0  0  0  0
   -3.2125   -3.2015    0.0000 H   0  0  0  0  0  0  0  0  0  0  0  0
   -1.3743   -2.8551    0.0000 H   0  0  0  0  0  0  0  0  0  0  0  0
   -1.0437   -1.8374    0.0000 H   0  0  0  0  0  0  0  0  0  0  0  0
   -2.5514   -0.4800    0.0000 H   0  0  0  0  0  0  0  0  0  0  0  0
   -1.5047   -0.2576    0.0000 H   0  0  0  0  0  0  0  0  0  0  0  0
   -0.3124   -1.8989    0.0000 H   0  0  0  0  0  0  0  0  0  0  0  0
    0.0182   -0.8812    0.0000 H   0  0  0  0  0  0  0  0  0  0  0  0
    0.8460   -0.6707    0.0000 H   0  0  0  0  0  0  0  0  0  0  0  0
   -2.6855   -0.4003    0.0000 H   0  0  0  0  0  0  0  0  0  0  0  0
   -3.4408    1.2962    0.0000 H   0  0  0  0  0  0  0  0  0  0  0  0
   -2.3492    2.7985    0.0000 H   0  0  0  0  0  0  0  0  0  0  0  0
   -0.5025    2.6044    0.0000 H   0  0  0  0  0  0  0  0  0  0  0  0
    1.7674    3.2620    0.0000 H   0  0  0  0  0  0  0  0  0  0  0  0
    3.2172    1.3958    0.0000 H   0  0  0  0  0  0  0  0  0  0  0  0
    4.8254    0.4673    0.0000 H   0  0  0  0  0  0  0  0  0  0  0  0
    4.8254   -1.3897    0.0000 H   0  0  0  0  0  0  0  0  0  0  0  0
    3.2172   -2.3182    0.0000 H   0  0  0  0  0  0  0  0  0  0  0  0
    1.4139   -2.0650    0.0000 H   0  0  0  0  0  0  0  0  0  0  0  0
    0.2012   -0.4612    0.0000 H   0  0  0  0  0  0  0  0  0  0  0  0
  1  2  1  0  0  0  0
  1 30  1  0  0  0  0
  1 31  1  0  0  0  0
  2  3  1  0  0  0  0
  2 32  1  0  0  0  0
  2 33  1  0  0  0  0
  3  4  1  0  0  0  0
  3 34  1  0  0  0  0
  3 35  1  0  0  0  0
  4  5  1  0  0  0  0
  4 36  1  0  0  0  0
  4 37  1  0  0  0  0
  5  6  1  0  0  0  0
  5  7  1  0  0  0  0
  6 13  2  0  0  0  0
  6 38  1  0  0  0  0
  7  8  1  0  0  0  0
  7 12  2  0  0  0  0
  8  9  2  0  0  0  0
  8 39  1  0  0  0  0
  9 10  1  0  0  0  0
  9 40  1  0  0  0  0
 10 11  2  0  0  0  0
 10 41  1  0  0  0  0
 11 12  1  0  0  0  0
 11 42  1  0  0  0  0
 12 13  1  0  0  0  0
 13 14  1  0  0  0  0
 14 15  1  0  0  0  0
 14 20  2  0  0  0  0
 15 16  2  0  0  0  0
 15 17  1  0  0  0  0
 17 18  1  0  0  0  0
 17 43  1  0  0  0  0
 18 19  2  0  0  0  0
 18 20  1  0  0  0  0
 20 21  1  0  0  0  0
 21 22  1  0  0  0  0
 21 29  2  0  0  0  0
 22 23  1  0  0  0  0
 22 27  2  0  0  0  0
 23 24  2  0  0  0  0
 23 44  1  0  0  0  0
 24 25  1  0  0  0  0
 24 45  1  0  0  0  0
 25 26  2  0  0  0  0
 25 46  1  0  0  0  0
 26 27  1  0  0  0  0
 26 47  1  0  0  0  0
 27 28  1  0  0  0  0
 28 29  1  0  0  0  0
 28 48  1  0  0  0  0
 29 49  1  0  0  0  0
M  END
>  <DRUGBANK_ID>
DB07457

>  <COMMON_NAME>
3-[1-(3-AMINOPROPYL)-1H-INDOL-3-YL]-4-(1H-INDOL-3-YL)-1H-PYRROLE-2,5-DIONE

$$$$
