H20
 OpenBabel10282417072D

 44 46  0  0  0  0  0  0  0  0999 V2000
   -0.1096    0.8884    0.0000 C   0  0  0  0  0  0  0  0  0  0  0  0
   -0.1096    1.7134    0.0000 C   0  0  0  0  0  0  0  0  0  0  0  0
    0.6048    2.1259    0.0000 C   0  0  0  0  0  0  0  0  0  0  0  0
    1.3193    1.7134    0.0000 C   0  0  0  0  0  0  0  0  0  0  0  0
    1.3193    0.8884    0.0000 C   0  0  0  0  0  0  0  0  0  0  0  0
    0.6048    0.4759    0.0000 C   0  0  0  0  0  0  0  0  0  0  0  0
   -0.8241   -1.9991    0.0000 N   0  0  0  0  0  0  0  0  0  0  0  0
   -1.5386   -1.5866    0.0000 C   0  0  0  0  0  0  0  0  0  0  0  0
   -2.2531   -1.9991    0.0000 O   0  0  0  0  0  0  0  0  0  0  0  0
   -1.5386   -0.7616    0.0000 C   0  0  0  0  0  0  0  0  0  0  0  0
   -0.8241   -0.3491    0.0000 C   0  0  0  0  0  0  0  0  0  0  0  0
   -0.8241    0.4759    0.0000 O   0  0  0  0  0  0  0  0  0  0  0  0
   -0.1096   -1.5866    0.0000 C   0  0  0  0  0  0  0  0  0  0  0  0
   -0.1096   -0.7616    0.0000 C   0  0  0  0  0  0  0  0  0  0  0  0
    0.6048   -0.3491    0.0000 C   0  0  0  0  0  0  0  0  0  0  0  0
    1.3193   -0.7616    0.0000 C   0  0  0  0  0  0  0  0  0  0  0  0
    1.3193   -1.5866    0.0000 C   0  0  0  0  0  0  0  0  0  0  0  0
    0.6048   -1.9991    0.0000 C   0  0  0  0  0  0  0  0  0  0  0  0
    2.0338   -0.3491    0.0000 Cl  0  0  0  0  0  0  0  0  0  0  0  0
   -2.2531   -0.3491    0.0000 C   0  0  0  0  0  0  0  0  0  0  0  0
   -2.2531    0.4759    0.0000 C   0  0  0  0  0  0  0  0  0  0  0  0
   -2.9675   -0.7616    0.0000 C   0  0  0  0  0  0  0  0  0  0  0  0
   -0.1096   -0.1816    0.0000 H   0  0  0  0  0  0  0  0  0  0  0  0
   -1.0363    2.2484    0.0000 H   0  0  0  0  0  0  0  0  0  0  0  0
   -0.1096    2.7834    0.0000 H   0  0  0  0  0  0  0  0  0  0  0  0
    0.6048    3.1959    0.0000 H   0  0  0  0  0  0  0  0  0  0  0  0
    1.5314    2.6609    0.0000 H   0  0  0  0  0  0  0  0  0  0  0  0
    2.2459    2.2484    0.0000 H   0  0  0  0  0  0  0  0  0  0  0  0
    2.2459    1.1784    0.0000 H   0  0  0  0  0  0  0  0  0  0  0  0
    2.2459    0.3534    0.0000 H   0  0  0  0  0  0  0  0  0  0  0  0
    1.3193   -0.1816    0.0000 H   0  0  0  0  0  0  0  0  0  0  0  0
    0.6048   -0.5941    0.0000 H   0  0  0  0  0  0  0  0  0  0  0  0
    1.5314   -0.0591    0.0000 H   0  0  0  0  0  0  0  0  0  0  0  0
   -0.8241   -2.9836    0.0000 H   0  0  0  0  0  0  0  0  0  0  0  0
    0.6048    0.6829    0.0000 H   0  0  0  0  0  0  0  0  0  0  0  0
    2.2130   -2.1026    0.0000 H   0  0  0  0  0  0  0  0  0  0  0  0
    0.6048   -3.0311    0.0000 H   0  0  0  0  0  0  0  0  0  0  0  0
   -3.1798    0.1859    0.0000 H   0  0  0  0  0  0  0  0  0  0  0  0
   -1.3265    1.0109    0.0000 H   0  0  0  0  0  0  0  0  0  0  0  0
   -3.1797    1.0109    0.0000 H   0  0  0  0  0  0  0  0  0  0  0  0
   -2.2531    1.5459    0.0000 H   0  0  0  0  0  0  0  0  0  0  0  0
   -3.8942   -0.2266    0.0000 H   0  0  0  0  0  0  0  0  0  0  0  0
   -2.9675   -1.8316    0.0000 H   0  0  0  0  0  0  0  0  0  0  0  0
   -3.8941   -1.2966    0.0000 H   0  0  0  0  0  0  0  0  0  0  0  0
  1  2  1  0  0  0  0
  1  6  1  0  0  0  0
  1 12  1  0  0  0  0
  1 23  1  0  0  0  0
  2  3  1  0  0  0  0
  2 24  1  0  0  0  0
  2 25  1  0  0  0  0
  3  4  1  0  0  0  0
  3 26  1  0  0  0  0
  3 27  1  0  0  0  0
  4  5  1  0  0  0  0
  4 28  1  0  0  0  0
  4 29  1  0  0  0  0
  5  6  1  0  0  0  0
  5 30  1  0  0  0  0
  5 31  1  0  0  0  0
  6 32  1  0  0  0  0
  6 33  1  0  0  0  0
  7  8  1  0  0  0  0
  7 13  1  0  0  0  0
  7 34  1  0  0  0  0
  8  9  2  0  0  0  0
  8 10  1  0  0  0  0
 10 11  2  0  0  0  0
 10 20  1  0  0  0  0
 11 12  1  0  0  0  0
 11 14  1  0  0  0  0
 13 14  1  0  0  0  0
 13 18  2  0  0  0  0
 14 15  2  0  0  0  0
 15 16  1  0  0  0  0
 15 35  1  0  0  0  0
 16 17  2  0  0  0  0
 16 19  1  0  0  0  0
 17 18  1  0  0  0  0
 17 36  1  0  0  0  0
 18 37  1  0  0  0  0
 20 21  1  0  0  0  0
 20 22  1  0  0  0  0
 20 38  1  0  0  0  0
 21 39  1  0  0  0  0
 21 40  1  0  0  0  0
 21 41  1  0  0  0  0
 22 42  1  0  0  0  0
 22 43  1  0  0  0  0
 22 44  1  0  0  0  0
M  END
>  <DRUGBANK_ID>
DB07871

>  <COMMON_NAME>
6-CHLORO-4-(CYCLOHEXYLOXY)-3-ISOPROPYLQUINOLIN-2(1H)-ONE

$$$$
