
 OpenBabel10282417072D

 74 75  0  0  0  0  0  0  0  0999 V2000
   -0.0001    2.0974    0.0000 P   0  0  0  0  0  0  0  0  0  0  0  0
   -0.0001    1.2738    0.0000 C   0  0  0  0  0  0  0  0  0  0  0  0
    0.6673    0.7861    0.0000 O   0  0  0  0  0  0  0  0  0  0  0  0
    0.4119    0.0027    0.0000 C   0  0  0  0  0  0  0  0  0  0  0  0
   -0.4119    0.0027    0.0000 C   0  0  0  0  0  0  0  0  0  0  0  0
   -0.6673    0.7861    0.0000 C   0  0  0  0  0  0  0  0  0  0  0  0
    0.8995   -0.6648    0.0000 C   0  0  0  0  0  0  0  0  0  0  0  0
    1.7233   -0.6648    0.0000 N   0  0  0  0  0  0  0  0  0  0  0  0
    1.9787   -1.4482    0.0000 C   0  0  0  0  0  0  0  0  0  0  0  0
    1.3114   -1.9359    0.0000 S   0  0  0  0  0  0  0  0  0  0  0  0
    0.6440   -1.4482    0.0000 C   0  0  0  0  0  0  0  0  0  0  0  0
   -0.1440   -1.7035    0.0000 C   0  0  0  0  0  0  0  0  0  0  0  0
   -0.2688   -2.5206    0.0000 C   0  0  0  0  0  0  0  0  0  0  0  0
    0.3692   -3.0372    0.0000 C   0  0  0  0  0  0  0  0  0  0  0  0
   -0.3982   -3.3331    0.0000 C   0  0  0  0  0  0  0  0  0  0  0  0
   -1.0409   -2.8120    0.0000 C   0  0  0  0  0  0  0  0  0  0  0  0
   -0.7555   -1.1506    0.0000 O   0  0  0  0  0  0  0  0  0  0  0  0
    2.7621   -1.7035    0.0000 N   0  0  0  0  0  0  0  0  0  0  0  0
    0.7149    2.5094    0.0000 N   0  0  0  0  0  0  0  0  0  0  0  0
    1.4298    2.0974    0.0000 C   0  0  0  0  0  0  0  0  0  0  0  0
    2.1446    2.5094    0.0000 C   0  0  0  0  0  0  0  0  0  0  0  0
    2.1446    3.3331    0.0000 O   0  0  0  0  0  0  0  0  0  0  0  0
    2.8549    2.0974    0.0000 O   0  0  0  0  0  0  0  0  0  0  0  0
    3.5697    2.5094    0.0000 C   0  0  0  0  0  0  0  0  0  0  0  0
    4.2846    2.0974    0.0000 C   0  0  0  0  0  0  0  0  0  0  0  0
    1.0179    1.3827    0.0000 C   0  0  0  0  0  0  0  0  0  0  0  0
    1.8417    1.3827    0.0000 C   0  0  0  0  0  0  0  0  0  0  0  0
   -0.7149    2.5094    0.0000 N   0  0  0  0  0  0  0  0  0  0  0  0
   -1.4298    2.0974    0.0000 C   0  0  0  0  0  0  0  0  0  0  0  0
   -2.1447    2.5094    0.0000 C   0  0  0  0  0  0  0  0  0  0  0  0
   -2.1447    3.3331    0.0000 O   0  0  0  0  0  0  0  0  0  0  0  0
   -2.8550    2.0974    0.0000 O   0  0  0  0  0  0  0  0  0  0  0  0
   -3.5697    2.5094    0.0000 C   0  0  0  0  0  0  0  0  0  0  0  0
   -4.2846    2.0974    0.0000 C   0  0  0  0  0  0  0  0  0  0  0  0
   -1.8416    1.3827    0.0000 C   0  0  0  0  0  0  0  0  0  0  0  0
   -1.0179    1.3827    0.0000 C   0  0  0  0  0  0  0  0  0  0  0  0
   -0.0001    3.0159    0.0000 O   0  0  0  0  0  0  0  0  0  0  0  0
   -1.0181   -0.8325    0.0000 H   0  0  0  0  0  0  0  0  0  0  0  0
   -1.6494    1.1031    0.0000 H   0  0  0  0  0  0  0  0  0  0  0  0
    0.2019   -4.0940    0.0000 H   0  0  0  0  0  0  0  0  0  0  0  0
    1.3681   -2.6537    0.0000 H   0  0  0  0  0  0  0  0  0  0  0  0
    1.2008   -3.7105    0.0000 H   0  0  0  0  0  0  0  0  0  0  0  0
   -1.3975   -3.7157    0.0000 H   0  0  0  0  0  0  0  0  0  0  0  0
    0.4328   -4.0072    0.0000 H   0  0  0  0  0  0  0  0  0  0  0  0
   -0.5665   -4.3898    0.0000 H   0  0  0  0  0  0  0  0  0  0  0  0
   -1.8686   -2.1340    0.0000 H   0  0  0  0  0  0  0  0  0  0  0  0
   -1.2142   -3.8679    0.0000 H   0  0  0  0  0  0  0  0  0  0  0  0
   -2.0420   -3.1898    0.0000 H   0  0  0  0  0  0  0  0  0  0  0  0
    2.9659   -2.6667    0.0000 H   0  0  0  0  0  0  0  0  0  0  0  0
    3.4943   -1.0454    0.0000 H   0  0  0  0  0  0  0  0  0  0  0  0
    0.7149    3.5294    0.0000 H   0  0  0  0  0  0  0  0  0  0  0  0
    3.5697    3.5794    0.0000 H   0  0  0  0  0  0  0  0  0  0  0  0
    4.4961    3.0448    0.0000 H   0  0  0  0  0  0  0  0  0  0  0  0
    4.2854    1.0274    0.0000 H   0  0  0  0  0  0  0  0  0  0  0  0
    5.2108    2.6331    0.0000 H   0  0  0  0  0  0  0  0  0  0  0  0
    5.2117    1.5631    0.0000 H   0  0  0  0  0  0  0  0  0  0  0  0
   -0.0521    1.3819    0.0000 H   0  0  0  0  0  0  0  0  0  0  0  0
    1.5536    0.4565    0.0000 H   0  0  0  0  0  0  0  0  0  0  0  0
    0.4836    0.4556    0.0000 H   0  0  0  0  0  0  0  0  0  0  0  0
    1.3060    0.4565    0.0000 H   0  0  0  0  0  0  0  0  0  0  0  0
    2.9117    1.3819    0.0000 H   0  0  0  0  0  0  0  0  0  0  0  0
    2.3760    0.4556    0.0000 H   0  0  0  0  0  0  0  0  0  0  0  0
   -0.7149    3.5294    0.0000 H   0  0  0  0  0  0  0  0  0  0  0  0
   -3.5696    3.5794    0.0000 H   0  0  0  0  0  0  0  0  0  0  0  0
   -4.4961    3.0448    0.0000 H   0  0  0  0  0  0  0  0  0  0  0  0
   -5.2108    2.6331    0.0000 H   0  0  0  0  0  0  0  0  0  0  0  0
   -4.2854    1.0274    0.0000 H   0  0  0  0  0  0  0  0  0  0  0  0
   -5.2117    1.5631    0.0000 H   0  0  0  0  0  0  0  0  0  0  0  0
   -2.9116    1.3818    0.0000 H   0  0  0  0  0  0  0  0  0  0  0  0
   -1.3058    0.4565    0.0000 H   0  0  0  0  0  0  0  0  0  0  0  0
   -2.3758    0.4556    0.0000 H   0  0  0  0  0  0  0  0  0  0  0  0
   -1.5536    0.4565    0.0000 H   0  0  0  0  0  0  0  0  0  0  0  0
    0.0521    1.3819    0.0000 H   0  0  0  0  0  0  0  0  0  0  0  0
   -0.4836    0.4556    0.0000 H   0  0  0  0  0  0  0  0  0  0  0  0
  1  2  1  0  0  0  0
  1 19  1  0  0  0  0
  1 28  1  0  0  0  0
  1 37  2  0  0  0  0
  2  6  2  0  0  0  0
  3  2  1  0  0  0  0
  3  4  1  0  0  0  0
  4  7  1  0  0  0  0
  5  4  2  0  0  0  0
  5 38  1  0  0  0  0
  6  5  1  0  0  0  0
  6 39  1  0  0  0  0
  7 11  2  0  0  0  0
  8  7  1  0  0  0  0
  9  8  2  0  0  0  0
  9 18  1  0  0  0  0
 10  9  1  0  0  0  0
 10 11  1  0  0  0  0
 11 12  1  0  0  0  0
 12 13  1  0  0  0  0
 12 17  2  0  0  0  0
 13 14  1  0  0  0  0
 13 15  1  0  0  0  0
 13 16  1  0  0  0  0
 14 40  1  0  0  0  0
 14 41  1  0  0  0  0
 14 42  1  0  0  0  0
 15 43  1  0  0  0  0
 15 44  1  0  0  0  0
 15 45  1  0  0  0  0
 16 46  1  0  0  0  0
 16 47  1  0  0  0  0
 16 48  1  0  0  0  0
 18 49  1  0  0  0  0
 18 50  1  0  0  0  0
 19 20  1  0  0  0  0
 19 51  1  0  0  0  0
 20 26  1  0  0  0  0
 20 27  1  0  0  0  0
 21 20  1  0  0  0  0
 21 22  2  0  0  0  0
 21 23  1  0  0  0  0
 23 24  1  0  0  0  0
 24 25  1  0  0  0  0
 24 52  1  0  0  0  0
 24 53  1  0  0  0  0
 25 54  1  0  0  0  0
 25 55  1  0  0  0  0
 25 56  1  0  0  0  0
 26 57  1  0  0  0  0
 26 58  1  0  0  0  0
 26 59  1  0  0  0  0
 27 60  1  0  0  0  0
 27 61  1  0  0  0  0
 27 62  1  0  0  0  0
 28 29  1  0  0  0  0
 28 63  1  0  0  0  0
 29 35  1  0  0  0  0
 29 36  1  0  0  0  0
 30 29  1  0  0  0  0
 30 31  2  0  0  0  0
 30 32  1  0  0  0  0
 32 33  1  0  0  0  0
 33 34  1  0  0  0  0
 33 64  1  0  0  0  0
 33 65  1  0  0  0  0
 34 66  1  0  0  0  0
 34 67  1  0  0  0  0
 34 68  1  0  0  0  0
 35 69  1  0  0  0  0
 35 70  1  0  0  0  0
 35 71  1  0  0  0  0
 36 72  1  0  0  0  0
 36 73  1  0  0  0  0
 36 74  1  0  0  0  0
M  END
>  <DRUGBANK_ID>
DB05053

>  <COMMON_NAME>
MB-07803

>  <CAS_NUMBER>
882757-24-6

>  <UNII>
GG81XF45C2

$$$$
