
 OpenBabel10282417072D

 37 38  0  0  0  0  0  0  0  0999 V2000
    0.6213   -2.5047    0.0000 O   0  0  0  0  0  0  0  0  0  0  0  0
    0.2092   -1.7900    0.0000 C   0  0  0  0  0  0  0  0  0  0  0  0
    0.6213   -1.0753    0.0000 C   0  0  0  0  0  0  0  0  0  0  0  0
    0.2092   -0.3606    0.0000 C   0  0  0  0  0  0  0  0  0  0  0  0
    0.6213    0.3606    0.0000 C   0  0  0  0  0  0  0  0  0  0  0  0
    0.2092    1.0753    0.0000 C   0  0  0  0  0  0  0  0  0  0  0  0
    0.6213    1.7900    0.0000 C   0  0  0  0  0  0  0  0  0  0  0  0
    1.4455    1.7900    0.0000 C   0  0  0  0  0  0  0  0  0  0  0  0
    1.8576    2.5047    0.0000 C   0  0  0  0  0  0  0  0  0  0  0  0
    1.4455    3.2195    0.0000 C   0  0  0  0  0  0  0  0  0  0  0  0
    0.6213    3.2195    0.0000 C   0  0  0  0  0  0  0  0  0  0  0  0
    0.2092    2.5047    0.0000 C   0  0  0  0  0  0  0  0  0  0  0  0
   -0.6213   -0.3606    0.0000 C   0  0  0  0  0  0  0  0  0  0  0  0
   -1.0334   -1.0753    0.0000 C   0  0  0  0  0  0  0  0  0  0  0  0
   -1.8576   -1.0753    0.0000 O   0  0  0  0  0  0  0  0  0  0  0  0
   -0.6213   -1.7900    0.0000 C   0  0  0  0  0  0  0  0  0  0  0  0
   -1.0334   -2.5047    0.0000 C   0  0  0  0  0  0  0  0  0  0  0  0
   -1.8576   -2.5047    0.0000 C   0  0  0  0  0  0  0  0  0  0  0  0
   -0.6213   -3.2195    0.0000 C   0  0  0  0  0  0  0  0  0  0  0  0
    0.1523   -3.3159    0.0000 H   0  0  0  0  0  0  0  0  0  0  0  0
    1.6533   -1.0753    0.0000 H   0  0  0  0  0  0  0  0  0  0  0  0
    1.6533    0.3626    0.0000 H   0  0  0  0  0  0  0  0  0  0  0  0
   -0.8228    1.0753    0.0000 H   0  0  0  0  0  0  0  0  0  0  0  0
    1.9617    0.8964    0.0000 H   0  0  0  0  0  0  0  0  0  0  0  0
    2.8896    2.5047    0.0000 H   0  0  0  0  0  0  0  0  0  0  0  0
    1.9618    4.1131    0.0000 H   0  0  0  0  0  0  0  0  0  0  0  0
    0.1050    4.1131    0.0000 H   0  0  0  0  0  0  0  0  0  0  0  0
   -0.8228    2.5047    0.0000 H   0  0  0  0  0  0  0  0  0  0  0  0
   -1.1375    0.5330    0.0000 H   0  0  0  0  0  0  0  0  0  0  0  0
   -2.3261   -0.2638    0.0000 H   0  0  0  0  0  0  0  0  0  0  0  0
   -1.5687   -3.4312    0.0000 H   0  0  0  0  0  0  0  0  0  0  0  0
   -2.3926   -1.5781    0.0000 H   0  0  0  0  0  0  0  0  0  0  0  0
   -2.3926   -3.4313    0.0000 H   0  0  0  0  0  0  0  0  0  0  0  0
   -2.9276   -2.5047    0.0000 H   0  0  0  0  0  0  0  0  0  0  0  0
   -1.1569   -4.1458    0.0000 H   0  0  0  0  0  0  0  0  0  0  0  0
    0.4487   -3.2202    0.0000 H   0  0  0  0  0  0  0  0  0  0  0  0
   -0.0869   -4.1465    0.0000 H   0  0  0  0  0  0  0  0  0  0  0  0
  1  2  1  0  0  0  0
  1 20  1  0  0  0  0
  2  3  2  0  0  0  0
  2 16  1  0  0  0  0
  3  4  1  0  0  0  0
  3 21  1  0  0  0  0
  4  5  1  0  0  0  0
  4 13  2  0  0  0  0
  5  6  2  0  0  0  0
  5 22  1  0  0  0  0
  6  7  1  0  0  0  0
  6 23  1  0  0  0  0
  7  8  2  0  0  0  0
  7 12  1  0  0  0  0
  8  9  1  0  0  0  0
  8 24  1  0  0  0  0
  9 10  2  0  0  0  0
  9 25  1  0  0  0  0
 10 11  1  0  0  0  0
 10 26  1  0  0  0  0
 11 12  2  0  0  0  0
 11 27  1  0  0  0  0
 12 28  1  0  0  0  0
 13 14  1  0  0  0  0
 13 29  1  0  0  0  0
 14 15  1  0  0  0  0
 14 16  2  0  0  0  0
 15 30  1  0  0  0  0
 16 17  1  0  0  0  0
 17 18  1  0  0  0  0
 17 19  1  0  0  0  0
 17 31  1  0  0  0  0
 18 32  1  0  0  0  0
 18 33  1  0  0  0  0
 18 34  1  0  0  0  0
 19 35  1  0  0  0  0
 19 36  1  0  0  0  0
 19 37  1  0  0  0  0
M  END
>  <DRUGBANK_ID>
DB06083

>  <COMMON_NAME>
Tapinarof

>  <CAS_NUMBER>
79338-84-4

>  <UNII>
84HW7D0V04

>  <SYNONYMS>
3,5-Dihydroxy-4-isopropyl-trans-stilbene; Benvitimod; Tapinarof

$$$$
