
 OpenBabel10282417072D

 43 47  0  0  0  0  0  0  0  0999 V2000
    2.1551    2.3346    0.0000 S   0  0  0  0  0  0  0  0  0  0  0  0
    1.3347    2.4208    0.0000 C   0  0  0  0  0  0  0  0  0  0  0  0
    0.9991    1.6672    0.0000 N   0  0  0  0  0  0  0  0  0  0  0  0
    1.6122    1.1151    0.0000 C   0  0  0  0  0  0  0  0  0  0  0  0
    2.3267    1.5276    0.0000 C   0  0  0  0  0  0  0  0  0  0  0  0
    1.6122    0.2901    0.0000 C   0  0  0  0  0  0  0  0  0  0  0  0
    2.3267   -0.1224    0.0000 C   0  0  0  0  0  0  0  0  0  0  0  0
    3.0412    0.2901    0.0000 C   0  0  0  0  0  0  0  0  0  0  0  0
    3.0412    1.1151    0.0000 C   0  0  0  0  0  0  0  0  0  0  0  0
    0.9222    3.1353    0.0000 O   0  0  0  0  0  0  0  0  0  0  0  0
    0.1922    1.4956    0.0000 C   0  0  0  0  0  0  0  0  0  0  0  0
   -0.0628    0.7110    0.0000 C   0  0  0  0  0  0  0  0  0  0  0  0
    0.4892    0.0978    0.0000 C   0  0  0  0  0  0  0  0  0  0  0  0
    0.2343   -0.6867    0.0000 C   0  0  0  0  0  0  0  0  0  0  0  0
   -0.5727   -0.8582    0.0000 C   0  0  0  0  0  0  0  0  0  0  0  0
   -1.1247   -0.2451    0.0000 C   0  0  0  0  0  0  0  0  0  0  0  0
   -0.8698    0.5395    0.0000 C   0  0  0  0  0  0  0  0  0  0  0  0
   -2.3267   -3.1353    0.0000 C   0  0  0  0  0  0  0  0  0  0  0  0
   -1.6122   -2.7228    0.0000 C   0  0  0  0  0  0  0  0  0  0  0  0
   -1.6122   -1.8978    0.0000 C   0  0  0  0  0  0  0  0  0  0  0  0
   -2.3267   -1.4853    0.0000 C   0  0  0  0  0  0  0  0  0  0  0  0
   -3.0412   -1.8978    0.0000 C   0  0  0  0  0  0  0  0  0  0  0  0
   -3.0412   -2.7228    0.0000 N   0  0  0  0  0  0  0  0  0  0  0  0
   -0.3427   -2.3102    0.0000 C   0  0  0  0  0  0  0  0  0  0  0  0
   -0.8276   -2.9777    0.0000 N   0  0  0  0  0  0  0  0  0  0  0  0
   -0.8276   -1.6429    0.0000 N   0  0  0  0  0  0  0  0  0  0  0  0
    0.4823   -2.3102    0.0000 C   0  0  0  0  0  0  0  0  0  0  0  0
    0.7185   -0.2259    0.0000 H   0  0  0  0  0  0  0  0  0  0  0  0
    2.3267   -1.1544    0.0000 H   0  0  0  0  0  0  0  0  0  0  0  0
    3.9349   -0.2259    0.0000 H   0  0  0  0  0  0  0  0  0  0  0  0
    3.9349    1.6311    0.0000 H   0  0  0  0  0  0  0  0  0  0  0  0
   -0.5238    2.2908    0.0000 H   0  0  0  0  0  0  0  0  0  0  0  0
    0.5228    2.5132    0.0000 H   0  0  0  0  0  0  0  0  0  0  0  0
    1.4987    0.3123    0.0000 H   0  0  0  0  0  0  0  0  0  0  0  0
    0.9248   -1.4536    0.0000 H   0  0  0  0  0  0  0  0  0  0  0  0
   -2.1341   -0.4597    0.0000 H   0  0  0  0  0  0  0  0  0  0  0  0
   -1.5603    1.3064    0.0000 H   0  0  0  0  0  0  0  0  0  0  0  0
   -2.3267   -4.1673    0.0000 H   0  0  0  0  0  0  0  0  0  0  0  0
   -2.3267   -0.4533    0.0000 H   0  0  0  0  0  0  0  0  0  0  0  0
   -3.9349   -1.3818    0.0000 H   0  0  0  0  0  0  0  0  0  0  0  0
    1.0173   -3.2368    0.0000 H   0  0  0  0  0  0  0  0  0  0  0  0
    1.0173   -1.3836    0.0000 H   0  0  0  0  0  0  0  0  0  0  0  0
    1.5523   -2.3102    0.0000 H   0  0  0  0  0  0  0  0  0  0  0  0
  1  2  1  0  0  0  0
  1  5  1  0  0  0  0
  2  3  1  0  0  0  0
  2 10  2  0  0  0  0
  3  4  1  0  0  0  0
  3 11  1  0  0  0  0
  4  5  1  0  0  0  0
  6  7  1  0  0  0  0
  6  4  2  0  0  0  0
  6 28  1  0  0  0  0
  7  8  2  0  0  0  0
  7 29  1  0  0  0  0
  8  9  1  0  0  0  0
  8 30  1  0  0  0  0
  9  5  2  0  0  0  0
  9 31  1  0  0  0  0
 11 12  1  0  0  0  0
 11 32  1  0  0  0  0
 11 33  1  0  0  0  0
 12 13  1  0  0  0  0
 12 17  2  0  0  0  0
 13 14  2  0  0  0  0
 13 34  1  0  0  0  0
 14 15  1  0  0  0  0
 14 35  1  0  0  0  0
 15 16  2  0  0  0  0
 15 26  1  0  0  0  0
 16 17  1  0  0  0  0
 16 36  1  0  0  0  0
 17 37  1  0  0  0  0
 18 19  1  0  0  0  0
 18 23  2  0  0  0  0
 18 38  1  0  0  0  0
 19 20  2  0  0  0  0
 20 21  1  0  0  0  0
 21 22  2  0  0  0  0
 21 39  1  0  0  0  0
 22 23  1  0  0  0  0
 22 40  1  0  0  0  0
 24 25  2  0  0  0  0
 24 26  1  0  0  0  0
 24 27  1  0  0  0  0
 25 19  1  0  0  0  0
 26 20  1  0  0  0  0
 27 41  1  0  0  0  0
 27 42  1  0  0  0  0
 27 43  1  0  0  0  0
M  END
>  <DRUGBANK_ID>
DB07578

>  <COMMON_NAME>
CP-94707

>  <CAS_NUMBER>
343250-05-5

>  <UNII>
YGC6408B5O

$$$$
