
 OpenBabel10282417072D

111111  0  0  0  0  0  0  0  0999 V2000
    1.5956    4.6041    0.0000 O   0  0  0  0  0  0  0  0  0  0  0  0
    2.5004    5.2550    0.0000 O   0  0  0  0  0  0  0  0  0  0  0  0
    5.1041    6.6521    0.0000 O   0  0  0  0  0  0  0  0  0  0  0  0
   -1.2621    3.7785    0.0000 O   0  0  0  0  0  0  0  0  0  0  0  0
    4.1516    7.7158    0.0000 O   0  0  0  0  0  0  0  0  0  0  0  0
   -1.9606    5.8424    0.0000 O   0  0  0  0  0  0  0  0  0  0  0  0
   -0.5477    0.9049    0.0000 O   0  0  0  0  0  0  0  0  0  0  0  0
    0.8810    5.8424    0.0000 N   0  0  0  0  0  0  0  0  0  0  0  0
    2.9291    6.6203    0.0000 N   0  0  0  0  0  0  0  0  0  0  0  0
    0.1666    3.7785    0.0000 N   0  0  0  0  0  0  0  0  0  0  0  0
   -1.2621    2.1432    0.0000 N   0  0  0  0  0  0  0  0  0  0  0  0
   -2.6751    4.6041    0.0000 N   0  0  0  0  0  0  0  0  0  0  0  0
    5.6280    4.2548    0.0000 N   0  0  0  0  0  0  0  0  0  0  0  0
    5.1835    2.8895    0.0000 N   0  0  0  0  0  0  0  0  0  0  0  0
    6.5648    3.1910    0.0000 N   0  0  0  0  0  0  0  0  0  0  0  0
    1.5479    6.3186    0.0000 C   0  0  1  0  0  0  0  0  0  0  0  0
    1.2938    7.0966    0.0000 C   0  0  0  0  0  0  0  0  0  0  0  0
    0.4683    7.0966    0.0000 C   0  0  0  0  0  0  0  0  0  0  0  0
    0.2142    6.3186    0.0000 C   0  0  0  0  0  0  0  0  0  0  0  0
    0.8810    5.0168    0.0000 C   0  0  0  0  0  0  0  0  0  0  0  0
    2.3258    6.0647    0.0000 C   0  0  0  0  0  0  0  0  0  0  0  0
    0.1666    4.6041    0.0000 C   0  0  2  0  0  0  0  0  0  0  0  0
   -0.5477    5.0168    0.0000 C   0  0  0  0  0  0  0  0  0  0  0  0
    3.7229    6.3663    0.0000 C   0  0  1  0  0  0  0  0  0  0  0  0
   -1.2621    4.6041    0.0000 C   0  0  0  0  0  0  0  0  0  0  0  0
    3.8816    5.5566    0.0000 C   0  0  0  0  0  0  0  0  0  0  0  0
    4.6755    5.3026    0.0000 C   0  0  0  0  0  0  0  0  0  0  0  0
   -0.5477    3.3657    0.0000 C   0  0  0  0  0  0  0  0  0  0  0  0
   -4.1040   -2.7942    0.0000 C   0  0  0  0  0  0  0  0  0  0  0  0
   -4.1040   -3.6039    0.0000 C   0  0  0  0  0  0  0  0  0  0  0  0
   -3.3896   -2.3814    0.0000 C   0  0  0  0  0  0  0  0  0  0  0  0
    4.3262    6.9061    0.0000 C   0  0  0  0  0  0  0  0  0  0  0  0
   -4.8184   -4.0167    0.0000 C   0  0  0  0  0  0  0  0  0  0  0  0
   -3.3896   -1.5558    0.0000 C   0  0  0  0  0  0  0  0  0  0  0  0
   -4.8184   -4.8422    0.0000 C   0  0  0  0  0  0  0  0  0  0  0  0
   -2.6751   -1.1431    0.0000 C   0  0  0  0  0  0  0  0  0  0  0  0
   -5.5328   -5.2550    0.0000 C   0  0  0  0  0  0  0  0  0  0  0  0
   -2.6751   -0.3175    0.0000 C   0  0  0  0  0  0  0  0  0  0  0  0
   -1.9606    5.0168    0.0000 C   0  0  0  0  0  0  0  0  0  0  0  0
   -0.5477    2.5560    0.0000 C   0  0  0  0  0  0  0  0  0  0  0  0
   -5.5328   -6.0805    0.0000 C   0  0  0  0  0  0  0  0  0  0  0  0
   -1.9606    0.0793    0.0000 C   0  0  0  0  0  0  0  0  0  0  0  0
    4.8343    4.5087    0.0000 C   0  0  0  0  0  0  0  0  0  0  0  0
   -1.9606    0.9049    0.0000 C   0  0  0  0  0  0  0  0  0  0  0  0
   -6.2314   -6.4934    0.0000 C   0  0  0  0  0  0  0  0  0  0  0  0
   -1.2621    1.3176    0.0000 C   0  0  0  0  0  0  0  0  0  0  0  0
   -6.2314   -7.3030    0.0000 C   0  0  0  0  0  0  0  0  0  0  0  0
   -6.9457   -7.7158    0.0000 C   0  0  0  0  0  0  0  0  0  0  0  0
    5.7868    3.4451    0.0000 C   0  0  0  0  0  0  0  0  0  0  0  0
    2.8339    7.1125    0.0000 H   0  0  0  0  0  0  0  0  0  0  0  0
    0.6112    3.5245    0.0000 H   0  0  0  0  0  0  0  0  0  0  0  0
   -1.6908    2.3973    0.0000 H   0  0  0  0  0  0  0  0  0  0  0  0
   -2.6751    4.0960    0.0000 H   0  0  0  0  0  0  0  0  0  0  0  0
   -3.1196    4.8581    0.0000 H   0  0  0  0  0  0  0  0  0  0  0  0
    4.6914    3.0482    0.0000 H   0  0  0  0  0  0  0  0  0  0  0  0
    5.2788    2.3973    0.0000 H   0  0  0  0  0  0  0  0  0  0  0  0
    6.9457    3.5245    0.0000 H   0  0  0  0  0  0  0  0  0  0  0  0
    6.6759    2.6989    0.0000 H   0  0  0  0  0  0  0  0  0  0  0  0
    5.2976    5.7353    0.0000 H   0  0  0  0  0  0  0  0  0  0  0  0
    1.7102    5.2610    0.0000 H   0  0  0  0  0  0  0  0  0  0  0  0
    1.9221    7.9627    0.0000 H   0  0  0  0  0  0  0  0  0  0  0  0
    0.8077    8.0498    0.0000 H   0  0  0  0  0  0  0  0  0  0  0  0
   -0.1600    7.9627    0.0000 H   0  0  0  0  0  0  0  0  0  0  0  0
   -0.5887    6.9304    0.0000 H   0  0  0  0  0  0  0  0  0  0  0  0
   -0.8023    5.9846    0.0000 H   0  0  0  0  0  0  0  0  0  0  0  0
   -0.5431    7.0745    0.0000 H   0  0  0  0  0  0  0  0  0  0  0  0
    1.0933    4.0692    0.0000 H   0  0  0  0  0  0  0  0  0  0  0  0
   -0.5477    6.0868    0.0000 H   0  0  0  0  0  0  0  0  0  0  0  0
   -1.4744    5.5517    0.0000 H   0  0  0  0  0  0  0  0  0  0  0  0
    2.9237    5.6549    0.0000 H   0  0  0  0  0  0  0  0  0  0  0  0
   -1.2673    3.5341    0.0000 H   0  0  0  0  0  0  0  0  0  0  0  0
   -2.1927    4.0760    0.0000 H   0  0  0  0  0  0  0  0  0  0  0  0
    3.0824    4.8452    0.0000 H   0  0  0  0  0  0  0  0  0  0  0  0
    4.1034    4.5099    0.0000 H   0  0  0  0  0  0  0  0  0  0  0  0
    5.4733    6.0156    0.0000 H   0  0  0  0  0  0  0  0  0  0  0  0
    5.6905    4.9639    0.0000 H   0  0  0  0  0  0  0  0  0  0  0  0
   -5.0307   -2.2594    0.0000 H   0  0  0  0  0  0  0  0  0  0  0  0
   -4.1043   -1.7242    0.0000 H   0  0  0  0  0  0  0  0  0  0  0  0
   -3.1773   -4.1387    0.0000 H   0  0  0  0  0  0  0  0  0  0  0  0
   -4.1037   -4.6739    0.0000 H   0  0  0  0  0  0  0  0  0  0  0  0
   -2.4629   -2.9162    0.0000 H   0  0  0  0  0  0  0  0  0  0  0  0
   -2.4630   -1.8463    0.0000 H   0  0  0  0  0  0  0  0  0  0  0  0
   -5.7451   -3.4819    0.0000 H   0  0  0  0  0  0  0  0  0  0  0  0
   -5.7450   -4.5518    0.0000 H   0  0  0  0  0  0  0  0  0  0  0  0
   -4.3163   -1.0209    0.0000 H   0  0  0  0  0  0  0  0  0  0  0  0
   -3.3898   -0.4858    0.0000 H   0  0  0  0  0  0  0  0  0  0  0  0
   -3.8917   -5.3770    0.0000 H   0  0  0  0  0  0  0  0  0  0  0  0
   -4.8181   -5.9122    0.0000 H   0  0  0  0  0  0  0  0  0  0  0  0
   -1.7484   -1.6780    0.0000 H   0  0  0  0  0  0  0  0  0  0  0  0
   -1.7485   -0.6081    0.0000 H   0  0  0  0  0  0  0  0  0  0  0  0
   -6.4595   -4.7202    0.0000 H   0  0  0  0  0  0  0  0  0  0  0  0
   -6.4594   -5.7901    0.0000 H   0  0  0  0  0  0  0  0  0  0  0  0
   -3.5973    0.2252    0.0000 H   0  0  0  0  0  0  0  0  0  0  0  0
   -2.6617    0.7524    0.0000 H   0  0  0  0  0  0  0  0  0  0  0  0
    0.3790    2.0212    0.0000 H   0  0  0  0  0  0  0  0  0  0  0  0
    0.3789    3.0911    0.0000 H   0  0  0  0  0  0  0  0  0  0  0  0
   -4.6034   -6.6108    0.0000 H   0  0  0  0  0  0  0  0  0  0  0  0
   -5.5246   -7.1505    0.0000 H   0  0  0  0  0  0  0  0  0  0  0  0
   -1.0384   -0.4634    0.0000 H   0  0  0  0  0  0  0  0  0  0  0  0
   -1.0317    0.6104    0.0000 H   0  0  0  0  0  0  0  0  0  0  0  0
    4.0365    3.7957    0.0000 H   0  0  0  0  0  0  0  0  0  0  0  0
    3.8193    4.8474    0.0000 H   0  0  0  0  0  0  0  0  0  0  0  0
   -2.8899    1.4352    0.0000 H   0  0  0  0  0  0  0  0  0  0  0  0
   -1.9687    1.9749    0.0000 H   0  0  0  0  0  0  0  0  0  0  0  0
   -7.1608   -5.9631    0.0000 H   0  0  0  0  0  0  0  0  0  0  0  0
   -7.1567   -7.0308    0.0000 H   0  0  0  0  0  0  0  0  0  0  0  0
   -5.3046   -7.8378    0.0000 H   0  0  0  0  0  0  0  0  0  0  0  0
   -6.2311   -8.3730    0.0000 H   0  0  0  0  0  0  0  0  0  0  0  0
   -7.8726   -7.1812    0.0000 H   0  0  0  0  0  0  0  0  0  0  0  0
   -6.9453   -8.7858    0.0000 H   0  0  0  0  0  0  0  0  0  0  0  0
   -7.8721   -8.2512    0.0000 H   0  0  0  0  0  0  0  0  0  0  0  0
  1 20  2  0  0  0  0
  2 21  2  0  0  0  0
  3 32  1  0  0  0  0
  3 59  1  0  0  0  0
  4 28  2  0  0  0  0
  5 32  2  0  0  0  0
  6 39  2  0  0  0  0
  7 46  2  0  0  0  0
  8 16  1  0  0  0  0
  8 19  1  0  0  0  0
  8 20  1  0  0  0  0
  9 21  1  0  0  0  0
  9 50  1  0  0  0  0
 10 28  1  0  0  0  0
 10 51  1  0  0  0  0
 11 40  1  0  0  0  0
 11 46  1  0  0  0  0
 11 52  1  0  0  0  0
 12 39  1  0  0  0  0
 12 53  1  0  0  0  0
 12 54  1  0  0  0  0
 13 43  1  0  0  0  0
 13 49  2  0  0  0  0
 14 49  1  0  0  0  0
 14 55  1  0  0  0  0
 14 56  1  0  0  0  0
 15 49  1  0  0  0  0
 15 57  1  0  0  0  0
 15 58  1  0  0  0  0
 16 17  1  0  0  0  0
 16 21  1  0  0  0  0
 16 60  1  6  0  0  0
 17 18  1  0  0  0  0
 17 61  1  0  0  0  0
 17 62  1  0  0  0  0
 18 19  1  0  0  0  0
 18 63  1  0  0  0  0
 18 64  1  0  0  0  0
 19 65  1  0  0  0  0
 19 66  1  0  0  0  0
 20 22  1  0  0  0  0
 22 10  1  0  0  0  0
 22 23  1  0  0  0  0
 22 67  1  6  0  0  0
 23 25  1  0  0  0  0
 23 68  1  0  0  0  0
 23 69  1  0  0  0  0
 24  9  1  0  0  0  0
 24 26  1  0  0  0  0
 24 32  1  0  0  0  0
 24 70  1  1  0  0  0
 25 39  1  0  0  0  0
 25 71  1  0  0  0  0
 25 72  1  0  0  0  0
 26 27  1  0  0  0  0
 26 73  1  0  0  0  0
 26 74  1  0  0  0  0
 27 43  1  0  0  0  0
 27 75  1  0  0  0  0
 27 76  1  0  0  0  0
 28 40  1  0  0  0  0
 29 30  1  0  0  0  0
 29 31  1  0  0  0  0
 29 77  1  0  0  0  0
 29 78  1  0  0  0  0
 30 33  1  0  0  0  0
 30 79  1  0  0  0  0
 30 80  1  0  0  0  0
 31 34  1  0  0  0  0
 31 81  1  0  0  0  0
 31 82  1  0  0  0  0
 33 35  1  0  0  0  0
 33 83  1  0  0  0  0
 33 84  1  0  0  0  0
 34 36  1  0  0  0  0
 34 85  1  0  0  0  0
 34 86  1  0  0  0  0
 35 37  1  0  0  0  0
 35 87  1  0  0  0  0
 35 88  1  0  0  0  0
 36 38  1  0  0  0  0
 36 89  1  0  0  0  0
 36 90  1  0  0  0  0
 37 41  1  0  0  0  0
 37 91  1  0  0  0  0
 37 92  1  0  0  0  0
 38 42  1  0  0  0  0
 38 93  1  0  0  0  0
 38 94  1  0  0  0  0
 40 95  1  0  0  0  0
 40 96  1  0  0  0  0
 41 45  1  0  0  0  0
 41 97  1  0  0  0  0
 41 98  1  0  0  0  0
 42 44  1  0  0  0  0
 42 99  1  0  0  0  0
 42100  1  0  0  0  0
 43101  1  0  0  0  0
 43102  1  0  0  0  0
 44 46  1  0  0  0  0
 44103  1  0  0  0  0
 44104  1  0  0  0  0
 45 47  1  0  0  0  0
 45105  1  0  0  0  0
 45106  1  0  0  0  0
 47 48  1  0  0  0  0
 47107  1  0  0  0  0
 47108  1  0  0  0  0
 48109  1  0  0  0  0
 48110  1  0  0  0  0
 48111  1  0  0  0  0
M  END
>  <DRUGBANK_ID>
DB14137

>  <COMMON_NAME>
Palmitoyl tetrapeptide-7

>  <CAS_NUMBER>
221227-05-0

>  <UNII>
Q41S464P1R

>  <SYNONYMS>
N-Palmitoylrigin; Palmitoyl-GQPR

$$$$
