710
 OpenBabel10282417072D

 57 62  0  0  0  0  0  0  0  0999 V2000
   -2.0879   -1.1454    0.0000 C   0  0  0  0  0  0  0  0  0  0  0  0
   -2.8725   -0.8905    0.0000 C   0  0  0  0  0  0  0  0  0  0  0  0
   -3.0440   -0.0835    0.0000 C   0  0  0  0  0  0  0  0  0  0  0  0
   -1.4748   -0.5934    0.0000 C   0  0  0  0  0  0  0  0  0  0  0  0
   -1.6463    0.2136    0.0000 C   0  0  0  0  0  0  0  0  0  0  0  0
   -2.4309    0.4686    0.0000 C   0  0  0  0  0  0  0  0  0  0  0  0
   -2.4309    1.2936    0.0000 N   0  0  0  0  0  0  0  0  0  0  0  0
   -1.6463    1.5485    0.0000 N   0  0  0  0  0  0  0  0  0  0  0  0
   -1.1614    0.8811    0.0000 C   0  0  0  0  0  0  0  0  0  0  0  0
   -0.3364    0.8811    0.0000 C   0  0  0  0  0  0  0  0  0  0  0  0
    0.1485    1.5485    0.0000 N   0  0  0  0  0  0  0  0  0  0  0  0
    0.1485    0.2136    0.0000 C   0  0  0  0  0  0  0  0  0  0  0  0
    0.9331    0.4686    0.0000 C   0  0  0  0  0  0  0  0  0  0  0  0
    0.9331    1.2936    0.0000 C   0  0  0  0  0  0  0  0  0  0  0  0
    1.6476    1.7061    0.0000 C   0  0  0  0  0  0  0  0  0  0  0  0
    2.3621    1.2936    0.0000 C   0  0  0  0  0  0  0  0  0  0  0  0
    2.3621    0.4686    0.0000 C   0  0  0  0  0  0  0  0  0  0  0  0
    1.6476    0.0561    0.0000 C   0  0  0  0  0  0  0  0  0  0  0  0
    3.0766    0.0561    0.0000 C   0  0  0  0  0  0  0  0  0  0  0  0
    3.7910    0.4686    0.0000 N   0  0  0  0  0  0  0  0  0  0  0  0
    3.7910    1.2936    0.0000 C   0  0  0  0  0  0  0  0  0  0  0  0
    4.5055    1.7061    0.0000 C   0  0  0  0  0  0  0  0  0  0  0  0
    5.2200    1.2936    0.0000 C   0  0  0  0  0  0  0  0  0  0  0  0
    5.2200    0.4686    0.0000 C   0  0  0  0  0  0  0  0  0  0  0  0
    4.5055    0.0561    0.0000 C   0  0  0  0  0  0  0  0  0  0  0  0
   -3.4856   -1.4425    0.0000 C   0  0  0  0  0  0  0  0  0  0  0  0
   -3.3994   -2.2630    0.0000 C   0  0  0  0  0  0  0  0  0  0  0  0
   -4.1530   -2.5985    0.0000 N   0  0  0  0  0  0  0  0  0  0  0  0
   -4.7051   -1.9854    0.0000 N   0  0  0  0  0  0  0  0  0  0  0  0
   -4.2926   -1.2710    0.0000 N   0  0  0  0  0  0  0  0  0  0  0  0
   -2.6849   -2.6755    0.0000 C   0  0  0  0  0  0  0  0  0  0  0  0
   -1.9704   -2.2630    0.0000 O   0  0  0  0  0  0  0  0  0  0  0  0
   -1.8733   -2.1548    0.0000 H   0  0  0  0  0  0  0  0  0  0  0  0
   -4.0255    0.2354    0.0000 H   0  0  0  0  0  0  0  0  0  0  0  0
   -0.4933   -0.9123    0.0000 H   0  0  0  0  0  0  0  0  0  0  0  0
   -3.2274    1.8723    0.0000 H   0  0  0  0  0  0  0  0  0  0  0  0
   -0.1557    2.4848    0.0000 H   0  0  0  0  0  0  0  0  0  0  0  0
   -0.1704   -0.7679    0.0000 H   0  0  0  0  0  0  0  0  0  0  0  0
    1.6476    2.7381    0.0000 H   0  0  0  0  0  0  0  0  0  0  0  0
    3.2558    1.8096    0.0000 H   0  0  0  0  0  0  0  0  0  0  0  0
    1.6476   -0.9759    0.0000 H   0  0  0  0  0  0  0  0  0  0  0  0
    3.0766   -1.0139    0.0000 H   0  0  0  0  0  0  0  0  0  0  0  0
    4.0033   -0.4789    0.0000 H   0  0  0  0  0  0  0  0  0  0  0  0
    2.8644    1.8286    0.0000 H   0  0  0  0  0  0  0  0  0  0  0  0
    3.7910    2.3636    0.0000 H   0  0  0  0  0  0  0  0  0  0  0  0
    4.5055    2.7761    0.0000 H   0  0  0  0  0  0  0  0  0  0  0  0
    5.4321    2.2411    0.0000 H   0  0  0  0  0  0  0  0  0  0  0  0
    6.1466    1.8286    0.0000 H   0  0  0  0  0  0  0  0  0  0  0  0
    6.1466    0.7586    0.0000 H   0  0  0  0  0  0  0  0  0  0  0  0
    6.1466   -0.0664    0.0000 H   0  0  0  0  0  0  0  0  0  0  0  0
    5.2200   -0.6014    0.0000 H   0  0  0  0  0  0  0  0  0  0  0  0
    4.5055   -1.0139    0.0000 H   0  0  0  0  0  0  0  0  0  0  0  0
    5.4321   -0.4789    0.0000 H   0  0  0  0  0  0  0  0  0  0  0  0
   -5.6842   -2.0883    0.0000 H   0  0  0  0  0  0  0  0  0  0  0  0
   -2.6849   -3.7455    0.0000 H   0  0  0  0  0  0  0  0  0  0  0  0
   -1.7583   -3.2105    0.0000 H   0  0  0  0  0  0  0  0  0  0  0  0
   -1.1304   -2.7480    0.0000 H   0  0  0  0  0  0  0  0  0  0  0  0
  1  2  1  0  0  0  0
  1  4  2  0  0  0  0
  1 33  1  0  0  0  0
  2  3  2  0  0  0  0
  2 26  1  0  0  0  0
  3  6  1  0  0  0  0
  3 34  1  0  0  0  0
  4  5  1  0  0  0  0
  4 35  1  0  0  0  0
  5  6  2  0  0  0  0
  5  9  1  0  0  0  0
  6  7  1  0  0  0  0
  7  8  1  0  0  0  0
  7 36  1  0  0  0  0
  8  9  2  0  0  0  0
  9 10  1  0  0  0  0
 10 11  1  0  0  0  0
 10 12  2  0  0  0  0
 11 14  1  0  0  0  0
 11 37  1  0  0  0  0
 12 13  1  0  0  0  0
 12 38  1  0  0  0  0
 13 14  2  0  0  0  0
 13 18  1  0  0  0  0
 14 15  1  0  0  0  0
 15 16  2  0  0  0  0
 15 39  1  0  0  0  0
 16 17  1  0  0  0  0
 16 40  1  0  0  0  0
 17 18  2  0  0  0  0
 17 19  1  0  0  0  0
 18 41  1  0  0  0  0
 19 20  1  0  0  0  0
 19 42  1  0  0  0  0
 19 43  1  0  0  0  0
 20 21  1  0  0  0  0
 20 25  1  0  0  0  0
 21 22  1  0  0  0  0
 21 44  1  0  0  0  0
 21 45  1  0  0  0  0
 22 23  1  0  0  0  0
 22 46  1  0  0  0  0
 22 47  1  0  0  0  0
 23 24  1  0  0  0  0
 23 48  1  0  0  0  0
 23 49  1  0  0  0  0
 24 25  1  0  0  0  0
 24 50  1  0  0  0  0
 24 51  1  0  0  0  0
 25 52  1  0  0  0  0
 25 53  1  0  0  0  0
 26 27  1  0  0  0  0
 26 30  2  0  0  0  0
 27 28  2  0  0  0  0
 27 31  1  0  0  0  0
 28 29  1  0  0  0  0
 29 30  1  0  0  0  0
 29 54  1  0  0  0  0
 31 32  1  0  0  0  0
 31 55  1  0  0  0  0
 31 56  1  0  0  0  0
 32 57  1  0  0  0  0
M  END
>  <DRUGBANK_ID>
DB07213

>  <COMMON_NAME>
(5-{3-[5-(PIPERIDIN-1-YLMETHYL)-1H-INDOL-2-YL]-1H-INDAZOL-6-YL}-2H-1,2,3-TRIAZOL-4-YL)METHANOL

>  <UNII>
U77F86VL6N

$$$$
