
 OpenBabel10282417072D

 50 52  0  0  0  0  0  0  0  0999 V2000
    1.6422   -1.9055    0.0000 C   0  0  0  0  0  0  0  0  0  0  0  0
   -0.2701    0.2183    0.0000 C   0  0  0  0  0  0  0  0  0  0  0  0
    0.8576   -1.6506    0.0000 C   0  0  0  0  0  0  0  0  0  0  0  0
   -0.0986   -0.5887    0.0000 C   0  0  0  0  0  0  0  0  0  0  0  0
    6.3235    1.1759    0.0000 C   0  0  0  0  0  0  0  0  0  0  0  0
    6.3235    2.0009    0.0000 C   0  0  0  0  0  0  0  0  0  0  0  0
    5.6091    0.7634    0.0000 C   0  0  0  0  0  0  0  0  0  0  0  0
    5.6091    2.4134    0.0000 C   0  0  0  0  0  0  0  0  0  0  0  0
    2.0367    2.0009    0.0000 C   0  0  0  0  0  0  0  0  0  0  0  0
    2.0367    1.1759    0.0000 C   0  0  0  0  0  0  0  0  0  0  0  0
    3.1637   -1.3312    0.0000 C   0  0  0  0  0  0  0  0  0  0  0  0
    3.4186   -0.5465    0.0000 C   0  0  0  0  0  0  0  0  0  0  0  0
    3.4656    2.0009    0.0000 C   0  0  0  0  0  0  0  0  0  0  0  0
    1.2991   -0.2916    0.0000 C   0  0  0  0  0  0  0  0  0  0  0  0
    2.7512    2.4134    0.0000 C   0  0  0  0  0  0  0  0  0  0  0  0
    4.8946    1.1759    0.0000 C   0  0  0  0  0  0  0  0  0  0  0  0
    3.4656    1.1759    0.0000 C   0  0  0  0  0  0  0  0  0  0  0  0
    4.8946    2.0009    0.0000 C   0  0  0  0  0  0  0  0  0  0  0  0
    2.7512    0.7634    0.0000 C   0  0  0  0  0  0  0  0  0  0  0  0
    2.0837   -0.5465    0.0000 C   0  0  0  0  0  0  0  0  0  0  0  0
    4.1801    0.7634    0.0000 C   0  0  0  0  0  0  0  0  0  0  0  0
    4.1801    2.4134    0.0000 Cl  0  0  0  0  0  0  0  0  0  0  0  0
    2.3387   -1.3312    0.0000 N   0  0  0  0  0  0  0  0  0  0  0  0
    0.6860   -0.8436    0.0000 N   0  0  0  0  0  0  0  0  0  0  0  0
    2.7512   -0.0616    0.0000 N   0  0  0  0  0  0  0  0  0  0  0  0
    2.7512    3.2384    0.0000 N   0  0  0  0  0  0  0  0  0  0  0  0
    4.1801   -0.0616    0.0000 O   0  0  0  0  0  0  0  0  0  0  0  0
    3.4656    3.6509    0.0000 O   0  0  0  0  0  0  0  0  0  0  0  0
    2.0367    3.6509    0.0000 O   0  0  0  0  0  0  0  0  0  0  0  0
    1.8647   -2.9521    0.0000 H   0  0  0  0  0  0  0  0  0  0  0  0
    2.4373   -1.1895    0.0000 H   0  0  0  0  0  0  0  0  0  0  0  0
    2.6598   -2.2361    0.0000 H   0  0  0  0  0  0  0  0  0  0  0  0
    0.5251    0.9342    0.0000 H   0  0  0  0  0  0  0  0  0  0  0  0
   -1.2877    0.5490    0.0000 H   0  0  0  0  0  0  0  0  0  0  0  0
   -0.4925    1.2649    0.0000 H   0  0  0  0  0  0  0  0  0  0  0  0
    0.0625   -2.3666    0.0000 H   0  0  0  0  0  0  0  0  0  0  0  0
   -0.1601   -1.3200    0.0000 H   0  0  0  0  0  0  0  0  0  0  0  0
   -0.8938   -1.3047    0.0000 H   0  0  0  0  0  0  0  0  0  0  0  0
    0.1239   -1.6353    0.0000 H   0  0  0  0  0  0  0  0  0  0  0  0
    7.2172    0.6599    0.0000 H   0  0  0  0  0  0  0  0  0  0  0  0
    7.2172    2.5169    0.0000 H   0  0  0  0  0  0  0  0  0  0  0  0
    5.6091   -0.2686    0.0000 H   0  0  0  0  0  0  0  0  0  0  0  0
    5.6091    3.4454    0.0000 H   0  0  0  0  0  0  0  0  0  0  0  0
    1.1430    2.5169    0.0000 H   0  0  0  0  0  0  0  0  0  0  0  0
    1.1430    0.6599    0.0000 H   0  0  0  0  0  0  0  0  0  0  0  0
    3.7703   -2.1661    0.0000 H   0  0  0  0  0  0  0  0  0  0  0  0
    4.4001   -0.2276    0.0000 H   0  0  0  0  0  0  0  0  0  0  0  0
    4.3593    2.5169    0.0000 H   0  0  0  0  0  0  0  0  0  0  0  0
    1.0766    0.7550    0.0000 H   0  0  0  0  0  0  0  0  0  0  0  0
    0.2815    0.0391    0.0000 H   0  0  0  0  0  0  0  0  0  0  0  0
  1 30  1  0  0  0  0
  1 31  1  0  0  0  0
  1 32  1  0  0  0  0
  2 33  1  0  0  0  0
  2 34  1  0  0  0  0
  2 35  1  0  0  0  0
  3  1  1  0  0  0  0
  3 36  1  0  0  0  0
  3 37  1  0  0  0  0
  4  2  1  0  0  0  0
  4 38  1  0  0  0  0
  4 39  1  0  0  0  0
  5 40  1  0  0  0  0
  6  5  2  0  0  0  0
  6 41  1  0  0  0  0
  7  5  1  0  0  0  0
  7 42  1  0  0  0  0
  8  6  1  0  0  0  0
  8 43  1  0  0  0  0
  9 44  1  0  0  0  0
 10  9  2  0  0  0  0
 10 45  1  0  0  0  0
 11 46  1  0  0  0  0
 12 11  2  0  0  0  0
 12 47  1  0  0  0  0
 13 48  1  0  0  0  0
 14 49  1  0  0  0  0
 14 50  1  0  0  0  0
 15  9  1  0  0  0  0
 15 13  2  0  0  0  0
 16  7  2  0  0  0  0
 17 13  1  0  0  0  0
 18  8  2  0  0  0  0
 18 16  1  0  0  0  0
 19 10  1  0  0  0  0
 19 17  2  0  0  0  0
 20 14  1  0  0  0  0
 21 16  1  0  0  0  0
 21 17  1  0  0  0  0
 22 18  1  0  0  0  0
 23 11  1  0  0  0  0
 23 20  2  0  0  0  0
 24  3  1  0  0  0  0
 24  4  1  0  0  0  0
 24 14  1  0  0  0  0
 25 12  1  0  0  0  0
 25 19  1  0  0  0  0
 25 20  1  0  0  0  0
 26 15  1  0  0  0  0
 27 21  2  0  0  0  0
 28 26  2  0  0  0  0
 29 26  2  0  0  0  0
M  END
>  <DRUGBANK_ID>
DB13546

>  <COMMON_NAME>
Nizofenone

>  <CAS_NUMBER>
54533-85-6

>  <UNII>
7A2NOC3R88

>  <SYNONYMS>
Nizofenone

$$$$
