4MB
 OpenBabel10282417072D

 23 23  0  0  0  0  0  0  0  0999 V2000
    0.4846    0.8337    0.0000 C   0  0  0  0  0  0  0  0  0  0  0  0
   -0.9443    0.8337    0.0000 C   0  0  0  0  0  0  0  0  0  0  0  0
    1.1991   -0.4038    0.0000 N   0  0  0  0  0  0  0  0  0  0  0  0
    0.4846    0.0087    0.0000 C   0  0  0  0  0  0  0  0  0  0  0  0
   -0.2298    1.2462    0.0000 C   0  0  0  0  0  0  0  0  0  0  0  0
   -1.6588    1.2462    0.0000 C   0  0  0  0  0  0  0  0  0  0  0  0
   -0.9443    0.0087    0.0000 C   0  0  0  0  0  0  0  0  0  0  0  0
    1.1991   -2.0538    0.0000 C   0  0  0  0  0  0  0  0  0  0  0  0
   -0.2298   -0.4038    0.0000 C   0  0  0  0  0  0  0  0  0  0  0  0
   -2.3732    0.8337    0.0000 O   0  0  0  0  0  0  0  0  0  0  0  0
   -1.6588    2.0712    0.0000 O   0  0  0  0  0  0  0  0  0  0  0  0
    1.1991   -1.2288    0.0000 S   0  0  0  0  0  0  0  0  0  0  0  0
    2.0241   -1.2288    0.0000 O   0  0  0  0  0  0  0  0  0  0  0  0
    0.3741   -1.2288    0.0000 O   0  0  0  0  0  0  0  0  0  0  0  0
    1.3783    1.3497    0.0000 H   0  0  0  0  0  0  0  0  0  0  0  0
    2.0517    0.0885    0.0000 H   0  0  0  0  0  0  0  0  0  0  0  0
   -0.2298    2.2782    0.0000 H   0  0  0  0  0  0  0  0  0  0  0  0
   -1.8380   -0.5073    0.0000 H   0  0  0  0  0  0  0  0  0  0  0  0
    0.2725   -2.5888    0.0000 H   0  0  0  0  0  0  0  0  0  0  0  0
    2.1257   -2.5888    0.0000 H   0  0  0  0  0  0  0  0  0  0  0  0
    1.1991   -3.1238    0.0000 H   0  0  0  0  0  0  0  0  0  0  0  0
   -0.2298   -1.4358    0.0000 H   0  0  0  0  0  0  0  0  0  0  0  0
   -0.8473    2.5397    0.0000 H   0  0  0  0  0  0  0  0  0  0  0  0
  1  4  1  0  0  0  0
  1  5  2  0  0  0  0
  1 15  1  0  0  0  0
  2  5  1  0  0  0  0
  2  6  1  0  0  0  0
  2  7  2  0  0  0  0
  3  4  1  0  0  0  0
  3 12  1  0  0  0  0
  3 16  1  0  0  0  0
  4  9  2  0  0  0  0
  5 17  1  0  0  0  0
  6 10  2  0  0  0  0
  6 11  1  0  0  0  0
  7  9  1  0  0  0  0
  7 18  1  0  0  0  0
  8 12  1  0  0  0  0
  8 19  1  0  0  0  0
  8 20  1  0  0  0  0
  8 21  1  0  0  0  0
  9 22  1  0  0  0  0
 11 23  1  0  0  0  0
 12 13  2  0  0  0  0
 12 14  2  0  0  0  0
M  END
>  <DRUGBANK_ID>
DB07114

>  <COMMON_NAME>
4-[(METHYLSULFONYL)AMINO]BENZOIC ACID

>  <UNII>
UHN43WS7FF

$$$$
