D55
 OpenBabel10282417072D

 55 56  0  0  0  0  0  0  0  0999 V2000
   13.8810    7.4877    0.0000 C   0  0  0  0  0  0  0  0  0  0  0  0
   14.5954    7.9002    0.0000 C   0  0  0  0  0  0  0  0  0  0  0  0
   10.3086    5.4252    0.0000 C   0  0  0  0  0  0  0  0  0  0  0  0
    9.5941    5.0127    0.0000 C   0  0  0  0  0  0  0  0  0  0  0  0
   12.4520    6.6627    0.0000 C   0  0  0  0  0  0  0  0  0  0  0  0
   11.7376    6.2502    0.0000 C   0  0  0  0  0  0  0  0  0  0  0  0
   11.7376    5.4252    0.0000 C   0  0  0  0  0  0  0  0  0  0  0  0
   12.4520    5.0127    0.0000 C   0  0  0  0  0  0  0  0  0  0  0  0
   13.1665    5.4252    0.0000 C   0  0  0  0  0  0  0  0  0  0  0  0
   13.8810    5.0127    0.0000 N   0  0  0  0  0  0  0  0  0  0  0  0
   14.5954    5.4252    0.0000 C   0  0  0  0  0  0  0  0  0  0  0  0
   14.5954    6.2502    0.0000 O   0  0  0  0  0  0  0  0  0  0  0  0
   15.3099    5.0127    0.0000 C   0  0  0  0  0  0  0  0  0  0  0  0
   16.0244    5.4252    0.0000 C   0  0  0  0  0  0  0  0  0  0  0  0
   16.7389    5.0127    0.0000 C   0  0  0  0  0  0  0  0  0  0  0  0
   17.4533    5.4252    0.0000 C   0  0  0  0  0  0  0  0  0  0  0  0
   16.7389    4.1877    0.0000 C   0  0  0  0  0  0  0  0  0  0  0  0
   17.4533    3.7752    0.0000 O   0  0  0  0  0  0  0  0  0  0  0  0
   18.1678    4.1877    0.0000 C   0  0  0  0  0  0  0  0  0  0  0  0
   18.8823    3.7752    0.0000 C   0  0  0  0  0  0  0  0  0  0  0  0
   19.5967    4.1877    0.0000 N   0  0  0  0  0  0  0  0  0  0  0  0
   16.0244    3.7752    0.0000 C   0  0  0  0  0  0  0  0  0  0  0  0
   16.0244    2.9502    0.0000 C   0  0  0  0  0  0  0  0  0  0  0  0
   11.0231    5.0127    0.0000 O   0  0  0  0  0  0  0  0  0  0  0  0
   15.3099    4.1877    0.0000 C   0  0  0  0  0  0  0  0  0  0  0  0
   13.8810    6.6627    0.0000 O   0  0  0  0  0  0  0  0  0  0  0  0
   13.1665    6.2502    0.0000 C   0  0  0  0  0  0  0  0  0  0  0  0
   12.9543    8.0227    0.0000 H   0  0  0  0  0  0  0  0  0  0  0  0
   13.8810    8.5577    0.0000 H   0  0  0  0  0  0  0  0  0  0  0  0
   15.5221    7.3652    0.0000 H   0  0  0  0  0  0  0  0  0  0  0  0
   14.5954    8.9702    0.0000 H   0  0  0  0  0  0  0  0  0  0  0  0
   15.5220    8.4352    0.0000 H   0  0  0  0  0  0  0  0  0  0  0  0
   10.3086    6.4952    0.0000 H   0  0  0  0  0  0  0  0  0  0  0  0
   11.2352    5.9602    0.0000 H   0  0  0  0  0  0  0  0  0  0  0  0
    8.6675    5.5477    0.0000 H   0  0  0  0  0  0  0  0  0  0  0  0
    9.5941    3.9427    0.0000 H   0  0  0  0  0  0  0  0  0  0  0  0
    8.6674    4.4777    0.0000 H   0  0  0  0  0  0  0  0  0  0  0  0
   12.4520    7.6947    0.0000 H   0  0  0  0  0  0  0  0  0  0  0  0
   10.8439    6.7662    0.0000 H   0  0  0  0  0  0  0  0  0  0  0  0
   12.4520    3.9807    0.0000 H   0  0  0  0  0  0  0  0  0  0  0  0
   13.8810    4.0282    0.0000 H   0  0  0  0  0  0  0  0  0  0  0  0
   16.0244    6.4572    0.0000 H   0  0  0  0  0  0  0  0  0  0  0  0
   18.3800    4.8902    0.0000 H   0  0  0  0  0  0  0  0  0  0  0  0
   17.4533    6.4952    0.0000 H   0  0  0  0  0  0  0  0  0  0  0  0
   18.3799    5.9602    0.0000 H   0  0  0  0  0  0  0  0  0  0  0  0
   18.1678    5.2577    0.0000 H   0  0  0  0  0  0  0  0  0  0  0  0
   19.0944    4.7227    0.0000 H   0  0  0  0  0  0  0  0  0  0  0  0
   18.8823    2.7052    0.0000 H   0  0  0  0  0  0  0  0  0  0  0  0
   19.8090    3.2402    0.0000 H   0  0  0  0  0  0  0  0  0  0  0  0
   20.4801    3.6777    0.0000 H   0  0  0  0  0  0  0  0  0  0  0  0
   19.5967    5.2077    0.0000 H   0  0  0  0  0  0  0  0  0  0  0  0
   15.0978    2.4152    0.0000 H   0  0  0  0  0  0  0  0  0  0  0  0
   16.9510    2.4152    0.0000 H   0  0  0  0  0  0  0  0  0  0  0  0
   16.0244    1.8802    0.0000 H   0  0  0  0  0  0  0  0  0  0  0  0
   14.4162    3.6717    0.0000 H   0  0  0  0  0  0  0  0  0  0  0  0
  1 26  1  0  0  0  0
  1 28  1  0  0  0  0
  1 29  1  0  0  0  0
  2  1  1  0  0  0  0
  2 30  1  0  0  0  0
  2 31  1  0  0  0  0
  2 32  1  0  0  0  0
  3  4  1  0  0  0  0
  3 24  1  0  0  0  0
  3 33  1  0  0  0  0
  3 34  1  0  0  0  0
  4 35  1  0  0  0  0
  4 36  1  0  0  0  0
  4 37  1  0  0  0  0
  5 27  2  0  0  0  0
  5 38  1  0  0  0  0
  6  5  1  0  0  0  0
  6 39  1  0  0  0  0
  7  6  2  0  0  0  0
  7  8  1  0  0  0  0
  7 24  1  0  0  0  0
  8 40  1  0  0  0  0
  9 10  1  0  0  0  0
  9  8  2  0  0  0  0
 10 11  1  0  0  0  0
 10 41  1  0  0  0  0
 11 12  2  0  0  0  0
 11 13  1  0  0  0  0
 13 14  1  0  0  0  0
 13 25  2  0  0  0  0
 14 15  2  0  0  0  0
 14 42  1  0  0  0  0
 15 16  1  0  0  0  0
 15 17  1  0  0  0  0
 16 43  1  0  0  0  0
 16 44  1  0  0  0  0
 16 45  1  0  0  0  0
 17 18  1  0  0  0  0
 17 22  2  0  0  0  0
 18 19  1  0  0  0  0
 19 20  1  0  0  0  0
 19 46  1  0  0  0  0
 19 47  1  0  0  0  0
 20 21  1  0  0  0  0
 20 48  1  0  0  0  0
 20 49  1  0  0  0  0
 21 50  1  0  0  0  0
 21 51  1  0  0  0  0
 22 23  1  0  0  0  0
 22 25  1  0  0  0  0
 23 52  1  0  0  0  0
 23 53  1  0  0  0  0
 23 54  1  0  0  0  0
 25 55  1  0  0  0  0
 27  9  1  0  0  0  0
 27 26  1  0  0  0  0
M  END
>  <DRUGBANK_ID>
DB07625

>  <COMMON_NAME>
4-(2-aminoethoxy)-N-(2,5-diethoxyphenyl)-3,5-dimethylbenzamide

$$$$
