
 OpenBabel10282417072D

170173  0  0  0  0  0  0  0  0999 V2000
    2.1605    4.1662    0.0000 C   0  0  0  0  0  0  0  0  0  0  0  0
    2.6327    3.2331    0.0000 N   0  0  0  0  0  0  0  0  0  0  0  0
    2.2202    2.5186    0.0000 C   0  0  2  0  0  0  0  0  0  0  0  0
    2.6326    1.8041    0.0000 C   0  0  0  0  0  0  0  0  0  0  0  0
    2.2201    1.0897    0.0000 N   0  0  0  0  0  0  0  0  0  0  0  0
    2.6326    0.3752    0.0000 C   0  0  2  0  0  0  0  0  0  0  0  0
    2.2201   -0.3392    0.0000 C   0  0  0  0  0  0  0  0  0  0  0  0
    2.6326   -1.0537    0.0000 N   0  0  0  0  0  0  0  0  0  0  0  0
    1.0174    2.5186    0.0000 C   0  0  0  0  0  0  0  0  0  0  0  0
   -0.4291    3.9456    0.0000 N   0  0  0  0  0  0  0  0  0  0  0  0
   -2.8488    4.2330    0.0000 C   0  0  2  0  0  0  0  0  0  0  0  0
   -3.3507    3.2701    0.0000 O   0  0  0  0  0  0  0  0  0  0  0  0
   -2.9382    2.5556    0.0000 C   0  0  0  0  0  0  0  0  0  0  0  0
   -3.3507    1.8412    0.0000 C   0  0  1  0  0  0  0  0  0  0  0  0
   -2.9382    1.1267    0.0000 N   0  0  0  0  0  0  0  0  0  0  0  0
   -3.3507    0.4122    0.0000 C   0  0  0  0  0  0  0  0  0  0  0  0
   -2.9382   -0.3022    0.0000 C   0  0  1  0  0  0  0  0  0  0  0  0
   -3.3507   -1.0166    0.0000 N   0  0  0  0  0  0  0  0  0  0  0  0
   -2.9382   -1.7311    0.0000 C   0  0  0  0  0  0  0  0  0  0  0  0
   -3.3507   -2.4456    0.0000 C   0  0  1  0  0  0  0  0  0  0  0  0
   -1.6119    4.6016    0.0000 C   0  0  0  0  0  0  0  0  0  0  0  0
    0.7139    4.5022    0.0000 C   0  0  3  0  0  0  0  0  0  0  0  0
    2.7118    4.7507    0.0000 O   0  0  0  0  0  0  0  0  0  0  0  0
   -1.6119    5.4962    0.0000 O   0  0  0  0  0  0  0  0  0  0  0  0
    0.7163    5.3849    0.0000 C   0  0  0  0  0  0  0  0  0  0  0  0
    1.2812    5.8161    0.0000 C   0  0  0  0  0  0  0  0  0  0  0  0
   -0.1442    5.7170    0.0000 C   0  0  0  0  0  0  0  0  0  0  0  0
    3.4577    1.8041    0.0000 O   0  0  0  0  0  0  0  0  0  0  0  0
    4.0838    0.3752    0.0000 C   0  0  0  0  0  0  0  0  0  0  0  0
    1.3951   -0.3391    0.0000 O   0  0  0  0  0  0  0  0  0  0  0  0
   -2.1132    2.5556    0.0000 O   0  0  0  0  0  0  0  0  0  0  0  0
   -4.1757    1.8412    0.0000 C   0  0  0  0  0  0  0  0  0  0  0  0
   -4.5882    2.5556    0.0000 C   0  0  0  0  0  0  0  0  0  0  0  0
   -4.5882    1.1267    0.0000 C   0  0  0  0  0  0  0  0  0  0  0  0
   -2.1132    1.1267    0.0000 C   0  0  0  0  0  0  0  0  0  0  0  0
   -4.1757    0.4122    0.0000 O   0  0  0  0  0  0  0  0  0  0  0  0
   -2.0536   -0.0537    0.0000 C   0  0  0  0  0  0  0  0  0  0  0  0
   -1.3926   -0.6786    0.0000 C   0  0  0  0  0  0  0  0  0  0  0  0
   -0.4483   -0.6787    0.0000 C   0  0  0  0  0  0  0  0  0  0  0  0
   -1.3975   -1.4826    0.0000 C   0  0  0  0  0  0  0  0  0  0  0  0
    0.6049    1.8041    0.0000 C   0  0  0  0  0  0  0  0  0  0  0  0
    1.0174    1.0897    0.0000 C   0  0  0  0  0  0  0  0  0  0  0  0
   -0.2200    1.8041    0.0000 C   0  0  0  0  0  0  0  0  0  0  0  0
    0.6049    0.3752    0.0000 C   0  0  0  0  0  0  0  0  0  0  0  0
   -0.6325    1.0897    0.0000 C   0  0  0  0  0  0  0  0  0  0  0  0
   -0.2200    0.3752    0.0000 C   0  0  0  0  0  0  0  0  0  0  0  0
   -2.1132   -1.7311    0.0000 O   0  0  0  0  0  0  0  0  0  0  0  0
   -2.9382   -3.1600    0.0000 N   0  0  0  0  0  0  0  0  0  0  0  0
    4.4963    1.0897    0.0000 C   0  0  0  0  0  0  0  0  0  0  0  0
    4.0839    1.8041    0.0000 C   0  0  0  0  0  0  0  0  0  0  0  0
    5.3214    1.0897    0.0000 C   0  0  0  0  0  0  0  0  0  0  0  0
    4.4964    2.5186    0.0000 C   0  0  0  0  0  0  0  0  0  0  0  0
    5.7339    1.8041    0.0000 C   0  0  0  0  0  0  0  0  0  0  0  0
    5.3214    2.5186    0.0000 C   0  0  0  0  0  0  0  0  0  0  0  0
    3.4172   -0.7987    0.0000 C   0  0  0  0  0  0  0  0  0  0  0  0
    2.6326   -1.8787    0.0000 C   0  0  1  0  0  0  0  0  0  0  0  0
    3.9022   -1.4662    0.0000 C   0  0  0  0  0  0  0  0  0  0  0  0
    3.4174   -2.1337    0.0000 C   0  0  0  0  0  0  0  0  0  0  0  0
    1.9652   -2.3636    0.0000 C   0  0  0  0  0  0  0  0  0  0  0  0
    1.2115   -2.0280    0.0000 O   0  0  0  0  0  0  0  0  0  0  0  0
    1.9520   -3.2139    0.0000 N   0  0  0  0  0  0  0  0  0  0  0  0
   -4.1757   -2.4456    0.0000 C   0  0  0  0  0  0  0  0  0  0  0  0
   -4.5882   -1.7311    0.0000 C   0  0  0  0  0  0  0  0  0  0  0  0
   -4.5882   -3.1600    0.0000 C   0  0  0  0  0  0  0  0  0  0  0  0
   -1.2640   -3.1712    0.0000 C   0  0  0  0  0  0  0  0  0  0  0  0
    0.3760   -3.7576    0.0000 C   0  0  1  0  0  0  0  0  0  0  0  0
   -3.5700   -4.0359    0.0000 C   0  0  0  0  0  0  0  0  0  0  0  0
   -0.9261   -2.1474    0.0000 O   0  0  0  0  0  0  0  0  0  0  0  0
    0.3713   -4.5826    0.0000 C   0  0  1  0  0  0  0  0  0  0  0  0
   -0.3453   -4.9911    0.0000 C   0  0  0  0  0  0  0  0  0  0  0  0
    1.0835   -4.9991    0.0000 C   0  0  0  0  0  0  0  0  0  0  0  0
   -1.0575   -4.5745    0.0000 C   0  0  0  0  0  0  0  0  0  0  0  0
   -0.3500   -5.8161    0.0000 C   0  0  0  0  0  0  0  0  0  0  0  0
   -4.0001    4.5612    0.0000 C   0  0  2  0  0  0  0  0  0  0  0  0
   -4.0120    5.4608    0.0000 C   0  0  0  0  0  0  0  0  0  0  0  0
   -4.8113    4.2059    0.0000 C   0  0  0  0  0  0  0  0  0  0  0  0
   -5.7339    4.6209    0.0000 C   0  0  0  0  0  0  0  0  0  0  0  0
    1.5985    1.9278    0.0000 C   0  0  0  0  0  0  0  0  0  0  0  0
    3.6168    3.2060    0.0000 H   0  0  0  0  0  0  0  0  0  0  0  0
    1.6852    3.4452    0.0000 H   0  0  0  0  0  0  0  0  0  0  0  0
    3.1676    1.3018    0.0000 H   0  0  0  0  0  0  0  0  0  0  0  0
    0.4824    3.4452    0.0000 H   0  0  0  0  0  0  0  0  0  0  0  0
   -0.0526    2.5186    0.0000 H   0  0  0  0  0  0  0  0  0  0  0  0
   -0.4553    2.9614    0.0000 H   0  0  0  0  0  0  0  0  0  0  0  0
   -2.1677    3.4077    0.0000 H   0  0  0  0  0  0  0  0  0  0  0  0
   -3.8857    2.7679    0.0000 H   0  0  0  0  0  0  0  0  0  0  0  0
   -2.5347    0.6888    0.0000 H   0  0  0  0  0  0  0  0  0  0  0  0
   -4.3352   -1.0166    0.0000 H   0  0  0  0  0  0  0  0  0  0  0  0
   -3.8857   -1.5190    0.0000 H   0  0  0  0  0  0  0  0  0  0  0  0
    0.8340    3.4390    0.0000 H   0  0  0  0  0  0  0  0  0  0  0  0
    0.5651    6.4442    0.0000 H   0  0  0  0  0  0  0  0  0  0  0  0
    2.2687    5.4041    0.0000 H   0  0  0  0  0  0  0  0  0  0  0  0
    1.1442    6.8773    0.0000 H   0  0  0  0  0  0  0  0  0  0  0  0
    2.1317    6.4653    0.0000 H   0  0  0  0  0  0  0  0  0  0  0  0
   -0.3097    6.7741    0.0000 H   0  0  0  0  0  0  0  0  0  0  0  0
   -0.9770    5.0451    0.0000 H   0  0  0  0  0  0  0  0  0  0  0  0
   -1.1424    6.1023    0.0000 H   0  0  0  0  0  0  0  0  0  0  0  0
    4.6188   -0.5514    0.0000 H   0  0  0  0  0  0  0  0  0  0  0  0
    5.1538    0.3752    0.0000 H   0  0  0  0  0  0  0  0  0  0  0  0
   -5.2457    1.8412    0.0000 H   0  0  0  0  0  0  0  0  0  0  0  0
   -4.0532    3.4823    0.0000 H   0  0  0  0  0  0  0  0  0  0  0  0
   -5.6582    2.5556    0.0000 H   0  0  0  0  0  0  0  0  0  0  0  0
   -5.1232    3.4822    0.0000 H   0  0  0  0  0  0  0  0  0  0  0  0
   -5.6582    1.1267    0.0000 H   0  0  0  0  0  0  0  0  0  0  0  0
   -4.0532    0.2001    0.0000 H   0  0  0  0  0  0  0  0  0  0  0  0
   -5.1232    0.2000    0.0000 H   0  0  0  0  0  0  0  0  0  0  0  0
   -1.5782    0.2001    0.0000 H   0  0  0  0  0  0  0  0  0  0  0  0
   -1.5782    2.0533    0.0000 H   0  0  0  0  0  0  0  0  0  0  0  0
   -1.0432    1.1267    0.0000 H   0  0  0  0  0  0  0  0  0  0  0  0
   -1.7975    0.9852    0.0000 H   0  0  0  0  0  0  0  0  0  0  0  0
   -1.0270    0.2480    0.0000 H   0  0  0  0  0  0  0  0  0  0  0  0
   -0.6383   -1.4375    0.0000 H   0  0  0  0  0  0  0  0  0  0  0  0
    0.0866   -1.6054    0.0000 H   0  0  0  0  0  0  0  0  0  0  0  0
    0.0868    0.2479    0.0000 H   0  0  0  0  0  0  0  0  0  0  0  0
    0.6217   -0.6788    0.0000 H   0  0  0  0  0  0  0  0  0  0  0  0
   -2.3274   -2.0119    0.0000 H   0  0  0  0  0  0  0  0  0  0  0  0
   -0.4741   -2.0232    0.0000 H   0  0  0  0  0  0  0  0  0  0  0  0
   -1.4040   -2.5526    0.0000 H   0  0  0  0  0  0  0  0  0  0  0  0
    2.0494    1.0897    0.0000 H   0  0  0  0  0  0  0  0  0  0  0  0
   -0.7360    2.6978    0.0000 H   0  0  0  0  0  0  0  0  0  0  0  0
    1.1209   -0.5185    0.0000 H   0  0  0  0  0  0  0  0  0  0  0  0
   -1.6645    1.0897    0.0000 H   0  0  0  0  0  0  0  0  0  0  0  0
   -0.7360   -0.5185    0.0000 H   0  0  0  0  0  0  0  0  0  0  0  0
    3.0519    1.8041    0.0000 H   0  0  0  0  0  0  0  0  0  0  0  0
    5.8374    0.1960    0.0000 H   0  0  0  0  0  0  0  0  0  0  0  0
    3.9804    3.4123    0.0000 H   0  0  0  0  0  0  0  0  0  0  0  0
    6.7659    1.8041    0.0000 H   0  0  0  0  0  0  0  0  0  0  0  0
    5.8374    3.4123    0.0000 H   0  0  0  0  0  0  0  0  0  0  0  0
    3.7478    0.2189    0.0000 H   0  0  0  0  0  0  0  0  0  0  0  0
    4.4740   -0.6313    0.0000 H   0  0  0  0  0  0  0  0  0  0  0  0
    1.6792   -1.3929    0.0000 H   0  0  0  0  0  0  0  0  0  0  0  0
    4.9722   -1.4661    0.0000 H   0  0  0  0  0  0  0  0  0  0  0  0
    4.3881   -2.4195    0.0000 H   0  0  0  0  0  0  0  0  0  0  0  0
    3.7481   -3.1513    0.0000 H   0  0  0  0  0  0  0  0  0  0  0  0
    4.4742   -2.3010    0.0000 H   0  0  0  0  0  0  0  0  0  0  0  0
    2.7492   -3.7916    0.0000 H   0  0  0  0  0  0  0  0  0  0  0  0
   -5.2457   -2.4456    0.0000 H   0  0  0  0  0  0  0  0  0  0  0  0
   -4.0532   -0.8045    0.0000 H   0  0  0  0  0  0  0  0  0  0  0  0
   -5.6582   -1.7311    0.0000 H   0  0  0  0  0  0  0  0  0  0  0  0
   -5.1232   -0.8044    0.0000 H   0  0  0  0  0  0  0  0  0  0  0  0
   -5.6582   -3.1600    0.0000 H   0  0  0  0  0  0  0  0  0  0  0  0
   -4.0532   -4.0867    0.0000 H   0  0  0  0  0  0  0  0  0  0  0  0
   -5.1232   -4.0866    0.0000 H   0  0  0  0  0  0  0  0  0  0  0  0
    0.3820   -2.6876    0.0000 H   0  0  0  0  0  0  0  0  0  0  0  0
   -4.6345   -3.9277    0.0000 H   0  0  0  0  0  0  0  0  0  0  0  0
   -3.1314   -5.0119    0.0000 H   0  0  0  0  0  0  0  0  0  0  0  0
   -4.1960   -4.9037    0.0000 H   0  0  0  0  0  0  0  0  0  0  0  0
    1.3009   -4.0528    0.0000 H   0  0  0  0  0  0  0  0  0  0  0  0
   -1.2750   -5.5208    0.0000 H   0  0  0  0  0  0  0  0  0  0  0  0
    1.0775   -6.0691    0.0000 H   0  0  0  0  0  0  0  0  0  0  0  0
    2.0131   -4.4693    0.0000 H   0  0  0  0  0  0  0  0  0  0  0  0
    2.0072   -5.5393    0.0000 H   0  0  0  0  0  0  0  0  0  0  0  0
   -1.0514   -3.5045    0.0000 H   0  0  0  0  0  0  0  0  0  0  0  0
   -1.9872   -5.1042    0.0000 H   0  0  0  0  0  0  0  0  0  0  0  0
   -1.9811   -4.0342    0.0000 H   0  0  0  0  0  0  0  0  0  0  0  0
   -1.2797   -6.3458    0.0000 H   0  0  0  0  0  0  0  0  0  0  0  0
    0.5736   -6.3564    0.0000 H   0  0  0  0  0  0  0  0  0  0  0  0
   -0.3561   -6.8861    0.0000 H   0  0  0  0  0  0  0  0  0  0  0  0
   -3.1503    5.2114    0.0000 H   0  0  0  0  0  0  0  0  0  0  0  0
   -3.0925    6.0080    0.0000 H   0  0  0  0  0  0  0  0  0  0  0  0
   -4.9456    5.9835    0.0000 H   0  0  0  0  0  0  0  0  0  0  0  0
   -4.0262    6.5307    0.0000 H   0  0  0  0  0  0  0  0  0  0  0  0
   -4.8166    3.1359    0.0000 H   0  0  0  0  0  0  0  0  0  0  0  0
   -5.7112    3.6271    0.0000 H   0  0  0  0  0  0  0  0  0  0  0  0
   -5.8417    5.6855    0.0000 H   0  0  0  0  0  0  0  0  0  0  0  0
   -6.6019    3.9953    0.0000 H   0  0  0  0  0  0  0  0  0  0  0  0
   -6.7097    5.0598    0.0000 H   0  0  0  0  0  0  0  0  0  0  0  0
    2.0241    2.9095    0.0000 H   0  0  0  0  0  0  0  0  0  0  0  0
    0.5355    1.8055    0.0000 H   0  0  0  0  0  0  0  0  0  0  0  0
    0.9611    2.7872    0.0000 H   0  0  0  0  0  0  0  0  0  0  0  0
  1 22  1  0  0  0  0
  1 23  2  0  0  0  0
  2  1  1  0  0  0  0
  2 79  1  0  0  0  0
  3  2  1  0  0  0  0
  3  9  1  0  0  0  0
  3 80  1  1  0  0  0
  4  3  1  0  0  0  0
  4 28  2  0  0  0  0
  5  4  1  0  0  0  0
  5 78  1  0  0  0  0
  6  5  1  0  0  0  0
  6 29  1  0  0  0  0
  6 81  1  6  0  0  0
  7  6  1  0  0  0  0
  7 30  2  0  0  0  0
  8  7  1  0  0  0  0
  9 41  1  0  0  0  0
  9 82  1  0  0  0  0
  9 83  1  0  0  0  0
 10 21  1  0  0  0  0
 10 22  1  0  0  0  0
 10 84  1  0  0  0  0
 11 12  1  0  0  0  0
 11 21  1  0  0  0  0
 11 74  1  0  0  0  0
 11 85  1  6  0  0  0
 13 12  1  0  0  0  0
 13 31  2  0  0  0  0
 14 13  1  0  0  0  0
 14 32  1  0  0  0  0
 14 86  1  6  0  0  0
 15 14  1  0  0  0  0
 15 35  1  0  0  0  0
 16 15  1  0  0  0  0
 16 36  2  0  0  0  0
 17 16  1  0  0  0  0
 17 37  1  0  0  0  0
 17 87  1  1  0  0  0
 18 17  1  0  0  0  0
 18 88  1  0  0  0  0
 19 18  1  0  0  0  0
 19 47  2  0  0  0  0
 20 19  1  0  0  0  0
 20 48  1  0  0  0  0
 20 62  1  0  0  0  0
 20 89  1  6  0  0  0
 21 24  2  0  0  0  0
 22 25  1  0  0  0  0
 22 90  1  0  0  0  0
 25 26  1  0  0  0  0
 25 27  1  0  0  0  0
 25 91  1  0  0  0  0
 26 92  1  0  0  0  0
 26 93  1  0  0  0  0
 26 94  1  0  0  0  0
 27 95  1  0  0  0  0
 27 96  1  0  0  0  0
 27 97  1  0  0  0  0
 29 49  1  0  0  0  0
 29 98  1  0  0  0  0
 29 99  1  0  0  0  0
 32 33  1  0  0  0  0
 32 34  1  0  0  0  0
 32100  1  0  0  0  0
 33101  1  0  0  0  0
 33102  1  0  0  0  0
 33103  1  0  0  0  0
 34104  1  0  0  0  0
 34105  1  0  0  0  0
 34106  1  0  0  0  0
 35107  1  0  0  0  0
 35108  1  0  0  0  0
 35109  1  0  0  0  0
 37 38  1  0  0  0  0
 37110  1  0  0  0  0
 37111  1  0  0  0  0
 38 39  1  0  0  0  0
 38 40  1  0  0  0  0
 38112  1  0  0  0  0
 39113  1  0  0  0  0
 39114  1  0  0  0  0
 39115  1  0  0  0  0
 40116  1  0  0  0  0
 40117  1  0  0  0  0
 40118  1  0  0  0  0
 42 41  1  0  0  0  0
 42119  1  0  0  0  0
 43 41  2  0  0  0  0
 43120  1  0  0  0  0
 44 42  2  0  0  0  0
 44121  1  0  0  0  0
 45 43  1  0  0  0  0
 45122  1  0  0  0  0
 46 44  1  0  0  0  0
 46 45  2  0  0  0  0
 46123  1  0  0  0  0
 48 65  1  0  0  0  0
 48 67  1  0  0  0  0
 50 49  1  0  0  0  0
 50124  1  0  0  0  0
 51 49  2  0  0  0  0
 51125  1  0  0  0  0
 52 50  2  0  0  0  0
 52126  1  0  0  0  0
 53 51  1  0  0  0  0
 53127  1  0  0  0  0
 54 52  1  0  0  0  0
 54 53  2  0  0  0  0
 54128  1  0  0  0  0
 55  8  1  0  0  0  0
 55129  1  0  0  0  0
 55130  1  0  0  0  0
 56  8  1  0  0  0  0
 56 59  1  0  0  0  0
 56131  1  6  0  0  0
 57 55  1  0  0  0  0
 57132  1  0  0  0  0
 57133  1  0  0  0  0
 58 56  1  0  0  0  0
 58 57  1  0  0  0  0
 58134  1  0  0  0  0
 58135  1  0  0  0  0
 59 60  2  0  0  0  0
 59 61  1  0  0  0  0
 61136  1  0  0  0  0
 62 63  1  0  0  0  0
 62 64  1  0  0  0  0
 62137  1  0  0  0  0
 63138  1  0  0  0  0
 63139  1  0  0  0  0
 63140  1  0  0  0  0
 64141  1  0  0  0  0
 64142  1  0  0  0  0
 64143  1  0  0  0  0
 65 66  1  0  0  0  0
 65 68  2  0  0  0  0
 66 61  1  0  0  0  0
 66 69  1  0  0  0  0
 66144  1  1  0  0  0
 67145  1  0  0  0  0
 67146  1  0  0  0  0
 67147  1  0  0  0  0
 69 70  1  0  0  0  0
 69 71  1  0  0  0  0
 69148  1  1  0  0  0
 70 72  1  0  0  0  0
 70 73  1  0  0  0  0
 70149  1  0  0  0  0
 71150  1  0  0  0  0
 71151  1  0  0  0  0
 71152  1  0  0  0  0
 72153  1  0  0  0  0
 72154  1  0  0  0  0
 72155  1  0  0  0  0
 73156  1  0  0  0  0
 73157  1  0  0  0  0
 73158  1  0  0  0  0
 74 75  1  0  0  0  0
 74 76  1  0  0  0  0
 74159  1  6  0  0  0
 75160  1  0  0  0  0
 75161  1  0  0  0  0
 75162  1  0  0  0  0
 76 77  1  0  0  0  0
 76163  1  0  0  0  0
 76164  1  0  0  0  0
 77165  1  0  0  0  0
 77166  1  0  0  0  0
 77167  1  0  0  0  0
 78168  1  0  0  0  0
 78169  1  0  0  0  0
 78170  1  0  0  0  0
M  END
>  <DRUGBANK_ID>
DB14058

>  <COMMON_NAME>
Basifungin

>  <CAS_NUMBER>
127785-64-2

>  <UNII>
VV0USO6I6U

>  <SYNONYMS>
Aureobasidin A; Basifungin

$$$$
