
 OpenBabel10282417072D

112113  0  0  0  0  0  0  0  0999 V2000
    1.1188   -0.3644    0.0000 O   0  0  0  0  0  0  0  0  0  0  0  0
    0.8550   -3.6333    0.0000 O   0  0  0  0  0  0  0  0  0  0  0  0
   -2.7515    0.9641    0.0000 O   0  0  0  0  0  0  0  0  0  0  0  0
    3.2664    1.9684    0.0000 O   0  0  0  0  0  0  0  0  0  0  0  0
    3.1786    4.9443    0.0000 O   0  0  0  0  0  0  0  0  0  0  0  0
   -3.6346    3.8074    0.0000 O   0  0  0  0  0  0  0  0  0  0  0  0
    3.7526    3.6357    0.0000 O   0  0  0  0  0  0  0  0  0  0  0  0
   -3.7526    2.3832    0.0000 O   0  0  0  0  0  0  0  0  0  0  0  0
   -1.5482    5.7159    0.0000 O   0  0  0  0  0  0  0  0  0  0  0  0
    1.6227    5.7159    0.0000 O   0  0  0  0  0  0  0  0  0  0  0  0
    0.0372    0.2800    0.0000 N   0  0  0  0  0  0  0  0  0  0  0  0
    2.1353    1.4154    0.0000 N   0  0  0  0  0  0  0  0  0  0  0  0
   -2.3922    2.1710    0.0000 N   0  0  0  0  0  0  0  0  0  0  0  0
    1.8811    4.4836    0.0000 N   0  0  0  0  0  0  0  0  0  0  0  0
   -0.3752    5.2582    0.0000 N   0  0  0  0  0  0  0  0  0  0  0  0
    1.5766    0.8085    0.0000 C   0  0  1  0  0  0  0  0  0  0  0  0
   -0.7765    0.4158    0.0000 C   0  0  2  0  0  0  0  0  0  0  0  0
    2.0833    0.1574    0.0000 C   0  0  0  0  0  0  0  0  0  0  0  0
   -1.5021    0.8085    0.0000 C   0  0  1  0  0  0  0  0  0  0  0  0
    0.8510    0.4158    0.0000 C   0  0  0  0  0  0  0  0  0  0  0  0
    2.5348    2.9931    0.0000 C   0  0  2  0  0  0  0  0  0  0  0  0
   -1.0443   -0.3644    0.0000 C   0  0  0  0  0  0  0  0  0  0  0  0
    2.9004    0.2707    0.0000 C   0  0  0  0  0  0  0  0  0  0  0  0
    1.7728   -0.6069    0.0000 C   0  0  0  0  0  0  0  0  0  0  0  0
   -2.0608    1.4154    0.0000 C   0  0  0  0  0  0  0  0  0  0  0  0
    2.4667    2.1710    0.0000 C   0  0  0  0  0  0  0  0  0  0  0  0
    2.3323    3.7929    0.0000 C   0  0  2  0  0  0  0  0  0  0  0  0
   -2.0088    0.1574    0.0000 C   0  0  0  0  0  0  0  0  0  0  0  0
   -0.4964   -3.1694    0.0000 C   0  0  2  0  0  0  0  0  0  0  0  0
    0.0452   -3.7915    0.0000 C   0  0  2  0  0  0  0  0  0  0  0  0
   -2.4604    2.9931    0.0000 C   0  0  2  0  0  0  0  0  0  0  0  0
   -2.2578    3.7929    0.0000 C   0  0  0  0  0  0  0  0  0  0  0  0
   -0.5025   -0.9866    0.0000 C   0  0  0  0  0  0  0  0  0  0  0  0
    3.3570    3.0612    0.0000 C   0  0  0  0  0  0  0  0  0  0  0  0
   -0.2225   -4.5718    0.0000 C   0  0  0  0  0  0  0  0  0  0  0  0
   -0.2286   -2.3890    0.0000 C   0  0  0  0  0  0  0  0  0  0  0  0
   -0.7704   -1.7669    0.0000 C   0  0  0  0  0  0  0  0  0  0  0  0
   -1.3062   -3.3276    0.0000 C   0  0  0  0  0  0  0  0  0  0  0  0
   -1.8066    4.4836    0.0000 C   0  0  0  0  0  0  0  0  0  0  0  0
    3.0878    4.1243    0.0000 C   0  0  0  0  0  0  0  0  0  0  0  0
    0.3192   -5.1940    0.0000 C   0  0  0  0  0  0  0  0  0  0  0  0
   -3.2825    3.0612    0.0000 C   0  0  0  0  0  0  0  0  0  0  0  0
   -1.5801   -1.9250    0.0000 C   0  0  0  0  0  0  0  0  0  0  0  0
   -1.1555    4.9903    0.0000 C   0  0  0  0  0  0  0  0  0  0  0  0
    1.2300    4.9903    0.0000 C   0  0  0  0  0  0  0  0  0  0  0  0
    0.4497    5.2582    0.0000 C   0  0  0  0  0  0  0  0  0  0  0  0
    1.1289   -5.0358    0.0000 C   0  0  0  0  0  0  0  0  0  0  0  0
    0.0513   -5.9743    0.0000 C   0  0  0  0  0  0  0  0  0  0  0  0
    1.3968   -4.2555    0.0000 C   0  0  0  0  0  0  0  0  0  0  0  0
   -0.5110    6.0720    0.0000 C   0  0  0  0  0  0  0  0  0  0  0  0
    0.5855    6.0720    0.0000 C   0  0  0  0  0  0  0  0  0  0  0  0
    1.6708   -5.6580    0.0000 C   0  0  0  0  0  0  0  0  0  0  0  0
    0.5931   -6.5964    0.0000 C   0  0  0  0  0  0  0  0  0  0  0  0
    1.4029   -6.4383    0.0000 C   0  0  0  0  0  0  0  0  0  0  0  0
   -0.0513    6.5964    0.0000 C   0  0  0  0  0  0  0  0  0  0  0  0
    0.0372   -0.2314    0.0000 H   0  0  0  0  0  0  0  0  0  0  0  0
    2.5635    1.1357    0.0000 H   0  0  0  0  0  0  0  0  0  0  0  0
   -2.8881    2.0454    0.0000 H   0  0  0  0  0  0  0  0  0  0  0  0
    2.2574    4.8300    0.0000 H   0  0  0  0  0  0  0  0  0  0  0  0
    4.0367    5.3206    0.0000 H   0  0  0  0  0  0  0  0  0  0  0  0
   -3.1007    4.5774    0.0000 H   0  0  0  0  0  0  0  0  0  0  0  0
    2.6457    0.7642    0.0000 H   0  0  0  0  0  0  0  0  0  0  0  0
   -0.2288   -0.5034    0.0000 H   0  0  0  0  0  0  0  0  0  0  0  0
    2.7405   -0.6870    0.0000 H   0  0  0  0  0  0  0  0  0  0  0  0
   -1.2825   -0.2387    0.0000 H   0  0  0  0  0  0  0  0  0  0  0  0
    3.2914    2.2365    0.0000 H   0  0  0  0  0  0  0  0  0  0  0  0
   -2.0572   -0.5622    0.0000 H   0  0  0  0  0  0  0  0  0  0  0  0
    3.5576   -0.5737    0.0000 H   0  0  0  0  0  0  0  0  0  0  0  0
    3.3031    1.2620    0.0000 H   0  0  0  0  0  0  0  0  0  0  0  0
    3.9603    0.4177    0.0000 H   0  0  0  0  0  0  0  0  0  0  0  0
    0.7129   -0.7538    0.0000 H   0  0  0  0  0  0  0  0  0  0  0  0
    2.4299   -1.4513    0.0000 H   0  0  0  0  0  0  0  0  0  0  0  0
    1.3701   -1.5982    0.0000 H   0  0  0  0  0  0  0  0  0  0  0  0
    2.6376    4.8184    0.0000 H   0  0  0  0  0  0  0  0  0  0  0  0
   -3.0687    0.3043    0.0000 H   0  0  0  0  0  0  0  0  0  0  0  0
   -1.6061   -0.8339    0.0000 H   0  0  0  0  0  0  0  0  0  0  0  0
   -2.6659   -0.6870    0.0000 H   0  0  0  0  0  0  0  0  0  0  0  0
   -0.8439   -4.1814    0.0000 H   0  0  0  0  0  0  0  0  0  0  0  0
    0.3927   -2.7795    0.0000 H   0  0  0  0  0  0  0  0  0  0  0  0
   -3.2170    2.2365    0.0000 H   0  0  0  0  0  0  0  0  0  0  0  0
   -3.2377    4.2227    0.0000 H   0  0  0  0  0  0  0  0  0  0  0  0
   -2.5631    4.8184    0.0000 H   0  0  0  0  0  0  0  0  0  0  0  0
    0.5104   -0.7888    0.0000 H   0  0  0  0  0  0  0  0  0  0  0  0
    3.9667    2.1819    0.0000 H   0  0  0  0  0  0  0  0  0  0  0  0
    3.8137    4.0288    0.0000 H   0  0  0  0  0  0  0  0  0  0  0  0
    4.4233    3.1495    0.0000 H   0  0  0  0  0  0  0  0  0  0  0  0
   -1.2726   -4.7770    0.0000 H   0  0  0  0  0  0  0  0  0  0  0  0
   -0.5700   -5.5838    0.0000 H   0  0  0  0  0  0  0  0  0  0  0  0
    0.7842   -2.1911    0.0000 H   0  0  0  0  0  0  0  0  0  0  0  0
   -2.0089   -2.5207    0.0000 H   0  0  0  0  0  0  0  0  0  0  0  0
   -1.6536   -4.3396    0.0000 H   0  0  0  0  0  0  0  0  0  0  0  0
   -2.3563   -3.5328    0.0000 H   0  0  0  0  0  0  0  0  0  0  0  0
   -2.5938    5.2083    0.0000 H   0  0  0  0  0  0  0  0  0  0  0  0
   -1.7623    5.5527    0.0000 H   0  0  0  0  0  0  0  0  0  0  0  0
   -2.2828   -1.1181    0.0000 H   0  0  0  0  0  0  0  0  0  0  0  0
   -1.9276   -2.9370    0.0000 H   0  0  0  0  0  0  0  0  0  0  0  0
   -2.6303   -2.1301    0.0000 H   0  0  0  0  0  0  0  0  0  0  0  0
    1.4640   -4.0597    0.0000 H   0  0  0  0  0  0  0  0  0  0  0  0
   -0.9616   -6.1721    0.0000 H   0  0  0  0  0  0  0  0  0  0  0  0
    1.0493   -5.2675    0.0000 H   0  0  0  0  0  0  0  0  0  0  0  0
    2.4470   -4.0504    0.0000 H   0  0  0  0  0  0  0  0  0  0  0  0
    2.0995   -5.0624    0.0000 H   0  0  0  0  0  0  0  0  0  0  0  0
    0.3150    6.7522    0.0000 H   0  0  0  0  0  0  0  0  0  0  0  0
   -1.5131    6.4472    0.0000 H   0  0  0  0  0  0  0  0  0  0  0  0
   -0.6871    7.1274    0.0000 H   0  0  0  0  0  0  0  0  0  0  0  0
    1.5520    6.4339    0.0000 H   0  0  0  0  0  0  0  0  0  0  0  0
    2.6837   -5.4602    0.0000 H   0  0  0  0  0  0  0  0  0  0  0  0
    0.2580   -7.5725    0.0000 H   0  0  0  0  0  0  0  0  0  0  0  0
    2.0806   -7.2166    0.0000 H   0  0  0  0  0  0  0  0  0  0  0  0
    0.1248    7.6518    0.0000 H   0  0  0  0  0  0  0  0  0  0  0  0
   -1.0534    6.2212    0.0000 H   0  0  0  0  0  0  0  0  0  0  0  0
   -0.8773    7.2766    0.0000 H   0  0  0  0  0  0  0  0  0  0  0  0
  1 20  2  0  0  0  0
  2 49  1  0  0  0  0
  3 25  2  0  0  0  0
  4 26  2  0  0  0  0
  5 40  1  0  0  0  0
  5 60  1  0  0  0  0
  6 42  1  0  0  0  0
  6 61  1  0  0  0  0
  7 40  2  0  0  0  0
  8 42  2  0  0  0  0
  9 44  2  0  0  0  0
 10 45  2  0  0  0  0
 11 17  1  0  0  0  0
 11 20  1  0  0  0  0
 11 56  1  0  0  0  0
 12 16  1  0  0  0  0
 12 26  1  0  0  0  0
 12 57  1  0  0  0  0
 13 25  1  0  0  0  0
 13 31  1  0  0  0  0
 13 58  1  0  0  0  0
 14 27  1  0  0  0  0
 14 45  1  0  0  0  0
 14 59  1  0  0  0  0
 15 44  1  0  0  0  0
 15 46  1  0  0  0  0
 15 50  1  0  0  0  0
 16 18  1  0  0  0  0
 16 20  1  0  0  0  0
 16 62  1  6  0  0  0
 17 19  1  0  0  0  0
 17 22  1  0  0  0  0
 17 63  1  6  0  0  0
 18 23  1  0  0  0  0
 18 24  1  0  0  0  0
 18 64  1  0  0  0  0
 19 25  1  0  0  0  0
 19 28  1  0  0  0  0
 19 65  1  1  0  0  0
 21 26  1  0  0  0  0
 21 27  1  0  0  0  0
 21 34  1  0  0  0  0
 21 66  1  1  0  0  0
 22 33  2  0  0  0  0
 22 67  1  0  0  0  0
 23 68  1  0  0  0  0
 23 69  1  0  0  0  0
 23 70  1  0  0  0  0
 24 71  1  0  0  0  0
 24 72  1  0  0  0  0
 24 73  1  0  0  0  0
 27 40  1  0  0  0  0
 27 74  1  6  0  0  0
 28 75  1  0  0  0  0
 28 76  1  0  0  0  0
 28 77  1  0  0  0  0
 29 30  1  0  0  0  0
 29 36  1  0  0  0  0
 29 38  1  0  0  0  0
 29 78  1  6  0  0  0
 30  2  1  0  0  0  0
 30 35  1  0  0  0  0
 30 79  1  6  0  0  0
 31 32  1  0  0  0  0
 31 42  1  0  0  0  0
 31 80  1  6  0  0  0
 32 39  1  0  0  0  0
 32 81  1  0  0  0  0
 32 82  1  0  0  0  0
 33 37  1  0  0  0  0
 33 83  1  0  0  0  0
 34 84  1  0  0  0  0
 34 85  1  0  0  0  0
 34 86  1  0  0  0  0
 35 41  1  0  0  0  0
 35 87  1  0  0  0  0
 35 88  1  0  0  0  0
 36 37  2  0  0  0  0
 36 89  1  0  0  0  0
 37 43  1  0  0  0  0
 38 90  1  0  0  0  0
 38 91  1  0  0  0  0
 38 92  1  0  0  0  0
 39 44  1  0  0  0  0
 39 93  1  0  0  0  0
 39 94  1  0  0  0  0
 41 47  2  0  0  0  0
 41 48  1  0  0  0  0
 43 95  1  0  0  0  0
 43 96  1  0  0  0  0
 43 97  1  0  0  0  0
 45 46  1  0  0  0  0
 46 51  2  0  0  0  0
 47 52  1  0  0  0  0
 47 98  1  0  0  0  0
 48 53  2  0  0  0  0
 48 99  1  0  0  0  0
 49100  1  0  0  0  0
 49101  1  0  0  0  0
 49102  1  0  0  0  0
 50103  1  0  0  0  0
 50104  1  0  0  0  0
 50105  1  0  0  0  0
 51 55  1  0  0  0  0
 51106  1  0  0  0  0
 52 54  2  0  0  0  0
 52107  1  0  0  0  0
 53 54  1  0  0  0  0
 53108  1  0  0  0  0
 54109  1  0  0  0  0
 55110  1  0  0  0  0
 55111  1  0  0  0  0
 55112  1  0  0  0  0
M  END
>  <DRUGBANK_ID>
DB04738

>  <COMMON_NAME>
Motuporin

>  <CAS_NUMBER>
141672-08-4

>  <SYNONYMS>
(-)-Motuporin; Nodularin V

$$$$
