
 OpenBabel10282417072D

 14 14  0  0  0  0  0  0  0  0999 V2000
   -0.3572   -0.8250    0.0000 C   0  0  0  0  0  0  0  0  0  0  0  0
    0.3572   -1.2374    0.0000 N   0  0  0  0  0  0  0  0  0  0  0  0
   -0.3572    0.0000    0.0000 N   0  0  0  0  0  0  0  0  0  0  0  0
    0.3572    0.4125    0.0000 C   0  0  0  0  0  0  0  0  0  0  0  0
    1.0717    0.0000    0.0000 C   0  0  0  0  0  0  0  0  0  0  0  0
    1.0717   -0.8250    0.0000 C   0  0  0  0  0  0  0  0  0  0  0  0
    0.3572    1.2374    0.0000 O   0  0  0  0  0  0  0  0  0  0  0  0
   -1.0716   -1.2374    0.0000 O   0  0  0  0  0  0  0  0  0  0  0  0
    0.3572   -2.2219    0.0000 H   0  0  0  0  0  0  0  0  0  0  0  0
   -1.2098    0.4922    0.0000 H   0  0  0  0  0  0  0  0  0  0  0  0
    1.9983    0.5350    0.0000 H   0  0  0  0  0  0  0  0  0  0  0  0
    1.9983   -0.5350    0.0000 H   0  0  0  0  0  0  0  0  0  0  0  0
    1.9983   -1.3601    0.0000 H   0  0  0  0  0  0  0  0  0  0  0  0
    1.0716   -1.8950    0.0000 H   0  0  0  0  0  0  0  0  0  0  0  0
  1  3  1  0  0  0  0
  2  1  1  0  0  0  0
  2  9  1  0  0  0  0
  3 10  1  0  0  0  0
  4  3  1  0  0  0  0
  5  4  1  0  0  0  0
  5 11  1  0  0  0  0
  5 12  1  0  0  0  0
  6  5  1  0  0  0  0
  6  2  1  0  0  0  0
  6 13  1  0  0  0  0
  6 14  1  0  0  0  0
  7  4  2  0  0  0  0
  8  1  2  0  0  0  0
M  END
>  <DRUGBANK_ID>
DB01849

>  <SECONDARY_ACCESSION_NUMBERS>
EXPT01296

>  <COMMON_NAME>
Dihydrouracil

>  <CAS_NUMBER>
504-07-4

>  <UNII>
016FR52RU5

>  <SYNONYMS>
2,4-Dioxotetrahydropyrimidine; 5,6-Dihydro-2,4-dihydroxypyrimidine; 5,6-dihydrouracil; Dihydro-2,4(1H,3H)-pyrimidinedione; Dihydrouracile; Hydrouracil

$$$$
