
 OpenBabel10282417072D

 56 60  0  0  0  0  0  0  0  0999 V2000
    3.0977   11.7924    0.0000 C   0  0  0  0  0  0  0  0  0  0  0  0
    2.5457   11.1793    0.0000 C   0  0  0  0  0  0  0  0  0  0  0  0
    1.7387   11.3509    0.0000 C   0  0  0  0  0  0  0  0  0  0  0  0
    1.1867   10.7378    0.0000 C   0  0  0  0  0  0  0  0  0  0  0  0
    1.4416    9.9531    0.0000 C   0  0  0  0  0  0  0  0  0  0  0  0
    2.2486    9.7816    0.0000 N   0  0  0  0  0  0  0  0  0  0  0  0
    2.8007   10.3947    0.0000 C   0  0  0  0  0  0  0  0  0  0  0  0
    3.6076   10.2232    0.0000 N   0  0  0  0  0  0  0  0  0  0  0  0
    3.8626    9.4386    0.0000 C   0  0  0  0  0  0  0  0  0  0  0  0
    3.3105    8.8255    0.0000 C   0  0  0  0  0  0  0  0  0  0  0  0
    2.5036    8.9970    0.0000 C   0  0  0  0  0  0  0  0  0  0  0  0
    1.9515    8.3839    0.0000 O   0  0  0  0  0  0  0  0  0  0  0  0
    3.5655    8.0408    0.0000 C   0  0  0  0  0  0  0  0  0  0  0  0
    4.3724    7.8693    0.0000 C   0  0  0  0  0  0  0  0  0  0  0  0
    4.6274    7.0847    0.0000 N   0  0  0  0  0  0  0  0  0  0  0  0
    5.4344    6.9132    0.0000 C   0  0  0  0  0  0  0  0  0  0  0  0
    5.6893    6.1285    0.0000 C   0  0  0  0  0  0  0  0  0  0  0  0
    5.1373    5.5155    0.0000 C   0  0  0  0  0  0  0  0  0  0  0  0
    4.3303    5.6870    0.0000 C   0  0  0  0  0  0  0  0  0  0  0  0
    4.0753    6.4716    0.0000 C   0  0  0  0  0  0  0  0  0  0  0  0
    5.3922    4.7308    0.0000 C   0  0  0  0  0  0  0  0  0  0  0  0
    6.1768    4.4759    0.0000 C   0  0  0  0  0  0  0  0  0  0  0  0
    6.8913    4.8884    0.0000 C   0  0  0  0  0  0  0  0  0  0  0  0
    7.6058    4.4759    0.0000 C   0  0  0  0  0  0  0  0  0  0  0  0
    7.6058    3.6509    0.0000 C   0  0  0  0  0  0  0  0  0  0  0  0
    6.8913    3.2384    0.0000 C   0  0  0  0  0  0  0  0  0  0  0  0
    6.1768    3.6509    0.0000 C   0  0  0  0  0  0  0  0  0  0  0  0
    5.3922    3.3960    0.0000 O   0  0  0  0  0  0  0  0  0  0  0  0
    4.9073    4.0634    0.0000 N   0  0  0  0  0  0  0  0  0  0  0  0
    8.3202    3.2384    0.0000 F   0  0  0  0  0  0  0  0  0  0  0  0
    4.6695    9.2670    0.0000 C   0  0  0  0  0  0  0  0  0  0  0  0
    4.1443   11.5700    0.0000 H   0  0  0  0  0  0  0  0  0  0  0  0
    2.7670   12.8100    0.0000 H   0  0  0  0  0  0  0  0  0  0  0  0
    3.8136   12.5876    0.0000 H   0  0  0  0  0  0  0  0  0  0  0  0
    1.4198   12.3324    0.0000 H   0  0  0  0  0  0  0  0  0  0  0  0
    0.1773   10.9524    0.0000 H   0  0  0  0  0  0  0  0  0  0  0  0
    0.7510    9.1862    0.0000 H   0  0  0  0  0  0  0  0  0  0  0  0
    2.8496    7.2456    0.0000 H   0  0  0  0  0  0  0  0  0  0  0  0
    3.8962    7.0232    0.0000 H   0  0  0  0  0  0  0  0  0  0  0  0
    5.0883    8.6645    0.0000 H   0  0  0  0  0  0  0  0  0  0  0  0
    5.4190    7.6469    0.0000 H   0  0  0  0  0  0  0  0  0  0  0  0
    6.1504    7.7084    0.0000 H   0  0  0  0  0  0  0  0  0  0  0  0
    6.4810    6.6907    0.0000 H   0  0  0  0  0  0  0  0  0  0  0  0
    6.7359    5.9060    0.0000 H   0  0  0  0  0  0  0  0  0  0  0  0
    6.0199    5.1109    0.0000 H   0  0  0  0  0  0  0  0  0  0  0  0
    4.4213    4.7203    0.0000 H   0  0  0  0  0  0  0  0  0  0  0  0
    3.6144    4.8918    0.0000 H   0  0  0  0  0  0  0  0  0  0  0  0
    3.2837    5.9094    0.0000 H   0  0  0  0  0  0  0  0  0  0  0  0
    3.0287    6.6941    0.0000 H   0  0  0  0  0  0  0  0  0  0  0  0
    3.7447    7.4892    0.0000 H   0  0  0  0  0  0  0  0  0  0  0  0
    6.8913    5.9204    0.0000 H   0  0  0  0  0  0  0  0  0  0  0  0
    8.4995    4.9919    0.0000 H   0  0  0  0  0  0  0  0  0  0  0  0
    6.8913    2.2064    0.0000 H   0  0  0  0  0  0  0  0  0  0  0  0
    5.0000    8.2493    0.0000 H   0  0  0  0  0  0  0  0  0  0  0  0
    5.3856   10.0621    0.0000 H   0  0  0  0  0  0  0  0  0  0  0  0
    5.7161    9.0444    0.0000 H   0  0  0  0  0  0  0  0  0  0  0  0
  1  2  1  0  0  0  0
  1 32  1  0  0  0  0
  1 33  1  0  0  0  0
  1 34  1  0  0  0  0
  2  3  2  0  0  0  0
  2  7  1  0  0  0  0
  3  4  1  0  0  0  0
  3 35  1  0  0  0  0
  4  5  2  0  0  0  0
  4 36  1  0  0  0  0
  5  6  1  0  0  0  0
  5 37  1  0  0  0  0
  6  7  1  0  0  0  0
  6 11  1  0  0  0  0
  7  8  2  0  0  0  0
  8  9  1  0  0  0  0
  9 10  2  0  0  0  0
  9 31  1  0  0  0  0
 10 11  1  0  0  0  0
 10 13  1  0  0  0  0
 11 12  2  0  0  0  0
 13 14  1  0  0  0  0
 13 38  1  0  0  0  0
 13 39  1  0  0  0  0
 14 15  1  0  0  0  0
 14 40  1  0  0  0  0
 14 41  1  0  0  0  0
 15 16  1  0  0  0  0
 15 20  1  0  0  0  0
 16 17  1  0  0  0  0
 16 42  1  0  0  0  0
 16 43  1  0  0  0  0
 17 18  1  0  0  0  0
 17 44  1  0  0  0  0
 17 45  1  0  0  0  0
 18 19  1  0  0  0  0
 18 21  1  0  0  0  0
 18 46  1  0  0  0  0
 19 20  1  0  0  0  0
 19 47  1  0  0  0  0
 19 48  1  0  0  0  0
 20 49  1  0  0  0  0
 20 50  1  0  0  0  0
 21 22  1  0  0  0  0
 21 29  2  0  0  0  0
 22 23  2  0  0  0  0
 22 27  1  0  0  0  0
 23 24  1  0  0  0  0
 23 51  1  0  0  0  0
 24 25  2  0  0  0  0
 24 52  1  0  0  0  0
 25 26  1  0  0  0  0
 25 30  1  0  0  0  0
 26 27  2  0  0  0  0
 26 53  1  0  0  0  0
 27 28  1  0  0  0  0
 28 29  1  0  0  0  0
 31 54  1  0  0  0  0
 31 55  1  0  0  0  0
 31 56  1  0  0  0  0
M  END
>  <DRUGBANK_ID>
DB06229

>  <COMMON_NAME>
Ocaperidone

>  <CAS_NUMBER>
129029-23-8

>  <UNII>
26HUS7139V

>  <SYNONYMS>
Ocaperidona; Ocaperidone; Ocaperidonum

$$$$
