2200
 OpenBabel10282417072D

 39 41  0  0  1  0  0  0  0  0999 V2000
    4.5080   -0.0160    0.0000 N   0  0  0  0  0  0  0  0  0  0  0  0
    4.5550    1.7065    0.0000 N   0  0  0  0  0  0  0  0  0  0  0  0
    5.8899    1.7065    0.0000 N   0  0  0  0  0  0  0  0  0  0  0  0
    5.2224    0.3965    0.0000 C   0  0  0  0  0  0  0  0  0  0  0  0
    5.2224    1.2215    0.0000 C   0  0  0  0  0  0  0  0  0  0  0  0
    3.7935    0.3965    0.0000 C   0  0  0  0  0  0  0  0  0  0  0  0
    4.8099    2.4911    0.0000 C   0  0  0  0  0  0  0  0  0  0  0  0
    4.5080   -0.8410    0.0000 C   0  0  0  0  0  0  0  0  0  0  0  0
    5.6350    2.4911    0.0000 C   0  0  0  0  0  0  0  0  0  0  0  0
    3.0790   -0.0160    0.0000 C   0  0  0  0  0  0  0  0  0  0  0  0
    5.2224   -1.2535    0.0000 C   0  0  0  0  0  0  0  0  0  0  0  0
    3.7935   -1.2535    0.0000 C   0  0  0  0  0  0  0  0  0  0  0  0
    3.0790   -0.8410    0.0000 C   0  0  0  0  0  0  0  0  0  0  0  0
    2.3645    0.3965    0.0000 C   0  0  0  0  0  0  0  0  0  0  0  0
    5.2224   -2.0786    0.0000 C   0  0  0  0  0  0  0  0  0  0  0  0
    3.7935   -2.0786    0.0000 C   0  0  0  0  0  0  0  0  0  0  0  0
    2.3645   -1.2535    0.0000 C   0  0  0  0  0  0  0  0  0  0  0  0
    1.6500   -0.0160    0.0000 C   0  0  0  0  0  0  0  0  0  0  0  0
    4.5080   -2.4911    0.0000 C   0  0  0  0  0  0  0  0  0  0  0  0
    1.6500   -0.8410    0.0000 C   0  0  0  0  0  0  0  0  0  0  0  0
    3.6187    1.4023    0.0000 H   0  0  0  0  0  0  0  0  0  0  0  0
    6.1491   -0.1385    0.0000 H   0  0  0  0  0  0  0  0  0  0  0  0
    6.1490    0.9315    0.0000 H   0  0  0  0  0  0  0  0  0  0  0  0
    3.7935    1.4665    0.0000 H   0  0  0  0  0  0  0  0  0  0  0  0
    2.8669    0.9315    0.0000 H   0  0  0  0  0  0  0  0  0  0  0  0
    4.1810    3.3567    0.0000 H   0  0  0  0  0  0  0  0  0  0  0  0
    5.2957    3.4445    0.0000 H   0  0  0  0  0  0  0  0  0  0  0  0
    6.2639    3.3567    0.0000 H   0  0  0  0  0  0  0  0  0  0  0  0
    5.1492    3.4445    0.0000 H   0  0  0  0  0  0  0  0  0  0  0  0
    6.1161   -0.7375    0.0000 H   0  0  0  0  0  0  0  0  0  0  0  0
    2.8998   -0.7375    0.0000 H   0  0  0  0  0  0  0  0  0  0  0  0
    3.9727   -1.3570    0.0000 H   0  0  0  0  0  0  0  0  0  0  0  0
    2.3645    1.4285    0.0000 H   0  0  0  0  0  0  0  0  0  0  0  0
    6.1161   -2.5946    0.0000 H   0  0  0  0  0  0  0  0  0  0  0  0
    2.8998   -2.5946    0.0000 H   0  0  0  0  0  0  0  0  0  0  0  0
    2.3645   -2.2855    0.0000 H   0  0  0  0  0  0  0  0  0  0  0  0
    0.7563    0.5000    0.0000 H   0  0  0  0  0  0  0  0  0  0  0  0
    4.5080   -3.5231    0.0000 H   0  0  0  0  0  0  0  0  0  0  0  0
    0.7563   -1.3570    0.0000 H   0  0  0  0  0  0  0  0  0  0  0  0
  1  4  1  0  0  0  0
  1  6  1  0  0  0  0
  1  8  1  0  0  0  0
  2  5  1  0  0  0  0
  2  7  1  0  0  0  0
  2 21  1  0  0  0  0
  3  5  2  0  0  0  0
  3  9  1  0  0  0  0
  4  5  1  0  0  0  0
  4 22  1  0  0  0  0
  4 23  1  0  0  0  0
  6 10  1  0  0  0  0
  6 24  1  0  0  0  0
  6 25  1  0  0  0  0
  7  9  1  0  0  0  0
  7 26  1  0  0  0  0
  7 27  1  0  0  0  0
  8 11  2  0  0  0  0
  8 12  1  0  0  0  0
  9 28  1  0  0  0  0
  9 29  1  0  0  0  0
 10 13  2  0  0  0  0
 10 14  1  0  0  0  0
 11 15  1  0  0  0  0
 11 30  1  0  0  0  0
 12 16  2  0  0  0  0
 12 31  1  0  0  0  0
 13 17  1  0  0  0  0
 13 32  1  0  0  0  0
 14 18  2  0  0  0  0
 14 33  1  0  0  0  0
 15 19  2  0  0  0  0
 15 34  1  0  0  0  0
 16 19  1  0  0  0  0
 16 35  1  0  0  0  0
 17 20  2  0  0  0  0
 17 36  1  0  0  0  0
 18 20  1  0  0  0  0
 18 37  1  0  0  0  0
 19 38  1  0  0  0  0
 20 39  1  0  0  0  0
M  END
>  <DRUGBANK_ID>
DB08799

>  <COMMON_NAME>
Antazoline

>  <CAS_NUMBER>
91-75-8

>  <UNII>
DHA8014SS1

>  <SYNONYMS>
2-(N-Benzylanilinomethyl)-2-imidazoline; 2-(N-Phenyl-N-benzylaminomethyl)imidazoline; 4,5-Dihydro-N-phenyl-N-phenylmethyl-1H-imidazole-2-methanamine; Antazolina; Antazoline; Antazolinum

$$$$
