
 OpenBabel10282417072D

 38 40  0  0  1  0  0  0  0  0999 V2000
   -3.3292    2.8379    0.0000 O   0  0  0  0  0  0  0  0  0  0  0  0
   -2.5223    2.6664    0.0000 C   0  0  0  0  0  0  0  0  0  0  0  0
   -2.2673    1.8818    0.0000 C   0  0  1  0  0  0  0  0  0  0  0  0
   -1.4604    1.7103    0.0000 O   0  0  0  0  0  0  0  0  0  0  0  0
   -1.2054    0.9256    0.0000 C   0  0  2  0  0  0  0  0  0  0  0  0
   -0.3984    0.7541    0.0000 O   0  0  0  0  0  0  0  0  0  0  0  0
   -0.1435   -0.0305    0.0000 C   0  0  0  0  0  0  0  0  0  0  0  0
   -0.6284   -0.6979    0.0000 C   0  0  0  0  0  0  0  0  0  0  0  0
   -0.1435   -1.3654    0.0000 N   0  0  0  0  0  0  0  0  0  0  0  0
    0.6411   -1.1104    0.0000 C   0  0  0  0  0  0  0  0  0  0  0  0
    0.6411   -0.2854    0.0000 C   0  0  0  0  0  0  0  0  0  0  0  0
    1.3556    0.1271    0.0000 C   0  0  0  0  0  0  0  0  0  0  0  0
    1.3556    0.9521    0.0000 Cl  0  0  0  0  0  0  0  0  0  0  0  0
    2.0701   -0.2854    0.0000 C   0  0  0  0  0  0  0  0  0  0  0  0
    2.7845    0.1271    0.0000 Br  0  0  0  0  0  0  0  0  0  0  0  0
    2.0701   -1.1104    0.0000 C   0  0  0  0  0  0  0  0  0  0  0  0
    1.3556   -1.5229    0.0000 C   0  0  0  0  0  0  0  0  0  0  0  0
   -1.7575    0.3126    0.0000 C   0  0  1  0  0  0  0  0  0  0  0  0
   -1.5025   -0.4721    0.0000 O   0  0  0  0  0  0  0  0  0  0  0  0
   -2.5644    0.4841    0.0000 C   0  0  1  0  0  0  0  0  0  0  0  0
   -3.1165   -0.1290    0.0000 O   0  0  0  0  0  0  0  0  0  0  0  0
   -2.8194    1.2687    0.0000 C   0  0  2  0  0  0  0  0  0  0  0  0
   -3.6263    1.4402    0.0000 O   0  0  0  0  0  0  0  0  0  0  0  0
   -3.6290    3.7604    0.0000 H   0  0  0  0  0  0  0  0  0  0  0  0
   -1.8064    3.4616    0.0000 H   0  0  0  0  0  0  0  0  0  0  0  0
   -1.4757    2.4440    0.0000 H   0  0  0  0  0  0  0  0  0  0  0  0
   -1.5514    2.6770    0.0000 H   0  0  0  0  0  0  0  0  0  0  0  0
   -0.4895    1.7208    0.0000 H   0  0  0  0  0  0  0  0  0  0  0  0
   -1.6604   -0.6979    0.0000 H   0  0  0  0  0  0  0  0  0  0  0  0
   -0.4477   -2.3017    0.0000 H   0  0  0  0  0  0  0  0  0  0  0  0
    2.9638   -1.6264    0.0000 H   0  0  0  0  0  0  0  0  0  0  0  0
    1.3556   -2.5549    0.0000 H   0  0  0  0  0  0  0  0  0  0  0  0
   -0.7109    0.0901    0.0000 H   0  0  0  0  0  0  0  0  0  0  0  0
   -2.1515   -1.1930    0.0000 H   0  0  0  0  0  0  0  0  0  0  0  0
   -2.2338   -0.5335    0.0000 H   0  0  0  0  0  0  0  0  0  0  0  0
   -4.0653    0.0727    0.0000 H   0  0  0  0  0  0  0  0  0  0  0  0
   -3.5353    0.4735    0.0000 H   0  0  0  0  0  0  0  0  0  0  0  0
   -3.9261    2.3627    0.0000 H   0  0  0  0  0  0  0  0  0  0  0  0
  1  2  1  0  0  0  0
  1 24  1  0  0  0  0
  2 25  1  0  0  0  0
  2 26  1  0  0  0  0
  3  2  1  0  0  0  0
  3  4  1  0  0  0  0
  3 22  1  0  0  0  0
  3 27  1  6  0  0  0
  4  5  1  0  0  0  0
  5  6  1  0  0  0  0
  5 18  1  0  0  0  0
  5 28  1  1  0  0  0
  6  7  1  0  0  0  0
  7  8  2  0  0  0  0
  7 11  1  0  0  0  0
  8  9  1  0  0  0  0
  8 29  1  0  0  0  0
  9 10  1  0  0  0  0
  9 30  1  0  0  0  0
 10 11  2  0  0  0  0
 10 17  1  0  0  0  0
 11 12  1  0  0  0  0
 12 13  1  0  0  0  0
 12 14  2  0  0  0  0
 14 15  1  0  0  0  0
 14 16  1  0  0  0  0
 16 17  2  0  0  0  0
 16 31  1  0  0  0  0
 17 32  1  0  0  0  0
 18 19  1  0  0  0  0
 18 20  1  0  0  0  0
 18 33  1  6  0  0  0
 19 34  1  0  0  0  0
 20 21  1  0  0  0  0
 20 22  1  0  0  0  0
 20 35  1  6  0  0  0
 21 36  1  0  0  0  0
 22 23  1  0  0  0  0
 22 37  1  1  0  0  0
 23 38  1  0  0  0  0
M  END
>  <DRUGBANK_ID>
DB04806

>  <COMMON_NAME>
(5-BROMO-4-CHLORO-3-INDOLYL)-A-D-MANNOSE

$$$$
