
 OpenBabel10282417072D

 38 40  0  0  0  0  0  0  0  0999 V2000
    0.3530    0.6503    0.0000 O   0  0  0  0  0  0  0  0  0  0  0  0
   -1.0989    1.4467    0.0000 O   0  0  0  0  0  0  0  0  0  0  0  0
   -2.5279   -1.0283    0.0000 O   0  0  0  0  0  0  0  0  0  0  0  0
   -1.0989   -1.8533    0.0000 O   0  0  0  0  0  0  0  0  0  0  0  0
   -2.5279    0.6217    0.0000 O   0  0  0  0  0  0  0  0  0  0  0  0
    0.3435   -1.8818    0.0000 O   0  0  0  0  0  0  0  0  0  0  0  0
    2.5327   -0.5931    0.0000 O   0  0  0  0  0  0  0  0  0  0  0  0
   -0.3845   -0.6158    0.0000 C   0  0  0  0  0  0  0  0  0  0  0  0
   -0.3845    0.2092    0.0000 C   0  0  0  0  0  0  0  0  0  0  0  0
   -1.0989    0.6217    0.0000 C   0  0  0  0  0  0  0  0  0  0  0  0
   -1.0989   -1.0283    0.0000 C   0  0  0  0  0  0  0  0  0  0  0  0
    1.1005    0.2263    0.0000 C   0  0  0  0  0  0  0  0  0  0  0  0
    0.3530   -1.0569    0.0000 C   0  0  0  0  0  0  0  0  0  0  0  0
   -1.8133   -0.6158    0.0000 C   0  0  0  0  0  0  0  0  0  0  0  0
   -1.8133    0.2092    0.0000 C   0  0  0  0  0  0  0  0  0  0  0  0
    1.1005   -0.6330    0.0000 C   0  0  0  0  0  0  0  0  0  0  0  0
    1.8134    0.6415    0.0000 C   0  0  0  0  0  0  0  0  0  0  0  0
    2.5295    0.2319    0.0000 C   0  0  0  0  0  0  0  0  0  0  0  0
    1.8102    1.4666    0.0000 C   0  0  0  0  0  0  0  0  0  0  0  0
    3.2424    0.6471    0.0000 C   0  0  0  0  0  0  0  0  0  0  0  0
    2.5232    1.8818    0.0000 C   0  0  0  0  0  0  0  0  0  0  0  0
    3.2392    1.4721    0.0000 C   0  0  0  0  0  0  0  0  0  0  0  0
   -1.8133    1.8592    0.0000 C   0  0  0  0  0  0  0  0  0  0  0  0
   -3.2424   -0.6158    0.0000 C   0  0  0  0  0  0  0  0  0  0  0  0
   -1.9104   -2.3218    0.0000 H   0  0  0  0  0  0  0  0  0  0  0  0
   -2.5280    1.5587    0.0000 H   0  0  0  0  0  0  0  0  0  0  0  0
    1.7231   -1.0647    0.0000 H   0  0  0  0  0  0  0  0  0  0  0  0
    1.9922   -1.1525    0.0000 H   0  0  0  0  0  0  0  0  0  0  0  0
    0.9145    1.9792    0.0000 H   0  0  0  0  0  0  0  0  0  0  0  0
    4.1381    0.1345    0.0000 H   0  0  0  0  0  0  0  0  0  0  0  0
    2.5193    2.9138    0.0000 H   0  0  0  0  0  0  0  0  0  0  0  0
    4.1309    1.9916    0.0000 H   0  0  0  0  0  0  0  0  0  0  0  0
   -1.8133    2.9292    0.0000 H   0  0  0  0  0  0  0  0  0  0  0  0
   -2.7400    1.3242    0.0000 H   0  0  0  0  0  0  0  0  0  0  0  0
   -2.7399    2.3942    0.0000 H   0  0  0  0  0  0  0  0  0  0  0  0
   -3.2424    0.4542    0.0000 H   0  0  0  0  0  0  0  0  0  0  0  0
   -4.1690   -1.1508    0.0000 H   0  0  0  0  0  0  0  0  0  0  0  0
   -4.1691   -0.0808    0.0000 H   0  0  0  0  0  0  0  0  0  0  0  0
  1  9  1  0  0  0  0
  1 12  1  0  0  0  0
  2 10  1  0  0  0  0
  2 23  1  0  0  0  0
  3 14  1  0  0  0  0
  3 24  1  0  0  0  0
  4 11  1  0  0  0  0
  4 25  1  0  0  0  0
  5 15  1  0  0  0  0
  5 26  1  0  0  0  0
  6 13  2  0  0  0  0
  7 18  1  0  0  0  0
  7 27  1  0  0  0  0
  8  9  1  0  0  0  0
  8 11  2  0  0  0  0
  8 13  1  0  0  0  0
  9 10  2  0  0  0  0
 10 15  1  0  0  0  0
 11 14  1  0  0  0  0
 12 16  2  0  0  0  0
 12 17  1  0  0  0  0
 13 16  1  0  0  0  0
 14 15  2  0  0  0  0
 16 28  1  0  0  0  0
 17 18  1  0  0  0  0
 17 19  2  0  0  0  0
 18 20  2  0  0  0  0
 19 21  1  0  0  0  0
 19 29  1  0  0  0  0
 20 22  1  0  0  0  0
 20 30  1  0  0  0  0
 21 22  2  0  0  0  0
 21 31  1  0  0  0  0
 22 32  1  0  0  0  0
 23 33  1  0  0  0  0
 23 34  1  0  0  0  0
 23 35  1  0  0  0  0
 24 36  1  0  0  0  0
 24 37  1  0  0  0  0
 24 38  1  0  0  0  0
M  END
>  <DRUGBANK_ID>
DB13983

>  <COMMON_NAME>
5,7,2â€²-trihydroxy-6,8-dimethoxyflavone

>  <CAS_NUMBER>
159359-22-5

>  <SYNONYMS>
5,7-Dihydroxy-2-(2-hydroxyphenyl)-6,8-dimethoxy-4H-1-benzopyran-4-one

$$$$
