1195
 OpenBabel10282417072D

 48 49  0  0  1  0  0  0  0  0999 V2000
    1.9520   -0.7697    0.0000 F   0  0  0  0  0  0  0  0  0  0  0  0
    1.6500    0.3572    0.0000 F   0  0  0  0  0  0  0  0  0  0  0  0
    2.7770    0.6592    0.0000 F   0  0  0  0  0  0  0  0  0  0  0  0
    8.0804   -3.3553    0.0000 F   0  0  0  0  0  0  0  0  0  0  0  0
    6.9534   -3.6573    0.0000 F   0  0  0  0  0  0  0  0  0  0  0  0
    7.7784   -2.2284    0.0000 F   0  0  0  0  0  0  0  0  0  0  0  0
    4.5080    1.1823    0.0000 O   0  0  0  0  0  0  0  0  0  0  0  0
    3.7935   -0.0553    0.0000 O   0  0  0  0  0  0  0  0  0  0  0  0
    6.6515   -1.7053    0.0000 O   0  0  0  0  0  0  0  0  0  0  0  0
    6.6515    3.2448    0.0000 N   0  0  0  0  0  0  0  0  0  0  0  0
    5.9370    1.1823    0.0000 N   0  0  0  0  0  0  0  0  0  0  0  0
    6.6515    2.4198    0.0000 C   0  0  3  0  0  0  0  0  0  0  0  0
    7.3659    2.0073    0.0000 C   0  0  0  0  0  0  0  0  0  0  0  0
    8.0804    2.4198    0.0000 C   0  0  0  0  0  0  0  0  0  0  0  0
    8.0804    3.2448    0.0000 C   0  0  0  0  0  0  0  0  0  0  0  0
    7.3659    3.6573    0.0000 C   0  0  0  0  0  0  0  0  0  0  0  0
    5.9370    2.0073    0.0000 C   0  0  0  0  0  0  0  0  0  0  0  0
    5.2224    0.7697    0.0000 C   0  0  0  0  0  0  0  0  0  0  0  0
    5.2224   -0.0553    0.0000 C   0  0  0  0  0  0  0  0  0  0  0  0
    4.5080   -0.4678    0.0000 C   0  0  0  0  0  0  0  0  0  0  0  0
    5.9370   -0.4678    0.0000 C   0  0  0  0  0  0  0  0  0  0  0  0
    5.9370   -1.2928    0.0000 C   0  0  0  0  0  0  0  0  0  0  0  0
    4.5080   -1.2928    0.0000 C   0  0  0  0  0  0  0  0  0  0  0  0
    5.2224   -1.7053    0.0000 C   0  0  0  0  0  0  0  0  0  0  0  0
    3.0791   -0.4678    0.0000 C   0  0  0  0  0  0  0  0  0  0  0  0
    6.6515   -2.5303    0.0000 C   0  0  0  0  0  0  0  0  0  0  0  0
    2.3645   -0.0553    0.0000 C   0  0  0  0  0  0  0  0  0  0  0  0
    7.3659   -2.9428    0.0000 C   0  0  0  0  0  0  0  0  0  0  0  0
    5.7681    3.7548    0.0000 H   0  0  0  0  0  0  0  0  0  0  0  0
    6.7896    0.6901    0.0000 H   0  0  0  0  0  0  0  0  0  0  0  0
    7.5782    2.9548    0.0000 H   0  0  0  0  0  0  0  0  0  0  0  0
    7.3659    0.9373    0.0000 H   0  0  0  0  0  0  0  0  0  0  0  0
    8.2925    1.4723    0.0000 H   0  0  0  0  0  0  0  0  0  0  0  0
    9.0070    1.8848    0.0000 H   0  0  0  0  0  0  0  0  0  0  0  0
    9.0070    2.9548    0.0000 H   0  0  0  0  0  0  0  0  0  0  0  0
    9.0070    3.7798    0.0000 H   0  0  0  0  0  0  0  0  0  0  0  0
    8.0804    4.3148    0.0000 H   0  0  0  0  0  0  0  0  0  0  0  0
    7.3659    4.7273    0.0000 H   0  0  0  0  0  0  0  0  0  0  0  0
    8.2925    4.1923    0.0000 H   0  0  0  0  0  0  0  0  0  0  0  0
    5.0104    2.5423    0.0000 H   0  0  0  0  0  0  0  0  0  0  0  0
    5.9370    3.0773    0.0000 H   0  0  0  0  0  0  0  0  0  0  0  0
    6.8307    0.0482    0.0000 H   0  0  0  0  0  0  0  0  0  0  0  0
    3.6143   -1.8088    0.0000 H   0  0  0  0  0  0  0  0  0  0  0  0
    5.2223   -2.7373    0.0000 H   0  0  0  0  0  0  0  0  0  0  0  0
    3.0792   -1.5378    0.0000 H   0  0  0  0  0  0  0  0  0  0  0  0
    2.1525   -1.0029    0.0000 H   0  0  0  0  0  0  0  0  0  0  0  0
    5.7248   -3.0653    0.0000 H   0  0  0  0  0  0  0  0  0  0  0  0
    6.6515   -3.6003    0.0000 H   0  0  0  0  0  0  0  0  0  0  0  0
  1 27  1  0  0  0  0
  2 27  1  0  0  0  0
  3 27  1  0  0  0  0
  4 28  1  0  0  0  0
  5 28  1  0  0  0  0
  6 28  1  0  0  0  0
  7 18  2  0  0  0  0
  8 20  1  0  0  0  0
  8 25  1  0  0  0  0
  9 22  1  0  0  0  0
  9 26  1  0  0  0  0
 10 12  1  0  0  0  0
 10 16  1  0  0  0  0
 10 29  1  0  0  0  0
 11 17  1  0  0  0  0
 11 18  1  0  0  0  0
 11 30  1  0  0  0  0
 12 13  1  0  0  0  0
 12 17  1  0  0  0  0
 12 31  1  0  0  0  0
 13 14  1  0  0  0  0
 13 32  1  0  0  0  0
 13 33  1  0  0  0  0
 14 15  1  0  0  0  0
 14 34  1  0  0  0  0
 14 35  1  0  0  0  0
 15 16  1  0  0  0  0
 15 36  1  0  0  0  0
 15 37  1  0  0  0  0
 16 38  1  0  0  0  0
 16 39  1  0  0  0  0
 17 40  1  0  0  0  0
 17 41  1  0  0  0  0
 18 19  1  0  0  0  0
 19 20  2  0  0  0  0
 19 21  1  0  0  0  0
 20 23  1  0  0  0  0
 21 22  2  0  0  0  0
 21 42  1  0  0  0  0
 22 24  1  0  0  0  0
 23 24  2  0  0  0  0
 23 43  1  0  0  0  0
 24 44  1  0  0  0  0
 25 27  1  0  0  0  0
 25 45  1  0  0  0  0
 25 46  1  0  0  0  0
 26 28  1  0  0  0  0
 26 47  1  0  0  0  0
 26 48  1  0  0  0  0
M  END
>  <DRUGBANK_ID>
DB01195

>  <SECONDARY_ACCESSION_NUMBERS>
APRD00129

>  <COMMON_NAME>
Flecainide

>  <CAS_NUMBER>
54143-55-4

>  <UNII>
K94FTS1806

>  <SYNONYMS>
(±)-flecainide; Flecaine; Flecainida; Flecainide; Flécaïnide; Flecainidum; N-(2-Piperidinylmethyl)-2,5-bis(2,2,2-trifluoroethoxy)benzamide

$$$$
