
 OpenBabel10282417072D

 16 16  0  0  0  0  0  0  0  0999 V2000
    1.2551    0.0000    0.0000 N   0  0  0  0  0  0  0  0  0  0  0  0
   -1.2270   -0.0139    0.0000 N   0  0  0  0  0  0  0  0  0  0  0  0
    0.0210    0.7291    0.0000 N   0  0  0  0  0  0  0  0  0  0  0  0
   -0.8204    0.7011    0.0000 C   0  0  0  0  0  0  0  0  0  0  0  0
    0.0210   -0.7011    0.0000 C   0  0  0  0  0  0  0  0  0  0  0  0
   -0.8063   -0.7432    0.0000 C   0  0  0  0  0  0  0  0  0  0  0  0
    0.4276    0.0000    0.0000 C   0  0  0  0  0  0  0  0  0  0  0  0
   -1.2551    1.4023    0.0000 C   0  0  0  0  0  0  0  0  0  0  0  0
    0.4557   -1.4023    0.0000 C   0  0  0  0  0  0  0  0  0  0  0  0
    1.7474   -0.8526    0.0000 H   0  0  0  0  0  0  0  0  0  0  0  0
   -1.2996   -1.6497    0.0000 H   0  0  0  0  0  0  0  0  0  0  0  0
   -0.7494    2.3453    0.0000 H   0  0  0  0  0  0  0  0  0  0  0  0
   -2.3246    1.3688    0.0000 H   0  0  0  0  0  0  0  0  0  0  0  0
   -1.8189    2.3117    0.0000 H   0  0  0  0  0  0  0  0  0  0  0  0
   -0.0320   -2.3118    0.0000 H   0  0  0  0  0  0  0  0  0  0  0  0
    1.4872   -1.3700    0.0000 H   0  0  0  0  0  0  0  0  0  0  0  0
  1  7  2  0  0  0  0
  1 10  1  0  0  0  0
  2  4  1  0  0  0  0
  2  6  2  0  0  0  0
  3  4  2  0  0  0  0
  3  7  1  0  0  0  0
  4  8  1  0  0  0  0
  5  6  1  0  0  0  0
  5  7  1  0  0  0  0
  5  9  2  0  0  0  0
  6 11  1  0  0  0  0
  8 12  1  0  0  0  0
  8 13  1  0  0  0  0
  8 14  1  0  0  0  0
  9 15  1  0  0  0  0
  9 16  1  0  0  0  0
M  END
>  <DRUGBANK_ID>
DB01788

>  <SECONDARY_ACCESSION_NUMBERS>
EXPT01833

>  <COMMON_NAME>
2-methyl-5-methylidenepyrimidin-4-imine

>  <CAS_NUMBER>
918960-40-4

>  <SYNONYMS>
2-Methyl-5-methylene-4(5H)-pyrimidinimine; 4-Imino-5-Methidyl-2-Methylpyrimidine

$$$$
