
 OpenBabel10282417072D

 47 47  0  0  0  0  0  0  0  0999 V2000
   -0.7145    0.0000    0.0000 C   0  0  2  0  0  0  0  0  0  0  0  0
   -1.4289   -0.4124    0.0000 C   0  0  1  0  0  0  0  0  0  0  0  0
   -1.4289   -1.2374    0.0000 C   0  0  2  0  0  0  0  0  0  0  0  0
   -0.7145   -1.6500    0.0000 C   0  0  1  0  0  0  0  0  0  0  0  0
    0.0000   -1.2374    0.0000 C   0  0  2  0  0  0  0  0  0  0  0  0
    0.0000   -0.4124    0.0000 O   0  0  0  0  0  0  0  0  0  0  0  0
   -0.7145    0.8250    0.0000 O   0  0  0  0  0  0  0  0  0  0  0  0
    0.0000    1.2375    0.0000 C   0  0  2  0  0  0  0  0  0  0  0  0
    0.0000    2.0625    0.0000 C   0  0  2  0  0  0  0  0  0  0  0  0
    0.7144    2.4749    0.0000 O   0  0  0  0  0  0  0  0  0  0  0  0
   -0.7145    2.4749    0.0000 C   0  0  0  0  0  0  0  0  0  0  0  0
   -1.4289    2.0625    0.0000 O   0  0  0  0  0  0  0  0  0  0  0  0
    0.7144    0.8250    0.0000 C   0  0  2  0  0  0  0  0  0  0  0  0
    0.7144    0.0000    0.0000 O   0  0  0  0  0  0  0  0  0  0  0  0
    1.4289    1.2375    0.0000 C   0  0  1  0  0  0  0  0  0  0  0  0
    1.4289    2.0625    0.0000 O   0  0  0  0  0  0  0  0  0  0  0  0
    2.1433    0.8250    0.0000 C   0  0  0  0  0  0  0  0  0  0  0  0
    2.1433    0.0000    0.0000 O   0  0  0  0  0  0  0  0  0  0  0  0
    0.7144   -1.6500    0.0000 C   0  0  0  0  0  0  0  0  0  0  0  0
    1.4289   -1.2374    0.0000 O   0  0  0  0  0  0  0  0  0  0  0  0
   -0.7145   -2.4749    0.0000 O   0  0  0  0  0  0  0  0  0  0  0  0
   -2.1433   -1.6500    0.0000 O   0  0  0  0  0  0  0  0  0  0  0  0
   -2.1433    0.0000    0.0000 O   0  0  0  0  0  0  0  0  0  0  0  0
   -0.7968    1.4510    0.0000 H   0  0  0  0  0  0  0  0  0  0  0  0
   -1.6411    0.5350    0.0000 H   0  0  0  0  0  0  0  0  0  0  0  0
   -1.4289    0.6576    0.0000 H   0  0  0  0  0  0  0  0  0  0  0  0
   -2.3556   -0.7025    0.0000 H   0  0  0  0  0  0  0  0  0  0  0  0
   -1.6412   -2.1849    0.0000 H   0  0  0  0  0  0  0  0  0  0  0  0
   -0.0000   -2.3074    0.0000 H   0  0  0  0  0  0  0  0  0  0  0  0
    0.9266    1.5275    0.0000 H   0  0  0  0  0  0  0  0  0  0  0  0
    1.5544    1.9898    0.0000 H   0  0  0  0  0  0  0  0  0  0  0  0
   -0.7145    3.5449    0.0000 H   0  0  0  0  0  0  0  0  0  0  0  0
   -1.6411    3.0099    0.0000 H   0  0  0  0  0  0  0  0  0  0  0  0
   -2.2689    2.5476    0.0000 H   0  0  0  0  0  0  0  0  0  0  0  0
   -0.2123    0.2900    0.0000 H   0  0  0  0  0  0  0  0  0  0  0  0
   -0.1256   -0.4850    0.0000 H   0  0  0  0  0  0  0  0  0  0  0  0
    0.5023    1.7725    0.0000 H   0  0  0  0  0  0  0  0  0  0  0  0
    2.2689    2.5475    0.0000 H   0  0  0  0  0  0  0  0  0  0  0  0
    3.0700    1.3600    0.0000 H   0  0  0  0  0  0  0  0  0  0  0  0
    3.0699    0.2900    0.0000 H   0  0  0  0  0  0  0  0  0  0  0  0
    1.3033   -0.4850    0.0000 H   0  0  0  0  0  0  0  0  0  0  0  0
    0.7144   -2.7200    0.0000 H   0  0  0  0  0  0  0  0  0  0  0  0
    1.6411   -2.1850    0.0000 H   0  0  0  0  0  0  0  0  0  0  0  0
    2.2690   -1.7223    0.0000 H   0  0  0  0  0  0  0  0  0  0  0  0
   -1.5545   -2.9599    0.0000 H   0  0  0  0  0  0  0  0  0  0  0  0
   -2.9834   -1.1651    0.0000 H   0  0  0  0  0  0  0  0  0  0  0  0
   -2.1434    0.9700    0.0000 H   0  0  0  0  0  0  0  0  0  0  0  0
  1  2  1  0  0  0  0
  1  6  1  0  0  0  0
  1  7  1  0  0  0  0
  1 25  1  6  0  0  0
  2  3  1  0  0  0  0
  2 23  1  0  0  0  0
  2 26  1  6  0  0  0
  3  4  1  0  0  0  0
  3 22  1  0  0  0  0
  3 27  1  1  0  0  0
  4  5  1  0  0  0  0
  4 21  1  0  0  0  0
  4 28  1  6  0  0  0
  5  6  1  0  0  0  0
  5 19  1  0  0  0  0
  5 29  1  1  0  0  0
  7  8  1  0  0  0  0
  8  9  1  0  0  0  0
  8 13  1  0  0  0  0
  8 24  1  1  0  0  0
  9 10  1  0  0  0  0
  9 11  1  0  0  0  0
  9 30  1  6  0  0  0
 10 31  1  0  0  0  0
 11 12  1  0  0  0  0
 11 32  1  0  0  0  0
 11 33  1  0  0  0  0
 12 34  1  0  0  0  0
 13 14  1  0  0  0  0
 13 15  1  0  0  0  0
 13 35  1  6  0  0  0
 14 36  1  0  0  0  0
 15 16  1  0  0  0  0
 15 17  1  0  0  0  0
 15 37  1  6  0  0  0
 16 38  1  0  0  0  0
 17 18  1  0  0  0  0
 17 39  1  0  0  0  0
 17 40  1  0  0  0  0
 18 41  1  0  0  0  0
 19 20  1  0  0  0  0
 19 42  1  0  0  0  0
 19 43  1  0  0  0  0
 20 44  1  0  0  0  0
 21 45  1  0  0  0  0
 22 46  1  0  0  0  0
 23 47  1  0  0  0  0
M  END
>  <DRUGBANK_ID>
DB16867

>  <COMMON_NAME>
Maltitol

>  <CAS_NUMBER>
585-88-6

>  <UNII>
D65DG142WK

>  <SYNONYMS>
Maltitol

$$$$
