
 OpenBabel10282417072D

 73 77  0  0  0  0  0  0  0  0999 V2000
    4.7142    0.5133    0.0000 S   0  0  0  0  0  0  0  0  0  0  0  0
   -2.6498   -1.1095    0.0000 F   0  0  0  0  0  0  0  0  0  0  0  0
    0.3973    0.6679    0.0000 O   0  0  0  0  0  0  0  0  0  0  0  0
   -3.3784    0.8335    0.0000 O   0  0  0  0  0  0  0  0  0  0  0  0
   -0.7949    2.0700    0.0000 O   0  0  0  0  0  0  0  0  0  0  0  0
    1.1702    1.0874    0.0000 O   0  0  0  0  0  0  0  0  0  0  0  0
   -5.5202   -2.0811    0.0000 O   0  0  0  0  0  0  0  0  0  0  0  0
    2.1970    2.0811    0.0000 O   0  0  0  0  0  0  0  0  0  0  0  0
    5.5202    0.7231    0.0000 O   0  0  0  0  0  0  0  0  0  0  0  0
    4.5156    1.3194    0.0000 O   0  0  0  0  0  0  0  0  0  0  0  0
    4.9240   -0.2815    0.0000 O   0  0  0  0  0  0  0  0  0  0  0  0
   -1.2254   -0.4140    0.0000 C   0  0  1  0  0  0  0  0  0  0  0  0
   -1.9320   -0.8335    0.0000 C   0  0  1  0  0  0  0  0  0  0  0  0
   -1.2254    0.4140    0.0000 C   0  0  1  0  0  0  0  0  0  0  0  0
   -2.6387   -0.4140    0.0000 C   0  0  2  0  0  0  0  0  0  0  0  0
   -0.4305    0.6679    0.0000 C   0  0  1  0  0  0  0  0  0  0  0  0
   -3.3563   -0.8335    0.0000 C   0  0  2  0  0  0  0  0  0  0  0  0
   -2.6387    0.4140    0.0000 C   0  0  2  0  0  0  0  0  0  0  0  0
   -1.9320    0.8225    0.0000 C   0  0  0  0  0  0  0  0  0  0  0  0
   -0.4305   -0.6569    0.0000 C   0  0  0  0  0  0  0  0  0  0  0  0
    0.0551   -0.0055    0.0000 C   0  0  1  0  0  0  0  0  0  0  0  0
   -1.9320   -1.6506    0.0000 C   0  0  0  0  0  0  0  0  0  0  0  0
   -3.3563   -1.6506    0.0000 C   0  0  0  0  0  0  0  0  0  0  0  0
   -0.2098    1.4738    0.0000 C   0  0  0  0  0  0  0  0  0  0  0  0
   -1.2254    1.2531    0.0000 C   0  0  0  0  0  0  0  0  0  0  0  0
   -2.6387   -2.0701    0.0000 C   0  0  0  0  0  0  0  0  0  0  0  0
   -4.0739   -0.4140    0.0000 C   0  0  0  0  0  0  0  0  0  0  0  0
   -3.3563   -0.0055    0.0000 C   0  0  0  0  0  0  0  0  0  0  0  0
   -4.0739   -2.0701    0.0000 C   0  0  0  0  0  0  0  0  0  0  0  0
    0.8832    0.0055    0.0000 C   0  0  0  0  0  0  0  0  0  0  0  0
    0.5851    1.6726    0.0000 C   0  0  0  0  0  0  0  0  0  0  0  0
   -4.7804   -0.8335    0.0000 C   0  0  0  0  0  0  0  0  0  0  0  0
   -4.7804   -1.6506    0.0000 C   0  0  0  0  0  0  0  0  0  0  0  0
    1.9651    1.2862    0.0000 C   0  0  0  0  0  0  0  0  0  0  0  0
    2.5393    0.7010    0.0000 C   0  0  0  0  0  0  0  0  0  0  0  0
    3.3452    0.8997    0.0000 C   0  0  0  0  0  0  0  0  0  0  0  0
    2.3183   -0.0939    0.0000 C   0  0  0  0  0  0  0  0  0  0  0  0
    3.9193    0.3146    0.0000 C   0  0  0  0  0  0  0  0  0  0  0  0
    2.9035   -0.6900    0.0000 C   0  0  0  0  0  0  0  0  0  0  0  0
    3.6985   -0.4803    0.0000 C   0  0  0  0  0  0  0  0  0  0  0  0
   -1.2254   -1.2421    0.0000 H   0  0  0  0  0  0  0  0  0  0  0  0
   -1.9320   -0.0055    0.0000 H   0  0  0  0  0  0  0  0  0  0  0  0
    0.8823   -0.1721    0.0000 H   0  0  0  0  0  0  0  0  0  0  0  0
   -3.3859    1.8035    0.0000 H   0  0  0  0  0  0  0  0  0  0  0  0
    6.2012    0.0323    0.0000 H   0  0  0  0  0  0  0  0  0  0  0  0
   -3.5633   -0.1246    0.0000 H   0  0  0  0  0  0  0  0  0  0  0  0
   -1.9320    1.8925    0.0000 H   0  0  0  0  0  0  0  0  0  0  0  0
   -2.8588    1.3573    0.0000 H   0  0  0  0  0  0  0  0  0  0  0  0
   -0.0971   -1.6736    0.0000 H   0  0  0  0  0  0  0  0  0  0  0  0
    0.6255   -0.8294    0.0000 H   0  0  0  0  0  0  0  0  0  0  0  0
    0.5362    0.9502    0.0000 H   0  0  0  0  0  0  0  0  0  0  0  0
   -1.0021   -2.1800    0.0000 H   0  0  0  0  0  0  0  0  0  0  0  0
   -1.9223   -2.7206    0.0000 H   0  0  0  0  0  0  0  0  0  0  0  0
   -0.2988    1.7881    0.0000 H   0  0  0  0  0  0  0  0  0  0  0  0
   -2.1520    1.7881    0.0000 H   0  0  0  0  0  0  0  0  0  0  0  0
   -1.2254    2.3231    0.0000 H   0  0  0  0  0  0  0  0  0  0  0  0
   -2.6351   -3.1401    0.0000 H   0  0  0  0  0  0  0  0  0  0  0  0
   -3.5659   -2.6041    0.0000 H   0  0  0  0  0  0  0  0  0  0  0  0
   -4.0774    0.6180    0.0000 H   0  0  0  0  0  0  0  0  0  0  0  0
   -2.4297    0.5295    0.0000 H   0  0  0  0  0  0  0  0  0  0  0  0
   -4.2829    0.5295    0.0000 H   0  0  0  0  0  0  0  0  0  0  0  0
   -3.3563    1.0645    0.0000 H   0  0  0  0  0  0  0  0  0  0  0  0
   -4.0774   -3.1021    0.0000 H   0  0  0  0  0  0  0  0  0  0  0  0
    1.4305   -0.9140    0.0000 H   0  0  0  0  0  0  0  0  0  0  0  0
    1.4058    0.9392    0.0000 H   0  0  0  0  0  0  0  0  0  0  0  0
    1.9531    0.0197    0.0000 H   0  0  0  0  0  0  0  0  0  0  0  0
    0.8707    2.7038    0.0000 H   0  0  0  0  0  0  0  0  0  0  0  0
   -0.1619    2.4387    0.0000 H   0  0  0  0  0  0  0  0  0  0  0  0
   -5.6773   -0.3230    0.0000 H   0  0  0  0  0  0  0  0  0  0  0  0
    3.6270    1.8925    0.0000 H   0  0  0  0  0  0  0  0  0  0  0  0
    1.3190   -0.3517    0.0000 H   0  0  0  0  0  0  0  0  0  0  0  0
    2.6299   -1.6851    0.0000 H   0  0  0  0  0  0  0  0  0  0  0  0
    4.4235   -1.2148    0.0000 H   0  0  0  0  0  0  0  0  0  0  0  0
  1  9  1  0  0  0  0
  1 10  2  0  0  0  0
  1 11  2  0  0  0  0
  1 38  1  0  0  0  0
  3 43  1  0  0  0  0
  4 44  1  0  0  0  0
  5 24  2  0  0  0  0
  6 31  1  0  0  0  0
  6 34  1  0  0  0  0
  7 33  2  0  0  0  0
  8 34  2  0  0  0  0
  9 45  1  0  0  0  0
 12 13  1  0  0  0  0
 12 14  1  0  0  0  0
 12 20  1  0  0  0  0
 12 41  1  6  0  0  0
 13 15  1  0  0  0  0
 13 22  1  0  0  0  0
 13 42  1  1  0  0  0
 14 16  1  0  0  0  0
 14 19  1  0  0  0  0
 14 25  1  1  0  0  0
 15  2  1  6  0  0  0
 15 17  1  0  0  0  0
 15 18  1  0  0  0  0
 16  3  1  6  0  0  0
 16 21  1  0  0  0  0
 16 24  1  0  0  0  0
 17 23  1  0  0  0  0
 17 27  1  0  0  0  0
 17 28  1  1  0  0  0
 18  4  1  0  0  0  0
 18 19  1  0  0  0  0
 18 46  1  6  0  0  0
 19 47  1  0  0  0  0
 19 48  1  0  0  0  0
 20 21  1  0  0  0  0
 20 49  1  0  0  0  0
 20 50  1  0  0  0  0
 21 30  1  0  0  0  0
 21 51  1  1  0  0  0
 22 26  1  0  0  0  0
 22 52  1  0  0  0  0
 22 53  1  0  0  0  0
 23 26  1  0  0  0  0
 23 29  2  0  0  0  0
 24 31  1  0  0  0  0
 25 54  1  0  0  0  0
 25 55  1  0  0  0  0
 25 56  1  0  0  0  0
 26 57  1  0  0  0  0
 26 58  1  0  0  0  0
 27 32  2  0  0  0  0
 27 59  1  0  0  0  0
 28 60  1  0  0  0  0
 28 61  1  0  0  0  0
 28 62  1  0  0  0  0
 29 33  1  0  0  0  0
 29 63  1  0  0  0  0
 30 64  1  0  0  0  0
 30 65  1  0  0  0  0
 30 66  1  0  0  0  0
 31 67  1  0  0  0  0
 31 68  1  0  0  0  0
 32 33  1  0  0  0  0
 32 69  1  0  0  0  0
 34 35  1  0  0  0  0
 35 36  1  0  0  0  0
 35 37  2  0  0  0  0
 36 38  2  0  0  0  0
 36 70  1  0  0  0  0
 37 39  1  0  0  0  0
 37 71  1  0  0  0  0
 38 40  1  0  0  0  0
 39 40  2  0  0  0  0
 39 72  1  0  0  0  0
 40 73  1  0  0  0  0
M  END
>  <DRUGBANK_ID>
DB14703

>  <COMMON_NAME>
Dexamethasone metasulfobenzoate

>  <CAS_NUMBER>
16978-57-7

>  <UNII>
C67221CB9Q

>  <SYNONYMS>
Dexamethasone m-sulfobenzoate; Dexamethasone-21-sulfobenzoate

$$$$
