7IG
 OpenBabel10282417072D

 45 47  0  0  0  0  0  0  0  0999 V2000
    2.5927   -0.5314    0.0000 C   0  0  0  0  0  0  0  0  0  0  0  0
    3.3071   -0.9439    0.0000 N   0  0  0  0  0  0  0  0  0  0  0  0
    3.3071   -1.7689    0.0000 C   0  0  0  0  0  0  0  0  0  0  0  0
    2.5927   -2.1814    0.0000 N   0  0  0  0  0  0  0  0  0  0  0  0
    1.8782   -1.7689    0.0000 C   0  0  0  0  0  0  0  0  0  0  0  0
    1.8782   -0.9439    0.0000 C   0  0  0  0  0  0  0  0  0  0  0  0
    2.5927    0.2936    0.0000 N   0  0  0  0  0  0  0  0  0  0  0  0
    4.0216   -2.1814    0.0000 N   0  0  0  0  0  0  0  0  0  0  0  0
    1.1637   -2.1814    0.0000 C   0  0  0  0  0  0  0  0  0  0  0  0
    0.4493   -1.7689    0.0000 C   0  0  0  0  0  0  0  0  0  0  0  0
    0.4493    0.7061    0.0000 C   0  0  0  0  0  0  0  0  0  0  0  0
    1.1637    0.2936    0.0000 C   0  0  0  0  0  0  0  0  0  0  0  0
    1.1637   -0.5314    0.0000 C   0  0  0  0  0  0  0  0  0  0  0  0
    0.4493   -0.9439    0.0000 C   0  0  0  0  0  0  0  0  0  0  0  0
   -0.2652   -0.5314    0.0000 C   0  0  0  0  0  0  0  0  0  0  0  0
   -0.2652    0.2936    0.0000 C   0  0  0  0  0  0  0  0  0  0  0  0
   -0.9797    0.7061    0.0000 N   0  0  0  0  0  0  0  0  0  0  0  0
   -2.4086    3.1811    0.0000 C   0  0  0  0  0  0  0  0  0  0  0  0
   -1.6941    2.7686    0.0000 C   0  0  0  0  0  0  0  0  0  0  0  0
   -1.6941    1.9436    0.0000 C   0  0  0  0  0  0  0  0  0  0  0  0
   -2.4086    1.5311    0.0000 C   0  0  0  0  0  0  0  0  0  0  0  0
   -3.1231    1.9436    0.0000 C   0  0  0  0  0  0  0  0  0  0  0  0
   -3.1231    2.7686    0.0000 C   0  0  0  0  0  0  0  0  0  0  0  0
   -2.4086    4.0061    0.0000 F   0  0  0  0  0  0  0  0  0  0  0  0
   -0.9797    1.5311    0.0000 C   0  0  0  0  0  0  0  0  0  0  0  0
   -3.8376    1.5311    0.0000 F   0  0  0  0  0  0  0  0  0  0  0  0
    3.4453    0.7859    0.0000 H   0  0  0  0  0  0  0  0  0  0  0  0
    1.7401    0.7858    0.0000 H   0  0  0  0  0  0  0  0  0  0  0  0
    4.0216   -3.1659    0.0000 H   0  0  0  0  0  0  0  0  0  0  0  0
    4.8742   -1.6891    0.0000 H   0  0  0  0  0  0  0  0  0  0  0  0
    1.1637   -3.2514    0.0000 H   0  0  0  0  0  0  0  0  0  0  0  0
    0.2370   -2.7164    0.0000 H   0  0  0  0  0  0  0  0  0  0  0  0
    0.4493   -0.6989    0.0000 H   0  0  0  0  0  0  0  0  0  0  0  0
   -0.4774   -2.3039    0.0000 H   0  0  0  0  0  0  0  0  0  0  0  0
   -0.4773   -1.2339    0.0000 H   0  0  0  0  0  0  0  0  0  0  0  0
    0.4493    1.7381    0.0000 H   0  0  0  0  0  0  0  0  0  0  0  0
    2.0574    0.8096    0.0000 H   0  0  0  0  0  0  0  0  0  0  0  0
    0.4493   -1.9759    0.0000 H   0  0  0  0  0  0  0  0  0  0  0  0
   -1.1589   -1.0474    0.0000 H   0  0  0  0  0  0  0  0  0  0  0  0
   -1.8323    0.2138    0.0000 H   0  0  0  0  0  0  0  0  0  0  0  0
   -0.8004    3.2846    0.0000 H   0  0  0  0  0  0  0  0  0  0  0  0
   -2.4086    0.4991    0.0000 H   0  0  0  0  0  0  0  0  0  0  0  0
   -4.0168    3.2846    0.0000 H   0  0  0  0  0  0  0  0  0  0  0  0
   -0.0530    2.0661    0.0000 H   0  0  0  0  0  0  0  0  0  0  0  0
   -0.9797    2.6011    0.0000 H   0  0  0  0  0  0  0  0  0  0  0  0
  1  2  2  0  0  0  0
  1  6  1  0  0  0  0
  1  7  1  0  0  0  0
  2  3  1  0  0  0  0
  3  4  2  0  0  0  0
  3  8  1  0  0  0  0
  4  5  1  0  0  0  0
  5  6  2  0  0  0  0
  5  9  1  0  0  0  0
  6 13  1  0  0  0  0
  7 27  1  0  0  0  0
  7 28  1  0  0  0  0
  8 29  1  0  0  0  0
  8 30  1  0  0  0  0
  9 10  1  0  0  0  0
  9 31  1  0  0  0  0
  9 32  1  0  0  0  0
 10 33  1  0  0  0  0
 10 34  1  0  0  0  0
 10 35  1  0  0  0  0
 11 12  1  0  0  0  0
 11 16  2  0  0  0  0
 11 36  1  0  0  0  0
 12 13  2  0  0  0  0
 12 37  1  0  0  0  0
 13 14  1  0  0  0  0
 14 15  2  0  0  0  0
 14 38  1  0  0  0  0
 15 16  1  0  0  0  0
 15 39  1  0  0  0  0
 16 17  1  0  0  0  0
 17 25  1  0  0  0  0
 17 40  1  0  0  0  0
 18 19  1  0  0  0  0
 18 23  2  0  0  0  0
 18 24  1  0  0  0  0
 19 20  2  0  0  0  0
 19 41  1  0  0  0  0
 20 21  1  0  0  0  0
 20 25  1  0  0  0  0
 21 22  2  0  0  0  0
 21 42  1  0  0  0  0
 22 23  1  0  0  0  0
 22 26  1  0  0  0  0
 23 43  1  0  0  0  0
 25 44  1  0  0  0  0
 25 45  1  0  0  0  0
M  END
>  <DRUGBANK_ID>
DB07244

>  <COMMON_NAME>
5-{4-[(3,5-DIFLUOROBENZYL)AMINO]PHENYL}-6-ETHYLPYRIMIDINE-2,4-DIAMINE

$$$$
