1694
 OpenBabel10282417072D

 14 15  0  0  0  0  0  0  0  0999 V2000
    3.8443    1.6500    0.0000 Br  0  0  0  0  0  0  0  0  0  0  0  0
    3.8443   -1.6500    0.0000 Br  0  0  0  0  0  0  0  0  0  0  0  0
    2.4154    0.8250    0.0000 Br  0  0  0  0  0  0  0  0  0  0  0  0
    2.4154   -0.8250    0.0000 Br  0  0  0  0  0  0  0  0  0  0  0  0
    5.3394    0.6638    0.0000 N   0  0  0  0  0  0  0  0  0  0  0  0
    5.3394   -0.6638    0.0000 N   0  0  0  0  0  0  0  0  0  0  0  0
    5.8209    0.0000    0.0000 N   0  0  0  0  0  0  0  0  0  0  0  0
    4.5588    0.4125    0.0000 C   0  0  0  0  0  0  0  0  0  0  0  0
    4.5588   -0.4125    0.0000 C   0  0  0  0  0  0  0  0  0  0  0  0
    3.8443    0.8250    0.0000 C   0  0  0  0  0  0  0  0  0  0  0  0
    3.8443   -0.8250    0.0000 C   0  0  0  0  0  0  0  0  0  0  0  0
    3.1298    0.4125    0.0000 C   0  0  0  0  0  0  0  0  0  0  0  0
    3.1298   -0.4125    0.0000 C   0  0  0  0  0  0  0  0  0  0  0  0
    6.3324    0.0000    0.0000 H   0  0  0  0  0  0  0  0  0  0  0  0
  1 10  1  0  0  0  0
  2 11  1  0  0  0  0
  3 12  1  0  0  0  0
  4 13  1  0  0  0  0
  5  7  1  0  0  0  0
  5  8  2  0  0  0  0
  6  7  1  0  0  0  0
  6  9  2  0  0  0  0
  7 14  1  0  0  0  0
  8  9  1  0  0  0  0
  8 10  1  0  0  0  0
  9 11  1  0  0  0  0
 10 12  2  0  0  0  0
 11 13  2  0  0  0  0
 12 13  1  0  0  0  0
M  END
>  <DRUGBANK_ID>
DB04462

>  <SECONDARY_ACCESSION_NUMBERS>
EXPT03020

>  <COMMON_NAME>
Tetrabromo-2-Benzotriazole

$$$$
