
 OpenBabel10282417072D

 41 44  0  0  1  0  0  0  0  0999 V2000
   -3.1733   -2.8257    0.0000 C   0  0  0  0  0  0  0  0  0  0  0  0
   -2.7387   -2.1244    0.0000 C   0  0  0  0  0  0  0  0  0  0  0  0
   -1.9141   -2.1502    0.0000 C   0  0  0  0  0  0  0  0  0  0  0  0
   -1.5241   -2.8772    0.0000 C   0  0  0  0  0  0  0  0  0  0  0  0
   -1.9587   -3.5784    0.0000 C   0  0  0  0  0  0  0  0  0  0  0  0
   -2.7833   -3.5527    0.0000 C   0  0  0  0  0  0  0  0  0  0  0  0
   -0.6995   -2.9030    0.0000 C   0  0  0  0  0  0  0  0  0  0  0  0
   -0.2649   -2.2017    0.0000 N   0  0  0  0  0  0  0  0  0  0  0  0
    0.5597   -2.2275    0.0000 C   0  0  0  0  0  0  0  0  0  0  0  0
    0.9943   -1.5262    0.0000 C   0  0  1  0  0  0  0  0  0  0  0  0
    0.6043   -0.7992    0.0000 C   0  0  0  0  0  0  0  0  0  0  0  0
    1.0390   -0.0980    0.0000 O   0  0  0  0  0  0  0  0  0  0  0  0
    1.8636   -0.1238    0.0000 C   0  0  0  0  0  0  0  0  0  0  0  0
    2.2982    0.5775    0.0000 C   0  0  0  0  0  0  0  0  0  0  0  0
    3.1228    0.5517    0.0000 C   0  0  0  0  0  0  0  0  0  0  0  0
    3.5127   -0.1753    0.0000 C   0  0  0  0  0  0  0  0  0  0  0  0
    3.0781   -0.8765    0.0000 C   0  0  0  0  0  0  0  0  0  0  0  0
    2.2535   -0.8508    0.0000 C   0  0  0  0  0  0  0  0  0  0  0  0
    1.8189   -1.5520    0.0000 O   0  0  0  0  0  0  0  0  0  0  0  0
    3.6108   -1.5066    0.0000 C   0  0  0  0  0  0  0  0  0  0  0  0
    4.3745   -1.1947    0.0000 C   0  0  0  0  0  0  0  0  0  0  0  0
    5.0758   -1.6293    0.0000 O   0  0  0  0  0  0  0  0  0  0  0  0
    4.3140   -0.3719    0.0000 N   0  0  0  0  0  0  0  0  0  0  0  0
   -4.2048   -2.7935    0.0000 H   0  0  0  0  0  0  0  0  0  0  0  0
   -3.2265   -1.2150    0.0000 H   0  0  0  0  0  0  0  0  0  0  0  0
   -1.3704   -1.2730    0.0000 H   0  0  0  0  0  0  0  0  0  0  0  0
   -1.4708   -4.4878    0.0000 H   0  0  0  0  0  0  0  0  0  0  0  0
   -3.3269   -4.4299    0.0000 H   0  0  0  0  0  0  0  0  0  0  0  0
   -0.1937   -3.8459    0.0000 H   0  0  0  0  0  0  0  0  0  0  0  0
    0.3700   -2.9364    0.0000 H   0  0  0  0  0  0  0  0  0  0  0  0
   -0.7471   -1.3029    0.0000 H   0  0  0  0  0  0  0  0  0  0  0  0
    1.0655   -3.1704    0.0000 H   0  0  0  0  0  0  0  0  0  0  0  0
    1.6292   -2.2609    0.0000 H   0  0  0  0  0  0  0  0  0  0  0  0
   -0.0752   -1.4928    0.0000 H   0  0  0  0  0  0  0  0  0  0  0  0
   -0.4652   -0.7657    0.0000 H   0  0  0  0  0  0  0  0  0  0  0  0
    0.0986    0.1437    0.0000 H   0  0  0  0  0  0  0  0  0  0  0  0
    1.8104    1.4869    0.0000 H   0  0  0  0  0  0  0  0  0  0  0  0
    3.6665    1.4289    0.0000 H   0  0  0  0  0  0  0  0  0  0  0  0
    3.3558   -2.5458    0.0000 H   0  0  0  0  0  0  0  0  0  0  0  0
    4.4210   -2.2056    0.0000 H   0  0  0  0  0  0  0  0  0  0  0  0
    5.0658    0.2637    0.0000 H   0  0  0  0  0  0  0  0  0  0  0  0
  1  2  2  0  0  0  0
  1  6  1  0  0  0  0
  1 24  1  0  0  0  0
  2  3  1  0  0  0  0
  2 25  1  0  0  0  0
  3  4  2  0  0  0  0
  3 26  1  0  0  0  0
  4  5  1  0  0  0  0
  4  7  1  0  0  0  0
  5  6  2  0  0  0  0
  5 27  1  0  0  0  0
  6 28  1  0  0  0  0
  7  8  1  0  0  0  0
  7 29  1  0  0  0  0
  7 30  1  0  0  0  0
  8  9  1  0  0  0  0
  8 31  1  0  0  0  0
  9 32  1  0  0  0  0
  9 33  1  0  0  0  0
 10  9  1  0  0  0  0
 10 11  1  0  0  0  0
 10 19  1  0  0  0  0
 10 34  1  6  0  0  0
 11 12  1  0  0  0  0
 11 35  1  0  0  0  0
 11 36  1  0  0  0  0
 12 13  1  0  0  0  0
 13 14  2  0  0  0  0
 13 18  1  0  0  0  0
 14 15  1  0  0  0  0
 14 37  1  0  0  0  0
 15 16  2  0  0  0  0
 15 38  1  0  0  0  0
 16 17  1  0  0  0  0
 16 23  1  0  0  0  0
 17 18  2  0  0  0  0
 17 20  1  0  0  0  0
 18 19  1  0  0  0  0
 20 21  1  0  0  0  0
 20 39  1  0  0  0  0
 20 40  1  0  0  0  0
 21 22  2  0  0  0  0
 21 23  1  0  0  0  0
 23 41  1  0  0  0  0
M  END
>  <DRUGBANK_ID>
DB06620

>  <COMMON_NAME>
Aplindore

>  <CAS_NUMBER>
189681-70-7

>  <UNII>
Q5O76TA0ML

>  <SYNONYMS>
Aplindore; Palindore

$$$$
