
 OpenBabel10282417072D

 22 22  0  0  0  0  0  0  0  0999 V2000
   -1.7860    0.4124    0.0000 C   0  0  0  0  0  0  0  0  0  0  0  0
   -2.5006    0.0000    0.0000 C   0  0  0  0  0  0  0  0  0  0  0  0
   -2.5006   -0.8250    0.0000 C   0  0  0  0  0  0  0  0  0  0  0  0
   -1.7860   -1.2375    0.0000 C   0  0  0  0  0  0  0  0  0  0  0  0
   -1.0718   -0.8250    0.0000 C   0  0  0  0  0  0  0  0  0  0  0  0
   -1.0718    0.0000    0.0000 C   0  0  0  0  0  0  0  0  0  0  0  0
   -0.3571    0.4124    0.0000 C   0  0  0  0  0  0  0  0  0  0  0  0
   -0.3571   -1.2375    0.0000 O   0  0  0  0  0  0  0  0  0  0  0  0
    0.3572    0.0000    0.0000 C   0  0  0  0  0  0  0  0  0  0  0  0
    1.0717    0.4125    0.0000 C   0  0  0  0  0  0  0  0  0  0  0  0
    1.7862    0.0000    0.0000 C   0  0  0  0  0  0  0  0  0  0  0  0
    2.5006    0.4126    0.0000 O   0  0  0  0  0  0  0  0  0  0  0  0
    1.7862   -0.8249    0.0000 O   0  0  0  0  0  0  0  0  0  0  0  0
    1.0717    1.2375    0.0000 O   0  0  0  0  0  0  0  0  0  0  0  0
   -1.7859    1.4444    0.0000 H   0  0  0  0  0  0  0  0  0  0  0  0
   -3.3943    0.5161    0.0000 H   0  0  0  0  0  0  0  0  0  0  0  0
   -3.3943   -1.3410    0.0000 H   0  0  0  0  0  0  0  0  0  0  0  0
   -1.7859   -2.2695    0.0000 H   0  0  0  0  0  0  0  0  0  0  0  0
   -0.3570    1.4444    0.0000 H   0  0  0  0  0  0  0  0  0  0  0  0
   -0.3570   -2.1745    0.0000 H   0  0  0  0  0  0  0  0  0  0  0  0
    0.3572   -1.0320    0.0000 H   0  0  0  0  0  0  0  0  0  0  0  0
    3.3121   -0.0558    0.0000 H   0  0  0  0  0  0  0  0  0  0  0  0
  1  2  1  0  0  0  0
  1  6  2  0  0  0  0
  1 15  1  0  0  0  0
  2  3  2  0  0  0  0
  2 16  1  0  0  0  0
  3  4  1  0  0  0  0
  3 17  1  0  0  0  0
  4  5  2  0  0  0  0
  4 18  1  0  0  0  0
  5  8  1  0  0  0  0
  6  5  1  0  0  0  0
  7  6  1  0  0  0  0
  7  9  2  0  0  0  0
  7 19  1  0  0  0  0
  8 20  1  0  0  0  0
  9 10  1  0  0  0  0
  9 21  1  0  0  0  0
 10 11  1  0  0  0  0
 10 14  2  0  0  0  0
 11 12  1  0  0  0  0
 11 13  2  0  0  0  0
 12 22  1  0  0  0  0
M  END
>  <DRUGBANK_ID>
DB08636

>  <COMMON_NAME>
2-Hydroxybenzalpyruvate

>  <CAS_NUMBER>
90293-62-2

>  <UNII>
8WGN3TR2PL

>  <SYNONYMS>
(3E)-4-(2-Hydroxyphenyl)-2-oxobut-3-enoate; (3E)-4-(2-hydroxyphenyl)-2-oxobut-3-enoic acid; 4-(2-Hydroxyphenyl)-2-oxo-3-butenoic acid; ortho-Hydroxybenzalpyruvate

$$$$
