
 OpenBabel10282417072D

 54 56  0  0  0  0  0  0  0  0999 V2000
    6.4018   -2.4837    0.0000 C   0  0  0  0  0  0  0  0  0  0  0  0
    7.1061   -2.9103    0.0000 N   0  0  0  0  0  0  0  0  0  0  0  0
    7.0807   -3.7185    0.0000 C   0  0  0  0  0  0  0  0  0  0  0  0
    5.6804   -2.8704    0.0000 C   0  0  0  0  0  0  0  0  0  0  0  0
    6.4035   -1.6380    0.0000 O   0  0  0  0  0  0  0  0  0  0  0  0
    7.7936   -4.1502    0.0000 C   0  0  0  0  0  0  0  0  0  0  0  0
    8.4980   -3.7533    0.0000 C   0  0  0  0  0  0  0  0  0  0  0  0
    5.6719   -3.6889    0.0000 C   0  0  0  0  0  0  0  0  0  0  0  0
    4.9675   -2.4386    0.0000 C   0  0  0  0  0  0  0  0  0  0  0  0
    4.2324   -3.6715    0.0000 C   0  0  0  0  0  0  0  0  0  0  0  0
    4.2546   -2.8305    0.0000 C   0  0  0  0  0  0  0  0  0  0  0  0
    4.9504   -4.0948    0.0000 C   0  0  0  0  0  0  0  0  0  0  0  0
    3.4990   -4.0973    0.0000 O   0  0  0  0  0  0  0  0  0  0  0  0
    6.3762   -4.1154    0.0000 C   0  0  0  0  0  0  0  0  0  0  0  0
    7.7681   -4.9585    0.0000 C   0  0  0  0  0  0  0  0  0  0  0  0
    3.4972   -4.9237    0.0000 C   0  0  0  0  0  0  0  0  0  0  0  0
    6.3337   -4.9326    0.0000 C   0  0  0  0  0  0  0  0  0  0  0  0
    7.0551   -5.3695    0.0000 C   0  0  0  0  0  0  0  0  0  0  0  0
    8.5017   -2.9199    0.0000 C   0  0  0  0  0  0  0  0  0  0  0  0
    9.9239   -2.9001    0.0000 N   0  0  0  0  0  0  0  0  0  0  0  0
    9.2094   -2.5032    0.0000 C   0  0  3  0  0  0  0  0  0  0  0  0
    9.9239   -3.7533    0.0000 C   0  0  0  0  0  0  0  0  0  0  0  0
   10.6349   -2.4834    0.0000 C   0  0  0  0  0  0  0  0  0  0  0  0
    9.2094   -1.6697    0.0000 C   0  0  0  0  0  0  0  0  0  0  0  0
   10.6349   -1.6499    0.0000 C   0  0  0  0  0  0  0  0  0  0  0  0
    9.9106   -1.2530    0.0000 C   0  0  0  0  0  0  0  0  0  0  0  0
    7.9713   -2.4406    0.0000 H   0  0  0  0  0  0  0  0  0  0  0  0
    9.4206   -4.2952    0.0000 H   0  0  0  0  0  0  0  0  0  0  0  0
    9.4278   -3.2238    0.0000 H   0  0  0  0  0  0  0  0  0  0  0  0
    6.5600   -4.2145    0.0000 H   0  0  0  0  0  0  0  0  0  0  0  0
    4.9892   -1.4068    0.0000 H   0  0  0  0  0  0  0  0  0  0  0  0
    3.3733   -2.2935    0.0000 H   0  0  0  0  0  0  0  0  0  0  0  0
    4.9399   -5.1267    0.0000 H   0  0  0  0  0  0  0  0  0  0  0  0
    5.4990   -3.5717    0.0000 H   0  0  0  0  0  0  0  0  0  0  0  0
    8.6534   -5.4888    0.0000 H   0  0  0  0  0  0  0  0  0  0  0  0
    2.5694   -5.4567    0.0000 H   0  0  0  0  0  0  0  0  0  0  0  0
    4.4227   -5.4607    0.0000 H   0  0  0  0  0  0  0  0  0  0  0  0
    3.4949   -5.9937    0.0000 H   0  0  0  0  0  0  0  0  0  0  0  0
    5.4217   -5.4157    0.0000 H   0  0  0  0  0  0  0  0  0  0  0  0
    7.0439   -6.4014    0.0000 H   0  0  0  0  0  0  0  0  0  0  0  0
    7.5740   -2.3868    0.0000 H   0  0  0  0  0  0  0  0  0  0  0  0
    8.4960   -1.8499    0.0000 H   0  0  0  0  0  0  0  0  0  0  0  0
    9.2228   -3.5731    0.0000 H   0  0  0  0  0  0  0  0  0  0  0  0
    8.9973   -4.2883    0.0000 H   0  0  0  0  0  0  0  0  0  0  0  0
   10.8505   -4.2883    0.0000 H   0  0  0  0  0  0  0  0  0  0  0  0
    9.9239   -4.8233    0.0000 H   0  0  0  0  0  0  0  0  0  0  0  0
   11.5633   -3.0154    0.0000 H   0  0  0  0  0  0  0  0  0  0  0  0
   11.5607   -1.9469    0.0000 H   0  0  0  0  0  0  0  0  0  0  0  0
    8.2794   -1.1405    0.0000 H   0  0  0  0  0  0  0  0  0  0  0  0
    9.1993   -0.5997    0.0000 H   0  0  0  0  0  0  0  0  0  0  0  0
   11.5555   -1.1046    0.0000 H   0  0  0  0  0  0  0  0  0  0  0  0
   11.5645   -2.1797    0.0000 H   0  0  0  0  0  0  0  0  0  0  0  0
    9.8919   -0.1832    0.0000 H   0  0  0  0  0  0  0  0  0  0  0  0
    8.9760   -0.7320    0.0000 H   0  0  0  0  0  0  0  0  0  0  0  0
  2  1  1  0  0  0  0
  2 27  1  0  0  0  0
  3  2  1  0  0  0  0
  4  1  1  0  0  0  0
  5  1  2  0  0  0  0
  6  3  1  0  0  0  0
  7  6  1  0  0  0  0
  7 19  1  0  0  0  0
  7 28  1  0  0  0  0
  7 29  1  0  0  0  0
  8  4  1  0  0  0  0
  8 30  1  0  0  0  0
  9  4  2  0  0  0  0
  9 31  1  0  0  0  0
 10 11  2  0  0  0  0
 11  9  1  0  0  0  0
 11 32  1  0  0  0  0
 12  8  2  0  0  0  0
 12 10  1  0  0  0  0
 12 33  1  0  0  0  0
 13 10  1  0  0  0  0
 14  3  2  0  0  0  0
 14 34  1  0  0  0  0
 15  6  2  0  0  0  0
 15 35  1  0  0  0  0
 16 13  1  0  0  0  0
 16 36  1  0  0  0  0
 16 37  1  0  0  0  0
 16 38  1  0  0  0  0
 17 14  1  0  0  0  0
 17 39  1  0  0  0  0
 18 17  2  0  0  0  0
 18 15  1  0  0  0  0
 18 40  1  0  0  0  0
 19 41  1  0  0  0  0
 19 42  1  0  0  0  0
 20 21  1  0  0  0  0
 21 19  1  0  0  0  0
 21 43  1  0  0  0  0
 22 20  1  0  0  0  0
 22 44  1  0  0  0  0
 22 45  1  0  0  0  0
 22 46  1  0  0  0  0
 23 20  1  0  0  0  0
 23 47  1  0  0  0  0
 23 48  1  0  0  0  0
 24 21  1  0  0  0  0
 24 49  1  0  0  0  0
 24 50  1  0  0  0  0
 25 26  1  0  0  0  0
 25 23  1  0  0  0  0
 25 51  1  0  0  0  0
 25 52  1  0  0  0  0
 26 24  1  0  0  0  0
 26 53  1  0  0  0  0
 26 54  1  0  0  0  0
M  END
>  <DRUGBANK_ID>
DB01228

>  <SECONDARY_ACCESSION_NUMBERS>
APRD00613

>  <COMMON_NAME>
Encainide

>  <CAS_NUMBER>
66778-36-7

>  <UNII>
SY3J0147NB

>  <SYNONYMS>
(±)-2'-[2-(1-methyl-2-piperidyl)ethyl]-p-anisanilide; (±)-4-methoxy-N-(2-(2-(1-methyl-2-piperidinyl)ethyl)phenyl)benzamide; 4-methoxy-2'-[2-(1-methyl-2-piperidyl)ethyl]benzanilide; 4-Methoxy-N-{2-[2-(1-methyl-piperidin-2-yl)-ethyl]-phenyl}-benzamide; Encainida; Encainide; Encainidum

$$$$
