
 OpenBabel10282417072D

130132  0  0  0  0  0  0  0  0999 V2000
   -4.3485    2.8170    0.0000 O   0  0  0  0  0  0  0  0  0  0  0  0
   -3.2749    4.9965    0.0000 O   0  0  0  0  0  0  0  0  0  0  0  0
   -3.6340   -0.0705    0.0000 O   0  0  0  0  0  0  0  0  0  0  0  0
   -0.7761   -0.8955    0.0000 O   0  0  0  0  0  0  0  0  0  0  0  0
   -5.2857    5.8456    0.0000 O   0  0  0  0  0  0  0  0  0  0  0  0
   -3.8880    5.5485    0.0000 O   0  0  0  0  0  0  0  0  0  0  0  0
   -0.0615   -1.3080    0.0000 O   0  0  0  0  0  0  0  0  0  0  0  0
    2.0818   -3.3706    0.0000 O   0  0  0  0  0  0  0  0  0  0  0  0
   -2.2050   -5.8456    0.0000 O   0  0  0  0  0  0  0  0  0  0  0  0
    4.2252   -1.3080    0.0000 O   0  0  0  0  0  0  0  0  0  0  0  0
   -2.9195    2.8170    0.0000 N   0  0  0  0  0  0  0  0  0  0  0  0
   -2.9195    1.1669    0.0000 N   0  0  0  0  0  0  0  0  0  0  0  0
   -4.2310    3.9345    0.0000 N   0  0  0  0  0  0  0  0  0  0  0  0
   -2.2050   -0.8955    0.0000 N   0  0  0  0  0  0  0  0  0  0  0  0
   -5.8167    1.2438    0.0000 N   0  0  0  0  0  0  0  0  0  0  0  0
   -0.7761   -2.5455    0.0000 N   0  0  0  0  0  0  0  0  0  0  0  0
    1.3673   -2.1330    0.0000 N   0  0  0  0  0  0  0  0  0  0  0  0
   -5.9562    2.5714    0.0000 N   0  0  0  0  0  0  0  0  0  0  0  0
    3.5108   -2.5455    0.0000 N   0  0  0  0  0  0  0  0  0  0  0  0
    4.2252    0.3419    0.0000 N   0  0  0  0  0  0  0  0  0  0  0  0
    5.6543   -2.1330    0.0000 N   0  0  0  0  0  0  0  0  0  0  0  0
    3.5108    1.5794    0.0000 N   0  0  0  0  0  0  0  0  0  0  0  0
    4.9397    1.5794    0.0000 N   0  0  0  0  0  0  0  0  0  0  0  0
   -2.8333    3.6375    0.0000 C   0  0  1  0  0  0  0  0  0  0  0  0
   -2.0263    3.8090    0.0000 C   0  0  0  0  0  0  0  0  0  0  0  0
   -1.6138    3.0945    0.0000 C   0  0  0  0  0  0  0  0  0  0  0  0
   -2.1658    2.4814    0.0000 C   0  0  0  0  0  0  0  0  0  0  0  0
   -3.6340    2.4045    0.0000 C   0  0  0  0  0  0  0  0  0  0  0  0
   -3.6340    1.5794    0.0000 C   0  0  2  0  0  0  0  0  0  0  0  0
   -3.4464    4.1895    0.0000 C   0  0  0  0  0  0  0  0  0  0  0  0
   -4.3485    1.1669    0.0000 C   0  0  0  0  0  0  0  0  0  0  0  0
   -2.2050   -0.0705    0.0000 C   0  0  2  0  0  0  0  0  0  0  0  0
   -2.9195    0.3419    0.0000 C   0  0  0  0  0  0  0  0  0  0  0  0
   -1.4906    0.3419    0.0000 C   0  0  0  0  0  0  0  0  0  0  0  0
   -4.8442    4.4866    0.0000 C   0  0  1  0  0  0  0  0  0  0  0  0
   -5.0630    1.5794    0.0000 C   0  0  0  0  0  0  0  0  0  0  0  0
   -1.4906   -2.1330    0.0000 C   0  0  2  0  0  0  0  0  0  0  0  0
   -1.4906    1.1669    0.0000 C   0  0  0  0  0  0  0  0  0  0  0  0
   -0.7761   -0.0705    0.0000 C   0  0  0  0  0  0  0  0  0  0  0  0
   -5.6288    4.2316    0.0000 C   0  0  0  0  0  0  0  0  0  0  0  0
   -1.4906   -1.3080    0.0000 C   0  0  0  0  0  0  0  0  0  0  0  0
    0.6528   -2.5455    0.0000 C   0  0  1  0  0  0  0  0  0  0  0  0
   -5.1493    2.3999    0.0000 C   0  0  0  0  0  0  0  0  0  0  0  0
   -4.6726    5.2936    0.0000 C   0  0  0  0  0  0  0  0  0  0  0  0
    0.6528   -3.3706    0.0000 C   0  0  0  0  0  0  0  0  0  0  0  0
   -2.2050   -2.5455    0.0000 C   0  0  0  0  0  0  0  0  0  0  0  0
   -0.0615   -2.1330    0.0000 C   0  0  0  0  0  0  0  0  0  0  0  0
   -6.3687    1.8570    0.0000 C   0  0  0  0  0  0  0  0  0  0  0  0
    2.7963   -2.1330    0.0000 C   0  0  2  0  0  0  0  0  0  0  0  0
   -2.2050   -3.3706    0.0000 C   0  0  0  0  0  0  0  0  0  0  0  0
   -0.0615   -3.7831    0.0000 C   0  0  0  0  0  0  0  0  0  0  0  0
    1.3673   -3.7831    0.0000 C   0  0  0  0  0  0  0  0  0  0  0  0
    2.0818   -2.5455    0.0000 C   0  0  0  0  0  0  0  0  0  0  0  0
    2.7963   -1.3080    0.0000 C   0  0  0  0  0  0  0  0  0  0  0  0
    3.5108   -0.8955    0.0000 C   0  0  0  0  0  0  0  0  0  0  0  0
   -1.4906   -3.7831    0.0000 C   0  0  0  0  0  0  0  0  0  0  0  0
   -2.9195   -3.7831    0.0000 C   0  0  0  0  0  0  0  0  0  0  0  0
    3.5108   -0.0705    0.0000 C   0  0  0  0  0  0  0  0  0  0  0  0
   -1.4906   -4.6081    0.0000 C   0  0  0  0  0  0  0  0  0  0  0  0
   -2.9195   -4.6081    0.0000 C   0  0  0  0  0  0  0  0  0  0  0  0
    4.2252   -2.1330    0.0000 C   0  0  0  0  0  0  0  0  0  0  0  0
   -2.2050   -5.0206    0.0000 C   0  0  0  0  0  0  0  0  0  0  0  0
    4.9397   -2.5455    0.0000 C   0  0  0  0  0  0  0  0  0  0  0  0
    4.2252    1.1669    0.0000 C   0  0  0  0  0  0  0  0  0  0  0  0
    6.3687   -2.5455    0.0000 C   0  0  0  0  0  0  0  0  0  0  0  0
   -2.4765    1.4227    0.0000 H   0  0  0  0  0  0  0  0  0  0  0  0
   -4.3374    3.4343    0.0000 H   0  0  0  0  0  0  0  0  0  0  0  0
   -2.6481   -1.1513    0.0000 H   0  0  0  0  0  0  0  0  0  0  0  0
   -5.9230    0.7435    0.0000 H   0  0  0  0  0  0  0  0  0  0  0  0
   -0.7761   -3.0571    0.0000 H   0  0  0  0  0  0  0  0  0  0  0  0
    1.3673   -1.6215    0.0000 H   0  0  0  0  0  0  0  0  0  0  0  0
    3.5108   -3.0571    0.0000 H   0  0  0  0  0  0  0  0  0  0  0  0
    5.6543   -1.6215    0.0000 H   0  0  0  0  0  0  0  0  0  0  0  0
    3.0677    1.3237    0.0000 H   0  0  0  0  0  0  0  0  0  0  0  0
    3.5108    2.0910    0.0000 H   0  0  0  0  0  0  0  0  0  0  0  0
    5.3827    1.3237    0.0000 H   0  0  0  0  0  0  0  0  0  0  0  0
    4.9397    2.0910    0.0000 H   0  0  0  0  0  0  0  0  0  0  0  0
   -5.0909    6.7621    0.0000 H   0  0  0  0  0  0  0  0  0  0  0  0
   -3.0165   -6.3141    0.0000 H   0  0  0  0  0  0  0  0  0  0  0  0
   -3.8322    3.2540    0.0000 H   0  0  0  0  0  0  0  0  0  0  0  0
   -1.5911    4.7865    0.0000 H   0  0  0  0  0  0  0  0  0  0  0  0
   -0.9578    3.8650    0.0000 H   0  0  0  0  0  0  0  0  0  0  0  0
   -0.5497    2.9827    0.0000 H   0  0  0  0  0  0  0  0  0  0  0  0
   -1.2303    2.0956    0.0000 H   0  0  0  0  0  0  0  0  0  0  0  0
   -1.9433    1.4348    0.0000 H   0  0  0  0  0  0  0  0  0  0  0  0
   -1.1323    2.2045    0.0000 H   0  0  0  0  0  0  0  0  0  0  0  0
   -2.7074    2.1144    0.0000 H   0  0  0  0  0  0  0  0  0  0  0  0
   -4.3485    0.0969    0.0000 H   0  0  0  0  0  0  0  0  0  0  0  0
   -5.2751    0.6319    0.0000 H   0  0  0  0  0  0  0  0  0  0  0  0
   -3.1316   -0.6056    0.0000 H   0  0  0  0  0  0  0  0  0  0  0  0
   -0.5640    0.8770    0.0000 H   0  0  0  0  0  0  0  0  0  0  0  0
   -5.0666    3.4400    0.0000 H   0  0  0  0  0  0  0  0  0  0  0  0
   -0.5640   -1.5980    0.0000 H   0  0  0  0  0  0  0  0  0  0  0  0
   -0.5640    1.7019    0.0000 H   0  0  0  0  0  0  0  0  0  0  0  0
   -2.4172    1.7019    0.0000 H   0  0  0  0  0  0  0  0  0  0  0  0
   -1.4906    2.2369    0.0000 H   0  0  0  0  0  0  0  0  0  0  0  0
   -0.7760   -1.1405    0.0000 H   0  0  0  0  0  0  0  0  0  0  0  0
    0.1505    0.4646    0.0000 H   0  0  0  0  0  0  0  0  0  0  0  0
    0.1506   -0.6054    0.0000 H   0  0  0  0  0  0  0  0  0  0  0  0
   -6.4240    4.9475    0.0000 H   0  0  0  0  0  0  0  0  0  0  0  0
   -5.8512    3.1850    0.0000 H   0  0  0  0  0  0  0  0  0  0  0  0
   -6.6464    3.9009    0.0000 H   0  0  0  0  0  0  0  0  0  0  0  0
    1.5794   -3.0805    0.0000 H   0  0  0  0  0  0  0  0  0  0  0  0
   -4.3824    3.0905    0.0000 H   0  0  0  0  0  0  0  0  0  0  0  0
    0.6529   -4.4406    0.0000 H   0  0  0  0  0  0  0  0  0  0  0  0
   -3.1317   -2.0105    0.0000 H   0  0  0  0  0  0  0  0  0  0  0  0
   -3.1316   -3.0805    0.0000 H   0  0  0  0  0  0  0  0  0  0  0  0
   -7.3951    1.7492    0.0000 H   0  0  0  0  0  0  0  0  0  0  0  0
    2.7963   -3.2030    0.0000 H   0  0  0  0  0  0  0  0  0  0  0  0
   -0.9882   -3.2482    0.0000 H   0  0  0  0  0  0  0  0  0  0  0  0
   -0.0614   -4.8531    0.0000 H   0  0  0  0  0  0  0  0  0  0  0  0
   -0.9881   -4.3182    0.0000 H   0  0  0  0  0  0  0  0  0  0  0  0
    1.3673   -4.8531    0.0000 H   0  0  0  0  0  0  0  0  0  0  0  0
    2.2939   -3.2481    0.0000 H   0  0  0  0  0  0  0  0  0  0  0  0
    2.2940   -4.3181    0.0000 H   0  0  0  0  0  0  0  0  0  0  0  0
    1.8697   -0.7730    0.0000 H   0  0  0  0  0  0  0  0  0  0  0  0
    2.7963   -0.2380    0.0000 H   0  0  0  0  0  0  0  0  0  0  0  0
    4.4374   -1.4305    0.0000 H   0  0  0  0  0  0  0  0  0  0  0  0
    4.4374   -0.3605    0.0000 H   0  0  0  0  0  0  0  0  0  0  0  0
   -0.5969   -3.2671    0.0000 H   0  0  0  0  0  0  0  0  0  0  0  0
   -3.8132   -3.2671    0.0000 H   0  0  0  0  0  0  0  0  0  0  0  0
    2.5842    0.4645    0.0000 H   0  0  0  0  0  0  0  0  0  0  0  0
    2.5841   -0.6055    0.0000 H   0  0  0  0  0  0  0  0  0  0  0  0
   -0.5969   -5.1241    0.0000 H   0  0  0  0  0  0  0  0  0  0  0  0
   -3.8132   -5.1241    0.0000 H   0  0  0  0  0  0  0  0  0  0  0  0
    4.9397   -3.6155    0.0000 H   0  0  0  0  0  0  0  0  0  0  0  0
    4.0130   -3.0805    0.0000 H   0  0  0  0  0  0  0  0  0  0  0  0
    6.3687   -3.6155    0.0000 H   0  0  0  0  0  0  0  0  0  0  0  0
    7.2954   -2.0105    0.0000 H   0  0  0  0  0  0  0  0  0  0  0  0
    7.2953   -3.0805    0.0000 H   0  0  0  0  0  0  0  0  0  0  0  0
  1 28  2  0  0  0  0
  2 30  2  0  0  0  0
  3 33  2  0  0  0  0
  4 41  2  0  0  0  0
  5 44  1  0  0  0  0
  5 78  1  0  0  0  0
  6 44  2  0  0  0  0
  7 47  2  0  0  0  0
  8 53  2  0  0  0  0
  9 62  1  0  0  0  0
  9 79  1  0  0  0  0
 10 61  2  0  0  0  0
 11 24  1  0  0  0  0
 11 27  1  0  0  0  0
 11 28  1  0  0  0  0
 12 33  1  0  0  0  0
 12 66  1  0  0  0  0
 13 30  1  0  0  0  0
 13 67  1  0  0  0  0
 14 41  1  0  0  0  0
 14 68  1  0  0  0  0
 15 36  1  0  0  0  0
 15 48  1  0  0  0  0
 15 69  1  0  0  0  0
 16 47  1  0  0  0  0
 16 70  1  0  0  0  0
 17 53  1  0  0  0  0
 17 71  1  0  0  0  0
 18 43  1  0  0  0  0
 18 48  2  0  0  0  0
 19 61  1  0  0  0  0
 19 72  1  0  0  0  0
 20 58  1  0  0  0  0
 20 64  2  0  0  0  0
 21 63  1  0  0  0  0
 21 65  1  0  0  0  0
 21 73  1  0  0  0  0
 22 64  1  0  0  0  0
 22 74  1  0  0  0  0
 22 75  1  0  0  0  0
 23 64  1  0  0  0  0
 23 76  1  0  0  0  0
 23 77  1  0  0  0  0
 24 25  1  0  0  0  0
 24 30  1  0  0  0  0
 24 80  1  1  0  0  0
 25 26  1  0  0  0  0
 25 81  1  0  0  0  0
 25 82  1  0  0  0  0
 26 27  1  0  0  0  0
 26 83  1  0  0  0  0
 26 84  1  0  0  0  0
 27 85  1  0  0  0  0
 27 86  1  0  0  0  0
 28 29  1  0  0  0  0
 29 12  1  0  0  0  0
 29 31  1  0  0  0  0
 29 87  1  6  0  0  0
 31 36  1  0  0  0  0
 31 88  1  0  0  0  0
 31 89  1  0  0  0  0
 32 14  1  0  0  0  0
 32 33  1  0  0  0  0
 32 34  1  0  0  0  0
 32 90  1  1  0  0  0
 34 38  1  0  0  0  0
 34 39  1  0  0  0  0
 34 91  1  0  0  0  0
 35 13  1  0  0  0  0
 35 40  1  0  0  0  0
 35 44  1  0  0  0  0
 35 92  1  6  0  0  0
 36 43  2  0  0  0  0
 37 16  1  0  0  0  0
 37 41  1  0  0  0  0
 37 46  1  0  0  0  0
 37 93  1  6  0  0  0
 38 94  1  0  0  0  0
 38 95  1  0  0  0  0
 38 96  1  0  0  0  0
 39 97  1  0  0  0  0
 39 98  1  0  0  0  0
 39 99  1  0  0  0  0
 40100  1  0  0  0  0
 40101  1  0  0  0  0
 40102  1  0  0  0  0
 42 17  1  0  0  0  0
 42 45  1  0  0  0  0
 42 47  1  0  0  0  0
 42103  1  6  0  0  0
 43104  1  0  0  0  0
 45 51  1  0  0  0  0
 45 52  1  0  0  0  0
 45105  1  0  0  0  0
 46 50  1  0  0  0  0
 46106  1  0  0  0  0
 46107  1  0  0  0  0
 48108  1  0  0  0  0
 49 19  1  0  0  0  0
 49 53  1  0  0  0  0
 49 54  1  0  0  0  0
 49109  1  1  0  0  0
 50 56  2  0  0  0  0
 50 57  1  0  0  0  0
 51110  1  0  0  0  0
 51111  1  0  0  0  0
 51112  1  0  0  0  0
 52113  1  0  0  0  0
 52114  1  0  0  0  0
 52115  1  0  0  0  0
 54 55  1  0  0  0  0
 54116  1  0  0  0  0
 54117  1  0  0  0  0
 55 58  1  0  0  0  0
 55118  1  0  0  0  0
 55119  1  0  0  0  0
 56 59  1  0  0  0  0
 56120  1  0  0  0  0
 57 60  2  0  0  0  0
 57121  1  0  0  0  0
 58122  1  0  0  0  0
 58123  1  0  0  0  0
 59 62  2  0  0  0  0
 59124  1  0  0  0  0
 60 62  1  0  0  0  0
 60125  1  0  0  0  0
 61 63  1  0  0  0  0
 63126  1  0  0  0  0
 63127  1  0  0  0  0
 65128  1  0  0  0  0
 65129  1  0  0  0  0
 65130  1  0  0  0  0
M  END
>  <DRUGBANK_ID>
DB06763

>  <COMMON_NAME>
Saralasin

>  <CAS_NUMBER>
34273-10-4

>  <UNII>
H2AFV2HE66

>  <SYNONYMS>
Saralasin

$$$$
