234
 OpenBabel10282417072D

 46 48  0  0  0  0  0  0  0  0999 V2000
    2.4048   -1.9172    0.0000 C   0  0  0  0  0  0  0  0  0  0  0  0
    1.6903   -2.3297    0.0000 C   0  0  0  0  0  0  0  0  0  0  0  0
    0.9759   -1.9172    0.0000 C   0  0  0  0  0  0  0  0  0  0  0  0
    0.9759   -1.0922    0.0000 C   0  0  0  0  0  0  0  0  0  0  0  0
    1.6903   -0.6797    0.0000 C   0  0  0  0  0  0  0  0  0  0  0  0
    2.4048   -1.0922    0.0000 C   0  0  0  0  0  0  0  0  0  0  0  0
    1.6903   -3.1547    0.0000 C   0  0  0  0  0  0  0  0  0  0  0  0
    2.3578   -3.6396    0.0000 O   0  0  0  0  0  0  0  0  0  0  0  0
    2.1028   -4.4243    0.0000 N   0  0  0  0  0  0  0  0  0  0  0  0
    1.2778   -4.4243    0.0000 C   0  0  0  0  0  0  0  0  0  0  0  0
    1.0229   -3.6396    0.0000 C   0  0  0  0  0  0  0  0  0  0  0  0
    0.7929   -5.0917    0.0000 C   0  0  0  0  0  0  0  0  0  0  0  0
    1.1285   -5.8454    0.0000 O   0  0  0  0  0  0  0  0  0  0  0  0
   -0.0276   -5.0055    0.0000 O   0  0  0  0  0  0  0  0  0  0  0  0
    0.2614   -0.6797    0.0000 C   0  0  0  0  0  0  0  0  0  0  0  0
   -1.1676    1.7953    0.0000 C   0  0  0  0  0  0  0  0  0  0  0  0
   -1.8820    1.3828    0.0000 C   0  0  0  0  0  0  0  0  0  0  0  0
   -2.5965    1.7953    0.0000 C   0  0  0  0  0  0  0  0  0  0  0  0
   -2.5965    2.6203    0.0000 C   0  0  0  0  0  0  0  0  0  0  0  0
   -1.8820    3.0328    0.0000 C   0  0  0  0  0  0  0  0  0  0  0  0
   -1.1676    2.6203    0.0000 C   0  0  0  0  0  0  0  0  0  0  0  0
   -0.4531    3.0328    0.0000 C   0  0  0  0  0  0  0  0  0  0  0  0
    0.2614    2.6203    0.0000 O   0  0  0  0  0  0  0  0  0  0  0  0
   -0.4531    3.8578    0.0000 O   0  0  0  0  0  0  0  0  0  0  0  0
   -1.1676    4.2703    0.0000 C   0  0  0  0  0  0  0  0  0  0  0  0
   -1.8820    3.8578    0.0000 O   0  0  0  0  0  0  0  0  0  0  0  0
   -0.4531    1.3828    0.0000 O   0  0  0  0  0  0  0  0  0  0  0  0
   -0.4531    0.5578    0.0000 C   0  0  0  0  0  0  0  0  0  0  0  0
    0.2614    0.1453    0.0000 C   0  0  0  0  0  0  0  0  0  0  0  0
    3.1193   -2.3297    0.0000 F   0  0  0  0  0  0  0  0  0  0  0  0
    0.0822   -2.4332    0.0000 H   0  0  0  0  0  0  0  0  0  0  0  0
    1.6903    0.3523    0.0000 H   0  0  0  0  0  0  0  0  0  0  0  0
    3.2985   -0.5762    0.0000 H   0  0  0  0  0  0  0  0  0  0  0  0
    0.0414   -3.3207    0.0000 H   0  0  0  0  0  0  0  0  0  0  0  0
    0.5778   -6.6035    0.0000 H   0  0  0  0  0  0  0  0  0  0  0  0
   -0.6323   -1.1957    0.0000 H   0  0  0  0  0  0  0  0  0  0  0  0
   -1.8820    0.3508    0.0000 H   0  0  0  0  0  0  0  0  0  0  0  0
   -3.4902    1.2793    0.0000 H   0  0  0  0  0  0  0  0  0  0  0  0
   -3.4902    3.1363    0.0000 H   0  0  0  0  0  0  0  0  0  0  0  0
   -1.1676    5.3403    0.0000 H   0  0  0  0  0  0  0  0  0  0  0  0
   -2.0942    3.7353    0.0000 H   0  0  0  0  0  0  0  0  0  0  0  0
   -2.0943    4.8053    0.0000 H   0  0  0  0  0  0  0  0  0  0  0  0
   -1.0705    4.3263    0.0000 H   0  0  0  0  0  0  0  0  0  0  0  0
   -1.3797    0.0228    0.0000 H   0  0  0  0  0  0  0  0  0  0  0  0
   -0.4531   -0.5122    0.0000 H   0  0  0  0  0  0  0  0  0  0  0  0
    1.1551    0.6613    0.0000 H   0  0  0  0  0  0  0  0  0  0  0  0
  1  2  2  0  0  0  0
  1  6  1  0  0  0  0
  1 30  1  0  0  0  0
  2  3  1  0  0  0  0
  2  7  1  0  0  0  0
  3  4  2  0  0  0  0
  3 31  1  0  0  0  0
  4  5  1  0  0  0  0
  4 15  1  0  0  0  0
  5  6  2  0  0  0  0
  5 32  1  0  0  0  0
  6 33  1  0  0  0  0
  7  8  1  0  0  0  0
  7 11  2  0  0  0  0
  8  9  1  0  0  0  0
  9 10  2  0  0  0  0
 10 11  1  0  0  0  0
 10 12  1  0  0  0  0
 11 34  1  0  0  0  0
 12 13  1  0  0  0  0
 12 14  2  0  0  0  0
 13 35  1  0  0  0  0
 15 29  2  0  0  0  0
 15 36  1  0  0  0  0
 16 17  2  0  0  0  0
 16 21  1  0  0  0  0
 16 27  1  0  0  0  0
 17 18  1  0  0  0  0
 17 37  1  0  0  0  0
 18 19  2  0  0  0  0
 18 38  1  0  0  0  0
 19 20  1  0  0  0  0
 19 39  1  0  0  0  0
 20 21  2  0  0  0  0
 20 26  1  0  0  0  0
 21 22  1  0  0  0  0
 22 23  2  0  0  0  0
 22 24  1  0  0  0  0
 24 25  1  0  0  0  0
 25 40  1  0  0  0  0
 25 41  1  0  0  0  0
 25 42  1  0  0  0  0
 26 43  1  0  0  0  0
 27 28  1  0  0  0  0
 28 29  1  0  0  0  0
 28 44  1  0  0  0  0
 28 45  1  0  0  0  0
 29 46  1  0  0  0  0
M  END
>  <DRUGBANK_ID>
DB02014

>  <SECONDARY_ACCESSION_NUMBERS>
EXPT00090

>  <COMMON_NAME>
5-(2-Fluoro-5-{(1E)-3-[3-hydroxy-2-(methoxycarbonyl)phenoxy]-1-propen-1-yl}phenyl)-1,2-oxazole-3-carboxylic acid

>  <SYNONYMS>
5-{2-fluoro-5-[3-(3-hydroxy-2-methoxycarbonyl-phenoxy)-propenyl]-phenyl}-isoxazole-3-carboxylic acid

$$$$
