
 OpenBabel10282417072D

 72 74  0  0  0  0  0  0  0  0999 V2000
   -0.1955   -1.1468    0.0000 C   0  0  1  0  0  0  0  0  0  0  0  0
   -0.1990   -0.3219    0.0000 C   0  0  2  0  0  0  0  0  0  0  0  0
    0.5190   -1.5593    0.0000 C   0  0  2  0  0  0  0  0  0  0  0  0
   -0.9066   -1.5629    0.0000 C   0  0  0  0  0  0  0  0  0  0  0  0
   -0.2098   -1.9362    0.0000 C   0  0  0  0  0  0  0  0  0  0  0  0
   -0.9066    0.0906    0.0000 C   0  0  0  0  0  0  0  0  0  0  0  0
    1.2303   -0.3148    0.0000 C   0  0  0  0  0  0  0  0  0  0  0  0
    1.2338   -1.1398    0.0000 C   0  0  0  0  0  0  0  0  0  0  0  0
    0.5190   -2.3878    0.0000 C   0  0  1  0  0  0  0  0  0  0  0  0
   -1.6214   -1.1468    0.0000 C   0  0  0  0  0  0  0  0  0  0  0  0
   -0.9066    0.9190    0.0000 C   0  0  0  0  0  0  0  0  0  0  0  0
   -1.6214   -0.3219    0.0000 C   0  0  0  0  0  0  0  0  0  0  0  0
    1.2374   -2.7931    0.0000 C   0  0  0  0  0  0  0  0  0  0  0  0
   -0.1919   -2.7931    0.0000 C   0  0  0  0  0  0  0  0  0  0  0  0
   -1.6144    1.3315    0.0000 C   0  0  0  0  0  0  0  0  0  0  0  0
    1.9485   -2.3878    0.0000 C   0  0  0  0  0  0  0  0  0  0  0  0
   -2.4408    1.3365    0.0000 C   0  0  0  0  0  0  0  0  0  0  0  0
    2.6668   -2.7931    0.0000 C   0  0  0  0  0  0  0  0  0  0  0  0
   -2.8533    0.6220    0.0000 C   0  0  0  0  0  0  0  0  0  0  0  0
   -2.8650    2.0739    0.0000 C   0  0  0  0  0  0  0  0  0  0  0  0
    3.3851   -2.3878    0.0000 C   0  0  0  0  0  0  0  0  0  0  0  0
   -3.6829    0.6288    0.0000 C   0  0  0  0  0  0  0  0  0  0  0  0
   -2.5467   -0.0163    0.0000 C   0  0  0  0  0  0  0  0  0  0  0  0
   -3.6783    2.0590    0.0000 C   0  0  2  0  0  0  0  0  0  0  0  0
    4.0964   -2.7931    0.0000 C   0  0  0  0  0  0  0  0  0  0  0  0
    3.3851   -1.5593    0.0000 C   0  0  0  0  0  0  0  0  0  0  0  0
   -4.0957    1.3434    0.0000 C   0  0  0  0  0  0  0  0  0  0  0  0
   -4.0964    2.7931    0.0000 O   0  0  0  0  0  0  0  0  0  0  0  0
   -0.2027    0.6096    0.0000 H   0  0  0  0  0  0  0  0  0  0  0  0
    1.2978   -1.9753    0.0000 H   0  0  0  0  0  0  0  0  0  0  0  0
   -0.9054   -2.6329    0.0000 H   0  0  0  0  0  0  0  0  0  0  0  0
   -1.8339   -2.0968    0.0000 H   0  0  0  0  0  0  0  0  0  0  0  0
   -1.1460   -2.4543    0.0000 H   0  0  0  0  0  0  0  0  0  0  0  0
    0.7070   -2.4879    0.0000 H   0  0  0  0  0  0  0  0  0  0  0  0
   -0.2292   -3.0060    0.0000 H   0  0  0  0  0  0  0  0  0  0  0  0
    1.9834    0.4453    0.0000 H   0  0  0  0  0  0  0  0  0  0  0  0
    2.2207   -0.7199    0.0000 H   0  0  0  0  0  0  0  0  0  0  0  0
    2.1635   -1.6695    0.0000 H   0  0  0  0  0  0  0  0  0  0  0  0
    2.1578   -0.6002    0.0000 H   0  0  0  0  0  0  0  0  0  0  0  0
   -0.4062   -1.8503    0.0000 H   0  0  0  0  0  0  0  0  0  0  0  0
   -2.5490   -1.6801    0.0000 H   0  0  0  0  0  0  0  0  0  0  0  0
   -2.5476   -0.6110    0.0000 H   0  0  0  0  0  0  0  0  0  0  0  0
   -0.0118    1.4332    0.0000 H   0  0  0  0  0  0  0  0  0  0  0  0
   -2.5151    0.1942    0.0000 H   0  0  0  0  0  0  0  0  0  0  0  0
    1.2397   -3.8631    0.0000 H   0  0  0  0  0  0  0  0  0  0  0  0
    2.1631   -3.3297    0.0000 H   0  0  0  0  0  0  0  0  0  0  0  0
   -1.1156   -2.2531    0.0000 H   0  0  0  0  0  0  0  0  0  0  0  0
   -0.1977   -3.8631    0.0000 H   0  0  0  0  0  0  0  0  0  0  0  0
   -1.1214   -3.3231    0.0000 H   0  0  0  0  0  0  0  0  0  0  0  0
   -1.3423    2.3270    0.0000 H   0  0  0  0  0  0  0  0  0  0  0  0
    1.9462   -1.3178    0.0000 H   0  0  0  0  0  0  0  0  0  0  0  0
    2.8719   -1.8472    0.0000 H   0  0  0  0  0  0  0  0  0  0  0  0
    2.6668   -3.8631    0.0000 H   0  0  0  0  0  0  0  0  0  0  0  0
    3.5908   -3.3327    0.0000 H   0  0  0  0  0  0  0  0  0  0  0  0
   -2.3378    3.0050    0.0000 H   0  0  0  0  0  0  0  0  0  0  0  0
   -3.4123    2.9933    0.0000 H   0  0  0  0  0  0  0  0  0  0  0  0
    4.3102   -1.8502    0.0000 H   0  0  0  0  0  0  0  0  0  0  0  0
   -4.2216   -0.2957    0.0000 H   0  0  0  0  0  0  0  0  0  0  0  0
   -4.7529    0.6308    0.0000 H   0  0  0  0  0  0  0  0  0  0  0  0
   -3.1503   -0.8998    0.0000 H   0  0  0  0  0  0  0  0  0  0  0  0
   -1.4798   -0.0973    0.0000 H   0  0  0  0  0  0  0  0  0  0  0  0
   -2.0834   -0.9808    0.0000 H   0  0  0  0  0  0  0  0  0  0  0  0
   -3.1491    2.9890    0.0000 H   0  0  0  0  0  0  0  0  0  0  0  0
    4.1025   -3.8631    0.0000 H   0  0  0  0  0  0  0  0  0  0  0  0
    5.0200   -2.2528    0.0000 H   0  0  0  0  0  0  0  0  0  0  0  0
    5.0261   -3.3228    0.0000 H   0  0  0  0  0  0  0  0  0  0  0  0
    4.3117   -1.0243    0.0000 H   0  0  0  0  0  0  0  0  0  0  0  0
    2.4585   -1.0243    0.0000 H   0  0  0  0  0  0  0  0  0  0  0  0
    3.3851   -0.4893    0.0000 H   0  0  0  0  0  0  0  0  0  0  0  0
   -5.1657    1.3456    0.0000 H   0  0  0  0  0  0  0  0  0  0  0  0
   -4.6277    2.2718    0.0000 H   0  0  0  0  0  0  0  0  0  0  0  0
   -3.6065    3.6303    0.0000 H   0  0  0  0  0  0  0  0  0  0  0  0
  1  2  1  0  0  0  0
  1  3  1  0  0  0  0
  1  4  1  0  0  0  0
  1  5  1  6  0  0  0
  2  6  1  0  0  0  0
  2  7  1  0  0  0  0
  2 29  1  1  0  0  0
  3  8  1  0  0  0  0
  3  9  1  0  0  0  0
  3 30  1  1  0  0  0
  4 10  1  0  0  0  0
  4 31  1  0  0  0  0
  4 32  1  0  0  0  0
  5 33  1  0  0  0  0
  5 34  1  0  0  0  0
  5 35  1  0  0  0  0
  6 11  1  0  0  0  0
  6 12  2  0  0  0  0
  7  8  1  0  0  0  0
  7 36  1  0  0  0  0
  7 37  1  0  0  0  0
  8 38  1  0  0  0  0
  8 39  1  0  0  0  0
  9 13  1  0  0  0  0
  9 14  1  0  0  0  0
  9 40  1  6  0  0  0
 10 12  1  0  0  0  0
 10 41  1  0  0  0  0
 10 42  1  0  0  0  0
 11 15  2  0  0  0  0
 11 43  1  0  0  0  0
 12 44  1  0  0  0  0
 13 16  1  0  0  0  0
 13 45  1  0  0  0  0
 13 46  1  0  0  0  0
 14 47  1  0  0  0  0
 14 48  1  0  0  0  0
 14 49  1  0  0  0  0
 15 17  1  0  0  0  0
 15 50  1  0  0  0  0
 16 18  1  0  0  0  0
 16 51  1  0  0  0  0
 16 52  1  0  0  0  0
 17 19  2  0  0  0  0
 17 20  1  0  0  0  0
 18 21  1  0  0  0  0
 18 53  1  0  0  0  0
 18 54  1  0  0  0  0
 19 22  1  0  0  0  0
 19 23  1  0  0  0  0
 20 24  1  0  0  0  0
 20 55  1  0  0  0  0
 20 56  1  0  0  0  0
 21 25  1  0  0  0  0
 21 26  1  0  0  0  0
 21 57  1  0  0  0  0
 22 27  1  0  0  0  0
 22 58  1  0  0  0  0
 22 59  1  0  0  0  0
 23 60  1  0  0  0  0
 23 61  1  0  0  0  0
 23 62  1  0  0  0  0
 24 28  1  0  0  0  0
 24 27  1  0  0  0  0
 24 63  1  1  0  0  0
 25 64  1  0  0  0  0
 25 65  1  0  0  0  0
 25 66  1  0  0  0  0
 26 67  1  0  0  0  0
 26 68  1  0  0  0  0
 26 69  1  0  0  0  0
 27 70  1  0  0  0  0
 27 71  1  0  0  0  0
 28 72  1  0  0  0  0
M  END
>  <DRUGBANK_ID>
DB15614

>  <COMMON_NAME>
Previtamin D(3)

>  <CAS_NUMBER>
1173-13-3

>  <UNII>
HDA46400N5

>  <SYNONYMS>
Precalciferol; Precholecalciferol; Previtamin D; Previtamin D(3); Previtamin D3

$$$$
