
 OpenBabel10282417072D

 36 38  0  0  0  0  0  0  0  0999 V2000
   -0.3470    0.3917    0.0000 C   0  0  0  0  0  0  0  0  0  0  0  0
    0.2979   -0.1226    0.0000 C   0  0  0  0  0  0  0  0  0  0  0  0
   -0.3470    1.2167    0.0000 C   0  0  0  0  0  0  0  0  0  0  0  0
   -1.1316    0.1367    0.0000 C   0  0  0  0  0  0  0  0  0  0  0  0
    0.1143   -0.9269    0.0000 C   0  0  0  0  0  0  0  0  0  0  0  0
    1.1022    0.0609    0.0000 N   0  0  0  0  0  0  0  0  0  0  0  0
   -1.1316    1.4716    0.0000 N   0  0  0  0  0  0  0  0  0  0  0  0
    0.2979    1.7312    0.0000 N   0  0  0  0  0  0  0  0  0  0  0  0
   -1.6166    0.8042    0.0000 N   0  0  0  0  0  0  0  0  0  0  0  0
   -1.3866   -0.6478    0.0000 C   0  0  0  0  0  0  0  0  0  0  0  0
    0.7191   -1.4880    0.0000 C   0  0  0  0  0  0  0  0  0  0  0  0
   -0.6739   -1.1701    0.0000 C   0  0  0  0  0  0  0  0  0  0  0  0
    1.4602    0.8042    0.0000 C   0  0  0  0  0  0  0  0  0  0  0  0
   -1.3866    2.2563    0.0000 C   0  0  0  0  0  0  0  0  0  0  0  0
    1.1022    1.5475    0.0000 C   0  0  0  0  0  0  0  0  0  0  0  0
    0.1143    2.5355    0.0000 C   0  0  0  0  0  0  0  0  0  0  0  0
    0.5355   -2.2923    0.0000 C   0  0  0  0  0  0  0  0  0  0  0  0
    1.5074   -1.2449    0.0000 F   0  0  0  0  0  0  0  0  0  0  0  0
   -0.8575   -1.9744    0.0000 C   0  0  0  0  0  0  0  0  0  0  0  0
    1.6166    2.1926    0.0000 O   0  0  0  0  0  0  0  0  0  0  0  0
   -0.2527   -2.5355    0.0000 C   0  0  0  0  0  0  0  0  0  0  0  0
   -2.4332   -0.8701    0.0000 H   0  0  0  0  0  0  0  0  0  0  0  0
   -0.6707   -1.4430    0.0000 H   0  0  0  0  0  0  0  0  0  0  0  0
   -1.7174   -1.6654    0.0000 H   0  0  0  0  0  0  0  0  0  0  0  0
   -1.4304   -0.4682    0.0000 H   0  0  0  0  0  0  0  0  0  0  0  0
    2.5302    0.8042    0.0000 H   0  0  0  0  0  0  0  0  0  0  0  0
    2.0295    1.7102    0.0000 H   0  0  0  0  0  0  0  0  0  0  0  0
   -0.6707    3.0515    0.0000 H   0  0  0  0  0  0  0  0  0  0  0  0
   -2.4332    2.4787    0.0000 H   0  0  0  0  0  0  0  0  0  0  0  0
   -1.7173    3.2739    0.0000 H   0  0  0  0  0  0  0  0  0  0  0  0
    0.8986    3.2633    0.0000 H   0  0  0  0  0  0  0  0  0  0  0  0
   -0.9082    2.8509    0.0000 H   0  0  0  0  0  0  0  0  0  0  0  0
   -0.1238    3.5787    0.0000 H   0  0  0  0  0  0  0  0  0  0  0  0
    1.2920   -2.9942    0.0000 H   0  0  0  0  0  0  0  0  0  0  0  0
   -1.8436   -2.2786    0.0000 H   0  0  0  0  0  0  0  0  0  0  0  0
   -0.4823   -3.5416    0.0000 H   0  0  0  0  0  0  0  0  0  0  0  0
  1  2  1  0  0  0  0
  1  3  2  0  0  0  0
  1  4  1  0  0  0  0
  2  5  1  0  0  0  0
  2  6  2  0  0  0  0
  3  7  1  0  0  0  0
  3  8  1  0  0  0  0
  4  9  2  0  0  0  0
  4 10  1  0  0  0  0
  5 11  1  0  0  0  0
  5 12  2  0  0  0  0
  6 13  1  0  0  0  0
  7 14  1  0  0  0  0
  7  9  1  0  0  0  0
  8 15  1  0  0  0  0
  8 16  1  0  0  0  0
 10 22  1  0  0  0  0
 10 23  1  0  0  0  0
 10 24  1  0  0  0  0
 11 17  2  0  0  0  0
 11 18  1  0  0  0  0
 12 19  1  0  0  0  0
 12 25  1  0  0  0  0
 13 15  1  0  0  0  0
 13 26  1  0  0  0  0
 13 27  1  0  0  0  0
 14 28  1  0  0  0  0
 14 29  1  0  0  0  0
 14 30  1  0  0  0  0
 15 20  2  0  0  0  0
 16 31  1  0  0  0  0
 16 32  1  0  0  0  0
 16 33  1  0  0  0  0
 17 21  1  0  0  0  0
 17 34  1  0  0  0  0
 19 21  2  0  0  0  0
 19 35  1  0  0  0  0
 21 36  1  0  0  0  0
M  END
>  <DRUGBANK_ID>
DB11555

>  <COMMON_NAME>
Zolazepam

>  <CAS_NUMBER>
31352-82-6

>  <UNII>
G1R474U58U

>  <SYNONYMS>
Zolazepam; Zolazepamum

$$$$
