G30
 OpenBabel10282417072D

 26 27  0  0  0  0  0  0  0  0999 V2000
    2.1257    2.6358    0.0000 F   0  0  0  0  0  0  0  0  0  0  0  0
    1.4112    2.2233    0.0000 C   0  0  0  0  0  0  0  0  0  0  0  0
    0.6967    2.6358    0.0000 C   0  0  0  0  0  0  0  0  0  0  0  0
   -0.0177    2.2233    0.0000 C   0  0  0  0  0  0  0  0  0  0  0  0
   -0.0177    1.3983    0.0000 C   0  0  0  0  0  0  0  0  0  0  0  0
   -0.7322    0.9858    0.0000 F   0  0  0  0  0  0  0  0  0  0  0  0
    1.4112    1.3983    0.0000 C   0  0  0  0  0  0  0  0  0  0  0  0
    0.6967    0.9858    0.0000 C   0  0  0  0  0  0  0  0  0  0  0  0
    0.6967    0.1608    0.0000 N   0  0  0  0  0  0  0  0  0  0  0  0
   -0.0177   -0.2517    0.0000 C   0  0  0  0  0  0  0  0  0  0  0  0
   -0.7322    0.1608    0.0000 O   0  0  0  0  0  0  0  0  0  0  0  0
   -0.0177   -1.0767    0.0000 C   0  0  1  0  0  0  0  0  0  0  0  0
   -0.4302   -1.7912    0.0000 C   0  0  2  0  0  0  0  0  0  0  0  0
    0.3948   -1.7912    0.0000 C   0  0  0  0  0  0  0  0  0  0  0  0
   -1.1447   -2.2037    0.0000 C   0  0  0  0  0  0  0  0  0  0  0  0
   -1.1447   -3.0287    0.0000 O   0  0  0  0  0  0  0  0  0  0  0  0
   -1.8592   -1.7912    0.0000 O   0  0  0  0  0  0  0  0  0  0  0  0
    0.5463   -0.9256    0.0000 H   0  0  0  0  0  0  0  0  0  0  0  0
   -0.8431   -1.3783    0.0000 H   0  0  0  0  0  0  0  0  0  0  0  0
    0.6967    3.6678    0.0000 H   0  0  0  0  0  0  0  0  0  0  0  0
   -0.9114    2.7393    0.0000 H   0  0  0  0  0  0  0  0  0  0  0  0
    2.3049    0.8823    0.0000 H   0  0  0  0  0  0  0  0  0  0  0  0
    1.5493   -0.3314    0.0000 H   0  0  0  0  0  0  0  0  0  0  0  0
    1.3214   -2.3262    0.0000 H   0  0  0  0  0  0  0  0  0  0  0  0
    0.1179   -2.8247    0.0000 H   0  0  0  0  0  0  0  0  0  0  0  0
   -1.9562   -3.4972    0.0000 H   0  0  0  0  0  0  0  0  0  0  0  0
  2  1  1  0  0  0  0
  2  7  1  0  0  0  0
  3  2  2  0  0  0  0
  3 20  1  0  0  0  0
  4  3  1  0  0  0  0
  4  5  2  0  0  0  0
  4 21  1  0  0  0  0
  5  8  1  0  0  0  0
  6  5  1  0  0  0  0
  7 22  1  0  0  0  0
  8  7  2  0  0  0  0
  8  9  1  0  0  0  0
  9 10  1  0  0  0  0
  9 23  1  0  0  0  0
 10 11  2  0  0  0  0
 12 10  1  0  0  0  0
 12 14  1  0  0  0  0
 12 18  1  1  0  0  0
 13 12  1  0  0  0  0
 13 14  1  0  0  0  0
 13 19  1  1  0  0  0
 13 15  1  0  0  0  0
 14 24  1  0  0  0  0
 14 25  1  0  0  0  0
 16 15  1  0  0  0  0
 16 26  1  0  0  0  0
 17 15  2  0  0  0  0
M  END
>  <DRUGBANK_ID>
DB07808

>  <COMMON_NAME>
(1S,2R)-2-[(2,5-difluorophenyl)carbamoyl]cyclopropanecarboxylic acid

$$$$
