
 OpenBabel10282417072D

 58 59  0  0  0  0  0  0  0  0999 V2000
    4.5080    3.4921    0.0000 O   0  0  0  0  0  0  0  0  0  0  0  0
    3.0791   -3.1081    0.0000 N   0  0  0  0  0  0  0  0  0  0  0  0
    5.9370    1.0170    0.0000 N   0  0  0  0  0  0  0  0  0  0  0  0
    7.3889    1.8134    0.0000 N   0  0  0  0  0  0  0  0  0  0  0  0
    4.5080   -1.4581    0.0000 C   0  0  0  0  0  0  0  0  0  0  0  0
    3.7935   -1.8706    0.0000 C   0  0  0  0  0  0  0  0  0  0  0  0
    4.5080   -0.6330    0.0000 C   0  0  0  0  0  0  0  0  0  0  0  0
    3.7935   -2.6956    0.0000 C   0  0  0  0  0  0  0  0  0  0  0  0
    5.2224   -0.2205    0.0000 C   0  0  0  0  0  0  0  0  0  0  0  0
    5.2224    0.6045    0.0000 C   0  0  0  0  0  0  0  0  0  0  0  0
    3.0791   -3.9331    0.0000 C   0  0  0  0  0  0  0  0  0  0  0  0
    2.3645   -2.6956    0.0000 C   0  0  0  0  0  0  0  0  0  0  0  0
    5.9370    1.8420    0.0000 C   0  0  0  0  0  0  0  0  0  0  0  0
    2.3645   -4.3456    0.0000 C   0  0  0  0  0  0  0  0  0  0  0  0
    1.6500   -3.1081    0.0000 C   0  0  0  0  0  0  0  0  0  0  0  0
    6.6515    2.2545    0.0000 C   0  0  0  0  0  0  0  0  0  0  0  0
    6.6515    3.0795    0.0000 C   0  0  0  0  0  0  0  0  0  0  0  0
    5.2224    2.2545    0.0000 C   0  0  0  0  0  0  0  0  0  0  0  0
    7.3889    3.5207    0.0000 C   0  0  0  0  0  0  0  0  0  0  0  0
    5.9370    3.4921    0.0000 C   0  0  0  0  0  0  0  0  0  0  0  0
    5.2224    3.0795    0.0000 C   0  0  0  0  0  0  0  0  0  0  0  0
    8.1365    3.0967    0.0000 C   0  0  0  0  0  0  0  0  0  0  0  0
    7.3795    4.3456    0.0000 C   0  0  0  0  0  0  0  0  0  0  0  0
    8.1365    2.2374    0.0000 C   0  0  0  0  0  0  0  0  0  0  0  0
    4.5080    4.3171    0.0000 C   0  0  0  0  0  0  0  0  0  0  0  0
    6.7896    0.5247    0.0000 H   0  0  0  0  0  0  0  0  0  0  0  0
    5.4346   -1.9931    0.0000 H   0  0  0  0  0  0  0  0  0  0  0  0
    5.4346   -0.9231    0.0000 H   0  0  0  0  0  0  0  0  0  0  0  0
    2.8669   -1.3356    0.0000 H   0  0  0  0  0  0  0  0  0  0  0  0
    2.8669   -2.4056    0.0000 H   0  0  0  0  0  0  0  0  0  0  0  0
    3.5813   -0.0980    0.0000 H   0  0  0  0  0  0  0  0  0  0  0  0
    4.5080    0.4370    0.0000 H   0  0  0  0  0  0  0  0  0  0  0  0
    4.7202   -3.2306    0.0000 H   0  0  0  0  0  0  0  0  0  0  0  0
    4.7201   -2.1606    0.0000 H   0  0  0  0  0  0  0  0  0  0  0  0
    6.1491   -0.7555    0.0000 H   0  0  0  0  0  0  0  0  0  0  0  0
    6.1490    0.3145    0.0000 H   0  0  0  0  0  0  0  0  0  0  0  0
    4.2958    1.1395    0.0000 H   0  0  0  0  0  0  0  0  0  0  0  0
    4.2957    0.0695    0.0000 H   0  0  0  0  0  0  0  0  0  0  0  0
    4.0057   -4.4681    0.0000 H   0  0  0  0  0  0  0  0  0  0  0  0
    3.0790   -5.0031    0.0000 H   0  0  0  0  0  0  0  0  0  0  0  0
    2.3645   -1.6256    0.0000 H   0  0  0  0  0  0  0  0  0  0  0  0
    1.4378   -2.1606    0.0000 H   0  0  0  0  0  0  0  0  0  0  0  0
    1.4379   -3.8105    0.0000 H   0  0  0  0  0  0  0  0  0  0  0  0
    2.3644   -5.4156    0.0000 H   0  0  0  0  0  0  0  0  0  0  0  0
    1.4378   -4.8805    0.0000 H   0  0  0  0  0  0  0  0  0  0  0  0
    0.7234   -2.5731    0.0000 H   0  0  0  0  0  0  0  0  0  0  0  0
    1.6500   -4.1781    0.0000 H   0  0  0  0  0  0  0  0  0  0  0  0
    0.7233   -3.6431    0.0000 H   0  0  0  0  0  0  0  0  0  0  0  0
    4.3287    1.7385    0.0000 H   0  0  0  0  0  0  0  0  0  0  0  0
    5.9370    4.5241    0.0000 H   0  0  0  0  0  0  0  0  0  0  0  0
    9.0282    3.6161    0.0000 H   0  0  0  0  0  0  0  0  0  0  0  0
    8.3000    4.8911    0.0000 H   0  0  0  0  0  0  0  0  0  0  0  0
    6.4468    4.8700    0.0000 H   0  0  0  0  0  0  0  0  0  0  0  0
    7.3673    5.4155    0.0000 H   0  0  0  0  0  0  0  0  0  0  0  0
    9.0282    1.7180    0.0000 H   0  0  0  0  0  0  0  0  0  0  0  0
    5.4346    4.8521    0.0000 H   0  0  0  0  0  0  0  0  0  0  0  0
    3.5814    4.8521    0.0000 H   0  0  0  0  0  0  0  0  0  0  0  0
    4.5080    5.3871    0.0000 H   0  0  0  0  0  0  0  0  0  0  0  0
  1 21  1  0  0  0  0
  1 25  1  0  0  0  0
  2  8  1  0  0  0  0
  2 11  1  0  0  0  0
  2 12  1  0  0  0  0
  3 10  1  0  0  0  0
  3 13  1  0  0  0  0
  3 26  1  0  0  0  0
  4 16  2  0  0  0  0
  4 24  1  0  0  0  0
  5  6  1  0  0  0  0
  5  7  1  0  0  0  0
  5 27  1  0  0  0  0
  5 28  1  0  0  0  0
  6  8  1  0  0  0  0
  6 29  1  0  0  0  0
  6 30  1  0  0  0  0
  7  9  1  0  0  0  0
  7 31  1  0  0  0  0
  7 32  1  0  0  0  0
  8 33  1  0  0  0  0
  8 34  1  0  0  0  0
  9 10  1  0  0  0  0
  9 35  1  0  0  0  0
  9 36  1  0  0  0  0
 10 37  1  0  0  0  0
 10 38  1  0  0  0  0
 11 14  1  0  0  0  0
 11 39  1  0  0  0  0
 11 40  1  0  0  0  0
 12 15  1  0  0  0  0
 12 41  1  0  0  0  0
 12 42  1  0  0  0  0
 13 16  1  0  0  0  0
 13 18  2  0  0  0  0
 14 43  1  0  0  0  0
 14 44  1  0  0  0  0
 14 45  1  0  0  0  0
 15 46  1  0  0  0  0
 15 47  1  0  0  0  0
 15 48  1  0  0  0  0
 16 17  1  0  0  0  0
 17 19  2  0  0  0  0
 17 20  1  0  0  0  0
 18 21  1  0  0  0  0
 18 49  1  0  0  0  0
 19 22  1  0  0  0  0
 19 23  1  0  0  0  0
 20 21  2  0  0  0  0
 20 50  1  0  0  0  0
 22 24  2  0  0  0  0
 22 51  1  0  0  0  0
 23 52  1  0  0  0  0
 23 53  1  0  0  0  0
 23 54  1  0  0  0  0
 24 55  1  0  0  0  0
 25 56  1  0  0  0  0
 25 57  1  0  0  0  0
 25 58  1  0  0  0  0
M  END
>  <DRUGBANK_ID>
DB04909

>  <COMMON_NAME>
Sitamaquine

>  <CAS_NUMBER>
57695-04-2

>  <UNII>
5AIJ4TGC6B

>  <SYNONYMS>
Sitamaquine

$$$$
