
 OpenBabel10282417072D

 71 73  0  0  0  0  0  0  0  0999 V2000
   -2.3214    1.0371    0.0000 C   0  0  0  0  0  0  0  0  0  0  0  0
   -3.0358    0.6246    0.0000 C   0  0  0  0  0  0  0  0  0  0  0  0
   -3.0358   -0.2004    0.0000 C   0  0  0  0  0  0  0  0  0  0  0  0
   -2.3214   -0.6129    0.0000 C   0  0  0  0  0  0  0  0  0  0  0  0
   -1.6069   -0.2004    0.0000 C   0  0  0  0  0  0  0  0  0  0  0  0
   -1.6069    0.6246    0.0000 C   0  0  0  0  0  0  0  0  0  0  0  0
   -2.3215    1.8621    0.0000 O   0  0  0  0  0  0  0  0  0  0  0  0
   -3.0359    2.2745    0.0000 C   0  0  0  0  0  0  0  0  0  0  0  0
   -0.8925   -0.6129    0.0000 N   0  0  0  0  0  0  0  0  0  0  0  0
   -0.1780    0.6245    0.0000 C   0  0  0  0  0  0  0  0  0  0  0  0
   -0.1780   -0.2004    0.0000 C   0  0  0  0  0  0  0  0  0  0  0  0
    0.5363   -0.6129    0.0000 C   0  0  0  0  0  0  0  0  0  0  0  0
    0.5364   -1.4379    0.0000 O   0  0  0  0  0  0  0  0  0  0  0  0
    1.2508   -0.2004    0.0000 N   0  0  0  0  0  0  0  0  0  0  0  0
    1.9183   -0.6853    0.0000 C   0  0  1  0  0  0  0  0  0  0  0  0
    1.9183   -1.5103    0.0000 C   0  0  0  0  0  0  0  0  0  0  0  0
    2.5313   -2.0623    0.0000 C   0  0  0  0  0  0  0  0  0  0  0  0
    2.3598   -2.8693    0.0000 C   0  0  0  0  0  0  0  0  0  0  0  0
    3.3160   -1.8074    0.0000 C   0  0  0  0  0  0  0  0  0  0  0  0
    2.6533   -0.3108    0.0000 C   0  0  0  0  0  0  0  0  0  0  0  0
    2.6965    0.5130    0.0000 O   0  0  0  0  0  0  0  0  0  0  0  0
    3.3452   -0.7601    0.0000 N   0  0  0  0  0  0  0  0  0  0  0  0
    4.0597   -0.3476    0.0000 C   0  0  1  0  0  0  0  0  0  0  0  0
    4.0597    0.4773    0.0000 C   0  0  0  0  0  0  0  0  0  0  0  0
    4.7742   -0.7601    0.0000 C   0  0  0  0  0  0  0  0  0  0  0  0
    4.7742   -1.5851    0.0000 O   0  0  0  0  0  0  0  0  0  0  0  0
    5.4886   -0.3476    0.0000 C   0  0  0  0  0  0  0  0  0  0  0  0
    4.6728    1.0293    0.0000 C   0  0  2  0  0  0  0  0  0  0  0  0
    5.4798    0.8579    0.0000 C   0  0  0  0  0  0  0  0  0  0  0  0
    5.8923    1.5723    0.0000 C   0  0  0  0  0  0  0  0  0  0  0  0
    5.3403    2.1854    0.0000 N   0  0  0  0  0  0  0  0  0  0  0  0
    4.5866    1.8498    0.0000 C   0  0  0  0  0  0  0  0  0  0  0  0
    3.8722    2.2624    0.0000 O   0  0  0  0  0  0  0  0  0  0  0  0
    4.8864    0.2325    0.0000 H   0  0  0  0  0  0  0  0  0  0  0  0
    6.2031   -0.7601    0.0000 O   0  0  0  0  0  0  0  0  0  0  0  0
    7.0281   -0.7601    0.0000 P   0  0  0  0  0  0  0  0  0  0  0  0
    7.0281    0.0648    0.0000 O   0  0  0  0  0  0  0  0  0  0  0  0
    7.8531   -0.7601    0.0000 O   0  0  0  0  0  0  0  0  0  0  0  0
    7.0281   -1.5851    0.0000 O   0  0  0  0  0  0  0  0  0  0  0  0
   -3.9295    1.1406    0.0000 H   0  0  0  0  0  0  0  0  0  0  0  0
   -3.9295   -0.7164    0.0000 H   0  0  0  0  0  0  0  0  0  0  0  0
   -2.3214   -1.6449    0.0000 H   0  0  0  0  0  0  0  0  0  0  0  0
   -3.0360    3.3445    0.0000 H   0  0  0  0  0  0  0  0  0  0  0  0
   -3.9625    1.7394    0.0000 H   0  0  0  0  0  0  0  0  0  0  0  0
   -3.9626    2.8094    0.0000 H   0  0  0  0  0  0  0  0  0  0  0  0
   -0.8925   -1.5974    0.0000 H   0  0  0  0  0  0  0  0  0  0  0  0
    0.5518    1.3542    0.0000 H   0  0  0  0  0  0  0  0  0  0  0  0
    1.3023    0.7828    0.0000 H   0  0  0  0  0  0  0  0  0  0  0  0
    0.9649   -1.1711    0.0000 H   0  0  0  0  0  0  0  0  0  0  0  0
    0.9408   -1.9455    0.0000 H   0  0  0  0  0  0  0  0  0  0  0  0
    1.7509   -2.5671    0.0000 H   0  0  0  0  0  0  0  0  0  0  0  0
    3.3265   -2.7783    0.0000 H   0  0  0  0  0  0  0  0  0  0  0  0
    1.3422   -3.2000    0.0000 H   0  0  0  0  0  0  0  0  0  0  0  0
    3.1550   -3.5852    0.0000 H   0  0  0  0  0  0  0  0  0  0  0  0
    2.1374   -3.9159    0.0000 H   0  0  0  0  0  0  0  0  0  0  0  0
    4.1111   -2.5234    0.0000 H   0  0  0  0  0  0  0  0  0  0  0  0
    3.5385   -0.7608    0.0000 H   0  0  0  0  0  0  0  0  0  0  0  0
    4.3337   -1.4768    0.0000 H   0  0  0  0  0  0  0  0  0  0  0  0
    3.3194   -1.7443    0.0000 H   0  0  0  0  0  0  0  0  0  0  0  0
    3.1331    0.1874    0.0000 H   0  0  0  0  0  0  0  0  0  0  0  0
    3.0822    0.9125    0.0000 H   0  0  0  0  0  0  0  0  0  0  0  0
    3.8923    1.5341    0.0000 H   0  0  0  0  0  0  0  0  0  0  0  0
    5.4886    0.7224    0.0000 H   0  0  0  0  0  0  0  0  0  0  0  0
    6.4152    0.1874    0.0000 H   0  0  0  0  0  0  0  0  0  0  0  0
    5.9151   -0.1196    0.0000 H   0  0  0  0  0  0  0  0  0  0  0  0
    4.8065    0.0263    0.0000 H   0  0  0  0  0  0  0  0  0  0  0  0
    6.9564    1.6841    0.0000 H   0  0  0  0  0  0  0  0  0  0  0  0
    6.2758    2.5712    0.0000 H   0  0  0  0  0  0  0  0  0  0  0  0
    5.5450    3.1484    0.0000 H   0  0  0  0  0  0  0  0  0  0  0  0
    8.3381   -1.6001    0.0000 H   0  0  0  0  0  0  0  0  0  0  0  0
    6.1881   -2.0701    0.0000 H   0  0  0  0  0  0  0  0  0  0  0  0
  1  2  2  0  0  0  0
  1  7  1  0  0  0  0
  2  3  1  0  0  0  0
  2 40  1  0  0  0  0
  3  4  2  0  0  0  0
  3 41  1  0  0  0  0
  4  5  1  0  0  0  0
  4 42  1  0  0  0  0
  5  6  2  0  0  0  0
  6  1  1  0  0  0  0
  6 10  1  0  0  0  0
  7  8  1  0  0  0  0
  8 43  1  0  0  0  0
  8 44  1  0  0  0  0
  8 45  1  0  0  0  0
  9 11  1  0  0  0  0
  9  5  1  0  0  0  0
  9 46  1  0  0  0  0
 10 11  2  0  0  0  0
 10 47  1  0  0  0  0
 11 12  1  0  0  0  0
 12 13  2  0  0  0  0
 12 14  1  0  0  0  0
 14 15  1  0  0  0  0
 14 48  1  0  0  0  0
 15 16  1  0  0  0  0
 15 20  1  0  0  0  0
 15 49  1  1  0  0  0
 16 17  1  0  0  0  0
 16 50  1  0  0  0  0
 16 51  1  0  0  0  0
 17 18  1  0  0  0  0
 17 19  1  0  0  0  0
 17 52  1  0  0  0  0
 18 53  1  0  0  0  0
 18 54  1  0  0  0  0
 18 55  1  0  0  0  0
 19 56  1  0  0  0  0
 19 57  1  0  0  0  0
 19 58  1  0  0  0  0
 20 21  2  0  0  0  0
 20 22  1  0  0  0  0
 22 23  1  0  0  0  0
 22 59  1  0  0  0  0
 23 24  1  0  0  0  0
 23 25  1  0  0  0  0
 23 60  1  6  0  0  0
 24 28  1  0  0  0  0
 24 61  1  0  0  0  0
 24 62  1  0  0  0  0
 25 26  2  0  0  0  0
 25 27  1  0  0  0  0
 27 35  1  0  0  0  0
 27 63  1  0  0  0  0
 27 64  1  0  0  0  0
 28 29  1  0  0  0  0
 28 32  1  0  0  0  0
 28 34  1  6  0  0  0
 29 30  1  0  0  0  0
 29 65  1  0  0  0  0
 29 66  1  0  0  0  0
 30 31  1  0  0  0  0
 30 67  1  0  0  0  0
 30 68  1  0  0  0  0
 31 32  1  0  0  0  0
 31 69  1  0  0  0  0
 32 33  2  0  0  0  0
 35 36  1  0  0  0  0
 36 37  2  0  0  0  0
 36 38  1  0  0  0  0
 36 39  1  0  0  0  0
 38 70  1  0  0  0  0
 39 71  1  0  0  0  0
M  END
>  <DRUGBANK_ID>
DB16514

>  <COMMON_NAME>
PF-07304814

>  <UNII>
XJ51YOB1SC

$$$$
