HPH
 OpenBabel10282417072D

 25 25  0  0  0  0  0  0  0  0999 V2000
    1.1341    1.0609    0.0000 C   0  0  0  0  0  0  0  0  0  0  0  0
    1.1341    1.8859    0.0000 O   0  0  0  0  0  0  0  0  0  0  0  0
    1.8485    0.6484    0.0000 O   0  0  0  0  0  0  0  0  0  0  0  0
    0.4196    0.6484    0.0000 C   0  0  1  0  0  0  0  0  0  0  0  0
   -0.2949    1.0609    0.0000 N   0  0  0  0  0  0  0  0  0  0  0  0
    0.4196   -0.1766    0.0000 C   0  0  0  0  0  0  0  0  0  0  0  0
   -0.2949   -0.5891    0.0000 C   0  0  0  0  0  0  0  0  0  0  0  0
   -0.2949   -1.4141    0.0000 C   0  0  0  0  0  0  0  0  0  0  0  0
   -1.0093   -0.1766    0.0000 C   0  0  0  0  0  0  0  0  0  0  0  0
   -1.0093   -1.8266    0.0000 C   0  0  0  0  0  0  0  0  0  0  0  0
   -1.7238   -0.5891    0.0000 C   0  0  0  0  0  0  0  0  0  0  0  0
   -1.7238   -1.4141    0.0000 C   0  0  0  0  0  0  0  0  0  0  0  0
    0.4196    1.2323    0.0000 H   0  0  0  0  0  0  0  0  0  0  0  0
    1.1341   -0.0091    0.0000 H   0  0  0  0  0  0  0  0  0  0  0  0
    1.9456    2.3544    0.0000 H   0  0  0  0  0  0  0  0  0  0  0  0
    1.8485   -0.2886    0.0000 H   0  0  0  0  0  0  0  0  0  0  0  0
   -0.2949    2.0809    0.0000 H   0  0  0  0  0  0  0  0  0  0  0  0
   -1.1782    0.5509    0.0000 H   0  0  0  0  0  0  0  0  0  0  0  0
    1.3462   -0.7116    0.0000 H   0  0  0  0  0  0  0  0  0  0  0  0
    0.4196   -1.2466    0.0000 H   0  0  0  0  0  0  0  0  0  0  0  0
    0.5988   -1.9301    0.0000 H   0  0  0  0  0  0  0  0  0  0  0  0
   -1.0093    0.8554    0.0000 H   0  0  0  0  0  0  0  0  0  0  0  0
   -1.0093   -2.8586    0.0000 H   0  0  0  0  0  0  0  0  0  0  0  0
   -2.6175   -0.0731    0.0000 H   0  0  0  0  0  0  0  0  0  0  0  0
   -2.6175   -1.9301    0.0000 H   0  0  0  0  0  0  0  0  0  0  0  0
  1  2  1  0  0  0  0
  1  3  1  0  0  0  0
  1  4  1  0  0  0  0
  1 14  1  0  0  0  0
  2 15  1  0  0  0  0
  3 16  1  0  0  0  0
  4  5  1  0  0  0  0
  4  6  1  0  0  0  0
  4 13  1  1  0  0  0
  5 17  1  0  0  0  0
  5 18  1  0  0  0  0
  6  7  1  0  0  0  0
  6 19  1  0  0  0  0
  6 20  1  0  0  0  0
  7  8  2  0  0  0  0
  7  9  1  0  0  0  0
  8 10  1  0  0  0  0
  8 21  1  0  0  0  0
  9 11  2  0  0  0  0
  9 22  1  0  0  0  0
 10 12  2  0  0  0  0
 10 23  1  0  0  0  0
 11 12  1  0  0  0  0
 11 24  1  0  0  0  0
 12 25  1  0  0  0  0
M  END
>  <DRUGBANK_ID>
DB07910

>  <COMMON_NAME>
(2S)-2-amino-3-phenylpropane-1,1-diol

$$$$
