
 OpenBabel10282417072D

 55 55  0  0  1  0  0  0  0  0999 V2000
    3.5724   -1.2375    0.0000 C   0  0  0  0  0  0  0  0  0  0  0  0
    0.7145    2.0625    0.0000 C   0  0  0  0  0  0  0  0  0  0  0  0
    6.4302   -0.4125    0.0000 C   0  0  0  0  0  0  0  0  0  0  0  0
    5.7158    0.0000    0.0000 C   0  0  0  0  0  0  0  0  0  0  0  0
    7.1447    0.0000    0.0000 C   0  0  0  0  0  0  0  0  0  0  0  0
    5.0013   -0.4125    0.0000 C   0  0  0  0  0  0  0  0  0  0  0  0
    7.8592   -0.4125    0.0000 C   0  0  0  0  0  0  0  0  0  0  0  0
   -0.0000    0.0000    0.0000 C   0  0  0  0  0  0  0  0  0  0  0  0
    2.1434   -0.4125    0.0000 C   0  0  0  0  0  0  0  0  0  0  0  0
    0.7145   -1.2375    0.0000 C   0  0  0  0  0  0  0  0  0  0  0  0
    3.5724   -0.4125    0.0000 C   0  0  1  0  0  0  0  0  0  0  0  0
    0.7145    1.2375    0.0000 C   0  0  0  0  0  0  0  0  0  0  0  0
    0.7145   -0.4125    0.0000 C   0  0  0  0  0  0  0  0  0  0  0  0
    1.4289    0.0000    0.0000 C   0  0  0  0  0  0  0  0  0  0  0  0
    4.2868    0.0000    0.0000 C   0  0  0  0  0  0  0  0  0  0  0  0
    8.5737    0.0000    0.0000 C   0  0  0  0  0  0  0  0  0  0  0  0
    1.4289    0.8250    0.0000 C   0  0  0  0  0  0  0  0  0  0  0  0
    0.0000    0.8250    0.0000 N   0  0  0  0  0  0  0  0  0  0  0  0
    2.8579    0.0000    0.0000 N   0  0  0  0  0  0  0  0  0  0  0  0
    4.2868    0.8250    0.0000 O   0  0  0  0  0  0  0  0  0  0  0  0
    9.2881   -0.4125    0.0000 O   0  0  0  0  0  0  0  0  0  0  0  0
    8.5737    0.8250    0.0000 O   0  0  0  0  0  0  0  0  0  0  0  0
    2.1434    1.2375    0.0000 O   0  0  0  0  0  0  0  0  0  0  0  0
   -0.0000   -3.3000    0.0000 O   0  0  0  0  0  0  0  0  0  0  0  0
   -0.8250   -2.4750    0.0000 O   0  0  0  0  0  0  0  0  0  0  0  0
    0.8250   -2.4750    0.0000 O   0  0  0  0  0  0  0  0  0  0  0  0
   -0.0000   -1.6500    0.0000 O   0  0  0  0  0  0  0  0  0  0  0  0
   -0.0000   -2.4750    0.0000 P   0  0  0  0  0  0  0  0  0  0  0  0
    4.2868   -0.8250    0.0000 H   0  0  0  0  0  0  0  0  0  0  0  0
    2.6458   -1.7725    0.0000 H   0  0  0  0  0  0  0  0  0  0  0  0
    4.4990   -1.7725    0.0000 H   0  0  0  0  0  0  0  0  0  0  0  0
    3.5724   -2.3075    0.0000 H   0  0  0  0  0  0  0  0  0  0  0  0
    1.6411    2.5975    0.0000 H   0  0  0  0  0  0  0  0  0  0  0  0
   -0.2121    2.5975    0.0000 H   0  0  0  0  0  0  0  0  0  0  0  0
    0.7145    3.1325    0.0000 H   0  0  0  0  0  0  0  0  0  0  0  0
    6.4302   -1.4825    0.0000 H   0  0  0  0  0  0  0  0  0  0  0  0
    7.3568   -0.9475    0.0000 H   0  0  0  0  0  0  0  0  0  0  0  0
    5.7158    1.0700    0.0000 H   0  0  0  0  0  0  0  0  0  0  0  0
    4.7892    0.5350    0.0000 H   0  0  0  0  0  0  0  0  0  0  0  0
    7.1447    1.0700    0.0000 H   0  0  0  0  0  0  0  0  0  0  0  0
    8.0713    0.5350    0.0000 H   0  0  0  0  0  0  0  0  0  0  0  0
    5.0013   -1.4825    0.0000 H   0  0  0  0  0  0  0  0  0  0  0  0
    4.0747   -0.9475    0.0000 H   0  0  0  0  0  0  0  0  0  0  0  0
    7.8592   -1.4825    0.0000 H   0  0  0  0  0  0  0  0  0  0  0  0
    8.7858   -0.9475    0.0000 H   0  0  0  0  0  0  0  0  0  0  0  0
   -0.8937   -0.5160    0.0000 H   0  0  0  0  0  0  0  0  0  0  0  0
    2.1434   -1.4825    0.0000 H   0  0  0  0  0  0  0  0  0  0  0  0
    3.0700   -0.9475    0.0000 H   0  0  0  0  0  0  0  0  0  0  0  0
    1.6411   -1.7725    0.0000 H   0  0  0  0  0  0  0  0  0  0  0  0
    0.7145   -2.3075    0.0000 H   0  0  0  0  0  0  0  0  0  0  0  0
    2.8579    1.0200    0.0000 H   0  0  0  0  0  0  0  0  0  0  0  0
    9.3852    1.2935    0.0000 H   0  0  0  0  0  0  0  0  0  0  0  0
    2.9549    0.7690    0.0000 H   0  0  0  0  0  0  0  0  0  0  0  0
   -0.8400   -3.7850    0.0000 H   0  0  0  0  0  0  0  0  0  0  0  0
   -1.3100   -1.6350    0.0000 H   0  0  0  0  0  0  0  0  0  0  0  0
  1 30  1  0  0  0  0
  1 31  1  0  0  0  0
  1 32  1  0  0  0  0
  2 33  1  0  0  0  0
  2 34  1  0  0  0  0
  2 35  1  0  0  0  0
  3 36  1  0  0  0  0
  3 37  1  0  0  0  0
  4  3  1  0  0  0  0
  4 38  1  0  0  0  0
  4 39  1  0  0  0  0
  5  3  1  0  0  0  0
  5 40  1  0  0  0  0
  5 41  1  0  0  0  0
  6  4  1  0  0  0  0
  6 42  1  0  0  0  0
  6 43  1  0  0  0  0
  7  5  1  0  0  0  0
  7 44  1  0  0  0  0
  7 45  1  0  0  0  0
  8 46  1  0  0  0  0
  9 47  1  0  0  0  0
  9 48  1  0  0  0  0
 10 49  1  0  0  0  0
 10 50  1  0  0  0  0
 11  1  1  0  0  0  0
 11 29  1  1  0  0  0
 12  2  1  0  0  0  0
 13  8  1  0  0  0  0
 13 10  1  0  0  0  0
 14  9  1  0  0  0  0
 14 13  2  0  0  0  0
 15  6  1  0  0  0  0
 15 11  1  0  0  0  0
 16  7  1  0  0  0  0
 17 12  2  0  0  0  0
 17 14  1  0  0  0  0
 18  8  2  0  0  0  0
 18 12  1  0  0  0  0
 19  9  1  0  0  0  0
 19 11  1  0  0  0  0
 19 51  1  0  0  0  0
 20 15  2  0  0  0  0
 21 16  2  0  0  0  0
 22 16  1  0  0  0  0
 22 52  1  0  0  0  0
 23 17  1  0  0  0  0
 23 53  1  0  0  0  0
 24 54  1  0  0  0  0
 25 55  1  0  0  0  0
 27 10  1  0  0  0  0
 28 24  1  0  0  0  0
 28 25  1  0  0  0  0
 28 26  2  0  0  0  0
 28 27  1  0  0  0  0
M  END
>  <DRUGBANK_ID>
DB03160

>  <SECONDARY_ACCESSION_NUMBERS>
EXPT01960

>  <COMMON_NAME>
N-Pyridoxyl-7-Keto-8-Aminopelargonic Acid-5'-Monophosphate

$$$$
