
 OpenBabel10282417072D

100109  0  0  0  0  0  0  0  0999 V2000
    0.5526   -4.7434    0.0000 C   0  0  0  0  0  0  0  0  0  0  0  0
    1.1246   -4.1495    0.0000 O   0  0  0  0  0  0  0  0  0  0  0  0
    0.8964   -3.3548    0.0000 C   0  0  0  0  0  0  0  0  0  0  0  0
    1.4684   -2.7607    0.0000 C   0  0  0  0  0  0  0  0  0  0  0  0
    1.2402   -1.9688    0.0000 C   0  0  0  0  0  0  0  0  0  0  0  0
    1.6774   -1.2704    0.0000 C   0  0  0  0  0  0  0  0  0  0  0  0
    2.4913   -1.1245    0.0000 C   0  0  0  0  0  0  0  0  0  0  0  0
    2.7717   -0.3491    0.0000 C   0  0  0  0  0  0  0  0  0  0  0  0
    2.2410    0.2805    0.0000 N   0  0  0  0  0  0  0  0  0  0  0  0
    1.4299    0.1375    0.0000 C   0  0  1  0  0  0  0  0  0  0  0  0
    1.4299    0.9624    0.0000 C   0  0  0  0  0  0  0  0  0  0  0  0
    0.7148    1.3749    0.0000 S   0  0  0  0  0  0  0  0  0  0  0  0
    0.7122    2.1998    0.0000 C   0  0  2  0  0  0  0  0  0  0  0  0
    1.4271    2.6123    0.0000 C   0  0  0  0  0  0  0  0  0  0  0  0
    2.1420    2.1998    0.0000 C   0  0  0  0  0  0  0  0  0  0  0  0
    2.1420    1.3749    0.0000 O   0  0  0  0  0  0  0  0  0  0  0  0
    2.9175    1.0945    0.0000 C   0  0  0  0  0  0  0  0  0  0  0  0
    3.5500    1.6251    0.0000 C   0  0  0  0  0  0  0  0  0  0  0  0
    3.0633    0.2805    0.0000 O   0  0  0  0  0  0  0  0  0  0  0  0
    2.8570    2.6123    0.0000 C   0  0  0  0  0  0  0  0  0  0  0  0
    3.5719    2.2025    0.0000 C   0  0  0  0  0  0  0  0  0  0  0  0
    2.8570    3.4373    0.0000 C   0  0  0  0  0  0  0  0  0  0  0  0
    3.4675    3.9899    0.0000 O   0  0  0  0  0  0  0  0  0  0  0  0
    3.1320    4.7434    0.0000 C   0  0  0  0  0  0  0  0  0  0  0  0
    2.3126    4.6582    0.0000 O   0  0  0  0  0  0  0  0  0  0  0  0
    2.1420    3.8497    0.0000 C   0  0  0  0  0  0  0  0  0  0  0  0
    1.4271    3.4373    0.0000 C   0  0  0  0  0  0  0  0  0  0  0  0
    0.7122    3.8497    0.0000 C   0  0  1  0  0  0  0  0  0  0  0  0
   -0.0027    3.4373    0.0000 N   0  0  3  0  0  0  0  0  0  0  0  0
   -0.7176    3.8497    0.0000 C   0  0  1  0  0  0  0  0  0  0  0  0
   -0.7176    4.6747    0.0000 O   0  0  0  0  0  0  0  0  0  0  0  0
   -1.4299    3.4345    0.0000 C   0  0  2  0  0  0  0  0  0  0  0  0
   -2.1448    3.0220    0.0000 C   0  0  0  0  0  0  0  0  0  0  0  0
   -2.1448    2.1971    0.0000 C   0  0  0  0  0  0  0  0  0  0  0  0
   -2.8597    1.7846    0.0000 C   0  0  0  0  0  0  0  0  0  0  0  0
   -2.8570    0.9596    0.0000 C   0  0  0  0  0  0  0  0  0  0  0  0
   -3.5719    0.5472    0.0000 C   0  0  0  0  0  0  0  0  0  0  0  0
   -2.1420    0.5472    0.0000 C   0  0  0  0  0  0  0  0  0  0  0  0
   -2.1420   -0.2777    0.0000 O   0  0  0  0  0  0  0  0  0  0  0  0
   -1.4271   -0.6902    0.0000 C   0  0  0  0  0  0  0  0  0  0  0  0
   -1.4299    0.9596    0.0000 C   0  0  0  0  0  0  0  0  0  0  0  0
   -0.7148    0.5499    0.0000 O   0  0  0  0  0  0  0  0  0  0  0  0
   -1.4299    1.7846    0.0000 C   0  0  0  0  0  0  0  0  0  0  0  0
   -0.7148    2.1998    0.0000 C   0  0  1  0  0  0  0  0  0  0  0  0
   -0.9266    1.4051    0.0000 H   0  0  0  0  0  0  0  0  0  0  0  0
   -1.4821    2.6150    0.0000 N   0  0  0  0  0  0  0  0  0  0  0  0
   -0.7040    3.1018    0.0000 C   0  0  0  0  0  0  0  0  0  0  0  0
    0.0000    2.6123    0.0000 C   0  0  2  0  0  0  0  0  0  0  0  0
   -0.3189    2.0568    0.0000 H   0  0  0  0  0  0  0  0  0  0  0  0
    0.6187    4.4877    0.0000 C   0  0  0  0  0  0  0  0  0  0  0  0
   -0.1621    1.3227    0.0000 O   0  0  0  0  0  0  0  0  0  0  0  0
    0.6159    0.2805    0.0000 C   0  0  0  0  0  0  0  0  0  0  0  0
   -0.0990   -0.3409    0.0000 O   0  0  0  0  0  0  0  0  0  0  0  0
    1.1466   -0.6379    0.0000 C   0  0  0  0  0  0  0  0  0  0  0  0
    0.3822   -0.9458    0.0000 N   0  0  0  0  0  0  0  0  0  0  0  0
    0.4400   -1.7708    0.0000 C   0  0  0  0  0  0  0  0  0  0  0  0
   -0.1319   -2.3647    0.0000 C   0  0  0  0  0  0  0  0  0  0  0  0
    0.0962   -3.1568    0.0000 C   0  0  0  0  0  0  0  0  0  0  0  0
   -0.4860   -4.4859    0.0000 H   0  0  0  0  0  0  0  0  0  0  0  0
    0.8489   -5.7716    0.0000 H   0  0  0  0  0  0  0  0  0  0  0  0
   -0.1897   -5.5141    0.0000 H   0  0  0  0  0  0  0  0  0  0  0  0
    2.4701   -3.0090    0.0000 H   0  0  0  0  0  0  0  0  0  0  0  0
    3.1811   -1.9425    0.0000 H   0  0  0  0  0  0  0  0  0  0  0  0
    3.5446   -0.9363    0.0000 H   0  0  0  0  0  0  0  0  0  0  0  0
    3.8250   -0.1610    0.0000 H   0  0  0  0  0  0  0  0  0  0  0  0
    3.1355    0.6572    0.0000 H   0  0  0  0  0  0  0  0  0  0  0  0
    2.5888    1.2394    0.0000 H   0  0  0  0  0  0  0  0  0  0  0  0
    2.3564    1.4976    0.0000 H   0  0  0  0  0  0  0  0  0  0  0  0
    1.4296    2.0324    0.0000 H   0  0  0  0  0  0  0  0  0  0  0  0
    1.6396    1.6661    0.0000 H   0  0  0  0  0  0  0  0  0  0  0  0
    4.5554    1.2590    0.0000 H   0  0  0  0  0  0  0  0  0  0  0  0
    3.3643    2.6789    0.0000 H   0  0  0  0  0  0  0  0  0  0  0  0
    4.3698    2.3128    0.0000 H   0  0  0  0  0  0  0  0  0  0  0  0
    3.5752    1.1325    0.0000 H   0  0  0  0  0  0  0  0  0  0  0  0
    4.4969    2.7404    0.0000 H   0  0  0  0  0  0  0  0  0  0  0  0
    4.5002    1.6704    0.0000 H   0  0  0  0  0  0  0  0  0  0  0  0
    3.6675    5.6698    0.0000 H   0  0  0  0  0  0  0  0  0  0  0  0
    2.5500    5.6413    0.0000 H   0  0  0  0  0  0  0  0  0  0  0  0
    1.5974    4.4508    0.0000 H   0  0  0  0  0  0  0  0  0  0  0  0
    0.2089    4.3849    0.0000 H   0  0  0  0  0  0  0  0  0  0  0  0
    0.1224    5.1597    0.0000 H   0  0  0  0  0  0  0  0  0  0  0  0
   -1.9667    4.3601    0.0000 H   0  0  0  0  0  0  0  0  0  0  0  0
   -3.0714    3.5571    0.0000 H   0  0  0  0  0  0  0  0  0  0  0  0
   -3.0715    2.4871    0.0000 H   0  0  0  0  0  0  0  0  0  0  0  0
   -3.7542    2.2993    0.0000 H   0  0  0  0  0  0  0  0  0  0  0  0
   -4.4984    1.0825    0.0000 H   0  0  0  0  0  0  0  0  0  0  0  0
   -3.5723   -0.5228    0.0000 H   0  0  0  0  0  0  0  0  0  0  0  0
   -4.4987    0.0125    0.0000 H   0  0  0  0  0  0  0  0  0  0  0  0
   -1.4268   -1.7602    0.0000 H   0  0  0  0  0  0  0  0  0  0  0  0
   -0.5006   -0.1550    0.0000 H   0  0  0  0  0  0  0  0  0  0  0  0
   -0.5003   -1.2250    0.0000 H   0  0  0  0  0  0  0  0  0  0  0  0
   -0.7117   -0.3871    0.0000 H   0  0  0  0  0  0  0  0  0  0  0  0
    0.2410    2.6000    0.0000 H   0  0  0  0  0  0  0  0  0  0  0  0
   -0.7419    4.1711    0.0000 H   0  0  0  0  0  0  0  0  0  0  0  0
    0.2031    3.6693    0.0000 H   0  0  0  0  0  0  0  0  0  0  0  0
    0.6702    5.5565    0.0000 H   0  0  0  0  0  0  0  0  0  0  0  0
   -0.4401    4.6423    0.0000 H   0  0  0  0  0  0  0  0  0  0  0  0
   -0.4525   -0.4237    0.0000 H   0  0  0  0  0  0  0  0  0  0  0  0
   -1.1336   -2.1163    0.0000 H   0  0  0  0  0  0  0  0  0  0  0  0
   -0.6196   -3.9002    0.0000 H   0  0  0  0  0  0  0  0  0  0  0  0
  1 59  1  0  0  0  0
  1 60  1  0  0  0  0
  1 61  1  0  0  0  0
  2  1  1  0  0  0  0
  3  2  1  0  0  0  0
  3  4  1  0  0  0  0
  4  5  2  0  0  0  0
  4 62  1  0  0  0  0
  5  6  1  0  0  0  0
  5 56  1  0  0  0  0
  6  7  1  0  0  0  0
  6 54  2  0  0  0  0
  7  8  1  0  0  0  0
  7 63  1  0  0  0  0
  7 64  1  0  0  0  0
  8  9  1  0  0  0  0
  8 65  1  0  0  0  0
  8 66  1  0  0  0  0
  9 10  1  0  0  0  0
  9 67  1  0  0  0  0
 10 11  1  0  0  0  0
 10 52  1  6  0  0  0
 11 68  1  0  0  0  0
 11 69  1  0  0  0  0
 12 11  1  0  0  0  0
 13 12  1  0  0  0  0
 13 70  1  6  0  0  0
 14 13  1  0  0  0  0
 14 15  2  0  0  0  0
 15 16  1  0  0  0  0
 15 20  1  0  0  0  0
 16 17  1  0  0  0  0
 17 18  1  0  0  0  0
 17 19  2  0  0  0  0
 18 71  1  0  0  0  0
 18 72  1  0  0  0  0
 18 73  1  0  0  0  0
 20 21  1  0  0  0  0
 20 22  2  0  0  0  0
 21 74  1  0  0  0  0
 21 75  1  0  0  0  0
 21 76  1  0  0  0  0
 22 23  1  0  0  0  0
 22 26  1  0  0  0  0
 23 24  1  0  0  0  0
 24 77  1  0  0  0  0
 24 78  1  0  0  0  0
 25 24  1  0  0  0  0
 26 25  1  0  0  0  0
 26 27  2  0  0  0  0
 27 28  1  0  0  0  0
 27 14  1  0  0  0  0
 28 29  1  0  0  0  0
 28 50  1  0  0  0  0
 28 79  1  6  0  0  0
 29 30  1  0  0  0  0
 29 48  1  0  0  0  0
 30 31  1  0  0  0  0
 30 80  1  1  0  0  0
 31 81  1  0  0  0  0
 32 30  1  0  0  0  0
 32 33  1  0  0  0  0
 32 82  1  6  0  0  0
 33 83  1  0  0  0  0
 33 84  1  0  0  0  0
 34 33  1  0  0  0  0
 34 35  2  0  0  0  0
 35 36  1  0  0  0  0
 35 85  1  0  0  0  0
 36 37  1  0  0  0  0
 36 38  2  0  0  0  0
 37 86  1  0  0  0  0
 37 87  1  0  0  0  0
 37 88  1  0  0  0  0
 38 39  1  0  0  0  0
 38 41  1  0  0  0  0
 39 40  1  0  0  0  0
 40 89  1  0  0  0  0
 40 90  1  0  0  0  0
 40 91  1  0  0  0  0
 41 42  1  0  0  0  0
 41 43  2  0  0  0  0
 42 92  1  0  0  0  0
 43 44  1  0  0  0  0
 43 34  1  0  0  0  0
 44 45  1  6  0  0  0
 44 46  1  0  0  0  0
 46 47  1  0  0  0  0
 46 32  1  0  0  0  0
 47 93  1  0  0  0  0
 47 94  1  0  0  0  0
 47 95  1  0  0  0  0
 48 44  1  0  0  0  0
 48 49  1  6  0  0  0
 48 13  1  0  0  0  0
 50 51  1  0  0  0  0
 50 96  1  0  0  0  0
 50 97  1  0  0  0  0
 52 51  1  0  0  0  0
 52 53  2  0  0  0  0
 54 10  1  0  0  0  0
 55 54  1  0  0  0  0
 55 98  1  0  0  0  0
 56 55  1  0  0  0  0
 56 57  2  0  0  0  0
 57 58  1  0  0  0  0
 57 99  1  0  0  0  0
 58  3  2  0  0  0  0
 58100  1  0  0  0  0
M  END
>  <DRUGBANK_ID>
DB12674

>  <COMMON_NAME>
Lurbinectedin

>  <CAS_NUMBER>
497871-47-3

>  <UNII>
2CN60TN6ZS

>  <SYNONYMS>
Lurbinectedin

$$$$
