
 OpenBabel10282417072D

 67 69  0  0  0  0  0  0  0  0999 V2000
    0.4078   -2.1359    0.0000 C   0  0  0  0  0  0  0  0  0  0  0  0
    0.4078   -1.3109    0.0000 N   0  0  0  0  0  0  0  0  0  0  0  0
   -0.3067   -0.8984    0.0000 C   0  0  0  0  0  0  0  0  0  0  0  0
   -0.3067   -0.0734    0.0000 C   0  0  0  0  0  0  0  0  0  0  0  0
    0.4078    0.3391    0.0000 C   0  0  0  0  0  0  0  0  0  0  0  0
    0.4078    1.1641    0.0000 O   0  0  0  0  0  0  0  0  0  0  0  0
    1.1223   -0.0734    0.0000 N   0  0  0  0  0  0  0  0  0  0  0  0
    1.1223   -0.8984    0.0000 C   0  0  0  0  0  0  0  0  0  0  0  0
    1.8367   -1.3109    0.0000 O   0  0  0  0  0  0  0  0  0  0  0  0
    1.8367    0.3391    0.0000 C   0  0  0  0  0  0  0  0  0  0  0  0
   -1.0913    0.1815    0.0000 N   0  0  0  0  0  0  0  0  0  0  0  0
   -1.5762   -0.4859    0.0000 C   0  0  0  0  0  0  0  0  0  0  0  0
   -1.0913   -1.1534    0.0000 N   0  0  0  0  0  0  0  0  0  0  0  0
   -1.3462    0.9661    0.0000 C   0  0  0  0  0  0  0  0  0  0  0  0
   -0.7942    1.5792    0.0000 C   0  0  0  0  0  0  0  0  0  0  0  0
   -1.0492    2.3639    0.0000 O   0  0  0  0  0  0  0  0  0  0  0  0
    0.0128    1.4077    0.0000 O   0  0  0  0  0  0  0  0  0  0  0  0
    4.1939   -0.6513    0.0000 C   0  0  0  0  0  0  0  0  0  0  0  0
    4.9083   -0.2388    0.0000 N   0  0  0  0  0  0  0  0  0  0  0  0
    4.9083    0.5862    0.0000 C   0  0  0  0  0  0  0  0  0  0  0  0
    5.6228   -0.6513    0.0000 C   0  0  0  0  0  0  0  0  0  0  0  0
    6.3373   -0.2388    0.0000 C   0  0  0  0  0  0  0  0  0  0  0  0
    7.0518   -0.6513    0.0000 O   0  0  0  0  0  0  0  0  0  0  0  0
    7.7662   -0.2388    0.0000 C   0  0  0  0  0  0  0  0  0  0  0  0
    8.4807   -0.6513    0.0000 C   0  0  0  0  0  0  0  0  0  0  0  0
    9.1952   -0.2388    0.0000 C   0  0  0  0  0  0  0  0  0  0  0  0
    9.9096   -0.6513    0.0000 C   0  0  0  0  0  0  0  0  0  0  0  0
    9.9096   -1.4763    0.0000 C   0  0  0  0  0  0  0  0  0  0  0  0
    9.1952   -1.8888    0.0000 C   0  0  0  0  0  0  0  0  0  0  0  0
    8.4807   -1.4763    0.0000 C   0  0  0  0  0  0  0  0  0  0  0  0
    7.7662    0.5862    0.0000 C   0  0  0  0  0  0  0  0  0  0  0  0
    7.0518    0.9987    0.0000 C   0  0  0  0  0  0  0  0  0  0  0  0
    7.0518    1.8237    0.0000 C   0  0  0  0  0  0  0  0  0  0  0  0
    7.7662    2.2362    0.0000 C   0  0  0  0  0  0  0  0  0  0  0  0
    8.4807    1.8237    0.0000 C   0  0  0  0  0  0  0  0  0  0  0  0
    8.4807    0.9987    0.0000 C   0  0  0  0  0  0  0  0  0  0  0  0
   -0.5188   -2.6709    0.0000 H   0  0  0  0  0  0  0  0  0  0  0  0
    1.3344   -2.6709    0.0000 H   0  0  0  0  0  0  0  0  0  0  0  0
    0.4078   -3.2059    0.0000 H   0  0  0  0  0  0  0  0  0  0  0  0
    2.7634   -0.1959    0.0000 H   0  0  0  0  0  0  0  0  0  0  0  0
    1.8367    1.4091    0.0000 H   0  0  0  0  0  0  0  0  0  0  0  0
    2.7633    0.8741    0.0000 H   0  0  0  0  0  0  0  0  0  0  0  0
   -2.6082   -0.4859    0.0000 H   0  0  0  0  0  0  0  0  0  0  0  0
   -2.3928    1.1886    0.0000 H   0  0  0  0  0  0  0  0  0  0  0  0
   -1.6769    1.9837    0.0000 H   0  0  0  0  0  0  0  0  0  0  0  0
    0.3024    0.5166    0.0000 H   0  0  0  0  0  0  0  0  0  0  0  0
    3.2672   -0.1163    0.0000 H   0  0  0  0  0  0  0  0  0  0  0  0
    4.1939   -1.7213    0.0000 H   0  0  0  0  0  0  0  0  0  0  0  0
    3.2673   -1.1863    0.0000 H   0  0  0  0  0  0  0  0  0  0  0  0
    5.8349    1.1212    0.0000 H   0  0  0  0  0  0  0  0  0  0  0  0
    3.9817    1.1212    0.0000 H   0  0  0  0  0  0  0  0  0  0  0  0
    4.9083    1.6562    0.0000 H   0  0  0  0  0  0  0  0  0  0  0  0
    5.6228   -1.7213    0.0000 H   0  0  0  0  0  0  0  0  0  0  0  0
    6.5494   -1.1863    0.0000 H   0  0  0  0  0  0  0  0  0  0  0  0
    6.3373    0.8312    0.0000 H   0  0  0  0  0  0  0  0  0  0  0  0
    7.2639    0.2962    0.0000 H   0  0  0  0  0  0  0  0  0  0  0  0
    8.6928    0.2962    0.0000 H   0  0  0  0  0  0  0  0  0  0  0  0
    9.1952    0.7932    0.0000 H   0  0  0  0  0  0  0  0  0  0  0  0
   10.8033   -0.1353    0.0000 H   0  0  0  0  0  0  0  0  0  0  0  0
   10.8033   -1.9923    0.0000 H   0  0  0  0  0  0  0  0  0  0  0  0
    9.1952   -2.9208    0.0000 H   0  0  0  0  0  0  0  0  0  0  0  0
    7.5870   -1.9923    0.0000 H   0  0  0  0  0  0  0  0  0  0  0  0
    6.1581    0.4827    0.0000 H   0  0  0  0  0  0  0  0  0  0  0  0
    6.1581    2.3397    0.0000 H   0  0  0  0  0  0  0  0  0  0  0  0
    7.7662    3.2682    0.0000 H   0  0  0  0  0  0  0  0  0  0  0  0
    9.3744    2.3397    0.0000 H   0  0  0  0  0  0  0  0  0  0  0  0
    9.3744    0.4827    0.0000 H   0  0  0  0  0  0  0  0  0  0  0  0
  1  2  1  0  0  0  0
  1 37  1  0  0  0  0
  1 38  1  0  0  0  0
  1 39  1  0  0  0  0
  2  3  1  0  0  0  0
  2  8  1  0  0  0  0
  3  4  2  0  0  0  0
  3 13  1  0  0  0  0
  4  5  1  0  0  0  0
  4 11  1  0  0  0  0
  5  6  2  0  0  0  0
  5  7  1  0  0  0  0
  7  8  1  0  0  0  0
  7 10  1  0  0  0  0
  8  9  2  0  0  0  0
 10 40  1  0  0  0  0
 10 41  1  0  0  0  0
 10 42  1  0  0  0  0
 11 12  1  0  0  0  0
 11 14  1  0  0  0  0
 12 13  2  0  0  0  0
 12 43  1  0  0  0  0
 14 15  1  0  0  0  0
 14 44  1  0  0  0  0
 14 45  1  0  0  0  0
 15 16  2  0  0  0  0
 15 17  1  0  0  0  0
 17 46  1  0  0  0  0
 18 19  1  0  0  0  0
 18 47  1  0  0  0  0
 18 48  1  0  0  0  0
 18 49  1  0  0  0  0
 19 20  1  0  0  0  0
 19 21  1  0  0  0  0
 20 50  1  0  0  0  0
 20 51  1  0  0  0  0
 20 52  1  0  0  0  0
 21 22  1  0  0  0  0
 21 53  1  0  0  0  0
 21 54  1  0  0  0  0
 22 23  1  0  0  0  0
 22 55  1  0  0  0  0
 22 56  1  0  0  0  0
 23 24  1  0  0  0  0
 24 25  1  0  0  0  0
 24 31  1  0  0  0  0
 24 57  1  0  0  0  0
 25 26  2  0  0  0  0
 25 30  1  0  0  0  0
 26 27  1  0  0  0  0
 26 58  1  0  0  0  0
 27 28  2  0  0  0  0
 27 59  1  0  0  0  0
 28 29  1  0  0  0  0
 28 60  1  0  0  0  0
 29 30  2  0  0  0  0
 29 61  1  0  0  0  0
 30 62  1  0  0  0  0
 31 32  2  0  0  0  0
 31 36  1  0  0  0  0
 32 33  1  0  0  0  0
 32 63  1  0  0  0  0
 33 34  2  0  0  0  0
 33 64  1  0  0  0  0
 34 35  1  0  0  0  0
 34 65  1  0  0  0  0
 35 36  2  0  0  0  0
 35 66  1  0  0  0  0
 36 67  1  0  0  0  0
M  END
>  <DRUGBANK_ID>
DB13636

>  <COMMON_NAME>
Etanautine

>  <CAS_NUMBER>
857401-00-4

>  <UNII>
97H5S09M4T

$$$$
