
 OpenBabel10282417072D

 47 49  0  0  0  0  0  0  0  0999 V2000
   -1.8481   -1.9552    0.0000 N   0  0  0  0  0  0  0  0  0  0  0  0
   -1.1739   -1.4793    0.0000 C   0  0  0  0  0  0  0  0  0  0  0  0
   -1.4197   -0.6861    0.0000 N   0  0  0  0  0  0  0  0  0  0  0  0
   -2.2447   -0.6781    0.0000 C   0  0  0  0  0  0  0  0  0  0  0  0
   -2.5064   -1.4555    0.0000 C   0  0  0  0  0  0  0  0  0  0  0  0
   -3.2282   -1.8679    0.0000 C   0  0  0  0  0  0  0  0  0  0  0  0
   -3.9341   -1.4475    0.0000 F   0  0  0  0  0  0  0  0  0  0  0  0
   -3.2282   -2.6929    0.0000 F   0  0  0  0  0  0  0  0  0  0  0  0
   -3.9659   -2.2487    0.0000 F   0  0  0  0  0  0  0  0  0  0  0  0
   -0.9994    0.0277    0.0000 C   0  0  2  0  0  0  0  0  0  0  0  0
   -0.1745    0.0198    0.0000 C   0  0  0  0  0  0  0  0  0  0  0  0
   -1.4039    0.7415    0.0000 C   0  0  0  0  0  0  0  0  0  0  0  0
   -0.9280    1.4157    0.0000 C   0  0  0  0  0  0  0  0  0  0  0  0
   -0.1031    1.4317    0.0000 C   0  0  0  0  0  0  0  0  0  0  0  0
    0.1348    2.2169    0.0000 C   0  0  0  0  0  0  0  0  0  0  0  0
   -0.5393    2.6929    0.0000 C   0  0  0  0  0  0  0  0  0  0  0  0
   -1.1977    2.2011    0.0000 C   0  0  0  0  0  0  0  0  0  0  0  0
    0.2379   -0.7019    0.0000 O   0  0  0  0  0  0  0  0  0  0  0  0
    0.2459    0.7336    0.0000 N   0  0  0  0  0  0  0  0  0  0  0  0
    1.0708    0.7257    0.0000 C   0  0  0  0  0  0  0  0  0  0  0  0
    1.4754    0.0118    0.0000 C   0  0  0  0  0  0  0  0  0  0  0  0
    2.3002    0.0039    0.0000 C   0  0  0  0  0  0  0  0  0  0  0  0
    2.7206    0.7178    0.0000 C   0  0  0  0  0  0  0  0  0  0  0  0
    2.3081    1.4396    0.0000 C   0  0  0  0  0  0  0  0  0  0  0  0
    1.4832    1.4396    0.0000 N   0  0  0  0  0  0  0  0  0  0  0  0
    3.5455    0.7098    0.0000 C   0  0  0  0  0  0  0  0  0  0  0  0
    3.9580   -0.0039    0.0000 O   0  0  0  0  0  0  0  0  0  0  0  0
    3.9659    1.4238    0.0000 O   0  0  0  0  0  0  0  0  0  0  0  0
   -0.1969   -1.8116    0.0000 H   0  0  0  0  0  0  0  0  0  0  0  0
   -2.8428    0.1629    0.0000 H   0  0  0  0  0  0  0  0  0  0  0  0
   -2.0694    0.0366    0.0000 H   0  0  0  0  0  0  0  0  0  0  0  0
   -2.4726    0.7945    0.0000 H   0  0  0  0  0  0  0  0  0  0  0  0
   -1.8725    1.7034    0.0000 H   0  0  0  0  0  0  0  0  0  0  0  0
   -0.3148    2.2925    0.0000 H   0  0  0  0  0  0  0  0  0  0  0  0
    0.5427    0.5786    0.0000 H   0  0  0  0  0  0  0  0  0  0  0  0
    0.9502    1.6200    0.0000 H   0  0  0  0  0  0  0  0  0  0  0  0
    1.1468    2.5645    0.0000 H   0  0  0  0  0  0  0  0  0  0  0  0
    0.2862    3.2761    0.0000 H   0  0  0  0  0  0  0  0  0  0  0  0
   -0.5536    3.7628    0.0000 H   0  0  0  0  0  0  0  0  0  0  0  0
   -1.4991    3.1659    0.0000 H   0  0  0  0  0  0  0  0  0  0  0  0
   -2.2202    2.5165    0.0000 H   0  0  0  0  0  0  0  0  0  0  0  0
   -1.3799    3.2555    0.0000 H   0  0  0  0  0  0  0  0  0  0  0  0
   -0.2386    1.5907    0.0000 H   0  0  0  0  0  0  0  0  0  0  0  0
    0.9516   -0.8774    0.0000 H   0  0  0  0  0  0  0  0  0  0  0  0
    2.8081   -0.8945    0.0000 H   0  0  0  0  0  0  0  0  0  0  0  0
    2.8261    2.3322    0.0000 H   0  0  0  0  0  0  0  0  0  0  0  0
    3.4899   -0.8156    0.0000 H   0  0  0  0  0  0  0  0  0  0  0  0
  1  2  2  0  0  0  0
  1  5  1  0  0  0  0
  2  3  1  0  0  0  0
  2 29  1  0  0  0  0
  3  4  1  0  0  0  0
  3 10  1  0  0  0  0
  4  5  2  0  0  0  0
  4 30  1  0  0  0  0
  5  6  1  0  0  0  0
  6  7  1  0  0  0  0
  6  8  1  0  0  0  0
  6  9  1  0  0  0  0
 10 11  1  0  0  0  0
 10 12  1  0  0  0  0
 10 31  1  6  0  0  0
 11 18  2  0  0  0  0
 11 19  1  0  0  0  0
 12 13  1  0  0  0  0
 12 32  1  0  0  0  0
 12 33  1  0  0  0  0
 13 14  1  0  0  0  0
 13 17  1  0  0  0  0
 13 34  1  0  0  0  0
 14 15  1  0  0  0  0
 14 35  1  0  0  0  0
 14 36  1  0  0  0  0
 15 16  1  0  0  0  0
 15 37  1  0  0  0  0
 15 38  1  0  0  0  0
 16 17  1  0  0  0  0
 16 39  1  0  0  0  0
 16 40  1  0  0  0  0
 17 41  1  0  0  0  0
 17 42  1  0  0  0  0
 19 20  1  0  0  0  0
 19 43  1  0  0  0  0
 20 21  2  0  0  0  0
 20 25  1  0  0  0  0
 21 22  1  0  0  0  0
 21 44  1  0  0  0  0
 22 23  2  0  0  0  0
 22 45  1  0  0  0  0
 23 24  1  0  0  0  0
 23 26  1  0  0  0  0
 24 25  2  0  0  0  0
 24 46  1  0  0  0  0
 26 27  1  0  0  0  0
 26 28  2  0  0  0  0
 27 47  1  0  0  0  0
M  END
>  <DRUGBANK_ID>
DB11765

>  <COMMON_NAME>
PF-04991532

>  <CAS_NUMBER>
1215197-37-7

>  <UNII>
AJ212MS2O2

$$$$
