ADD
 OpenBabel10282417072D

 57 57  0  0  0  0  0  0  0  0999 V2000
   -4.2658   -0.1139    0.0000 C   0  0  0  0  0  0  0  0  0  0  0  0
   -4.9802    0.2986    0.0000 O   0  0  0  0  0  0  0  0  0  0  0  0
   -4.2658   -0.9389    0.0000 O   0  0  0  0  0  0  0  0  0  0  0  0
   -3.5513    0.2986    0.0000 C   0  0  1  0  0  0  0  0  0  0  0  0
   -3.5513    1.1236    0.0000 C   0  0  0  0  0  0  0  0  0  0  0  0
   -2.8368   -0.1139    0.0000 C   0  0  1  0  0  0  0  0  0  0  0  0
   -2.8368   -0.9389    0.0000 N   0  0  0  0  0  0  0  0  0  0  0  0
   -2.1224    0.2986    0.0000 C   0  0  0  0  0  0  0  0  0  0  0  0
   -1.4079   -0.1139    0.0000 C   0  0  0  0  0  0  0  0  0  0  0  0
   -0.6934    0.2986    0.0000 C   0  0  1  0  0  0  0  0  0  0  0  0
   -0.6934    1.1236    0.0000 C   0  0  0  0  0  0  0  0  0  0  0  0
    0.0210   -0.1139    0.0000 C   0  0  0  0  0  0  0  0  0  0  0  0
    0.7355    0.2986    0.0000 C   0  0  2  0  0  0  0  0  0  0  0  0
    0.7355    1.1236    0.0000 C   0  0  0  0  0  0  0  0  0  0  0  0
    1.4500   -0.1139    0.0000 C   0  0  1  0  0  0  0  0  0  0  0  0
    1.4500   -0.9389    0.0000 O   0  0  0  0  0  0  0  0  0  0  0  0
    2.1645   -1.3514    0.0000 C   0  0  0  0  0  0  0  0  0  0  0  0
    2.1645    0.2986    0.0000 C   0  0  0  0  0  0  0  0  0  0  0  0
    2.8789   -0.1139    0.0000 C   0  0  0  0  0  0  0  0  0  0  0  0
    3.5934    0.2986    0.0000 C   0  0  0  0  0  0  0  0  0  0  0  0
    4.3079   -0.1139    0.0000 C   0  0  0  0  0  0  0  0  0  0  0  0
    4.3079   -0.9389    0.0000 C   0  0  0  0  0  0  0  0  0  0  0  0
    3.5934   -1.3514    0.0000 C   0  0  0  0  0  0  0  0  0  0  0  0
    2.8789   -0.9389    0.0000 C   0  0  0  0  0  0  0  0  0  0  0  0
   -4.0570    0.5906    0.0000 H   0  0  0  0  0  0  0  0  0  0  0  0
   -3.3425   -0.4058    0.0000 H   0  0  0  0  0  0  0  0  0  0  0  0
   -1.1991    0.5906    0.0000 H   0  0  0  0  0  0  0  0  0  0  0  0
    0.2298    0.5906    0.0000 H   0  0  0  0  0  0  0  0  0  0  0  0
    0.9443   -0.4058    0.0000 H   0  0  0  0  0  0  0  0  0  0  0  0
   -5.0773   -1.4074    0.0000 H   0  0  0  0  0  0  0  0  0  0  0  0
   -2.6247    1.6586    0.0000 H   0  0  0  0  0  0  0  0  0  0  0  0
   -4.4779    1.6586    0.0000 H   0  0  0  0  0  0  0  0  0  0  0  0
   -3.5513    2.1936    0.0000 H   0  0  0  0  0  0  0  0  0  0  0  0
   -3.7201   -1.4489    0.0000 H   0  0  0  0  0  0  0  0  0  0  0  0
   -1.9535   -1.4489    0.0000 H   0  0  0  0  0  0  0  0  0  0  0  0
   -2.1224    1.3686    0.0000 H   0  0  0  0  0  0  0  0  0  0  0  0
   -1.1958    0.8336    0.0000 H   0  0  0  0  0  0  0  0  0  0  0  0
   -1.4079   -1.1839    0.0000 H   0  0  0  0  0  0  0  0  0  0  0  0
   -0.4813   -0.6489    0.0000 H   0  0  0  0  0  0  0  0  0  0  0  0
    0.2332    1.6586    0.0000 H   0  0  0  0  0  0  0  0  0  0  0  0
   -1.6200    1.6586    0.0000 H   0  0  0  0  0  0  0  0  0  0  0  0
   -0.6934    2.1936    0.0000 H   0  0  0  0  0  0  0  0  0  0  0  0
    0.0210   -1.1839    0.0000 H   0  0  0  0  0  0  0  0  0  0  0  0
    0.9476   -0.6489    0.0000 H   0  0  0  0  0  0  0  0  0  0  0  0
    1.6621    1.6586    0.0000 H   0  0  0  0  0  0  0  0  0  0  0  0
   -0.1911    1.6586    0.0000 H   0  0  0  0  0  0  0  0  0  0  0  0
    0.7355    2.1936    0.0000 H   0  0  0  0  0  0  0  0  0  0  0  0
    2.1645   -2.4214    0.0000 H   0  0  0  0  0  0  0  0  0  0  0  0
    3.0911   -0.8164    0.0000 H   0  0  0  0  0  0  0  0  0  0  0  0
    3.0912   -1.8864    0.0000 H   0  0  0  0  0  0  0  0  0  0  0  0
    2.1645    1.3686    0.0000 H   0  0  0  0  0  0  0  0  0  0  0  0
    3.0912    0.8336    0.0000 H   0  0  0  0  0  0  0  0  0  0  0  0
    3.5934    1.3306    0.0000 H   0  0  0  0  0  0  0  0  0  0  0  0
    5.2016    0.4021    0.0000 H   0  0  0  0  0  0  0  0  0  0  0  0
    5.2016   -1.4549    0.0000 H   0  0  0  0  0  0  0  0  0  0  0  0
    3.5934   -2.3834    0.0000 H   0  0  0  0  0  0  0  0  0  0  0  0
    1.9852   -1.4549    0.0000 H   0  0  0  0  0  0  0  0  0  0  0  0
  1  2  2  0  0  0  0
  1  3  1  0  0  0  0
  1  4  1  0  0  0  0
  3 30  1  0  0  0  0
  4  5  1  0  0  0  0
  4  6  1  0  0  0  0
  4 25  1  6  0  0  0
  5 31  1  0  0  0  0
  5 32  1  0  0  0  0
  5 33  1  0  0  0  0
  6  7  1  0  0  0  0
  6  8  1  0  0  0  0
  6 26  1  1  0  0  0
  7 34  1  0  0  0  0
  7 35  1  0  0  0  0
  8  9  1  0  0  0  0
  8 36  1  0  0  0  0
  8 37  1  0  0  0  0
  9 10  1  0  0  0  0
  9 38  1  0  0  0  0
  9 39  1  0  0  0  0
 10 11  1  0  0  0  0
 10 12  1  0  0  0  0
 10 27  1  6  0  0  0
 11 40  1  0  0  0  0
 11 41  1  0  0  0  0
 11 42  1  0  0  0  0
 12 13  1  0  0  0  0
 12 43  1  0  0  0  0
 12 44  1  0  0  0  0
 13 14  1  0  0  0  0
 13 15  1  0  0  0  0
 13 28  1  1  0  0  0
 14 45  1  0  0  0  0
 14 46  1  0  0  0  0
 14 47  1  0  0  0  0
 15 16  1  0  0  0  0
 15 18  1  0  0  0  0
 15 29  1  1  0  0  0
 16 17  1  0  0  0  0
 17 48  1  0  0  0  0
 17 49  1  0  0  0  0
 17 50  1  0  0  0  0
 18 19  1  0  0  0  0
 18 51  1  0  0  0  0
 18 52  1  0  0  0  0
 19 20  2  0  0  0  0
 19 24  1  0  0  0  0
 20 21  1  0  0  0  0
 20 53  1  0  0  0  0
 21 22  2  0  0  0  0
 21 54  1  0  0  0  0
 22 23  1  0  0  0  0
 22 55  1  0  0  0  0
 23 24  2  0  0  0  0
 23 56  1  0  0  0  0
 24 57  1  0  0  0  0
M  END
>  <DRUGBANK_ID>
DB02506

>  <SECONDARY_ACCESSION_NUMBERS>
EXPT00428

>  <COMMON_NAME>
2,6,8-Trimethyl-3-Amino-9-Benzyl-9-Methoxynonanoic Acid

$$$$
