CQW
 OpenBabel10282417072D

 30 33  0  0  0  0  0  0  0  0999 V2000
    1.4332   -1.4651    0.0000 C   0  0  0  0  0  0  0  0  0  0  0  0
    2.1477   -0.2276    0.0000 C   0  0  0  0  0  0  0  0  0  0  0  0
    0.7188   -1.0526    0.0000 C   0  0  0  0  0  0  0  0  0  0  0  0
   -1.4246    1.0099    0.0000 C   0  0  0  0  0  0  0  0  0  0  0  0
    1.2617   -2.2721    0.0000 N   0  0  0  0  0  0  0  0  0  0  0  0
   -0.7102    1.4224    0.0000 C   0  0  0  0  0  0  0  0  0  0  0  0
   -0.7013   -1.4331    0.0000 Cl  0  0  0  0  0  0  0  0  0  0  0  0
    0.1057   -1.6046    0.0000 C   0  0  0  0  0  0  0  0  0  0  0  0
    0.4412   -2.3583    0.0000 C   0  0  0  0  0  0  0  0  0  0  0  0
    2.1477   -1.0526    0.0000 N   0  0  0  0  0  0  0  0  0  0  0  0
    0.7188   -0.2276    0.0000 C   0  0  0  0  0  0  0  0  0  0  0  0
    1.4332    0.1849    0.0000 N   0  0  0  0  0  0  0  0  0  0  0  0
    0.0043    0.1849    0.0000 N   0  0  0  0  0  0  0  0  0  0  0  0
   -0.7102   -0.2276    0.0000 C   0  0  0  0  0  0  0  0  0  0  0  0
   -1.4246    0.1849    0.0000 C   0  0  0  0  0  0  0  0  0  0  0  0
   -2.2093   -0.0701    0.0000 N   0  0  0  0  0  0  0  0  0  0  0  0
   -2.6942    0.5974    0.0000 C   0  0  0  0  0  0  0  0  0  0  0  0
   -2.2093    1.2648    0.0000 N   0  0  0  0  0  0  0  0  0  0  0  0
    0.0043    1.0099    0.0000 C   0  0  0  0  0  0  0  0  0  0  0  0
    3.0414    0.2884    0.0000 H   0  0  0  0  0  0  0  0  0  0  0  0
    1.9205   -3.0037    0.0000 H   0  0  0  0  0  0  0  0  0  0  0  0
   -0.7102    2.4924    0.0000 H   0  0  0  0  0  0  0  0  0  0  0  0
    0.2164    1.9574    0.0000 H   0  0  0  0  0  0  0  0  0  0  0  0
   -0.0749   -3.2520    0.0000 H   0  0  0  0  0  0  0  0  0  0  0  0
   -0.7102   -1.2976    0.0000 H   0  0  0  0  0  0  0  0  0  0  0  0
   -1.6369   -0.7626    0.0000 H   0  0  0  0  0  0  0  0  0  0  0  0
   -3.7262    0.5974    0.0000 H   0  0  0  0  0  0  0  0  0  0  0  0
   -2.5136    2.2011    0.0000 H   0  0  0  0  0  0  0  0  0  0  0  0
    0.9309    1.5449    0.0000 H   0  0  0  0  0  0  0  0  0  0  0  0
    0.9309    0.4749    0.0000 H   0  0  0  0  0  0  0  0  0  0  0  0
  1  3  2  0  0  0  0
  1  5  1  0  0  0  0
  1 10  1  0  0  0  0
  2 10  2  0  0  0  0
  2 12  1  0  0  0  0
  2 20  1  0  0  0  0
  3  8  1  0  0  0  0
  3 11  1  0  0  0  0
  4  6  1  0  0  0  0
  4 15  2  0  0  0  0
  4 18  1  0  0  0  0
  5  9  1  0  0  0  0
  5 21  1  0  0  0  0
  6 19  1  0  0  0  0
  6 22  1  0  0  0  0
  6 23  1  0  0  0  0
  7  8  1  0  0  0  0
  8  9  2  0  0  0  0
  9 24  1  0  0  0  0
 11 12  2  0  0  0  0
 11 13  1  0  0  0  0
 13 14  1  0  0  0  0
 13 19  1  0  0  0  0
 14 15  1  0  0  0  0
 14 25  1  0  0  0  0
 14 26  1  0  0  0  0
 15 16  1  0  0  0  0
 16 17  2  0  0  0  0
 17 18  1  0  0  0  0
 17 27  1  0  0  0  0
 18 28  1  0  0  0  0
 19 29  1  0  0  0  0
 19 30  1  0  0  0  0
M  END
>  <DRUGBANK_ID>
DB07585

>  <COMMON_NAME>
5-(5-chloro-7H-pyrrolo[2,3-d]pyrimidin-4-yl)-4,5,6,7-tetrahydro-1H-imidazo[4,5-c]pyridine

$$$$
