UDT
 OpenBabel10282417072D

 36 35  0  0  0  0  0  0  0  0999 V2000
   -2.7046    0.3064    0.0000 C   0  0  0  0  0  0  0  0  0  0  0  0
   -1.9901   -0.1061    0.0000 C   0  0  0  0  0  0  0  0  0  0  0  0
   -1.2756    0.3064    0.0000 C   0  0  0  0  0  0  0  0  0  0  0  0
   -0.5611   -0.1061    0.0000 C   0  0  0  0  0  0  0  0  0  0  0  0
    0.1533    0.3064    0.0000 C   0  0  0  0  0  0  0  0  0  0  0  0
    0.8678   -0.1061    0.0000 C   0  0  0  0  0  0  0  0  0  0  0  0
    1.5823    0.3064    0.0000 C   0  0  0  0  0  0  0  0  0  0  0  0
    2.2967   -0.1061    0.0000 C   0  0  0  0  0  0  0  0  0  0  0  0
    3.0112    0.3064    0.0000 C   0  0  0  0  0  0  0  0  0  0  0  0
    3.7257   -0.1061    0.0000 C   0  0  0  0  0  0  0  0  0  0  0  0
    4.4402    0.3064    0.0000 O   0  0  0  0  0  0  0  0  0  0  0  0
    5.1546   -0.1061    0.0000 C   0  0  0  0  0  0  0  0  0  0  0  0
    5.8691    0.3064    0.0000 O   0  0  0  0  0  0  0  0  0  0  0  0
    5.1546   -0.9311    0.0000 S   0  0  0  0  0  0  0  0  0  0  0  0
   -2.7046    1.3764    0.0000 H   0  0  0  0  0  0  0  0  0  0  0  0
   -3.6312   -0.2286    0.0000 H   0  0  0  0  0  0  0  0  0  0  0  0
   -3.6313    0.8414    0.0000 H   0  0  0  0  0  0  0  0  0  0  0  0
   -1.9901   -1.1761    0.0000 H   0  0  0  0  0  0  0  0  0  0  0  0
   -1.0635   -0.6411    0.0000 H   0  0  0  0  0  0  0  0  0  0  0  0
   -1.2756    1.3764    0.0000 H   0  0  0  0  0  0  0  0  0  0  0  0
   -0.3490    0.8414    0.0000 H   0  0  0  0  0  0  0  0  0  0  0  0
   -0.5611   -1.1761    0.0000 H   0  0  0  0  0  0  0  0  0  0  0  0
    0.3656   -0.6411    0.0000 H   0  0  0  0  0  0  0  0  0  0  0  0
    0.1533    1.3764    0.0000 H   0  0  0  0  0  0  0  0  0  0  0  0
    1.0799    0.8414    0.0000 H   0  0  0  0  0  0  0  0  0  0  0  0
    0.8678   -1.1761    0.0000 H   0  0  0  0  0  0  0  0  0  0  0  0
    1.7944   -0.6411    0.0000 H   0  0  0  0  0  0  0  0  0  0  0  0
    1.5823    1.3764    0.0000 H   0  0  0  0  0  0  0  0  0  0  0  0
    2.5090    0.8414    0.0000 H   0  0  0  0  0  0  0  0  0  0  0  0
    2.2967   -1.1761    0.0000 H   0  0  0  0  0  0  0  0  0  0  0  0
    3.2233   -0.6411    0.0000 H   0  0  0  0  0  0  0  0  0  0  0  0
    3.0112    1.3764    0.0000 H   0  0  0  0  0  0  0  0  0  0  0  0
    3.9378    0.8414    0.0000 H   0  0  0  0  0  0  0  0  0  0  0  0
    3.7257   -1.1761    0.0000 H   0  0  0  0  0  0  0  0  0  0  0  0
    4.6523   -0.6411    0.0000 H   0  0  0  0  0  0  0  0  0  0  0  0
    3.9768   -1.6111    0.0000 H   0  0  0  0  0  0  0  0  0  0  0  0
  1  2  1  0  0  0  0
  1 15  1  0  0  0  0
  1 16  1  0  0  0  0
  1 17  1  0  0  0  0
  2  3  1  0  0  0  0
  2 18  1  0  0  0  0
  2 19  1  0  0  0  0
  3  4  1  0  0  0  0
  3 20  1  0  0  0  0
  3 21  1  0  0  0  0
  4  5  1  0  0  0  0
  4 22  1  0  0  0  0
  4 23  1  0  0  0  0
  5  6  1  0  0  0  0
  5 24  1  0  0  0  0
  5 25  1  0  0  0  0
  6  7  1  0  0  0  0
  6 26  1  0  0  0  0
  6 27  1  0  0  0  0
  7  8  1  0  0  0  0
  7 28  1  0  0  0  0
  7 29  1  0  0  0  0
  8  9  1  0  0  0  0
  8 30  1  0  0  0  0
  8 31  1  0  0  0  0
  9 10  1  0  0  0  0
  9 32  1  0  0  0  0
  9 33  1  0  0  0  0
 10 11  1  0  0  0  0
 10 34  1  0  0  0  0
 10 35  1  0  0  0  0
 11 12  1  0  0  0  0
 12 14  1  0  0  0  0
 12 13  2  0  0  0  0
 14 36  1  0  0  0  0
M  END
>  <DRUGBANK_ID>
DB08684

>  <COMMON_NAME>
O-Decyl Hydrogen Thiocarbonate

$$$$
