578
 OpenBabel10282417072D

 58 59  0  0  0  0  0  0  0  0999 V2000
   -4.5931    0.6060    0.0000 C   0  0  0  0  0  0  0  0  0  0  0  0
   -5.3391    0.2537    0.0000 C   0  0  0  0  0  0  0  0  0  0  0  0
   -5.4069   -0.5686    0.0000 C   0  0  0  0  0  0  0  0  0  0  0  0
   -4.7287   -1.0384    0.0000 C   0  0  0  0  0  0  0  0  0  0  0  0
   -3.9828   -0.6860    0.0000 C   0  0  0  0  0  0  0  0  0  0  0  0
   -3.9150    0.1362    0.0000 C   0  0  0  0  0  0  0  0  0  0  0  0
   -3.1690    0.4886    0.0000 C   0  0  0  0  0  0  0  0  0  0  0  0
   -2.4909    0.0187    0.0000 O   0  0  0  0  0  0  0  0  0  0  0  0
   -1.7449    0.3711    0.0000 C   0  0  0  0  0  0  0  0  0  0  0  0
   -1.6771    1.1933    0.0000 O   0  0  0  0  0  0  0  0  0  0  0  0
   -1.0667   -0.0987    0.0000 N   0  0  0  0  0  0  0  0  0  0  0  0
   -0.3208    0.2537    0.0000 C   0  0  1  0  0  0  0  0  0  0  0  0
   -0.2530    1.0759    0.0000 C   0  0  0  0  0  0  0  0  0  0  0  0
   -0.9311    1.5457    0.0000 C   0  0  0  0  0  0  0  0  0  0  0  0
    0.4930    1.4282    0.0000 C   0  0  0  0  0  0  0  0  0  0  0  0
    0.3574   -0.2162    0.0000 P   0  0  2  0  0  0  0  0  0  0  0  0
   -0.1125   -0.8943    0.0000 O   0  0  0  0  0  0  0  0  0  0  0  0
    0.8272    0.4620    0.0000 O   0  0  0  0  0  0  0  0  0  0  0  0
    1.0355   -0.6860    0.0000 O   0  0  0  0  0  0  0  0  0  0  0  0
    1.7815   -0.3336    0.0000 C   0  0  2  0  0  0  0  0  0  0  0  0
    1.8493    0.4886    0.0000 C   0  0  0  0  0  0  0  0  0  0  0  0
    1.1711    0.9584    0.0000 O   0  0  0  0  0  0  0  0  0  0  0  0
    2.5952    0.8409    0.0000 O   0  0  0  0  0  0  0  0  0  0  0  0
    2.4596   -0.8035    0.0000 C   0  0  0  0  0  0  0  0  0  0  0  0
    3.2056   -0.4511    0.0000 C   0  0  0  0  0  0  0  0  0  0  0  0
    2.3918   -1.6257    0.0000 C   0  0  0  0  0  0  0  0  0  0  0  0
    3.0699   -2.0955    0.0000 C   0  0  0  0  0  0  0  0  0  0  0  0
    3.8159   -1.7431    0.0000 C   0  0  0  0  0  0  0  0  0  0  0  0
    3.8837   -0.9209    0.0000 C   0  0  0  0  0  0  0  0  0  0  0  0
    4.6297   -0.5686    0.0000 C   0  0  0  0  0  0  0  0  0  0  0  0
    4.6975    0.2537    0.0000 N   0  0  0  0  0  0  0  0  0  0  0  0
   -0.8008    0.5862    0.0000 H   0  0  0  0  0  0  0  0  0  0  0  0
    1.7335   -0.9156    0.0000 H   0  0  0  0  0  0  0  0  0  0  0  0
   -4.5082    1.6345    0.0000 H   0  0  0  0  0  0  0  0  0  0  0  0
   -6.1874    0.8415    0.0000 H   0  0  0  0  0  0  0  0  0  0  0  0
   -6.3400   -1.0094    0.0000 H   0  0  0  0  0  0  0  0  0  0  0  0
   -4.8135   -2.0669    0.0000 H   0  0  0  0  0  0  0  0  0  0  0  0
   -3.1345   -1.2737    0.0000 H   0  0  0  0  0  0  0  0  0  0  0  0
   -3.0810    1.5550    0.0000 H   0  0  0  0  0  0  0  0  0  0  0  0
   -2.2015    0.9456    0.0000 H   0  0  0  0  0  0  0  0  0  0  0  0
   -1.1476   -1.0799    0.0000 H   0  0  0  0  0  0  0  0  0  0  0  0
   -0.1650    2.1423    0.0000 H   0  0  0  0  0  0  0  0  0  0  0  0
   -0.8431    2.6121    0.0000 H   0  0  0  0  0  0  0  0  0  0  0  0
   -1.8986    1.0887    0.0000 H   0  0  0  0  0  0  0  0  0  0  0  0
   -1.8106    2.1551    0.0000 H   0  0  0  0  0  0  0  0  0  0  0  0
    1.3725    0.8188    0.0000 H   0  0  0  0  0  0  0  0  0  0  0  0
    0.5811    2.4946    0.0000 H   0  0  0  0  0  0  0  0  0  0  0  0
    1.4605    1.8851    0.0000 H   0  0  0  0  0  0  0  0  0  0  0  0
    1.7939    0.3823    0.0000 H   0  0  0  0  0  0  0  0  0  0  0  0
    3.3654    0.3072    0.0000 H   0  0  0  0  0  0  0  0  0  0  0  0
    3.2904    0.5774    0.0000 H   0  0  0  0  0  0  0  0  0  0  0  0
    1.4587   -2.0665    0.0000 H   0  0  0  0  0  0  0  0  0  0  0  0
    2.9851   -3.1240    0.0000 H   0  0  0  0  0  0  0  0  0  0  0  0
    4.6642   -2.3308    0.0000 H   0  0  0  0  0  0  0  0  0  0  0  0
    5.5092   -1.1780    0.0000 H   0  0  0  0  0  0  0  0  0  0  0  0
    5.5972   -0.1116    0.0000 H   0  0  0  0  0  0  0  0  0  0  0  0
    5.6198    0.6894    0.0000 H   0  0  0  0  0  0  0  0  0  0  0  0
    3.8590    0.8346    0.0000 H   0  0  0  0  0  0  0  0  0  0  0  0
  1  6  1  0  0  0  0
  1  2  2  0  0  0  0
  1 34  1  0  0  0  0
  2  3  1  0  0  0  0
  2 35  1  0  0  0  0
  3  4  2  0  0  0  0
  3 36  1  0  0  0  0
  4  5  1  0  0  0  0
  4 37  1  0  0  0  0
  5  6  2  0  0  0  0
  5 38  1  0  0  0  0
  6  7  1  0  0  0  0
  7  8  1  0  0  0  0
  7 39  1  0  0  0  0
  7 40  1  0  0  0  0
  8  9  1  0  0  0  0
  9 11  1  0  0  0  0
  9 10  2  0  0  0  0
 11 41  1  0  0  0  0
 12 11  1  0  0  0  0
 12 13  1  0  0  0  0
 12 16  1  0  0  0  0
 12 32  1  6  0  0  0
 13 15  1  0  0  0  0
 13 14  1  0  0  0  0
 13 42  1  0  0  0  0
 14 43  1  0  0  0  0
 14 44  1  0  0  0  0
 14 45  1  0  0  0  0
 15 46  1  0  0  0  0
 15 47  1  0  0  0  0
 15 48  1  0  0  0  0
 16 17  2  1  0  0  0
 16 19  1  0  0  0  0
 16 18  1  0  0  0  0
 18 49  1  0  0  0  0
 20 19  1  0  0  0  0
 20 24  1  0  0  0  0
 20 21  1  0  0  0  0
 20 33  1  1  0  0  0
 21 22  2  0  0  0  0
 21 23  1  0  0  0  0
 23 50  1  0  0  0  0
 24 25  2  0  0  0  0
 24 26  1  0  0  0  0
 25 29  1  0  0  0  0
 25 51  1  0  0  0  0
 26 27  2  0  0  0  0
 26 52  1  0  0  0  0
 27 28  1  0  0  0  0
 27 53  1  0  0  0  0
 28 29  2  0  0  0  0
 28 54  1  0  0  0  0
 29 30  1  0  0  0  0
 30 31  1  0  0  0  0
 30 55  1  0  0  0  0
 30 56  1  0  0  0  0
 31 57  1  0  0  0  0
 31 58  1  0  0  0  0
M  END
>  <DRUGBANK_ID>
DB07157

>  <COMMON_NAME>
(5R,6S,8S)-8-[3-(AMINOMETHYL)PHENYL]-6-HYDROXY-5-ISOPROPYL-3-OXO-1-PHENYL-2,7-DIOXA-4-AZA-6-PHOSPHANONAN-9-OIC ACID 6-OXIDE

$$$$
