
 OpenBabel10282417072D

 43 45  0  0  0  0  0  0  0  0999 V2000
    3.4656    0.3509    0.0000 N   0  0  0  0  0  0  0  0  0  0  0  0
    2.7512   -0.0616    0.0000 S   0  0  0  0  0  0  0  0  0  0  0  0
    3.1637   -0.7761    0.0000 O   0  0  0  0  0  0  0  0  0  0  0  0
    2.3387    0.6529    0.0000 O   0  0  0  0  0  0  0  0  0  0  0  0
    2.0367   -0.4741    0.0000 C   0  0  0  0  0  0  0  0  0  0  0  0
    1.3222   -0.0616    0.0000 C   0  0  0  0  0  0  0  0  0  0  0  0
    0.6078   -0.4741    0.0000 C   0  0  0  0  0  0  0  0  0  0  0  0
    0.6078   -1.2991    0.0000 C   0  0  0  0  0  0  0  0  0  0  0  0
    1.3222   -1.7116    0.0000 C   0  0  0  0  0  0  0  0  0  0  0  0
    1.3222   -2.5366    0.0000 N   0  0  0  0  0  0  0  0  0  0  0  0
    1.9897   -3.0215    0.0000 C   0  0  0  0  0  0  0  0  0  0  0  0
    1.7347   -3.8062    0.0000 C   0  0  0  0  0  0  0  0  0  0  0  0
    0.9097   -3.8062    0.0000 C   0  0  0  0  0  0  0  0  0  0  0  0
    0.6548   -3.0215    0.0000 C   0  0  0  0  0  0  0  0  0  0  0  0
    2.0367   -1.2991    0.0000 C   0  0  0  0  0  0  0  0  0  0  0  0
    2.7512   -1.7116    0.0000 O   0  0  0  0  0  0  0  0  0  0  0  0
    3.4656   -1.2991    0.0000 C   0  0  0  0  0  0  0  0  0  0  0  0
    3.4656   -0.4741    0.0000 C   0  0  0  0  0  0  0  0  0  0  0  0
    4.1801   -0.0616    0.0000 C   0  0  0  0  0  0  0  0  0  0  0  0
    4.8946   -0.4741    0.0000 C   0  0  0  0  0  0  0  0  0  0  0  0
    4.8946   -1.2991    0.0000 C   0  0  0  0  0  0  0  0  0  0  0  0
    4.1801   -1.7116    0.0000 C   0  0  0  0  0  0  0  0  0  0  0  0
   -0.1067   -0.0616    0.0000 C   0  0  0  0  0  0  0  0  0  0  0  0
   -0.1067    0.7634    0.0000 O   0  0  0  0  0  0  0  0  0  0  0  0
   -0.8212   -0.4741    0.0000 O   0  0  0  0  0  0  0  0  0  0  0  0
    4.3490   -0.1591    0.0000 H   0  0  0  0  0  0  0  0  0  0  0  0
    3.4656    1.3709    0.0000 H   0  0  0  0  0  0  0  0  0  0  0  0
    1.3222    0.9704    0.0000 H   0  0  0  0  0  0  0  0  0  0  0  0
   -0.2859   -1.8151    0.0000 H   0  0  0  0  0  0  0  0  0  0  0  0
    3.0073   -2.6908    0.0000 H   0  0  0  0  0  0  0  0  0  0  0  0
    2.7463   -3.7781    0.0000 H   0  0  0  0  0  0  0  0  0  0  0  0
    2.3636   -4.6719    0.0000 H   0  0  0  0  0  0  0  0  0  0  0  0
    1.2489   -4.7596    0.0000 H   0  0  0  0  0  0  0  0  0  0  0  0
    0.2807   -4.6718    0.0000 H   0  0  0  0  0  0  0  0  0  0  0  0
   -0.1471   -3.6388    0.0000 H   0  0  0  0  0  0  0  0  0  0  0  0
   -0.3628   -2.6908    0.0000 H   0  0  0  0  0  0  0  0  0  0  0  0
    0.4874   -1.9647    0.0000 H   0  0  0  0  0  0  0  0  0  0  0  0
    2.5719    0.0419    0.0000 H   0  0  0  0  0  0  0  0  0  0  0  0
    4.1801    0.9704    0.0000 H   0  0  0  0  0  0  0  0  0  0  0  0
    5.7883    0.0419    0.0000 H   0  0  0  0  0  0  0  0  0  0  0  0
    5.7883   -1.8151    0.0000 H   0  0  0  0  0  0  0  0  0  0  0  0
    4.1801   -2.7436    0.0000 H   0  0  0  0  0  0  0  0  0  0  0  0
    0.7048    1.2319    0.0000 H   0  0  0  0  0  0  0  0  0  0  0  0
  1  2  1  0  0  0  0
  1 26  1  0  0  0  0
  1 27  1  0  0  0  0
  2  3  2  0  0  0  0
  2  4  2  0  0  0  0
  2  5  1  0  0  0  0
  5  6  2  0  0  0  0
  5 15  1  0  0  0  0
  6  7  1  0  0  0  0
  6 28  1  0  0  0  0
  7  8  2  0  0  0  0
  7 23  1  0  0  0  0
  8  9  1  0  0  0  0
  8 29  1  0  0  0  0
  9 10  1  0  0  0  0
  9 15  2  0  0  0  0
 10 11  1  0  0  0  0
 10 14  1  0  0  0  0
 11 12  1  0  0  0  0
 11 30  1  0  0  0  0
 11 31  1  0  0  0  0
 12 13  1  0  0  0  0
 12 32  1  0  0  0  0
 12 33  1  0  0  0  0
 13 14  1  0  0  0  0
 13 34  1  0  0  0  0
 13 35  1  0  0  0  0
 14 36  1  0  0  0  0
 14 37  1  0  0  0  0
 15 16  1  0  0  0  0
 16 17  1  0  0  0  0
 17 18  2  0  0  0  0
 17 22  1  0  0  0  0
 18 19  1  0  0  0  0
 18 38  1  0  0  0  0
 19 20  2  0  0  0  0
 19 39  1  0  0  0  0
 20 21  1  0  0  0  0
 20 40  1  0  0  0  0
 21 22  2  0  0  0  0
 21 41  1  0  0  0  0
 22 42  1  0  0  0  0
 23 24  1  0  0  0  0
 23 25  2  0  0  0  0
 24 43  1  0  0  0  0
M  END
>  <DRUGBANK_ID>
DB02925

>  <SECONDARY_ACCESSION_NUMBERS>
EXPT03308

>  <COMMON_NAME>
Piretanide

>  <CAS_NUMBER>
55837-27-9

>  <UNII>
DQ6KK6GV93

>  <SYNONYMS>
Piretanida; Piretanide

$$$$
