
 OpenBabel10282417072D

 50 49  0  0  0  0  0  0  0  0999 V2000
   -1.4290    0.0000    0.0000 C   0  0  0  0  0  0  0  0  0  0  0  0
   -1.4290   -0.8249    0.0000 C   0  0  0  0  0  0  0  0  0  0  0  0
   -2.1436    0.4125    0.0000 C   0  0  0  0  0  0  0  0  0  0  0  0
   -2.1436   -1.2375    0.0000 C   0  0  0  0  0  0  0  0  0  0  0  0
   -2.8580    0.0000    0.0000 C   0  0  0  0  0  0  0  0  0  0  0  0
   -2.8580   -0.8249    0.0000 C   0  0  0  0  0  0  0  0  0  0  0  0
    0.0000    0.0000    0.0000 C   0  0  0  0  0  0  0  0  0  0  0  0
    0.0000   -0.8249    0.0000 C   0  0  0  0  0  0  0  0  0  0  0  0
   -0.7145    0.4125    0.0000 C   0  0  0  0  0  0  0  0  0  0  0  0
   -0.7145   -1.2375    0.0000 C   0  0  0  0  0  0  0  0  0  0  0  0
    1.4291    0.0000    0.0000 C   0  0  0  0  0  0  0  0  0  0  0  0
    1.4291   -0.8249    0.0000 C   0  0  0  0  0  0  0  0  0  0  0  0
    0.7144    0.4125    0.0000 C   0  0  0  0  0  0  0  0  0  0  0  0
    0.7144   -1.2375    0.0000 C   0  0  0  0  0  0  0  0  0  0  0  0
    2.1435    0.4125    0.0000 C   0  0  0  0  0  0  0  0  0  0  0  0
    2.1435   -1.2375    0.0000 C   0  0  0  0  0  0  0  0  0  0  0  0
    2.8580    0.0000    0.0000 O   0  0  0  0  0  0  0  0  0  0  0  0
    2.1435    1.2375    0.0000 O   0  0  0  0  0  0  0  0  0  0  0  0
   -1.4290   -1.0700    0.0000 H   0  0  0  0  0  0  0  0  0  0  0  0
   -0.5023   -0.5350    0.0000 H   0  0  0  0  0  0  0  0  0  0  0  0
   -1.4290    0.2451    0.0000 H   0  0  0  0  0  0  0  0  0  0  0  0
   -0.5023   -0.2900    0.0000 H   0  0  0  0  0  0  0  0  0  0  0  0
   -2.1437    1.4825    0.0000 H   0  0  0  0  0  0  0  0  0  0  0  0
   -3.0703    0.9475    0.0000 H   0  0  0  0  0  0  0  0  0  0  0  0
   -2.1437   -2.3075    0.0000 H   0  0  0  0  0  0  0  0  0  0  0  0
   -3.0703   -1.7724    0.0000 H   0  0  0  0  0  0  0  0  0  0  0  0
   -3.7847    0.5350    0.0000 H   0  0  0  0  0  0  0  0  0  0  0  0
   -3.7846   -0.5350    0.0000 H   0  0  0  0  0  0  0  0  0  0  0  0
   -3.7847   -1.3598    0.0000 H   0  0  0  0  0  0  0  0  0  0  0  0
   -3.7846   -0.2899    0.0000 H   0  0  0  0  0  0  0  0  0  0  0  0
    0.0000   -1.0700    0.0000 H   0  0  0  0  0  0  0  0  0  0  0  0
    0.9267   -0.5350    0.0000 H   0  0  0  0  0  0  0  0  0  0  0  0
    0.0000    0.2451    0.0000 H   0  0  0  0  0  0  0  0  0  0  0  0
    0.9267   -0.2900    0.0000 H   0  0  0  0  0  0  0  0  0  0  0  0
   -0.7145    1.4825    0.0000 H   0  0  0  0  0  0  0  0  0  0  0  0
   -1.6411    0.9475    0.0000 H   0  0  0  0  0  0  0  0  0  0  0  0
   -0.7145   -2.3075    0.0000 H   0  0  0  0  0  0  0  0  0  0  0  0
   -1.6412   -1.7725    0.0000 H   0  0  0  0  0  0  0  0  0  0  0  0
    1.4292   -1.0700    0.0000 H   0  0  0  0  0  0  0  0  0  0  0  0
    2.3558   -0.5349    0.0000 H   0  0  0  0  0  0  0  0  0  0  0  0
    1.4292    0.2451    0.0000 H   0  0  0  0  0  0  0  0  0  0  0  0
    2.3558   -0.2900    0.0000 H   0  0  0  0  0  0  0  0  0  0  0  0
    0.7143    1.4825    0.0000 H   0  0  0  0  0  0  0  0  0  0  0  0
   -0.2123    0.9474    0.0000 H   0  0  0  0  0  0  0  0  0  0  0  0
    0.7143   -2.3075    0.0000 H   0  0  0  0  0  0  0  0  0  0  0  0
   -0.2123   -1.7724    0.0000 H   0  0  0  0  0  0  0  0  0  0  0  0
    2.1433   -2.3075    0.0000 H   0  0  0  0  0  0  0  0  0  0  0  0
    3.0702   -0.7026    0.0000 H   0  0  0  0  0  0  0  0  0  0  0  0
    3.0701   -1.7726    0.0000 H   0  0  0  0  0  0  0  0  0  0  0  0
    2.8580   -0.9370    0.0000 H   0  0  0  0  0  0  0  0  0  0  0  0
  1  9  1  0  0  0  0
  1 19  1  0  0  0  0
  1 20  1  0  0  0  0
  2 10  1  0  0  0  0
  2 21  1  0  0  0  0
  2 22  1  0  0  0  0
  3  1  1  0  0  0  0
  3 23  1  0  0  0  0
  3 24  1  0  0  0  0
  4  2  1  0  0  0  0
  4 25  1  0  0  0  0
  4 26  1  0  0  0  0
  5  3  1  0  0  0  0
  5 27  1  0  0  0  0
  5 28  1  0  0  0  0
  6  4  1  0  0  0  0
  6  5  1  0  0  0  0
  6 29  1  0  0  0  0
  6 30  1  0  0  0  0
  7 13  1  0  0  0  0
  7 31  1  0  0  0  0
  7 32  1  0  0  0  0
  8 14  1  0  0  0  0
  8 33  1  0  0  0  0
  8 34  1  0  0  0  0
  9  7  1  0  0  0  0
  9 35  1  0  0  0  0
  9 36  1  0  0  0  0
 10  8  1  0  0  0  0
 10 37  1  0  0  0  0
 10 38  1  0  0  0  0
 11 15  1  0  0  0  0
 11 39  1  0  0  0  0
 11 40  1  0  0  0  0
 12 16  1  0  0  0  0
 12 41  1  0  0  0  0
 12 42  1  0  0  0  0
 13 11  1  0  0  0  0
 13 43  1  0  0  0  0
 13 44  1  0  0  0  0
 14 12  1  0  0  0  0
 14 45  1  0  0  0  0
 14 46  1  0  0  0  0
 15 17  1  0  0  0  0
 15 18  2  0  0  0  0
 16 47  1  0  0  0  0
 16 48  1  0  0  0  0
 16 49  1  0  0  0  0
 17 50  1  0  0  0  0
M  END
>  <DRUGBANK_ID>
DB03796

>  <SECONDARY_ACCESSION_NUMBERS>
EXPT01393; EXPT02607

>  <COMMON_NAME>
Palmitic Acid

>  <CAS_NUMBER>
57-10-3

>  <UNII>
2V16EO95H1

>  <SYNONYMS>
1-hexyldecanoic acid; 1-Pentadecanecarboxylic acid; Hexadecanoate; Hexadecanoic acid; Hexadecoic acid; Hexadecylic acid; Hexaectylic acid; Palmitate; Palmitic Acid; Palmitinic acid; Palmitins√§ure

$$$$
