PG5
 OpenBabel10282417072D

 30 29  0  0  0  0  0  0  0  0999 V2000
   -3.8810   -0.2062    0.0000 C   0  0  0  0  0  0  0  0  0  0  0  0
   -3.1666    0.2063    0.0000 O   0  0  0  0  0  0  0  0  0  0  0  0
   -2.4522   -0.2062    0.0000 C   0  0  0  0  0  0  0  0  0  0  0  0
   -1.7377    0.2063    0.0000 C   0  0  0  0  0  0  0  0  0  0  0  0
   -1.0232   -0.2062    0.0000 O   0  0  0  0  0  0  0  0  0  0  0  0
   -0.3088    0.2062    0.0000 C   0  0  0  0  0  0  0  0  0  0  0  0
    0.4056   -0.2063    0.0000 C   0  0  0  0  0  0  0  0  0  0  0  0
    1.1201    0.2062    0.0000 O   0  0  0  0  0  0  0  0  0  0  0  0
    1.8346   -0.2063    0.0000 C   0  0  0  0  0  0  0  0  0  0  0  0
    2.5491    0.2062    0.0000 C   0  0  0  0  0  0  0  0  0  0  0  0
    3.2635   -0.2063    0.0000 O   0  0  0  0  0  0  0  0  0  0  0  0
    3.9780    0.2062    0.0000 C   0  0  0  0  0  0  0  0  0  0  0  0
   -4.8077    0.3288    0.0000 H   0  0  0  0  0  0  0  0  0  0  0  0
   -3.8810   -1.2762    0.0000 H   0  0  0  0  0  0  0  0  0  0  0  0
   -4.8076   -0.7412    0.0000 H   0  0  0  0  0  0  0  0  0  0  0  0
   -2.4522   -1.2762    0.0000 H   0  0  0  0  0  0  0  0  0  0  0  0
   -1.5256   -0.7412    0.0000 H   0  0  0  0  0  0  0  0  0  0  0  0
   -1.7377    1.2763    0.0000 H   0  0  0  0  0  0  0  0  0  0  0  0
   -0.8111    0.7413    0.0000 H   0  0  0  0  0  0  0  0  0  0  0  0
   -0.3087    1.2762    0.0000 H   0  0  0  0  0  0  0  0  0  0  0  0
    0.6179    0.7412    0.0000 H   0  0  0  0  0  0  0  0  0  0  0  0
    0.4056   -1.2763    0.0000 H   0  0  0  0  0  0  0  0  0  0  0  0
    1.3322   -0.7413    0.0000 H   0  0  0  0  0  0  0  0  0  0  0  0
    1.8346   -1.2763    0.0000 H   0  0  0  0  0  0  0  0  0  0  0  0
    2.7612   -0.7413    0.0000 H   0  0  0  0  0  0  0  0  0  0  0  0
    2.5491    1.2762    0.0000 H   0  0  0  0  0  0  0  0  0  0  0  0
    3.4758    0.7412    0.0000 H   0  0  0  0  0  0  0  0  0  0  0  0
    4.9046   -0.3288    0.0000 H   0  0  0  0  0  0  0  0  0  0  0  0
    3.9780    1.2762    0.0000 H   0  0  0  0  0  0  0  0  0  0  0  0
    4.9047    0.7412    0.0000 H   0  0  0  0  0  0  0  0  0  0  0  0
  1  2  1  0  0  0  0
  1 13  1  0  0  0  0
  1 14  1  0  0  0  0
  1 15  1  0  0  0  0
  2  3  1  0  0  0  0
  3  4  1  0  0  0  0
  3 16  1  0  0  0  0
  3 17  1  0  0  0  0
  4  5  1  0  0  0  0
  4 18  1  0  0  0  0
  4 19  1  0  0  0  0
  5  6  1  0  0  0  0
  6  7  1  0  0  0  0
  6 20  1  0  0  0  0
  6 21  1  0  0  0  0
  7  8  1  0  0  0  0
  7 22  1  0  0  0  0
  7 23  1  0  0  0  0
  8  9  1  0  0  0  0
  9 10  1  0  0  0  0
  9 24  1  0  0  0  0
  9 25  1  0  0  0  0
 10 11  1  0  0  0  0
 10 26  1  0  0  0  0
 10 27  1  0  0  0  0
 11 12  1  0  0  0  0
 12 28  1  0  0  0  0
 12 29  1  0  0  0  0
 12 30  1  0  0  0  0
M  END
>  <DRUGBANK_ID>
DB02078

>  <SECONDARY_ACCESSION_NUMBERS>
EXPT02565

>  <COMMON_NAME>
Triglyme

>  <CAS_NUMBER>
112-49-2

>  <UNII>
32YXG88KK0

>  <SYNONYMS>
1-methoxy-2-[2-(2-methoxyethoxy)ethoxy]ethane; 1,2-bis(2-methoxyethoxy)ethane; dimethyl ether of triethylene glycol; Glyme 4

$$$$
