
 OpenBabel10282417072D

 68 72  0  0  0  0  0  0  0  0999 V2000
    4.2654    2.8199    0.0000 Se  0  0  0  0  0  0  0  0  0  0  0  0
   -1.8020    2.0816    0.0000 P   0  0  1  0  0  0  0  0  0  0  0  0
   -0.3806    2.2285    0.0000 P   0  0  2  0  0  0  0  0  0  0  0  0
   -3.8932    0.6258    0.0000 O   0  0  0  0  0  0  0  0  0  0  0  0
    2.5090    2.4498    0.0000 O   0  0  0  0  0  0  0  0  0  0  0  0
   -4.9295    2.4923    0.0000 O   0  0  0  0  0  0  0  0  0  0  0  0
   -5.9872    1.0420    0.0000 O   0  0  0  0  0  0  0  0  0  0  0  0
    1.4108    0.6191    0.0000 O   0  0  0  0  0  0  0  0  0  0  0  0
    3.1956    0.4283    0.0000 O   0  0  0  0  0  0  0  0  0  0  0  0
   -2.4704    1.5978    0.0000 O   0  0  0  0  0  0  0  0  0  0  0  0
    0.3725    1.8916    0.0000 O   0  0  0  0  0  0  0  0  0  0  0  0
   -1.1337    2.5654    0.0000 O   0  0  0  0  0  0  0  0  0  0  0  0
   -1.3183    1.4132    0.0000 O   0  0  0  0  0  0  0  0  0  0  0  0
   -0.0438    2.9816    0.0000 O   0  0  0  0  0  0  0  0  0  0  0  0
   -2.2858    2.7499    0.0000 O   0  0  0  0  0  0  0  0  0  0  0  0
   -0.7175    1.4754    0.0000 O   0  0  0  0  0  0  0  0  0  0  0  0
    6.0939    0.7675    0.0000 O   0  0  0  0  0  0  0  0  0  0  0  0
   -4.9346   -0.4119    0.0000 N   0  0  0  0  0  0  0  0  0  0  0  0
   -4.9346   -1.7397    0.0000 N   0  0  0  0  0  0  0  0  0  0  0  0
    4.5407    1.5137    0.0000 N   0  0  0  0  0  0  0  0  0  0  0  0
   -6.4298   -0.2508    0.0000 N   0  0  0  0  0  0  0  0  0  0  0  0
   -7.1443   -1.4883    0.0000 N   0  0  0  0  0  0  0  0  0  0  0  0
   -6.4298   -2.7259    0.0000 N   0  0  0  0  0  0  0  0  0  0  0  0
    6.6774    2.0719    0.0000 N   0  0  0  0  0  0  0  0  0  0  0  0
   -4.6760    1.7072    0.0000 C   0  0  1  0  0  0  0  0  0  0  0  0
   -5.1621    1.0406    0.0000 C   0  0  2  0  0  0  0  0  0  0  0  0
   -3.8917    1.4509    0.0000 C   0  0  1  0  0  0  0  0  0  0  0  0
   -4.6783    0.3723    0.0000 C   0  0  1  0  0  0  0  0  0  0  0  0
    1.9640    1.2312    0.0000 C   0  0  2  0  0  0  0  0  0  0  0  0
    1.7938    2.0385    0.0000 C   0  0  1  0  0  0  0  0  0  0  0  0
    2.7844    1.1435    0.0000 C   0  0  2  0  0  0  0  0  0  0  0  0
    3.1212    1.8967    0.0000 C   0  0  2  0  0  0  0  0  0  0  0  0
   -3.2234    1.9347    0.0000 C   0  0  0  0  0  0  0  0  0  0  0  0
    1.0407    2.3754    0.0000 C   0  0  0  0  0  0  0  0  0  0  0  0
    3.9285    2.0668    0.0000 C   0  0  0  0  0  0  0  0  0  0  0  0
   -5.7152   -0.6633    0.0000 C   0  0  0  0  0  0  0  0  0  0  0  0
   -4.4531   -1.0758    0.0000 C   0  0  0  0  0  0  0  0  0  0  0  0
   -5.7152   -1.4883    0.0000 C   0  0  0  0  0  0  0  0  0  0  0  0
   -6.4298   -1.9008    0.0000 C   0  0  0  0  0  0  0  0  0  0  0  0
    5.2559    1.9250    0.0000 C   0  0  0  0  0  0  0  0  0  0  0  0
    5.0858    2.7323    0.0000 C   0  0  0  0  0  0  0  0  0  0  0  0
   -7.1443   -0.6633    0.0000 C   0  0  0  0  0  0  0  0  0  0  0  0
    6.0090    1.5881    0.0000 C   0  0  0  0  0  0  0  0  0  0  0  0
    3.2932    2.5340    0.0000 H   0  0  0  0  0  0  0  0  0  0  0  0
   -6.8727   -2.9816    0.0000 H   0  0  0  0  0  0  0  0  0  0  0  0
   -5.9867   -2.9816    0.0000 H   0  0  0  0  0  0  0  0  0  0  0  0
    6.6247    2.5807    0.0000 H   0  0  0  0  0  0  0  0  0  0  0  0
    7.1443    1.8630    0.0000 H   0  0  0  0  0  0  0  0  0  0  0  0
   -4.2791    3.2120    0.0000 H   0  0  0  0  0  0  0  0  0  0  0  0
   -6.4708    1.8829    0.0000 H   0  0  0  0  0  0  0  0  0  0  0  0
    0.4624    0.8225    0.0000 H   0  0  0  0  0  0  0  0  0  0  0  0
    2.7091   -0.4109    0.0000 H   0  0  0  0  0  0  0  0  0  0  0  0
   -1.7145    0.5278    0.0000 H   0  0  0  0  0  0  0  0  0  0  0  0
    0.9211    3.0814    0.0000 H   0  0  0  0  0  0  0  0  0  0  0  0
   -5.7325    1.8765    0.0000 H   0  0  0  0  0  0  0  0  0  0  0  0
   -5.6462    1.9948    0.0000 H   0  0  0  0  0  0  0  0  0  0  0  0
   -2.9392    0.9634    0.0000 H   0  0  0  0  0  0  0  0  0  0  0  0
   -3.9230   -0.3857    0.0000 H   0  0  0  0  0  0  0  0  0  0  0  0
    0.9309    1.5100    0.0000 H   0  0  0  0  0  0  0  0  0  0  0  0
    1.7397    3.1071    0.0000 H   0  0  0  0  0  0  0  0  0  0  0  0
    2.2000    0.2472    0.0000 H   0  0  0  0  0  0  0  0  0  0  0  0
   -3.3334    2.9990    0.0000 H   0  0  0  0  0  0  0  0  0  0  0  0
   -4.2001    2.3716    0.0000 H   0  0  0  0  0  0  0  0  0  0  0  0
    0.9307    3.4397    0.0000 H   0  0  0  0  0  0  0  0  0  0  0  0
    1.9074    3.0028    0.0000 H   0  0  0  0  0  0  0  0  0  0  0  0
   -3.4211   -1.0758    0.0000 H   0  0  0  0  0  0  0  0  0  0  0  0
    5.7777    3.4980    0.0000 H   0  0  0  0  0  0  0  0  0  0  0  0
   -8.0380   -0.1473    0.0000 H   0  0  0  0  0  0  0  0  0  0  0  0
  1 35  1  0  0  0  0
  1 41  1  0  0  0  0
  2 10  1  0  0  0  0
  2 12  1  0  0  0  0
  2 13  1  0  0  0  0
  2 15  2  6  0  0  0
  3 11  1  0  0  0  0
  3 12  1  0  0  0  0
  3 14  1  0  0  0  0
  3 16  2  1  0  0  0
  4 27  1  0  0  0  0
  4 28  1  0  0  0  0
  5 30  1  0  0  0  0
  5 32  1  0  0  0  0
  6 49  1  0  0  0  0
  7 50  1  0  0  0  0
  8 51  1  0  0  0  0
  9 52  1  0  0  0  0
 10 33  1  0  0  0  0
 11 34  1  0  0  0  0
 13 53  1  0  0  0  0
 14 54  1  0  0  0  0
 17 43  2  0  0  0  0
 18 36  1  0  0  0  0
 18 37  1  0  0  0  0
 19 37  2  0  0  0  0
 19 38  1  0  0  0  0
 20 35  2  0  0  0  0
 20 40  1  0  0  0  0
 21 36  2  0  0  0  0
 21 42  1  0  0  0  0
 22 39  1  0  0  0  0
 22 42  2  0  0  0  0
 23 39  1  0  0  0  0
 23 45  1  0  0  0  0
 23 46  1  0  0  0  0
 24 43  1  0  0  0  0
 24 47  1  0  0  0  0
 24 48  1  0  0  0  0
 25  6  1  0  0  0  0
 25 26  1  0  0  0  0
 25 27  1  0  0  0  0
 25 55  1  1  0  0  0
 26  7  1  0  0  0  0
 26 28  1  0  0  0  0
 26 56  1  1  0  0  0
 27 33  1  0  0  0  0
 27 57  1  6  0  0  0
 28 18  1  0  0  0  0
 28 58  1  6  0  0  0
 29  8  1  0  0  0  0
 29 30  1  0  0  0  0
 29 31  1  0  0  0  0
 29 59  1  1  0  0  0
 30 34  1  0  0  0  0
 30 60  1  6  0  0  0
 31  9  1  0  0  0  0
 31 32  1  0  0  0  0
 31 61  1  1  0  0  0
 32 35  1  0  0  0  0
 32 44  1  6  0  0  0
 33 62  1  0  0  0  0
 33 63  1  0  0  0  0
 34 64  1  0  0  0  0
 34 65  1  0  0  0  0
 36 38  1  0  0  0  0
 37 66  1  0  0  0  0
 38 39  2  0  0  0  0
 40 41  2  0  0  0  0
 40 43  1  0  0  0  0
 41 67  1  0  0  0  0
 42 68  1  0  0  0  0
M  END
>  <DRUGBANK_ID>
DB03070

>  <SECONDARY_ACCESSION_NUMBERS>
EXPT02840

>  <COMMON_NAME>
Selenazole-4-carboxyamide-adenine dinucleotide

$$$$
