1184
 OpenBabel10282417072D

 54 58  0  0  0  0  0  0  0  0999 V2000
    1.6500   -3.7973    0.0000 Cl  0  0  0  0  0  0  0  0  0  0  0  0
    5.8806   -2.9723    0.0000 O   0  0  0  0  0  0  0  0  0  0  0  0
    7.9892    0.5823    0.0000 O   0  0  0  0  0  0  0  0  0  0  0  0
    5.3431    0.0442    0.0000 N   0  0  0  0  0  0  0  0  0  0  0  0
    4.5741   -2.3084    0.0000 N   0  0  0  0  0  0  0  0  0  0  0  0
    4.5741   -3.6362    0.0000 N   0  0  0  0  0  0  0  0  0  0  0  0
    7.4702    1.9529    0.0000 N   0  0  0  0  0  0  0  0  0  0  0  0
    8.7903    1.8095    0.0000 N   0  0  0  0  0  0  0  0  0  0  0  0
    4.8305   -1.5242    0.0000 C   0  0  0  0  0  0  0  0  0  0  0  0
    4.2795   -0.9102    0.0000 C   0  0  0  0  0  0  0  0  0  0  0  0
    5.6378   -1.3540    0.0000 C   0  0  0  0  0  0  0  0  0  0  0  0
    4.5358   -0.1259    0.0000 C   0  0  0  0  0  0  0  0  0  0  0  0
    5.8940   -0.5698    0.0000 C   0  0  0  0  0  0  0  0  0  0  0  0
    5.5993    0.8284    0.0000 C   0  0  0  0  0  0  0  0  0  0  0  0
    6.4067    0.9985    0.0000 C   0  0  0  0  0  0  0  0  0  0  0  0
    3.7935   -2.5598    0.0000 C   0  0  0  0  0  0  0  0  0  0  0  0
    5.0556   -2.9723    0.0000 C   0  0  0  0  0  0  0  0  0  0  0  0
    6.6629    1.7827    0.0000 C   0  0  0  0  0  0  0  0  0  0  0  0
    3.7935   -3.3848    0.0000 C   0  0  0  0  0  0  0  0  0  0  0  0
    3.0791   -2.1473    0.0000 C   0  0  0  0  0  0  0  0  0  0  0  0
    3.0791   -3.7973    0.0000 C   0  0  0  0  0  0  0  0  0  0  0  0
    7.8044    2.7018    0.0000 C   0  0  0  0  0  0  0  0  0  0  0  0
    2.3645   -2.5598    0.0000 C   0  0  0  0  0  0  0  0  0  0  0  0
    8.0782    1.4025    0.0000 C   0  0  0  0  0  0  0  0  0  0  0  0
    8.6247    2.6127    0.0000 C   0  0  0  0  0  0  0  0  0  0  0  0
    2.3645   -3.3848    0.0000 C   0  0  0  0  0  0  0  0  0  0  0  0
    7.4715    3.4567    0.0000 C   0  0  0  0  0  0  0  0  0  0  0  0
    9.1119    3.2785    0.0000 C   0  0  0  0  0  0  0  0  0  0  0  0
    7.9587    4.1225    0.0000 C   0  0  0  0  0  0  0  0  0  0  0  0
    8.7789    4.0333    0.0000 C   0  0  0  0  0  0  0  0  0  0  0  0
    4.8799   -4.5720    0.0000 H   0  0  0  0  0  0  0  0  0  0  0  0
    9.6876    1.4044    0.0000 H   0  0  0  0  0  0  0  0  0  0  0  0
    5.1628   -0.5071    0.0000 H   0  0  0  0  0  0  0  0  0  0  0  0
    3.2325   -1.1309    0.0000 H   0  0  0  0  0  0  0  0  0  0  0  0
    3.5649   -0.1138    0.0000 H   0  0  0  0  0  0  0  0  0  0  0  0
    6.3525   -2.1503    0.0000 H   0  0  0  0  0  0  0  0  0  0  0  0
    6.6848   -1.1332    0.0000 H   0  0  0  0  0  0  0  0  0  0  0  0
    3.8212    0.6705    0.0000 H   0  0  0  0  0  0  0  0  0  0  0  0
    3.4888   -0.3466    0.0000 H   0  0  0  0  0  0  0  0  0  0  0  0
    6.9410   -0.3491    0.0000 H   0  0  0  0  0  0  0  0  0  0  0  0
    6.6087   -1.3661    0.0000 H   0  0  0  0  0  0  0  0  0  0  0  0
    4.8847    1.6248    0.0000 H   0  0  0  0  0  0  0  0  0  0  0  0
    5.9317    1.8454    0.0000 H   0  0  0  0  0  0  0  0  0  0  0  0
    7.1213    0.2021    0.0000 H   0  0  0  0  0  0  0  0  0  0  0  0
    7.4537    1.2192    0.0000 H   0  0  0  0  0  0  0  0  0  0  0  0
    5.9482    2.5790    0.0000 H   0  0  0  0  0  0  0  0  0  0  0  0
    5.6159    1.5619    0.0000 H   0  0  0  0  0  0  0  0  0  0  0  0
    3.0792   -1.1153    0.0000 H   0  0  0  0  0  0  0  0  0  0  0  0
    3.0792   -4.8293    0.0000 H   0  0  0  0  0  0  0  0  0  0  0  0
    1.4708   -2.0438    0.0000 H   0  0  0  0  0  0  0  0  0  0  0  0
    6.4455    3.5681    0.0000 H   0  0  0  0  0  0  0  0  0  0  0  0
   10.1379    3.1671    0.0000 H   0  0  0  0  0  0  0  0  0  0  0  0
    7.5423    5.0667    0.0000 H   0  0  0  0  0  0  0  0  0  0  0  0
    9.3884    4.8661    0.0000 H   0  0  0  0  0  0  0  0  0  0  0  0
  1 26  1  0  0  0  0
  2 17  2  0  0  0  0
  3 24  2  0  0  0  0
  4 12  1  0  0  0  0
  4 13  1  0  0  0  0
  4 14  1  0  0  0  0
  5  9  1  0  0  0  0
  5 16  1  0  0  0  0
  5 17  1  0  0  0  0
  6 17  1  0  0  0  0
  6 19  1  0  0  0  0
  6 31  1  0  0  0  0
  7 18  1  0  0  0  0
  7 22  1  0  0  0  0
  7 24  1  0  0  0  0
  8 24  1  0  0  0  0
  8 25  1  0  0  0  0
  8 32  1  0  0  0  0
  9 10  1  0  0  0  0
  9 11  1  0  0  0  0
  9 33  1  0  0  0  0
 10 12  1  0  0  0  0
 10 34  1  0  0  0  0
 10 35  1  0  0  0  0
 11 13  1  0  0  0  0
 11 36  1  0  0  0  0
 11 37  1  0  0  0  0
 12 38  1  0  0  0  0
 12 39  1  0  0  0  0
 13 40  1  0  0  0  0
 13 41  1  0  0  0  0
 14 15  1  0  0  0  0
 14 42  1  0  0  0  0
 14 43  1  0  0  0  0
 15 18  1  0  0  0  0
 15 44  1  0  0  0  0
 15 45  1  0  0  0  0
 16 19  2  0  0  0  0
 16 20  1  0  0  0  0
 18 46  1  0  0  0  0
 18 47  1  0  0  0  0
 19 21  1  0  0  0  0
 20 23  2  0  0  0  0
 20 48  1  0  0  0  0
 21 26  2  0  0  0  0
 21 49  1  0  0  0  0
 22 25  1  0  0  0  0
 22 27  2  0  0  0  0
 23 26  1  0  0  0  0
 23 50  1  0  0  0  0
 25 28  2  0  0  0  0
 27 29  1  0  0  0  0
 27 51  1  0  0  0  0
 28 30  1  0  0  0  0
 28 52  1  0  0  0  0
 29 30  2  0  0  0  0
 29 53  1  0  0  0  0
 30 54  1  0  0  0  0
M  END
>  <DRUGBANK_ID>
DB01184

>  <SECONDARY_ACCESSION_NUMBERS>
APRD00418

>  <COMMON_NAME>
Domperidone

>  <CAS_NUMBER>
57808-66-9

>  <UNII>
5587267Z69

>  <SYNONYMS>
1-(3-(4-(5-chloro-2-oxo-2,3-dihydrobenzo[d]imidazol-1-yl)piperidin-1-yl)propyl)-1H-benzo[d]imidazol-2(3H)-one; 5-chloro-1-(1-(3-(2-oxo-1-benzimidazolinyl)propyl)-4-piperidyl)-2-benzimidazolinone; 5-chloro-1-(1-(3-(2-oxo-2,3-dihydrobenzo[d]imidazol-1-yl)propyl)piperidin-4-yl)-1H-benzo[d]imidazol-2(3H)-one; 5-chloro-1-{1-[3-(2-oxo-2,3-dihydro-benzoimidazol-1-yl)-propyl]-piperidin-4-yl}-1,3-dihydro-benzoimidazol-2-one; Domperidona; Domperidone; Domperidonum

$$$$
