1570
 OpenBabel10282417072D

 57 59  0  0  1  0  0  0  0  0999 V2000
    2.0930   -1.0313    0.0000 O   0  0  0  0  0  0  0  0  0  0  0  0
    2.0930    2.2688    0.0000 O   0  0  0  0  0  0  0  0  0  0  0  0
    3.5220   -0.2063    0.0000 N   0  0  0  0  0  0  0  0  0  0  0  0
    3.5220    2.2688    0.0000 N   0  0  0  0  0  0  0  0  0  0  0  0
    3.5220    1.4438    0.0000 C   0  0  3  0  0  0  0  0  0  0  0  0
    2.8075    1.0313    0.0000 C   0  0  3  0  0  0  0  0  0  0  0  0
    4.2365    1.0313    0.0000 C   0  0  0  0  0  0  0  0  0  0  0  0
    2.8075    0.2063    0.0000 C   0  0  0  0  0  0  0  0  0  0  0  0
    4.2365    0.2063    0.0000 C   0  0  0  0  0  0  0  0  0  0  0  0
    2.0930    1.4438    0.0000 C   0  0  0  0  0  0  0  0  0  0  0  0
    3.5220   -1.0313    0.0000 C   0  0  0  0  0  0  0  0  0  0  0  0
    2.8075   -1.4438    0.0000 C   0  0  3  0  0  0  0  0  0  0  0  0
    4.2365    2.6813    0.0000 C   0  0  0  0  0  0  0  0  0  0  0  0
    2.8075    2.6813    0.0000 C   0  0  0  0  0  0  0  0  0  0  0  0
    2.8075   -2.2688    0.0000 C   0  0  0  0  0  0  0  0  0  0  0  0
    2.8075    3.5063    0.0000 C   0  0  0  0  0  0  0  0  0  0  0  0
    4.2365    3.5063    0.0000 C   0  0  0  0  0  0  0  0  0  0  0  0
    4.9509    2.2688    0.0000 C   0  0  0  0  0  0  0  0  0  0  0  0
    2.0930    3.9188    0.0000 C   0  0  0  0  0  0  0  0  0  0  0  0
    3.5220   -2.6813    0.0000 C   0  0  0  0  0  0  0  0  0  0  0  0
    2.0930   -2.6813    0.0000 C   0  0  0  0  0  0  0  0  0  0  0  0
    4.9509    3.9188    0.0000 C   0  0  0  0  0  0  0  0  0  0  0  0
    5.6655    2.6813    0.0000 C   0  0  0  0  0  0  0  0  0  0  0  0
    5.6655    3.5063    0.0000 C   0  0  0  0  0  0  0  0  0  0  0  0
    3.5220   -3.5063    0.0000 C   0  0  0  0  0  0  0  0  0  0  0  0
    2.0930   -3.5063    0.0000 C   0  0  0  0  0  0  0  0  0  0  0  0
    2.8075   -3.9188    0.0000 C   0  0  0  0  0  0  0  0  0  0  0  0
    2.0930   -0.0613    0.0000 H   0  0  0  0  0  0  0  0  0  0  0  0
    2.5954    1.9788    0.0000 H   0  0  0  0  0  0  0  0  0  0  0  0
    3.7341    0.4963    0.0000 H   0  0  0  0  0  0  0  0  0  0  0  0
    5.1631    1.5663    0.0000 H   0  0  0  0  0  0  0  0  0  0  0  0
    5.1631    0.4963    0.0000 H   0  0  0  0  0  0  0  0  0  0  0  0
    1.8808   -0.3287    0.0000 H   0  0  0  0  0  0  0  0  0  0  0  0
    1.8809    0.7413    0.0000 H   0  0  0  0  0  0  0  0  0  0  0  0
    5.1632   -0.3287    0.0000 H   0  0  0  0  0  0  0  0  0  0  0  0
    5.1631    0.7413    0.0000 H   0  0  0  0  0  0  0  0  0  0  0  0
    2.0930    2.5138    0.0000 H   0  0  0  0  0  0  0  0  0  0  0  0
    1.1664    0.9088    0.0000 H   0  0  0  0  0  0  0  0  0  0  0  0
    1.1663    1.9788    0.0000 H   0  0  0  0  0  0  0  0  0  0  0  0
    4.4486   -1.5663    0.0000 H   0  0  0  0  0  0  0  0  0  0  0  0
    3.5220   -2.1013    0.0000 H   0  0  0  0  0  0  0  0  0  0  0  0
    2.8075   -0.3738    0.0000 H   0  0  0  0  0  0  0  0  0  0  0  0
    3.7341    4.0413    0.0000 H   0  0  0  0  0  0  0  0  0  0  0  0
    2.8075    4.5763    0.0000 H   0  0  0  0  0  0  0  0  0  0  0  0
    3.3428    4.0223    0.0000 H   0  0  0  0  0  0  0  0  0  0  0  0
    4.9508    1.2368    0.0000 H   0  0  0  0  0  0  0  0  0  0  0  0
    2.0930    4.9888    0.0000 H   0  0  0  0  0  0  0  0  0  0  0  0
    1.1664    3.3838    0.0000 H   0  0  0  0  0  0  0  0  0  0  0  0
    1.1663    4.4538    0.0000 H   0  0  0  0  0  0  0  0  0  0  0  0
    4.4157   -2.1653    0.0000 H   0  0  0  0  0  0  0  0  0  0  0  0
    1.1993   -2.1653    0.0000 H   0  0  0  0  0  0  0  0  0  0  0  0
    4.9508    4.9508    0.0000 H   0  0  0  0  0  0  0  0  0  0  0  0
    6.5592    2.1653    0.0000 H   0  0  0  0  0  0  0  0  0  0  0  0
    6.5592    4.0223    0.0000 H   0  0  0  0  0  0  0  0  0  0  0  0
    4.4157   -4.0223    0.0000 H   0  0  0  0  0  0  0  0  0  0  0  0
    1.1993   -4.0223    0.0000 H   0  0  0  0  0  0  0  0  0  0  0  0
    2.8075   -4.9508    0.0000 H   0  0  0  0  0  0  0  0  0  0  0  0
  1 12  1  0  0  0  0
  1 28  1  0  0  0  0
  2 14  2  0  0  0  0
  3  8  1  0  0  0  0
  3  9  1  0  0  0  0
  3 11  1  0  0  0  0
  4  5  1  0  0  0  0
  4 13  1  0  0  0  0
  4 14  1  0  0  0  0
  5  6  1  0  0  0  0
  5  7  1  0  0  0  0
  5 29  1  0  0  0  0
  6  8  1  0  0  0  0
  6 10  1  0  0  0  0
  6 30  1  0  0  0  0
  7  9  1  0  0  0  0
  7 31  1  0  0  0  0
  7 32  1  0  0  0  0
  8 33  1  0  0  0  0
  8 34  1  0  0  0  0
  9 35  1  0  0  0  0
  9 36  1  0  0  0  0
 10 37  1  0  0  0  0
 10 38  1  0  0  0  0
 10 39  1  0  0  0  0
 11 12  1  0  0  0  0
 11 40  1  0  0  0  0
 11 41  1  0  0  0  0
 12 15  1  0  0  0  0
 12 42  1  0  0  0  0
 13 17  2  0  0  0  0
 13 18  1  0  0  0  0
 14 16  1  0  0  0  0
 15 20  2  0  0  0  0
 15 21  1  0  0  0  0
 16 19  1  0  0  0  0
 16 43  1  0  0  0  0
 16 44  1  0  0  0  0
 17 22  1  0  0  0  0
 17 45  1  0  0  0  0
 18 23  2  0  0  0  0
 18 46  1  0  0  0  0
 19 47  1  0  0  0  0
 19 48  1  0  0  0  0
 19 49  1  0  0  0  0
 20 25  1  0  0  0  0
 20 50  1  0  0  0  0
 21 26  2  0  0  0  0
 21 51  1  0  0  0  0
 22 24  2  0  0  0  0
 22 52  1  0  0  0  0
 23 24  1  0  0  0  0
 23 53  1  0  0  0  0
 24 54  1  0  0  0  0
 25 27  2  0  0  0  0
 25 55  1  0  0  0  0
 26 27  1  0  0  0  0
 26 56  1  0  0  0  0
 27 57  1  0  0  0  0
M  END
>  <DRUGBANK_ID>
DB01570

>  <COMMON_NAME>
Ohmefentanyl

>  <CAS_NUMBER>
78995-14-9

>  <UNII>
Y8263089ZX

>  <SYNONYMS>
Beta-hydroxy-3-methylfentanyl; OMF; Î²-hydroxy-3-methylfentanyl

$$$$
