
 OpenBabel10282417072D

 84 89  0  0  0  0  0  0  0  0999 V2000
   -6.2301    2.9832    0.0000 C   0  0  0  0  0  0  0  0  0  0  0  0
   -5.8945    2.2295    0.0000 N   0  0  0  0  0  0  0  0  0  0  0  0
   -5.0875    2.0580    0.0000 C   0  0  0  0  0  0  0  0  0  0  0  0
   -5.0013    1.2375    0.0000 C   0  0  0  0  0  0  0  0  0  0  0  0
   -5.7550    0.9019    0.0000 C   0  0  0  0  0  0  0  0  0  0  0  0
   -6.3070    1.5150    0.0000 C   0  0  0  0  0  0  0  0  0  0  0  0
   -7.1275    1.4288    0.0000 C   0  0  0  0  0  0  0  0  0  0  0  0
   -7.4630    0.6751    0.0000 O   0  0  0  0  0  0  0  0  0  0  0  0
   -7.6124    2.0962    0.0000 N   0  0  0  0  0  0  0  0  0  0  0  0
   -8.4329    2.0100    0.0000 C   0  0  0  0  0  0  0  0  0  0  0  0
   -8.8454    1.2955    0.0000 C   0  0  0  0  0  0  0  0  0  0  0  0
   -9.6524    1.4671    0.0000 C   0  0  0  0  0  0  0  0  0  0  0  0
   -9.7386    2.2875    0.0000 N   0  0  0  0  0  0  0  0  0  0  0  0
   -8.9849    2.6231    0.0000 C   0  0  0  0  0  0  0  0  0  0  0  0
  -10.4531    2.7000    0.0000 C   0  0  0  0  0  0  0  0  0  0  0  0
  -10.2655    0.9150    0.0000 C   0  0  0  0  0  0  0  0  0  0  0  0
  -10.0939    0.1081    0.0000 O   0  0  0  0  0  0  0  0  0  0  0  0
  -11.0501    1.1700    0.0000 N   0  0  0  0  0  0  0  0  0  0  0  0
  -11.6632    0.6179    0.0000 C   0  0  0  0  0  0  0  0  0  0  0  0
  -12.4478    0.8729    0.0000 C   0  0  0  0  0  0  0  0  0  0  0  0
  -13.0609    0.3208    0.0000 N   0  0  0  0  0  0  0  0  0  0  0  0
  -12.8894   -0.4861    0.0000 C   0  0  0  0  0  0  0  0  0  0  0  0
  -13.5025   -1.0382    0.0000 C   0  0  0  0  0  0  0  0  0  0  0  0
  -14.2871   -0.7832    0.0000 O   0  0  0  0  0  0  0  0  0  0  0  0
  -14.4586    0.0237    0.0000 C   0  0  0  0  0  0  0  0  0  0  0  0
  -13.8455    0.5758    0.0000 C   0  0  0  0  0  0  0  0  0  0  0  0
   -4.2868    0.8250    0.0000 N   0  0  0  0  0  0  0  0  0  0  0  0
   -3.5724    1.2375    0.0000 C   0  0  0  0  0  0  0  0  0  0  0  0
   -3.5724    2.0625    0.0000 O   0  0  0  0  0  0  0  0  0  0  0  0
   -2.8579    0.8250    0.0000 C   0  0  0  0  0  0  0  0  0  0  0  0
   -2.1434    1.2375    0.0000 C   0  0  0  0  0  0  0  0  0  0  0  0
   -1.4289    0.8250    0.0000 C   0  0  0  0  0  0  0  0  0  0  0  0
   -1.4289    0.0000    0.0000 C   0  0  0  0  0  0  0  0  0  0  0  0
   -2.1434   -0.4125    0.0000 C   0  0  0  0  0  0  0  0  0  0  0  0
   -2.8579    0.0000    0.0000 C   0  0  0  0  0  0  0  0  0  0  0  0
   -0.7145   -0.4125    0.0000 C   0  0  0  0  0  0  0  0  0  0  0  0
    0.0000    0.0000    0.0000 C   0  0  0  0  0  0  0  0  0  0  0  0
    0.7145   -0.4125    0.0000 C   0  0  0  0  0  0  0  0  0  0  0  0
    1.4289    0.0000    0.0000 C   0  0  0  0  0  0  0  0  0  0  0  0
    2.1434   -0.4125    0.0000 C   0  0  0  0  0  0  0  0  0  0  0  0
    2.8579    0.0000    0.0000 C   0  0  0  0  0  0  0  0  0  0  0  0
    3.5724   -0.4125    0.0000 C   0  0  0  0  0  0  0  0  0  0  0  0
    3.5724   -1.2375    0.0000 C   0  0  0  0  0  0  0  0  0  0  0  0
    2.8579   -1.6500    0.0000 C   0  0  0  0  0  0  0  0  0  0  0  0
    2.1434   -1.2375    0.0000 C   0  0  0  0  0  0  0  0  0  0  0  0
    1.4289   -1.6500    0.0000 N   0  0  0  0  0  0  0  0  0  0  0  0
    0.7145   -1.2375    0.0000 C   0  0  0  0  0  0  0  0  0  0  0  0
   -5.6012    3.8489    0.0000 H   0  0  0  0  0  0  0  0  0  0  0  0
   -7.2942    3.0950    0.0000 H   0  0  0  0  0  0  0  0  0  0  0  0
   -6.6653    3.9607    0.0000 H   0  0  0  0  0  0  0  0  0  0  0  0
   -4.3206    2.7485    0.0000 H   0  0  0  0  0  0  0  0  0  0  0  0
   -5.9696   -0.1075    0.0000 H   0  0  0  0  0  0  0  0  0  0  0  0
   -7.2119    2.9956    0.0000 H   0  0  0  0  0  0  0  0  0  0  0  0
   -8.4257    0.3527    0.0000 H   0  0  0  0  0  0  0  0  0  0  0  0
   -8.7703    3.6325    0.0000 H   0  0  0  0  0  0  0  0  0  0  0  0
  -10.4531    3.7700    0.0000 H   0  0  0  0  0  0  0  0  0  0  0  0
  -11.3797    2.1650    0.0000 H   0  0  0  0  0  0  0  0  0  0  0  0
  -11.3798    3.2350    0.0000 H   0  0  0  0  0  0  0  0  0  0  0  0
  -11.2548    2.1330    0.0000 H   0  0  0  0  0  0  0  0  0  0  0  0
  -11.4407   -0.4287    0.0000 H   0  0  0  0  0  0  0  0  0  0  0  0
  -12.4584   -0.0980    0.0000 H   0  0  0  0  0  0  0  0  0  0  0  0
  -12.6703    1.9195    0.0000 H   0  0  0  0  0  0  0  0  0  0  0  0
  -13.4654    1.2035    0.0000 H   0  0  0  0  0  0  0  0  0  0  0  0
  -11.8718   -0.8167    0.0000 H   0  0  0  0  0  0  0  0  0  0  0  0
  -12.6669   -1.5327    0.0000 H   0  0  0  0  0  0  0  0  0  0  0  0
  -13.2800   -2.0848    0.0000 H   0  0  0  0  0  0  0  0  0  0  0  0
  -14.2977   -1.7541    0.0000 H   0  0  0  0  0  0  0  0  0  0  0  0
  -15.4762    0.3543    0.0000 H   0  0  0  0  0  0  0  0  0  0  0  0
  -14.6811    1.0703    0.0000 H   0  0  0  0  0  0  0  0  0  0  0  0
  -14.0680    1.6224    0.0000 H   0  0  0  0  0  0  0  0  0  0  0  0
  -13.0503    1.2917    0.0000 H   0  0  0  0  0  0  0  0  0  0  0  0
   -4.2868   -0.1595    0.0000 H   0  0  0  0  0  0  0  0  0  0  0  0
   -2.1434    2.2695    0.0000 H   0  0  0  0  0  0  0  0  0  0  0  0
   -0.5352    1.3410    0.0000 H   0  0  0  0  0  0  0  0  0  0  0  0
   -2.1434   -1.4445    0.0000 H   0  0  0  0  0  0  0  0  0  0  0  0
   -3.7516   -0.5160    0.0000 H   0  0  0  0  0  0  0  0  0  0  0  0
   -0.7145   -1.4445    0.0000 H   0  0  0  0  0  0  0  0  0  0  0  0
    0.0000    1.0320    0.0000 H   0  0  0  0  0  0  0  0  0  0  0  0
    1.4289    1.0320    0.0000 H   0  0  0  0  0  0  0  0  0  0  0  0
    2.8579    1.0320    0.0000 H   0  0  0  0  0  0  0  0  0  0  0  0
    4.4661    0.1035    0.0000 H   0  0  0  0  0  0  0  0  0  0  0  0
    4.4661   -1.7535    0.0000 H   0  0  0  0  0  0  0  0  0  0  0  0
    2.8579   -2.6820    0.0000 H   0  0  0  0  0  0  0  0  0  0  0  0
   -0.1792   -1.7535    0.0000 H   0  0  0  0  0  0  0  0  0  0  0  0
  1  2  1  0  0  0  0
  1 48  1  0  0  0  0
  1 49  1  0  0  0  0
  1 50  1  0  0  0  0
  2  3  1  0  0  0  0
  2  6  1  0  0  0  0
  3  4  2  0  0  0  0
  3 51  1  0  0  0  0
  4  5  1  0  0  0  0
  4 27  1  0  0  0  0
  5  6  2  0  0  0  0
  5 52  1  0  0  0  0
  6  7  1  0  0  0  0
  7  8  2  0  0  0  0
  7  9  1  0  0  0  0
  9 10  1  0  0  0  0
  9 53  1  0  0  0  0
 10 11  1  0  0  0  0
 10 14  2  0  0  0  0
 11 12  2  0  0  0  0
 11 54  1  0  0  0  0
 12 13  1  0  0  0  0
 12 16  1  0  0  0  0
 13 14  1  0  0  0  0
 13 15  1  0  0  0  0
 14 55  1  0  0  0  0
 15 56  1  0  0  0  0
 15 57  1  0  0  0  0
 15 58  1  0  0  0  0
 16 17  2  0  0  0  0
 16 18  1  0  0  0  0
 18 19  1  0  0  0  0
 18 59  1  0  0  0  0
 19 20  1  0  0  0  0
 19 60  1  0  0  0  0
 19 61  1  0  0  0  0
 20 21  1  0  0  0  0
 20 62  1  0  0  0  0
 20 63  1  0  0  0  0
 21 22  1  0  0  0  0
 21 26  1  0  0  0  0
 22 23  1  0  0  0  0
 22 64  1  0  0  0  0
 22 65  1  0  0  0  0
 23 24  1  0  0  0  0
 23 66  1  0  0  0  0
 23 67  1  0  0  0  0
 24 25  1  0  0  0  0
 25 26  1  0  0  0  0
 25 68  1  0  0  0  0
 25 69  1  0  0  0  0
 26 70  1  0  0  0  0
 26 71  1  0  0  0  0
 27 28  1  0  0  0  0
 27 72  1  0  0  0  0
 28 29  2  0  0  0  0
 28 30  1  0  0  0  0
 30 31  2  0  0  0  0
 30 35  1  0  0  0  0
 31 32  1  0  0  0  0
 31 73  1  0  0  0  0
 32 33  2  0  0  0  0
 32 74  1  0  0  0  0
 33 34  1  0  0  0  0
 33 36  1  0  0  0  0
 34 35  2  0  0  0  0
 34 75  1  0  0  0  0
 35 76  1  0  0  0  0
 36 37  2  0  0  0  0
 36 77  1  0  0  0  0
 37 38  1  0  0  0  0
 37 78  1  0  0  0  0
 38 39  1  0  0  0  0
 38 47  2  0  0  0  0
 39 40  2  0  0  0  0
 39 79  1  0  0  0  0
 40 41  1  0  0  0  0
 40 45  1  0  0  0  0
 41 42  2  0  0  0  0
 41 80  1  0  0  0  0
 42 43  1  0  0  0  0
 42 81  1  0  0  0  0
 43 44  2  0  0  0  0
 43 82  1  0  0  0  0
 44 45  1  0  0  0  0
 44 83  1  0  0  0  0
 45 46  2  0  0  0  0
 46 47  1  0  0  0  0
 47 84  1  0  0  0  0
M  END
>  <DRUGBANK_ID>
DB12892

>  <COMMON_NAME>
MGB-BP-3

>  <CAS_NUMBER>
1000277-08-6

>  <UNII>
532PWU9738

$$$$
