
 OpenBabel10282417072D

 55 56  0  0  0  0  0  0  0  0999 V2000
   -3.2411    1.9152    0.0000 C   0  0  0  0  0  0  0  0  0  0  0  0
   -3.9555    1.5027    0.0000 C   0  0  0  0  0  0  0  0  0  0  0  0
   -3.9555    0.6777    0.0000 C   0  0  0  0  0  0  0  0  0  0  0  0
   -3.2411    0.2652    0.0000 C   0  0  0  0  0  0  0  0  0  0  0  0
   -2.5266    0.6777    0.0000 C   0  0  0  0  0  0  0  0  0  0  0  0
   -2.5266    1.5027    0.0000 C   0  0  0  0  0  0  0  0  0  0  0  0
   -1.8121    0.2652    0.0000 C   0  0  2  0  0  0  0  0  0  0  0  0
   -1.0977    0.6777    0.0000 C   0  0  0  0  0  0  0  0  0  0  0  0
   -0.3832    0.2652    0.0000 C   0  0  0  0  0  0  0  0  0  0  0  0
    0.3313    0.6777    0.0000 N   0  0  0  0  0  0  0  0  0  0  0  0
    1.0458    0.2652    0.0000 C   0  0  0  0  0  0  0  0  0  0  0  0
    1.7602    0.6777    0.0000 C   0  0  0  0  0  0  0  0  0  0  0  0
    1.0458   -0.5598    0.0000 C   0  0  0  0  0  0  0  0  0  0  0  0
    0.3313    1.5027    0.0000 C   0  0  0  0  0  0  0  0  0  0  0  0
   -0.3832    1.9152    0.0000 C   0  0  0  0  0  0  0  0  0  0  0  0
    1.0457    1.9152    0.0000 C   0  0  0  0  0  0  0  0  0  0  0  0
   -4.6700    0.2652    0.0000 C   0  0  0  0  0  0  0  0  0  0  0  0
   -1.8121    1.9152    0.0000 O   0  0  0  0  0  0  0  0  0  0  0  0
   -1.8121   -0.5598    0.0000 C   0  0  0  0  0  0  0  0  0  0  0  0
   -2.5266   -0.9723    0.0000 C   0  0  0  0  0  0  0  0  0  0  0  0
   -2.5266   -1.7974    0.0000 C   0  0  0  0  0  0  0  0  0  0  0  0
   -1.8121   -2.2099    0.0000 C   0  0  0  0  0  0  0  0  0  0  0  0
   -1.0977   -1.7974    0.0000 C   0  0  0  0  0  0  0  0  0  0  0  0
   -1.0977   -0.9723    0.0000 C   0  0  0  0  0  0  0  0  0  0  0  0
   -3.2411    2.9472    0.0000 H   0  0  0  0  0  0  0  0  0  0  0  0
   -4.8492    2.0187    0.0000 H   0  0  0  0  0  0  0  0  0  0  0  0
   -3.2411   -0.7668    0.0000 H   0  0  0  0  0  0  0  0  0  0  0  0
   -1.8121    1.3352    0.0000 H   0  0  0  0  0  0  0  0  0  0  0  0
   -1.0977    1.7477    0.0000 H   0  0  0  0  0  0  0  0  0  0  0  0
   -0.1711    1.2127    0.0000 H   0  0  0  0  0  0  0  0  0  0  0  0
   -0.3832   -0.8048    0.0000 H   0  0  0  0  0  0  0  0  0  0  0  0
    0.5434   -0.2698    0.0000 H   0  0  0  0  0  0  0  0  0  0  0  0
    1.9725   -0.2698    0.0000 H   0  0  0  0  0  0  0  0  0  0  0  0
    2.6869    0.1427    0.0000 H   0  0  0  0  0  0  0  0  0  0  0  0
    1.7602    1.7477    0.0000 H   0  0  0  0  0  0  0  0  0  0  0  0
    2.6868    1.2127    0.0000 H   0  0  0  0  0  0  0  0  0  0  0  0
    0.1192   -1.0948    0.0000 H   0  0  0  0  0  0  0  0  0  0  0  0
    1.9724   -1.0948    0.0000 H   0  0  0  0  0  0  0  0  0  0  0  0
    1.0458   -1.6298    0.0000 H   0  0  0  0  0  0  0  0  0  0  0  0
    0.3313    2.5727    0.0000 H   0  0  0  0  0  0  0  0  0  0  0  0
   -0.3832    2.9852    0.0000 H   0  0  0  0  0  0  0  0  0  0  0  0
   -1.3098    1.3802    0.0000 H   0  0  0  0  0  0  0  0  0  0  0  0
   -1.3099    2.4502    0.0000 H   0  0  0  0  0  0  0  0  0  0  0  0
    1.9724    1.3802    0.0000 H   0  0  0  0  0  0  0  0  0  0  0  0
    1.0457    2.9852    0.0000 H   0  0  0  0  0  0  0  0  0  0  0  0
    1.9723    2.4502    0.0000 H   0  0  0  0  0  0  0  0  0  0  0  0
   -5.5966    0.8002    0.0000 H   0  0  0  0  0  0  0  0  0  0  0  0
   -4.6700   -0.8048    0.0000 H   0  0  0  0  0  0  0  0  0  0  0  0
   -5.5967   -0.2698    0.0000 H   0  0  0  0  0  0  0  0  0  0  0  0
   -1.0006    1.4467    0.0000 H   0  0  0  0  0  0  0  0  0  0  0  0
   -3.4203   -0.4563    0.0000 H   0  0  0  0  0  0  0  0  0  0  0  0
   -3.4203   -2.3134    0.0000 H   0  0  0  0  0  0  0  0  0  0  0  0
   -1.8121   -3.2419    0.0000 H   0  0  0  0  0  0  0  0  0  0  0  0
   -0.2040   -2.3134    0.0000 H   0  0  0  0  0  0  0  0  0  0  0  0
   -0.2040   -0.4563    0.0000 H   0  0  0  0  0  0  0  0  0  0  0  0
  1  2  2  0  0  0  0
  1  6  1  0  0  0  0
  1 25  1  0  0  0  0
  2  3  1  0  0  0  0
  2 26  1  0  0  0  0
  3  4  2  0  0  0  0
  3 17  1  0  0  0  0
  4  5  1  0  0  0  0
  4 27  1  0  0  0  0
  5  6  2  0  0  0  0
  5  7  1  0  0  0  0
  6 18  1  0  0  0  0
  7  8  1  0  0  0  0
  7 19  1  0  0  0  0
  7 28  1  1  0  0  0
  8  9  1  0  0  0  0
  8 29  1  0  0  0  0
  8 30  1  0  0  0  0
  9 10  1  0  0  0  0
  9 31  1  0  0  0  0
  9 32  1  0  0  0  0
 10 11  1  0  0  0  0
 10 14  1  0  0  0  0
 11 12  1  0  0  0  0
 11 13  1  0  0  0  0
 11 33  1  0  0  0  0
 12 34  1  0  0  0  0
 12 35  1  0  0  0  0
 12 36  1  0  0  0  0
 13 37  1  0  0  0  0
 13 38  1  0  0  0  0
 13 39  1  0  0  0  0
 14 15  1  0  0  0  0
 14 16  1  0  0  0  0
 14 40  1  0  0  0  0
 15 41  1  0  0  0  0
 15 42  1  0  0  0  0
 15 43  1  0  0  0  0
 16 44  1  0  0  0  0
 16 45  1  0  0  0  0
 16 46  1  0  0  0  0
 17 47  1  0  0  0  0
 17 48  1  0  0  0  0
 17 49  1  0  0  0  0
 18 50  1  0  0  0  0
 19 20  2  0  0  0  0
 19 24  1  0  0  0  0
 20 21  1  0  0  0  0
 20 51  1  0  0  0  0
 21 22  2  0  0  0  0
 21 52  1  0  0  0  0
 22 23  1  0  0  0  0
 22 53  1  0  0  0  0
 23 24  2  0  0  0  0
 23 54  1  0  0  0  0
 24 55  1  0  0  0  0
M  END
>  <DRUGBANK_ID>
DB01036

>  <SECONDARY_ACCESSION_NUMBERS>
APRD00146

>  <COMMON_NAME>
Tolterodine

>  <CAS_NUMBER>
124937-51-5

>  <UNII>
WHE7A56U7K

>  <SYNONYMS>
(+)-(R)-2-(alpha-(2-(Diisopropylamino)ethyl)benzyl)-p-cresol; (+)-Tolterodine; Tolterodina; Tolterodine; Tolterodinum

$$$$
