
 OpenBabel10282417072D

 56 55  0  0  0  0  0  0  0  0999 V2000
   -5.7106   -0.6200    0.0000 C   0  0  0  0  0  0  0  0  0  0  0  0
   -4.9966   -0.2066    0.0000 C   0  0  0  0  0  0  0  0  0  0  0  0
   -4.2826   -0.6200    0.0000 C   0  0  0  0  0  0  0  0  0  0  0  0
   -3.5686   -0.2066    0.0000 C   0  0  0  0  0  0  0  0  0  0  0  0
   -2.8547   -0.6200    0.0000 C   0  0  0  0  0  0  0  0  0  0  0  0
   -2.1407   -0.2066    0.0000 C   0  0  0  0  0  0  0  0  0  0  0  0
   -1.4267   -0.6200    0.0000 C   0  0  0  0  0  0  0  0  0  0  0  0
   -0.7127   -0.2066    0.0000 C   0  0  0  0  0  0  0  0  0  0  0  0
    0.0012   -0.6200    0.0000 C   0  0  0  0  0  0  0  0  0  0  0  0
    0.7151   -0.2066    0.0000 C   0  0  0  0  0  0  0  0  0  0  0  0
    1.4291   -0.6200    0.0000 C   0  0  0  0  0  0  0  0  0  0  0  0
    2.1431   -0.2066    0.0000 C   0  0  0  0  0  0  0  0  0  0  0  0
    2.8571   -0.6200    0.0000 C   0  0  0  0  0  0  0  0  0  0  0  0
    3.5710   -0.2066    0.0000 O   0  0  0  0  0  0  0  0  0  0  0  0
    4.2850   -0.6200    0.0000 C   0  0  0  0  0  0  0  0  0  0  0  0
    4.9990   -0.2066    0.0000 C   0  0  3  0  0  0  0  0  0  0  0  0
    5.7130   -0.6200    0.0000 C   0  0  0  0  0  0  0  0  0  0  0  0
    6.4269   -0.2066    0.0000 O   0  0  0  0  0  0  0  0  0  0  0  0
    4.9990    0.6200    0.0000 O   0  0  0  0  0  0  0  0  0  0  0  0
   -6.4269   -0.2074    0.0000 C   0  0  0  0  0  0  0  0  0  0  0  0
   -5.7094   -1.6900    0.0000 H   0  0  0  0  0  0  0  0  0  0  0  0
   -6.6367   -1.1560    0.0000 H   0  0  0  0  0  0  0  0  0  0  0  0
   -4.9966    0.8634    0.0000 H   0  0  0  0  0  0  0  0  0  0  0  0
   -5.9236    0.3278    0.0000 H   0  0  0  0  0  0  0  0  0  0  0  0
   -4.2826   -1.6900    0.0000 H   0  0  0  0  0  0  0  0  0  0  0  0
   -3.3556   -1.1544    0.0000 H   0  0  0  0  0  0  0  0  0  0  0  0
   -3.5686    0.8634    0.0000 H   0  0  0  0  0  0  0  0  0  0  0  0
   -2.6416    0.3278    0.0000 H   0  0  0  0  0  0  0  0  0  0  0  0
   -2.8547   -1.6900    0.0000 H   0  0  0  0  0  0  0  0  0  0  0  0
   -3.7817   -1.1544    0.0000 H   0  0  0  0  0  0  0  0  0  0  0  0
   -2.1407    0.8634    0.0000 H   0  0  0  0  0  0  0  0  0  0  0  0
   -1.2137    0.3278    0.0000 H   0  0  0  0  0  0  0  0  0  0  0  0
   -1.4267   -1.6900    0.0000 H   0  0  0  0  0  0  0  0  0  0  0  0
   -0.4997   -1.1544    0.0000 H   0  0  0  0  0  0  0  0  0  0  0  0
   -0.7127    0.8634    0.0000 H   0  0  0  0  0  0  0  0  0  0  0  0
    0.2143    0.3278    0.0000 H   0  0  0  0  0  0  0  0  0  0  0  0
    0.0012   -1.6900    0.0000 H   0  0  0  0  0  0  0  0  0  0  0  0
    0.9282   -1.1544    0.0000 H   0  0  0  0  0  0  0  0  0  0  0  0
    0.7151    0.8634    0.0000 H   0  0  0  0  0  0  0  0  0  0  0  0
   -0.2119    0.3278    0.0000 H   0  0  0  0  0  0  0  0  0  0  0  0
    1.4291   -1.6900    0.0000 H   0  0  0  0  0  0  0  0  0  0  0  0
    2.3561   -1.1544    0.0000 H   0  0  0  0  0  0  0  0  0  0  0  0
    2.1431    0.8634    0.0000 H   0  0  0  0  0  0  0  0  0  0  0  0
    3.0701    0.3278    0.0000 H   0  0  0  0  0  0  0  0  0  0  0  0
    2.8571   -1.6900    0.0000 H   0  0  0  0  0  0  0  0  0  0  0  0
    3.7841   -1.1544    0.0000 H   0  0  0  0  0  0  0  0  0  0  0  0
    4.2850   -1.6900    0.0000 H   0  0  0  0  0  0  0  0  0  0  0  0
    5.2120   -1.1544    0.0000 H   0  0  0  0  0  0  0  0  0  0  0  0
    4.9990   -1.2766    0.0000 H   0  0  0  0  0  0  0  0  0  0  0  0
    5.7130   -1.6900    0.0000 H   0  0  0  0  0  0  0  0  0  0  0  0
    6.6400   -1.1544    0.0000 H   0  0  0  0  0  0  0  0  0  0  0  0
    7.2676   -0.6905    0.0000 H   0  0  0  0  0  0  0  0  0  0  0  0
    5.8390    1.1050    0.0000 H   0  0  0  0  0  0  0  0  0  0  0  0
   -6.4280    0.8626    0.0000 H   0  0  0  0  0  0  0  0  0  0  0  0
   -7.3530   -0.7433    0.0000 H   0  0  0  0  0  0  0  0  0  0  0  0
   -7.3541    0.3267    0.0000 H   0  0  0  0  0  0  0  0  0  0  0  0
  1  2  1  0  0  0  0
  1 20  1  0  0  0  0
  1 21  1  0  0  0  0
  1 22  1  0  0  0  0
  2  3  1  0  0  0  0
  2 23  1  0  0  0  0
  2 24  1  0  0  0  0
  3  4  1  0  0  0  0
  3 25  1  0  0  0  0
  3 26  1  0  0  0  0
  4  5  1  0  0  0  0
  4 27  1  0  0  0  0
  4 28  1  0  0  0  0
  5  6  1  0  0  0  0
  5 29  1  0  0  0  0
  5 30  1  0  0  0  0
  6  7  1  0  0  0  0
  6 31  1  0  0  0  0
  6 32  1  0  0  0  0
  7  8  1  0  0  0  0
  7 33  1  0  0  0  0
  7 34  1  0  0  0  0
  8  9  1  0  0  0  0
  8 35  1  0  0  0  0
  8 36  1  0  0  0  0
  9 10  1  0  0  0  0
  9 37  1  0  0  0  0
  9 38  1  0  0  0  0
 10 11  1  0  0  0  0
 10 39  1  0  0  0  0
 10 40  1  0  0  0  0
 11 12  1  0  0  0  0
 11 41  1  0  0  0  0
 11 42  1  0  0  0  0
 12 13  1  0  0  0  0
 12 43  1  0  0  0  0
 12 44  1  0  0  0  0
 13 14  1  0  0  0  0
 13 45  1  0  0  0  0
 13 46  1  0  0  0  0
 14 15  1  0  0  0  0
 15 16  1  0  0  0  0
 15 47  1  0  0  0  0
 15 48  1  0  0  0  0
 16 17  1  0  0  0  0
 16 19  1  0  0  0  0
 16 49  1  0  0  0  0
 17 18  1  0  0  0  0
 17 50  1  0  0  0  0
 17 51  1  0  0  0  0
 18 52  1  0  0  0  0
 19 53  1  0  0  0  0
 20 54  1  0  0  0  0
 20 55  1  0  0  0  0
 20 56  1  0  0  0  0
M  END
>  <DRUGBANK_ID>
DB15662

>  <COMMON_NAME>
Myristyl glyceryl ether

>  <CAS_NUMBER>
1561-06-4

>  <UNII>
S4JE3R143V

>  <SYNONYMS>
1-o-tetradecylglycerol; 3-Tetradecyloxy-1,2-propanediol; Glycerin 1-tetradecyl ether; Myristyl glyceryl ether

$$$$
