
 OpenBabel10282417072D

 53 56  0  0  0  0  0  0  0  0999 V2000
    4.7842   -0.8901    0.0000 Cl  0  0  0  0  0  0  0  0  0  0  0  0
    4.0697   -1.3027    0.0000 C   0  0  0  0  0  0  0  0  0  0  0  0
    4.0697   -2.1277    0.0000 C   0  0  0  0  0  0  0  0  0  0  0  0
    3.3553   -2.5402    0.0000 C   0  0  0  0  0  0  0  0  0  0  0  0
    2.6408   -2.1277    0.0000 C   0  0  0  0  0  0  0  0  0  0  0  0
    1.8562   -2.3826    0.0000 N   0  0  0  0  0  0  0  0  0  0  0  0
    2.6408   -1.3027    0.0000 C   0  0  0  0  0  0  0  0  0  0  0  0
    3.3553   -0.8901    0.0000 C   0  0  0  0  0  0  0  0  0  0  0  0
    1.8562   -1.0477    0.0000 C   0  0  0  0  0  0  0  0  0  0  0  0
    1.3713   -1.7152    0.0000 C   0  0  0  0  0  0  0  0  0  0  0  0
    0.5463   -1.7152    0.0000 S   0  0  0  0  0  0  0  0  0  0  0  0
    0.5463   -0.8901    0.0000 O   0  0  0  0  0  0  0  0  0  0  0  0
    0.5463   -2.5402    0.0000 O   0  0  0  0  0  0  0  0  0  0  0  0
   -0.2786   -1.7152    0.0000 N   0  0  0  0  0  0  0  0  0  0  0  0
   -0.6911   -1.0006    0.0000 C   0  0  2  0  0  0  0  0  0  0  0  0
   -1.5116   -0.9145    0.0000 C   0  0  0  0  0  0  0  0  0  0  0  0
   -2.0637   -1.5274    0.0000 O   0  0  0  0  0  0  0  0  0  0  0  0
   -0.3556   -0.2470    0.0000 C   0  0  0  0  0  0  0  0  0  0  0  0
   -0.9687    0.3050    0.0000 C   0  0  0  0  0  0  0  0  0  0  0  0
   -1.6832   -0.1074    0.0000 N   0  0  0  0  0  0  0  0  0  0  0  0
   -2.4368    0.2281    0.0000 C   0  0  1  0  0  0  0  0  0  0  0  0
   -3.1044   -0.2567    0.0000 C   0  0  0  0  0  0  0  0  0  0  0  0
   -2.5231    1.0486    0.0000 C   0  0  0  0  0  0  0  0  0  0  0  0
   -1.8556    1.5335    0.0000 O   0  0  0  0  0  0  0  0  0  0  0  0
   -3.2767    1.3841    0.0000 N   0  0  0  0  0  0  0  0  0  0  0  0
   -3.3631    2.2046    0.0000 C   0  0  0  0  0  0  0  0  0  0  0  0
   -4.1167    2.5402    0.0000 C   0  0  0  0  0  0  0  0  0  0  0  0
   -4.7842    2.0552    0.0000 O   0  0  0  0  0  0  0  0  0  0  0  0
   -4.6979    1.2347    0.0000 C   0  0  0  0  0  0  0  0  0  0  0  0
   -3.9443    0.8992    0.0000 C   0  0  0  0  0  0  0  0  0  0  0  0
    4.9634   -2.6437    0.0000 H   0  0  0  0  0  0  0  0  0  0  0  0
    3.3553   -3.5722    0.0000 H   0  0  0  0  0  0  0  0  0  0  0  0
    1.5520   -3.3189    0.0000 H   0  0  0  0  0  0  0  0  0  0  0  0
    3.3553    0.1419    0.0000 H   0  0  0  0  0  0  0  0  0  0  0  0
    1.5373   -0.0662    0.0000 H   0  0  0  0  0  0  0  0  0  0  0  0
   -0.7886   -2.5985    0.0000 H   0  0  0  0  0  0  0  0  0  0  0  0
   -1.2738   -1.8980    0.0000 H   0  0  0  0  0  0  0  0  0  0  0  0
    0.6910   -0.0245    0.0000 H   0  0  0  0  0  0  0  0  0  0  0  0
   -0.0787    0.7865    0.0000 H   0  0  0  0  0  0  0  0  0  0  0  0
   -0.8568    1.3691    0.0000 H   0  0  0  0  0  0  0  0  0  0  0  0
   -1.8660    0.8878    0.0000 H   0  0  0  0  0  0  0  0  0  0  0  0
   -2.3251   -0.8361    0.0000 H   0  0  0  0  0  0  0  0  0  0  0  0
   -4.0818    0.1787    0.0000 H   0  0  0  0  0  0  0  0  0  0  0  0
   -2.9928   -1.3209    0.0000 H   0  0  0  0  0  0  0  0  0  0  0  0
   -3.9702   -0.8854    0.0000 H   0  0  0  0  0  0  0  0  0  0  0  0
   -2.4975    2.8336    0.0000 H   0  0  0  0  0  0  0  0  0  0  0  0
   -3.4749    3.2687    0.0000 H   0  0  0  0  0  0  0  0  0  0  0  0
   -4.2285    3.6043    0.0000 H   0  0  0  0  0  0  0  0  0  0  0  0
   -5.0942    2.9754    0.0000 H   0  0  0  0  0  0  0  0  0  0  0  0
   -5.5635    0.6057    0.0000 H   0  0  0  0  0  0  0  0  0  0  0  0
   -4.5860    0.1706    0.0000 H   0  0  0  0  0  0  0  0  0  0  0  0
   -3.8325   -0.1649    0.0000 H   0  0  0  0  0  0  0  0  0  0  0  0
   -4.8100    0.2703    0.0000 H   0  0  0  0  0  0  0  0  0  0  0  0
  2  1  1  0  0  0  0
  2  3  1  0  0  0  0
  3 31  1  0  0  0  0
  4  3  2  0  0  0  0
  4  5  1  0  0  0  0
  4 32  1  0  0  0  0
  5  6  1  0  0  0  0
  6 33  1  0  0  0  0
  7  5  2  0  0  0  0
  8  2  2  0  0  0  0
  8  7  1  0  0  0  0
  8 34  1  0  0  0  0
  9  7  1  0  0  0  0
  9 35  1  0  0  0  0
 10  6  1  0  0  0  0
 10  9  2  0  0  0  0
 10 11  1  0  0  0  0
 12 11  2  0  0  0  0
 13 11  2  0  0  0  0
 14 11  1  0  0  0  0
 14 36  1  0  0  0  0
 15 14  1  0  0  0  0
 15 16  1  0  0  0  0
 15 18  1  0  0  0  0
 15 37  1  1  0  0  0
 16 17  2  0  0  0  0
 16 20  1  0  0  0  0
 18 19  1  0  0  0  0
 18 38  1  0  0  0  0
 18 39  1  0  0  0  0
 19 20  1  0  0  0  0
 19 40  1  0  0  0  0
 19 41  1  0  0  0  0
 21 20  1  0  0  0  0
 21 22  1  0  0  0  0
 21 23  1  0  0  0  0
 21 42  1  6  0  0  0
 22 43  1  0  0  0  0
 22 44  1  0  0  0  0
 22 45  1  0  0  0  0
 23 24  2  0  0  0  0
 23 25  1  0  0  0  0
 26 25  1  0  0  0  0
 26 27  1  0  0  0  0
 26 46  1  0  0  0  0
 26 47  1  0  0  0  0
 27 28  1  0  0  0  0
 27 48  1  0  0  0  0
 27 49  1  0  0  0  0
 29 28  1  0  0  0  0
 29 50  1  0  0  0  0
 29 51  1  0  0  0  0
 30 25  1  0  0  0  0
 30 29  1  0  0  0  0
 30 52  1  0  0  0  0
 30 53  1  0  0  0  0
M  END
>  <DRUGBANK_ID>
DB07848

>  <COMMON_NAME>
5-Chloro-N-{(3S)-1-[(2S)-1-(4-morpholinyl)-1-oxo-2-propanyl]-2-oxo-3-pyrrolidinyl}-1H-indole-2-sulfonamide

$$$$
