
 OpenBabel10282417072D

 52 55  0  0  0  0  0  0  0  0999 V2000
    3.3523    1.1104    0.0000 C   0  0  0  0  0  0  0  0  0  0  0  0
    3.3523    1.9354    0.0000 C   0  0  0  0  0  0  0  0  0  0  0  0
    0.6710    5.9420    0.0000 C   0  0  0  0  0  0  0  0  0  0  0  0
    2.6378    0.6979    0.0000 C   0  0  0  0  0  0  0  0  0  0  0  0
    2.6378    2.3479    0.0000 C   0  0  0  0  0  0  0  0  0  0  0  0
    0.4161    6.7266    0.0000 C   0  0  0  0  0  0  0  0  0  0  0  0
    1.2652    8.7374    0.0000 C   0  0  0  0  0  0  0  0  0  0  0  0
   -0.0938    8.2958    0.0000 C   0  0  0  0  0  0  0  0  0  0  0  0
    1.0102    9.5220    0.0000 C   0  0  0  0  0  0  0  0  0  0  0  0
   -0.3488    9.0804    0.0000 C   0  0  0  0  0  0  0  0  0  0  0  0
    1.4358    3.5881    0.0000 C   0  0  0  0  0  0  0  0  0  0  0  0
    0.0768    3.1465    0.0000 C   0  0  0  0  0  0  0  0  0  0  0  0
    0.1190    5.3289    0.0000 C   0  0  0  0  0  0  0  0  0  0  0  0
    1.1809    4.3727    0.0000 C   0  0  0  0  0  0  0  0  0  0  0  0
   -0.1781    3.9312    0.0000 C   0  0  0  0  0  0  0  0  0  0  0  0
    0.7132    8.1243    0.0000 C   0  0  0  0  0  0  0  0  0  0  0  0
    0.2033    9.6935    0.0000 C   0  0  0  0  0  0  0  0  0  0  0  0
    0.8838    2.9750    0.0000 C   0  0  0  0  0  0  0  0  0  0  0  0
    1.9233    1.1104    0.0000 C   0  0  0  0  0  0  0  0  0  0  0  0
    1.9233    1.9354    0.0000 C   0  0  0  0  0  0  0  0  0  0  0  0
    0.9681    7.3397    0.0000 C   0  0  0  0  0  0  0  0  0  0  0  0
    0.6538    1.5229    0.0000 C   0  0  0  0  0  0  0  0  0  0  0  0
   -0.0517   10.4782    0.0000 F   0  0  0  0  0  0  0  0  0  0  0  0
    1.1387    0.8555    0.0000 N   0  0  0  0  0  0  0  0  0  0  0  0
    0.3739    4.5442    0.0000 N   0  0  0  0  0  0  0  0  0  0  0  0
    1.1387    2.1904    0.0000 N   0  0  0  0  0  0  0  0  0  0  0  0
    1.7751    7.1682    0.0000 O   0  0  0  0  0  0  0  0  0  0  0  0
   -0.1712    1.5229    0.0000 O   0  0  0  0  0  0  0  0  0  0  0  0
    4.2460    0.5944    0.0000 H   0  0  0  0  0  0  0  0  0  0  0  0
    4.2460    2.4514    0.0000 H   0  0  0  0  0  0  0  0  0  0  0  0
    1.7176    5.7195    0.0000 H   0  0  0  0  0  0  0  0  0  0  0  0
    1.0017    4.9244    0.0000 H   0  0  0  0  0  0  0  0  0  0  0  0
    2.6378   -0.3341    0.0000 H   0  0  0  0  0  0  0  0  0  0  0  0
    2.6378    3.3799    0.0000 H   0  0  0  0  0  0  0  0  0  0  0  0
   -0.6305    6.9491    0.0000 H   0  0  0  0  0  0  0  0  0  0  0  0
    0.0854    7.7442    0.0000 H   0  0  0  0  0  0  0  0  0  0  0  0
    2.2747    8.5229    0.0000 H   0  0  0  0  0  0  0  0  0  0  0  0
   -0.7843    7.5288    0.0000 H   0  0  0  0  0  0  0  0  0  0  0  0
    1.7007   10.2890    0.0000 H   0  0  0  0  0  0  0  0  0  0  0  0
   -1.3583    9.2950    0.0000 H   0  0  0  0  0  0  0  0  0  0  0  0
    2.4824    3.3656    0.0000 H   0  0  0  0  0  0  0  0  0  0  0  0
    1.7665    2.5705    0.0000 H   0  0  0  0  0  0  0  0  0  0  0  0
   -0.6392    2.3513    0.0000 H   0  0  0  0  0  0  0  0  0  0  0  0
    0.4075    2.1289    0.0000 H   0  0  0  0  0  0  0  0  0  0  0  0
   -0.9276    5.5514    0.0000 H   0  0  0  0  0  0  0  0  0  0  0  0
   -0.5970    4.5338    0.0000 H   0  0  0  0  0  0  0  0  0  0  0  0
    1.8969    5.1679    0.0000 H   0  0  0  0  0  0  0  0  0  0  0  0
    0.8502    5.3903    0.0000 H   0  0  0  0  0  0  0  0  0  0  0  0
   -1.2247    4.1537    0.0000 H   0  0  0  0  0  0  0  0  0  0  0  0
   -0.5087    4.9488    0.0000 H   0  0  0  0  0  0  0  0  0  0  0  0
    0.1678    2.1798    0.0000 H   0  0  0  0  0  0  0  0  0  0  0  0
   -0.6397    2.3344    0.0000 H   0  0  0  0  0  0  0  0  0  0  0  0
  1 29  1  0  0  0  0
  2  1  2  0  0  0  0
  2 30  1  0  0  0  0
  3 31  1  0  0  0  0
  3 32  1  0  0  0  0
  4  1  1  0  0  0  0
  4 33  1  0  0  0  0
  5  2  1  0  0  0  0
  5 34  1  0  0  0  0
  6  3  1  0  0  0  0
  6 35  1  0  0  0  0
  6 36  1  0  0  0  0
  7 37  1  0  0  0  0
  8 38  1  0  0  0  0
  9  7  1  0  0  0  0
  9 39  1  0  0  0  0
 10  8  2  0  0  0  0
 10 40  1  0  0  0  0
 11 41  1  0  0  0  0
 11 42  1  0  0  0  0
 12 43  1  0  0  0  0
 12 44  1  0  0  0  0
 13  3  1  0  0  0  0
 13 45  1  0  0  0  0
 13 46  1  0  0  0  0
 14 11  1  0  0  0  0
 14 47  1  0  0  0  0
 14 48  1  0  0  0  0
 15 12  1  0  0  0  0
 15 49  1  0  0  0  0
 15 50  1  0  0  0  0
 16  7  2  0  0  0  0
 16  8  1  0  0  0  0
 17  9  2  0  0  0  0
 17 10  1  0  0  0  0
 18 11  1  0  0  0  0
 18 12  1  0  0  0  0
 18 51  1  0  0  0  0
 19  4  2  0  0  0  0
 20  5  2  0  0  0  0
 20 19  1  0  0  0  0
 21  6  1  0  0  0  0
 21 16  1  0  0  0  0
 23 17  1  0  0  0  0
 24 19  1  0  0  0  0
 24 22  2  0  0  0  0
 25 13  1  0  0  0  0
 25 14  1  0  0  0  0
 25 15  1  0  0  0  0
 26 18  1  0  0  0  0
 26 20  1  0  0  0  0
 26 22  1  0  0  0  0
 27 21  2  0  0  0  0
 28 22  1  0  0  0  0
 28 52  1  0  0  0  0
M  END
>  <DRUGBANK_ID>
DB12867

>  <COMMON_NAME>
Benperidol

>  <CAS_NUMBER>
2062-84-2

>  <UNII>
97O6X78C53

>  <SYNONYMS>
Benperidol; Benperidolum

$$$$
