613
 OpenBabel10282417072D

 47 49  0  0  0  0  0  0  0  0999 V2000
    9.5637    2.3239    0.0000 Cl  0  0  0  0  0  0  0  0  0  0  0  0
    3.7935   -1.8210    0.0000 O   0  0  0  0  0  0  0  0  0  0  0  0
    3.0790   -0.5835    0.0000 N   0  0  0  0  0  0  0  0  0  0  0  0
    6.6514   -0.1710    0.0000 N   0  0  0  0  0  0  0  0  0  0  0  0
    6.6514    2.3040    0.0000 N   0  0  0  0  0  0  0  0  0  0  0  0
    3.7935   -0.1710    0.0000 C   0  0  0  0  0  0  0  0  0  0  0  0
    4.5079   -0.5835    0.0000 C   0  0  0  0  0  0  0  0  0  0  0  0
    3.0790   -1.4085    0.0000 C   0  0  0  0  0  0  0  0  0  0  0  0
    2.3645   -0.1710    0.0000 C   0  0  0  0  0  0  0  0  0  0  0  0
    5.2224   -0.1710    0.0000 C   0  0  0  0  0  0  0  0  0  0  0  0
    5.9369   -0.5835    0.0000 C   0  0  0  0  0  0  0  0  0  0  0  0
    4.5079   -1.4085    0.0000 C   0  0  0  0  0  0  0  0  0  0  0  0
    2.3645   -1.8210    0.0000 C   0  0  0  0  0  0  0  0  0  0  0  0
    1.6500   -0.5835    0.0000 C   0  0  0  0  0  0  0  0  0  0  0  0
    5.9369   -1.4085    0.0000 C   0  0  0  0  0  0  0  0  0  0  0  0
    6.6514    0.6540    0.0000 C   0  0  0  0  0  0  0  0  0  0  0  0
    5.2224   -1.8210    0.0000 C   0  0  0  0  0  0  0  0  0  0  0  0
    7.3658    1.0665    0.0000 C   0  0  0  0  0  0  0  0  0  0  0  0
    7.3658    1.8915    0.0000 C   0  0  0  0  0  0  0  0  0  0  0  0
    5.9369    1.0665    0.0000 C   0  0  0  0  0  0  0  0  0  0  0  0
    8.1033    0.6254    0.0000 C   0  0  0  0  0  0  0  0  0  0  0  0
    8.1033    2.3325    0.0000 C   0  0  0  0  0  0  0  0  0  0  0  0
    5.9369    1.8915    0.0000 C   0  0  0  0  0  0  0  0  0  0  0  0
    8.8509    1.0493    0.0000 C   0  0  0  0  0  0  0  0  0  0  0  0
    8.8509    1.9087    0.0000 C   0  0  0  0  0  0  0  0  0  0  0  0
    2.9820   -1.3525    0.0000 H   0  0  0  0  0  0  0  0  0  0  0  0
    7.5040   -0.6633    0.0000 H   0  0  0  0  0  0  0  0  0  0  0  0
    3.7935    0.8990    0.0000 H   0  0  0  0  0  0  0  0  0  0  0  0
    4.7202    0.3640    0.0000 H   0  0  0  0  0  0  0  0  0  0  0  0
    4.0056   -1.9435    0.0000 H   0  0  0  0  0  0  0  0  0  0  0  0
    3.0790   -2.4785    0.0000 H   0  0  0  0  0  0  0  0  0  0  0  0
    2.3645    0.8990    0.0000 H   0  0  0  0  0  0  0  0  0  0  0  0
    1.4379    0.3640    0.0000 H   0  0  0  0  0  0  0  0  0  0  0  0
    5.2224    0.8610    0.0000 H   0  0  0  0  0  0  0  0  0  0  0  0
    1.4379   -1.2860    0.0000 H   0  0  0  0  0  0  0  0  0  0  0  0
    2.3645   -2.8910    0.0000 H   0  0  0  0  0  0  0  0  0  0  0  0
    1.4378   -2.3560    0.0000 H   0  0  0  0  0  0  0  0  0  0  0  0
    0.7234   -0.0485    0.0000 H   0  0  0  0  0  0  0  0  0  0  0  0
    1.6500   -1.6535    0.0000 H   0  0  0  0  0  0  0  0  0  0  0  0
    0.7233   -1.1185    0.0000 H   0  0  0  0  0  0  0  0  0  0  0  0
    6.8306   -1.9245    0.0000 H   0  0  0  0  0  0  0  0  0  0  0  0
    5.2224   -2.8530    0.0000 H   0  0  0  0  0  0  0  0  0  0  0  0
    5.0432    0.5505    0.0000 H   0  0  0  0  0  0  0  0  0  0  0  0
    8.0913   -0.4065    0.0000 H   0  0  0  0  0  0  0  0  0  0  0  0
    8.0913    3.3644    0.0000 H   0  0  0  0  0  0  0  0  0  0  0  0
    5.0432    2.4075    0.0000 H   0  0  0  0  0  0  0  0  0  0  0  0
    9.7426    0.5298    0.0000 H   0  0  0  0  0  0  0  0  0  0  0  0
  1 25  1  0  0  0  0
  2 12  1  0  0  0  0
  2 26  1  0  0  0  0
  3  6  1  0  0  0  0
  3  8  1  0  0  0  0
  3  9  1  0  0  0  0
  4 11  1  0  0  0  0
  4 16  1  0  0  0  0
  4 27  1  0  0  0  0
  5 19  2  0  0  0  0
  5 23  1  0  0  0  0
  6  7  1  0  0  0  0
  6 28  1  0  0  0  0
  6 29  1  0  0  0  0
  7 10  1  0  0  0  0
  7 12  2  0  0  0  0
  8 13  1  0  0  0  0
  8 30  1  0  0  0  0
  8 31  1  0  0  0  0
  9 14  1  0  0  0  0
  9 32  1  0  0  0  0
  9 33  1  0  0  0  0
 10 11  2  0  0  0  0
 10 34  1  0  0  0  0
 11 15  1  0  0  0  0
 12 17  1  0  0  0  0
 13 35  1  0  0  0  0
 13 36  1  0  0  0  0
 13 37  1  0  0  0  0
 14 38  1  0  0  0  0
 14 39  1  0  0  0  0
 14 40  1  0  0  0  0
 15 17  2  0  0  0  0
 15 41  1  0  0  0  0
 16 18  2  0  0  0  0
 16 20  1  0  0  0  0
 17 42  1  0  0  0  0
 18 19  1  0  0  0  0
 18 21  1  0  0  0  0
 19 22  1  0  0  0  0
 20 23  2  0  0  0  0
 20 43  1  0  0  0  0
 21 24  2  0  0  0  0
 21 44  1  0  0  0  0
 22 25  2  0  0  0  0
 22 45  1  0  0  0  0
 23 46  1  0  0  0  0
 24 25  1  0  0  0  0
 24 47  1  0  0  0  0
M  END
>  <DRUGBANK_ID>
DB00613

>  <SECONDARY_ACCESSION_NUMBERS>
APRD00796

>  <COMMON_NAME>
Amodiaquine

>  <CAS_NUMBER>
86-42-0

>  <UNII>
220236ED28

>  <SYNONYMS>
Amodiaquina; Amodiaquine; Amodiaquinum

$$$$
