
 OpenBabel10282417072D

 63 68  0  0  0  0  0  0  0  0999 V2000
    4.7812    7.1396    0.0000 C   0  0  0  0  0  0  0  0  0  0  0  0
    0.8838   -2.1500    0.0000 C   0  0  0  0  0  0  0  0  0  0  0  0
    4.0668    5.9021    0.0000 C   0  0  0  0  0  0  0  0  0  0  0  0
    6.9246    7.5521    0.0000 C   0  0  0  0  0  0  0  0  0  0  0  0
    7.6391    6.3146    0.0000 C   0  0  0  0  0  0  0  0  0  0  0  0
    3.3523    2.1896    0.0000 C   0  0  0  0  0  0  0  0  0  0  0  0
    6.2102    7.1396    0.0000 C   0  0  0  0  0  0  0  0  0  0  0  0
    6.9246    5.9021    0.0000 C   0  0  0  0  0  0  0  0  0  0  0  0
    4.0668    5.0771    0.0000 C   0  0  0  0  0  0  0  0  0  0  0  0
    3.3523    1.3646    0.0000 C   0  0  0  0  0  0  0  0  0  0  0  0
    2.6378    0.1271    0.0000 C   0  0  0  0  0  0  0  0  0  0  0  0
    4.7812    2.1896    0.0000 C   0  0  0  0  0  0  0  0  0  0  0  0
    2.6378   -1.5229    0.0000 C   0  0  0  0  0  0  0  0  0  0  0  0
    4.1530   -2.3434    0.0000 C   0  0  0  0  0  0  0  0  0  0  0  0
    4.8204   -1.1874    0.0000 C   0  0  0  0  0  0  0  0  0  0  0  0
    1.1387   -0.0305    0.0000 C   0  0  0  0  0  0  0  0  0  0  0  0
    4.7812    6.3146    0.0000 C   0  0  0  0  0  0  0  0  0  0  0  0
    1.9233   -0.2854    0.0000 C   0  0  0  0  0  0  0  0  0  0  0  0
    4.0668   -1.5229    0.0000 C   0  0  0  0  0  0  0  0  0  0  0  0
    7.6391    7.1396    0.0000 C   0  0  0  0  0  0  0  0  0  0  0  0
    4.0668    2.6021    0.0000 C   0  0  0  0  0  0  0  0  0  0  0  0
    6.2102    6.3146    0.0000 C   0  0  0  0  0  0  0  0  0  0  0  0
    4.7812    4.6646    0.0000 C   0  0  0  0  0  0  0  0  0  0  0  0
    3.3523   -1.1104    0.0000 C   0  0  0  0  0  0  0  0  0  0  0  0
    4.7812    1.3646    0.0000 C   0  0  0  0  0  0  0  0  0  0  0  0
    1.9233   -1.1104    0.0000 C   0  0  0  0  0  0  0  0  0  0  0  0
    4.0668    0.9521    0.0000 C   0  0  0  0  0  0  0  0  0  0  0  0
    3.3523   -0.2854    0.0000 C   0  0  0  0  0  0  0  0  0  0  0  0
    4.7812    3.8396    0.0000 C   0  0  0  0  0  0  0  0  0  0  0  0
    5.4957    5.0771    0.0000 C   0  0  0  0  0  0  0  0  0  0  0  0
    8.3536    7.5521    0.0000 F   0  0  0  0  0  0  0  0  0  0  0  0
    5.4957    0.9521    0.0000 F   0  0  0  0  0  0  0  0  0  0  0  0
    4.9600   -2.5150    0.0000 N   0  0  0  0  0  0  0  0  0  0  0  0
    5.3725   -1.8005    0.0000 N   0  0  0  0  0  0  0  0  0  0  0  0
    0.6538   -0.6979    0.0000 N   0  0  0  0  0  0  0  0  0  0  0  0
    4.0668    3.4271    0.0000 N   0  0  0  0  0  0  0  0  0  0  0  0
    1.1387   -1.3654    0.0000 N   0  0  0  0  0  0  0  0  0  0  0  0
    5.4957    5.9021    0.0000 N   0  0  0  0  0  0  0  0  0  0  0  0
    5.4957    3.4271    0.0000 O   0  0  0  0  0  0  0  0  0  0  0  0
    6.2102    4.6646    0.0000 O   0  0  0  0  0  0  0  0  0  0  0  0
    4.0668    0.1271    0.0000 O   0  0  0  0  0  0  0  0  0  0  0  0
    5.7078    7.6746    0.0000 H   0  0  0  0  0  0  0  0  0  0  0  0
    3.8546    7.6746    0.0000 H   0  0  0  0  0  0  0  0  0  0  0  0
    4.7812    8.2096    0.0000 H   0  0  0  0  0  0  0  0  0  0  0  0
   -0.1628   -2.3725    0.0000 H   0  0  0  0  0  0  0  0  0  0  0  0
    1.5998   -2.9451    0.0000 H   0  0  0  0  0  0  0  0  0  0  0  0
    0.5532   -3.1676    0.0000 H   0  0  0  0  0  0  0  0  0  0  0  0
    3.1731    6.4181    0.0000 H   0  0  0  0  0  0  0  0  0  0  0  0
    6.9246    8.5841    0.0000 H   0  0  0  0  0  0  0  0  0  0  0  0
    8.5328    5.7986    0.0000 H   0  0  0  0  0  0  0  0  0  0  0  0
    2.4586    2.7056    0.0000 H   0  0  0  0  0  0  0  0  0  0  0  0
    5.3165    7.6556    0.0000 H   0  0  0  0  0  0  0  0  0  0  0  0
    6.9246    4.8701    0.0000 H   0  0  0  0  0  0  0  0  0  0  0  0
    3.1731    4.5611    0.0000 H   0  0  0  0  0  0  0  0  0  0  0  0
    2.4586    0.8486    0.0000 H   0  0  0  0  0  0  0  0  0  0  0  0
    2.6378    1.1591    0.0000 H   0  0  0  0  0  0  0  0  0  0  0  0
    5.6749    2.7056    0.0000 H   0  0  0  0  0  0  0  0  0  0  0  0
    2.6378   -2.5549    0.0000 H   0  0  0  0  0  0  0  0  0  0  0  0
    3.3860   -3.0339    0.0000 H   0  0  0  0  0  0  0  0  0  0  0  0
    5.0350   -0.1779    0.0000 H   0  0  0  0  0  0  0  0  0  0  0  0
    0.8198    0.9510    0.0000 H   0  0  0  0  0  0  0  0  0  0  0  0
    5.3604   -3.4144    0.0000 H   0  0  0  0  0  0  0  0  0  0  0  0
    3.2142    3.9193    0.0000 H   0  0  0  0  0  0  0  0  0  0  0  0
  1 42  1  0  0  0  0
  1 43  1  0  0  0  0
  1 44  1  0  0  0  0
  2 45  1  0  0  0  0
  2 46  1  0  0  0  0
  2 47  1  0  0  0  0
  3 48  1  0  0  0  0
  4 49  1  0  0  0  0
  5 50  1  0  0  0  0
  6 51  1  0  0  0  0
  7  4  1  0  0  0  0
  7 52  1  0  0  0  0
  8  5  2  0  0  0  0
  8 53  1  0  0  0  0
  9  3  1  0  0  0  0
  9 54  1  0  0  0  0
 10  6  2  0  0  0  0
 10 55  1  0  0  0  0
 11 56  1  0  0  0  0
 12 57  1  0  0  0  0
 13 58  1  0  0  0  0
 14 59  1  0  0  0  0
 15 60  1  0  0  0  0
 16 61  1  0  0  0  0
 17  1  1  0  0  0  0
 17  3  2  0  0  0  0
 18 11  2  0  0  0  0
 18 16  1  0  0  0  0
 19 14  2  0  0  0  0
 19 15  1  0  0  0  0
 20  4  2  0  0  0  0
 20  5  1  0  0  0  0
 21  6  1  0  0  0  0
 21 12  2  0  0  0  0
 22  7  2  0  0  0  0
 22  8  1  0  0  0  0
 23  9  2  0  0  0  0
 24 13  1  0  0  0  0
 24 19  1  0  0  0  0
 25 12  1  0  0  0  0
 26 13  2  0  0  0  0
 26 18  1  0  0  0  0
 27 10  1  0  0  0  0
 27 25  2  0  0  0  0
 28 11  1  0  0  0  0
 28 24  2  0  0  0  0
 29 23  1  0  0  0  0
 30 23  1  0  0  0  0
 31 20  1  0  0  0  0
 32 25  1  0  0  0  0
 33 14  1  0  0  0  0
 33 62  1  0  0  0  0
 34 15  2  0  0  0  0
 34 33  1  0  0  0  0
 35 16  2  0  0  0  0
 36 21  1  0  0  0  0
 36 29  1  0  0  0  0
 36 63  1  0  0  0  0
 37  2  1  0  0  0  0
 37 26  1  0  0  0  0
 37 35  1  0  0  0  0
 38 17  1  0  0  0  0
 38 22  1  0  0  0  0
 38 30  1  0  0  0  0
 39 29  2  0  0  0  0
 40 30  2  0  0  0  0
 41 27  1  0  0  0  0
 41 28  1  0  0  0  0
M  END
>  <DRUGBANK_ID>
DB12381

>  <COMMON_NAME>
Merestinib

>  <CAS_NUMBER>
1206799-15-6

>  <UNII>
5OGS5K699E

>  <SYNONYMS>
Merestinib

$$$$
