
 OpenBabel10282417072D

 46 48  0  0  0  0  0  0  0  0999 V2000
    4.2584    1.1193    0.0000 C   0  0  0  0  0  0  0  0  0  0  0  0
    4.9728    1.5318    0.0000 N   0  0  0  0  0  0  0  0  0  0  0  0
    4.9728    2.3568    0.0000 C   0  0  0  0  0  0  0  0  0  0  0  0
    5.6873    1.1193    0.0000 C   0  0  0  0  0  0  0  0  0  0  0  0
    6.4018    1.5318    0.0000 C   0  0  0  0  0  0  0  0  0  0  0  0
    7.1162    1.1193    0.0000 C   0  0  0  0  0  0  0  0  0  0  0  0
    7.8307    1.5318    0.0000 O   0  0  0  0  0  0  0  0  0  0  0  0
    8.5452    1.1193    0.0000 C   0  0  0  0  0  0  0  0  0  0  0  0
    9.2989    1.4548    0.0000 N   0  0  0  0  0  0  0  0  0  0  0  0
    9.8509    0.8418    0.0000 N   0  0  0  0  0  0  0  0  0  0  0  0
   10.6714    0.9280    0.0000 C   0  0  0  0  0  0  0  0  0  0  0  0
   11.1563    0.2606    0.0000 C   0  0  0  0  0  0  0  0  0  0  0  0
   11.9768    0.3468    0.0000 C   0  0  0  0  0  0  0  0  0  0  0  0
   12.4617   -0.3207    0.0000 C   0  0  0  0  0  0  0  0  0  0  0  0
   12.1261   -1.0743    0.0000 C   0  0  0  0  0  0  0  0  0  0  0  0
   11.3057   -1.1606    0.0000 C   0  0  0  0  0  0  0  0  0  0  0  0
   10.8207   -0.4931    0.0000 C   0  0  0  0  0  0  0  0  0  0  0  0
    9.4384    0.1273    0.0000 C   0  0  0  0  0  0  0  0  0  0  0  0
    9.6933   -0.6573    0.0000 C   0  0  0  0  0  0  0  0  0  0  0  0
    9.1413   -1.2704    0.0000 C   0  0  0  0  0  0  0  0  0  0  0  0
    8.3343   -1.0989    0.0000 C   0  0  0  0  0  0  0  0  0  0  0  0
    8.0794   -0.3143    0.0000 C   0  0  0  0  0  0  0  0  0  0  0  0
    8.6314    0.2988    0.0000 C   0  0  0  0  0  0  0  0  0  0  0  0
    3.3317    1.6543    0.0000 H   0  0  0  0  0  0  0  0  0  0  0  0
    4.2584    0.0493    0.0000 H   0  0  0  0  0  0  0  0  0  0  0  0
    3.3318    0.5843    0.0000 H   0  0  0  0  0  0  0  0  0  0  0  0
    5.8994    2.8918    0.0000 H   0  0  0  0  0  0  0  0  0  0  0  0
    4.0462    2.8918    0.0000 H   0  0  0  0  0  0  0  0  0  0  0  0
    4.9728    3.4268    0.0000 H   0  0  0  0  0  0  0  0  0  0  0  0
    5.6873    0.0493    0.0000 H   0  0  0  0  0  0  0  0  0  0  0  0
    6.6139    0.5843    0.0000 H   0  0  0  0  0  0  0  0  0  0  0  0
    6.4018    2.6018    0.0000 H   0  0  0  0  0  0  0  0  0  0  0  0
    7.3285    2.0668    0.0000 H   0  0  0  0  0  0  0  0  0  0  0  0
    7.1162    0.0493    0.0000 H   0  0  0  0  0  0  0  0  0  0  0  0
    8.0428    0.5843    0.0000 H   0  0  0  0  0  0  0  0  0  0  0  0
   11.1066    1.9055    0.0000 H   0  0  0  0  0  0  0  0  0  0  0  0
   11.7355    1.0398    0.0000 H   0  0  0  0  0  0  0  0  0  0  0  0
   12.3966    1.2896    0.0000 H   0  0  0  0  0  0  0  0  0  0  0  0
   13.4881   -0.2129    0.0000 H   0  0  0  0  0  0  0  0  0  0  0  0
   12.7327   -1.9092    0.0000 H   0  0  0  0  0  0  0  0  0  0  0  0
   10.8860   -2.1034    0.0000 H   0  0  0  0  0  0  0  0  0  0  0  0
    9.7944   -0.6010    0.0000 H   0  0  0  0  0  0  0  0  0  0  0  0
   10.7027   -0.8719    0.0000 H   0  0  0  0  0  0  0  0  0  0  0  0
    9.4602   -2.2519    0.0000 H   0  0  0  0  0  0  0  0  0  0  0  0
    7.6438   -1.8658    0.0000 H   0  0  0  0  0  0  0  0  0  0  0  0
    7.0700   -0.0997    0.0000 H   0  0  0  0  0  0  0  0  0  0  0  0
  1  2  1  0  0  0  0
  1 24  1  0  0  0  0
  1 25  1  0  0  0  0
  1 26  1  0  0  0  0
  2  3  1  0  0  0  0
  2  4  1  0  0  0  0
  3 27  1  0  0  0  0
  3 28  1  0  0  0  0
  3 29  1  0  0  0  0
  4  5  1  0  0  0  0
  4 30  1  0  0  0  0
  4 31  1  0  0  0  0
  5  6  1  0  0  0  0
  5 32  1  0  0  0  0
  5 33  1  0  0  0  0
  6  7  1  0  0  0  0
  6 34  1  0  0  0  0
  6 35  1  0  0  0  0
  7  8  1  0  0  0  0
  8  9  2  0  0  0  0
  8 23  1  0  0  0  0
  9 10  1  0  0  0  0
 10 11  1  0  0  0  0
 10 18  1  0  0  0  0
 11 12  1  0  0  0  0
 11 36  1  0  0  0  0
 11 37  1  0  0  0  0
 12 13  2  0  0  0  0
 12 17  1  0  0  0  0
 13 14  1  0  0  0  0
 13 38  1  0  0  0  0
 14 15  2  0  0  0  0
 14 39  1  0  0  0  0
 15 16  1  0  0  0  0
 15 40  1  0  0  0  0
 16 17  2  0  0  0  0
 16 41  1  0  0  0  0
 17 42  1  0  0  0  0
 18 19  2  0  0  0  0
 18 23  1  0  0  0  0
 19 20  1  0  0  0  0
 19 43  1  0  0  0  0
 20 21  2  0  0  0  0
 20 44  1  0  0  0  0
 21 22  1  0  0  0  0
 21 45  1  0  0  0  0
 22 23  2  0  0  0  0
 22 46  1  0  0  0  0
M  END
>  <DRUGBANK_ID>
DB09084

>  <COMMON_NAME>
Benzydamine

>  <CAS_NUMBER>
642-72-8

>  <UNII>
4O21U048EF

>  <SYNONYMS>
Bencidamina; Benzydamine; Benzydaminum

$$$$
