
 OpenBabel10282417072D

 64 68  0  0  1  0  0  0  0  0999 V2000
    5.4176   -1.7872    0.0000 C   0  0  0  0  0  0  0  0  0  0  0  0
    5.9255   -1.1370    0.0000 C   0  0  0  0  0  0  0  0  0  0  0  0
    5.6165   -0.3721    0.0000 C   0  0  2  0  0  0  0  0  0  0  0  0
    5.0645    0.2410    0.0000 C   0  0  0  0  0  0  0  0  0  0  0  0
    4.2575    0.0694    0.0000 C   0  0  0  0  0  0  0  0  0  0  0  0
    3.7054    0.6825    0.0000 C   0  0  0  0  0  0  0  0  0  0  0  0
    3.9604    1.4672    0.0000 N   0  0  0  0  0  0  0  0  0  0  0  0
    4.7674    1.6387    0.0000 C   0  0  0  0  0  0  0  0  0  0  0  0
    5.0223    2.4233    0.0000 O   0  0  0  0  0  0  0  0  0  0  0  0
    5.3194    1.0256    0.0000 C   0  0  0  0  0  0  0  0  0  0  0  0
    6.1264    1.1971    0.0000 C   0  0  0  0  0  0  0  0  0  0  0  0
    6.6784    0.5840    0.0000 O   0  0  0  0  0  0  0  0  0  0  0  0
    6.4235   -0.2006    0.0000 C   0  0  0  0  0  0  0  0  0  0  0  0
    6.9755   -0.8137    0.0000 O   0  0  0  0  0  0  0  0  0  0  0  0
    3.2929    1.9521    0.0000 C   0  0  0  0  0  0  0  0  0  0  0  0
    2.6255    1.4672    0.0000 C   0  0  0  0  0  0  0  0  0  0  0  0
    2.8804    0.6825    0.0000 C   0  0  0  0  0  0  0  0  0  0  0  0
    2.3284    0.0694    0.0000 N   0  0  0  0  0  0  0  0  0  0  0  0
    1.5214    0.2410    0.0000 C   0  0  0  0  0  0  0  0  0  0  0  0
    0.9694   -0.3721    0.0000 C   0  0  0  0  0  0  0  0  0  0  0  0
    0.1624   -0.2006    0.0000 C   0  0  0  0  0  0  0  0  0  0  0  0
   -0.0925    0.5840    0.0000 C   0  0  0  0  0  0  0  0  0  0  0  0
    0.4595    1.1971    0.0000 C   0  0  0  0  0  0  0  0  0  0  0  0
    1.2665    1.0256    0.0000 C   0  0  0  0  0  0  0  0  0  0  0  0
    1.8185    1.6387    0.0000 C   0  0  0  0  0  0  0  0  0  0  0  0
    1.5636    2.4233    0.0000 Si  0  0  0  0  0  0  0  0  0  0  0  0
    2.3482    2.6782    0.0000 C   0  0  0  0  0  0  0  0  0  0  0  0
    0.7790    2.1684    0.0000 C   0  0  0  0  0  0  0  0  0  0  0  0
    1.3087    3.2079    0.0000 C   0  0  0  0  0  0  0  0  0  0  0  0
    2.0933    3.4629    0.0000 C   0  0  0  0  0  0  0  0  0  0  0  0
    0.5240    2.9530    0.0000 C   0  0  0  0  0  0  0  0  0  0  0  0
    1.0537    3.9926    0.0000 C   0  0  0  0  0  0  0  0  0  0  0  0
   -0.8995    0.7556    0.0000 O   0  0  0  0  0  0  0  0  0  0  0  0
    4.9168   -0.8093    0.0000 O   0  0  0  0  0  0  0  0  0  0  0  0
    4.3580   -1.6384    0.0000 H   0  0  0  0  0  0  0  0  0  0  0  0
    5.8185   -2.7793    0.0000 H   0  0  0  0  0  0  0  0  0  0  0  0
    4.7589   -2.6304    0.0000 H   0  0  0  0  0  0  0  0  0  0  0  0
    6.9851   -1.2859    0.0000 H   0  0  0  0  0  0  0  0  0  0  0  0
    6.5843   -0.2938    0.0000 H   0  0  0  0  0  0  0  0  0  0  0  0
    3.9387   -0.9121    0.0000 H   0  0  0  0  0  0  0  0  0  0  0  0
    6.4571    2.2147    0.0000 H   0  0  0  0  0  0  0  0  0  0  0  0
    7.1730    1.4195    0.0000 H   0  0  0  0  0  0  0  0  0  0  0  0
    3.2929    3.0221    0.0000 H   0  0  0  0  0  0  0  0  0  0  0  0
    2.3395    2.4379    0.0000 H   0  0  0  0  0  0  0  0  0  0  0  0
    1.2883   -1.3536    0.0000 H   0  0  0  0  0  0  0  0  0  0  0  0
   -0.5281   -0.9675    0.0000 H   0  0  0  0  0  0  0  0  0  0  0  0
    0.1406    2.1786    0.0000 H   0  0  0  0  0  0  0  0  0  0  0  0
    3.1433    1.9622    0.0000 H   0  0  0  0  0  0  0  0  0  0  0  0
    2.5707    3.7248    0.0000 H   0  0  0  0  0  0  0  0  0  0  0  0
    3.3658    3.0088    0.0000 H   0  0  0  0  0  0  0  0  0  0  0  0
   -0.0161    2.8844    0.0000 H   0  0  0  0  0  0  0  0  0  0  0  0
    0.5565    1.1218    0.0000 H   0  0  0  0  0  0  0  0  0  0  0  0
   -0.2386    1.8378    0.0000 H   0  0  0  0  0  0  0  0  0  0  0  0
    2.8885    2.7470    0.0000 H   0  0  0  0  0  0  0  0  0  0  0  0
    2.3157    4.5095    0.0000 H   0  0  0  0  0  0  0  0  0  0  0  0
    3.1109    3.7936    0.0000 H   0  0  0  0  0  0  0  0  0  0  0  0
   -0.2711    3.6690    0.0000 H   0  0  0  0  0  0  0  0  0  0  0  0
    0.3015    1.9064    0.0000 H   0  0  0  0  0  0  0  0  0  0  0  0
   -0.4937    2.6224    0.0000 H   0  0  0  0  0  0  0  0  0  0  0  0
    1.7696    4.7878    0.0000 H   0  0  0  0  0  0  0  0  0  0  0  0
    0.0071    4.2150    0.0000 H   0  0  0  0  0  0  0  0  0  0  0  0
    0.7230    5.0102    0.0000 H   0  0  0  0  0  0  0  0  0  0  0  0
   -1.1890    1.6468    0.0000 H   0  0  0  0  0  0  0  0  0  0  0  0
    4.0604   -0.3539    0.0000 H   0  0  0  0  0  0  0  0  0  0  0  0
  1  2  1  0  0  0  0
  1 35  1  0  0  0  0
  1 36  1  0  0  0  0
  1 37  1  0  0  0  0
  2 38  1  0  0  0  0
  2 39  1  0  0  0  0
  3  2  1  0  0  0  0
  3  4  1  0  0  0  0
  3 13  1  0  0  0  0
  3 34  1  1  0  0  0
  4  5  1  0  0  0  0
  4 10  2  0  0  0  0
  5  6  2  0  0  0  0
  5 40  1  0  0  0  0
  6  7  1  0  0  0  0
  6 17  1  0  0  0  0
  7  8  1  0  0  0  0
  7 15  1  0  0  0  0
  8  9  2  0  0  0  0
  8 10  1  0  0  0  0
 10 11  1  0  0  0  0
 11 12  1  0  0  0  0
 11 41  1  0  0  0  0
 11 42  1  0  0  0  0
 12 13  1  0  0  0  0
 13 14  2  0  0  0  0
 15 16  1  0  0  0  0
 15 43  1  0  0  0  0
 15 44  1  0  0  0  0
 16 17  2  0  0  0  0
 16 25  1  0  0  0  0
 17 18  1  0  0  0  0
 18 19  2  0  0  0  0
 19 20  1  0  0  0  0
 19 24  1  0  0  0  0
 20 21  2  0  0  0  0
 20 45  1  0  0  0  0
 21 22  1  0  0  0  0
 21 46  1  0  0  0  0
 22 23  2  0  0  0  0
 22 33  1  0  0  0  0
 23 24  1  0  0  0  0
 23 47  1  0  0  0  0
 24 25  2  0  0  0  0
 25 26  1  0  0  0  0
 26 27  1  0  0  0  0
 26 28  1  0  0  0  0
 26 29  1  0  0  0  0
 27 48  1  0  0  0  0
 27 49  1  0  0  0  0
 27 50  1  0  0  0  0
 28 51  1  0  0  0  0
 28 52  1  0  0  0  0
 28 53  1  0  0  0  0
 29 30  1  0  0  0  0
 29 31  1  0  0  0  0
 29 32  1  0  0  0  0
 30 54  1  0  0  0  0
 30 55  1  0  0  0  0
 30 56  1  0  0  0  0
 31 57  1  0  0  0  0
 31 58  1  0  0  0  0
 31 59  1  0  0  0  0
 32 60  1  0  0  0  0
 32 61  1  0  0  0  0
 32 62  1  0  0  0  0
 33 63  1  0  0  0  0
 34 64  1  0  0  0  0
M  END
>  <DRUGBANK_ID>
DB12384

>  <COMMON_NAME>
Silatecan

>  <CAS_NUMBER>
220913-32-6

>  <UNII>
3YEA04NV6H

$$$$
