
 OpenBabel10282417072D

169174  0  0  0  0  0  0  0  0999 V2000
   -7.3548   -0.3250    0.0000 S   0  0  0  0  0  0  0  0  0  0  0  0
    7.5035   -0.3807    0.0000 S   0  0  0  0  0  0  0  0  0  0  0  0
   -8.5806    1.1793    0.0000 O   0  0  0  0  0  0  0  0  0  0  0  0
    8.5807    1.1979    0.0000 O   0  0  0  0  0  0  0  0  0  0  0  0
   -8.5806    2.8323    0.0000 O   0  0  0  0  0  0  0  0  0  0  0  0
    8.5807    2.8509    0.0000 O   0  0  0  0  0  0  0  0  0  0  0  0
   -2.8602    0.3622    0.0000 O   0  0  0  0  0  0  0  0  0  0  0  0
    2.8417    0.3807    0.0000 O   0  0  0  0  0  0  0  0  0  0  0  0
   -2.8602   -1.2908    0.0000 O   0  0  0  0  0  0  0  0  0  0  0  0
    2.8417   -1.2722    0.0000 O   0  0  0  0  0  0  0  0  0  0  0  0
   -2.1359    1.5879    0.0000 O   0  0  0  0  0  0  0  0  0  0  0  0
    2.1359    1.6065    0.0000 O   0  0  0  0  0  0  0  0  0  0  0  0
   -2.8602    2.8323    0.0000 O   0  0  0  0  0  0  0  0  0  0  0  0
    2.8602    2.8509    0.0000 O   0  0  0  0  0  0  0  0  0  0  0  0
   -7.3548    0.5107    0.0000 O   0  5  0  0  0  0  0  0  0  0  0  0
    7.5405    0.4550    0.0000 O   0  5  0  0  0  0  0  0  0  0  0  0
   -8.1906   -0.3250    0.0000 O   0  0  0  0  0  0  0  0  0  0  0  0
   -6.5191   -0.3250    0.0000 O   0  0  0  0  0  0  0  0  0  0  0  0
    6.6677   -0.4179    0.0000 O   0  0  0  0  0  0  0  0  0  0  0  0
    8.3392   -0.3807    0.0000 O   0  0  0  0  0  0  0  0  0  0  0  0
   -4.9960    1.5694    0.0000 N   0  3  3  0  0  0  0  0  0  0  0  0
    4.9961    1.6065    0.0000 N   0  3  3  0  0  0  0  0  0  0  0  0
   -5.7204    1.1607    0.0000 C   0  0  3  0  0  0  0  0  0  0  0  0
    5.7204    1.1979    0.0000 C   0  0  3  0  0  0  0  0  0  0  0  0
   -6.4262    1.5879    0.0000 C   0  0  0  0  0  0  0  0  0  0  0  0
    6.4262    1.6065    0.0000 C   0  0  0  0  0  0  0  0  0  0  0  0
   -6.4262    2.4051    0.0000 C   0  0  0  0  0  0  0  0  0  0  0  0
    6.4262    2.4237    0.0000 C   0  0  0  0  0  0  0  0  0  0  0  0
   -4.9960    2.4051    0.0000 C   0  0  0  0  0  0  0  0  0  0  0  0
    4.9961    2.4422    0.0000 C   0  0  0  0  0  0  0  0  0  0  0  0
   -7.1505    1.1793    0.0000 C   0  0  0  0  0  0  0  0  0  0  0  0
    7.1505    1.1979    0.0000 C   0  0  0  0  0  0  0  0  0  0  0  0
   -5.7018    2.8137    0.0000 C   0  0  0  0  0  0  0  0  0  0  0  0
    5.7204    2.8509    0.0000 C   0  0  0  0  0  0  0  0  0  0  0  0
   -5.7204    0.3435    0.0000 C   0  0  0  0  0  0  0  0  0  0  0  0
    5.7204    0.3807    0.0000 C   0  0  0  0  0  0  0  0  0  0  0  0
   -7.8563    1.5879    0.0000 C   0  0  0  0  0  0  0  0  0  0  0  0
    7.8563    1.6065    0.0000 C   0  0  0  0  0  0  0  0  0  0  0  0
   -7.1505    2.8323    0.0000 C   0  0  0  0  0  0  0  0  0  0  0  0
    7.1505    2.8509    0.0000 C   0  0  0  0  0  0  0  0  0  0  0  0
   -7.8563    2.4051    0.0000 C   0  0  0  0  0  0  0  0  0  0  0  0
    7.8563    2.4237    0.0000 C   0  0  0  0  0  0  0  0  0  0  0  0
   -4.2902    1.9965    0.0000 C   0  0  0  0  0  0  0  0  0  0  0  0
    4.2903    2.0151    0.0000 C   0  0  0  0  0  0  0  0  0  0  0  0
   -4.9960   -0.0649    0.0000 C   0  0  0  0  0  0  0  0  0  0  0  0
    4.9961   -0.0279    0.0000 C   0  0  0  0  0  0  0  0  0  0  0  0
    4.2903    1.1979    0.0000 C   0  0  0  0  0  0  0  0  0  0  0  0
   -4.2902    1.1793    0.0000 C   0  0  0  0  0  0  0  0  0  0  0  0
   -3.5659    1.5879    0.0000 C   0  0  0  0  0  0  0  0  0  0  0  0
    3.5660    1.6065    0.0000 C   0  0  0  0  0  0  0  0  0  0  0  0
   -4.2902    0.3622    0.0000 C   0  0  0  0  0  0  0  0  0  0  0  0
    4.2903    0.3807    0.0000 C   0  0  0  0  0  0  0  0  0  0  0  0
   -4.9960   -0.8822    0.0000 C   0  0  0  0  0  0  0  0  0  0  0  0
    4.9961   -0.8636    0.0000 C   0  0  0  0  0  0  0  0  0  0  0  0
   -3.5845   -0.0649    0.0000 C   0  0  0  0  0  0  0  0  0  0  0  0
    3.5660   -0.0464    0.0000 C   0  0  0  0  0  0  0  0  0  0  0  0
   -3.5659   -0.8822    0.0000 C   0  0  0  0  0  0  0  0  0  0  0  0
    3.5660   -0.8636    0.0000 C   0  0  0  0  0  0  0  0  0  0  0  0
   -2.8602    1.9965    0.0000 C   0  0  0  0  0  0  0  0  0  0  0  0
    2.8602    2.0151    0.0000 C   0  0  0  0  0  0  0  0  0  0  0  0
   -4.2902   -1.2908    0.0000 C   0  0  0  0  0  0  0  0  0  0  0  0
    4.2903   -1.2722    0.0000 C   0  0  0  0  0  0  0  0  0  0  0  0
   -9.2864    1.5879    0.0000 C   0  0  0  0  0  0  0  0  0  0  0  0
    9.2864    1.6065    0.0000 C   0  0  0  0  0  0  0  0  0  0  0  0
   -9.2864    2.4237    0.0000 C   0  0  0  0  0  0  0  0  0  0  0  0
    9.2864    2.4422    0.0000 C   0  0  0  0  0  0  0  0  0  0  0  0
   -1.4301    1.9965    0.0000 C   0  0  0  0  0  0  0  0  0  0  0  0
    1.4301    2.0151    0.0000 C   0  0  0  0  0  0  0  0  0  0  0  0
   -2.1544   -0.0464    0.0000 C   0  0  0  0  0  0  0  0  0  0  0  0
    2.1359   -0.0279    0.0000 C   0  0  0  0  0  0  0  0  0  0  0  0
   -2.1544   -0.8822    0.0000 C   0  0  0  0  0  0  0  0  0  0  0  0
    2.1359   -0.8636    0.0000 C   0  0  0  0  0  0  0  0  0  0  0  0
   -0.7057    1.5879    0.0000 C   0  0  0  0  0  0  0  0  0  0  0  0
    0.7057    1.5879    0.0000 C   0  0  0  0  0  0  0  0  0  0  0  0
    0.0000    2.0151    0.0000 C   0  0  0  0  0  0  0  0  0  0  0  0
   -7.3362   -1.1422    0.0000 C   0  0  0  0  0  0  0  0  0  0  0  0
    7.5035   -1.1979    0.0000 C   0  0  0  0  0  0  0  0  0  0  0  0
   -6.6304   -1.5694    0.0000 C   0  0  0  0  0  0  0  0  0  0  0  0
    8.2278   -1.6065    0.0000 C   0  0  0  0  0  0  0  0  0  0  0  0
   -8.0606   -1.5694    0.0000 C   0  0  0  0  0  0  0  0  0  0  0  0
    6.7977   -1.6065    0.0000 C   0  0  0  0  0  0  0  0  0  0  0  0
   -6.6304   -2.3866    0.0000 C   0  0  0  0  0  0  0  0  0  0  0  0
    8.2278   -2.4423    0.0000 C   0  0  0  0  0  0  0  0  0  0  0  0
   -8.0606   -2.3866    0.0000 C   0  0  0  0  0  0  0  0  0  0  0  0
    6.7977   -2.4423    0.0000 C   0  0  0  0  0  0  0  0  0  0  0  0
   -7.3362   -2.8137    0.0000 C   0  0  0  0  0  0  0  0  0  0  0  0
    7.5035   -2.8509    0.0000 C   0  0  0  0  0  0  0  0  0  0  0  0
   -5.7040    2.2306    0.0000 H   0  0  0  0  0  0  0  0  0  0  0  0
    5.7144    2.2679    0.0000 H   0  0  0  0  0  0  0  0  0  0  0  0
   -4.0690    2.9396    0.0000 H   0  0  0  0  0  0  0  0  0  0  0  0
   -4.9951    3.4751    0.0000 H   0  0  0  0  0  0  0  0  0  0  0  0
    4.0721    2.9818    0.0000 H   0  0  0  0  0  0  0  0  0  0  0  0
    5.0040    3.5122    0.0000 H   0  0  0  0  0  0  0  0  0  0  0  0
   -7.1563    0.1473    0.0000 H   0  0  0  0  0  0  0  0  0  0  0  0
    7.1563    0.1659    0.0000 H   0  0  0  0  0  0  0  0  0  0  0  0
   -5.6958    3.8837    0.0000 H   0  0  0  0  0  0  0  0  0  0  0  0
   -4.7733    3.3456    0.0000 H   0  0  0  0  0  0  0  0  0  0  0  0
    5.7367    3.9208    0.0000 H   0  0  0  0  0  0  0  0  0  0  0  0
    4.8006    3.3975    0.0000 H   0  0  0  0  0  0  0  0  0  0  0  0
   -6.6443   -0.1962    0.0000 H   0  0  0  0  0  0  0  0  0  0  0  0
   -5.7122   -0.7265    0.0000 H   0  0  0  0  0  0  0  0  0  0  0  0
    6.6444   -0.1589    0.0000 H   0  0  0  0  0  0  0  0  0  0  0  0
    5.7124   -0.6893    0.0000 H   0  0  0  0  0  0  0  0  0  0  0  0
   -7.1564    3.8643    0.0000 H   0  0  0  0  0  0  0  0  0  0  0  0
    7.1564    3.8829    0.0000 H   0  0  0  0  0  0  0  0  0  0  0  0
   -4.3065    3.0664    0.0000 H   0  0  0  0  0  0  0  0  0  0  0  0
   -3.3704    2.5432    0.0000 H   0  0  0  0  0  0  0  0  0  0  0  0
    4.2963    3.0851    0.0000 H   0  0  0  0  0  0  0  0  0  0  0  0
    3.3678    2.5573    0.0000 H   0  0  0  0  0  0  0  0  0  0  0  0
    3.3630    1.7318    0.0000 H   0  0  0  0  0  0  0  0  0  0  0  0
    4.2916    0.1279    0.0000 H   0  0  0  0  0  0  0  0  0  0  0  0
    3.3643    0.6618    0.0000 H   0  0  0  0  0  0  0  0  0  0  0  0
   -4.2702    0.1095    0.0000 H   0  0  0  0  0  0  0  0  0  0  0  0
   -3.3737    1.7315    0.0000 H   0  0  0  0  0  0  0  0  0  0  0  0
   -3.3537    0.6617    0.0000 H   0  0  0  0  0  0  0  0  0  0  0  0
   -3.5599    0.5179    0.0000 H   0  0  0  0  0  0  0  0  0  0  0  0
   -2.6374    1.0561    0.0000 H   0  0  0  0  0  0  0  0  0  0  0  0
    3.5600    0.5365    0.0000 H   0  0  0  0  0  0  0  0  0  0  0  0
    2.6376    1.0746    0.0000 H   0  0  0  0  0  0  0  0  0  0  0  0
   -4.2902    1.3942    0.0000 H   0  0  0  0  0  0  0  0  0  0  0  0
    4.2862    1.4127    0.0000 H   0  0  0  0  0  0  0  0  0  0  0  0
   -5.8900   -1.3977    0.0000 H   0  0  0  0  0  0  0  0  0  0  0  0
    5.8901   -1.3791    0.0000 H   0  0  0  0  0  0  0  0  0  0  0  0
   -4.2960   -2.3228    0.0000 H   0  0  0  0  0  0  0  0  0  0  0  0
    4.2961   -2.3042    0.0000 H   0  0  0  0  0  0  0  0  0  0  0  0
   -9.2851    2.6579    0.0000 H   0  0  0  0  0  0  0  0  0  0  0  0
  -10.2137    1.0540    0.0000 H   0  0  0  0  0  0  0  0  0  0  0  0
  -10.2124    2.1240    0.0000 H   0  0  0  0  0  0  0  0  0  0  0  0
   10.2137    1.0726    0.0000 H   0  0  0  0  0  0  0  0  0  0  0  0
    9.2851    2.6765    0.0000 H   0  0  0  0  0  0  0  0  0  0  0  0
   10.2124    2.1426    0.0000 H   0  0  0  0  0  0  0  0  0  0  0  0
  -10.2137    2.9576    0.0000 H   0  0  0  0  0  0  0  0  0  0  0  0
   -9.2851    1.3537    0.0000 H   0  0  0  0  0  0  0  0  0  0  0  0
  -10.2124    1.8876    0.0000 H   0  0  0  0  0  0  0  0  0  0  0  0
    9.2850    1.3722    0.0000 H   0  0  0  0  0  0  0  0  0  0  0  0
   10.2138    2.9760    0.0000 H   0  0  0  0  0  0  0  0  0  0  0  0
   10.2123    1.9060    0.0000 H   0  0  0  0  0  0  0  0  0  0  0  0
   -1.4361    3.0665    0.0000 H   0  0  0  0  0  0  0  0  0  0  0  0
   -0.5077    2.5387    0.0000 H   0  0  0  0  0  0  0  0  0  0  0  0
    1.4258    3.0851    0.0000 H   0  0  0  0  0  0  0  0  0  0  0  0
    0.4999    2.5439    0.0000 H   0  0  0  0  0  0  0  0  0  0  0  0
   -2.1557   -1.1164    0.0000 H   0  0  0  0  0  0  0  0  0  0  0  0
   -1.2271    0.4875    0.0000 H   0  0  0  0  0  0  0  0  0  0  0  0
   -1.2284   -0.5825    0.0000 H   0  0  0  0  0  0  0  0  0  0  0  0
    1.2086    0.5060    0.0000 H   0  0  0  0  0  0  0  0  0  0  0  0
    2.1372   -1.0979    0.0000 H   0  0  0  0  0  0  0  0  0  0  0  0
    1.2099   -0.5640    0.0000 H   0  0  0  0  0  0  0  0  0  0  0  0
   -1.2271   -1.4161    0.0000 H   0  0  0  0  0  0  0  0  0  0  0  0
   -2.1557    0.1878    0.0000 H   0  0  0  0  0  0  0  0  0  0  0  0
   -1.2284   -0.3461    0.0000 H   0  0  0  0  0  0  0  0  0  0  0  0
    2.1372    0.2064    0.0000 H   0  0  0  0  0  0  0  0  0  0  0  0
    1.2086   -1.3975    0.0000 H   0  0  0  0  0  0  0  0  0  0  0  0
    1.2099   -0.3275    0.0000 H   0  0  0  0  0  0  0  0  0  0  0  0
   -0.6892    0.5180    0.0000 H   0  0  0  0  0  0  0  0  0  0  0  0
    0.2305    1.0697    0.0000 H   0  0  0  0  0  0  0  0  0  0  0  0
    0.6995    0.5179    0.0000 H   0  0  0  0  0  0  0  0  0  0  0  0
   -0.2280    1.0652    0.0000 H   0  0  0  0  0  0  0  0  0  0  0  0
    0.0000    3.0851    0.0000 H   0  0  0  0  0  0  0  0  0  0  0  0
    0.9321    2.5405    0.0000 H   0  0  0  0  0  0  0  0  0  0  0  0
   -5.7314   -1.0627    0.0000 H   0  0  0  0  0  0  0  0  0  0  0  0
    9.1190   -1.0861    0.0000 H   0  0  0  0  0  0  0  0  0  0  0  0
   -8.9567   -1.0575    0.0000 H   0  0  0  0  0  0  0  0  0  0  0  0
    5.9037   -1.0910    0.0000 H   0  0  0  0  0  0  0  0  0  0  0  0
   -5.7314   -2.8934    0.0000 H   0  0  0  0  0  0  0  0  0  0  0  0
    9.1190   -2.9627    0.0000 H   0  0  0  0  0  0  0  0  0  0  0  0
   -8.9567   -2.8985    0.0000 H   0  0  0  0  0  0  0  0  0  0  0  0
    5.9037   -2.9578    0.0000 H   0  0  0  0  0  0  0  0  0  0  0  0
   -7.3303   -3.8457    0.0000 H   0  0  0  0  0  0  0  0  0  0  0  0
    7.4977   -3.8829    0.0000 H   0  0  0  0  0  0  0  0  0  0  0  0
  1 15  1  0  0  0  0
  1 17  2  0  0  0  0
  1 18  2  0  0  0  0
  1 76  1  0  0  0  0
  2 16  1  0  0  0  0
  2 19  2  0  0  0  0
  2 20  2  0  0  0  0
  2 77  1  0  0  0  0
  3 37  1  0  0  0  0
  3 63  1  0  0  0  0
  4 38  1  0  0  0  0
  4 64  1  0  0  0  0
  5 41  1  0  0  0  0
  5 65  1  0  0  0  0
  6 42  1  0  0  0  0
  6 66  1  0  0  0  0
  7 55  1  0  0  0  0
  7 69  1  0  0  0  0
  8 56  1  0  0  0  0
  8 70  1  0  0  0  0
  9 57  1  0  0  0  0
  9 71  1  0  0  0  0
 10 58  1  0  0  0  0
 10 72  1  0  0  0  0
 11 59  1  0  0  0  0
 11 67  1  0  0  0  0
 12 60  1  0  0  0  0
 12 68  1  0  0  0  0
 13 59  2  0  0  0  0
 14 60  2  0  0  0  0
 21 23  1  0  0  0  0
 21 29  1  0  0  0  0
 21 43  1  0  0  0  0
 21 48  1  0  0  0  0
 22 24  1  0  0  0  0
 22 30  1  0  0  0  0
 22 44  1  0  0  0  0
 22 47  1  0  0  0  0
 23 25  1  0  0  0  0
 23 35  1  0  0  0  0
 23 88  1  0  0  0  0
 24 26  1  0  0  0  0
 24 36  1  0  0  0  0
 24 89  1  0  0  0  0
 25 27  2  0  0  0  0
 25 31  1  0  0  0  0
 26 28  2  0  0  0  0
 26 32  1  0  0  0  0
 27 33  1  0  0  0  0
 27 39  1  0  0  0  0
 28 34  1  0  0  0  0
 28 40  1  0  0  0  0
 29 33  1  0  0  0  0
 29 90  1  0  0  0  0
 29 91  1  0  0  0  0
 30 34  1  0  0  0  0
 30 92  1  0  0  0  0
 30 93  1  0  0  0  0
 31 37  2  0  0  0  0
 31 94  1  0  0  0  0
 32 38  2  0  0  0  0
 32 95  1  0  0  0  0
 33 96  1  0  0  0  0
 33 97  1  0  0  0  0
 34 98  1  0  0  0  0
 34 99  1  0  0  0  0
 35 45  1  0  0  0  0
 35100  1  0  0  0  0
 35101  1  0  0  0  0
 36 46  1  0  0  0  0
 36102  1  0  0  0  0
 36103  1  0  0  0  0
 37 41  1  0  0  0  0
 38 42  1  0  0  0  0
 39 41  2  0  0  0  0
 39104  1  0  0  0  0
 40 42  2  0  0  0  0
 40105  1  0  0  0  0
 43 49  1  0  0  0  0
 43106  1  0  0  0  0
 43107  1  0  0  0  0
 44 50  1  0  0  0  0
 44108  1  0  0  0  0
 44109  1  0  0  0  0
 45 51  2  0  0  0  0
 45 53  1  0  0  0  0
 46 52  2  0  0  0  0
 46 54  1  0  0  0  0
 47110  1  0  0  0  0
 47111  1  0  0  0  0
 47112  1  0  0  0  0
 48113  1  0  0  0  0
 48114  1  0  0  0  0
 48115  1  0  0  0  0
 49 59  1  0  0  0  0
 49116  1  0  0  0  0
 49117  1  0  0  0  0
 50 60  1  0  0  0  0
 50118  1  0  0  0  0
 50119  1  0  0  0  0
 51 55  1  0  0  0  0
 51120  1  0  0  0  0
 52 56  1  0  0  0  0
 52121  1  0  0  0  0
 53 61  2  0  0  0  0
 53122  1  0  0  0  0
 54 62  2  0  0  0  0
 54123  1  0  0  0  0
 55 57  2  0  0  0  0
 56 58  2  0  0  0  0
 57 61  1  0  0  0  0
 58 62  1  0  0  0  0
 61124  1  0  0  0  0
 62125  1  0  0  0  0
 63126  1  0  0  0  0
 63127  1  0  0  0  0
 63128  1  0  0  0  0
 64129  1  0  0  0  0
 64130  1  0  0  0  0
 64131  1  0  0  0  0
 65132  1  0  0  0  0
 65133  1  0  0  0  0
 65134  1  0  0  0  0
 66135  1  0  0  0  0
 66136  1  0  0  0  0
 66137  1  0  0  0  0
 67 73  1  0  0  0  0
 67138  1  0  0  0  0
 67139  1  0  0  0  0
 68 74  1  0  0  0  0
 68140  1  0  0  0  0
 68141  1  0  0  0  0
 69142  1  0  0  0  0
 69143  1  0  0  0  0
 69144  1  0  0  0  0
 70145  1  0  0  0  0
 70146  1  0  0  0  0
 70147  1  0  0  0  0
 71148  1  0  0  0  0
 71149  1  0  0  0  0
 71150  1  0  0  0  0
 72151  1  0  0  0  0
 72152  1  0  0  0  0
 72153  1  0  0  0  0
 73 75  1  0  0  0  0
 73154  1  0  0  0  0
 73155  1  0  0  0  0
 74 75  1  0  0  0  0
 74156  1  0  0  0  0
 74157  1  0  0  0  0
 75158  1  0  0  0  0
 75159  1  0  0  0  0
 76 78  2  0  0  0  0
 76 80  1  0  0  0  0
 77 79  2  0  0  0  0
 77 81  1  0  0  0  0
 78 82  1  0  0  0  0
 78160  1  0  0  0  0
 79 83  1  0  0  0  0
 79161  1  0  0  0  0
 80 84  2  0  0  0  0
 80162  1  0  0  0  0
 81 85  2  0  0  0  0
 81163  1  0  0  0  0
 82 86  2  0  0  0  0
 82164  1  0  0  0  0
 83 87  2  0  0  0  0
 83165  1  0  0  0  0
 84 86  1  0  0  0  0
 84166  1  0  0  0  0
 85 87  1  0  0  0  0
 85167  1  0  0  0  0
 86168  1  0  0  0  0
 87169  1  0  0  0  0
M  CHG  4  15  -1  16  -1  21   1  22   1
M  END
>  <DRUGBANK_ID>
DB00732

>  <SECONDARY_ACCESSION_NUMBERS>
APRD00806

>  <COMMON_NAME>
Atracurium besylate

>  <CAS_NUMBER>
64228-81-5

>  <UNII>
40AX66P76P

>  <SYNONYMS>
Atracurium besilate; Atracurium besylate; Atracurium dibesylate; Besilate d'atracurium; Besilato de atracurio

$$$$
