
 OpenBabel10282417072D

 49 50  0  0  0  0  0  0  0  0999 V2000
    2.7875   -1.0125    0.0000 N   0  0  0  0  0  0  0  0  0  0  0  0
    2.0730   -0.6000    0.0000 C   0  0  0  0  0  0  0  0  0  0  0  0
    2.0730    0.2250    0.0000 O   0  0  0  0  0  0  0  0  0  0  0  0
    1.3586   -1.0125    0.0000 N   0  0  0  0  0  0  0  0  0  0  0  0
    0.6441   -0.6000    0.0000 C   0  0  0  0  0  0  0  0  0  0  0  0
   -0.0704   -1.0125    0.0000 C   0  0  0  0  0  0  0  0  0  0  0  0
   -0.7849   -0.6000    0.0000 S   0  0  0  0  0  0  0  0  0  0  0  0
   -1.4993   -1.0125    0.0000 C   0  0  0  0  0  0  0  0  0  0  0  0
   -2.9674   -0.9355    0.0000 O   0  0  0  0  0  0  0  0  0  0  0  0
   -2.2138   -0.6000    0.0000 C   0  0  0  0  0  0  0  0  0  0  0  0
   -2.3000    0.2205    0.0000 C   0  0  0  0  0  0  0  0  0  0  0  0
   -3.1070    0.3921    0.0000 C   0  0  0  0  0  0  0  0  0  0  0  0
   -3.5195   -0.3224    0.0000 C   0  0  0  0  0  0  0  0  0  0  0  0
   -4.3400   -0.4087    0.0000 C   0  0  0  0  0  0  0  0  0  0  0  0
   -4.8249    0.2587    0.0000 N   0  0  0  0  0  0  0  0  0  0  0  0
   -4.4893    1.0125    0.0000 C   0  0  0  0  0  0  0  0  0  0  0  0
   -5.6454    0.1724    0.0000 C   0  0  0  0  0  0  0  0  0  0  0  0
    3.5020   -0.6000    0.0000 C   0  0  0  0  0  0  0  0  0  0  0  0
    4.2164   -1.0125    0.0000 C   0  0  0  0  0  0  0  0  0  0  0  0
    4.9309   -0.6000    0.0000 C   0  0  0  0  0  0  0  0  0  0  0  0
    4.9309    0.2250    0.0000 C   0  0  0  0  0  0  0  0  0  0  0  0
    4.2164    0.6375    0.0000 C   0  0  0  0  0  0  0  0  0  0  0  0
    3.5020    0.2250    0.0000 C   0  0  0  0  0  0  0  0  0  0  0  0
    5.6454    0.6375    0.0000 C   0  0  0  0  0  0  0  0  0  0  0  0
    5.6454   -1.0125    0.0000 Cl  0  0  0  0  0  0  0  0  0  0  0  0
    2.7875   -1.9970    0.0000 H   0  0  0  0  0  0  0  0  0  0  0  0
    1.3586   -1.9970    0.0000 H   0  0  0  0  0  0  0  0  0  0  0  0
    0.6441    0.4700    0.0000 H   0  0  0  0  0  0  0  0  0  0  0  0
    1.5707   -0.0650    0.0000 H   0  0  0  0  0  0  0  0  0  0  0  0
   -0.0704   -2.0825    0.0000 H   0  0  0  0  0  0  0  0  0  0  0  0
   -0.9970   -1.5475    0.0000 H   0  0  0  0  0  0  0  0  0  0  0  0
   -1.4993   -2.0825    0.0000 H   0  0  0  0  0  0  0  0  0  0  0  0
   -0.5726   -1.5475    0.0000 H   0  0  0  0  0  0  0  0  0  0  0  0
   -1.5330    0.9110    0.0000 H   0  0  0  0  0  0  0  0  0  0  0  0
   -3.5267    1.3349    0.0000 H   0  0  0  0  0  0  0  0  0  0  0  0
   -4.7752   -1.3862    0.0000 H   0  0  0  0  0  0  0  0  0  0  0  0
   -3.7110   -1.2743    0.0000 H   0  0  0  0  0  0  0  0  0  0  0  0
   -3.4252    1.1244    0.0000 H   0  0  0  0  0  0  0  0  0  0  0  0
   -5.1182    1.8781    0.0000 H   0  0  0  0  0  0  0  0  0  0  0  0
   -4.0541    1.9900    0.0000 H   0  0  0  0  0  0  0  0  0  0  0  0
   -6.2744    1.0380    0.0000 H   0  0  0  0  0  0  0  0  0  0  0  0
   -6.0805   -0.8051    0.0000 H   0  0  0  0  0  0  0  0  0  0  0  0
   -6.7095    0.0605    0.0000 H   0  0  0  0  0  0  0  0  0  0  0  0
    4.2164   -2.0445    0.0000 H   0  0  0  0  0  0  0  0  0  0  0  0
    4.2164    1.6695    0.0000 H   0  0  0  0  0  0  0  0  0  0  0  0
    2.6083    0.7410    0.0000 H   0  0  0  0  0  0  0  0  0  0  0  0
    6.5720    0.1025    0.0000 H   0  0  0  0  0  0  0  0  0  0  0  0
    5.6454    1.7075    0.0000 H   0  0  0  0  0  0  0  0  0  0  0  0
    6.5721    1.1725    0.0000 H   0  0  0  0  0  0  0  0  0  0  0  0
  1  2  1  0  0  0  0
  1 18  1  0  0  0  0
  1 26  1  0  0  0  0
  2  3  2  0  0  0  0
  2  4  1  0  0  0  0
  4  5  1  0  0  0  0
  4 27  1  0  0  0  0
  5  6  1  0  0  0  0
  5 28  1  0  0  0  0
  5 29  1  0  0  0  0
  6  7  1  0  0  0  0
  6 30  1  0  0  0  0
  6 31  1  0  0  0  0
  7  8  1  0  0  0  0
  8 10  1  0  0  0  0
  8 32  1  0  0  0  0
  8 33  1  0  0  0  0
  9 10  1  0  0  0  0
  9 13  1  0  0  0  0
 10 11  2  0  0  0  0
 11 12  1  0  0  0  0
 11 34  1  0  0  0  0
 12 13  2  0  0  0  0
 12 35  1  0  0  0  0
 13 14  1  0  0  0  0
 14 15  1  0  0  0  0
 14 36  1  0  0  0  0
 14 37  1  0  0  0  0
 15 16  1  0  0  0  0
 15 17  1  0  0  0  0
 16 38  1  0  0  0  0
 16 39  1  0  0  0  0
 16 40  1  0  0  0  0
 17 41  1  0  0  0  0
 17 42  1  0  0  0  0
 17 43  1  0  0  0  0
 18 19  1  0  0  0  0
 18 23  2  0  0  0  0
 19 20  2  0  0  0  0
 19 44  1  0  0  0  0
 20 21  1  0  0  0  0
 20 25  1  0  0  0  0
 21 22  2  0  0  0  0
 21 24  1  0  0  0  0
 22 23  1  0  0  0  0
 22 45  1  0  0  0  0
 23 46  1  0  0  0  0
 24 47  1  0  0  0  0
 24 48  1  0  0  0  0
 24 49  1  0  0  0  0
M  END
>  <DRUGBANK_ID>
DB08027

>  <COMMON_NAME>
CAP-1

>  <CAS_NUMBER>
564475-13-4

>  <UNII>
X5U1W7S3VQ

$$$$
