
 OpenBabel10282417072D

 48 52  0  0  0  0  0  0  0  0999 V2000
   -2.7909    0.9078    0.0000 C   0  0  0  0  0  0  0  0  0  0  0  0
   -2.7895    0.0832    0.0000 N   0  0  0  0  0  0  0  0  0  0  0  0
   -3.5578   -0.2132    0.0000 N   0  0  0  0  0  0  0  0  0  0  0  0
   -4.0683    0.4867    0.0000 C   0  0  0  0  0  0  0  0  0  0  0  0
   -3.5443    1.1361    0.0000 N   0  0  0  0  0  0  0  0  0  0  0  0
   -2.0746   -0.3277    0.0000 C   0  0  0  0  0  0  0  0  0  0  0  0
   -1.3612    0.0858    0.0000 C   0  0  0  0  0  0  0  0  0  0  0  0
   -1.3627    0.9104    0.0000 C   0  0  0  0  0  0  0  0  0  0  0  0
   -2.0775    1.3215    0.0000 C   0  0  0  0  0  0  0  0  0  0  0  0
   -0.6482    1.3229    0.0000 C   0  0  0  0  0  0  0  0  0  0  0  0
   -0.5583   -0.3302    0.0000 N   0  0  0  0  0  0  0  0  0  0  0  0
    0.1366    0.1142    0.0000 C   0  0  0  0  0  0  0  0  0  0  0  0
    0.7927    1.3811    0.0000 C   0  0  0  0  0  0  0  0  0  0  0  0
    0.0993    0.9385    0.0000 N   0  0  0  0  0  0  0  0  0  0  0  0
    1.5254    1.0012    0.0000 C   0  0  0  0  0  0  0  0  0  0  0  0
    0.8722   -0.2670    0.0000 N   0  0  0  0  0  0  0  0  0  0  0  0
    1.5643    0.1813    0.0000 C   0  0  0  0  0  0  0  0  0  0  0  0
    2.2787    1.3367    0.0000 N   0  0  0  0  0  0  0  0  0  0  0  0
    2.8611    0.7544    0.0000 C   0  0  0  0  0  0  0  0  0  0  0  0
    2.4182    0.0097    0.0000 N   0  0  0  0  0  0  0  0  0  0  0  0
    2.4922    2.1337    0.0000 C   0  0  0  0  0  0  0  0  0  0  0  0
    3.6861    0.7544    0.0000 O   0  0  0  0  0  0  0  0  0  0  0  0
    2.8308   -0.7047    0.0000 C   0  0  0  0  0  0  0  0  0  0  0  0
    2.4182   -1.4192    0.0000 C   0  0  0  0  0  0  0  0  0  0  0  0
    2.8308   -2.1337    0.0000 C   0  0  0  0  0  0  0  0  0  0  0  0
    3.6557   -2.1336    0.0000 O   0  0  0  0  0  0  0  0  0  0  0  0
    4.0683   -1.4192    0.0000 C   0  0  0  0  0  0  0  0  0  0  0  0
    3.6558   -0.7047    0.0000 C   0  0  0  0  0  0  0  0  0  0  0  0
   -5.1000    0.5119    0.0000 H   0  0  0  0  0  0  0  0  0  0  0  0
   -2.0727   -1.3597    0.0000 H   0  0  0  0  0  0  0  0  0  0  0  0
   -2.0793    2.3535    0.0000 H   0  0  0  0  0  0  0  0  0  0  0  0
    0.2784    0.7879    0.0000 H   0  0  0  0  0  0  0  0  0  0  0  0
   -0.6482    2.3929    0.0000 H   0  0  0  0  0  0  0  0  0  0  0  0
    0.2785    1.8579    0.0000 H   0  0  0  0  0  0  0  0  0  0  0  0
   -0.5136   -1.3137    0.0000 H   0  0  0  0  0  0  0  0  0  0  0  0
    0.7464    2.4121    0.0000 H   0  0  0  0  0  0  0  0  0  0  0  0
    3.5257    2.4107    0.0000 H   0  0  0  0  0  0  0  0  0  0  0  0
    1.7355    2.8903    0.0000 H   0  0  0  0  0  0  0  0  0  0  0  0
    2.7691    3.1673    0.0000 H   0  0  0  0  0  0  0  0  0  0  0  0
    3.3658   -1.6314    0.0000 H   0  0  0  0  0  0  0  0  0  0  0  0
    1.3482   -1.4192    0.0000 H   0  0  0  0  0  0  0  0  0  0  0  0
    1.8832   -0.4925    0.0000 H   0  0  0  0  0  0  0  0  0  0  0  0
    2.2959   -3.0604    0.0000 H   0  0  0  0  0  0  0  0  0  0  0  0
    1.7608   -2.1338    0.0000 H   0  0  0  0  0  0  0  0  0  0  0  0
    5.1383   -1.4193    0.0000 H   0  0  0  0  0  0  0  0  0  0  0  0
    4.6032   -2.3459    0.0000 H   0  0  0  0  0  0  0  0  0  0  0  0
    4.1908    0.2219    0.0000 H   0  0  0  0  0  0  0  0  0  0  0  0
    3.1208    0.2219    0.0000 H   0  0  0  0  0  0  0  0  0  0  0  0
  1  2  1  0  0  0  0
  1  9  1  0  0  0  0
  2  3  1  0  0  0  0
  2  6  1  0  0  0  0
  3  4  2  0  0  0  0
  4  5  1  0  0  0  0
  4 29  1  0  0  0  0
  5  1  2  0  0  0  0
  6  7  2  0  0  0  0
  6 30  1  0  0  0  0
  7  8  1  0  0  0  0
  7 11  1  0  0  0  0
  8  9  2  0  0  0  0
  8 10  1  0  0  0  0
  9 31  1  0  0  0  0
 10 32  1  0  0  0  0
 10 33  1  0  0  0  0
 10 34  1  0  0  0  0
 11 12  1  0  0  0  0
 11 35  1  0  0  0  0
 12 16  1  0  0  0  0
 13 14  1  0  0  0  0
 13 36  1  0  0  0  0
 14 12  2  0  0  0  0
 15 13  2  0  0  0  0
 15 18  1  0  0  0  0
 16 17  2  0  0  0  0
 17 15  1  0  0  0  0
 18 19  1  0  0  0  0
 18 21  1  0  0  0  0
 19 20  1  0  0  0  0
 19 22  2  0  0  0  0
 20 17  1  0  0  0  0
 20 23  1  0  0  0  0
 21 37  1  0  0  0  0
 21 38  1  0  0  0  0
 21 39  1  0  0  0  0
 23 24  1  0  0  0  0
 23 40  1  0  0  0  0
 24 25  1  0  0  0  0
 24 41  1  0  0  0  0
 24 42  1  0  0  0  0
 25 26  1  0  0  0  0
 25 43  1  0  0  0  0
 25 44  1  0  0  0  0
 26 27  1  0  0  0  0
 27 28  1  0  0  0  0
 27 45  1  0  0  0  0
 27 46  1  0  0  0  0
 28 23  1  0  0  0  0
 28 47  1  0  0  0  0
 28 48  1  0  0  0  0
M  END
>  <DRUGBANK_ID>
DB16834

>  <COMMON_NAME>
AZD-7648

>  <CAS_NUMBER>
2230820-11-6

>  <UNII>
97A09L5JCK

>  <SYNONYMS>
AZD7648

$$$$
