IHI
 OpenBabel10282417072D

 56 60  0  0  0  0  0  0  0  0999 V2000
    3.2901   -0.6286    0.0000 C   0  0  0  0  0  0  0  0  0  0  0  0
    3.7750   -1.2960    0.0000 N   0  0  0  0  0  0  0  0  0  0  0  0
    4.5597   -1.0411    0.0000 C   0  0  0  0  0  0  0  0  0  0  0  0
    4.5597   -0.2161    0.0000 C   0  0  0  0  0  0  0  0  0  0  0  0
    3.7750    0.0389    0.0000 N   0  0  0  0  0  0  0  0  0  0  0  0
    5.2741   -1.4536    0.0000 C   0  0  0  0  0  0  0  0  0  0  0  0
    5.2741    0.1964    0.0000 N   0  0  0  0  0  0  0  0  0  0  0  0
    5.9886   -1.0411    0.0000 N   0  0  0  0  0  0  0  0  0  0  0  0
    5.9886   -0.2161    0.0000 C   0  0  0  0  0  0  0  0  0  0  0  0
    5.2741   -2.2786    0.0000 N   0  0  0  0  0  0  0  0  0  0  0  0
    3.5201    0.8235    0.0000 C   0  0  0  0  0  0  0  0  0  0  0  0
    2.7355    1.0784    0.0000 C   0  0  0  0  0  0  0  0  0  0  0  0
    2.7355    1.9034    0.0000 C   0  0  0  0  0  0  0  0  0  0  0  0
    3.5201    2.1584    0.0000 C   0  0  0  0  0  0  0  0  0  0  0  0
    4.0050    1.4909    0.0000 C   0  0  0  0  0  0  0  0  0  0  0  0
    7.4175    0.6089    0.0000 N   0  0  0  0  0  0  0  0  0  0  0  0
    5.9886   -2.6911    0.0000 C   0  0  0  0  0  0  0  0  0  0  0  0
    6.7031   -2.2786    0.0000 C   0  0  0  0  0  0  0  0  0  0  0  0
    7.4175   -2.6911    0.0000 C   0  0  0  0  0  0  0  0  0  0  0  0
    7.4175   -3.5161    0.0000 C   0  0  0  0  0  0  0  0  0  0  0  0
    6.7031   -3.9286    0.0000 C   0  0  0  0  0  0  0  0  0  0  0  0
    5.9886   -3.5161    0.0000 C   0  0  0  0  0  0  0  0  0  0  0  0
    5.2741   -3.9286    0.0000 O   0  0  0  0  0  0  0  0  0  0  0  0
    5.2741   -4.7536    0.0000 C   0  0  0  0  0  0  0  0  0  0  0  0
    6.7031    0.1964    0.0000 C   0  0  0  0  0  0  0  0  0  0  0  0
    4.5597   -5.1661    0.0000 C   0  0  0  0  0  0  0  0  0  0  0  0
    4.5597   -5.9911    0.0000 C   0  0  0  0  0  0  0  0  0  0  0  0
    3.8452   -6.4036    0.0000 N   0  0  0  0  0  0  0  0  0  0  0  0
    3.7590   -7.2241    0.0000 C   0  0  0  0  0  0  0  0  0  0  0  0
    2.9520   -7.3956    0.0000 N   0  0  0  0  0  0  0  0  0  0  0  0
    2.5395   -6.6811    0.0000 C   0  0  0  0  0  0  0  0  0  0  0  0
    3.0915   -6.0680    0.0000 C   0  0  0  0  0  0  0  0  0  0  0  0
    2.2581   -0.6286    0.0000 H   0  0  0  0  0  0  0  0  0  0  0  0
    4.4215   -2.7709    0.0000 H   0  0  0  0  0  0  0  0  0  0  0  0
    3.1894    1.8411    0.0000 H   0  0  0  0  0  0  0  0  0  0  0  0
    1.8699    0.4495    0.0000 H   0  0  0  0  0  0  0  0  0  0  0  0
    1.7821    1.5642    0.0000 H   0  0  0  0  0  0  0  0  0  0  0  0
    1.8698    2.5323    0.0000 H   0  0  0  0  0  0  0  0  0  0  0  0
    2.9028    2.9602    0.0000 H   0  0  0  0  0  0  0  0  0  0  0  0
    3.8507    3.1760    0.0000 H   0  0  0  0  0  0  0  0  0  0  0  0
    4.5769    2.3258    0.0000 H   0  0  0  0  0  0  0  0  0  0  0  0
    5.0750    1.4909    0.0000 H   0  0  0  0  0  0  0  0  0  0  0  0
    4.4908    2.4443    0.0000 H   0  0  0  0  0  0  0  0  0  0  0  0
    6.7031   -1.2466    0.0000 H   0  0  0  0  0  0  0  0  0  0  0  0
    8.3112   -2.1751    0.0000 H   0  0  0  0  0  0  0  0  0  0  0  0
    8.3112   -4.0321    0.0000 H   0  0  0  0  0  0  0  0  0  0  0  0
    6.7031   -4.9606    0.0000 H   0  0  0  0  0  0  0  0  0  0  0  0
    6.2008   -5.2886    0.0000 H   0  0  0  0  0  0  0  0  0  0  0  0
    5.2741   -5.8236    0.0000 H   0  0  0  0  0  0  0  0  0  0  0  0
    3.6330   -4.6311    0.0000 H   0  0  0  0  0  0  0  0  0  0  0  0
    3.6331   -5.7011    0.0000 H   0  0  0  0  0  0  0  0  0  0  0  0
    5.4863   -6.5261    0.0000 H   0  0  0  0  0  0  0  0  0  0  0  0
    4.5597   -7.0611    0.0000 H   0  0  0  0  0  0  0  0  0  0  0  0
    4.5259   -7.9146    0.0000 H   0  0  0  0  0  0  0  0  0  0  0  0
    1.5132   -6.5732    0.0000 H   0  0  0  0  0  0  0  0  0  0  0  0
    2.8769   -5.0586    0.0000 H   0  0  0  0  0  0  0  0  0  0  0  0
  1  2  2  0  0  0  0
  1  5  1  0  0  0  0
  1 33  1  0  0  0  0
  2  3  1  0  0  0  0
  3  4  2  0  0  0  0
  3  6  1  0  0  0  0
  4  5  1  0  0  0  0
  4  7  1  0  0  0  0
  5 11  1  0  0  0  0
  6  8  2  0  0  0  0
  6 10  1  0  0  0  0
  7  9  2  0  0  0  0
  8  9  1  0  0  0  0
  9 25  1  0  0  0  0
 10 17  1  0  0  0  0
 10 34  1  0  0  0  0
 11 12  1  0  0  0  0
 11 15  1  0  0  0  0
 11 35  1  0  0  0  0
 12 13  1  0  0  0  0
 12 36  1  0  0  0  0
 12 37  1  0  0  0  0
 13 14  1  0  0  0  0
 13 38  1  0  0  0  0
 13 39  1  0  0  0  0
 14 15  1  0  0  0  0
 14 40  1  0  0  0  0
 14 41  1  0  0  0  0
 15 42  1  0  0  0  0
 15 43  1  0  0  0  0
 16 25  3  0  0  0  0
 17 18  2  0  0  0  0
 17 22  1  0  0  0  0
 18 19  1  0  0  0  0
 18 44  1  0  0  0  0
 19 20  2  0  0  0  0
 19 45  1  0  0  0  0
 20 21  1  0  0  0  0
 20 46  1  0  0  0  0
 21 22  2  0  0  0  0
 21 47  1  0  0  0  0
 22 23  1  0  0  0  0
 23 24  1  0  0  0  0
 24 26  1  0  0  0  0
 24 48  1  0  0  0  0
 24 49  1  0  0  0  0
 26 27  1  0  0  0  0
 26 50  1  0  0  0  0
 26 51  1  0  0  0  0
 27 28  1  0  0  0  0
 27 52  1  0  0  0  0
 27 53  1  0  0  0  0
 28 29  1  0  0  0  0
 28 32  1  0  0  0  0
 29 30  2  0  0  0  0
 29 54  1  0  0  0  0
 30 31  1  0  0  0  0
 31 32  2  0  0  0  0
 31 55  1  0  0  0  0
 32 56  1  0  0  0  0
M  END
>  <DRUGBANK_ID>
DB07967

>  <COMMON_NAME>
9-CYCLOPENTYL-6-[2-(3-IMIDAZOL-1-YL-PROPOXY)-PHENYLAMINO]-9H-PURINE-2-CARBONITRILE

$$$$
