
 OpenBabel10282417072D

 61 64  0  0  0  0  0  0  0  0999 V2000
    0.6893    1.0374    0.0000 C   0  0  1  0  0  0  0  0  0  0  0  0
    1.4037    1.4514    0.0000 C   0  0  0  0  0  0  0  0  0  0  0  0
    1.4037    0.6262    0.0000 C   0  0  0  0  0  0  0  0  0  0  0  0
    1.4007   -0.1988    0.0000 O   0  0  0  0  0  0  0  0  0  0  0  0
    2.1190    1.0368    0.0000 C   0  0  0  0  0  0  0  0  0  0  0  0
    2.8329    1.4501    0.0000 C   0  0  0  0  0  0  0  0  0  0  0  0
    2.8319    2.2768    0.0000 C   0  0  0  0  0  0  0  0  0  0  0  0
    2.1111    2.6881    0.0000 C   0  0  0  0  0  0  0  0  0  0  0  0
    1.4002    2.2725    0.0000 C   0  0  0  0  0  0  0  0  0  0  0  0
   -2.0063    3.2828    0.0000 C   0  0  0  0  0  0  0  0  0  0  0  0
   -1.6073    2.5588    0.0000 C   0  0  0  0  0  0  0  0  0  0  0  0
   -0.7827    2.5410    0.0000 C   0  0  0  0  0  0  0  0  0  0  0  0
   -0.3556    3.2507    0.0000 C   0  0  0  0  0  0  0  0  0  0  0  0
   -0.7582    3.9754    0.0000 C   0  0  0  0  0  0  0  0  0  0  0  0
   -1.5830    3.9868    0.0000 C   0  0  0  0  0  0  0  0  0  0  0  0
   -2.8329    3.2854    0.0000 F   0  0  0  0  0  0  0  0  0  0  0  0
    0.4694    3.2363    0.0000 F   0  0  0  0  0  0  0  0  0  0  0  0
   -0.3846    1.8183    0.0000 C   0  0  0  0  0  0  0  0  0  0  0  0
   -0.6868   -1.5110    0.0000 C   0  0  2  0  0  0  0  0  0  0  0  0
   -1.4041   -1.9221    0.0000 C   0  0  1  0  0  0  0  0  0  0  0  0
   -1.4067   -2.7443    0.0000 C   0  0  0  0  0  0  0  0  0  0  0  0
   -0.6937   -3.1615    0.0000 N   0  0  0  0  0  0  0  0  0  0  0  0
    0.0235   -2.7505    0.0000 C   0  0  0  0  0  0  0  0  0  0  0  0
    0.0278   -1.9220    0.0000 C   0  0  0  0  0  0  0  0  0  0  0  0
   -2.1175   -1.5073    0.0000 F   0  0  0  0  0  0  0  0  0  0  0  0
   -0.6974   -3.9868    0.0000 C   0  0  0  0  0  0  0  0  0  0  0  0
   -0.6868   -0.6858    0.0000 N   0  0  0  0  0  0  0  0  0  0  0  0
    0.0274   -0.2746    0.0000 C   0  0  0  0  0  0  0  0  0  0  0  0
    0.0274    0.5475    0.0000 N   0  0  0  0  0  0  0  0  0  0  0  0
   -1.4011   -0.2726    0.0000 C   0  0  0  0  0  0  0  0  0  0  0  0
    0.7417   -0.6877    0.0000 O   0  0  0  0  0  0  0  0  0  0  0  0
    0.4358    1.8165    0.0000 C   0  0  0  0  0  0  0  0  0  0  0  0
   -0.6404    1.0345    0.0000 C   0  0  0  0  0  0  0  0  0  0  0  0
    2.3310    1.1601    0.0000 H   0  0  0  0  0  0  0  0  0  0  0  0
    2.3291    0.0890    0.0000 H   0  0  0  0  0  0  0  0  0  0  0  0
    0.5589   -0.6807    0.0000 H   0  0  0  0  0  0  0  0  0  0  0  0
    2.1187    0.0048    0.0000 H   0  0  0  0  0  0  0  0  0  0  0  0
    3.7273    0.9352    0.0000 H   0  0  0  0  0  0  0  0  0  0  0  0
    3.7240    2.7956    0.0000 H   0  0  0  0  0  0  0  0  0  0  0  0
    2.1057    3.7201    0.0000 H   0  0  0  0  0  0  0  0  0  0  0  0
    0.5040    2.7842    0.0000 H   0  0  0  0  0  0  0  0  0  0  0  0
   -2.1417    1.6760    0.0000 H   0  0  0  0  0  0  0  0  0  0  0  0
   -0.2287    4.8612    0.0000 H   0  0  0  0  0  0  0  0  0  0  0  0
   -2.0848    4.8886    0.0000 H   0  0  0  0  0  0  0  0  0  0  0  0
   -1.6126   -0.9745    0.0000 H   0  0  0  0  0  0  0  0  0  0  0  0
   -2.3324   -2.4542    0.0000 H   0  0  0  0  0  0  0  0  0  0  0  0
   -2.3357   -3.2751    0.0000 H   0  0  0  0  0  0  0  0  0  0  0  0
   -1.4122   -3.8143    0.0000 H   0  0  0  0  0  0  0  0  0  0  0  0
    0.9479   -3.2894    0.0000 H   0  0  0  0  0  0  0  0  0  0  0  0
    0.9527   -2.2199    0.0000 H   0  0  0  0  0  0  0  0  0  0  0  0
    0.9554   -1.3886    0.0000 H   0  0  0  0  0  0  0  0  0  0  0  0
    0.0279   -0.8520    0.0000 H   0  0  0  0  0  0  0  0  0  0  0  0
   -1.6264   -4.5176    0.0000 H   0  0  0  0  0  0  0  0  0  0  0  0
    0.2268   -4.5259    0.0000 H   0  0  0  0  0  0  0  0  0  0  0  0
   -0.7022   -5.0568    0.0000 H   0  0  0  0  0  0  0  0  0  0  0  0
   -1.4002    0.7974    0.0000 H   0  0  0  0  0  0  0  0  0  0  0  0
   -2.3282   -0.8068    0.0000 H   0  0  0  0  0  0  0  0  0  0  0  0
   -2.3273    0.2632    0.0000 H   0  0  0  0  0  0  0  0  0  0  0  0
    1.0431    2.6509    0.0000 H   0  0  0  0  0  0  0  0  0  0  0  0
   -1.6585    0.7054    0.0000 H   0  0  0  0  0  0  0  0  0  0  0  0
   -0.8095   -0.0220    0.0000 H   0  0  0  0  0  0  0  0  0  0  0  0
  1  3  1  6  0  0  0
  1  2  1  0  0  0  0
  1 32  1  0  0  0  0
  2  5  2  0  0  0  0
  3  4  1  0  0  0  0
  3 34  1  0  0  0  0
  3 35  1  0  0  0  0
  4 36  1  0  0  0  0
  5  6  1  0  0  0  0
  5 37  1  0  0  0  0
  6  7  2  0  0  0  0
  6 38  1  0  0  0  0
  7  8  1  0  0  0  0
  7 39  1  0  0  0  0
  8  9  2  0  0  0  0
  8 40  1  0  0  0  0
  9  2  1  0  0  0  0
  9 41  1  0  0  0  0
 10 11  2  0  0  0  0
 10 16  1  0  0  0  0
 11 12  1  0  0  0  0
 11 42  1  0  0  0  0
 12 18  1  0  0  0  0
 12 13  2  0  0  0  0
 13 14  1  0  0  0  0
 13 17  1  0  0  0  0
 14 15  2  0  0  0  0
 14 43  1  0  0  0  0
 15 10  1  0  0  0  0
 15 44  1  0  0  0  0
 18 33  1  0  0  0  0
 19 20  1  0  0  0  0
 19 24  1  0  0  0  0
 19 27  1  0  0  0  0
 19 45  1  6  0  0  0
 20 21  1  0  0  0  0
 20 25  1  0  0  0  0
 20 46  1  6  0  0  0
 21 22  1  0  0  0  0
 21 47  1  0  0  0  0
 21 48  1  0  0  0  0
 22 23  1  0  0  0  0
 22 26  1  0  0  0  0
 23 24  1  0  0  0  0
 23 49  1  0  0  0  0
 23 50  1  0  0  0  0
 24 51  1  0  0  0  0
 24 52  1  0  0  0  0
 26 53  1  0  0  0  0
 26 54  1  0  0  0  0
 26 55  1  0  0  0  0
 27 28  1  0  0  0  0
 27 30  1  0  0  0  0
 28 29  1  0  0  0  0
 28 31  2  0  0  0  0
 29  1  1  0  0  0  0
 30 56  1  0  0  0  0
 30 57  1  0  0  0  0
 30 58  1  0  0  0  0
 32 18  2  0  0  0  0
 32 59  1  0  0  0  0
 33 29  1  0  0  0  0
 33 60  1  0  0  0  0
 33 61  1  0  0  0  0
M  END
>  <DRUGBANK_ID>
DB08037

>  <COMMON_NAME>
MK-0731

>  <CAS_NUMBER>
845256-65-7

>  <UNII>
8HIJ5G3O02

$$$$
