
 OpenBabel10282417072D

 51 54  0  0  0  0  0  0  0  0999 V2000
   -1.4756    4.9837    0.0000 C   0  0  0  0  0  0  0  0  0  0  0  0
   -0.9907    4.3163    0.0000 C   0  0  0  0  0  0  0  0  0  0  0  0
   -1.3262    3.5626    0.0000 C   0  0  0  0  0  0  0  0  0  0  0  0
   -0.1702    4.4025    0.0000 N   0  0  0  0  0  0  0  0  0  0  0  0
    0.2423    5.1170    0.0000 C   0  0  0  0  0  0  0  0  0  0  0  0
    1.0493    4.9455    0.0000 C   0  0  0  0  0  0  0  0  0  0  0  0
    1.1355    4.1250    0.0000 C   0  0  0  0  0  0  0  0  0  0  0  0
    0.3818    3.7894    0.0000 N   0  0  0  0  0  0  0  0  0  0  0  0
    1.8500    3.7125    0.0000 S   0  0  0  0  0  0  0  0  0  0  0  0
    1.4375    2.9980    0.0000 O   0  0  0  0  0  0  0  0  0  0  0  0
    2.2625    4.4270    0.0000 O   0  0  0  0  0  0  0  0  0  0  0  0
    2.5645    3.3000    0.0000 N   0  0  0  0  0  0  0  0  0  0  0  0
    2.5645    2.4750    0.0000 C   0  0  0  0  0  0  0  0  0  0  0  0
    1.8500    2.0625    0.0000 O   0  0  0  0  0  0  0  0  0  0  0  0
    3.2789    2.0625    0.0000 N   0  0  0  0  0  0  0  0  0  0  0  0
    3.2789    1.2375    0.0000 C   0  0  0  0  0  0  0  0  0  0  0  0
    3.9934    0.8250    0.0000 C   0  0  0  0  0  0  0  0  0  0  0  0
    4.7780    1.0799    0.0000 C   0  0  0  0  0  0  0  0  0  0  0  0
    5.2629    0.4125    0.0000 C   0  0  0  0  0  0  0  0  0  0  0  0
    4.7780   -0.2549    0.0000 C   0  0  0  0  0  0  0  0  0  0  0  0
    3.9934    0.0000    0.0000 C   0  0  0  0  0  0  0  0  0  0  0  0
    3.2789   -0.4125    0.0000 C   0  0  0  0  0  0  0  0  0  0  0  0
    2.5645    0.0000    0.0000 C   0  0  0  0  0  0  0  0  0  0  0  0
    1.7798   -0.2549    0.0000 C   0  0  0  0  0  0  0  0  0  0  0  0
    1.2949    0.4125    0.0000 C   0  0  0  0  0  0  0  0  0  0  0  0
    1.7798    1.0799    0.0000 C   0  0  0  0  0  0  0  0  0  0  0  0
    2.5645    0.8250    0.0000 C   0  0  0  0  0  0  0  0  0  0  0  0
   -1.0404    5.9612    0.0000 H   0  0  0  0  0  0  0  0  0  0  0  0
   -2.5397    4.8718    0.0000 H   0  0  0  0  0  0  0  0  0  0  0  0
   -2.1045    5.8493    0.0000 H   0  0  0  0  0  0  0  0  0  0  0  0
   -0.3618    3.4507    0.0000 H   0  0  0  0  0  0  0  0  0  0  0  0
   -2.3903    3.4507    0.0000 H   0  0  0  0  0  0  0  0  0  0  0  0
   -0.6972    2.6970    0.0000 H   0  0  0  0  0  0  0  0  0  0  0  0
   -1.7613    2.5851    0.0000 H   0  0  0  0  0  0  0  0  0  0  0  0
   -0.1775    6.0598    0.0000 H   0  0  0  0  0  0  0  0  0  0  0  0
    1.8162    5.6360    0.0000 H   0  0  0  0  0  0  0  0  0  0  0  0
    3.4171    3.7923    0.0000 H   0  0  0  0  0  0  0  0  0  0  0  0
    4.1315    2.5547    0.0000 H   0  0  0  0  0  0  0  0  0  0  0  0
    5.1087    2.0975    0.0000 H   0  0  0  0  0  0  0  0  0  0  0  0
    5.8348    1.2473    0.0000 H   0  0  0  0  0  0  0  0  0  0  0  0
    6.3329    0.4125    0.0000 H   0  0  0  0  0  0  0  0  0  0  0  0
    5.7487   -0.5409    0.0000 H   0  0  0  0  0  0  0  0  0  0  0  0
    5.1087   -1.2725    0.0000 H   0  0  0  0  0  0  0  0  0  0  0  0
    4.0214   -1.0115    0.0000 H   0  0  0  0  0  0  0  0  0  0  0  0
    3.2789   -1.4445    0.0000 H   0  0  0  0  0  0  0  0  0  0  0  0
    1.4491   -1.2725    0.0000 H   0  0  0  0  0  0  0  0  0  0  0  0
    0.7230   -0.4223    0.0000 H   0  0  0  0  0  0  0  0  0  0  0  0
    0.2249    0.4125    0.0000 H   0  0  0  0  0  0  0  0  0  0  0  0
    0.8091    1.3659    0.0000 H   0  0  0  0  0  0  0  0  0  0  0  0
    1.4491    2.0975    0.0000 H   0  0  0  0  0  0  0  0  0  0  0  0
    2.5364    1.8365    0.0000 H   0  0  0  0  0  0  0  0  0  0  0  0
  1  2  1  0  0  0  0
  1 28  1  0  0  0  0
  1 29  1  0  0  0  0
  1 30  1  0  0  0  0
  2  3  1  0  0  0  0
  2  4  1  0  0  0  0
  2 31  1  0  0  0  0
  3 32  1  0  0  0  0
  3 33  1  0  0  0  0
  3 34  1  0  0  0  0
  4  5  1  0  0  0  0
  4  8  1  0  0  0  0
  5  6  2  0  0  0  0
  5 35  1  0  0  0  0
  6  7  1  0  0  0  0
  6 36  1  0  0  0  0
  7  8  2  0  0  0  0
  7  9  1  0  0  0  0
  9 10  2  0  0  0  0
  9 11  2  0  0  0  0
  9 12  1  0  0  0  0
 12 13  1  0  0  0  0
 12 37  1  0  0  0  0
 13 14  2  0  0  0  0
 13 15  1  0  0  0  0
 15 16  1  0  0  0  0
 15 38  1  0  0  0  0
 16 17  2  0  0  0  0
 16 27  1  0  0  0  0
 17 18  1  0  0  0  0
 17 21  1  0  0  0  0
 18 19  1  0  0  0  0
 18 39  1  0  0  0  0
 18 40  1  0  0  0  0
 19 20  1  0  0  0  0
 19 41  1  0  0  0  0
 19 42  1  0  0  0  0
 20 21  1  0  0  0  0
 20 43  1  0  0  0  0
 20 44  1  0  0  0  0
 21 22  2  0  0  0  0
 22 23  1  0  0  0  0
 22 45  1  0  0  0  0
 23 24  1  0  0  0  0
 23 27  2  0  0  0  0
 24 25  1  0  0  0  0
 24 46  1  0  0  0  0
 24 47  1  0  0  0  0
 25 26  1  0  0  0  0
 25 48  1  0  0  0  0
 25 49  1  0  0  0  0
 26 27  1  0  0  0  0
 26 50  1  0  0  0  0
 26 51  1  0  0  0  0
M  END
>  <DRUGBANK_ID>
DB18304

>  <COMMON_NAME>
Emlenoflast

>  <CAS_NUMBER>
1995067-59-8

>  <UNII>
SC4RYG0M76

>  <SYNONYMS>
1h-pyrazole-3-sulfonamide, n-(((1,2,3,5,6,7-hexahydro-s-indacen-4-yl)amino)carbonyl)-1-(1-methylethyl)-; Inzomelid; N-[[(1,2,3,5,6,7-HEXAHYDRO-S-INDACEN-4-YL) AMINO]CARBONYL]-1-(1-METHYLETHYL)-1H-PYRAZOLE-3-SULFONAMIDE

$$$$
