
 OpenBabel10282417072D

 46 46  0  0  0  0  0  0  0  0999 V2000
   -0.3535    1.2416    0.0000 O   0  0  0  0  0  0  0  0  0  0  0  0
    0.3614   -0.8251    0.0000 O   0  0  0  0  0  0  0  0  0  0  0  0
    1.0686   -1.2337    0.0000 O   0  0  0  0  0  0  0  0  0  0  0  0
    2.4989   -1.2416    0.0000 O   0  0  0  0  0  0  0  0  0  0  0  0
    1.0765    0.4085    0.0000 N   0  0  0  0  0  0  0  0  0  0  0  0
   -1.0686   -0.8172    0.0000 N   0  0  0  0  0  0  0  0  0  0  0  0
    2.4989    0.4085    0.0000 C   0  0  0  0  0  0  0  0  0  0  0  0
    3.2140   -0.0078    0.0000 C   0  0  0  0  0  0  0  0  0  0  0  0
    1.7838    0.0000    0.0000 C   0  0  1  0  0  0  0  0  0  0  0  0
   -1.0686    0.0078    0.0000 C   0  0  1  0  0  0  0  0  0  0  0  0
   -0.3535    0.4165    0.0000 C   0  0  1  0  0  0  0  0  0  0  0  0
   -1.7838    0.4165    0.0000 C   0  0  0  0  0  0  0  0  0  0  0  0
    0.3614    0.0000    0.0000 C   0  0  0  0  0  0  0  0  0  0  0  0
    3.9291    0.4006    0.0000 C   0  0  0  0  0  0  0  0  0  0  0  0
    3.2140   -0.8329    0.0000 C   0  0  0  0  0  0  0  0  0  0  0  0
   -2.4989    0.0078    0.0000 C   0  0  0  0  0  0  0  0  0  0  0  0
    1.7838   -0.8251    0.0000 C   0  0  0  0  0  0  0  0  0  0  0  0
   -2.4989   -0.8172    0.0000 C   0  0  0  0  0  0  0  0  0  0  0  0
   -3.2139    0.4322    0.0000 C   0  0  0  0  0  0  0  0  0  0  0  0
   -3.2139   -1.2258    0.0000 C   0  0  0  0  0  0  0  0  0  0  0  0
   -3.9291    0.0078    0.0000 C   0  0  0  0  0  0  0  0  0  0  0  0
   -3.9291   -0.8172    0.0000 C   0  0  0  0  0  0  0  0  0  0  0  0
    0.4865    1.7266    0.0000 H   0  0  0  0  0  0  0  0  0  0  0  0
    0.2593   -0.7615    0.0000 H   0  0  0  0  0  0  0  0  0  0  0  0
    1.0788    1.3930    0.0000 H   0  0  0  0  0  0  0  0  0  0  0  0
   -1.9519   -1.3272    0.0000 H   0  0  0  0  0  0  0  0  0  0  0  0
   -0.1853   -1.3272    0.0000 H   0  0  0  0  0  0  0  0  0  0  0  0
    2.5033    1.4785    0.0000 H   0  0  0  0  0  0  0  0  0  0  0  0
    1.5746    0.9475    0.0000 H   0  0  0  0  0  0  0  0  0  0  0  0
    4.1394   -0.5450    0.0000 H   0  0  0  0  0  0  0  0  0  0  0  0
    1.7863    1.0700    0.0000 H   0  0  0  0  0  0  0  0  0  0  0  0
   -0.1431   -0.5292    0.0000 H   0  0  0  0  0  0  0  0  0  0  0  0
   -1.2790    0.9535    0.0000 H   0  0  0  0  0  0  0  0  0  0  0  0
   -1.7838    1.4865    0.0000 H   0  0  0  0  0  0  0  0  0  0  0  0
   -2.7093    0.9535    0.0000 H   0  0  0  0  0  0  0  0  0  0  0  0
    4.8532   -0.1387    0.0000 H   0  0  0  0  0  0  0  0  0  0  0  0
    3.9341    1.4706    0.0000 H   0  0  0  0  0  0  0  0  0  0  0  0
    4.8582    0.9312    0.0000 H   0  0  0  0  0  0  0  0  0  0  0  0
    2.2874   -1.3679    0.0000 H   0  0  0  0  0  0  0  0  0  0  0  0
    4.1406   -1.3679    0.0000 H   0  0  0  0  0  0  0  0  0  0  0  0
    3.2140   -1.9029    0.0000 H   0  0  0  0  0  0  0  0  0  0  0  0
   -1.6063   -1.3352    0.0000 H   0  0  0  0  0  0  0  0  0  0  0  0
   -3.2138    1.4642    0.0000 H   0  0  0  0  0  0  0  0  0  0  0  0
   -3.2138   -2.2578    0.0000 H   0  0  0  0  0  0  0  0  0  0  0  0
   -4.8259    0.5184    0.0000 H   0  0  0  0  0  0  0  0  0  0  0  0
   -4.8217   -1.3352    0.0000 H   0  0  0  0  0  0  0  0  0  0  0  0
  1 23  1  0  0  0  0
  2 13  2  0  0  0  0
  3 17  1  0  0  0  0
  3 24  1  0  0  0  0
  4 17  2  0  0  0  0
  5  9  1  0  0  0  0
  5 13  1  0  0  0  0
  5 25  1  0  0  0  0
  6 26  1  0  0  0  0
  6 27  1  0  0  0  0
  7  8  1  0  0  0  0
  7 28  1  0  0  0  0
  7 29  1  0  0  0  0
  8 14  1  0  0  0  0
  8 15  1  0  0  0  0
  8 30  1  0  0  0  0
  9  7  1  0  0  0  0
  9 17  1  0  0  0  0
  9 31  1  6  0  0  0
 10  6  1  0  0  0  0
 10 11  1  0  0  0  0
 10 12  1  0  0  0  0
 10 32  1  1  0  0  0
 11  1  1  0  0  0  0
 11 13  1  0  0  0  0
 11 33  1  1  0  0  0
 12 16  1  0  0  0  0
 12 34  1  0  0  0  0
 12 35  1  0  0  0  0
 14 36  1  0  0  0  0
 14 37  1  0  0  0  0
 14 38  1  0  0  0  0
 15 39  1  0  0  0  0
 15 40  1  0  0  0  0
 15 41  1  0  0  0  0
 16 18  2  0  0  0  0
 16 19  1  0  0  0  0
 18 20  1  0  0  0  0
 18 42  1  0  0  0  0
 19 21  2  0  0  0  0
 19 43  1  0  0  0  0
 20 22  2  0  0  0  0
 20 44  1  0  0  0  0
 21 22  1  0  0  0  0
 21 45  1  0  0  0  0
 22 46  1  0  0  0  0
M  END
>  <DRUGBANK_ID>
DB03424

>  <SECONDARY_ACCESSION_NUMBERS>
EXPT00673

>  <COMMON_NAME>
Ubenimex

>  <CAS_NUMBER>
58970-76-6

>  <UNII>
I0J33N5627

>  <SYNONYMS>
Ubenimex; Ubenimexum

$$$$
