1255
 OpenBabel10282417072D

 44 44  0  0  0  0  0  0  0  0999 V2000
   -0.8608   -0.5948    0.0000 C   0  0  0  0  0  0  0  0  0  0  0  0
   -1.5748   -1.0081    0.0000 C   0  0  0  0  0  0  0  0  0  0  0  0
   -2.2898   -0.5965    0.0000 C   0  0  0  0  0  0  0  0  0  0  0  0
   -2.2907    0.2285    0.0000 C   0  0  0  0  0  0  0  0  0  0  0  0
   -1.5768    0.6419    0.0000 C   0  0  0  0  0  0  0  0  0  0  0  0
   -0.8618    0.2302    0.0000 C   0  0  0  0  0  0  0  0  0  0  0  0
   -0.1478    0.6436    0.0000 C   0  0  0  0  0  0  0  0  0  0  0  0
    0.5671    0.2319    0.0000 C   0  0  1  0  0  0  0  0  0  0  0  0
    1.2811    0.6453    0.0000 N   0  0  0  0  0  0  0  0  0  0  0  0
    1.9961    0.2336    0.0000 C   0  0  0  0  0  0  0  0  0  0  0  0
    2.7101    0.6470    0.0000 C   0  0  2  0  0  0  0  0  0  0  0  0
    3.4250    0.2353    0.0000 C   0  0  0  0  0  0  0  0  0  0  0  0
    4.1390    0.6487    0.0000 C   0  0  0  0  0  0  0  0  0  0  0  0
    4.8540    0.2370    0.0000 C   0  0  0  0  0  0  0  0  0  0  0  0
    5.5679    0.6504    0.0000 C   0  0  0  0  0  0  0  0  0  0  0  0
    0.5681   -0.5931    0.0000 C   0  0  0  0  0  0  0  0  0  0  0  0
    1.9971   -0.5914    0.0000 O   0  0  0  0  0  0  0  0  0  0  0  0
    2.7091    1.4720    0.0000 N   0  0  0  0  0  0  0  0  0  0  0  0
    6.2829    0.2387    0.0000 N   0  0  0  0  0  0  0  0  0  0  0  0
    0.0335   -1.1098    0.0000 H   0  0  0  0  0  0  0  0  0  0  0  0
   -1.5736   -2.0401    0.0000 H   0  0  0  0  0  0  0  0  0  0  0  0
   -3.1829   -1.1136    0.0000 H   0  0  0  0  0  0  0  0  0  0  0  0
   -3.1851    0.7434    0.0000 H   0  0  0  0  0  0  0  0  0  0  0  0
   -1.5781    1.6739    0.0000 H   0  0  0  0  0  0  0  0  0  0  0  0
   -0.1490    1.7136    0.0000 H   0  0  0  0  0  0  0  0  0  0  0  0
    0.7782    1.1796    0.0000 H   0  0  0  0  0  0  0  0  0  0  0  0
   -0.3589   -0.3042    0.0000 H   0  0  0  0  0  0  0  0  0  0  0  0
    1.2799    1.6298    0.0000 H   0  0  0  0  0  0  0  0  0  0  0  0
    1.7828    1.1809    0.0000 H   0  0  0  0  0  0  0  0  0  0  0  0
    3.4262   -0.8347    0.0000 H   0  0  0  0  0  0  0  0  0  0  0  0
    4.3523   -0.2986    0.0000 H   0  0  0  0  0  0  0  0  0  0  0  0
    4.1377    1.7187    0.0000 H   0  0  0  0  0  0  0  0  0  0  0  0
    5.0650    1.1848    0.0000 H   0  0  0  0  0  0  0  0  0  0  0  0
    4.8553   -0.8330    0.0000 H   0  0  0  0  0  0  0  0  0  0  0  0
    5.7813   -0.2968    0.0000 H   0  0  0  0  0  0  0  0  0  0  0  0
    5.5666    1.7204    0.0000 H   0  0  0  0  0  0  0  0  0  0  0  0
    6.4939    1.1865    0.0000 H   0  0  0  0  0  0  0  0  0  0  0  0
   -0.3579   -1.1292    0.0000 H   0  0  0  0  0  0  0  0  0  0  0  0
    1.4954   -1.1270    0.0000 H   0  0  0  0  0  0  0  0  0  0  0  0
    0.5694   -1.6631    0.0000 H   0  0  0  0  0  0  0  0  0  0  0  0
    3.5918    1.9831    0.0000 H   0  0  0  0  0  0  0  0  0  0  0  0
    1.8251    1.9809    0.0000 H   0  0  0  0  0  0  0  0  0  0  0  0
    6.2841   -0.7813    0.0000 H   0  0  0  0  0  0  0  0  0  0  0  0
    7.1657    0.7497    0.0000 H   0  0  0  0  0  0  0  0  0  0  0  0
  1  2  1  0  0  0  0
  1  6  2  0  0  0  0
  1 20  1  0  0  0  0
  2  3  2  0  0  0  0
  2 21  1  0  0  0  0
  3  4  1  0  0  0  0
  3 22  1  0  0  0  0
  4  5  2  0  0  0  0
  4 23  1  0  0  0  0
  5  6  1  0  0  0  0
  5 24  1  0  0  0  0
  6  7  1  0  0  0  0
  7  8  1  0  0  0  0
  7 25  1  0  0  0  0
  7 26  1  0  0  0  0
  8  9  1  0  0  0  0
  8 16  1  0  0  0  0
  8 27  1  6  0  0  0
  9 10  1  0  0  0  0
  9 28  1  0  0  0  0
 10 11  1  0  0  0  0
 10 17  2  0  0  0  0
 11 12  1  0  0  0  0
 11 18  1  0  0  0  0
 11 29  1  6  0  0  0
 12 13  1  0  0  0  0
 12 30  1  0  0  0  0
 12 31  1  0  0  0  0
 13 14  1  0  0  0  0
 13 32  1  0  0  0  0
 13 33  1  0  0  0  0
 14 15  1  0  0  0  0
 14 34  1  0  0  0  0
 14 35  1  0  0  0  0
 15 19  1  0  0  0  0
 15 36  1  0  0  0  0
 15 37  1  0  0  0  0
 16 38  1  0  0  0  0
 16 39  1  0  0  0  0
 16 40  1  0  0  0  0
 18 41  1  0  0  0  0
 18 42  1  0  0  0  0
 19 43  1  0  0  0  0
 19 44  1  0  0  0  0
M  END
>  <DRUGBANK_ID>
DB01255

>  <COMMON_NAME>
Lisdexamfetamine

>  <CAS_NUMBER>
608137-32-2

>  <UNII>
H645GUL8KJ

>  <SYNONYMS>
Lisdexamfetamine

$$$$
