
 OpenBabel10282417072D

 46 49  0  0  1  0  0  0  0  0999 V2000
    5.0069    2.5204    0.0000 S   0  0  0  0  0  0  0  0  0  0  0  0
    6.8017    1.1855    0.0000 O   0  0  0  0  0  0  0  0  0  0  0  0
    2.0109    2.6416    0.0000 O   0  0  0  0  0  0  0  0  0  0  0  0
    2.8083    0.8525    0.0000 O   0  0  0  0  0  0  0  0  0  0  0  0
    4.7098   -0.2122    0.0000 O   0  0  0  0  0  0  0  0  0  0  0  0
    6.0688    0.2294    0.0000 O   0  0  0  0  0  0  0  0  0  0  0  0
    4.5842   -2.4169    0.0000 O   0  0  0  0  0  0  0  0  0  0  0  0
    3.2567   -2.2773    0.0000 O   0  0  0  0  0  0  0  0  0  0  0  0
    3.7836   -3.6499    0.0000 O   0  0  0  0  0  0  0  0  0  0  0  0
    4.2223    1.4405    0.0000 N   0  0  0  0  0  0  0  0  0  0  0  0
    4.2223    2.2655    0.0000 C   0  0  1  0  0  0  0  0  0  0  0  0
    3.3904    2.2688    0.0000 C   0  0  2  0  0  0  0  0  0  0  0  0
    3.3904    1.4371    0.0000 C   0  0  0  0  0  0  0  0  0  0  0  0
    5.4918    1.8530    0.0000 C   0  0  0  0  0  0  0  0  0  0  0  0
    5.0069    1.1855    0.0000 C   0  0  0  0  0  0  0  0  0  0  0  0
    2.8083    2.8534    0.0000 C   0  0  1  0  0  0  0  0  0  0  0  0
    6.3168    1.8530    0.0000 C   0  0  1  0  0  0  0  0  0  0  0  0
    6.8017    2.5204    0.0000 C   0  0  0  0  0  0  0  0  0  0  0  0
    7.5864    2.2655    0.0000 C   0  0  0  0  0  0  0  0  0  0  0  0
    3.0235    3.6499    0.0000 C   0  0  0  0  0  0  0  0  0  0  0  0
    7.5864    1.4405    0.0000 C   0  0  0  0  0  0  0  0  0  0  0  0
    5.2619    0.4009    0.0000 C   0  0  0  0  0  0  0  0  0  0  0  0
    4.9648   -0.9969    0.0000 C   0  0  0  0  0  0  0  0  0  0  0  0
    4.4127   -1.6099    0.0000 C   0  0  0  0  0  0  0  0  0  0  0  0
    3.5922   -1.5237    0.0000 C   0  0  0  0  0  0  0  0  0  0  0  0
    3.1797   -0.8092    0.0000 C   0  0  0  0  0  0  0  0  0  0  0  0
    3.8698   -2.8294    0.0000 C   0  0  0  0  0  0  0  0  0  0  0  0
    4.1204    2.9175    0.0000 H   0  0  0  0  0  0  0  0  0  0  0  0
    2.7804    2.0170    0.0000 H   0  0  0  0  0  0  0  0  0  0  0  0
    6.0172    2.4410    0.0000 H   0  0  0  0  0  0  0  0  0  0  0  0
    1.3265    3.3290    0.0000 H   0  0  0  0  0  0  0  0  0  0  0  0
    2.5291    1.8205    0.0000 H   0  0  0  0  0  0  0  0  0  0  0  0
    6.4710    3.5380    0.0000 H   0  0  0  0  0  0  0  0  0  0  0  0
    7.5583    3.2770    0.0000 H   0  0  0  0  0  0  0  0  0  0  0  0
    8.4520    2.8945    0.0000 H   0  0  0  0  0  0  0  0  0  0  0  0
    8.5398    1.7797    0.0000 H   0  0  0  0  0  0  0  0  0  0  0  0
    4.0576    3.9247    0.0000 H   0  0  0  0  0  0  0  0  0  0  0  0
    2.2685    4.4081    0.0000 H   0  0  0  0  0  0  0  0  0  0  0  0
    3.3026    4.6829    0.0000 H   0  0  0  0  0  0  0  0  0  0  0  0
    8.4521    0.8116    0.0000 H   0  0  0  0  0  0  0  0  0  0  0  0
    8.5398    1.9263    0.0000 H   0  0  0  0  0  0  0  0  0  0  0  0
    6.0114   -1.2194    0.0000 H   0  0  0  0  0  0  0  0  0  0  0  0
    5.2954   -2.0146    0.0000 H   0  0  0  0  0  0  0  0  0  0  0  0
    3.7147    0.1174    0.0000 H   0  0  0  0  0  0  0  0  0  0  0  0
    2.1097   -0.8092    0.0000 H   0  0  0  0  0  0  0  0  0  0  0  0
    2.6447    0.1175    0.0000 H   0  0  0  0  0  0  0  0  0  0  0  0
  1 11  1  0  0  0  0
  1 14  1  0  0  0  0
  2 17  1  0  0  0  0
  2 21  1  0  0  0  0
  3 31  1  0  0  0  0
  4 13  2  0  0  0  0
  5 22  1  0  0  0  0
  5 23  1  0  0  0  0
  6 22  2  0  0  0  0
  7 24  1  0  0  0  0
  7 27  1  0  0  0  0
  8 25  1  0  0  0  0
  8 27  1  0  0  0  0
  9 27  2  0  0  0  0
 10 11  1  0  0  0  0
 10 13  1  0  0  0  0
 10 15  1  0  0  0  0
 11 12  1  0  0  0  0
 11 28  1  6  0  0  0
 12 13  1  0  0  0  0
 12 16  1  0  0  0  0
 12 29  1  1  0  0  0
 14 15  2  0  0  0  0
 14 17  1  0  0  0  0
 15 22  1  0  0  0  0
 16  3  1  0  0  0  0
 16 20  1  0  0  0  0
 16 32  1  1  0  0  0
 17 18  1  0  0  0  0
 17 30  1  6  0  0  0
 18 19  1  0  0  0  0
 18 33  1  0  0  0  0
 18 34  1  0  0  0  0
 19 21  1  0  0  0  0
 19 35  1  0  0  0  0
 19 36  1  0  0  0  0
 20 37  1  0  0  0  0
 20 38  1  0  0  0  0
 20 39  1  0  0  0  0
 21 40  1  0  0  0  0
 21 41  1  0  0  0  0
 23 24  1  0  0  0  0
 23 42  1  0  0  0  0
 23 43  1  0  0  0  0
 24 25  2  0  0  0  0
 25 26  1  0  0  0  0
 26 44  1  0  0  0  0
 26 45  1  0  0  0  0
 26 46  1  0  0  0  0
M  END
>  <DRUGBANK_ID>
DB05659

>  <COMMON_NAME>
Faropenem medoxomil

>  <CAS_NUMBER>
141702-36-5

>  <UNII>
5OK523O4FU

>  <SYNONYMS>
Faropenem daloxate; Faropenem medoxil; Faropenem medoxomil

$$$$
