
 OpenBabel10282417072D

 47 49  0  0  0  0  0  0  0  0999 V2000
    0.8288    1.1345    0.0000 C   0  0  0  0  0  0  0  0  0  0  0  0
    3.3239    4.9368    0.0000 C   0  0  0  0  0  0  0  0  0  0  0  0
   -0.5215    3.8895    0.0000 C   0  0  0  0  0  0  0  0  0  0  0  0
   -1.6776    3.0496    0.0000 C   0  0  0  0  0  0  0  0  0  0  0  0
   -1.0064    4.5569    0.0000 C   0  0  0  0  0  0  0  0  0  0  0  0
   -2.1625    3.7170    0.0000 C   0  0  0  0  0  0  0  0  0  0  0  0
    1.1579    4.6668    0.0000 C   0  0  0  0  0  0  0  0  0  0  0  0
    0.6059    4.0537    0.0000 C   0  0  0  0  0  0  0  0  0  0  0  0
    2.2198    3.7106    0.0000 C   0  0  0  0  0  0  0  0  0  0  0  0
    2.4685    1.8646    0.0000 C   0  0  0  0  0  0  0  0  0  0  0  0
    4.6119    2.2771    0.0000 C   0  0  0  0  0  0  0  0  0  0  0  0
    1.0004    1.9415    0.0000 C   0  0  0  0  0  0  0  0  0  0  0  0
   -0.8571    3.1358    0.0000 C   0  0  0  0  0  0  0  0  0  0  0  0
   -1.8269    4.4707    0.0000 C   0  0  0  0  0  0  0  0  0  0  0  0
    1.9649    4.4953    0.0000 C   0  0  0  0  0  0  0  0  0  0  0  0
    1.7540    2.2771    0.0000 C   0  0  0  0  0  0  0  0  0  0  0  0
    1.6678    3.0975    0.0000 C   0  0  0  0  0  0  0  0  0  0  0  0
    0.8608    3.2691    0.0000 C   0  0  0  0  0  0  0  0  0  0  0  0
    5.3264    1.8646    0.0000 C   0  0  0  0  0  0  0  0  0  0  0  0
    3.1830    2.2771    0.0000 C   0  0  0  0  0  0  0  0  0  0  0  0
   -0.3722    2.4684    0.0000 C   0  0  0  0  0  0  0  0  0  0  0  0
   -2.3118    5.1381    0.0000 Cl  0  0  0  0  0  0  0  0  0  0  0  0
    0.4483    2.5546    0.0000 N   0  0  0  0  0  0  0  0  0  0  0  0
    6.0409    2.2771    0.0000 O   0  0  0  0  0  0  0  0  0  0  0  0
    5.3264    1.0396    0.0000 O   0  0  0  0  0  0  0  0  0  0  0  0
    3.1830    3.1021    0.0000 O   0  0  0  0  0  0  0  0  0  0  0  0
   -0.7077    1.7147    0.0000 O   0  0  0  0  0  0  0  0  0  0  0  0
    2.5169    5.1084    0.0000 O   0  0  0  0  0  0  0  0  0  0  0  0
    3.8974    1.8646    0.0000 O   0  0  0  0  0  0  0  0  0  0  0  0
   -0.1889    0.8039    0.0000 H   0  0  0  0  0  0  0  0  0  0  0  0
    1.6239    0.4185    0.0000 H   0  0  0  0  0  0  0  0  0  0  0  0
    0.6063    0.0879    0.0000 H   0  0  0  0  0  0  0  0  0  0  0  0
    3.6545    3.9191    0.0000 H   0  0  0  0  0  0  0  0  0  0  0  0
    4.0399    5.7319    0.0000 H   0  0  0  0  0  0  0  0  0  0  0  0
    4.3705    4.7143    0.0000 H   0  0  0  0  0  0  0  0  0  0  0  0
    0.5048    3.9974    0.0000 H   0  0  0  0  0  0  0  0  0  0  0  0
   -2.0974    2.1068    0.0000 H   0  0  0  0  0  0  0  0  0  0  0  0
   -0.5866    5.4997    0.0000 H   0  0  0  0  0  0  0  0  0  0  0  0
   -3.1888    3.6091    0.0000 H   0  0  0  0  0  0  0  0  0  0  0  0
    0.8390    5.6483    0.0000 H   0  0  0  0  0  0  0  0  0  0  0  0
   -0.4035    4.2683    0.0000 H   0  0  0  0  0  0  0  0  0  0  0  0
    3.2292    3.4960    0.0000 H   0  0  0  0  0  0  0  0  0  0  0  0
    2.4685    0.7946    0.0000 H   0  0  0  0  0  0  0  0  0  0  0  0
    3.3951    1.3296    0.0000 H   0  0  0  0  0  0  0  0  0  0  0  0
    4.6119    3.3471    0.0000 H   0  0  0  0  0  0  0  0  0  0  0  0
    3.6853    2.8121    0.0000 H   0  0  0  0  0  0  0  0  0  0  0  0
    4.5149    0.5711    0.0000 H   0  0  0  0  0  0  0  0  0  0  0  0
  1 30  1  0  0  0  0
  1 31  1  0  0  0  0
  1 32  1  0  0  0  0
  2 33  1  0  0  0  0
  2 34  1  0  0  0  0
  2 35  1  0  0  0  0
  3 36  1  0  0  0  0
  4 37  1  0  0  0  0
  5  3  1  0  0  0  0
  5 38  1  0  0  0  0
  6  4  2  0  0  0  0
  6 39  1  0  0  0  0
  7 40  1  0  0  0  0
  8  7  2  0  0  0  0
  8 41  1  0  0  0  0
  9 42  1  0  0  0  0
 10 43  1  0  0  0  0
 10 44  1  0  0  0  0
 11 45  1  0  0  0  0
 11 46  1  0  0  0  0
 12  1  1  0  0  0  0
 13  3  2  0  0  0  0
 13  4  1  0  0  0  0
 14  5  2  0  0  0  0
 14  6  1  0  0  0  0
 15  7  1  0  0  0  0
 15  9  2  0  0  0  0
 16 10  1  0  0  0  0
 16 12  2  0  0  0  0
 17  9  1  0  0  0  0
 17 16  1  0  0  0  0
 18  8  1  0  0  0  0
 18 17  2  0  0  0  0
 19 11  1  0  0  0  0
 20 10  1  0  0  0  0
 21 13  1  0  0  0  0
 22 14  1  0  0  0  0
 23 12  1  0  0  0  0
 23 18  1  0  0  0  0
 23 21  1  0  0  0  0
 24 19  2  0  0  0  0
 25 19  1  0  0  0  0
 25 47  1  0  0  0  0
 26 20  2  0  0  0  0
 27 21  2  0  0  0  0
 28  2  1  0  0  0  0
 28 15  1  0  0  0  0
 29 11  1  0  0  0  0
 29 20  1  0  0  0  0
M  END
>  <DRUGBANK_ID>
DB13783

>  <COMMON_NAME>
Acemetacin

>  <CAS_NUMBER>
53164-05-9

>  <UNII>
5V141XK28X

>  <SYNONYMS>
Acemetacin; Acemetacina; Acemetacine; Acemetacinum; indometacin carboxymethyl ester; indometacin glycolic ester; indomethacin carboxymethyl ester; indomethacin glycolic ester

$$$$
