
 OpenBabel10282417072D

 52 53  0  0  0  0  0  0  0  0999 V2000
   -1.7862    1.0313    0.0000 C   0  0  0  0  0  0  0  0  0  0  0  0
   -1.0717    1.4438    0.0000 C   0  0  0  0  0  0  0  0  0  0  0  0
   -1.7862    0.2062    0.0000 C   0  0  0  0  0  0  0  0  0  0  0  0
   -1.0717   -0.2062    0.0000 O   0  0  0  0  0  0  0  0  0  0  0  0
   -1.0717    2.2688    0.0000 O   0  0  0  0  0  0  0  0  0  0  0  0
   -0.3572    1.0313    0.0000 C   0  0  0  0  0  0  0  0  0  0  0  0
   -1.0717   -1.0312    0.0000 C   0  0  0  0  0  0  0  0  0  0  0  0
   -0.3572   -1.4437    0.0000 C   0  0  3  0  0  0  0  0  0  0  0  0
    0.3572    1.4438    0.0000 C   0  0  0  0  0  0  0  0  0  0  0  0
    1.0717   -1.4438    0.0000 N   0  0  0  0  0  0  0  0  0  0  0  0
    1.0717    1.0313    0.0000 C   0  0  0  0  0  0  0  0  0  0  0  0
   -0.3572   -2.2688    0.0000 O   0  0  0  0  0  0  0  0  0  0  0  0
   -2.5007    1.4438    0.0000 C   0  0  0  0  0  0  0  0  0  0  0  0
    0.3572   -1.0312    0.0000 C   0  0  0  0  0  0  0  0  0  0  0  0
   -2.5007   -0.2062    0.0000 C   0  0  0  0  0  0  0  0  0  0  0  0
    1.7862   -1.0312    0.0000 C   0  0  0  0  0  0  0  0  0  0  0  0
    1.7862    1.4438    0.0000 C   0  0  0  0  0  0  0  0  0  0  0  0
    1.0717    0.2062    0.0000 C   0  0  0  0  0  0  0  0  0  0  0  0
    2.5007   -1.4438    0.0000 C   0  0  0  0  0  0  0  0  0  0  0  0
   -3.2152    1.0313    0.0000 C   0  0  0  0  0  0  0  0  0  0  0  0
    3.2152   -1.0313    0.0000 C   0  0  0  0  0  0  0  0  0  0  0  0
   -3.2152    0.2062    0.0000 C   0  0  0  0  0  0  0  0  0  0  0  0
    1.7862   -0.2062    0.0000 C   0  0  0  0  0  0  0  0  0  0  0  0
    2.5007    1.0313    0.0000 C   0  0  0  0  0  0  0  0  0  0  0  0
    2.5007    0.2062    0.0000 C   0  0  0  0  0  0  0  0  0  0  0  0
   -0.3572   -0.0387    0.0000 H   0  0  0  0  0  0  0  0  0  0  0  0
    0.5695    0.4963    0.0000 H   0  0  0  0  0  0  0  0  0  0  0  0
   -1.9983   -1.5662    0.0000 H   0  0  0  0  0  0  0  0  0  0  0  0
   -1.0717   -2.1012    0.0000 H   0  0  0  0  0  0  0  0  0  0  0  0
   -1.2838   -1.9787    0.0000 H   0  0  0  0  0  0  0  0  0  0  0  0
    0.3572    2.5138    0.0000 H   0  0  0  0  0  0  0  0  0  0  0  0
    1.2838    1.9788    0.0000 H   0  0  0  0  0  0  0  0  0  0  0  0
    1.0717   -2.4638    0.0000 H   0  0  0  0  0  0  0  0  0  0  0  0
   -1.1972   -2.7538    0.0000 H   0  0  0  0  0  0  0  0  0  0  0  0
   -2.5007    2.4758    0.0000 H   0  0  0  0  0  0  0  0  0  0  0  0
    0.3572    0.0388    0.0000 H   0  0  0  0  0  0  0  0  0  0  0  0
    1.2839   -0.4963    0.0000 H   0  0  0  0  0  0  0  0  0  0  0  0
   -2.5007   -1.2382    0.0000 H   0  0  0  0  0  0  0  0  0  0  0  0
    1.7862    0.0388    0.0000 H   0  0  0  0  0  0  0  0  0  0  0  0
    2.7129   -0.4962    0.0000 H   0  0  0  0  0  0  0  0  0  0  0  0
    1.7862    2.4758    0.0000 H   0  0  0  0  0  0  0  0  0  0  0  0
    0.1780   -0.3099    0.0000 H   0  0  0  0  0  0  0  0  0  0  0  0
    2.5006   -2.5138    0.0000 H   0  0  0  0  0  0  0  0  0  0  0  0
    3.4273   -1.9788    0.0000 H   0  0  0  0  0  0  0  0  0  0  0  0
   -4.1089    1.5473    0.0000 H   0  0  0  0  0  0  0  0  0  0  0  0
    4.1418   -1.5663    0.0000 H   0  0  0  0  0  0  0  0  0  0  0  0
    3.2152    0.0387    0.0000 H   0  0  0  0  0  0  0  0  0  0  0  0
    4.1419   -0.4963    0.0000 H   0  0  0  0  0  0  0  0  0  0  0  0
   -4.1089   -0.3099    0.0000 H   0  0  0  0  0  0  0  0  0  0  0  0
    1.7862   -1.2382    0.0000 H   0  0  0  0  0  0  0  0  0  0  0  0
    3.3944    1.5473    0.0000 H   0  0  0  0  0  0  0  0  0  0  0  0
    3.3944   -0.3099    0.0000 H   0  0  0  0  0  0  0  0  0  0  0  0
  2  1  1  0  0  0  0
  3  1  2  0  0  0  0
  4  3  1  0  0  0  0
  5  2  2  0  0  0  0
  6  2  1  0  0  0  0
  6 26  1  0  0  0  0
  6 27  1  0  0  0  0
  7  4  1  0  0  0  0
  7 28  1  0  0  0  0
  7 29  1  0  0  0  0
  8  7  1  0  0  0  0
  8 30  1  0  0  0  0
  9  6  1  0  0  0  0
  9 31  1  0  0  0  0
  9 32  1  0  0  0  0
 10 33  1  0  0  0  0
 11  9  1  0  0  0  0
 12  8  1  0  0  0  0
 12 34  1  0  0  0  0
 13  1  1  0  0  0  0
 13 35  1  0  0  0  0
 14  8  1  0  0  0  0
 14 10  1  0  0  0  0
 14 36  1  0  0  0  0
 14 37  1  0  0  0  0
 15  3  1  0  0  0  0
 15 38  1  0  0  0  0
 16 10  1  0  0  0  0
 16 39  1  0  0  0  0
 16 40  1  0  0  0  0
 17 11  1  0  0  0  0
 17 41  1  0  0  0  0
 18 11  2  0  0  0  0
 18 42  1  0  0  0  0
 19 16  1  0  0  0  0
 19 43  1  0  0  0  0
 19 44  1  0  0  0  0
 20 13  2  0  0  0  0
 20 45  1  0  0  0  0
 21 19  1  0  0  0  0
 21 46  1  0  0  0  0
 21 47  1  0  0  0  0
 21 48  1  0  0  0  0
 22 15  2  0  0  0  0
 22 20  1  0  0  0  0
 22 49  1  0  0  0  0
 23 18  1  0  0  0  0
 23 50  1  0  0  0  0
 24 17  2  0  0  0  0
 24 51  1  0  0  0  0
 25 23  2  0  0  0  0
 25 24  1  0  0  0  0
 25 52  1  0  0  0  0
M  END
>  <DRUGBANK_ID>
DB01182

>  <SECONDARY_ACCESSION_NUMBERS>
APRD00261

>  <COMMON_NAME>
Propafenone

>  <CAS_NUMBER>
54063-53-5

>  <UNII>
68IQX3T69U

>  <SYNONYMS>
1-(2-(2-hydroxy-3-(propylamino)propoxy)phenyl)-3-phenyl-1-propanone; 2-(2'-hydroxy-3'-propylaminopropoxy)-Ï‰-phenylpropiophenone; Propafenona; Propafenone; Propafenonum

$$$$
