
 OpenBabel10282417072D

 26 26  0  0  0  0  0  0  0  0999 V2000
    1.7861    0.0000    0.0000 O   0  0  0  0  0  0  0  0  0  0  0  0
    1.0716    0.4125    0.0000 C   0  0  0  0  0  0  0  0  0  0  0  0
    1.0716    1.2375    0.0000 O   0  0  0  0  0  0  0  0  0  0  0  0
    0.3571    0.0000    0.0000 C   0  0  1  0  0  0  0  0  0  0  0  0
    0.3571   -0.8250    0.0000 N   0  0  0  0  0  0  0  0  0  0  0  0
   -0.3573    0.4124    0.0000 C   0  0  0  0  0  0  0  0  0  0  0  0
   -1.0717    0.0000    0.0000 C   0  0  0  0  0  0  0  0  0  0  0  0
   -1.0717   -0.8250    0.0000 C   0  0  0  0  0  0  0  0  0  0  0  0
   -1.7861    0.4124    0.0000 C   0  0  0  0  0  0  0  0  0  0  0  0
   -2.5006    0.0000    0.0000 C   0  0  0  0  0  0  0  0  0  0  0  0
   -1.7861   -1.2375    0.0000 C   0  0  0  0  0  0  0  0  0  0  0  0
   -2.5006   -0.8250    0.0000 C   0  0  0  0  0  0  0  0  0  0  0  0
    2.5006    0.4124    0.0000 C   0  0  0  0  0  0  0  0  0  0  0  0
    1.2837   -0.5350    0.0000 H   0  0  0  0  0  0  0  0  0  0  0  0
   -0.5262   -1.3350    0.0000 H   0  0  0  0  0  0  0  0  0  0  0  0
    1.2404   -1.3350    0.0000 H   0  0  0  0  0  0  0  0  0  0  0  0
   -0.3573    1.4824    0.0000 H   0  0  0  0  0  0  0  0  0  0  0  0
   -1.2839    0.9474    0.0000 H   0  0  0  0  0  0  0  0  0  0  0  0
   -0.1780   -1.3410    0.0000 H   0  0  0  0  0  0  0  0  0  0  0  0
   -1.7861    1.4444    0.0000 H   0  0  0  0  0  0  0  0  0  0  0  0
   -3.3943    0.5161    0.0000 H   0  0  0  0  0  0  0  0  0  0  0  0
   -1.7861   -2.2695    0.0000 H   0  0  0  0  0  0  0  0  0  0  0  0
   -3.3943   -1.3410    0.0000 H   0  0  0  0  0  0  0  0  0  0  0  0
    3.4272   -0.1227    0.0000 H   0  0  0  0  0  0  0  0  0  0  0  0
    2.5007    1.4824    0.0000 H   0  0  0  0  0  0  0  0  0  0  0  0
    3.4273    0.9473    0.0000 H   0  0  0  0  0  0  0  0  0  0  0  0
  1 13  1  0  0  0  0
  2  1  1  0  0  0  0
  3  2  2  0  0  0  0
  4  2  1  0  0  0  0
  4  5  1  0  0  0  0
  4 14  1  6  0  0  0
  5 15  1  0  0  0  0
  5 16  1  0  0  0  0
  6  4  1  0  0  0  0
  6 17  1  0  0  0  0
  6 18  1  0  0  0  0
  7  6  1  0  0  0  0
  8  7  2  0  0  0  0
  8 19  1  0  0  0  0
  9  7  1  0  0  0  0
  9 20  1  0  0  0  0
 10  9  2  0  0  0  0
 10 21  1  0  0  0  0
 11  8  1  0  0  0  0
 11 12  2  0  0  0  0
 11 22  1  0  0  0  0
 12 10  1  0  0  0  0
 12 23  1  0  0  0  0
 13 24  1  0  0  0  0
 13 25  1  0  0  0  0
 13 26  1  0  0  0  0
M  END
>  <DRUGBANK_ID>
DB06838

>  <COMMON_NAME>
methyl L-phenylalaninate

>  <CAS_NUMBER>
2577-90-4

>  <UNII>
10AT497I17

>  <SYNONYMS>
(S)-phenylalanine methyl ester; Methyl 3-phenyl-L-alaninate; Phenylalanine methyl ester

$$$$
