
 OpenBabel10282417072D

 42 38  0  0  0  0  0  0  0  0999 V2000
    0.4830   -1.1071    0.0000 O   0  0  0  0  0  0  0  0  0  0  0  0
   -0.3222   -1.2861    0.0000 C   0  0  0  0  0  0  0  0  0  0  0  0
    1.0383   -1.6718    0.0000 P   0  0  0  0  0  0  0  0  0  0  0  0
   -0.9734   -0.9127    0.0000 C   0  0  0  0  0  0  0  0  0  0  0  0
   -0.7944   -1.9435    0.0000 C   0  0  0  0  0  0  0  0  0  0  0  0
    1.6216   -1.1071    0.0000 O   0  0  0  0  0  0  0  0  0  0  0  0
    1.6031   -2.2550    0.0000 O   0  5  0  0  0  0  0  0  0  0  0  0
    0.4706   -2.2242    0.0000 O   0  5  0  0  0  0  0  0  0  0  0  0
   -1.6770   -1.2398    0.0000 C   0  0  0  0  0  0  0  0  0  0  0  0
   -1.5998   -1.7645    0.0000 C   0  0  0  0  0  0  0  0  0  0  0  0
   -2.4360   -0.8572    0.0000 O   0  0  0  0  0  0  0  0  0  0  0  0
   -2.1707   -2.1810    0.0000 O   0  0  0  0  0  0  0  0  0  0  0  0
    0.2052    1.6114    0.0000 O   0  0  0  0  0  0  0  0  0  0  0  0
    1.0563    1.2317    0.0000 P   0  0  0  0  0  0  0  0  0  0  0  0
   -0.5322    1.0745    0.0000 C   0  0  0  0  0  0  0  0  0  0  0  0
    1.3690    2.0403    0.0000 O   0  0  0  0  0  0  0  0  0  0  0  0
    2.0042    0.9431    0.0000 O   0  5  0  0  0  0  0  0  0  0  0  0
    0.7217    0.4648    0.0000 O   0  5  0  0  0  0  0  0  0  0  0  0
   -1.3622    1.4663    0.0000 C   0  0  3  0  0  0  0  0  0  0  0  0
   -2.0935    0.9232    0.0000 C   0  0  0  0  0  0  0  0  0  0  0  0
   -1.4733    2.3519    0.0000 O   0  0  0  0  0  0  0  0  0  0  0  0
   -2.9298    1.3088    0.0000 O   0  0  0  0  0  0  0  0  0  0  0  0
    2.9298    0.5212    0.0000 Fe  0  2  0  0  0  0  0  0  0  0  0  0
    2.7169   -2.3519    0.0000 Fe  0  2  0  0  0  0  0  0  0  0  0  0
   -1.3679   -1.5130    0.0000 H   0  0  0  0  0  0  0  0  0  0  0  0
   -0.9277    0.1563    0.0000 H   0  0  0  0  0  0  0  0  0  0  0  0
   -0.0363   -0.3962    0.0000 H   0  0  0  0  0  0  0  0  0  0  0  0
   -0.4129   -2.9432    0.0000 H   0  0  0  0  0  0  0  0  0  0  0  0
    0.2667   -2.0813    0.0000 H   0  0  0  0  0  0  0  0  0  0  0  0
   -1.6940   -2.3097    0.0000 H   0  0  0  0  0  0  0  0  0  0  0  0
   -2.5925   -1.7936    0.0000 H   0  0  0  0  0  0  0  0  0  0  0  0
   -1.8184   -0.7171    0.0000 H   0  0  0  0  0  0  0  0  0  0  0  0
   -2.5984   -1.3802    0.0000 H   0  0  0  0  0  0  0  0  0  0  0  0
   -2.4910    0.1112    0.0000 H   0  0  0  0  0  0  0  0  0  0  0  0
   -3.0576   -1.7882    0.0000 H   0  0  0  0  0  0  0  0  0  0  0  0
   -0.4316    0.0092    0.0000 H   0  0  0  0  0  0  0  0  0  0  0  0
   -1.4080    0.4598    0.0000 H   0  0  0  0  0  0  0  0  0  0  0  0
   -1.2566    0.4015    0.0000 H   0  0  0  0  0  0  0  0  0  0  0  0
   -1.9831   -0.1411    0.0000 H   0  0  0  0  0  0  0  0  0  0  0  0
   -2.9637    0.3006    0.0000 H   0  0  0  0  0  0  0  0  0  0  0  0
   -0.7002    2.9377    0.0000 H   0  0  0  0  0  0  0  0  0  0  0  0
   -3.0185    2.2747    0.0000 H   0  0  0  0  0  0  0  0  0  0  0  0
  1  2  1  0  0  0  0
  1  3  1  0  0  0  0
  2  4  1  0  0  0  0
  2  5  1  0  0  0  0
  2 25  1  0  0  0  0
  3  7  1  0  0  0  0
  3  8  1  0  0  0  0
  3  6  2  0  0  0  0
  4  9  1  0  0  0  0
  4 26  1  0  0  0  0
  4 27  1  0  0  0  0
  5 10  1  0  0  0  0
  5 28  1  0  0  0  0
  5 29  1  0  0  0  0
  9 11  1  0  0  0  0
  9 30  1  0  0  0  0
  9 31  1  0  0  0  0
 10 12  1  0  0  0  0
 10 32  1  0  0  0  0
 10 33  1  0  0  0  0
 11 34  1  0  0  0  0
 12 35  1  0  0  0  0
 13 14  1  0  0  0  0
 13 15  1  0  0  0  0
 14 16  2  0  0  0  0
 14 17  1  0  0  0  0
 14 18  1  0  0  0  0
 15 19  1  0  0  0  0
 15 36  1  0  0  0  0
 15 37  1  0  0  0  0
 19 20  1  0  0  0  0
 19 21  1  0  0  0  0
 19 38  1  0  0  0  0
 20 22  1  0  0  0  0
 20 39  1  0  0  0  0
 20 40  1  0  0  0  0
 21 41  1  0  0  0  0
 22 42  1  0  0  0  0
M  CHG  6   7  -1   8  -1  17  -1  18  -1  23   2  24   2
M  END
>  <DRUGBANK_ID>
DB15934

>  <COMMON_NAME>
Ferric glycerophosphate

>  <CAS_NUMBER>
1301-70-8

>  <UNII>
MUL7ONL3Z6

>  <SYNONYMS>
Ferric glyceryl phosphate; Iron(3+) glycerophosphate

$$$$
