
 OpenBabel10282417072D

 38 41  0  0  0  0  0  0  0  0999 V2000
   -0.1093    5.0230    0.0000 C   0  0  0  0  0  0  0  0  0  0  0  0
    0.7112    4.9368    0.0000 C   0  0  0  0  0  0  0  0  0  0  0  0
    1.0468    4.1831    0.0000 C   0  0  0  0  0  0  0  0  0  0  0  0
    0.5619    3.5157    0.0000 C   0  0  0  0  0  0  0  0  0  0  0  0
   -0.2586    3.6019    0.0000 C   0  0  0  0  0  0  0  0  0  0  0  0
   -0.5942    4.3556    0.0000 C   0  0  0  0  0  0  0  0  0  0  0  0
    0.8974    2.7620    0.0000 C   0  0  0  0  0  0  0  0  0  0  0  0
    0.4125    2.0945    0.0000 N   0  0  0  0  0  0  0  0  0  0  0  0
    0.6674    1.3099    0.0000 C   0  0  0  0  0  0  0  0  0  0  0  0
    1.4521    1.0550    0.0000 O   0  0  0  0  0  0  0  0  0  0  0  0
    0.0000    0.8250    0.0000 N   0  0  0  0  0  0  0  0  0  0  0  0
   -0.6674    1.3099    0.0000 S   0  0  0  0  0  0  0  0  0  0  0  0
   -0.4125    2.0945    0.0000 C   0  0  0  0  0  0  0  0  0  0  0  0
   -0.8974    2.7620    0.0000 O   0  0  0  0  0  0  0  0  0  0  0  0
    0.0000   -0.0000    0.0000 C   0  0  0  0  0  0  0  0  0  0  0  0
   -0.7145   -0.4125    0.0000 C   0  0  0  0  0  0  0  0  0  0  0  0
   -0.7145   -1.2375    0.0000 C   0  0  0  0  0  0  0  0  0  0  0  0
    0.0000   -1.6500    0.0000 C   0  0  0  0  0  0  0  0  0  0  0  0
    0.7145   -1.2375    0.0000 C   0  0  0  0  0  0  0  0  0  0  0  0
    0.7145   -0.4125    0.0000 C   0  0  0  0  0  0  0  0  0  0  0  0
    1.4289   -0.0000    0.0000 C   0  0  0  0  0  0  0  0  0  0  0  0
    2.1434   -0.4125    0.0000 C   0  0  0  0  0  0  0  0  0  0  0  0
    2.1434   -1.2375    0.0000 C   0  0  0  0  0  0  0  0  0  0  0  0
    1.4289   -1.6500    0.0000 C   0  0  0  0  0  0  0  0  0  0  0  0
   -0.5291    5.9658    0.0000 H   0  0  0  0  0  0  0  0  0  0  0  0
    1.3178    5.7717    0.0000 H   0  0  0  0  0  0  0  0  0  0  0  0
    2.0731    4.0752    0.0000 H   0  0  0  0  0  0  0  0  0  0  0  0
   -0.8652    2.7670    0.0000 H   0  0  0  0  0  0  0  0  0  0  0  0
   -1.6205    4.4635    0.0000 H   0  0  0  0  0  0  0  0  0  0  0  0
    1.9615    2.6501    0.0000 H   0  0  0  0  0  0  0  0  0  0  0  0
    1.3326    1.7845    0.0000 H   0  0  0  0  0  0  0  0  0  0  0  0
   -1.6082    0.1035    0.0000 H   0  0  0  0  0  0  0  0  0  0  0  0
   -1.6082   -1.7535    0.0000 H   0  0  0  0  0  0  0  0  0  0  0  0
    0.0000   -2.6820    0.0000 H   0  0  0  0  0  0  0  0  0  0  0  0
    1.4289    1.0320    0.0000 H   0  0  0  0  0  0  0  0  0  0  0  0
    3.0371    0.1035    0.0000 H   0  0  0  0  0  0  0  0  0  0  0  0
    3.0371   -1.7535    0.0000 H   0  0  0  0  0  0  0  0  0  0  0  0
    1.4289   -2.6820    0.0000 H   0  0  0  0  0  0  0  0  0  0  0  0
  1  2  2  0  0  0  0
  1  6  1  0  0  0  0
  1 25  1  0  0  0  0
  2  3  1  0  0  0  0
  2 26  1  0  0  0  0
  3  4  2  0  0  0  0
  3 27  1  0  0  0  0
  4  5  1  0  0  0  0
  4  7  1  0  0  0  0
  5  6  2  0  0  0  0
  5 28  1  0  0  0  0
  6 29  1  0  0  0  0
  7  8  1  0  0  0  0
  7 30  1  0  0  0  0
  7 31  1  0  0  0  0
  8  9  1  0  0  0  0
  8 13  1  0  0  0  0
  9 10  2  0  0  0  0
  9 11  1  0  0  0  0
 11 12  1  0  0  0  0
 11 15  1  0  0  0  0
 12 13  1  0  0  0  0
 13 14  2  0  0  0  0
 15 16  1  0  0  0  0
 15 20  2  0  0  0  0
 16 17  2  0  0  0  0
 16 32  1  0  0  0  0
 17 18  1  0  0  0  0
 17 33  1  0  0  0  0
 18 19  2  0  0  0  0
 18 34  1  0  0  0  0
 19 20  1  0  0  0  0
 19 24  1  0  0  0  0
 20 21  1  0  0  0  0
 21 22  2  0  0  0  0
 21 35  1  0  0  0  0
 22 23  1  0  0  0  0
 22 36  1  0  0  0  0
 23 24  2  0  0  0  0
 23 37  1  0  0  0  0
 24 38  1  0  0  0  0
M  END
>  <DRUGBANK_ID>
DB12129

>  <COMMON_NAME>
Tideglusib

>  <CAS_NUMBER>
865854-05-3

>  <UNII>
Q747Y6TT42

>  <SYNONYMS>
4-BENZYL-2-(A-NAPHTYL)-1,2,4-THIADIAZOLIDINE-3,5-DIONE; 4-Benzyl-2-(naphthalen-1-yl)-1,2,4-thiadiazolidine-3,5-dione; Tideglusib

$$$$
