
 OpenBabel10282417072D

 71 74  0  0  0  0  0  0  0  0999 V2000
    2.3405   -0.2223    0.0000 C   0  0  1  0  0  0  0  0  0  0  0  0
    2.8180   -0.9475    0.0000 O   0  0  0  0  0  0  0  0  0  0  0  0
    3.7458   -1.0734    0.0000 C   0  0  0  0  0  0  0  0  0  0  0  0
    4.2756   -0.7633    0.0000 C   0  0  2  0  0  0  0  0  0  0  0  0
    4.8101   -1.0734    0.0000 C   0  0  0  0  0  0  0  0  0  0  0  0
    5.3359   -0.7633    0.0000 O   0  0  0  0  0  0  0  0  0  0  0  0
    4.3588   -0.1117    0.0000 C   0  0  0  0  0  0  0  0  0  0  0  0
    3.7146    0.3997    0.0000 C   0  0  0  0  0  0  0  0  0  0  0  0
    3.8359    1.2120    0.0000 C   0  0  0  0  0  0  0  0  0  0  0  0
    4.5966    1.5166    0.0000 C   0  0  0  0  0  0  0  0  0  0  0  0
    5.2422    1.0094    0.0000 C   0  0  0  0  0  0  0  0  0  0  0  0
    5.1247    0.1881    0.0000 C   0  0  0  0  0  0  0  0  0  0  0  0
    3.7458   -1.8315    0.0000 O   0  0  0  0  0  0  0  0  0  0  0  0
    2.8565    0.4307    0.0000 C   0  0  0  0  0  0  0  0  0  0  0  0
    2.6685    1.2403    0.0000 C   0  0  1  0  0  0  0  0  0  0  0  0
    1.9161    1.5901    0.0000 C   0  0  0  0  0  0  0  0  0  0  0  0
    1.1744    1.2339    0.0000 C   0  0  0  0  0  0  0  0  0  0  0  0
    0.9944    0.3650    0.0000 C   0  0  1  0  0  0  0  0  0  0  0  0
    1.5168   -0.2223    0.0000 C   0  0  0  0  0  0  0  0  0  0  0  0
    2.0976    0.3650    0.0000 N   0  3  3  0  0  0  0  0  0  0  0  0
    1.5222    1.8315    0.0000 C   0  0  0  0  0  0  0  0  0  0  0  0
    0.5963    1.0495    0.0000 C   0  0  0  0  0  0  0  0  0  0  0  0
   -0.3339    0.5985    0.0000 C   0  0  0  0  0  0  0  0  0  0  0  0
   -1.0475    1.0141    0.0000 C   0  0  0  0  0  0  0  0  0  0  0  0
   -1.7721    0.6073    0.0000 C   0  0  0  0  0  0  0  0  0  0  0  0
   -1.7721   -0.2184    0.0000 C   0  0  0  0  0  0  0  0  0  0  0  0
   -1.0524   -0.6351    0.0000 C   0  0  0  0  0  0  0  0  0  0  0  0
   -0.3339   -0.2256    0.0000 C   0  0  0  0  0  0  0  0  0  0  0  0
   -2.4825   -0.6243    0.0000 O   0  0  0  0  0  0  0  0  0  0  0  0
   -3.1970   -0.2119    0.0000 C   0  0  0  0  0  0  0  0  0  0  0  0
   -3.9115   -0.6243    0.0000 C   0  0  0  0  0  0  0  0  0  0  0  0
   -4.6261   -0.2070    0.0000 C   0  0  0  0  0  0  0  0  0  0  0  0
   -5.3359   -0.6196    0.0000 C   0  0  0  0  0  0  0  0  0  0  0  0
    3.4095   -0.2685    0.0000 H   0  0  0  0  0  0  0  0  0  0  0  0
    3.3830   -0.1732    0.0000 H   0  0  0  0  0  0  0  0  0  0  0  0
    4.8139   -2.1434    0.0000 H   0  0  0  0  0  0  0  0  0  0  0  0
    5.7402   -1.6024    0.0000 H   0  0  0  0  0  0  0  0  0  0  0  0
    6.1804   -1.2405    0.0000 H   0  0  0  0  0  0  0  0  0  0  0  0
    2.7546    0.0209    0.0000 H   0  0  0  0  0  0  0  0  0  0  0  0
    3.0264    1.8521    0.0000 H   0  0  0  0  0  0  0  0  0  0  0  0
    4.7432    2.5381    0.0000 H   0  0  0  0  0  0  0  0  0  0  0  0
    6.2000    1.3935    0.0000 H   0  0  0  0  0  0  0  0  0  0  0  0
    5.9337   -0.4527    0.0000 H   0  0  0  0  0  0  0  0  0  0  0  0
    3.9006    0.1969    0.0000 H   0  0  0  0  0  0  0  0  0  0  0  0
    3.6101    1.1903    0.0000 H   0  0  0  0  0  0  0  0  0  0  0  0
    2.4823    0.1866    0.0000 H   0  0  0  0  0  0  0  0  0  0  0  0
    1.9094    2.6601    0.0000 H   0  0  0  0  0  0  0  0  0  0  0  0
    1.0086    2.1570    0.0000 H   0  0  0  0  0  0  0  0  0  0  0  0
    0.3315    1.8930    0.0000 H   0  0  0  0  0  0  0  0  0  0  0  0
    0.1698    0.8656    0.0000 H   0  0  0  0  0  0  0  0  0  0  0  0
    1.8242    1.0405    0.0000 H   0  0  0  0  0  0  0  0  0  0  0  0
    1.0786   -1.1985    0.0000 H   0  0  0  0  0  0  0  0  0  0  0  0
    2.0982   -1.1206    0.0000 H   0  0  0  0  0  0  0  0  0  0  0  0
    2.1894    2.6680    0.0000 H   0  0  0  0  0  0  0  0  0  0  0  0
    0.4642    1.9911    0.0000 H   0  0  0  0  0  0  0  0  0  0  0  0
    1.1314    2.8276    0.0000 H   0  0  0  0  0  0  0  0  0  0  0  0
    0.5836    2.1194    0.0000 H   0  0  0  0  0  0  0  0  0  0  0  0
   -0.3138    1.6122    0.0000 H   0  0  0  0  0  0  0  0  0  0  0  0
   -1.0393    2.0461    0.0000 H   0  0  0  0  0  0  0  0  0  0  0  0
   -2.6627    1.1287    0.0000 H   0  0  0  0  0  0  0  0  0  0  0  0
   -1.0559   -1.6671    0.0000 H   0  0  0  0  0  0  0  0  0  0  0  0
    0.5584   -0.7441    0.0000 H   0  0  0  0  0  0  0  0  0  0  0  0
   -3.1970    0.8581    0.0000 H   0  0  0  0  0  0  0  0  0  0  0  0
   -4.1236    0.3232    0.0000 H   0  0  0  0  0  0  0  0  0  0  0  0
   -3.9142   -1.6943    0.0000 H   0  0  0  0  0  0  0  0  0  0  0  0
   -4.8401   -1.1558    0.0000 H   0  0  0  0  0  0  0  0  0  0  0  0
   -4.6250    0.8630    0.0000 H   0  0  0  0  0  0  0  0  0  0  0  0
   -5.5533    0.3271    0.0000 H   0  0  0  0  0  0  0  0  0  0  0  0
   -6.2641   -0.0873    0.0000 H   0  0  0  0  0  0  0  0  0  0  0  0
   -5.3327   -1.6896    0.0000 H   0  0  0  0  0  0  0  0  0  0  0  0
   -6.2610   -1.1573    0.0000 H   0  0  0  0  0  0  0  0  0  0  0  0
  1  2  1  0  0  0  0
  1 14  1  0  0  0  0
  1 19  1  0  0  0  0
  1 34  1  1  0  0  0
  2  3  1  0  0  0  0
  3  4  1  0  0  0  0
  3 13  2  0  0  0  0
  4  5  1  0  0  0  0
  4  7  1  0  0  0  0
  4 35  1  6  0  0  0
  5  6  1  0  0  0  0
  5 36  1  0  0  0  0
  5 37  1  0  0  0  0
  6 38  1  0  0  0  0
  7 12  2  0  0  0  0
  8  7  1  0  0  0  0
  8 39  1  0  0  0  0
  9  8  2  0  0  0  0
  9 40  1  0  0  0  0
 10  9  1  0  0  0  0
 10 41  1  0  0  0  0
 11 10  2  0  0  0  0
 11 42  1  0  0  0  0
 12 11  1  0  0  0  0
 12 43  1  0  0  0  0
 14 15  1  0  0  0  0
 14 44  1  0  0  0  0
 14 45  1  0  0  0  0
 15 16  1  0  0  0  0
 15 20  1  0  0  0  0
 15 46  1  1  0  0  0
 16 47  1  0  0  0  0
 16 48  1  0  0  0  0
 17 16  1  0  0  0  0
 17 49  1  0  0  0  0
 17 50  1  0  0  0  0
 18 17  1  0  0  0  0
 18 20  1  0  0  0  0
 18 51  1  1  0  0  0
 19 18  1  0  0  0  0
 19 52  1  0  0  0  0
 19 53  1  0  0  0  0
 20 21  1  0  0  0  0
 20 22  1  0  0  0  0
 21 54  1  0  0  0  0
 21 55  1  0  0  0  0
 21 56  1  0  0  0  0
 22 23  1  0  0  0  0
 22 57  1  0  0  0  0
 22 58  1  0  0  0  0
 23 24  2  0  0  0  0
 24 25  1  0  0  0  0
 24 59  1  0  0  0  0
 25 26  2  0  0  0  0
 25 60  1  0  0  0  0
 26 27  1  0  0  0  0
 26 29  1  0  0  0  0
 27 28  2  0  0  0  0
 27 61  1  0  0  0  0
 28 23  1  0  0  0  0
 28 62  1  0  0  0  0
 29 30  1  0  0  0  0
 30 31  1  0  0  0  0
 30 63  1  0  0  0  0
 30 64  1  0  0  0  0
 31 32  1  0  0  0  0
 31 65  1  0  0  0  0
 31 66  1  0  0  0  0
 32 33  1  0  0  0  0
 32 67  1  0  0  0  0
 32 68  1  0  0  0  0
 33 69  1  0  0  0  0
 33 70  1  0  0  0  0
 33 71  1  0  0  0  0
M  CHG  1  20   1
M  END
>  <DRUGBANK_ID>
DB15968

>  <COMMON_NAME>
Butropium

>  <CAS_NUMBER>
107080-63-7

>  <UNII>
7WSK03KXXW

$$$$
