
 OpenBabel10282417072D

 67 71  0  0  1  0  0  0  0  0999 V2000
   -2.3751   -1.6589    0.0000 C   0  0  2  0  0  0  0  0  0  0  0  0
   -2.3751   -2.4886    0.0000 C   0  0  0  0  0  0  0  0  0  0  0  0
   -3.0777   -2.9009    0.0000 C   0  0  0  0  0  0  0  0  0  0  0  0
   -3.7940   -2.4886    0.0000 C   0  0  0  0  0  0  0  0  0  0  0  0
   -3.7940   -1.6589    0.0000 C   0  0  0  0  0  0  0  0  0  0  0  0
   -3.0777   -1.2511    0.0000 C   0  0  0  0  0  0  0  0  0  0  0  0
   -4.5147   -2.9009    0.0000 O   0  0  0  0  0  0  0  0  0  0  0  0
   -1.6544   -2.9009    0.0000 C   0  0  0  0  0  0  0  0  0  0  0  0
   -0.9337   -2.4886    0.0000 C   0  0  0  0  0  0  0  0  0  0  0  0
   -0.9337   -1.6589    0.0000 C   0  0  1  0  0  0  0  0  0  0  0  0
   -0.2311   -1.2511    0.0000 C   0  0  2  0  0  0  0  0  0  0  0  0
    0.5576   -1.5004    0.0000 C   0  0  0  0  0  0  0  0  0  0  0  0
    1.0425   -0.8339    0.0000 C   0  0  0  0  0  0  0  0  0  0  0  0
    0.5576   -0.1723    0.0000 C   0  0  1  0  0  0  0  0  0  0  0  0
   -0.2311   -0.4260    0.0000 C   0  0  1  0  0  0  0  0  0  0  0  0
   -0.9337   -0.0136    0.0000 C   0  0  0  0  0  0  0  0  0  0  0  0
   -1.6544   -0.4260    0.0000 C   0  0  0  0  0  0  0  0  0  0  0  0
   -1.6544   -1.2511    0.0000 C   0  0  2  0  0  0  0  0  0  0  0  0
   -1.6544   -2.0806    0.0000 H   0  0  0  0  0  0  0  0  0  0  0  0
   -0.2311    0.3534    0.0000 C   0  0  0  0  0  0  0  0  0  0  0  0
    0.8157    0.6118    0.0000 O   0  0  0  0  0  0  0  0  0  0  0  0
    1.5865    0.6118    0.0000 C   0  0  0  0  0  0  0  0  0  0  0  0
    1.9536    0.0679    0.0000 O   0  0  0  0  0  0  0  0  0  0  0  0
    1.9536    1.3054    0.0000 C   0  0  0  0  0  0  0  0  0  0  0  0
    2.5747    1.3054    0.0000 C   0  0  0  0  0  0  0  0  0  0  0  0
    3.0959    1.6591    0.0000 C   0  0  0  0  0  0  0  0  0  0  0  0
    3.0959    2.4929    0.0000 C   0  0  0  0  0  0  0  0  0  0  0  0
    3.8121    2.9009    0.0000 C   0  0  0  0  0  0  0  0  0  0  0  0
    4.5147    2.4929    0.0000 C   0  0  0  0  0  0  0  0  0  0  0  0
    4.5147    1.6591    0.0000 C   0  0  0  0  0  0  0  0  0  0  0  0
    3.8121    1.2510    0.0000 C   0  0  0  0  0  0  0  0  0  0  0  0
   -0.2311   -2.0624    0.0000 H   0  0  0  0  0  0  0  0  0  0  0  0
   -0.9337   -0.8386    0.0000 H   0  0  0  0  0  0  0  0  0  0  0  0
   -2.3751   -0.8339    0.0000 C   0  0  0  0  0  0  0  0  0  0  0  0
   -3.0734   -3.9329    0.0000 H   0  0  0  0  0  0  0  0  0  0  0  0
   -4.7190   -1.1211    0.0000 H   0  0  0  0  0  0  0  0  0  0  0  0
   -3.7891   -0.5889    0.0000 H   0  0  0  0  0  0  0  0  0  0  0  0
   -3.0732   -0.1811    0.0000 H   0  0  0  0  0  0  0  0  0  0  0  0
   -2.1493   -0.7191    0.0000 H   0  0  0  0  0  0  0  0  0  0  0  0
   -1.6544   -3.9709    0.0000 H   0  0  0  0  0  0  0  0  0  0  0  0
   -0.7288   -3.4377    0.0000 H   0  0  0  0  0  0  0  0  0  0  0  0
   -0.0081   -3.0254    0.0000 H   0  0  0  0  0  0  0  0  0  0  0  0
   -0.0065   -1.9545    0.0000 H   0  0  0  0  0  0  0  0  0  0  0  0
    0.8920   -2.5168    0.0000 H   0  0  0  0  0  0  0  0  0  0  0  0
    1.6147   -1.6662    0.0000 H   0  0  0  0  0  0  0  0  0  0  0  0
    2.1125   -0.8320    0.0000 H   0  0  0  0  0  0  0  0  0  0  0  0
    1.5254    0.1209    0.0000 H   0  0  0  0  0  0  0  0  0  0  0  0
    1.6144   -0.0047    0.0000 H   0  0  0  0  0  0  0  0  0  0  0  0
   -0.9278    1.0564    0.0000 H   0  0  0  0  0  0  0  0  0  0  0  0
   -1.8578    0.5257    0.0000 H   0  0  0  0  0  0  0  0  0  0  0  0
   -2.5800    0.1108    0.0000 H   0  0  0  0  0  0  0  0  0  0  0  0
   -2.5816   -0.9601    0.0000 H   0  0  0  0  0  0  0  0  0  0  0  0
    0.6955    0.8884    0.0000 H   0  0  0  0  0  0  0  0  0  0  0  0
   -1.1577    0.8884    0.0000 H   0  0  0  0  0  0  0  0  0  0  0  0
   -0.2311    1.4234    0.0000 H   0  0  0  0  0  0  0  0  0  0  0  0
    1.4016    2.2220    0.0000 H   0  0  0  0  0  0  0  0  0  0  0  0
    2.4800    2.2369    0.0000 H   0  0  0  0  0  0  0  0  0  0  0  0
    2.8890    0.2826    0.0000 H   0  0  0  0  0  0  0  0  0  0  0  0
    3.5841    0.9504    0.0000 H   0  0  0  0  0  0  0  0  0  0  0  0
    2.2037    3.0115    0.0000 H   0  0  0  0  0  0  0  0  0  0  0  0
    3.8164    3.9329    0.0000 H   0  0  0  0  0  0  0  0  0  0  0  0
    5.4091    3.0078    0.0000 H   0  0  0  0  0  0  0  0  0  0  0  0
    5.4091    1.1443    0.0000 H   0  0  0  0  0  0  0  0  0  0  0  0
    3.8164    0.2190    0.0000 H   0  0  0  0  0  0  0  0  0  0  0  0
   -1.4485   -0.2989    0.0000 H   0  0  0  0  0  0  0  0  0  0  0  0
   -3.3017   -0.2989    0.0000 H   0  0  0  0  0  0  0  0  0  0  0  0
   -2.3751    0.2361    0.0000 H   0  0  0  0  0  0  0  0  0  0  0  0
  1 34  1  1  0  0  0
  2  1  1  0  0  0  0
  3  2  2  0  0  0  0
  3  4  1  0  0  0  0
  3 35  1  0  0  0  0
  4  5  1  0  0  0  0
  5  6  1  0  0  0  0
  5 36  1  0  0  0  0
  5 37  1  0  0  0  0
  6  1  1  0  0  0  0
  6 38  1  0  0  0  0
  6 39  1  0  0  0  0
  7  4  2  0  0  0  0
  8  2  1  0  0  0  0
  8 40  1  0  0  0  0
  8 41  1  0  0  0  0
  9  8  1  0  0  0  0
  9 10  1  0  0  0  0
  9 42  1  0  0  0  0
  9 43  1  0  0  0  0
 10 18  1  0  0  0  0
 10 33  1  1  0  0  0
 11 10  1  0  0  0  0
 11 32  1  6  0  0  0
 12 11  1  0  0  0  0
 12 44  1  0  0  0  0
 12 45  1  0  0  0  0
 13 12  1  0  0  0  0
 13 46  1  0  0  0  0
 13 47  1  0  0  0  0
 14 13  1  0  0  0  0
 14 15  1  0  0  0  0
 14 21  1  0  0  0  0
 14 48  1  6  0  0  0
 15 16  1  0  0  0  0
 15 20  1  1  0  0  0
 15 11  1  0  0  0  0
 16 17  1  0  0  0  0
 16 49  1  0  0  0  0
 16 50  1  0  0  0  0
 17 18  1  0  0  0  0
 17 51  1  0  0  0  0
 17 52  1  0  0  0  0
 18  1  1  0  0  0  0
 18 19  1  6  0  0  0
 20 53  1  0  0  0  0
 20 54  1  0  0  0  0
 20 55  1  0  0  0  0
 22 21  1  0  0  0  0
 23 22  2  0  0  0  0
 24 22  1  0  0  0  0
 24 56  1  0  0  0  0
 24 57  1  0  0  0  0
 25 24  1  0  0  0  0
 25 58  1  0  0  0  0
 25 59  1  0  0  0  0
 26 25  1  0  0  0  0
 27 26  2  0  0  0  0
 27 60  1  0  0  0  0
 28 27  1  0  0  0  0
 28 61  1  0  0  0  0
 29 28  2  0  0  0  0
 29 30  1  0  0  0  0
 29 62  1  0  0  0  0
 30 31  2  0  0  0  0
 30 63  1  0  0  0  0
 31 26  1  0  0  0  0
 31 64  1  0  0  0  0
 34 65  1  0  0  0  0
 34 66  1  0  0  0  0
 34 67  1  0  0  0  0
M  END
>  <DRUGBANK_ID>
DB16003

>  <COMMON_NAME>
Testosterone phenylpropionate

>  <CAS_NUMBER>
1255-49-8

>  <UNII>
8GN84GWX51

$$$$
