911
 OpenBabel10282417072D

 29 29  0  0  0  0  0  0  0  0999 V2000
    2.4751   -1.0473    0.0000 S   0  0  0  0  0  0  0  0  0  0  0  0
    3.3001   -1.0473    0.0000 O   0  0  0  0  0  0  0  0  0  0  0  0
    1.6500   -1.0473    0.0000 O   0  0  0  0  0  0  0  0  0  0  0  0
    5.2547    1.7973    0.0000 O   0  5  0  0  0  0  0  0  0  0  0  0
    4.8132    0.4383    0.0000 O   0  0  0  0  0  0  0  0  0  0  0  0
    3.1895    1.0153    0.0000 N   0  0  0  0  0  0  0  0  0  0  0  0
    2.7770    2.2848    0.0000 N   0  0  0  0  0  0  0  0  0  0  0  0
    4.6417    1.2452    0.0000 N   0  3  0  0  0  0  0  0  0  0  0  0
    2.4751   -0.2223    0.0000 C   0  0  0  0  0  0  0  0  0  0  0  0
    3.1895    0.1903    0.0000 C   0  0  0  0  0  0  0  0  0  0  0  0
    2.4751   -1.8723    0.0000 C   0  0  0  0  0  0  0  0  0  0  0  0
    2.5221    1.5002    0.0000 C   0  0  0  0  0  0  0  0  0  0  0  0
    3.8570    1.5002    0.0000 C   0  0  0  0  0  0  0  0  0  0  0  0
    1.7606   -2.2848    0.0000 C   0  0  0  0  0  0  0  0  0  0  0  0
    3.6021    2.2848    0.0000 C   0  0  0  0  0  0  0  0  0  0  0  0
    1.7375    1.2452    0.0000 C   0  0  0  0  0  0  0  0  0  0  0  0
    1.5484    0.3126    0.0000 H   0  0  0  0  0  0  0  0  0  0  0  0
    2.4750    0.8477    0.0000 H   0  0  0  0  0  0  0  0  0  0  0  0
    4.1162   -0.3446    0.0000 H   0  0  0  0  0  0  0  0  0  0  0  0
    3.1896   -0.8797    0.0000 H   0  0  0  0  0  0  0  0  0  0  0  0
    3.4017   -2.4073    0.0000 H   0  0  0  0  0  0  0  0  0  0  0  0
    2.4751   -2.9423    0.0000 H   0  0  0  0  0  0  0  0  0  0  0  0
    0.8340   -1.7498    0.0000 H   0  0  0  0  0  0  0  0  0  0  0  0
    1.7606   -3.3548    0.0000 H   0  0  0  0  0  0  0  0  0  0  0  0
    0.8339   -2.8198    0.0000 H   0  0  0  0  0  0  0  0  0  0  0  0
    4.2087    3.1197    0.0000 H   0  0  0  0  0  0  0  0  0  0  0  0
    0.9423    1.9611    0.0000 H   0  0  0  0  0  0  0  0  0  0  0  0
    1.5151    0.1986    0.0000 H   0  0  0  0  0  0  0  0  0  0  0  0
    0.7199    0.9145    0.0000 H   0  0  0  0  0  0  0  0  0  0  0  0
  1  2  2  0  0  0  0
  1  3  2  0  0  0  0
  1  9  1  0  0  0  0
  1 11  1  0  0  0  0
  4  8  1  0  0  0  0
  5  8  2  0  0  0  0
  6 10  1  0  0  0  0
  6 12  1  0  0  0  0
  6 13  1  0  0  0  0
  7 12  2  0  0  0  0
  7 15  1  0  0  0  0
  8 13  1  0  0  0  0
  9 10  1  0  0  0  0
  9 17  1  0  0  0  0
  9 18  1  0  0  0  0
 10 19  1  0  0  0  0
 10 20  1  0  0  0  0
 11 14  1  0  0  0  0
 11 21  1  0  0  0  0
 11 22  1  0  0  0  0
 12 16  1  0  0  0  0
 13 15  2  0  0  0  0
 14 23  1  0  0  0  0
 14 24  1  0  0  0  0
 14 25  1  0  0  0  0
 15 26  1  0  0  0  0
 16 27  1  0  0  0  0
 16 28  1  0  0  0  0
 16 29  1  0  0  0  0
M  CHG  2   4  -1   8   1
M  END
>  <DRUGBANK_ID>
DB00911

>  <SECONDARY_ACCESSION_NUMBERS>
APRD01260

>  <COMMON_NAME>
Tinidazole

>  <CAS_NUMBER>
19387-91-8

>  <UNII>
033KF7V46H

>  <SYNONYMS>
1-(2-(Ethylsulfonyl)ethyl)-2-methyl-5-nitroimidazole; Timidazole; Tinidazol; Tinidazole; Tinidazolum

$$$$
