
 OpenBabel10282417072D

 43 46  0  0  0  0  0  0  0  0999 V2000
    5.4957    3.1729    0.0000 C   0  0  0  0  0  0  0  0  0  0  0  0
    5.4957    2.3479    0.0000 C   0  0  0  0  0  0  0  0  0  0  0  0
    4.7812    1.9354    0.0000 C   0  0  0  0  0  0  0  0  0  0  0  0
    4.0668    2.3479    0.0000 C   0  0  0  0  0  0  0  0  0  0  0  0
    4.0668    3.1729    0.0000 C   0  0  0  0  0  0  0  0  0  0  0  0
    4.7812    3.5854    0.0000 C   0  0  0  0  0  0  0  0  0  0  0  0
    3.3523    1.9354    0.0000 C   0  0  0  0  0  0  0  0  0  0  0  0
    3.3523    1.1104    0.0000 N   0  0  0  0  0  0  0  0  0  0  0  0
    2.6378    0.6979    0.0000 C   0  0  0  0  0  0  0  0  0  0  0  0
    1.9233    1.1104    0.0000 C   0  0  0  0  0  0  0  0  0  0  0  0
    1.9233    1.9354    0.0000 C   0  0  0  0  0  0  0  0  0  0  0  0
    2.6378    2.3479    0.0000 N   0  0  0  0  0  0  0  0  0  0  0  0
    1.1387    2.1904    0.0000 N   0  0  0  0  0  0  0  0  0  0  0  0
    0.6538    1.5229    0.0000 C   0  0  0  0  0  0  0  0  0  0  0  0
    1.1387    0.8555    0.0000 C   0  0  0  0  0  0  0  0  0  0  0  0
    2.6378   -0.1271    0.0000 N   0  0  0  0  0  0  0  0  0  0  0  0
    1.9233   -0.5396    0.0000 C   0  0  1  0  0  0  0  0  0  0  0  0
    1.9233   -1.3646    0.0000 C   0  0  0  0  0  0  0  0  0  0  0  0
    1.2089   -1.7771    0.0000 C   0  0  0  0  0  0  0  0  0  0  0  0
    0.4944   -1.3646    0.0000 C   0  0  1  0  0  0  0  0  0  0  0  0
    0.4944   -0.5396    0.0000 C   0  0  0  0  0  0  0  0  0  0  0  0
    1.2089   -0.1271    0.0000 C   0  0  0  0  0  0  0  0  0  0  0  0
   -0.2201   -1.7771    0.0000 O   0  0  0  0  0  0  0  0  0  0  0  0
    6.3894    3.6889    0.0000 H   0  0  0  0  0  0  0  0  0  0  0  0
    6.3894    1.8319    0.0000 H   0  0  0  0  0  0  0  0  0  0  0  0
    4.7812    0.9034    0.0000 H   0  0  0  0  0  0  0  0  0  0  0  0
    3.1731    3.6889    0.0000 H   0  0  0  0  0  0  0  0  0  0  0  0
    4.7812    4.6174    0.0000 H   0  0  0  0  0  0  0  0  0  0  0  0
    0.8345    3.1267    0.0000 H   0  0  0  0  0  0  0  0  0  0  0  0
   -0.3782    1.5229    0.0000 H   0  0  0  0  0  0  0  0  0  0  0  0
    0.8198   -0.1260    0.0000 H   0  0  0  0  0  0  0  0  0  0  0  0
    3.4904   -0.6194    0.0000 H   0  0  0  0  0  0  0  0  0  0  0  0
    2.8499   -1.0746    0.0000 H   0  0  0  0  0  0  0  0  0  0  0  0
    2.8500   -1.8996    0.0000 H   0  0  0  0  0  0  0  0  0  0  0  0
    1.9233   -2.4346    0.0000 H   0  0  0  0  0  0  0  0  0  0  0  0
    1.2089   -2.8471    0.0000 H   0  0  0  0  0  0  0  0  0  0  0  0
    0.2823   -2.3121    0.0000 H   0  0  0  0  0  0  0  0  0  0  0  0
    0.4944   -2.4346    0.0000 H   0  0  0  0  0  0  0  0  0  0  0  0
   -0.4322   -0.0046    0.0000 H   0  0  0  0  0  0  0  0  0  0  0  0
    0.4944    0.5304    0.0000 H   0  0  0  0  0  0  0  0  0  0  0  0
    1.2089    0.9429    0.0000 H   0  0  0  0  0  0  0  0  0  0  0  0
    2.1356    0.4079    0.0000 H   0  0  0  0  0  0  0  0  0  0  0  0
   -1.0601   -1.2921    0.0000 H   0  0  0  0  0  0  0  0  0  0  0  0
  1  2  2  0  0  0  0
  1  6  1  0  0  0  0
  1 24  1  0  0  0  0
  2  3  1  0  0  0  0
  2 25  1  0  0  0  0
  3  4  2  0  0  0  0
  3 26  1  0  0  0  0
  4  5  1  0  0  0  0
  4  7  1  0  0  0  0
  5  6  2  0  0  0  0
  5 27  1  0  0  0  0
  6 28  1  0  0  0  0
  7  8  2  0  0  0  0
  7 12  1  0  0  0  0
  8  9  1  0  0  0  0
  9 10  2  0  0  0  0
  9 16  1  0  0  0  0
 10 11  1  0  0  0  0
 10 15  1  0  0  0  0
 11 12  2  0  0  0  0
 11 13  1  0  0  0  0
 13 14  1  0  0  0  0
 13 29  1  0  0  0  0
 14 15  2  0  0  0  0
 14 30  1  0  0  0  0
 15 31  1  0  0  0  0
 16 32  1  0  0  0  0
 17 16  1  0  0  0  0
 17 18  1  0  0  0  0
 17 22  1  0  0  0  0
 17 33  1  6  0  0  0
 18 19  1  0  0  0  0
 18 34  1  0  0  0  0
 18 35  1  0  0  0  0
 19 20  1  0  0  0  0
 19 36  1  0  0  0  0
 19 37  1  0  0  0  0
 20 21  1  0  0  0  0
 20 23  1  0  0  0  0
 20 38  1  1  0  0  0
 21 22  1  0  0  0  0
 21 39  1  0  0  0  0
 21 40  1  0  0  0  0
 22 41  1  0  0  0  0
 22 42  1  0  0  0  0
 23 43  1  0  0  0  0
M  END
>  <DRUGBANK_ID>
DB12446

>  <COMMON_NAME>
Derenofylline

>  <CAS_NUMBER>
251945-92-3

>  <UNII>
O1Q96UZ63W

>  <SYNONYMS>
Derenofylline

$$$$
