
 OpenBabel10282417072D

 46 48  0  0  1  0  0  0  0  0999 V2000
    2.5742    0.4423    0.0000 N   0  0  0  0  0  0  0  0  0  0  0  0
    3.2064    0.0034    0.0000 C   0  0  0  0  0  0  0  0  0  0  0  0
    1.8105    0.1935    0.0000 C   0  0  2  0  0  0  0  0  0  0  0  0
    2.8574    1.2715    0.0000 C   0  0  0  0  0  0  0  0  0  0  0  0
    3.9389    0.5425    0.0000 C   0  0  0  0  0  0  0  0  0  0  0  0
    3.2859   -0.8431    0.0000 N   0  0  0  0  0  0  0  0  0  0  0  0
    1.1333    0.6980    0.0000 O   0  0  0  0  0  0  0  0  0  0  0  0
    1.5514   -0.5528    0.0000 C   0  0  0  0  0  0  0  0  0  0  0  0
    3.7177    1.2680    0.0000 N   0  0  0  0  0  0  0  0  0  0  0  0
    4.6853    0.2107    0.0000 C   0  0  0  0  0  0  0  0  0  0  0  0
    4.0737   -1.1921    0.0000 C   0  0  0  0  0  0  0  0  0  0  0  0
    0.4769    0.2281    0.0000 C   0  0  1  0  0  0  0  0  0  0  0  0
    0.7325   -0.5528    0.0000 C   0  0  1  0  0  0  0  0  0  0  0  0
    4.7786   -0.6703    0.0000 N   0  0  0  0  0  0  0  0  0  0  0  0
    5.3417    0.7014    0.0000 N   0  0  0  0  0  0  0  0  0  0  0  0
   -0.3075    0.4838    0.0000 C   0  0  0  0  0  0  0  0  0  0  0  0
    0.4664   -1.3337    0.0000 O   0  0  0  0  0  0  0  0  0  0  0  0
   -0.9260   -0.0725    0.0000 O   0  0  0  0  0  0  0  0  0  0  0  0
   -1.7552   -0.0725    0.0000 P   0  0  3  0  0  0  0  0  0  0  0  0
   -2.5811   -0.0725    0.0000 O   0  0  0  0  0  0  0  0  0  0  0  0
   -1.7587   -0.8984    0.0000 O   0  0  0  0  0  0  0  0  0  0  0  0
   -1.7587    0.7532    0.0000 O   0  0  0  0  0  0  0  0  0  0  0  0
   -3.4068   -0.0691    0.0000 P   0  0  3  0  0  0  0  0  0  0  0  0
   -4.2326   -0.0691    0.0000 O   0  0  0  0  0  0  0  0  0  0  0  0
   -3.4102   -0.8949    0.0000 O   0  0  0  0  0  0  0  0  0  0  0  0
   -3.4102    0.7567    0.0000 O   0  0  0  0  0  0  0  0  0  0  0  0
   -5.0618   -0.0656    0.0000 P   0  0  0  0  0  0  0  0  0  0  0  0
   -5.0653   -0.8915    0.0000 O   0  0  0  0  0  0  0  0  0  0  0  0
   -5.8877   -0.0587    0.0000 O   0  0  0  0  0  0  0  0  0  0  0  0
   -5.0653    0.7636    0.0000 O   0  0  0  0  0  0  0  0  0  0  0  0
    1.9838    1.2494    0.0000 H   0  0  0  0  0  0  0  0  0  0  0  0
    2.2588    2.1121    0.0000 H   0  0  0  0  0  0  0  0  0  0  0  0
    2.1716   -1.4247    0.0000 H   0  0  0  0  0  0  0  0  0  0  0  0
    1.0609   -1.5037    0.0000 H   0  0  0  0  0  0  0  0  0  0  0  0
    4.1871   -2.2179    0.0000 H   0  0  0  0  0  0  0  0  0  0  0  0
    0.3137    1.2856    0.0000 H   0  0  0  0  0  0  0  0  0  0  0  0
    1.3552   -1.4229    0.0000 H   0  0  0  0  0  0  0  0  0  0  0  0
    6.2465    0.3133    0.0000 H   0  0  0  0  0  0  0  0  0  0  0  0
    5.2255    1.6790    0.0000 H   0  0  0  0  0  0  0  0  0  0  0  0
   -0.5292    1.5306    0.0000 H   0  0  0  0  0  0  0  0  0  0  0  0
   -1.3249    0.8151    0.0000 H   0  0  0  0  0  0  0  0  0  0  0  0
   -0.4852   -1.5218    0.0000 H   0  0  0  0  0  0  0  0  0  0  0  0
   -2.6008   -1.3798    0.0000 H   0  0  0  0  0  0  0  0  0  0  0  0
   -4.2522   -1.3764    0.0000 H   0  0  0  0  0  0  0  0  0  0  0  0
   -5.9074   -1.3729    0.0000 H   0  0  0  0  0  0  0  0  0  0  0  0
   -6.3657    0.7854    0.0000 H   0  0  0  0  0  0  0  0  0  0  0  0
  1  2  1  0  0  0  0
  1  4  1  0  0  0  0
  2  5  2  0  0  0  0
  2  6  1  0  0  0  0
  3  1  1  0  0  0  0
  3  7  1  0  0  0  0
  3  8  1  0  0  0  0
  3 31  1  6  0  0  0
  4  9  2  0  0  0  0
  4 32  1  0  0  0  0
  5 10  1  0  0  0  0
  5  9  1  0  0  0  0
  6 11  2  0  0  0  0
  7 12  1  0  0  0  0
  8 13  1  0  0  0  0
  8 33  1  0  0  0  0
  8 34  1  0  0  0  0
 10 14  2  0  0  0  0
 10 15  1  0  0  0  0
 11 14  1  0  0  0  0
 11 35  1  0  0  0  0
 12 16  1  0  0  0  0
 12 13  1  0  0  0  0
 12 36  1  6  0  0  0
 13 17  1  0  0  0  0
 13 37  1  1  0  0  0
 15 38  1  0  0  0  0
 15 39  1  0  0  0  0
 16 18  1  0  0  0  0
 16 40  1  0  0  0  0
 16 41  1  0  0  0  0
 17 42  1  0  0  0  0
 18 19  1  0  0  0  0
 19 20  1  0  0  0  0
 19 21  1  0  0  0  0
 19 22  2  0  0  0  0
 20 23  1  0  0  0  0
 21 43  1  0  0  0  0
 23 24  1  0  0  0  0
 23 25  1  0  0  0  0
 23 26  2  0  0  0  0
 24 27  1  0  0  0  0
 25 44  1  0  0  0  0
 27 28  1  0  0  0  0
 27 29  1  0  0  0  0
 27 30  2  0  0  0  0
 28 45  1  0  0  0  0
 29 46  1  0  0  0  0
M  END
>  <DRUGBANK_ID>
DB03222

>  <SECONDARY_ACCESSION_NUMBERS>
EXPT01288

>  <COMMON_NAME>
dATP

>  <CAS_NUMBER>
1927-31-7

>  <UNII>
K8KCC8SH6N

>  <SYNONYMS>
2'-Deoxyadenosine 5'-triphosphate; Deoxyadenosine 5'-triphosphate; Deoxyadenosine triphosphate

$$$$
