
 OpenBabel10282417072D

 40 40  0  0  0  0  0  0  0  0999 V2000
    2.4558   -0.6114    0.0000 C   0  0  0  0  0  0  0  0  0  0  0  0
    2.4558   -1.4364    0.0000 C   0  0  0  0  0  0  0  0  0  0  0  0
    3.1232   -1.9213    0.0000 N   0  0  0  0  0  0  0  0  0  0  0  0
    2.8683   -2.7059    0.0000 C   0  0  0  0  0  0  0  0  0  0  0  0
    2.0433   -2.7059    0.0000 C   0  0  0  0  0  0  0  0  0  0  0  0
    1.7883   -1.9213    0.0000 N   0  0  0  0  0  0  0  0  0  0  0  0
    1.0037   -1.6663    0.0000 C   0  0  0  0  0  0  0  0  0  0  0  0
    0.8322   -0.8594    0.0000 C   0  0  0  0  0  0  0  0  0  0  0  0
    0.0476   -0.6044    0.0000 C   0  0  0  0  0  0  0  0  0  0  0  0
   -0.1240    0.2025    0.0000 C   0  0  0  0  0  0  0  0  0  0  0  0
    0.4891    0.7546    0.0000 C   0  0  0  0  0  0  0  0  0  0  0  0
    1.2737    0.4996    0.0000 N   0  0  0  0  0  0  0  0  0  0  0  0
    1.4453   -0.3073    0.0000 N   0  0  0  0  0  0  0  0  0  0  0  0
   -0.9086    0.4575    0.0000 C   0  0  0  0  0  0  0  0  0  0  0  0
   -1.5217   -0.0946    0.0000 C   0  0  0  0  0  0  0  0  0  0  0  0
   -2.3063    0.1604    0.0000 C   0  0  0  0  0  0  0  0  0  0  0  0
   -2.4778    0.9674    0.0000 C   0  0  0  0  0  0  0  0  0  0  0  0
   -1.8647    1.5194    0.0000 C   0  0  0  0  0  0  0  0  0  0  0  0
   -1.0801    1.2644    0.0000 C   0  0  0  0  0  0  0  0  0  0  0  0
   -2.0363    2.3264    0.0000 C   0  0  0  0  0  0  0  0  0  0  0  0
   -2.8209    2.5813    0.0000 F   0  0  0  0  0  0  0  0  0  0  0  0
   -1.4232    2.8784    0.0000 F   0  0  0  0  0  0  0  0  0  0  0  0
   -3.2625    1.2223    0.0000 F   0  0  0  0  0  0  0  0  0  0  0  0
    5.1268    0.0000    0.0000 Cl  0  0  0  0  0  0  0  0  0  0  0  0
    0.0000   -4.3559    0.0000 Cl  0  0  0  0  0  0  0  0  0  0  0  0
    3.3824   -0.0764    0.0000 H   0  0  0  0  0  0  0  0  0  0  0  0
    1.5292   -0.0764    0.0000 H   0  0  0  0  0  0  0  0  0  0  0  0
    2.4558    0.4586    0.0000 H   0  0  0  0  0  0  0  0  0  0  0  0
    3.4749   -3.5408    0.0000 H   0  0  0  0  0  0  0  0  0  0  0  0
    1.4367   -3.5408    0.0000 H   0  0  0  0  0  0  0  0  0  0  0  0
    0.2085   -2.3822    0.0000 H   0  0  0  0  0  0  0  0  0  0  0  0
   -0.0139   -1.3356    0.0000 H   0  0  0  0  0  0  0  0  0  0  0  0
   -0.7193   -1.2950    0.0000 H   0  0  0  0  0  0  0  0  0  0  0  0
    0.2745    1.7641    0.0000 H   0  0  0  0  0  0  0  0  0  0  0  0
   -1.3071   -1.1041    0.0000 H   0  0  0  0  0  0  0  0  0  0  0  0
   -3.0733   -0.5301    0.0000 H   0  0  0  0  0  0  0  0  0  0  0  0
   -0.3131    1.9549    0.0000 H   0  0  0  0  0  0  0  0  0  0  0  0
   -2.2588    3.3730    0.0000 H   0  0  0  0  0  0  0  0  0  0  0  0
    6.3548    0.0000    0.0000 H   0  0  0  0  0  0  0  0  0  0  0  0
    1.2280   -4.3559    0.0000 H   0  0  0  0  0  0  0  0  0  0  0  0
  1  2  1  0  0  0  0
  1 26  1  0  0  0  0
  1 27  1  0  0  0  0
  1 28  1  0  0  0  0
  2  3  2  0  0  0  0
  2  6  1  0  0  0  0
  3  4  1  0  0  0  0
  4  5  2  0  0  0  0
  4 29  1  0  0  0  0
  5  6  1  0  0  0  0
  5 30  1  0  0  0  0
  6  7  1  0  0  0  0
  7  8  1  0  0  0  0
  7 31  1  0  0  0  0
  7 32  1  0  0  0  0
  8  9  2  0  0  0  0
  8 13  1  0  0  0  0
  9 10  1  0  0  0  0
  9 33  1  0  0  0  0
 10 11  2  0  0  0  0
 10 14  1  0  0  0  0
 11 12  1  0  0  0  0
 11 34  1  0  0  0  0
 12 13  2  0  0  0  0
 14 15  2  0  0  0  0
 14 19  1  0  0  0  0
 15 16  1  0  0  0  0
 15 35  1  0  0  0  0
 16 17  2  0  0  0  0
 16 36  1  0  0  0  0
 17 18  1  0  0  0  0
 17 23  1  0  0  0  0
 18 19  2  0  0  0  0
 18 20  1  0  0  0  0
 19 37  1  0  0  0  0
 20 21  1  0  0  0  0
 20 22  1  0  0  0  0
 20 38  1  0  0  0  0
 24 39  1  0  0  0  0
 25 40  1  0  0  0  0
M  END
>  <DRUGBANK_ID>
DB05956

>  <COMMON_NAME>
EVT-101

>  <CAS_NUMBER>
1189088-41-2

>  <UNII>
B55T45AA8F

$$$$
