
 OpenBabel10282417072D

 89 89  0  0  0  0  0  0  0  0999 V2000
   -0.7145    0.4125    0.0000 C   0  0  0  0  0  0  0  0  0  0  0  0
   -1.4289    0.8250    0.0000 C   0  0  0  0  0  0  0  0  0  0  0  0
   -2.1434    0.4125    0.0000 C   0  0  0  0  0  0  0  0  0  0  0  0
   -1.4289    1.6500    0.0000 O   0  0  0  0  0  0  0  0  0  0  0  0
   -0.7145    2.0625    0.0000 P   0  0  0  0  0  0  0  0  0  0  0  0
   -0.3020    1.3480    0.0000 O   0  0  0  0  0  0  0  0  0  0  0  0
    0.0000    2.4750    0.0000 C   0  0  0  0  0  0  0  0  0  0  0  0
    0.7145    2.0625    0.0000 C   0  0  0  0  0  0  0  0  0  0  0  0
    0.7145    1.2375    0.0000 C   0  0  0  0  0  0  0  0  0  0  0  0
    1.4289    0.8250    0.0000 C   0  0  0  0  0  0  0  0  0  0  0  0
    1.4289   -0.0000    0.0000 C   0  0  0  0  0  0  0  0  0  0  0  0
    0.7145   -0.4125    0.0000 C   0  0  0  0  0  0  0  0  0  0  0  0
    0.0000    0.0000    0.0000 C   0  0  0  0  0  0  0  0  0  0  0  0
    0.0000    0.8250    0.0000 C   0  0  0  0  0  0  0  0  0  0  0  0
   -0.7145   -0.4125    0.0000 C   0  0  0  0  0  0  0  0  0  0  0  0
   -1.4289   -0.8250    0.0000 C   0  0  0  0  0  0  0  0  0  0  0  0
   -1.1270    0.3020    0.0000 C   0  0  0  0  0  0  0  0  0  0  0  0
   -0.3020   -1.1270    0.0000 C   0  0  0  0  0  0  0  0  0  0  0  0
    0.7145   -1.2375    0.0000 O   0  0  0  0  0  0  0  0  0  0  0  0
    2.1434   -0.4125    0.0000 C   0  0  0  0  0  0  0  0  0  0  0  0
    2.8579   -0.8250    0.0000 C   0  0  0  0  0  0  0  0  0  0  0  0
    1.7309   -1.1270    0.0000 C   0  0  0  0  0  0  0  0  0  0  0  0
    2.5559    0.3020    0.0000 C   0  0  0  0  0  0  0  0  0  0  0  0
    0.0000    3.3000    0.0000 P   0  0  0  0  0  0  0  0  0  0  0  0
   -0.8250    3.3000    0.0000 O   0  0  0  0  0  0  0  0  0  0  0  0
    0.0000    4.1250    0.0000 O   0  0  0  0  0  0  0  0  0  0  0  0
   -0.7145    4.5375    0.0000 C   0  0  0  0  0  0  0  0  0  0  0  0
   -0.7145    5.3625    0.0000 C   0  0  0  0  0  0  0  0  0  0  0  0
   -1.4289    4.1250    0.0000 C   0  0  0  0  0  0  0  0  0  0  0  0
    0.8250    3.3000    0.0000 O   0  0  0  0  0  0  0  0  0  0  0  0
    1.2375    4.0145    0.0000 C   0  0  0  0  0  0  0  0  0  0  0  0
    2.0625    4.0145    0.0000 C   0  0  0  0  0  0  0  0  0  0  0  0
    0.8250    4.7289    0.0000 C   0  0  0  0  0  0  0  0  0  0  0  0
   -1.1270    2.7770    0.0000 O   0  0  0  0  0  0  0  0  0  0  0  0
   -1.9520    2.7770    0.0000 C   0  0  0  0  0  0  0  0  0  0  0  0
   -2.3645    3.4914    0.0000 C   0  0  0  0  0  0  0  0  0  0  0  0
   -2.3645    2.0625    0.0000 C   0  0  0  0  0  0  0  0  0  0  0  0
   -0.7145   -0.6575    0.0000 H   0  0  0  0  0  0  0  0  0  0  0  0
    0.2122    0.9475    0.0000 H   0  0  0  0  0  0  0  0  0  0  0  0
    0.2121   -0.1225    0.0000 H   0  0  0  0  0  0  0  0  0  0  0  0
   -2.3555    1.3600    0.0000 H   0  0  0  0  0  0  0  0  0  0  0  0
   -3.0700    0.9475    0.0000 H   0  0  0  0  0  0  0  0  0  0  0  0
   -2.1434   -0.6575    0.0000 H   0  0  0  0  0  0  0  0  0  0  0  0
   -3.0701   -0.1225    0.0000 H   0  0  0  0  0  0  0  0  0  0  0  0
    0.9266    3.0100    0.0000 H   0  0  0  0  0  0  0  0  0  0  0  0
    1.6411    2.5975    0.0000 H   0  0  0  0  0  0  0  0  0  0  0  0
    1.6411    1.5275    0.0000 H   0  0  0  0  0  0  0  0  0  0  0  0
    2.3226    1.3410    0.0000 H   0  0  0  0  0  0  0  0  0  0  0  0
   -0.8937    1.3410    0.0000 H   0  0  0  0  0  0  0  0  0  0  0  0
   -2.3556   -0.2900    0.0000 H   0  0  0  0  0  0  0  0  0  0  0  0
   -1.4289   -1.8950    0.0000 H   0  0  0  0  0  0  0  0  0  0  0  0
   -2.3555   -1.3600    0.0000 H   0  0  0  0  0  0  0  0  0  0  0  0
   -0.5920    1.2286    0.0000 H   0  0  0  0  0  0  0  0  0  0  0  0
   -2.1970    0.3020    0.0000 H   0  0  0  0  0  0  0  0  0  0  0  0
   -1.6620    1.2287    0.0000 H   0  0  0  0  0  0  0  0  0  0  0  0
   -0.8370   -2.0536    0.0000 H   0  0  0  0  0  0  0  0  0  0  0  0
    0.7680   -1.1270    0.0000 H   0  0  0  0  0  0  0  0  0  0  0  0
    0.2330   -2.0537    0.0000 H   0  0  0  0  0  0  0  0  0  0  0  0
   -0.0970   -1.7060    0.0000 H   0  0  0  0  0  0  0  0  0  0  0  0
    2.8579   -1.8950    0.0000 H   0  0  0  0  0  0  0  0  0  0  0  0
    3.7845   -0.2900    0.0000 H   0  0  0  0  0  0  0  0  0  0  0  0
    3.7846   -1.3600    0.0000 H   0  0  0  0  0  0  0  0  0  0  0  0
    0.6609   -1.1270    0.0000 H   0  0  0  0  0  0  0  0  0  0  0  0
    2.2659   -2.0536    0.0000 H   0  0  0  0  0  0  0  0  0  0  0  0
    1.1959   -2.0537    0.0000 H   0  0  0  0  0  0  0  0  0  0  0  0
    3.6259    0.3020    0.0000 H   0  0  0  0  0  0  0  0  0  0  0  0
    2.0209    1.2286    0.0000 H   0  0  0  0  0  0  0  0  0  0  0  0
    3.0909    1.2287    0.0000 H   0  0  0  0  0  0  0  0  0  0  0  0
   -1.6412    5.0725    0.0000 H   0  0  0  0  0  0  0  0  0  0  0  0
    0.2121    5.8975    0.0000 H   0  0  0  0  0  0  0  0  0  0  0  0
   -1.6411    5.8975    0.0000 H   0  0  0  0  0  0  0  0  0  0  0  0
   -0.7145    6.4325    0.0000 H   0  0  0  0  0  0  0  0  0  0  0  0
   -2.3556    4.6600    0.0000 H   0  0  0  0  0  0  0  0  0  0  0  0
   -1.4289    3.0550    0.0000 H   0  0  0  0  0  0  0  0  0  0  0  0
   -2.3555    3.5900    0.0000 H   0  0  0  0  0  0  0  0  0  0  0  0
    1.7725    4.9412    0.0000 H   0  0  0  0  0  0  0  0  0  0  0  0
    2.5975    3.0879    0.0000 H   0  0  0  0  0  0  0  0  0  0  0  0
    2.5975    4.9411    0.0000 H   0  0  0  0  0  0  0  0  0  0  0  0
    3.1325    4.0145    0.0000 H   0  0  0  0  0  0  0  0  0  0  0  0
    1.3600    5.6556    0.0000 H   0  0  0  0  0  0  0  0  0  0  0  0
   -0.2450    4.7289    0.0000 H   0  0  0  0  0  0  0  0  0  0  0  0
    0.2900    5.6555    0.0000 H   0  0  0  0  0  0  0  0  0  0  0  0
   -3.0220    2.7770    0.0000 H   0  0  0  0  0  0  0  0  0  0  0  0
   -1.8295    4.4181    0.0000 H   0  0  0  0  0  0  0  0  0  0  0  0
   -3.4345    3.4914    0.0000 H   0  0  0  0  0  0  0  0  0  0  0  0
   -2.8995    4.4180    0.0000 H   0  0  0  0  0  0  0  0  0  0  0  0
   -3.4345    2.0625    0.0000 H   0  0  0  0  0  0  0  0  0  0  0  0
   -1.8295    1.1359    0.0000 H   0  0  0  0  0  0  0  0  0  0  0  0
   -2.8995    1.1358    0.0000 H   0  0  0  0  0  0  0  0  0  0  0  0
  1  2  1  0  0  0  0
  1 38  1  0  0  0  0
  1 39  1  0  0  0  0
  1 40  1  0  0  0  0
  2  3  1  0  0  0  0
  2  4  1  0  0  0  0
  2 41  1  0  0  0  0
  3 42  1  0  0  0  0
  3 43  1  0  0  0  0
  3 44  1  0  0  0  0
  4  5  1  0  0  0  0
  5  6  2  0  0  0  0
  5  7  1  0  0  0  0
  5 34  1  0  0  0  0
  7  8  1  0  0  0  0
  7 24  1  0  0  0  0
  7 45  1  0  0  0  0
  8  9  1  0  0  0  0
  8 46  1  0  0  0  0
  8 47  1  0  0  0  0
  9 10  2  0  0  0  0
  9 14  1  0  0  0  0
 10 11  1  0  0  0  0
 10 48  1  0  0  0  0
 11 12  2  0  0  0  0
 11 20  1  0  0  0  0
 12 13  1  0  0  0  0
 12 19  1  0  0  0  0
 13 14  2  0  0  0  0
 13 15  1  0  0  0  0
 14 49  1  0  0  0  0
 15 16  1  0  0  0  0
 15 17  1  0  0  0  0
 15 18  1  0  0  0  0
 16 50  1  0  0  0  0
 16 51  1  0  0  0  0
 16 52  1  0  0  0  0
 17 53  1  0  0  0  0
 17 54  1  0  0  0  0
 17 55  1  0  0  0  0
 18 56  1  0  0  0  0
 18 57  1  0  0  0  0
 18 58  1  0  0  0  0
 19 59  1  0  0  0  0
 20 21  1  0  0  0  0
 20 22  1  0  0  0  0
 20 23  1  0  0  0  0
 21 60  1  0  0  0  0
 21 61  1  0  0  0  0
 21 62  1  0  0  0  0
 22 63  1  0  0  0  0
 22 64  1  0  0  0  0
 22 65  1  0  0  0  0
 23 66  1  0  0  0  0
 23 67  1  0  0  0  0
 23 68  1  0  0  0  0
 24 25  2  0  0  0  0
 24 26  1  0  0  0  0
 24 30  1  0  0  0  0
 26 27  1  0  0  0  0
 27 28  1  0  0  0  0
 27 29  1  0  0  0  0
 27 69  1  0  0  0  0
 28 70  1  0  0  0  0
 28 71  1  0  0  0  0
 28 72  1  0  0  0  0
 29 73  1  0  0  0  0
 29 74  1  0  0  0  0
 29 75  1  0  0  0  0
 30 31  1  0  0  0  0
 31 32  1  0  0  0  0
 31 33  1  0  0  0  0
 31 76  1  0  0  0  0
 32 77  1  0  0  0  0
 32 78  1  0  0  0  0
 32 79  1  0  0  0  0
 33 80  1  0  0  0  0
 33 81  1  0  0  0  0
 33 82  1  0  0  0  0
 34 35  1  0  0  0  0
 35 36  1  0  0  0  0
 35 37  1  0  0  0  0
 35 83  1  0  0  0  0
 36 84  1  0  0  0  0
 36 85  1  0  0  0  0
 36 86  1  0  0  0  0
 37 87  1  0  0  0  0
 37 88  1  0  0  0  0
 37 89  1  0  0  0  0
M  END
>  <DRUGBANK_ID>
DB12276

>  <COMMON_NAME>
Apomine

>  <CAS_NUMBER>
126411-13-0

>  <UNII>
JQ95208805

>  <SYNONYMS>
tetraisopropyl 2-(3,5-di-tert-butyl-4-hydroxyphenyl)ethyl-1,1-biphosphonate

$$$$
