
 OpenBabel10282417072D

 72 75  0  0  1  0  0  0  0  0999 V2000
   10.6529   -2.6101    0.0000 C   0  0  1  0  0  0  0  0  0  0  0  0
   10.6529   -3.4351    0.0000 C   0  0  2  0  0  0  0  0  0  0  0  0
   11.3541   -3.8476    0.0000 C   0  0  2  0  0  0  0  0  0  0  0  0
   12.0554   -3.4351    0.0000 C   0  0  2  0  0  0  0  0  0  0  0  0
   12.0554   -2.6101    0.0000 C   0  0  1  0  0  0  0  0  0  0  0  0
   11.3541   -2.1976    0.0000 C   0  0  0  0  0  0  0  0  0  0  0  0
   10.0341   -3.8476    0.0000 C   0  0  1  0  0  0  0  0  0  0  0  0
   10.1579   -4.4664    0.0000 N   0  0  0  0  0  0  0  0  0  0  0  0
   10.8591   -4.6314    0.0000 C   0  0  0  0  0  0  0  0  0  0  0  0
   10.8591   -5.4564    0.0000 O   0  0  0  0  0  0  0  0  0  0  0  0
   11.3541   -1.3726    0.0000 C   0  0  0  0  0  0  0  0  0  0  0  0
    9.9103   -2.1976    0.0000 C   0  0  0  0  0  0  0  0  0  0  0  0
   12.7979   -2.1976    0.0000 O   0  0  0  0  0  0  0  0  0  0  0  0
   12.0554   -5.0851    0.0000 C   0  0  0  0  0  0  0  0  0  0  0  0
   12.7979   -4.6726    0.0000 C   0  0  0  0  0  0  0  0  0  0  0  0
   12.7979   -3.8476    0.0000 C   0  0  0  0  0  0  0  0  0  0  0  0
   11.3541   -4.7551    0.0000 O   0  0  0  0  0  0  0  0  0  0  0  0
   12.0554   -5.9101    0.0000 O   0  0  0  0  0  0  0  0  0  0  0  0
   12.7979   -3.0226    0.0000 H   0  0  0  0  0  0  0  0  0  0  0  0
   13.4991   -5.0851    0.0000 C   0  0  0  0  0  0  0  0  0  0  0  0
   14.2416   -4.6726    0.0000 C   0  0  1  0  0  0  0  0  0  0  0  0
   14.2416   -3.8476    0.0000 C   0  0  0  0  0  0  0  0  0  0  0  0
   13.4991   -3.4351    0.0000 C   0  0  0  0  0  0  0  0  0  0  0  0
   14.9428   -5.0851    0.0000 C   0  0  0  0  0  0  0  0  0  0  0  0
   15.6854   -4.6726    0.0000 C   0  0  0  0  0  0  0  0  0  0  0  0
   15.6854   -3.8476    0.0000 C   0  0  0  0  0  0  0  0  0  0  0  0
   14.9428   -3.4351    0.0000 C   0  0  1  0  0  0  0  0  0  0  0  0
   14.9428   -4.2601    0.0000 O   0  0  0  0  0  0  0  0  0  0  0  0
   14.9428   -2.6101    0.0000 C   0  0  0  0  0  0  0  0  0  0  0  0
    9.9103   -3.0226    0.0000 H   0  0  0  0  0  0  0  0  0  0  0  0
    9.2916   -3.4351    0.0000 C   0  0  0  0  0  0  0  0  0  0  0  0
    8.5904   -3.8476    0.0000 C   0  0  0  0  0  0  0  0  0  0  0  0
    7.8479   -3.4351    0.0000 C   0  0  0  0  0  0  0  0  0  0  0  0
    7.1054   -3.8476    0.0000 C   0  0  0  0  0  0  0  0  0  0  0  0
    7.1054   -4.6726    0.0000 C   0  0  0  0  0  0  0  0  0  0  0  0
    7.8479   -5.0851    0.0000 C   0  0  0  0  0  0  0  0  0  0  0  0
    8.5904   -4.6726    0.0000 C   0  0  0  0  0  0  0  0  0  0  0  0
    9.7307   -3.1528    0.0000 H   0  0  0  0  0  0  0  0  0  0  0  0
   12.9776   -3.1527    0.0000 H   0  0  0  0  0  0  0  0  0  0  0  0
    9.9908   -2.7785    0.0000 H   0  0  0  0  0  0  0  0  0  0  0  0
    9.4501   -5.1507    0.0000 H   0  0  0  0  0  0  0  0  0  0  0  0
   12.2478   -0.8566    0.0000 H   0  0  0  0  0  0  0  0  0  0  0  0
   10.4604   -0.8566    0.0000 H   0  0  0  0  0  0  0  0  0  0  0  0
    9.8926   -1.1277    0.0000 H   0  0  0  0  0  0  0  0  0  0  0  0
    8.9926   -2.7479    0.0000 H   0  0  0  0  0  0  0  0  0  0  0  0
    8.9749   -1.6780    0.0000 H   0  0  0  0  0  0  0  0  0  0  0  0
   13.6298   -2.6964    0.0000 H   0  0  0  0  0  0  0  0  0  0  0  0
   12.8106   -3.6407    0.0000 H   0  0  0  0  0  0  0  0  0  0  0  0
   12.8106   -4.8795    0.0000 H   0  0  0  0  0  0  0  0  0  0  0  0
   13.4864   -6.1170    0.0000 H   0  0  0  0  0  0  0  0  0  0  0  0
   13.7105   -3.7437    0.0000 H   0  0  0  0  0  0  0  0  0  0  0  0
   14.2548   -4.9175    0.0000 H   0  0  0  0  0  0  0  0  0  0  0  0
   15.1737   -4.3731    0.0000 H   0  0  0  0  0  0  0  0  0  0  0  0
   13.4864   -2.4032    0.0000 H   0  0  0  0  0  0  0  0  0  0  0  0
   14.9296   -6.1550    0.0000 H   0  0  0  0  0  0  0  0  0  0  0  0
   15.8616   -5.6334    0.0000 H   0  0  0  0  0  0  0  0  0  0  0  0
   16.6076   -5.2153    0.0000 H   0  0  0  0  0  0  0  0  0  0  0  0
   16.6143   -4.1414    0.0000 H   0  0  0  0  0  0  0  0  0  0  0  0
   16.6076   -3.3049    0.0000 H   0  0  0  0  0  0  0  0  0  0  0  0
   15.6721   -2.7777    0.0000 H   0  0  0  0  0  0  0  0  0  0  0  0
   15.8650   -2.8924    0.0000 H   0  0  0  0  0  0  0  0  0  0  0  0
   15.7868   -4.7382    0.0000 H   0  0  0  0  0  0  0  0  0  0  0  0
   15.8694   -2.0751    0.0000 H   0  0  0  0  0  0  0  0  0  0  0  0
   14.0162   -2.0751    0.0000 H   0  0  0  0  0  0  0  0  0  0  0  0
   14.9428   -1.5401    0.0000 H   0  0  0  0  0  0  0  0  0  0  0  0
    9.2784   -2.3652    0.0000 H   0  0  0  0  0  0  0  0  0  0  0  0
    8.3595   -2.9096    0.0000 H   0  0  0  0  0  0  0  0  0  0  0  0
    7.8479   -2.4031    0.0000 H   0  0  0  0  0  0  0  0  0  0  0  0
    6.2159   -3.3242    0.0000 H   0  0  0  0  0  0  0  0  0  0  0  0
    6.2159   -5.1960    0.0000 H   0  0  0  0  0  0  0  0  0  0  0  0
    7.8479   -6.1171    0.0000 H   0  0  0  0  0  0  0  0  0  0  0  0
    9.4799   -5.1960    0.0000 H   0  0  0  0  0  0  0  0  0  0  0  0
  1  2  1  0  0  0  0
  1  6  1  0  0  0  0
  1 12  1  0  0  0  0
  1 38  1  1  0  0  0
  2  3  1  0  0  0  0
  2  7  1  0  0  0  0
  2 30  1  1  0  0  0
  3  4  1  0  0  0  0
  3  9  1  6  0  0  0
  3 17  1  0  0  0  0
  4  5  1  0  0  0  0
  4 16  1  0  0  0  0
  4 19  1  1  0  0  0
  5  6  1  0  0  0  0
  5 13  1  0  0  0  0
  5 39  1  6  0  0  0
  6 11  2  0  0  0  0
  7  8  1  0  0  0  0
  7 31  1  0  0  0  0
  7 40  1  6  0  0  0
  8  9  1  0  0  0  0
  8 41  1  0  0  0  0
  9 10  2  0  0  0  0
 11 42  1  0  0  0  0
 11 43  1  0  0  0  0
 12 44  1  0  0  0  0
 12 45  1  0  0  0  0
 12 46  1  0  0  0  0
 13 47  1  0  0  0  0
 14 15  1  0  0  0  0
 14 18  2  0  0  0  0
 15 20  2  0  0  0  0
 15 48  1  0  0  0  0
 16 23  2  0  0  0  0
 16 49  1  0  0  0  0
 17 14  1  0  0  0  0
 20 21  1  0  0  0  0
 20 50  1  0  0  0  0
 21 24  1  0  0  0  0
 21 28  1  0  0  0  0
 21 51  1  1  0  0  0
 22 23  1  0  0  0  0
 22 27  1  0  0  0  0
 22 52  1  0  0  0  0
 22 53  1  0  0  0  0
 23 54  1  0  0  0  0
 24 25  1  0  0  0  0
 24 55  1  0  0  0  0
 24 56  1  0  0  0  0
 25 26  1  0  0  0  0
 25 57  1  0  0  0  0
 25 58  1  0  0  0  0
 26 27  1  0  0  0  0
 26 59  1  0  0  0  0
 26 60  1  0  0  0  0
 27 29  1  0  0  0  0
 27 61  1  1  0  0  0
 28 62  1  0  0  0  0
 29 63  1  0  0  0  0
 29 64  1  0  0  0  0
 29 65  1  0  0  0  0
 31 32  1  0  0  0  0
 31 66  1  0  0  0  0
 31 67  1  0  0  0  0
 32 33  2  0  0  0  0
 32 37  1  0  0  0  0
 33 34  1  0  0  0  0
 33 68  1  0  0  0  0
 34 35  2  0  0  0  0
 34 69  1  0  0  0  0
 35 36  1  0  0  0  0
 35 70  1  0  0  0  0
 36 37  2  0  0  0  0
 36 71  1  0  0  0  0
 37 72  1  0  0  0  0
M  END
>  <DRUGBANK_ID>
DB16766

>  <COMMON_NAME>
Cytochalasin B

>  <CAS_NUMBER>
14930-96-2

>  <UNII>
3CHI920QS7

>  <SYNONYMS>
Cytochalasin-B; Phomin

$$$$
