C11
 OpenBabel10282417072D

 51 50  0  0  0  0  0  0  0  0999 V2000
    1.5099    0.2459    0.0000 C   0  0  0  0  0  0  0  0  0  0  0  0
    0.7954   -0.1666    0.0000 C   0  0  0  0  0  0  0  0  0  0  0  0
    0.0809    0.2459    0.0000 C   0  0  0  0  0  0  0  0  0  0  0  0
   -0.6336   -0.1666    0.0000 C   0  0  0  0  0  0  0  0  0  0  0  0
   -1.3482    0.2459    0.0000 C   0  0  0  0  0  0  0  0  0  0  0  0
   -2.0627   -0.1666    0.0000 C   0  0  0  0  0  0  0  0  0  0  0  0
   -2.7772    0.2459    0.0000 C   0  0  0  0  0  0  0  0  0  0  0  0
   -3.4918   -0.1666    0.0000 C   0  0  0  0  0  0  0  0  0  0  0  0
   -4.2063    0.2459    0.0000 C   0  0  0  0  0  0  0  0  0  0  0  0
   -4.9208   -0.1666    0.0000 C   0  0  0  0  0  0  0  0  0  0  0  0
   -5.6353    0.2459    0.0000 C   0  0  0  0  0  0  0  0  0  0  0  0
    2.2245   -0.1666    0.0000 P   0  0  1  0  0  0  0  0  0  0  0  0
    2.2245   -0.9917    0.0000 O   0  0  0  0  0  0  0  0  0  0  0  0
    2.9389    0.2459    0.0000 O   0  0  0  0  0  0  0  0  0  0  0  0
    3.6535   -0.1666    0.0000 C   0  0  0  0  0  0  0  0  0  0  0  0
    4.3680    0.2459    0.0000 C   0  0  0  0  0  0  0  0  0  0  0  0
    5.0826   -0.1666    0.0000 C   0  0  0  0  0  0  0  0  0  0  0  0
    5.7970    0.2459    0.0000 C   0  0  0  0  0  0  0  0  0  0  0  0
    1.5934   -0.5309    0.0000 H   0  0  0  0  0  0  0  0  0  0  0  0
    1.5099    1.3159    0.0000 H   0  0  0  0  0  0  0  0  0  0  0  0
    2.4365    0.7810    0.0000 H   0  0  0  0  0  0  0  0  0  0  0  0
    0.7954   -1.2366    0.0000 H   0  0  0  0  0  0  0  0  0  0  0  0
   -0.1312   -0.7016    0.0000 H   0  0  0  0  0  0  0  0  0  0  0  0
    0.0809    1.3159    0.0000 H   0  0  0  0  0  0  0  0  0  0  0  0
   -0.8457    0.7809    0.0000 H   0  0  0  0  0  0  0  0  0  0  0  0
   -0.6336   -1.2366    0.0000 H   0  0  0  0  0  0  0  0  0  0  0  0
   -1.5602   -0.7017    0.0000 H   0  0  0  0  0  0  0  0  0  0  0  0
   -1.3482    1.3159    0.0000 H   0  0  0  0  0  0  0  0  0  0  0  0
   -2.2749    0.7809    0.0000 H   0  0  0  0  0  0  0  0  0  0  0  0
   -2.0627   -1.2366    0.0000 H   0  0  0  0  0  0  0  0  0  0  0  0
   -2.9893   -0.7016    0.0000 H   0  0  0  0  0  0  0  0  0  0  0  0
   -2.7772    1.3159    0.0000 H   0  0  0  0  0  0  0  0  0  0  0  0
   -3.7038    0.7810    0.0000 H   0  0  0  0  0  0  0  0  0  0  0  0
   -3.4918   -1.2366    0.0000 H   0  0  0  0  0  0  0  0  0  0  0  0
   -4.4185   -0.7016    0.0000 H   0  0  0  0  0  0  0  0  0  0  0  0
   -4.2063    1.3159    0.0000 H   0  0  0  0  0  0  0  0  0  0  0  0
   -5.1329    0.7809    0.0000 H   0  0  0  0  0  0  0  0  0  0  0  0
   -4.9208   -1.2366    0.0000 H   0  0  0  0  0  0  0  0  0  0  0  0
   -5.8474   -0.7016    0.0000 H   0  0  0  0  0  0  0  0  0  0  0  0
   -5.6353    1.3159    0.0000 H   0  0  0  0  0  0  0  0  0  0  0  0
   -6.5619   -0.2891    0.0000 H   0  0  0  0  0  0  0  0  0  0  0  0
   -6.5620    0.7809    0.0000 H   0  0  0  0  0  0  0  0  0  0  0  0
    3.6535   -1.2366    0.0000 H   0  0  0  0  0  0  0  0  0  0  0  0
    4.5802   -0.7016    0.0000 H   0  0  0  0  0  0  0  0  0  0  0  0
    4.3680    1.3159    0.0000 H   0  0  0  0  0  0  0  0  0  0  0  0
    5.2946    0.7810    0.0000 H   0  0  0  0  0  0  0  0  0  0  0  0
    5.0827   -1.2366    0.0000 H   0  0  0  0  0  0  0  0  0  0  0  0
    6.0093   -0.7016    0.0000 H   0  0  0  0  0  0  0  0  0  0  0  0
    6.7237   -0.2891    0.0000 H   0  0  0  0  0  0  0  0  0  0  0  0
    5.7970    1.3159    0.0000 H   0  0  0  0  0  0  0  0  0  0  0  0
    6.7236    0.7809    0.0000 H   0  0  0  0  0  0  0  0  0  0  0  0
  1  2  1  0  0  0  0
  1 12  1  0  0  0  0
  1 20  1  0  0  0  0
  1 21  1  0  0  0  0
  2  3  1  0  0  0  0
  2 22  1  0  0  0  0
  2 23  1  0  0  0  0
  3  4  1  0  0  0  0
  3 24  1  0  0  0  0
  3 25  1  0  0  0  0
  4  5  1  0  0  0  0
  4 26  1  0  0  0  0
  4 27  1  0  0  0  0
  5  6  1  0  0  0  0
  5 28  1  0  0  0  0
  5 29  1  0  0  0  0
  6  7  1  0  0  0  0
  6 30  1  0  0  0  0
  6 31  1  0  0  0  0
  7  8  1  0  0  0  0
  7 32  1  0  0  0  0
  7 33  1  0  0  0  0
  8  9  1  0  0  0  0
  8 34  1  0  0  0  0
  8 35  1  0  0  0  0
  9 10  1  0  0  0  0
  9 36  1  0  0  0  0
  9 37  1  0  0  0  0
 10 11  1  0  0  0  0
 10 38  1  0  0  0  0
 10 39  1  0  0  0  0
 11 40  1  0  0  0  0
 11 41  1  0  0  0  0
 11 42  1  0  0  0  0
 12 13  2  0  0  0  0
 12 14  1  0  0  0  0
 12 19  1  1  0  0  0
 14 15  1  0  0  0  0
 15 16  1  0  0  0  0
 15 43  1  0  0  0  0
 15 44  1  0  0  0  0
 16 17  1  0  0  0  0
 16 45  1  0  0  0  0
 16 46  1  0  0  0  0
 17 18  1  0  0  0  0
 17 47  1  0  0  0  0
 17 48  1  0  0  0  0
 18 49  1  0  0  0  0
 18 50  1  0  0  0  0
 18 51  1  0  0  0  0
M  END
>  <DRUGBANK_ID>
DB02457

>  <SECONDARY_ACCESSION_NUMBERS>
EXPT00797

>  <COMMON_NAME>
Undecyl-Phosphinic Acid Butyl Ester

$$$$
