
 OpenBabel10282417072D

166169  0  0  0  0  0  0  0  0999 V2000
    1.7182   -3.8234    0.0000 N   0  0  0  0  0  0  0  0  0  0  0  0
    1.7281   -4.6483    0.0000 C   0  0  0  0  0  0  0  0  0  0  0  0
    2.4277   -3.4024    0.0000 C   0  0  0  0  0  0  0  0  0  0  0  0
    3.1469   -3.8063    0.0000 C   0  0  2  0  0  0  0  0  0  0  0  0
    2.4178   -2.5774    0.0000 O   0  0  0  0  0  0  0  0  0  0  0  0
    3.2471   -4.6208    0.0000 C   0  0  0  0  0  0  0  0  0  0  0  0
    4.0561   -4.7826    0.0000 C   0  0  0  0  0  0  0  0  0  0  0  0
    4.4600   -4.0632    0.0000 C   0  0  0  0  0  0  0  0  0  0  0  0
    3.9007   -3.4565    0.0000 N   0  0  0  0  0  0  0  0  0  0  0  0
    3.8986   -2.6315    0.0000 C   0  0  0  0  0  0  0  0  0  0  0  0
    4.6120   -2.2172    0.0000 C   0  0  2  0  0  0  0  0  0  0  0  0
    3.1831   -2.2208    0.0000 O   0  0  0  0  0  0  0  0  0  0  0  0
    5.3275   -2.6279    0.0000 C   0  0  0  0  0  0  0  0  0  0  0  0
    6.0410   -2.2136    0.0000 C   0  0  0  0  0  0  0  0  0  0  0  0
    6.7565   -2.6243    0.0000 C   0  0  0  0  0  0  0  0  0  0  0  0
    6.0389   -1.3886    0.0000 C   0  0  0  0  0  0  0  0  0  0  0  0
    3.8944   -0.9815    0.0000 C   0  0  0  0  0  0  0  0  0  0  0  0
    3.8923   -0.1565    0.0000 C   0  0  1  0  0  0  0  0  0  0  0  0
    3.1810   -1.3958    0.0000 O   0  0  0  0  0  0  0  0  0  0  0  0
    4.6058    0.2577    0.0000 C   0  0  0  0  0  0  0  0  0  0  0  0
    3.1768    0.2542    0.0000 C   0  0  0  0  0  0  0  0  0  0  0  0
    3.1747    1.0792    0.0000 C   0  0  2  0  0  0  0  0  0  0  0  0
    2.4634   -0.1601    0.0000 O   0  0  0  0  0  0  0  0  0  0  0  0
    3.8882    1.4935    0.0000 C   0  0  0  0  0  0  0  0  0  0  0  0
    3.8861    2.3184    0.0000 C   0  0  0  0  0  0  0  0  0  0  0  0
    4.6037    1.0828    0.0000 C   0  0  0  0  0  0  0  0  0  0  0  0
    2.4592    1.4899    0.0000 O   0  0  0  0  0  0  0  0  0  0  0  0
    2.4571    2.3149    0.0000 C   0  0  0  0  0  0  0  0  0  0  0  0
    1.7416    2.7256    0.0000 C   0  0  0  0  0  0  0  0  0  0  0  0
    3.1706    2.7292    0.0000 O   0  0  0  0  0  0  0  0  0  0  0  0
    1.0282    2.3113    0.0000 C   0  0  2  0  0  0  0  0  0  0  0  0
    1.0303    1.4863    0.0000 O   0  0  0  0  0  0  0  0  0  0  0  0
    0.3127    2.7220    0.0000 C   0  0  1  0  0  0  0  0  0  0  0  0
    0.3106    3.5470    0.0000 C   0  0  2  0  0  0  0  0  0  0  0  0
   -0.4049    3.9576    0.0000 C   0  0  0  0  0  0  0  0  0  0  0  0
    1.0240    3.9613    0.0000 C   0  0  0  0  0  0  0  0  0  0  0  0
   -0.4069    4.7826    0.0000 C   0  0  0  0  0  0  0  0  0  0  0  0
   -1.2244    2.2962    0.0000 C   0  0  0  0  0  0  0  0  0  0  0  0
   -1.6263    1.5757    0.0000 C   0  0  1  0  0  0  0  0  0  0  0  0
   -1.6475    3.0045    0.0000 O   0  0  0  0  0  0  0  0  0  0  0  0
   -2.4512    1.5634    0.0000 N   0  0  0  0  0  0  0  0  0  0  0  0
   -1.2033    0.8674    0.0000 C   0  0  2  0  0  0  0  0  0  0  0  0
   -0.3784    0.8796    0.0000 O   0  0  0  0  0  0  0  0  0  0  0  0
    0.0446    0.1713    0.0000 C   0  0  0  0  0  0  0  0  0  0  0  0
    0.8695    0.1835    0.0000 O   0  0  0  0  0  0  0  0  0  0  0  0
   -0.3573   -0.5492    0.0000 C   0  0  2  0  0  0  0  0  0  0  0  0
   -1.1822   -0.5614    0.0000 C   0  0  0  0  0  0  0  0  0  0  0  0
   -1.6052    0.1469    0.0000 C   0  0  0  0  0  0  0  0  0  0  0  0
   -1.5841   -1.2819    0.0000 C   0  0  0  0  0  0  0  0  0  0  0  0
   -2.4072   -1.2890    0.0000 C   0  0  0  0  0  0  0  0  0  0  0  0
   -2.8091   -2.0086    0.0000 C   0  0  0  0  0  0  0  0  0  0  0  0
   -2.3860   -2.7179    0.0000 C   0  0  0  0  0  0  0  0  0  0  0  0
   -1.5568   -2.7030    0.0000 C   0  0  0  0  0  0  0  0  0  0  0  0
   -1.1588   -1.9828    0.0000 C   0  0  0  0  0  0  0  0  0  0  0  0
   -2.7869   -3.4389    0.0000 O   0  0  0  0  0  0  0  0  0  0  0  0
   -3.6118   -3.4522    0.0000 C   0  0  0  0  0  0  0  0  0  0  0  0
   -2.8743    2.2718    0.0000 C   0  0  0  0  0  0  0  0  0  0  0  0
   -3.6992    2.2596    0.0000 C   0  0  1  0  0  0  0  0  0  0  0  0
   -2.4724    2.9923    0.0000 O   0  0  0  0  0  0  0  0  0  0  0  0
   -4.1222    2.9679    0.0000 C   0  0  0  0  0  0  0  0  0  0  0  0
   -4.1011    1.5391    0.0000 N   0  0  0  0  0  0  0  0  0  0  0  0
   -4.9260    1.5268    0.0000 C   0  0  0  0  0  0  0  0  0  0  0  0
   -4.9471    2.9557    0.0000 C   0  0  0  0  0  0  0  0  0  0  0  0
   -5.3701    3.6640    0.0000 C   0  0  0  0  0  0  0  0  0  0  0  0
   -5.3490    2.2352    0.0000 C   0  0  0  0  0  0  0  0  0  0  0  0
   -3.6781    0.8308    0.0000 C   0  0  0  0  0  0  0  0  0  0  0  0
   -3.8573    0.0262    0.0000 C   0  0  1  0  0  0  0  0  0  0  0  0
   -2.8532    0.8430    0.0000 O   0  0  0  0  0  0  0  0  0  0  0  0
   -4.6159   -0.3076    0.0000 N   0  0  0  0  0  0  0  0  0  0  0  0
   -4.5376   -1.1290    0.0000 C   0  0  0  0  0  0  0  0  0  0  0  0
   -3.7322   -1.3082    0.0000 C   0  0  0  0  0  0  0  0  0  0  0  0
   -3.3130   -0.5977    0.0000 C   0  0  0  0  0  0  0  0  0  0  0  0
   -5.3276    0.1097    0.0000 C   0  0  0  0  0  0  0  0  0  0  0  0
   -5.3219    0.9347    0.0000 O   0  0  0  0  0  0  0  0  0  0  0  0
   -6.0449   -0.2979    0.0000 C   0  0  0  0  0  0  0  0  0  0  0  0
   -6.7565    0.1195    0.0000 O   0  0  0  0  0  0  0  0  0  0  0  0
   -6.0505   -1.1229    0.0000 C   0  0  0  0  0  0  0  0  0  0  0  0
   -0.3993    3.4242    0.0000 H   0  0  0  0  0  0  0  0  0  0  0  0
    4.6099   -1.3922    0.0000 N   0  0  0  0  0  0  0  0  0  0  0  0
   -0.5123    2.7127    0.0000 N   0  0  0  0  0  0  0  0  0  0  0  0
    2.3165   -4.3633    0.0000 H   0  0  0  0  0  0  0  0  0  0  0  0
    0.8079   -5.1944    0.0000 H   0  0  0  0  0  0  0  0  0  0  0  0
    2.6611   -5.1721    0.0000 H   0  0  0  0  0  0  0  0  0  0  0  0
    1.7409   -5.7182    0.0000 H   0  0  0  0  0  0  0  0  0  0  0  0
    2.4627   -5.3485    0.0000 H   0  0  0  0  0  0  0  0  0  0  0  0
    3.5379   -5.6505    0.0000 H   0  0  0  0  0  0  0  0  0  0  0  0
    4.5030   -5.7548    0.0000 H   0  0  0  0  0  0  0  0  0  0  0  0
    5.1252   -4.8257    0.0000 H   0  0  0  0  0  0  0  0  0  0  0  0
    5.5227   -3.9387    0.0000 H   0  0  0  0  0  0  0  0  0  0  0  0
    4.8316   -3.0598    0.0000 H   0  0  0  0  0  0  0  0  0  0  0  0
    4.6147   -3.2872    0.0000 H   0  0  0  0  0  0  0  0  0  0  0  0
    5.3302   -3.6979    0.0000 H   0  0  0  0  0  0  0  0  0  0  0  0
    6.2555   -3.1606    0.0000 H   0  0  0  0  0  0  0  0  0  0  0  0
    6.9663   -1.6763    0.0000 H   0  0  0  0  0  0  0  0  0  0  0  0
    6.7592   -3.6943    0.0000 H   0  0  0  0  0  0  0  0  0  0  0  0
    7.6818   -2.0870    0.0000 H   0  0  0  0  0  0  0  0  0  0  0  0
    7.6845   -3.1570    0.0000 H   0  0  0  0  0  0  0  0  0  0  0  0
    6.9642   -0.8512    0.0000 H   0  0  0  0  0  0  0  0  0  0  0  0
    5.1109   -0.8560    0.0000 H   0  0  0  0  0  0  0  0  0  0  0  0
    6.0362   -0.3186    0.0000 H   0  0  0  0  0  0  0  0  0  0  0  0
    4.8203   -0.6892    0.0000 H   0  0  0  0  0  0  0  0  0  0  0  0
    5.5337   -0.2751    0.0000 H   0  0  0  0  0  0  0  0  0  0  0  0
    4.6033    1.3277    0.0000 H   0  0  0  0  0  0  0  0  0  0  0  0
    5.5312    0.7949    0.0000 H   0  0  0  0  0  0  0  0  0  0  0  0
    4.1027    0.5465    0.0000 H   0  0  0  0  0  0  0  0  0  0  0  0
    4.8135    2.0308    0.0000 H   0  0  0  0  0  0  0  0  0  0  0  0
    4.8114    2.8558    0.0000 H   0  0  0  0  0  0  0  0  0  0  0  0
    2.9581    2.8510    0.0000 H   0  0  0  0  0  0  0  0  0  0  0  0
    3.8834    3.3884    0.0000 H   0  0  0  0  0  0  0  0  0  0  0  0
    4.6064    0.0128    0.0000 H   0  0  0  0  0  0  0  0  0  0  0  0
    5.5290    1.6201    0.0000 H   0  0  0  0  0  0  0  0  0  0  0  0
    5.5317    0.5501    0.0000 H   0  0  0  0  0  0  0  0  0  0  0  0
    1.7389    3.7956    0.0000 H   0  0  0  0  0  0  0  0  0  0  0  0
    0.8136    3.2583    0.0000 H   0  0  0  0  0  0  0  0  0  0  0  0
    1.9562    1.7787    0.0000 H   0  0  0  0  0  0  0  0  0  0  0  0
    0.1915    0.9992    0.0000 H   0  0  0  0  0  0  0  0  0  0  0  0
    1.2386    3.0144    0.0000 H   0  0  0  0  0  0  0  0  0  0  0  0
   -1.3302    3.4203    0.0000 H   0  0  0  0  0  0  0  0  0  0  0  0
   -1.3329    4.4903    0.0000 H   0  0  0  0  0  0  0  0  0  0  0  0
    1.9520    3.4287    0.0000 H   0  0  0  0  0  0  0  0  0  0  0  0
    1.0213    5.0313    0.0000 H   0  0  0  0  0  0  0  0  0  0  0  0
    1.9493    4.4987    0.0000 H   0  0  0  0  0  0  0  0  0  0  0  0
    0.5184    5.3198    0.0000 H   0  0  0  0  0  0  0  0  0  0  0  0
   -1.3348    5.3154    0.0000 H   0  0  0  0  0  0  0  0  0  0  0  0
   -0.4095    5.8526    0.0000 H   0  0  0  0  0  0  0  0  0  0  0  0
   -2.1750    2.4943    0.0000 H   0  0  0  0  0  0  0  0  0  0  0  0
   -2.9307    0.7036    0.0000 H   0  0  0  0  0  0  0  0  0  0  0  0
   -2.2732    0.8516    0.0000 H   0  0  0  0  0  0  0  0  0  0  0  0
   -0.9059    0.3694    0.0000 H   0  0  0  0  0  0  0  0  0  0  0  0
   -1.7308    0.3572    0.0000 H   0  0  0  0  0  0  0  0  0  0  0  0
   -2.2521   -0.5772    0.0000 H   0  0  0  0  0  0  0  0  0  0  0  0
   -2.6751    0.1311    0.0000 H   0  0  0  0  0  0  0  0  0  0  0  0
   -1.0566   -0.7717    0.0000 H   0  0  0  0  0  0  0  0  0  0  0  0
   -2.1264   -0.7876    0.0000 H   0  0  0  0  0  0  0  0  0  0  0  0
   -2.9334   -0.4012    0.0000 H   0  0  0  0  0  0  0  0  0  0  0  0
   -3.8410   -2.0233    0.0000 H   0  0  0  0  0  0  0  0  0  0  0  0
   -1.0245   -3.5871    0.0000 H   0  0  0  0  0  0  0  0  0  0  0  0
   -0.1270   -1.9619    0.0000 H   0  0  0  0  0  0  0  0  0  0  0  0
   -4.1617   -2.5343    0.0000 H   0  0  0  0  0  0  0  0  0  0  0  0
   -4.1318   -4.3874    0.0000 H   0  0  0  0  0  0  0  0  0  0  0  0
   -4.6817   -3.4694    0.0000 H   0  0  0  0  0  0  0  0  0  0  0  0
   -3.1779    3.1941    0.0000 H   0  0  0  0  0  0  0  0  0  0  0  0
   -3.6009    3.9024    0.0000 H   0  0  0  0  0  0  0  0  0  0  0  0
   -4.6708    3.8865    0.0000 H   0  0  0  0  0  0  0  0  0  0  0  0
   -5.4748    2.4454    0.0000 H   0  0  0  0  0  0  0  0  0  0  0  0
   -5.4471    0.5923    0.0000 H   0  0  0  0  0  0  0  0  0  0  0  0
   -5.9959    1.5108    0.0000 H   0  0  0  0  0  0  0  0  0  0  0  0
   -6.0170    2.9399    0.0000 H   0  0  0  0  0  0  0  0  0  0  0  0
   -4.8488    4.5984    0.0000 H   0  0  0  0  0  0  0  0  0  0  0  0
   -6.4400    3.6482    0.0000 H   0  0  0  0  0  0  0  0  0  0  0  0
   -5.9187    4.5826    0.0000 H   0  0  0  0  0  0  0  0  0  0  0  0
   -6.4189    2.2194    0.0000 H   0  0  0  0  0  0  0  0  0  0  0  0
   -4.8004    1.3166    0.0000 H   0  0  0  0  0  0  0  0  0  0  0  0
   -5.8702    1.3007    0.0000 H   0  0  0  0  0  0  0  0  0  0  0  0
   -4.6841    0.7054    0.0000 H   0  0  0  0  0  0  0  0  0  0  0  0
   -5.3396   -1.8373    0.0000 H   0  0  0  0  0  0  0  0  0  0  0  0
   -4.2705   -2.1651    0.0000 H   0  0  0  0  0  0  0  0  0  0  0  0
   -3.3063   -2.2898    0.0000 H   0  0  0  0  0  0  0  0  0  0  0  0
   -2.6642   -1.3743    0.0000 H   0  0  0  0  0  0  0  0  0  0  0  0
   -2.2475   -0.4992    0.0000 H   0  0  0  0  0  0  0  0  0  0  0  0
   -2.9155    0.3957    0.0000 H   0  0  0  0  0  0  0  0  0  0  0  0
   -6.9808   -1.6516    0.0000 H   0  0  0  0  0  0  0  0  0  0  0  0
   -5.1275   -1.6642    0.0000 H   0  0  0  0  0  0  0  0  0  0  0  0
   -6.0578   -2.1929    0.0000 H   0  0  0  0  0  0  0  0  0  0  0  0
    5.4613   -0.8978    0.0000 H   0  0  0  0  0  0  0  0  0  0  0  0
   -0.7751    3.6615    0.0000 H   0  0  0  0  0  0  0  0  0  0  0  0
  1  2  1  0  0  0  0
  1  3  1  0  0  0  0
  2 82  1  0  0  0  0
  2 83  1  0  0  0  0
  2 84  1  0  0  0  0
  3  5  2  0  0  0  0
  4  3  1  0  0  0  0
  4  6  1  0  0  0  0
  4 81  1  6  0  0  0
  6  7  1  0  0  0  0
  6 85  1  0  0  0  0
  6 86  1  0  0  0  0
  7  8  1  0  0  0  0
  7 87  1  0  0  0  0
  7 88  1  0  0  0  0
  8  9  1  0  0  0  0
  8 89  1  0  0  0  0
  8 90  1  0  0  0  0
  9  4  1  0  0  0  0
  9 10  1  0  0  0  0
 10 11  1  0  0  0  0
 10 12  2  0  0  0  0
 11 13  1  0  0  0  0
 11 79  1  0  0  0  0
 11 91  1  6  0  0  0
 13 14  1  0  0  0  0
 13 92  1  0  0  0  0
 13 93  1  0  0  0  0
 14 15  1  0  0  0  0
 14 16  1  0  0  0  0
 14 94  1  0  0  0  0
 15 95  1  0  0  0  0
 15 96  1  0  0  0  0
 15 97  1  0  0  0  0
 16 98  1  0  0  0  0
 16 99  1  0  0  0  0
 16100  1  0  0  0  0
 17 18  1  0  0  0  0
 17 19  2  0  0  0  0
 17 79  1  0  0  0  0
 18 20  1  0  0  0  0
 18 21  1  0  0  0  0
 18101  1  1  0  0  0
 20102  1  0  0  0  0
 20103  1  0  0  0  0
 20104  1  0  0  0  0
 21 22  1  0  0  0  0
 21 23  2  0  0  0  0
 22 24  1  0  0  0  0
 22 27  1  0  0  0  0
 22105  1  6  0  0  0
 24 25  1  0  0  0  0
 24 26  1  0  0  0  0
 24106  1  0  0  0  0
 25107  1  0  0  0  0
 25108  1  0  0  0  0
 25109  1  0  0  0  0
 26110  1  0  0  0  0
 26111  1  0  0  0  0
 26112  1  0  0  0  0
 27 28  1  0  0  0  0
 28 29  1  0  0  0  0
 28 30  2  0  0  0  0
 29 31  1  0  0  0  0
 29113  1  0  0  0  0
 29114  1  0  0  0  0
 31 32  1  0  0  0  0
 31 33  1  0  0  0  0
 31115  1  1  0  0  0
 32116  1  0  0  0  0
 33 34  1  0  0  0  0
 33 78  1  1  0  0  0
 33 80  1  0  0  0  0
 34 35  1  0  0  0  0
 34 36  1  0  0  0  0
 34117  1  1  0  0  0
 35 37  1  0  0  0  0
 35118  1  0  0  0  0
 35119  1  0  0  0  0
 36120  1  0  0  0  0
 36121  1  0  0  0  0
 36122  1  0  0  0  0
 37123  1  0  0  0  0
 37124  1  0  0  0  0
 37125  1  0  0  0  0
 38 40  2  0  0  0  0
 38 80  1  0  0  0  0
 39 38  1  0  0  0  0
 39 41  1  0  0  0  0
 39126  1  1  0  0  0
 41 57  1  0  0  0  0
 41127  1  0  0  0  0
 42 39  1  0  0  0  0
 42 48  1  0  0  0  0
 42 43  1  0  0  0  0
 42128  1  1  0  0  0
 43 44  1  0  0  0  0
 44 45  2  0  0  0  0
 44 46  1  0  0  0  0
 46 47  1  0  0  0  0
 46  1  1  0  0  0  0
 46129  1  6  0  0  0
 47 49  1  0  0  0  0
 47130  1  0  0  0  0
 47131  1  0  0  0  0
 48132  1  0  0  0  0
 48133  1  0  0  0  0
 48134  1  0  0  0  0
 49 50  2  0  0  0  0
 50 51  1  0  0  0  0
 50135  1  0  0  0  0
 51 52  2  0  0  0  0
 51136  1  0  0  0  0
 52 53  1  0  0  0  0
 52 55  1  0  0  0  0
 53 54  2  0  0  0  0
 53137  1  0  0  0  0
 54 49  1  0  0  0  0
 54138  1  0  0  0  0
 55 56  1  0  0  0  0
 56139  1  0  0  0  0
 56140  1  0  0  0  0
 56141  1  0  0  0  0
 57 58  1  0  0  0  0
 57 59  2  0  0  0  0
 58 60  1  0  0  0  0
 58 61  1  0  0  0  0
 58142  1  1  0  0  0
 60 63  1  0  0  0  0
 60143  1  0  0  0  0
 60144  1  0  0  0  0
 61 62  1  0  0  0  0
 61 66  1  0  0  0  0
 62145  1  0  0  0  0
 62146  1  0  0  0  0
 62147  1  0  0  0  0
 63 64  1  0  0  0  0
 63 65  1  0  0  0  0
 63148  1  0  0  0  0
 64149  1  0  0  0  0
 64150  1  0  0  0  0
 64151  1  0  0  0  0
 65152  1  0  0  0  0
 65153  1  0  0  0  0
 65154  1  0  0  0  0
 66 68  2  0  0  0  0
 67 66  1  0  0  0  0
 67 69  1  0  0  0  0
 67155  1  1  0  0  0
 69 70  1  0  0  0  0
 69 73  1  0  0  0  0
 70 71  1  0  0  0  0
 70156  1  0  0  0  0
 70157  1  0  0  0  0
 71 72  1  0  0  0  0
 71158  1  0  0  0  0
 71159  1  0  0  0  0
 72 67  1  0  0  0  0
 72160  1  0  0  0  0
 72161  1  0  0  0  0
 73 74  2  0  0  0  0
 73 75  1  0  0  0  0
 75 76  2  0  0  0  0
 75 77  1  0  0  0  0
 77162  1  0  0  0  0
 77163  1  0  0  0  0
 77164  1  0  0  0  0
 79165  1  0  0  0  0
 80166  1  0  0  0  0
M  END
>  <DRUGBANK_ID>
DB04977

>  <COMMON_NAME>
Plitidepsin

>  <CAS_NUMBER>
137219-37-5

>  <UNII>
Y76ID234HW

>  <SYNONYMS>
Dehydrodidemnin B; Plitidepsin; Plitidepsina; Plitidepsine; Plitidepsium

$$$$
