
 OpenBabel10282417072D

 44 46  0  0  0  0  0  0  0  0999 V2000
    6.6906    2.6472    0.0000 S   0  0  0  0  0  0  0  0  0  0  0  0
    5.2224   -0.7296    0.0000 O   0  0  0  0  0  0  0  0  0  0  0  0
    5.4100    4.3554    0.0000 O   0  0  0  0  0  0  0  0  0  0  0  0
    8.0631    3.1742    0.0000 O   0  0  0  0  0  0  0  0  0  0  0  0
    6.8301    3.9749    0.0000 N   0  0  0  0  0  0  0  0  0  0  0  0
    3.7935   -3.2047    0.0000 N   0  0  0  0  0  0  0  0  0  0  0  0
    5.9369    2.9829    0.0000 C   0  0  3  0  0  0  0  0  0  0  0  0
    5.2224    2.5703    0.0000 C   0  0  0  0  0  0  0  0  0  0  0  0
    5.2224    1.7454    0.0000 C   0  0  0  0  0  0  0  0  0  0  0  0
    6.0231    3.8034    0.0000 C   0  0  0  0  0  0  0  0  0  0  0  0
    5.9369    1.3329    0.0000 C   0  0  0  0  0  0  0  0  0  0  0  0
    4.5079    1.3329    0.0000 C   0  0  0  0  0  0  0  0  0  0  0  0
    4.5079   -1.9671    0.0000 C   0  0  0  0  0  0  0  0  0  0  0  0
    5.2224    0.0954    0.0000 C   0  0  0  0  0  0  0  0  0  0  0  0
    4.5079   -1.1419    0.0000 C   0  0  0  0  0  0  0  0  0  0  0  0
    5.9369    0.5079    0.0000 C   0  0  0  0  0  0  0  0  0  0  0  0
    4.5079    0.5079    0.0000 C   0  0  0  0  0  0  0  0  0  0  0  0
    3.7935   -2.3796    0.0000 C   0  0  0  0  0  0  0  0  0  0  0  0
    7.2426    3.2604    0.0000 C   0  0  0  0  0  0  0  0  0  0  0  0
    2.3645   -3.2047    0.0000 C   0  0  0  0  0  0  0  0  0  0  0  0
    3.0790   -1.9671    0.0000 C   0  0  0  0  0  0  0  0  0  0  0  0
    1.6500   -3.6172    0.0000 C   0  0  0  0  0  0  0  0  0  0  0  0
    2.3645   -2.3796    0.0000 C   0  0  0  0  0  0  0  0  0  0  0  0
    3.0790   -3.6172    0.0000 C   0  0  0  0  0  0  0  0  0  0  0  0
    1.6500   -4.4422    0.0000 C   0  0  0  0  0  0  0  0  0  0  0  0
    5.2223   -2.3795    0.0000 O   0  0  0  0  0  0  0  0  0  0  0  0
    7.2306    4.8743    0.0000 H   0  0  0  0  0  0  0  0  0  0  0  0
    5.9929    1.9144    0.0000 H   0  0  0  0  0  0  0  0  0  0  0  0
    4.2957    3.1053    0.0000 H   0  0  0  0  0  0  0  0  0  0  0  0
    4.2958    2.0353    0.0000 H   0  0  0  0  0  0  0  0  0  0  0  0
    6.8306    1.8489    0.0000 H   0  0  0  0  0  0  0  0  0  0  0  0
    3.6142    1.8489    0.0000 H   0  0  0  0  0  0  0  0  0  0  0  0
    3.5813   -0.6068    0.0000 H   0  0  0  0  0  0  0  0  0  0  0  0
    3.5812   -1.6768    0.0000 H   0  0  0  0  0  0  0  0  0  0  0  0
    6.8306   -0.0081    0.0000 H   0  0  0  0  0  0  0  0  0  0  0  0
    3.6142   -0.0081    0.0000 H   0  0  0  0  0  0  0  0  0  0  0  0
    3.0790   -0.9351    0.0000 H   0  0  0  0  0  0  0  0  0  0  0  0
    0.7234   -3.0822    0.0000 H   0  0  0  0  0  0  0  0  0  0  0  0
    0.7234   -4.1522    0.0000 H   0  0  0  0  0  0  0  0  0  0  0  0
    1.4708   -1.8636    0.0000 H   0  0  0  0  0  0  0  0  0  0  0  0
    3.0790   -4.6492    0.0000 H   0  0  0  0  0  0  0  0  0  0  0  0
    0.7234   -4.9772    0.0000 H   0  0  0  0  0  0  0  0  0  0  0  0
    2.5766   -4.9772    0.0000 H   0  0  0  0  0  0  0  0  0  0  0  0
    1.6500   -5.5122    0.0000 H   0  0  0  0  0  0  0  0  0  0  0  0
  1  7  1  0  0  0  0
  1 19  1  0  0  0  0
  2 14  1  0  0  0  0
  2 15  1  0  0  0  0
  3 10  2  0  0  0  0
  4 19  2  0  0  0  0
  5 10  1  0  0  0  0
  5 19  1  0  0  0  0
  5 27  1  0  0  0  0
  6 18  2  0  0  0  0
  6 24  1  0  0  0  0
  7  8  1  0  0  0  0
  7 10  1  0  0  0  0
  7 28  1  0  0  0  0
  8  9  1  0  0  0  0
  8 29  1  0  0  0  0
  8 30  1  0  0  0  0
  9 11  2  0  0  0  0
  9 12  1  0  0  0  0
 11 16  1  0  0  0  0
 11 31  1  0  0  0  0
 12 17  2  0  0  0  0
 12 32  1  0  0  0  0
 13 15  1  0  0  0  0
 13 18  1  0  0  0  0
 13 26  2  0  0  0  0
 14 16  2  0  0  0  0
 14 17  1  0  0  0  0
 15 33  1  0  0  0  0
 15 34  1  0  0  0  0
 16 35  1  0  0  0  0
 17 36  1  0  0  0  0
 18 21  1  0  0  0  0
 20 22  1  0  0  0  0
 20 23  1  0  0  0  0
 20 24  2  0  0  0  0
 21 23  2  0  0  0  0
 21 37  1  0  0  0  0
 22 25  1  0  0  0  0
 22 38  1  0  0  0  0
 22 39  1  0  0  0  0
 23 40  1  0  0  0  0
 24 41  1  0  0  0  0
 25 42  1  0  0  0  0
 25 43  1  0  0  0  0
 25 44  1  0  0  0  0
M  END
>  <DRUGBANK_ID>
DB11721

>  <COMMON_NAME>
Mitoglitazone

>  <CAS_NUMBER>
146062-49-9

>  <UNII>
29I7RP18RG

>  <SYNONYMS>
MSDC-0160

$$$$
