GPP
 OpenBabel10282417072D

 39 38  0  0  0  0  0  0  0  0999 V2000
    0.1594   -1.6260    0.0000 C   0  0  0  0  0  0  0  0  0  0  0  0
    0.8739   -1.2135    0.0000 O   0  0  0  0  0  0  0  0  0  0  0  0
   -0.5551   -1.2135    0.0000 C   0  0  0  0  0  0  0  0  0  0  0  0
   -0.5551   -0.3885    0.0000 C   0  0  0  0  0  0  0  0  0  0  0  0
    0.1594    0.0240    0.0000 C   0  0  0  0  0  0  0  0  0  0  0  0
   -1.2696    0.0240    0.0000 C   0  0  0  0  0  0  0  0  0  0  0  0
   -1.2696    0.8490    0.0000 C   0  0  0  0  0  0  0  0  0  0  0  0
   -1.9840    1.2615    0.0000 C   0  0  0  0  0  0  0  0  0  0  0  0
   -1.9840    2.0865    0.0000 C   0  0  0  0  0  0  0  0  0  0  0  0
   -2.6985    2.4990    0.0000 C   0  0  0  0  0  0  0  0  0  0  0  0
   -1.2696    2.4990    0.0000 C   0  0  0  0  0  0  0  0  0  0  0  0
    1.5883   -1.6260    0.0000 P   0  0  1  0  0  0  0  0  0  0  0  0
    1.1758   -2.3405    0.0000 O   0  0  0  0  0  0  0  0  0  0  0  0
    2.0008   -0.9115    0.0000 O   0  0  0  0  0  0  0  0  0  0  0  0
    2.3028   -2.0385    0.0000 O   0  0  0  0  0  0  0  0  0  0  0  0
    3.0173   -1.6260    0.0000 P   0  0  0  0  0  0  0  0  0  0  0  0
    3.7317   -1.2135    0.0000 O   0  0  0  0  0  0  0  0  0  0  0  0
    3.4298   -2.3405    0.0000 O   0  0  0  0  0  0  0  0  0  0  0  0
    2.6048   -0.9115    0.0000 O   0  0  0  0  0  0  0  0  0  0  0  0
    0.1594   -2.6960    0.0000 H   0  0  0  0  0  0  0  0  0  0  0  0
   -0.7672   -2.1610    0.0000 H   0  0  0  0  0  0  0  0  0  0  0  0
   -1.4488   -1.7295    0.0000 H   0  0  0  0  0  0  0  0  0  0  0  0
    1.0860   -0.5110    0.0000 H   0  0  0  0  0  0  0  0  0  0  0  0
    0.1594    1.0940    0.0000 H   0  0  0  0  0  0  0  0  0  0  0  0
    1.0861    0.5590    0.0000 H   0  0  0  0  0  0  0  0  0  0  0  0
   -2.1962   -0.5110    0.0000 H   0  0  0  0  0  0  0  0  0  0  0  0
   -2.1962    0.5590    0.0000 H   0  0  0  0  0  0  0  0  0  0  0  0
   -0.3429    1.3840    0.0000 H   0  0  0  0  0  0  0  0  0  0  0  0
   -1.2696    1.9190    0.0000 H   0  0  0  0  0  0  0  0  0  0  0  0
   -2.8777    0.7455    0.0000 H   0  0  0  0  0  0  0  0  0  0  0  0
   -2.6985    3.5690    0.0000 H   0  0  0  0  0  0  0  0  0  0  0  0
   -3.6251    1.9640    0.0000 H   0  0  0  0  0  0  0  0  0  0  0  0
   -3.6252    3.0340    0.0000 H   0  0  0  0  0  0  0  0  0  0  0  0
   -0.3429    1.9640    0.0000 H   0  0  0  0  0  0  0  0  0  0  0  0
   -1.2696    3.5690    0.0000 H   0  0  0  0  0  0  0  0  0  0  0  0
   -0.3430    3.0340    0.0000 H   0  0  0  0  0  0  0  0  0  0  0  0
    2.9708   -0.9115    0.0000 H   0  0  0  0  0  0  0  0  0  0  0  0
    2.9448   -3.1805    0.0000 H   0  0  0  0  0  0  0  0  0  0  0  0
    3.0898   -0.0715    0.0000 H   0  0  0  0  0  0  0  0  0  0  0  0
  1  2  1  0  0  0  0
  1  3  1  0  0  0  0
  1 20  1  0  0  0  0
  1 21  1  0  0  0  0
  3  4  2  0  0  0  0
  3 22  1  0  0  0  0
  4  5  1  0  0  0  0
  4  6  1  0  0  0  0
  5 23  1  0  0  0  0
  5 24  1  0  0  0  0
  5 25  1  0  0  0  0
  6  7  1  0  0  0  0
  6 26  1  0  0  0  0
  6 27  1  0  0  0  0
  7  8  1  0  0  0  0
  7 28  1  0  0  0  0
  7 29  1  0  0  0  0
  8  9  2  0  0  0  0
  8 30  1  0  0  0  0
  9 10  1  0  0  0  0
  9 11  1  0  0  0  0
 10 31  1  0  0  0  0
 10 32  1  0  0  0  0
 10 33  1  0  0  0  0
 11 34  1  0  0  0  0
 11 35  1  0  0  0  0
 11 36  1  0  0  0  0
 12  2  1  0  0  0  0
 12 13  2  6  0  0  0
 12 14  1  0  0  0  0
 12 15  1  0  0  0  0
 14 37  1  0  0  0  0
 15 16  1  0  0  0  0
 16 17  2  0  0  0  0
 16 18  1  0  0  0  0
 16 19  1  0  0  0  0
 18 38  1  0  0  0  0
 19 39  1  0  0  0  0
M  END
>  <DRUGBANK_ID>
DB02552

>  <SECONDARY_ACCESSION_NUMBERS>
EXPT01640

>  <COMMON_NAME>
Geranyl Diphosphate

>  <UNII>
7X7DBM66JG

$$$$
