348
 OpenBabel10282417072D

 33 34  0  0  0  0  0  0  0  0999 V2000
    3.7935   -2.8876    0.0000 F   0  0  0  0  0  0  0  0  0  0  0  0
    4.6185   -2.0625    0.0000 F   0  0  0  0  0  0  0  0  0  0  0  0
    2.9685   -2.0625    0.0000 F   0  0  0  0  0  0  0  0  0  0  0  0
    5.2224    0.4125    0.0000 O   0  0  0  0  0  0  0  0  0  0  0  0
    3.7935    2.8876    0.0000 O   0  0  0  0  0  0  0  0  0  0  0  0
    3.0791    1.6500    0.0000 O   0  0  0  0  0  0  0  0  0  0  0  0
    1.6500    0.0000    0.0000 O   0  5  0  0  0  0  0  0  0  0  0  0
    2.3645    1.2375    0.0000 O   0  0  0  0  0  0  0  0  0  0  0  0
    2.3645    0.4125    0.0000 N   0  3  0  0  0  0  0  0  0  0  0  0
    4.5080    1.6500    0.0000 C   0  0  0  0  0  0  0  0  0  0  0  0
    5.9370    2.4751    0.0000 C   0  0  0  0  0  0  0  0  0  0  0  0
    5.9370    1.6500    0.0000 C   0  0  0  0  0  0  0  0  0  0  0  0
    5.2224    2.8876    0.0000 C   0  0  0  0  0  0  0  0  0  0  0  0
    5.2224    1.2375    0.0000 C   0  0  0  0  0  0  0  0  0  0  0  0
    4.5080    2.4751    0.0000 C   0  0  0  0  0  0  0  0  0  0  0  0
    3.7935    1.2375    0.0000 C   0  0  0  0  0  0  0  0  0  0  0  0
    3.7935    0.4125    0.0000 C   0  0  0  0  0  0  0  0  0  0  0  0
    3.0791    0.0000    0.0000 C   0  0  0  0  0  0  0  0  0  0  0  0
    4.5080    0.0000    0.0000 C   0  0  0  0  0  0  0  0  0  0  0  0
    3.7935   -1.2375    0.0000 C   0  0  0  0  0  0  0  0  0  0  0  0
    3.0791   -0.8250    0.0000 C   0  0  0  0  0  0  0  0  0  0  0  0
    4.5080   -0.8250    0.0000 C   0  0  0  0  0  0  0  0  0  0  0  0
    3.7935   -2.0625    0.0000 C   0  0  0  0  0  0  0  0  0  0  0  0
    3.5814    2.1850    0.0000 H   0  0  0  0  0  0  0  0  0  0  0  0
    6.8636    3.0101    0.0000 H   0  0  0  0  0  0  0  0  0  0  0  0
    5.9369    3.5451    0.0000 H   0  0  0  0  0  0  0  0  0  0  0  0
    6.8636    1.1150    0.0000 H   0  0  0  0  0  0  0  0  0  0  0  0
    5.9369    0.5800    0.0000 H   0  0  0  0  0  0  0  0  0  0  0  0
    5.2223    3.9576    0.0000 H   0  0  0  0  0  0  0  0  0  0  0  0
    4.2957    3.4226    0.0000 H   0  0  0  0  0  0  0  0  0  0  0  0
    5.4017    0.5160    0.0000 H   0  0  0  0  0  0  0  0  0  0  0  0
    2.1854   -1.3410    0.0000 H   0  0  0  0  0  0  0  0  0  0  0  0
    5.4017   -1.3410    0.0000 H   0  0  0  0  0  0  0  0  0  0  0  0
  1 23  1  0  0  0  0
  2 23  1  0  0  0  0
  3 23  1  0  0  0  0
  4 14  2  0  0  0  0
  5 15  2  0  0  0  0
  6 16  2  0  0  0  0
  7  9  1  0  0  0  0
  8  9  2  0  0  0  0
  9 18  1  0  0  0  0
 10 14  1  0  0  0  0
 10 15  1  0  0  0  0
 10 16  1  0  0  0  0
 10 24  1  0  0  0  0
 11 12  1  0  0  0  0
 11 13  1  0  0  0  0
 11 25  1  0  0  0  0
 11 26  1  0  0  0  0
 12 14  1  0  0  0  0
 12 27  1  0  0  0  0
 12 28  1  0  0  0  0
 13 15  1  0  0  0  0
 13 29  1  0  0  0  0
 13 30  1  0  0  0  0
 16 17  1  0  0  0  0
 17 18  2  0  0  0  0
 17 19  1  0  0  0  0
 18 21  1  0  0  0  0
 19 22  2  0  0  0  0
 19 31  1  0  0  0  0
 20 21  2  0  0  0  0
 20 22  1  0  0  0  0
 20 23  1  0  0  0  0
 21 32  1  0  0  0  0
 22 33  1  0  0  0  0
M  CHG  2   7  -1   9   1
M  END
>  <DRUGBANK_ID>
DB00348

>  <SECONDARY_ACCESSION_NUMBERS>
APRD01141

>  <COMMON_NAME>
Nitisinone

>  <CAS_NUMBER>
104206-65-7

>  <UNII>
K5BN214699

>  <SYNONYMS>
2-(alpha,alpha,alpha-Trifluoro-2-nitro-p-tuluoyl)-1,3-cyclohexanedione; Nitisinona; Nitisinone; Nitisinonum

$$$$
