
 OpenBabel10282417072D

 64 66  0  0  1  0  0  0  0  0999 V2000
   -2.8579    5.7750    0.0000 C   0  0  0  0  0  0  0  0  0  0  0  0
   -2.8579    4.9500    0.0000 C   0  0  0  0  0  0  0  0  0  0  0  0
   -2.1434    4.5375    0.0000 C   0  0  0  0  0  0  0  0  0  0  0  0
   -2.1434    3.7125    0.0000 C   0  0  2  0  0  0  0  0  0  0  0  0
   -2.8579    3.3000    0.0000 O   0  0  0  0  0  0  0  0  0  0  0  0
   -3.5724    3.7125    0.0000 C   0  0  0  0  0  0  0  0  0  0  0  0
   -4.2868    3.3000    0.0000 C   0  0  0  0  0  0  0  0  0  0  0  0
   -5.0013    3.7125    0.0000 C   0  0  0  0  0  0  0  0  0  0  0  0
   -5.7158    3.3000    0.0000 C   0  0  0  0  0  0  0  0  0  0  0  0
   -5.0013    4.5375    0.0000 C   0  0  0  0  0  0  0  0  0  0  0  0
   -5.7158    4.9500    0.0000 N   0  0  0  0  0  0  0  0  0  0  0  0
   -6.4694    4.6144    0.0000 C   0  0  0  0  0  0  0  0  0  0  0  0
   -7.0215    5.2275    0.0000 C   0  0  0  0  0  0  0  0  0  0  0  0
   -6.6090    5.9420    0.0000 C   0  0  0  0  0  0  0  0  0  0  0  0
   -5.8020    5.7705    0.0000 N   0  0  0  0  0  0  0  0  0  0  0  0
   -7.8420    5.1413    0.0000 C   0  0  0  0  0  0  0  0  0  0  0  0
   -8.6624    5.0551    0.0000 F   0  0  0  0  0  0  0  0  0  0  0  0
   -7.7557    4.3208    0.0000 F   0  0  0  0  0  0  0  0  0  0  0  0
   -7.9282    5.9618    0.0000 F   0  0  0  0  0  0  0  0  0  0  0  0
   -4.2868    4.9500    0.0000 C   0  0  0  0  0  0  0  0  0  0  0  0
   -4.2868    5.7750    0.0000 C   0  0  0  0  0  0  0  0  0  0  0  0
   -3.5724    4.5375    0.0000 C   0  0  0  0  0  0  0  0  0  0  0  0
   -1.4289    3.3000    0.0000 C   0  0  0  0  0  0  0  0  0  0  0  0
   -0.7145    3.7125    0.0000 C   0  0  0  0  0  0  0  0  0  0  0  0
    0.0000    3.3000    0.0000 C   0  0  0  0  0  0  0  0  0  0  0  0
    0.0000    2.4750    0.0000 C   0  0  0  0  0  0  0  0  0  0  0  0
   -0.7145    2.0625    0.0000 C   0  0  0  0  0  0  0  0  0  0  0  0
   -1.4289    2.4750    0.0000 C   0  0  0  0  0  0  0  0  0  0  0  0
    0.7145    2.0625    0.0000 C   0  0  0  0  0  0  0  0  0  0  0  0
    0.7145    1.2375    0.0000 O   0  0  0  0  0  0  0  0  0  0  0  0
    1.4289    2.4750    0.0000 N   0  0  0  0  0  0  0  0  0  0  0  0
    2.1434    2.0625    0.0000 C   0  0  0  0  0  0  0  0  0  0  0  0
    2.8579    2.4750    0.0000 C   0  0  0  0  0  0  0  0  0  0  0  0
    3.5724    2.0625    0.0000 C   0  0  0  0  0  0  0  0  0  0  0  0
    4.2868    2.4750    0.0000 O   0  0  0  0  0  0  0  0  0  0  0  0
    3.5724    1.2375    0.0000 O   0  0  0  0  0  0  0  0  0  0  0  0
   -1.9313    6.3100    0.0000 H   0  0  0  0  0  0  0  0  0  0  0  0
   -3.7845    6.3100    0.0000 H   0  0  0  0  0  0  0  0  0  0  0  0
   -2.8579    6.8450    0.0000 H   0  0  0  0  0  0  0  0  0  0  0  0
   -3.7845    4.4150    0.0000 H   0  0  0  0  0  0  0  0  0  0  0  0
   -2.8579    3.8800    0.0000 H   0  0  0  0  0  0  0  0  0  0  0  0
   -1.2168    5.0725    0.0000 H   0  0  0  0  0  0  0  0  0  0  0  0
   -1.2168    4.0025    0.0000 H   0  0  0  0  0  0  0  0  0  0  0  0
   -3.0700    4.2475    0.0000 H   0  0  0  0  0  0  0  0  0  0  0  0
   -4.2868    2.2680    0.0000 H   0  0  0  0  0  0  0  0  0  0  0  0
   -6.6424    3.8350    0.0000 H   0  0  0  0  0  0  0  0  0  0  0  0
   -5.7158    2.2300    0.0000 H   0  0  0  0  0  0  0  0  0  0  0  0
   -6.6425    2.7650    0.0000 H   0  0  0  0  0  0  0  0  0  0  0  0
   -6.6839    3.6049    0.0000 H   0  0  0  0  0  0  0  0  0  0  0  0
   -7.0288    6.8848    0.0000 H   0  0  0  0  0  0  0  0  0  0  0  0
   -3.3602    6.3100    0.0000 H   0  0  0  0  0  0  0  0  0  0  0  0
   -5.2134    6.3100    0.0000 H   0  0  0  0  0  0  0  0  0  0  0  0
   -4.2868    6.8450    0.0000 H   0  0  0  0  0  0  0  0  0  0  0  0
   -2.6787    5.0535    0.0000 H   0  0  0  0  0  0  0  0  0  0  0  0
   -0.7145    4.7445    0.0000 H   0  0  0  0  0  0  0  0  0  0  0  0
    0.8937    3.8160    0.0000 H   0  0  0  0  0  0  0  0  0  0  0  0
   -0.7145    1.0305    0.0000 H   0  0  0  0  0  0  0  0  0  0  0  0
   -2.3226    1.9590    0.0000 H   0  0  0  0  0  0  0  0  0  0  0  0
    1.4289    3.4595    0.0000 H   0  0  0  0  0  0  0  0  0  0  0  0
    2.1434    0.9925    0.0000 H   0  0  0  0  0  0  0  0  0  0  0  0
    3.0700    1.5275    0.0000 H   0  0  0  0  0  0  0  0  0  0  0  0
    2.8579    3.5450    0.0000 H   0  0  0  0  0  0  0  0  0  0  0  0
    3.7845    3.0100    0.0000 H   0  0  0  0  0  0  0  0  0  0  0  0
    5.0983    2.0065    0.0000 H   0  0  0  0  0  0  0  0  0  0  0  0
  1  2  1  0  0  0  0
  1 37  1  0  0  0  0
  1 38  1  0  0  0  0
  1 39  1  0  0  0  0
  2  3  1  0  0  0  0
  2 40  1  0  0  0  0
  2 41  1  0  0  0  0
  3 42  1  0  0  0  0
  3 43  1  0  0  0  0
  4  3  1  0  0  0  0
  4  5  1  0  0  0  0
  4 23  1  0  0  0  0
  4 44  1  6  0  0  0
  5  6  1  0  0  0  0
  6  7  2  0  0  0  0
  6 22  1  0  0  0  0
  7  8  1  0  0  0  0
  7 45  1  0  0  0  0
  8  9  1  0  0  0  0
  8 10  2  0  0  0  0
  9 46  1  0  0  0  0
  9 47  1  0  0  0  0
  9 48  1  0  0  0  0
 10 11  1  0  0  0  0
 10 20  1  0  0  0  0
 11 12  1  0  0  0  0
 11 15  1  0  0  0  0
 12 13  2  0  0  0  0
 12 49  1  0  0  0  0
 13 14  1  0  0  0  0
 13 16  1  0  0  0  0
 14 15  2  0  0  0  0
 14 50  1  0  0  0  0
 16 17  1  0  0  0  0
 16 18  1  0  0  0  0
 16 19  1  0  0  0  0
 20 21  1  0  0  0  0
 20 22  2  0  0  0  0
 21 51  1  0  0  0  0
 21 52  1  0  0  0  0
 21 53  1  0  0  0  0
 22 54  1  0  0  0  0
 23 24  2  0  0  0  0
 23 28  1  0  0  0  0
 24 25  1  0  0  0  0
 24 55  1  0  0  0  0
 25 26  2  0  0  0  0
 25 56  1  0  0  0  0
 26 27  1  0  0  0  0
 26 29  1  0  0  0  0
 27 28  2  0  0  0  0
 27 57  1  0  0  0  0
 28 58  1  0  0  0  0
 29 30  2  0  0  0  0
 29 31  1  0  0  0  0
 31 32  1  0  0  0  0
 31 59  1  0  0  0  0
 32 33  1  0  0  0  0
 32 60  1  0  0  0  0
 32 61  1  0  0  0  0
 33 34  1  0  0  0  0
 33 62  1  0  0  0  0
 33 63  1  0  0  0  0
 34 35  1  0  0  0  0
 34 36  2  0  0  0  0
 35 64  1  0  0  0  0
M  END
>  <DRUGBANK_ID>
DB15065

>  <COMMON_NAME>
PF-06291874

>  <CAS_NUMBER>
1393124-08-7

>  <UNII>
CGY4I8F278

$$$$
