
 OpenBabel10282417072D

 49 52  0  0  1  0  0  0  0  0999 V2000
   -0.6618   -0.0421    0.0000 C   0  0  2  0  0  0  0  0  0  0  0  0
    0.7706   -0.0421    0.0000 C   0  0  1  0  0  0  0  0  0  0  0  0
    1.4974    0.3792    0.0000 C   0  0  1  0  0  0  0  0  0  0  0  0
    1.4974    1.1867    0.0000 C   0  0  2  0  0  0  0  0  0  0  0  0
    2.2699    1.4360    0.0000 C   0  0  1  0  0  0  0  0  0  0  0  0
    0.0755    0.3792    0.0000 C   0  0  2  0  0  0  0  0  0  0  0  0
   -0.6618   -0.8671    0.0000 C   0  0  0  0  0  0  0  0  0  0  0  0
   -1.3710   -1.2849    0.0000 C   0  0  0  0  0  0  0  0  0  0  0  0
   -2.0837   -0.8671    0.0000 C   0  0  0  0  0  0  0  0  0  0  0  0
   -2.8035   -1.2849    0.0000 O   0  0  0  0  0  0  0  0  0  0  0  0
   -2.0837   -0.0421    0.0000 C   0  0  0  0  0  0  0  0  0  0  0  0
   -1.3710    0.3792    0.0000 C   0  0  0  0  0  0  0  0  0  0  0  0
   -1.3710    1.2078    0.0000 H   0  0  0  0  0  0  0  0  0  0  0  0
   -2.8035    0.3757    0.0000 H   0  0  0  0  0  0  0  0  0  0  0  0
    0.0755   -1.2849    0.0000 C   0  0  0  0  0  0  0  0  0  0  0  0
    0.0650   -2.1593    0.0000 H   0  0  0  0  0  0  0  0  0  0  0  0
    0.7706   -0.8671    0.0000 C   0  0  0  0  0  0  0  0  0  0  0  0
    2.6350    2.1593    0.0000 O   0  0  0  0  0  0  0  0  0  0  0  0
    2.8035    0.7619    0.0000 C   0  0  0  0  0  0  0  0  0  0  0  0
    2.2699    0.1123    0.0000 C   0  0  0  0  0  0  0  0  0  0  0  0
    1.5045    1.9522    0.0000 C   0  0  0  0  0  0  0  0  0  0  0  0
    0.7706    1.5940    0.0000 C   0  0  0  0  0  0  0  0  0  0  0  0
    0.0755    1.1867    0.0000 C   0  0  0  0  0  0  0  0  0  0  0  0
    0.0720   -0.4282    0.0000 H   0  0  0  0  0  0  0  0  0  0  0  0
    1.4974   -0.4107    0.0000 H   0  0  0  0  0  0  0  0  0  0  0  0
    0.7672    0.7760    0.0000 H   0  0  0  0  0  0  0  0  0  0  0  0
    1.4799   -1.2779    0.0000 H   0  0  0  0  0  0  0  0  0  0  0  0
   -0.6618    0.7865    0.0000 C   0  0  0  0  0  0  0  0  0  0  0  0
    1.5743    2.2490    0.0000 H   0  0  0  0  0  0  0  0  0  0  0  0
   -1.3699   -2.3169    0.0000 H   0  0  0  0  0  0  0  0  0  0  0  0
   -2.0880    1.0279    0.0000 H   0  0  0  0  0  0  0  0  0  0  0  0
   -2.3004    0.9094    0.0000 H   0  0  0  0  0  0  0  0  0  0  0  0
    1.0036   -1.8173    0.0000 H   0  0  0  0  0  0  0  0  0  0  0  0
    0.7793   -1.9371    0.0000 H   0  0  0  0  0  0  0  0  0  0  0  0
    3.6035    2.2137    0.0000 H   0  0  0  0  0  0  0  0  0  0  0  0
    3.8735    0.7522    0.0000 H   0  0  0  0  0  0  0  0  0  0  0  0
    3.2564   -0.2075    0.0000 H   0  0  0  0  0  0  0  0  0  0  0  0
    2.5607   -0.9174    0.0000 H   0  0  0  0  0  0  0  0  0  0  0  0
    3.3172   -0.1068    0.0000 H   0  0  0  0  0  0  0  0  0  0  0  0
    2.4361    2.4786    0.0000 H   0  0  0  0  0  0  0  0  0  0  0  0
    0.5829    2.4958    0.0000 H   0  0  0  0  0  0  0  0  0  0  0  0
    1.5144    3.0222    0.0000 H   0  0  0  0  0  0  0  0  0  0  0  0
    0.7603    2.6640    0.0000 H   0  0  0  0  0  0  0  0  0  0  0  0
   -0.1603    2.1215    0.0000 H   0  0  0  0  0  0  0  0  0  0  0  0
   -0.8529    1.7187    0.0000 H   0  0  0  0  0  0  0  0  0  0  0  0
   -0.8503    0.6502    0.0000 H   0  0  0  0  0  0  0  0  0  0  0  0
    0.2648    1.3215    0.0000 H   0  0  0  0  0  0  0  0  0  0  0  0
   -1.5884    1.3215    0.0000 H   0  0  0  0  0  0  0  0  0  0  0  0
   -0.6618    1.8565    0.0000 H   0  0  0  0  0  0  0  0  0  0  0  0
  1 28  1  1  0  0  0
  2  6  1  0  0  0  0
  2 26  1  1  0  0  0
  3  2  1  0  0  0  0
  3 25  1  6  0  0  0
  4  3  1  0  0  0  0
  4 21  1  1  0  0  0
  5  4  1  0  0  0  0
  5 18  1  0  0  0  0
  5 29  1  6  0  0  0
  6  1  1  0  0  0  0
  6 24  1  6  0  0  0
  7  1  1  0  0  0  0
  8  7  2  0  0  0  0
  8 30  1  0  0  0  0
  9  8  1  0  0  0  0
 10  9  2  0  0  0  0
 11  9  1  0  0  0  0
 11 12  1  0  0  0  0
 11 31  1  0  0  0  0
 12  1  1  0  0  0  0
 12 32  1  0  0  0  0
 13 12  1  0  0  0  0
 14 11  1  0  0  0  0
 15  7  1  0  0  0  0
 15 33  1  0  0  0  0
 16 15  1  0  0  0  0
 17  2  1  0  0  0  0
 17 15  1  0  0  0  0
 17 34  1  0  0  0  0
 18 35  1  0  0  0  0
 19  5  1  0  0  0  0
 19 20  1  0  0  0  0
 19 36  1  0  0  0  0
 19 37  1  0  0  0  0
 20  3  1  0  0  0  0
 20 38  1  0  0  0  0
 20 39  1  0  0  0  0
 21 40  1  0  0  0  0
 21 41  1  0  0  0  0
 21 42  1  0  0  0  0
 22  4  1  0  0  0  0
 22 23  1  0  0  0  0
 22 43  1  0  0  0  0
 22 44  1  0  0  0  0
 23  6  1  0  0  0  0
 23 45  1  0  0  0  0
 23 46  1  0  0  0  0
 27 17  1  0  0  0  0
 28 47  1  0  0  0  0
 28 48  1  0  0  0  0
 28 49  1  0  0  0  0
M  ISO  4  13   3  14   3  16   3  27   3
M  END
>  <DRUGBANK_ID>
DB14093

>  <COMMON_NAME>
(1,2,6,7-3H)Testosterone

>  <CAS_NUMBER>
67308-98-9

>  <UNII>
P57HP4MCQZ

>  <SYNONYMS>
Testosterone, 1,2,6,7-H-3

$$$$
