
 OpenBabel10282417072D

 58 61  0  0  1  0  0  0  0  0999 V2000
   -0.2233   -4.7759    0.0000 C   0  0  0  0  0  0  0  0  0  0  0  0
   -2.5706   -2.9487    0.0000 C   0  0  0  0  0  0  0  0  0  0  0  0
   -2.4844   -3.7692    0.0000 C   0  0  0  0  0  0  0  0  0  0  0  0
   -1.9032   -2.4638    0.0000 C   0  0  0  0  0  0  0  0  0  0  0  0
   -1.7307   -4.1048    0.0000 C   0  0  0  0  0  0  0  0  0  0  0  0
    0.0992   -0.1841    0.0000 C   0  0  0  0  0  0  0  0  0  0  0  0
    1.1387   -2.0486    0.0000 C   0  0  0  0  0  0  0  0  0  0  0  0
    3.3523    1.1104    0.0000 C   0  0  0  0  0  0  0  0  0  0  0  0
    0.6538    1.5229    0.0000 C   0  0  0  0  0  0  0  0  0  0  0  0
   -1.1495   -2.7994    0.0000 C   0  0  0  0  0  0  0  0  0  0  0  0
   -1.0632   -3.6199    0.0000 C   0  0  0  0  0  0  0  0  0  0  0  0
    0.0992   -1.0091    0.0000 C   0  0  1  0  0  0  0  0  0  0  0  0
    0.8838   -1.2640    0.0000 C   0  0  2  0  0  0  0  0  0  0  0  0
    0.8838    0.0709    0.0000 C   0  0  2  0  0  0  0  0  0  0  0  0
    1.9233    1.9354    0.0000 C   0  0  0  0  0  0  0  0  0  0  0  0
    2.6378    2.3479    0.0000 C   0  0  0  0  0  0  0  0  0  0  0  0
    1.9233    1.1104    0.0000 C   0  0  0  0  0  0  0  0  0  0  0  0
   -0.4820   -2.3145    0.0000 C   0  0  0  0  0  0  0  0  0  0  0  0
    2.6378    3.1729    0.0000 N   0  0  0  0  0  0  0  0  0  0  0  0
   -0.3096   -3.9554    0.0000 N   0  0  0  0  0  0  0  0  0  0  0  0
    3.3523    1.9354    0.0000 N   0  0  0  0  0  0  0  0  0  0  0  0
    2.6378    0.6979    0.0000 N   0  0  0  0  0  0  0  0  0  0  0  0
    1.1387    2.1904    0.0000 N   0  0  0  0  0  0  0  0  0  0  0  0
    1.1387    0.8555    0.0000 N   0  0  0  0  0  0  0  0  0  0  0  0
    0.2716   -2.6500    0.0000 O   0  0  0  0  0  0  0  0  0  0  0  0
    2.7678   -3.7730    0.0000 O   0  0  0  0  0  0  0  0  0  0  0  0
    3.7463   -3.1376    0.0000 O   0  0  0  0  0  0  0  0  0  0  0  0
    2.1323   -2.7945    0.0000 O   0  0  0  0  0  0  0  0  0  0  0  0
    3.0498   -0.9940    0.0000 O   0  0  0  0  0  0  0  0  0  0  0  0
    1.8846   -1.0550    0.0000 O   0  0  0  0  0  0  0  0  0  0  0  0
    1.9457   -2.2201    0.0000 O   0  0  0  0  0  0  0  0  0  0  0  0
    1.3687   -0.5966    0.0000 O   0  0  0  0  0  0  0  0  0  0  0  0
   -0.5683   -1.4940    0.0000 O   0  0  0  0  0  0  0  0  0  0  0  0
    3.1108   -2.1591    0.0000 O   0  0  0  0  0  0  0  0  0  0  0  0
    2.9393   -2.9661    0.0000 P   0  0  0  0  0  0  0  0  0  0  0  0
    2.4977   -1.6071    0.0000 P   0  0  3  0  0  0  0  0  0  0  0  0
   -0.6359   -0.6345    0.0000 H   0  0  0  0  0  0  0  0  0  0  0  0
    0.3004   -1.8474    0.0000 H   0  0  0  0  0  0  0  0  0  0  0  0
    0.3004    0.6542    0.0000 H   0  0  0  0  0  0  0  0  0  0  0  0
   -1.0889   -5.4049    0.0000 H   0  0  0  0  0  0  0  0  0  0  0  0
    0.7542   -5.2110    0.0000 H   0  0  0  0  0  0  0  0  0  0  0  0
   -0.1114   -5.8400    0.0000 H   0  0  0  0  0  0  0  0  0  0  0  0
   -3.5134   -2.5289    0.0000 H   0  0  0  0  0  0  0  0  0  0  0  0
   -3.3193   -4.3758    0.0000 H   0  0  0  0  0  0  0  0  0  0  0  0
   -2.0111   -1.4375    0.0000 H   0  0  0  0  0  0  0  0  0  0  0  0
   -1.6229   -5.1312    0.0000 H   0  0  0  0  0  0  0  0  0  0  0  0
   -0.7665    0.4448    0.0000 H   0  0  0  0  0  0  0  0  0  0  0  0
    0.2665    0.8727    0.0000 H   0  0  0  0  0  0  0  0  0  0  0  0
    0.4227   -2.8438    0.0000 H   0  0  0  0  0  0  0  0  0  0  0  0
    1.4694   -3.0662    0.0000 H   0  0  0  0  0  0  0  0  0  0  0  0
    4.2460    0.5944    0.0000 H   0  0  0  0  0  0  0  0  0  0  0  0
   -0.3782    1.5229    0.0000 H   0  0  0  0  0  0  0  0  0  0  0  0
    3.4904    3.6651    0.0000 H   0  0  0  0  0  0  0  0  0  0  0  0
    1.7852    3.6651    0.0000 H   0  0  0  0  0  0  0  0  0  0  0  0
    0.4868   -3.3767    0.0000 H   0  0  0  0  0  0  0  0  0  0  0  0
    1.8453   -4.0728    0.0000 H   0  0  0  0  0  0  0  0  0  0  0  0
    4.0461   -4.0601    0.0000 H   0  0  0  0  0  0  0  0  0  0  0  0
    3.9986   -1.1957    0.0000 H   0  0  0  0  0  0  0  0  0  0  0  0
  1 40  1  0  0  0  0
  1 41  1  0  0  0  0
  1 42  1  0  0  0  0
  2 43  1  0  0  0  0
  3  2  2  0  0  0  0
  3 44  1  0  0  0  0
  4  2  1  0  0  0  0
  4 45  1  0  0  0  0
  5  3  1  0  0  0  0
  5 46  1  0  0  0  0
  6 47  1  0  0  0  0
  6 48  1  0  0  0  0
  7 49  1  0  0  0  0
  7 50  1  0  0  0  0
  8 51  1  0  0  0  0
  9 52  1  0  0  0  0
 10  4  2  0  0  0  0
 11  5  2  0  0  0  0
 11 10  1  0  0  0  0
 12  6  1  0  0  0  0
 12 33  1  0  0  0  0
 12 37  1  6  0  0  0
 13  7  1  0  0  0  0
 13 12  1  0  0  0  0
 13 38  1  1  0  0  0
 14  6  1  0  0  0  0
 14 24  1  0  0  0  0
 14 39  1  1  0  0  0
 16 15  2  0  0  0  0
 17 15  1  0  0  0  0
 18 10  1  0  0  0  0
 19 16  1  0  0  0  0
 19 53  1  0  0  0  0
 19 54  1  0  0  0  0
 20  1  1  0  0  0  0
 20 11  1  0  0  0  0
 20 55  1  0  0  0  0
 21  8  2  0  0  0  0
 21 16  1  0  0  0  0
 22  8  1  0  0  0  0
 22 17  2  0  0  0  0
 23  9  2  0  0  0  0
 23 15  1  0  0  0  0
 24  9  1  0  0  0  0
 24 17  1  0  0  0  0
 25 18  2  0  0  0  0
 26 56  1  0  0  0  0
 27 57  1  0  0  0  0
 29 58  1  0  0  0  0
 31  7  1  0  0  0  0
 32 13  1  0  0  0  0
 32 14  1  0  0  0  0
 33 18  1  0  0  0  0
 35 26  1  0  0  0  0
 35 27  1  0  0  0  0
 35 28  2  0  0  0  0
 35 34  1  0  0  0  0
 36 29  1  0  0  0  0
 36 30  2  0  0  0  0
 36 31  1  0  0  0  0
 36 34  1  0  0  0  0
M  END
>  <DRUGBANK_ID>
DB03126

>  <SECONDARY_ACCESSION_NUMBERS>
EXPT02204

>  <COMMON_NAME>
Mant-Adp

$$$$
