
 OpenBabel10282417072D

 76 80  0  0  0  0  0  0  0  0999 V2000
    3.5439    0.5420    0.0000 N   0  0  0  0  0  0  0  0  0  0  0  0
    4.3250    0.7985    0.0000 C   0  0  0  0  0  0  0  0  0  0  0  0
    3.2874   -0.2390    0.0000 C   0  0  2  0  0  0  0  0  0  0  0  0
    3.0543    1.2066    0.0000 C   0  0  0  0  0  0  0  0  0  0  0  0
    4.3250    1.6145    0.0000 C   0  0  0  0  0  0  0  0  0  0  0  0
    5.0361    0.3789    0.0000 N   0  0  0  0  0  0  0  0  0  0  0  0
    2.5064   -0.4955    0.0000 O   0  0  0  0  0  0  0  0  0  0  0  0
    3.7654   -0.9034    0.0000 C   0  0  1  0  0  0  0  0  0  0  0  0
    3.5439    1.8710    0.0000 N   0  0  0  0  0  0  0  0  0  0  0  0
    5.0361    2.0342    0.0000 C   0  0  0  0  0  0  0  0  0  0  0  0
    5.7472    0.7985    0.0000 C   0  0  0  0  0  0  0  0  0  0  0  0
    2.5064   -1.3231    0.0000 C   0  0  1  0  0  0  0  0  0  0  0  0
    3.2874   -1.5795    0.0000 C   0  0  1  0  0  0  0  0  0  0  0  0
    5.7472    1.6145    0.0000 N   0  0  0  0  0  0  0  0  0  0  0  0
    5.0361    2.8503    0.0000 N   0  0  0  0  0  0  0  0  0  0  0  0
    1.8303   -1.8011    0.0000 C   0  0  0  0  0  0  0  0  0  0  0  0
    3.5439   -2.3607    0.0000 O   0  0  0  0  0  0  0  0  0  0  0  0
    1.0842   -1.4746    0.0000 O   0  0  0  0  0  0  0  0  0  0  0  0
   -1.7720   -1.4746    0.0000 O   0  0  0  0  0  0  0  0  0  0  0  0
   -2.4364   -1.9526    0.0000 C   0  0  0  0  0  0  0  0  0  0  0  0
   -3.1942   -1.6146    0.0000 C   0  0  1  0  0  0  0  0  0  0  0  0
   -3.3574   -0.8101    0.0000 O   0  0  0  0  0  0  0  0  0  0  0  0
   -3.9053   -2.0342    0.0000 C   0  0  2  0  0  0  0  0  0  0  0  0
   -4.1851   -0.7285    0.0000 C   0  0  2  0  0  0  0  0  0  0  0  0
   -4.5114   -1.4746    0.0000 C   0  0  2  0  0  0  0  0  0  0  0  0
   -3.9869   -2.8503    0.0000 O   0  0  0  0  0  0  0  0  0  0  0  0
   -4.5930   -0.0174    0.0000 N   0  3  0  0  0  0  0  0  0  0  0  0
   -5.3275   -1.6495    0.0000 O   0  0  0  0  0  0  0  0  0  0  0  0
   -4.1851    0.7052    0.0000 C   0  0  0  0  0  0  0  0  0  0  0  0
   -5.4207   -0.0174    0.0000 C   0  0  0  0  0  0  0  0  0  0  0  0
   -4.5930    1.4163    0.0000 C   0  0  0  0  0  0  0  0  0  0  0  0
   -5.8288    0.7052    0.0000 C   0  0  0  0  0  0  0  0  0  0  0  0
   -5.4207    1.4163    0.0000 C   0  0  0  0  0  0  0  0  0  0  0  0
   -4.1851    2.1275    0.0000 C   0  0  0  0  0  0  0  0  0  0  0  0
   -4.5930    2.8386    0.0000 O   0  0  0  0  0  0  0  0  0  0  0  0
   -3.3574    2.1275    0.0000 N   0  0  0  0  0  0  0  0  0  0  0  0
   -0.3497   -1.4746    0.0000 O   0  0  0  0  0  0  0  0  0  0  0  0
    0.3730   -2.7104    0.0000 O   0  0  0  0  0  0  0  0  0  0  0  0
   -1.0608   -2.7104    0.0000 O   0  0  0  0  0  0  0  0  0  0  0  0
   -1.0608   -1.8827    0.0000 P   0  0  3  0  0  0  0  0  0  0  0  0
   -1.0608   -1.0550    0.0000 O   0  5  0  0  0  0  0  0  0  0  0  0
    0.3730   -1.8827    0.0000 P   0  0  3  0  0  0  0  0  0  0  0  0
    0.3730   -1.0550    0.0000 O   0  0  0  0  0  0  0  0  0  0  0  0
    4.5931   -0.9034    0.0000 O   0  0  0  0  0  0  0  0  0  0  0  0
    4.5931   -2.3373    0.0000 O   0  0  0  0  0  0  0  0  0  0  0  0
    5.8288   -1.6262    0.0000 O   0  0  0  0  0  0  0  0  0  0  0  0
    5.0011   -1.6262    0.0000 P   0  0  0  0  0  0  0  0  0  0  0  0
    5.4207   -2.3373    0.0000 O   0  0  0  0  0  0  0  0  0  0  0  0
    2.5308    0.5176    0.0000 H   0  0  0  0  0  0  0  0  0  0  0  0
    2.0223    1.2067    0.0000 H   0  0  0  0  0  0  0  0  0  0  0  0
    4.2534    0.0488    0.0000 H   0  0  0  0  0  0  0  0  0  0  0  0
    6.6434    0.2867    0.0000 H   0  0  0  0  0  0  0  0  0  0  0  0
    1.5562   -0.8312    0.0000 H   0  0  0  0  0  0  0  0  0  0  0  0
    4.3455   -1.7384    0.0000 H   0  0  0  0  0  0  0  0  0  0  0  0
    5.8887    3.3425    0.0000 H   0  0  0  0  0  0  0  0  0  0  0  0
    4.1835    3.3426    0.0000 H   0  0  0  0  0  0  0  0  0  0  0  0
    1.9387   -2.8656    0.0000 H   0  0  0  0  0  0  0  0  0  0  0  0
    0.9656   -2.4314    0.0000 H   0  0  0  0  0  0  0  0  0  0  0  0
    2.8971   -3.0836    0.0000 H   0  0  0  0  0  0  0  0  0  0  0  0
   -2.3274   -3.0170    0.0000 H   0  0  0  0  0  0  0  0  0  0  0  0
   -3.3031   -2.5801    0.0000 H   0  0  0  0  0  0  0  0  0  0  0  0
   -2.3593   -0.9454    0.0000 H   0  0  0  0  0  0  0  0  0  0  0  0
   -3.0037   -2.6104    0.0000 H   0  0  0  0  0  0  0  0  0  0  0  0
   -3.6040    0.1699    0.0000 H   0  0  0  0  0  0  0  0  0  0  0  0
   -4.7939   -2.5066    0.0000 H   0  0  0  0  0  0  0  0  0  0  0  0
   -4.8710   -3.2493    0.0000 H   0  0  0  0  0  0  0  0  0  0  0  0
   -5.9778   -0.9297    0.0000 H   0  0  0  0  0  0  0  0  0  0  0  0
   -3.1531    0.7088    0.0000 H   0  0  0  0  0  0  0  0  0  0  0  0
   -5.9409   -0.9087    0.0000 H   0  0  0  0  0  0  0  0  0  0  0  0
   -6.8608    0.7088    0.0000 H   0  0  0  0  0  0  0  0  0  0  0  0
   -5.9379    2.3094    0.0000 H   0  0  0  0  0  0  0  0  0  0  0  0
   -2.8651    1.2749    0.0000 H   0  0  0  0  0  0  0  0  0  0  0  0
   -2.8652    2.9801    0.0000 H   0  0  0  0  0  0  0  0  0  0  0  0
    1.2130   -0.5700    0.0000 H   0  0  0  0  0  0  0  0  0  0  0  0
    6.3138   -2.4662    0.0000 H   0  0  0  0  0  0  0  0  0  0  0  0
    4.9437   -3.1819    0.0000 H   0  0  0  0  0  0  0  0  0  0  0  0
  1  2  1  0  0  0  0
  1  4  1  0  0  0  0
  2  5  2  0  0  0  0
  2  6  1  0  0  0  0
  3  1  1  0  0  0  0
  3  7  1  0  0  0  0
  3  8  1  0  0  0  0
  3 49  1  6  0  0  0
  4  9  2  0  0  0  0
  4 50  1  0  0  0  0
  5 10  1  0  0  0  0
  5  9  1  0  0  0  0
  6 11  2  0  0  0  0
  7 12  1  0  0  0  0
  8 13  1  0  0  0  0
  8 44  1  0  0  0  0
  8 51  1  1  0  0  0
 10 14  2  0  0  0  0
 10 15  1  0  0  0  0
 11 14  1  0  0  0  0
 11 52  1  0  0  0  0
 12 16  1  0  0  0  0
 12 13  1  0  0  0  0
 12 53  1  6  0  0  0
 13 17  1  0  0  0  0
 13 54  1  1  0  0  0
 15 55  1  0  0  0  0
 15 56  1  0  0  0  0
 16 18  1  0  0  0  0
 16 57  1  0  0  0  0
 16 58  1  0  0  0  0
 17 59  1  0  0  0  0
 18 42  1  0  0  0  0
 19 20  1  0  0  0  0
 19 40  1  0  0  0  0
 20 60  1  0  0  0  0
 20 61  1  0  0  0  0
 21 20  1  0  0  0  0
 21 22  1  0  0  0  0
 21 23  1  0  0  0  0
 21 62  1  1  0  0  0
 22 24  1  0  0  0  0
 23 25  1  0  0  0  0
 23 26  1  0  0  0  0
 23 63  1  6  0  0  0
 24 27  1  0  0  0  0
 24 25  1  0  0  0  0
 24 64  1  1  0  0  0
 25 28  1  0  0  0  0
 25 65  1  6  0  0  0
 26 66  1  0  0  0  0
 27 29  2  0  0  0  0
 27 30  1  0  0  0  0
 28 67  1  0  0  0  0
 29 31  1  0  0  0  0
 29 68  1  0  0  0  0
 30 32  2  0  0  0  0
 30 69  1  0  0  0  0
 31 33  2  0  0  0  0
 31 34  1  0  0  0  0
 32 33  1  0  0  0  0
 32 70  1  0  0  0  0
 33 71  1  0  0  0  0
 34 35  2  0  0  0  0
 34 36  1  0  0  0  0
 36 72  1  0  0  0  0
 36 73  1  0  0  0  0
 37 42  1  0  0  0  0
 37 40  1  0  0  0  0
 38 42  2  0  0  0  0
 39 40  2  0  0  0  0
 40 41  1  0  0  0  0
 42 43  1  0  0  0  0
 43 74  1  0  0  0  0
 44 47  1  0  0  0  0
 45 47  2  0  0  0  0
 46 47  1  0  0  0  0
 46 75  1  0  0  0  0
 47 48  1  0  0  0  0
 48 76  1  0  0  0  0
M  CHG  2  27   1  41  -1
M  END
>  <DRUGBANK_ID>
DB03461

>  <SECONDARY_ACCESSION_NUMBERS>
EXPT02293

>  <COMMON_NAME>
Nicotinamide adenine dinucleotide phosphate

>  <CAS_NUMBER>
53-59-8

>  <UNII>
BY8P107XEP

>  <SYNONYMS>
Codehydrase II; Codehydrogenase II; Coenzyme II; Triphosphopyridine nucleotide

$$$$
