
 OpenBabel10282417072D

 33 35  0  0  0  0  0  0  0  0999 V2000
    0.4124    0.8662    0.0000 N   0  0  0  0  0  0  0  0  0  0  0  0
    1.1137    0.3712    0.0000 C   0  0  0  0  0  0  0  0  0  0  0  0
   -0.3712    0.6188    0.0000 C   0  0  2  0  0  0  0  0  0  0  0  0
    0.7012    1.6500    0.0000 C   0  0  0  0  0  0  0  0  0  0  0  0
    1.7738    0.8662    0.0000 C   0  0  0  0  0  0  0  0  0  0  0  0
    1.1962   -0.4949    0.0000 N   0  0  0  0  0  0  0  0  0  0  0  0
   -1.0725    1.1137    0.0000 O   0  0  0  0  0  0  0  0  0  0  0  0
   -0.6600   -0.2062    0.0000 C   0  0  0  0  0  0  0  0  0  0  0  0
    1.5262    1.6500    0.0000 N   0  0  0  0  0  0  0  0  0  0  0  0
    2.5162    0.5363    0.0000 C   0  0  0  0  0  0  0  0  0  0  0  0
    1.9388   -0.8250    0.0000 C   0  0  0  0  0  0  0  0  0  0  0  0
   -1.7325    0.6188    0.0000 C   0  0  1  0  0  0  0  0  0  0  0  0
   -1.4849   -0.2062    0.0000 C   0  0  1  0  0  0  0  0  0  0  0  0
    2.5988   -0.3299    0.0000 N   0  0  0  0  0  0  0  0  0  0  0  0
    3.1763    0.9900    0.0000 N   0  0  0  0  0  0  0  0  0  0  0  0
   -1.9388   -0.8662    0.0000 O   0  0  0  0  0  0  0  0  0  0  0  0
   -2.4337    1.0312    0.0000 C   0  0  0  0  0  0  0  0  0  0  0  0
   -3.1350    0.6188    0.0000 O   0  0  0  0  0  0  0  0  0  0  0  0
   -2.4337    0.2062    0.0000 C   0  0  0  0  0  0  0  0  0  0  0  0
   -3.1763   -0.2062    0.0000 C   0  0  0  0  0  0  0  0  0  0  0  0
    2.0213   -1.6500    0.0000 F   0  0  0  0  0  0  0  0  0  0  0  0
   -0.2067    1.6761    0.0000 H   0  0  0  0  0  0  0  0  0  0  0  0
    0.1109    2.4965    0.0000 H   0  0  0  0  0  0  0  0  0  0  0  0
   -0.0409   -1.0789    0.0000 H   0  0  0  0  0  0  0  0  0  0  0  0
   -1.1511   -1.1568    0.0000 H   0  0  0  0  0  0  0  0  0  0  0  0
   -0.9868   -1.1532    0.0000 H   0  0  0  0  0  0  0  0  0  0  0  0
    4.0649    0.5662    0.0000 H   0  0  0  0  0  0  0  0  0  0  0  0
    3.0990    1.9715    0.0000 H   0  0  0  0  0  0  0  0  0  0  0  0
   -2.9058   -0.7898    0.0000 H   0  0  0  0  0  0  0  0  0  0  0  0
   -2.4337    2.1012    0.0000 H   0  0  0  0  0  0  0  0  0  0  0  0
   -3.3625    1.5625    0.0000 H   0  0  0  0  0  0  0  0  0  0  0  0
   -3.9789    1.0971    0.0000 H   0  0  0  0  0  0  0  0  0  0  0  0
   -4.0453   -0.6888    0.0000 H   0  0  0  0  0  0  0  0  0  0  0  0
  1  2  1  0  0  0  0
  1  4  1  0  0  0  0
  2  5  2  0  0  0  0
  2  6  1  0  0  0  0
  3  1  1  0  0  0  0
  3  7  1  0  0  0  0
  3  8  1  0  0  0  0
  3 22  1  6  0  0  0
  4  9  2  0  0  0  0
  4 23  1  0  0  0  0
  5 10  1  0  0  0  0
  5  9  1  0  0  0  0
  6 11  2  0  0  0  0
  7 12  1  0  0  0  0
  8 13  1  0  0  0  0
  8 24  1  0  0  0  0
  8 25  1  0  0  0  0
 10 14  2  0  0  0  0
 10 15  1  0  0  0  0
 11 14  1  0  0  0  0
 11 21  1  0  0  0  0
 12 13  1  0  0  0  0
 12 17  1  0  0  0  0
 12 19  1  6  0  0  0
 13 16  1  0  0  0  0
 13 26  1  1  0  0  0
 15 27  1  0  0  0  0
 15 28  1  0  0  0  0
 16 29  1  0  0  0  0
 17 18  1  0  0  0  0
 17 30  1  0  0  0  0
 17 31  1  0  0  0  0
 18 32  1  0  0  0  0
 19 20  3  0  0  0  0
 20 33  1  0  0  0  0
M  END
>  <DRUGBANK_ID>
DB15653

>  <COMMON_NAME>
Islatravir

>  <CAS_NUMBER>
865363-93-5

>  <UNII>
QPQ082R25D

>  <SYNONYMS>
4'-ethynyl-2-fluoro-2'-deoxyadenosine; Islatravir

$$$$
