
 OpenBabel10282417072D

 47 49  0  0  1  0  0  0  0  0999 V2000
   19.2756  -10.5160    0.0000 C   0  0  2  0  0  0  0  0  0  0  0  0
   19.2756  -11.3410    0.0000 N   0  0  0  0  0  0  0  0  0  0  0  0
   19.9769  -11.7536    0.0000 C   0  0  0  0  0  0  0  0  0  0  0  0
   20.6782  -11.3410    0.0000 C   0  0  0  0  0  0  0  0  0  0  0  0
   20.6782  -10.5160    0.0000 C   0  0  0  0  0  0  0  0  0  0  0  0
   19.9769  -10.1035    0.0000 S   0  0  0  0  0  0  0  0  0  0  0  0
   18.4506  -10.5160    0.0000 C   0  0  1  0  0  0  0  0  0  0  0  0
   18.4506  -11.3410    0.0000 C   0  0  0  0  0  0  0  0  0  0  0  0
   17.7079  -10.1035    0.0000 N   0  0  0  0  0  0  0  0  0  0  0  0
   17.0066  -10.5160    0.0000 C   0  0  0  0  0  0  0  0  0  0  0  0
   17.0066  -11.3410    0.0000 O   0  0  0  0  0  0  0  0  0  0  0  0
   17.7079  -11.7536    0.0000 O   0  0  0  0  0  0  0  0  0  0  0  0
   16.3053  -10.1035    0.0000 C   0  0  0  0  0  0  0  0  0  0  0  0
   21.4207  -11.7536    0.0000 C   0  0  0  0  0  0  0  0  0  0  0  0
   15.5628  -10.5160    0.0000 C   0  0  0  0  0  0  0  0  0  0  0  0
   19.2756   -9.6909    0.0000 H   0  0  0  0  0  0  0  0  0  0  0  0
   14.9440  -10.0209    0.0000 C   0  0  0  0  0  0  0  0  0  0  0  0
   14.2428  -10.4747    0.0000 S   0  0  0  0  0  0  0  0  0  0  0  0
   14.4903  -11.2998    0.0000 C   0  0  0  0  0  0  0  0  0  0  0  0
   15.3153  -11.2998    0.0000 N   0  0  0  0  0  0  0  0  0  0  0  0
   16.3053   -9.2784    0.0000 N   0  0  0  0  0  0  0  0  0  0  0  0
   19.9769  -12.5786    0.0000 C   0  0  0  0  0  0  0  0  0  0  0  0
   20.6782  -12.9912    0.0000 O   0  0  0  0  0  0  0  0  0  0  0  0
   19.2344  -12.9912    0.0000 O   0  0  0  0  0  0  0  0  0  0  0  0
   13.9952  -11.9598    0.0000 N   0  0  0  0  0  0  0  0  0  0  0  0
   22.1309  -11.3277    0.0000 O   0  0  0  0  0  0  0  0  0  0  0  0
   22.8505  -11.7274    0.0000 C   0  0  0  0  0  0  0  0  0  0  0  0
   23.5487  -11.3086    0.0000 C   0  0  0  0  0  0  0  0  0  0  0  0
   22.8505  -12.5525    0.0000 O   0  0  0  0  0  0  0  0  0  0  0  0
   17.0121   -8.8741    0.0000 O   0  0  0  0  0  0  0  0  0  0  0  0
   17.0121   -8.0490    0.0000 C   0  0  0  0  0  0  0  0  0  0  0  0
   21.6070   -9.9848    0.0000 H   0  0  0  0  0  0  0  0  0  0  0  0
   20.6847   -9.4460    0.0000 H   0  0  0  0  0  0  0  0  0  0  0  0
   18.7189   -9.4802    0.0000 H   0  0  0  0  0  0  0  0  0  0  0  0
   17.6957   -9.1191    0.0000 H   0  0  0  0  0  0  0  0  0  0  0  0
   21.4383  -12.8235    0.0000 H   0  0  0  0  0  0  0  0  0  0  0  0
   22.3561  -12.2732    0.0000 H   0  0  0  0  0  0  0  0  0  0  0  0
   14.9958   -8.9902    0.0000 H   0  0  0  0  0  0  0  0  0  0  0  0
   20.6705  -13.9282    0.0000 H   0  0  0  0  0  0  0  0  0  0  0  0
   13.0178  -11.8419    0.0000 H   0  0  0  0  0  0  0  0  0  0  0  0
   14.3818  -12.8652    0.0000 H   0  0  0  0  0  0  0  0  0  0  0  0
   24.4841  -11.8281    0.0000 H   0  0  0  0  0  0  0  0  0  0  0  0
   23.5308  -10.2387    0.0000 H   0  0  0  0  0  0  0  0  0  0  0  0
   24.4663  -10.7582    0.0000 H   0  0  0  0  0  0  0  0  0  0  0  0
   17.9387   -7.5140    0.0000 H   0  0  0  0  0  0  0  0  0  0  0  0
   16.0855   -7.5140    0.0000 H   0  0  0  0  0  0  0  0  0  0  0  0
   17.0121   -6.9790    0.0000 H   0  0  0  0  0  0  0  0  0  0  0  0
  1  2  1  0  0  0  0
  1  6  1  0  0  0  0
  1  7  1  0  0  0  0
  1 16  1  6  0  0  0
  2  3  1  0  0  0  0
  2  8  1  0  0  0  0
  3  4  2  0  0  0  0
  3 22  1  0  0  0  0
  4  5  1  0  0  0  0
  4 14  1  0  0  0  0
  5  6  1  0  0  0  0
  5 32  1  0  0  0  0
  5 33  1  0  0  0  0
  7  8  1  0  0  0  0
  7  9  1  0  0  0  0
  7 34  1  6  0  0  0
  8 12  2  0  0  0  0
  9 10  1  0  0  0  0
  9 35  1  0  0  0  0
 10 11  2  0  0  0  0
 10 13  1  0  0  0  0
 13 15  1  0  0  0  0
 13 21  2  0  0  0  0
 14 26  1  0  0  0  0
 14 36  1  0  0  0  0
 14 37  1  0  0  0  0
 15 17  2  0  0  0  0
 15 20  1  0  0  0  0
 17 18  1  0  0  0  0
 17 38  1  0  0  0  0
 18 19  1  0  0  0  0
 19 20  2  0  0  0  0
 19 25  1  0  0  0  0
 21 30  1  0  0  0  0
 22 23  1  0  0  0  0
 22 24  2  0  0  0  0
 23 39  1  0  0  0  0
 25 40  1  0  0  0  0
 25 41  1  0  0  0  0
 26 27  1  0  0  0  0
 27 28  1  0  0  0  0
 27 29  2  0  0  0  0
 28 42  1  0  0  0  0
 28 43  1  0  0  0  0
 28 44  1  0  0  0  0
 30 31  1  0  0  0  0
 31 45  1  0  0  0  0
 31 46  1  0  0  0  0
 31 47  1  0  0  0  0
M  END
>  <DRUGBANK_ID>
DB00493

>  <SECONDARY_ACCESSION_NUMBERS>
APRD00854

>  <COMMON_NAME>
Cefotaxime

>  <CAS_NUMBER>
63527-52-6

>  <UNII>
N2GI8B1GK7

>  <SYNONYMS>
(6R,7R,Z)-3-(acetoxymethyl)-7-(2-(2-aminothiazol-4-yl)-2-(methoxyimino)acetamido)-8-oxo-5-thia-1-aza-bicyclo[4.2.0]oct-2-ene-2-carboxylic acid; (6R,7R)-3-(acetoxymethyl)-7-{[(2Z)-2-(2-amino-1,3-thiazol-4-yl)-2-(methoxyimino)acetyl]amino}-8-oxo-5-thia-1-azabicyclo[4.2.0]oct-2-ene-2-carboxylic acid; (6R,7R)-3-Acetoxymethyl-7-{2-(2-amino-thiazol-4-yl)-2-[(Z)-methoxyimino]-acetylamino}-8-oxo-5-thia-1-aza-bicyclo[4.2.0]oct-2-ene-2-carboxylic acid; Cefotaxim; Cefotaxima; Cefotaxime; CÃ©fotaxime; Cefotaximum; Cephotaxime

$$$$
