E1P
 OpenBabel10282417072D

 28 28  0  0  0  0  0  0  0  0999 V2000
   -0.6606   -0.5698    0.0000 C   0  0  0  0  0  0  0  0  0  0  0  0
   -1.3751   -0.9823    0.0000 C   0  0  0  0  0  0  0  0  0  0  0  0
   -2.0896   -0.5698    0.0000 C   0  0  0  0  0  0  0  0  0  0  0  0
   -2.0896    0.2552    0.0000 C   0  0  0  0  0  0  0  0  0  0  0  0
   -1.3751    0.6677    0.0000 C   0  0  0  0  0  0  0  0  0  0  0  0
   -0.6606    0.2552    0.0000 N   0  0  0  0  0  0  0  0  0  0  0  0
    0.0538    0.6677    0.0000 C   0  0  0  0  0  0  0  0  0  0  0  0
    0.0538    1.4927    0.0000 O   0  0  0  0  0  0  0  0  0  0  0  0
    0.7683    0.2552    0.0000 C   0  0  0  0  0  0  0  0  0  0  0  0
    0.7683   -0.5698    0.0000 O   0  0  0  0  0  0  0  0  0  0  0  0
    1.4828    0.6677    0.0000 O   0  0  0  0  0  0  0  0  0  0  0  0
    2.1973    0.2552    0.0000 C   0  0  0  0  0  0  0  0  0  0  0  0
    2.9117    0.6677    0.0000 C   0  0  0  0  0  0  0  0  0  0  0  0
    0.2660   -1.1048    0.0000 H   0  0  0  0  0  0  0  0  0  0  0  0
    0.2660   -0.0348    0.0000 H   0  0  0  0  0  0  0  0  0  0  0  0
   -1.3751   -2.0523    0.0000 H   0  0  0  0  0  0  0  0  0  0  0  0
   -2.3017   -1.5173    0.0000 H   0  0  0  0  0  0  0  0  0  0  0  0
   -3.0162   -1.1048    0.0000 H   0  0  0  0  0  0  0  0  0  0  0  0
   -3.0162   -0.0348    0.0000 H   0  0  0  0  0  0  0  0  0  0  0  0
   -3.0162    0.7902    0.0000 H   0  0  0  0  0  0  0  0  0  0  0  0
   -2.0896    1.3252    0.0000 H   0  0  0  0  0  0  0  0  0  0  0  0
   -1.3751    1.7377    0.0000 H   0  0  0  0  0  0  0  0  0  0  0  0
   -0.4485    1.2027    0.0000 H   0  0  0  0  0  0  0  0  0  0  0  0
    2.1973   -0.8148    0.0000 H   0  0  0  0  0  0  0  0  0  0  0  0
    3.1240   -0.2798    0.0000 H   0  0  0  0  0  0  0  0  0  0  0  0
    3.8384    0.1327    0.0000 H   0  0  0  0  0  0  0  0  0  0  0  0
    2.9117    1.7377    0.0000 H   0  0  0  0  0  0  0  0  0  0  0  0
    3.8383    1.2027    0.0000 H   0  0  0  0  0  0  0  0  0  0  0  0
  1  2  1  0  0  0  0
  1  6  1  0  0  0  0
  1 14  1  0  0  0  0
  1 15  1  0  0  0  0
  2  3  1  0  0  0  0
  2 16  1  0  0  0  0
  2 17  1  0  0  0  0
  3  4  1  0  0  0  0
  3 18  1  0  0  0  0
  3 19  1  0  0  0  0
  4  5  1  0  0  0  0
  4 20  1  0  0  0  0
  4 21  1  0  0  0  0
  5  6  1  0  0  0  0
  5 22  1  0  0  0  0
  5 23  1  0  0  0  0
  6  7  1  0  0  0  0
  7  8  2  0  0  0  0
  7  9  1  0  0  0  0
  9 10  2  0  0  0  0
  9 11  1  0  0  0  0
 11 12  1  0  0  0  0
 12 13  1  0  0  0  0
 12 24  1  0  0  0  0
 12 25  1  0  0  0  0
 13 26  1  0  0  0  0
 13 27  1  0  0  0  0
 13 28  1  0  0  0  0
M  END
>  <DRUGBANK_ID>
DB02419

>  <SECONDARY_ACCESSION_NUMBERS>
EXPT01313

>  <COMMON_NAME>
Ethyl Oxo(Piperidin-1-Yl)Acetate

>  <CAS_NUMBER>
53074-96-7

>  <UNII>
D7IIF4X1TU

$$$$
