
 OpenBabel10282417072D

 31 30  0  0  0  0  0  0  0  0999 V2000
    2.2539   -0.4421    0.0000 C   0  0  0  0  0  0  0  0  0  0  0  0
    1.5395    0.7954    0.0000 C   0  0  0  0  0  0  0  0  0  0  0  0
    2.9684    0.7954    0.0000 C   0  0  0  0  0  0  0  0  0  0  0  0
    2.9684   -0.8546    0.0000 C   0  0  0  0  0  0  0  0  0  0  0  0
    1.5395    1.6204    0.0000 C   0  0  0  0  0  0  0  0  0  0  0  0
    2.9684    1.6204    0.0000 C   0  0  0  0  0  0  0  0  0  0  0  0
    2.2539    0.3829    0.0000 N   0  0  0  0  0  0  0  0  0  0  0  0
    3.6829   -2.0921    0.0000 N   0  0  0  0  0  0  0  0  0  0  0  0
    0.8250    2.8579    0.0000 N   0  0  0  0  0  0  0  0  0  0  0  0
    3.6829    2.8579    0.0000 N   0  0  0  0  0  0  0  0  0  0  0  0
    3.6829   -2.9171    0.0000 O   0  0  0  0  0  0  0  0  0  0  0  0
    4.3974   -1.6796    0.0000 O   0  0  0  0  0  0  0  0  0  0  0  0
    0.1105    3.2704    0.0000 O   0  0  0  0  0  0  0  0  0  0  0  0
    1.5395    3.2704    0.0000 O   0  0  0  0  0  0  0  0  0  0  0  0
    2.9684    3.2704    0.0000 O   0  0  0  0  0  0  0  0  0  0  0  0
    4.3974    3.2704    0.0000 O   0  0  0  0  0  0  0  0  0  0  0  0
    2.9684   -1.6796    0.0000 O   0  0  0  0  0  0  0  0  0  0  0  0
    0.8250    2.0329    0.0000 O   0  0  0  0  0  0  0  0  0  0  0  0
    3.6829    2.0329    0.0000 O   0  0  0  0  0  0  0  0  0  0  0  0
    1.3273   -0.9771    0.0000 H   0  0  0  0  0  0  0  0  0  0  0  0
    1.3273    0.0929    0.0000 H   0  0  0  0  0  0  0  0  0  0  0  0
    0.6128    0.2604    0.0000 H   0  0  0  0  0  0  0  0  0  0  0  0
    1.5395   -0.2746    0.0000 H   0  0  0  0  0  0  0  0  0  0  0  0
    3.8950    0.2604    0.0000 H   0  0  0  0  0  0  0  0  0  0  0  0
    2.9684   -0.2746    0.0000 H   0  0  0  0  0  0  0  0  0  0  0  0
    3.8950   -0.3196    0.0000 H   0  0  0  0  0  0  0  0  0  0  0  0
    3.8950   -1.3896    0.0000 H   0  0  0  0  0  0  0  0  0  0  0  0
    2.4661    2.1554    0.0000 H   0  0  0  0  0  0  0  0  0  0  0  0
    1.5395    2.6904    0.0000 H   0  0  0  0  0  0  0  0  0  0  0  0
    2.0418    2.1554    0.0000 H   0  0  0  0  0  0  0  0  0  0  0  0
    2.9684    2.6904    0.0000 H   0  0  0  0  0  0  0  0  0  0  0  0
  1 20  1  0  0  0  0
  1 21  1  0  0  0  0
  2 22  1  0  0  0  0
  2 23  1  0  0  0  0
  3 24  1  0  0  0  0
  3 25  1  0  0  0  0
  4  1  1  0  0  0  0
  4 26  1  0  0  0  0
  4 27  1  0  0  0  0
  5  2  1  0  0  0  0
  5 28  1  0  0  0  0
  5 29  1  0  0  0  0
  6  3  1  0  0  0  0
  6 30  1  0  0  0  0
  6 31  1  0  0  0  0
  7  1  1  0  0  0  0
  7  2  1  0  0  0  0
  7  3  1  0  0  0  0
 11  8  2  0  0  0  0
 12  8  2  0  0  0  0
 13  9  2  0  0  0  0
 14  9  2  0  0  0  0
 15 10  2  0  0  0  0
 16 10  2  0  0  0  0
 17  4  1  0  0  0  0
 17  8  1  0  0  0  0
 18  5  1  0  0  0  0
 18  9  1  0  0  0  0
 19  6  1  0  0  0  0
 19 10  1  0  0  0  0
M  END
>  <DRUGBANK_ID>
DB13719

>  <COMMON_NAME>
Trolnitrate

>  <CAS_NUMBER>
7077-34-1

>  <UNII>
B9M85U075P

>  <SYNONYMS>
Trolnitrate

$$$$
