
 OpenBabel10282417072D

 35 37  0  0  0  0  0  0  0  0999 V2000
    1.9032   -0.4099    0.0000 C   0  0  0  0  0  0  0  0  0  0  0  0
    1.4055    0.2635    0.0000 N   0  0  0  0  0  0  0  0  0  0  0  0
    1.4055   -1.0833    0.0000 N   0  0  0  0  0  0  0  0  0  0  0  0
    2.7231   -0.3806    0.0000 N   0  0  0  0  0  0  0  0  0  0  0  0
    0.6442    0.0293    0.0000 C   0  0  0  0  0  0  0  0  0  0  0  0
    3.1331    0.3220    0.0000 C   0  0  0  0  0  0  0  0  0  0  0  0
    0.6442   -0.8198    0.0000 C   0  0  0  0  0  0  0  0  0  0  0  0
   -0.7906    0.0293    0.0000 C   0  0  0  0  0  0  0  0  0  0  0  0
   -1.5225    0.4099    0.0000 C   0  0  0  0  0  0  0  0  0  0  0  0
   -0.0878    0.4099    0.0000 C   0  0  0  0  0  0  0  0  0  0  0  0
   -2.2254    0.0293    0.0000 C   0  0  0  0  0  0  0  0  0  0  0  0
    2.7231    1.0541    0.0000 O   0  0  0  0  0  0  0  0  0  0  0  0
   -0.7906   -0.8198    0.0000 C   0  0  0  0  0  0  0  0  0  0  0  0
   -1.5225    1.2590    0.0000 O   0  0  0  0  0  0  0  0  0  0  0  0
   -0.0878   -1.2297    0.0000 C   0  0  0  0  0  0  0  0  0  0  0  0
   -2.2254   -0.8198    0.0000 C   0  0  0  0  0  0  0  0  0  0  0  0
   -2.9574    0.4099    0.0000 C   0  0  0  0  0  0  0  0  0  0  0  0
    3.9822    0.3220    0.0000 O   0  0  0  0  0  0  0  0  0  0  0  0
   -3.6601   -0.8198    0.0000 C   0  0  0  0  0  0  0  0  0  0  0  0
   -3.6601    0.0293    0.0000 C   0  0  0  0  0  0  0  0  0  0  0  0
   -2.9574   -1.2297    0.0000 C   0  0  0  0  0  0  0  0  0  0  0  0
   -4.3922   -1.2590    0.0000 F   0  0  0  0  0  0  0  0  0  0  0  0
    4.3922    1.0541    0.0000 C   0  0  0  0  0  0  0  0  0  0  0  0
    1.6970   -2.0237    0.0000 H   0  0  0  0  0  0  0  0  0  0  0  0
    3.2285   -1.2254    0.0000 H   0  0  0  0  0  0  0  0  0  0  0  0
   -0.0965    1.4419    0.0000 H   0  0  0  0  0  0  0  0  0  0  0  0
   -1.6855   -1.3338    0.0000 H   0  0  0  0  0  0  0  0  0  0  0  0
   -0.0968   -2.2617    0.0000 H   0  0  0  0  0  0  0  0  0  0  0  0
   -1.3351   -1.3417    0.0000 H   0  0  0  0  0  0  0  0  0  0  0  0
   -2.9661    1.4419    0.0000 H   0  0  0  0  0  0  0  0  0  0  0  0
   -4.5467    0.5574    0.0000 H   0  0  0  0  0  0  0  0  0  0  0  0
   -2.9665   -2.2617    0.0000 H   0  0  0  0  0  0  0  0  0  0  0  0
    5.4621    1.0681    0.0000 H   0  0  0  0  0  0  0  0  0  0  0  0
    3.8451    1.9737    0.0000 H   0  0  0  0  0  0  0  0  0  0  0  0
    4.9150    1.9877    0.0000 H   0  0  0  0  0  0  0  0  0  0  0  0
  2  1  2  0  0  0  0
  3  1  1  0  0  0  0
  3 24  1  0  0  0  0
  4  1  1  0  0  0  0
  4 25  1  0  0  0  0
  5  2  1  0  0  0  0
  6  4  1  0  0  0  0
  7  3  1  0  0  0  0
  7  5  2  0  0  0  0
  9  8  1  0  0  0  0
 10  5  1  0  0  0  0
 10  8  2  0  0  0  0
 10 26  1  0  0  0  0
 11  9  1  0  0  0  0
 12  6  2  0  0  0  0
 13  8  1  0  0  0  0
 13 27  1  0  0  0  0
 14  9  2  0  0  0  0
 15  7  1  0  0  0  0
 15 13  2  0  0  0  0
 15 28  1  0  0  0  0
 16 11  2  0  0  0  0
 16 29  1  0  0  0  0
 17 11  1  0  0  0  0
 17 30  1  0  0  0  0
 18  6  1  0  0  0  0
 20 17  2  0  0  0  0
 20 19  1  0  0  0  0
 20 31  1  0  0  0  0
 21 16  1  0  0  0  0
 21 19  2  0  0  0  0
 21 32  1  0  0  0  0
 22 19  1  0  0  0  0
 23 18  1  0  0  0  0
 23 33  1  0  0  0  0
 23 34  1  0  0  0  0
 23 35  1  0  0  0  0
M  END
>  <DRUGBANK_ID>
DB08974

>  <COMMON_NAME>
Flubendazole

>  <CAS_NUMBER>
31430-15-6

>  <UNII>
R8M46911LR

>  <SYNONYMS>
(5-(4-fluorobenzoyl)-1H-benzimidazole-2-yl)carbamic acid methyl ester; Flubendazol; Flubendazole; Flubendazolum; methyl 5-(p-fluorobenzoyl)-2-benzimidazolecarbamate

$$$$
