
 OpenBabel10282417072D

 37 39  0  0  0  0  0  0  0  0999 V2000
    2.2273    0.8897    0.0000 C   0  0  0  0  0  0  0  0  0  0  0  0
    0.7983    0.8897    0.0000 C   0  0  0  0  0  0  0  0  0  0  0  0
    2.2273    1.7147    0.0000 C   0  0  0  0  0  0  0  0  0  0  0  0
    0.7983    1.7147    0.0000 C   0  0  0  0  0  0  0  0  0  0  0  0
   -0.1107    0.2291    0.0000 C   0  0  0  0  0  0  0  0  0  0  0  0
   -0.5523   -1.1298    0.0000 C   0  0  0  0  0  0  0  0  0  0  0  0
   -0.8953    0.4841    0.0000 C   0  0  0  0  0  0  0  0  0  0  0  0
   -1.3369   -0.8748    0.0000 C   0  0  0  0  0  0  0  0  0  0  0  0
    2.1802   -0.8327    0.0000 C   0  0  0  0  0  0  0  0  0  0  0  0
    1.5128    0.4772    0.0000 C   0  0  0  0  0  0  0  0  0  0  0  0
    1.5128    2.1272    0.0000 C   0  0  0  0  0  0  0  0  0  0  0  0
    0.0607   -0.5777    0.0000 C   0  0  0  0  0  0  0  0  0  0  0  0
   -1.5084   -0.0678    0.0000 C   0  0  0  0  0  0  0  0  0  0  0  0
    1.5128   -0.3477    0.0000 C   0  0  0  0  0  0  0  0  0  0  0  0
    1.9253   -1.6173    0.0000 C   0  0  0  0  0  0  0  0  0  0  0  0
    2.4102   -2.2847    0.0000 C   0  0  0  0  0  0  0  0  0  0  0  0
    1.5128    2.9522    0.0000 Cl  0  0  0  0  0  0  0  0  0  0  0  0
    2.8951   -2.9522    0.0000 F   0  0  0  0  0  0  0  0  0  0  0  0
    1.7428   -2.7696    0.0000 F   0  0  0  0  0  0  0  0  0  0  0  0
    3.0777   -1.7998    0.0000 F   0  0  0  0  0  0  0  0  0  0  0  0
   -3.0777    0.4419    0.0000 N   0  0  0  0  0  0  0  0  0  0  0  0
    1.1003   -1.6173    0.0000 N   0  0  0  0  0  0  0  0  0  0  0  0
    0.8454   -0.8327    0.0000 N   0  0  0  0  0  0  0  0  0  0  0  0
   -2.0381    0.9716    0.0000 O   0  0  0  0  0  0  0  0  0  0  0  0
   -2.5480   -0.5975    0.0000 O   0  0  0  0  0  0  0  0  0  0  0  0
   -2.2930    0.1870    0.0000 S   0  0  0  0  0  0  0  0  0  0  0  0
    3.1210    0.3737    0.0000 H   0  0  0  0  0  0  0  0  0  0  0  0
   -0.0954    0.3737    0.0000 H   0  0  0  0  0  0  0  0  0  0  0  0
    3.1210    2.2307    0.0000 H   0  0  0  0  0  0  0  0  0  0  0  0
   -0.0954    2.2307    0.0000 H   0  0  0  0  0  0  0  0  0  0  0  0
    0.6563    0.9196    0.0000 H   0  0  0  0  0  0  0  0  0  0  0  0
   -0.3377   -2.1392    0.0000 H   0  0  0  0  0  0  0  0  0  0  0  0
   -1.1098    1.4936    0.0000 H   0  0  0  0  0  0  0  0  0  0  0  0
   -2.1039   -1.5653    0.0000 H   0  0  0  0  0  0  0  0  0  0  0  0
    3.1617   -0.5138    0.0000 H   0  0  0  0  0  0  0  0  0  0  0  0
   -3.2898    1.4396    0.0000 H   0  0  0  0  0  0  0  0  0  0  0  0
   -3.8357   -0.2407    0.0000 H   0  0  0  0  0  0  0  0  0  0  0  0
  1 27  1  0  0  0  0
  2 28  1  0  0  0  0
  3  1  1  0  0  0  0
  3 29  1  0  0  0  0
  4  2  2  0  0  0  0
  4 30  1  0  0  0  0
  5 31  1  0  0  0  0
  6 32  1  0  0  0  0
  7  5  1  0  0  0  0
  7 33  1  0  0  0  0
  8  6  2  0  0  0  0
  8 34  1  0  0  0  0
  9 35  1  0  0  0  0
 10  1  2  0  0  0  0
 10  2  1  0  0  0  0
 11  3  2  0  0  0  0
 11  4  1  0  0  0  0
 12  5  2  0  0  0  0
 12  6  1  0  0  0  0
 13  7  2  0  0  0  0
 13  8  1  0  0  0  0
 14  9  2  0  0  0  0
 14 10  1  0  0  0  0
 15  9  1  0  0  0  0
 16 15  1  0  0  0  0
 17 11  1  0  0  0  0
 18 16  1  0  0  0  0
 19 16  1  0  0  0  0
 20 16  1  0  0  0  0
 21 36  1  0  0  0  0
 21 37  1  0  0  0  0
 22 15  2  0  0  0  0
 23 12  1  0  0  0  0
 23 14  1  0  0  0  0
 23 22  1  0  0  0  0
 26 13  1  0  0  0  0
 26 21  1  0  0  0  0
 26 24  2  0  0  0  0
 26 25  2  0  0  0  0
M  END
>  <DRUGBANK_ID>
DB14059

>  <COMMON_NAME>
SC-236

>  <CAS_NUMBER>
170569-86-5

>  <UNII>
9HGW1H8S2M

$$$$
