
 OpenBabel10282417072D

 62 66  0  0  1  0  0  0  0  0999 V2000
   -3.5523   -1.8105    0.0000 C   0  0  0  0  0  0  0  0  0  0  0  0
   -3.0443   -1.1604    0.0000 C   0  0  0  0  0  0  0  0  0  0  0  0
   -2.3942   -1.6683    0.0000 C   0  0  0  0  0  0  0  0  0  0  0  0
   -3.6945   -0.6525    0.0000 O   0  0  0  0  0  0  0  0  0  0  0  0
   -2.5364   -0.5103    0.0000 C   0  0  0  0  0  0  0  0  0  0  0  0
   -2.8455    0.2547    0.0000 N   0  0  0  0  0  0  0  0  0  0  0  0
   -2.3376    0.9048    0.0000 C   0  0  0  0  0  0  0  0  0  0  0  0
   -1.5206    0.7899    0.0000 C   0  0  0  0  0  0  0  0  0  0  0  0
   -1.2115    0.0250    0.0000 N   0  0  0  0  0  0  0  0  0  0  0  0
   -1.7195   -0.6251    0.0000 C   0  0  0  0  0  0  0  0  0  0  0  0
   -1.0127    1.4401    0.0000 N   0  0  0  0  0  0  0  0  0  0  0  0
   -1.2401    2.2331    0.0000 C   0  0  0  0  0  0  0  0  0  0  0  0
   -0.5561    2.6944    0.0000 C   0  0  2  0  0  0  0  0  0  0  0  0
   -1.2557    3.1316    0.0000 C   0  0  0  0  0  0  0  0  0  0  0  0
   -1.2270    3.9561    0.0000 C   0  0  0  0  0  0  0  0  0  0  0  0
   -0.4985    4.3434    0.0000 C   0  0  0  0  0  0  0  0  0  0  0  0
    0.2011    3.9062    0.0000 C   0  0  2  0  0  0  0  0  0  0  0  0
    0.5102    4.6712    0.0000 C   0  0  0  0  0  0  0  0  0  0  0  0
    1.0081    3.7347    0.0000 C   0  0  0  0  0  0  0  0  0  0  0  0
    1.2630    2.9501    0.0000 N   0  0  0  0  0  0  0  0  0  0  0  0
    0.7781    2.2827    0.0000 C   0  0  0  0  0  0  0  0  0  0  0  0
    1.2630    1.6152    0.0000 N   0  0  0  0  0  0  0  0  0  0  0  0
    2.0477    1.8702    0.0000 C   0  0  0  0  0  0  0  0  0  0  0  0
    2.0477    2.6952    0.0000 C   0  0  0  0  0  0  0  0  0  0  0  0
    2.7621    3.1077    0.0000 C   0  0  0  0  0  0  0  0  0  0  0  0
    3.4766    2.6952    0.0000 C   0  0  0  0  0  0  0  0  0  0  0  0
    3.4766    1.8702    0.0000 C   0  0  0  0  0  0  0  0  0  0  0  0
    2.7621    1.4577    0.0000 C   0  0  0  0  0  0  0  0  0  0  0  0
    4.1911    3.1077    0.0000 C   0  0  0  0  0  0  0  0  0  0  0  0
    4.9055    3.5202    0.0000 N   0  0  0  0  0  0  0  0  0  0  0  0
    0.1723    3.0817    0.0000 C   0  0  0  0  0  0  0  0  0  0  0  0
    0.0940    2.1865    0.0000 O   0  0  0  0  0  0  0  0  0  0  0  0
   -0.1882    1.4113    0.0000 C   0  0  0  0  0  0  0  0  0  0  0  0
    0.2732    0.7273    0.0000 O   0  0  0  0  0  0  0  0  0  0  0  0
   -4.6119   -1.6615    0.0000 H   0  0  0  0  0  0  0  0  0  0  0  0
   -3.1516   -2.8026    0.0000 H   0  0  0  0  0  0  0  0  0  0  0  0
   -4.2111   -2.6536    0.0000 H   0  0  0  0  0  0  0  0  0  0  0  0
   -2.5431   -2.7279    0.0000 H   0  0  0  0  0  0  0  0  0  0  0  0
   -1.4021   -1.2675    0.0000 H   0  0  0  0  0  0  0  0  0  0  0  0
   -1.5510   -2.3270    0.0000 H   0  0  0  0  0  0  0  0  0  0  0  0
   -3.5596    0.3081    0.0000 H   0  0  0  0  0  0  0  0  0  0  0  0
   -2.7242    1.8617    0.0000 H   0  0  0  0  0  0  0  0  0  0  0  0
   -1.3329   -1.5820    0.0000 H   0  0  0  0  0  0  0  0  0  0  0  0
   -2.2456    2.5991    0.0000 H   0  0  0  0  0  0  0  0  0  0  0  0
   -1.3705    3.2951    0.0000 H   0  0  0  0  0  0  0  0  0  0  0  0
   -2.2004    2.6292    0.0000 H   0  0  0  0  0  0  0  0  0  0  0  0
   -2.1632    3.6985    0.0000 H   0  0  0  0  0  0  0  0  0  0  0  0
   -2.1344    4.5231    0.0000 H   0  0  0  0  0  0  0  0  0  0  0  0
   -1.1896    5.0254    0.0000 H   0  0  0  0  0  0  0  0  0  0  0  0
   -0.4611    5.4127    0.0000 H   0  0  0  0  0  0  0  0  0  0  0  0
    0.4463    4.8457    0.0000 H   0  0  0  0  0  0  0  0  0  0  0  0
    1.5698    4.8201    0.0000 H   0  0  0  0  0  0  0  0  0  0  0  0
   -0.1485    5.5144    0.0000 H   0  0  0  0  0  0  0  0  0  0  0  0
    0.9111    5.6633    0.0000 H   0  0  0  0  0  0  0  0  0  0  0  0
    1.7241    4.5299    0.0000 H   0  0  0  0  0  0  0  0  0  0  0  0
    2.0547    3.5122    0.0000 H   0  0  0  0  0  0  0  0  0  0  0  0
   -0.2539    2.2827    0.0000 H   0  0  0  0  0  0  0  0  0  0  0  0
    2.7621    4.1397    0.0000 H   0  0  0  0  0  0  0  0  0  0  0  0
    4.3703    1.3542    0.0000 H   0  0  0  0  0  0  0  0  0  0  0  0
    2.7621    0.4257    0.0000 H   0  0  0  0  0  0  0  0  0  0  0  0
    1.0797    2.5147    0.0000 H   0  0  0  0  0  0  0  0  0  0  0  0
    0.1350    2.0124    0.0000 H   0  0  0  0  0  0  0  0  0  0  0  0
  1  2  1  0  0  0  0
  1 35  1  0  0  0  0
  1 36  1  0  0  0  0
  1 37  1  0  0  0  0
  2  3  1  0  0  0  0
  2  4  1  0  0  0  0
  2  5  1  0  0  0  0
  3 38  1  0  0  0  0
  3 39  1  0  0  0  0
  3 40  1  0  0  0  0
  4 41  1  0  0  0  0
  5  6  2  0  0  0  0
  5 10  1  0  0  0  0
  6  7  1  0  0  0  0
  7  8  2  0  0  0  0
  7 42  1  0  0  0  0
  8  9  1  0  0  0  0
  8 11  1  0  0  0  0
  9 10  2  0  0  0  0
 10 43  1  0  0  0  0
 11 12  1  0  0  0  0
 11 33  1  0  0  0  0
 12 44  1  0  0  0  0
 12 45  1  0  0  0  0
 13 12  1  0  0  0  0
 13 14  1  0  0  0  0
 13 31  1  0  0  0  0
 13 32  1  1  0  0  0
 14 15  1  0  0  0  0
 14 46  1  0  0  0  0
 14 47  1  0  0  0  0
 15 16  1  0  0  0  0
 15 48  1  0  0  0  0
 15 49  1  0  0  0  0
 16 50  1  0  0  0  0
 16 51  1  0  0  0  0
 17 16  1  0  0  0  0
 17 18  1  1  0  0  0
 17 19  1  0  0  0  0
 17 31  1  0  0  0  0
 18 52  1  0  0  0  0
 18 53  1  0  0  0  0
 18 54  1  0  0  0  0
 19 20  1  0  0  0  0
 19 55  1  0  0  0  0
 19 56  1  0  0  0  0
 20 21  1  0  0  0  0
 20 24  1  0  0  0  0
 21 22  2  0  0  0  0
 21 57  1  0  0  0  0
 22 23  1  0  0  0  0
 23 24  2  0  0  0  0
 23 28  1  0  0  0  0
 24 25  1  0  0  0  0
 25 26  2  0  0  0  0
 25 58  1  0  0  0  0
 26 27  1  0  0  0  0
 26 29  1  0  0  0  0
 27 28  2  0  0  0  0
 27 59  1  0  0  0  0
 28 60  1  0  0  0  0
 29 30  3  0  0  0  0
 31 61  1  0  0  0  0
 31 62  1  0  0  0  0
 32 33  1  0  0  0  0
 33 34  2  0  0  0  0
M  END
>  <DRUGBANK_ID>
DB16033

>  <COMMON_NAME>
GSK2798745

>  <CAS_NUMBER>
1419609-94-1

>  <UNII>
63FJ7LF55O

$$$$
