W29
 OpenBabel10282417072D

 27 28  0  0  0  0  0  0  0  0999 V2000
   -0.3280    2.2458    0.0000 O   0  0  0  0  0  0  0  0  0  0  0  0
   -0.3280    1.4208    0.0000 C   0  0  0  0  0  0  0  0  0  0  0  0
   -1.0425    1.0083    0.0000 C   0  0  0  0  0  0  0  0  0  0  0  0
   -1.7569    1.4208    0.0000 O   0  0  0  0  0  0  0  0  0  0  0  0
   -1.0425    0.1833    0.0000 C   0  0  0  0  0  0  0  0  0  0  0  0
    0.3865    1.0083    0.0000 C   0  0  0  0  0  0  0  0  0  0  0  0
    0.3865    0.1833    0.0000 C   0  0  0  0  0  0  0  0  0  0  0  0
   -0.3280   -0.2292    0.0000 C   0  0  0  0  0  0  0  0  0  0  0  0
   -0.3280   -1.0542    0.0000 C   0  0  0  0  0  0  0  0  0  0  0  0
   -0.9954   -1.5391    0.0000 S   0  0  0  0  0  0  0  0  0  0  0  0
   -0.7405   -2.3238    0.0000 C   0  0  0  0  0  0  0  0  0  0  0  0
    0.0845   -2.3238    0.0000 C   0  0  0  0  0  0  0  0  0  0  0  0
    0.3394   -1.5391    0.0000 C   0  0  0  0  0  0  0  0  0  0  0  0
    1.1241   -1.2842    0.0000 C   0  0  0  0  0  0  0  0  0  0  0  0
    1.2956   -0.4772    0.0000 C   0  0  0  0  0  0  0  0  0  0  0  0
    0.4835    2.7143    0.0000 H   0  0  0  0  0  0  0  0  0  0  0  0
   -1.7569    2.3578    0.0000 H   0  0  0  0  0  0  0  0  0  0  0  0
   -1.9362   -0.3327    0.0000 H   0  0  0  0  0  0  0  0  0  0  0  0
    1.2802    1.5243    0.0000 H   0  0  0  0  0  0  0  0  0  0  0  0
    1.2802   -0.3327    0.0000 H   0  0  0  0  0  0  0  0  0  0  0  0
   -1.3471   -3.1587    0.0000 H   0  0  0  0  0  0  0  0  0  0  0  0
    0.6911   -3.1587    0.0000 H   0  0  0  0  0  0  0  0  0  0  0  0
    1.9193   -2.0002    0.0000 H   0  0  0  0  0  0  0  0  0  0  0  0
    2.1417   -0.9535    0.0000 H   0  0  0  0  0  0  0  0  0  0  0  0
    2.3132   -0.1465    0.0000 H   0  0  0  0  0  0  0  0  0  0  0  0
    0.5004    0.2387    0.0000 H   0  0  0  0  0  0  0  0  0  0  0  0
    1.5180    0.5694    0.0000 H   0  0  0  0  0  0  0  0  0  0  0  0
  1 16  1  0  0  0  0
  2  1  1  0  0  0  0
  2  6  1  0  0  0  0
  3  2  2  0  0  0  0
  4  3  1  0  0  0  0
  4 17  1  0  0  0  0
  5  3  1  0  0  0  0
  5  8  2  0  0  0  0
  5 18  1  0  0  0  0
  6 19  1  0  0  0  0
  7  6  2  0  0  0  0
  7 20  1  0  0  0  0
  8  7  1  0  0  0  0
  9  8  1  0  0  0  0
  9 13  2  0  0  0  0
 10  9  1  0  0  0  0
 10 11  1  0  0  0  0
 11 12  2  0  0  0  0
 11 21  1  0  0  0  0
 12 13  1  0  0  0  0
 12 22  1  0  0  0  0
 13 14  1  0  0  0  0
 14 15  1  0  0  0  0
 14 23  1  0  0  0  0
 14 24  1  0  0  0  0
 15 25  1  0  0  0  0
 15 26  1  0  0  0  0
 15 27  1  0  0  0  0
M  END
>  <DRUGBANK_ID>
DB08718

>  <COMMON_NAME>
4-(3-ethylthiophen-2-yl)benzene-1,2-diol

>  <UNII>
W1GH0R824Z

$$$$
