
 OpenBabel10282417072D

 49 51  0  0  0  0  0  0  0  0999 V2000
   -1.0407   -2.0703    0.0000 S   0  0  0  0  0  0  0  0  0  0  0  0
   -1.0407    0.4042    0.0000 O   0  0  0  0  0  0  0  0  0  0  0  0
    1.1110   -3.3443    0.0000 O   0  0  0  0  0  0  0  0  0  0  0  0
    1.8111    2.0989    0.0000 N   0  0  0  0  0  0  0  0  0  0  0  0
    0.4015    0.4327    0.0000 N   0  0  0  0  0  0  0  0  0  0  0  0
    1.1016    1.6783    0.0000 C   0  0  0  0  0  0  0  0  0  0  0  0
    1.1110    0.8534    0.0000 C   0  0  0  0  0  0  0  0  0  0  0  0
    0.4110   -0.3920    0.0000 C   0  0  0  0  0  0  0  0  0  0  0  0
   -0.3262   -0.8330    0.0000 C   0  0  0  0  0  0  0  0  0  0  0  0
   -0.3262   -1.6579    0.0000 C   0  0  0  0  0  0  0  0  0  0  0  0
    1.8016    2.9237    0.0000 C   0  0  0  0  0  0  0  0  0  0  0  0
    2.5302    1.6948    0.0000 C   0  0  0  0  0  0  0  0  0  0  0  0
    0.4110   -2.0989    0.0000 C   0  0  0  0  0  0  0  0  0  0  0  0
   -1.0407   -0.4205    0.0000 C   0  0  0  0  0  0  0  0  0  0  0  0
    1.1584   -0.8158    0.0000 C   0  0  0  0  0  0  0  0  0  0  0  0
   -1.7551   -0.8330    0.0000 C   0  0  0  0  0  0  0  0  0  0  0  0
    1.1584   -1.6750    0.0000 C   0  0  0  0  0  0  0  0  0  0  0  0
   -1.7551   -1.6579    0.0000 C   0  0  0  0  0  0  0  0  0  0  0  0
    2.5111    3.3443    0.0000 C   0  0  0  0  0  0  0  0  0  0  0  0
    3.2397    2.1154    0.0000 C   0  0  0  0  0  0  0  0  0  0  0  0
    0.4015   -2.9237    0.0000 C   0  0  0  0  0  0  0  0  0  0  0  0
   -2.4924   -0.3920    0.0000 C   0  0  0  0  0  0  0  0  0  0  0  0
   -2.4924   -2.0989    0.0000 C   0  0  0  0  0  0  0  0  0  0  0  0
   -3.2398   -0.8158    0.0000 C   0  0  0  0  0  0  0  0  0  0  0  0
   -3.2398   -1.6750    0.0000 C   0  0  0  0  0  0  0  0  0  0  0  0
    1.0998   -4.3142    0.0000 H   0  0  0  0  0  0  0  0  0  0  0  0
   -0.4567    0.9151    0.0000 H   0  0  0  0  0  0  0  0  0  0  0  0
    0.1689    2.2026    0.0000 H   0  0  0  0  0  0  0  0  0  0  0  0
    0.1811    1.1327    0.0000 H   0  0  0  0  0  0  0  0  0  0  0  0
    2.0437    0.3291    0.0000 H   0  0  0  0  0  0  0  0  0  0  0  0
    2.0315    1.3990    0.0000 H   0  0  0  0  0  0  0  0  0  0  0  0
    0.8689    3.4480    0.0000 H   0  0  0  0  0  0  0  0  0  0  0  0
    1.7893    3.9936    0.0000 H   0  0  0  0  0  0  0  0  0  0  0  0
    2.5426    0.6249    0.0000 H   0  0  0  0  0  0  0  0  0  0  0  0
    3.4630    1.1705    0.0000 H   0  0  0  0  0  0  0  0  0  0  0  0
    2.0501   -0.2963    0.0000 H   0  0  0  0  0  0  0  0  0  0  0  0
    2.0502   -2.1944    0.0000 H   0  0  0  0  0  0  0  0  0  0  0  0
    3.4438    2.8200    0.0000 H   0  0  0  0  0  0  0  0  0  0  0  0
    2.4988    4.4142    0.0000 H   0  0  0  0  0  0  0  0  0  0  0  0
    3.4315    3.8899    0.0000 H   0  0  0  0  0  0  0  0  0  0  0  0
    4.1724    1.5911    0.0000 H   0  0  0  0  0  0  0  0  0  0  0  0
    3.2274    3.1853    0.0000 H   0  0  0  0  0  0  0  0  0  0  0  0
    4.1601    2.6610    0.0000 H   0  0  0  0  0  0  0  0  0  0  0  0
   -0.5312   -3.4480    0.0000 H   0  0  0  0  0  0  0  0  0  0  0  0
   -0.5189   -2.3781    0.0000 H   0  0  0  0  0  0  0  0  0  0  0  0
   -2.4804    0.6399    0.0000 H   0  0  0  0  0  0  0  0  0  0  0  0
   -2.4805   -3.1308    0.0000 H   0  0  0  0  0  0  0  0  0  0  0  0
   -4.1315   -0.2963    0.0000 H   0  0  0  0  0  0  0  0  0  0  0  0
   -4.1316   -2.1944    0.0000 H   0  0  0  0  0  0  0  0  0  0  0  0
  1 10  1  0  0  0  0
  1 18  1  0  0  0  0
  2 14  2  0  0  0  0
  3 21  1  0  0  0  0
  3 26  1  0  0  0  0
  4  6  1  0  0  0  0
  4 11  1  0  0  0  0
  4 12  1  0  0  0  0
  5  7  1  0  0  0  0
  5  8  1  0  0  0  0
  5 27  1  0  0  0  0
  6  7  1  0  0  0  0
  6 28  1  0  0  0  0
  6 29  1  0  0  0  0
  7 30  1  0  0  0  0
  7 31  1  0  0  0  0
  8  9  2  0  0  0  0
  8 15  1  0  0  0  0
  9 10  1  0  0  0  0
  9 14  1  0  0  0  0
 10 13  2  0  0  0  0
 11 19  1  0  0  0  0
 11 32  1  0  0  0  0
 11 33  1  0  0  0  0
 12 20  1  0  0  0  0
 12 34  1  0  0  0  0
 12 35  1  0  0  0  0
 13 17  1  0  0  0  0
 13 21  1  0  0  0  0
 14 16  1  0  0  0  0
 15 17  2  0  0  0  0
 15 36  1  0  0  0  0
 16 18  1  0  0  0  0
 16 22  2  0  0  0  0
 17 37  1  0  0  0  0
 18 23  2  0  0  0  0
 19 38  1  0  0  0  0
 19 39  1  0  0  0  0
 19 40  1  0  0  0  0
 20 41  1  0  0  0  0
 20 42  1  0  0  0  0
 20 43  1  0  0  0  0
 21 44  1  0  0  0  0
 21 45  1  0  0  0  0
 22 24  1  0  0  0  0
 22 46  1  0  0  0  0
 23 25  1  0  0  0  0
 23 47  1  0  0  0  0
 24 25  2  0  0  0  0
 24 48  1  0  0  0  0
 25 49  1  0  0  0  0
M  END
>  <DRUGBANK_ID>
DB14061

>  <COMMON_NAME>
Hycanthone

>  <CAS_NUMBER>
3105-97-3

>  <UNII>
2BXX5EVN2A

>  <SYNONYMS>
1-((2-(Diethylamino)ethyl)amino)-4-(hydroxymethyl)-9H-thioxanthen-9-one; 1-((2-(Diethylamino)ethyl)amino)-4-(hydroxymethyl)thioxanthen-9-one; Hicantona; Hycanthon; Hycanthone; Hycanthonum; Lucanthone metabolite

$$$$
