
 OpenBabel10282417072D

 45 48  0  0  0  0  0  0  0  0999 V2000
   -0.9355    0.4125    0.0000 F   0  0  0  0  0  0  0  0  0  0  0  0
   -0.9355   -0.4125    0.0000 C   0  0  0  0  0  0  0  0  0  0  0  0
   -0.2211   -0.8250    0.0000 C   0  0  0  0  0  0  0  0  0  0  0  0
   -0.2211   -1.6500    0.0000 C   0  0  0  0  0  0  0  0  0  0  0  0
   -0.9355   -2.0625    0.0000 C   0  0  0  0  0  0  0  0  0  0  0  0
   -1.6500   -1.6500    0.0000 C   0  0  0  0  0  0  0  0  0  0  0  0
   -1.6500   -0.8250    0.0000 C   0  0  0  0  0  0  0  0  0  0  0  0
   -0.9355   -2.8875    0.0000 P   0  3  0  0  0  0  0  0  0  0  0  0
   -0.9355   -3.7125    0.0000 C   0  0  0  0  0  0  0  0  0  0  0  0
   -0.2211   -4.1250    0.0000 C   0  0  0  0  0  0  0  0  0  0  0  0
   -0.2211   -4.9500    0.0000 C   0  0  0  0  0  0  0  0  0  0  0  0
   -0.9355   -5.3625    0.0000 C   0  0  0  0  0  0  0  0  0  0  0  0
   -1.6500   -4.9500    0.0000 C   0  0  0  0  0  0  0  0  0  0  0  0
   -1.6500   -4.1250    0.0000 C   0  0  0  0  0  0  0  0  0  0  0  0
   -1.7605   -2.8875    0.0000 C   0  0  0  0  0  0  0  0  0  0  0  0
   -2.1730   -3.6020    0.0000 C   0  0  0  0  0  0  0  0  0  0  0  0
   -2.9980   -3.6020    0.0000 C   0  0  0  0  0  0  0  0  0  0  0  0
   -3.4105   -2.8875    0.0000 C   0  0  0  0  0  0  0  0  0  0  0  0
   -2.9980   -2.1730    0.0000 C   0  0  0  0  0  0  0  0  0  0  0  0
   -2.1730   -2.1730    0.0000 C   0  0  0  0  0  0  0  0  0  0  0  0
   -0.1105   -2.8875    0.0000 C   0  0  0  0  0  0  0  0  0  0  0  0
    0.3020   -2.1730    0.0000 C   0  0  0  0  0  0  0  0  0  0  0  0
    1.1270   -2.1730    0.0000 C   0  0  0  0  0  0  0  0  0  0  0  0
    1.5395   -2.8875    0.0000 C   0  0  0  0  0  0  0  0  0  0  0  0
    1.1270   -3.6020    0.0000 C   0  0  0  0  0  0  0  0  0  0  0  0
    0.3020   -3.6020    0.0000 C   0  0  0  0  0  0  0  0  0  0  0  0
    0.6726   -0.3090    0.0000 H   0  0  0  0  0  0  0  0  0  0  0  0
    0.6726   -2.1660    0.0000 H   0  0  0  0  0  0  0  0  0  0  0  0
   -2.5437   -2.1660    0.0000 H   0  0  0  0  0  0  0  0  0  0  0  0
   -2.5437   -0.3090    0.0000 H   0  0  0  0  0  0  0  0  0  0  0  0
    0.6726   -3.6090    0.0000 H   0  0  0  0  0  0  0  0  0  0  0  0
    0.6726   -5.4660    0.0000 H   0  0  0  0  0  0  0  0  0  0  0  0
   -0.9355   -6.3945    0.0000 H   0  0  0  0  0  0  0  0  0  0  0  0
   -2.5437   -5.4660    0.0000 H   0  0  0  0  0  0  0  0  0  0  0  0
   -2.5437   -3.6090    0.0000 H   0  0  0  0  0  0  0  0  0  0  0  0
   -1.6570   -4.4957    0.0000 H   0  0  0  0  0  0  0  0  0  0  0  0
   -3.5140   -4.4957    0.0000 H   0  0  0  0  0  0  0  0  0  0  0  0
   -4.4425   -2.8875    0.0000 H   0  0  0  0  0  0  0  0  0  0  0  0
   -3.5140   -1.2793    0.0000 H   0  0  0  0  0  0  0  0  0  0  0  0
   -1.6570   -1.2793    0.0000 H   0  0  0  0  0  0  0  0  0  0  0  0
   -0.2140   -1.2793    0.0000 H   0  0  0  0  0  0  0  0  0  0  0  0
    1.6430   -1.2793    0.0000 H   0  0  0  0  0  0  0  0  0  0  0  0
    2.5715   -2.8875    0.0000 H   0  0  0  0  0  0  0  0  0  0  0  0
    1.6430   -4.4957    0.0000 H   0  0  0  0  0  0  0  0  0  0  0  0
   -0.2140   -4.4957    0.0000 H   0  0  0  0  0  0  0  0  0  0  0  0
  1  2  1  0  0  0  0
  2  3  2  0  0  0  0
  2  7  1  0  0  0  0
  3  4  1  0  0  0  0
  3 27  1  0  0  0  0
  4  5  2  0  0  0  0
  4 28  1  0  0  0  0
  5  6  1  0  0  0  0
  5  8  1  0  0  0  0
  6  7  2  0  0  0  0
  6 29  1  0  0  0  0
  7 30  1  0  0  0  0
  8  9  1  0  0  0  0
  8 15  1  0  0  0  0
  8 21  1  0  0  0  0
  9 10  2  0  0  0  0
  9 14  1  0  0  0  0
 10 11  1  0  0  0  0
 10 31  1  0  0  0  0
 11 12  2  0  0  0  0
 11 32  1  0  0  0  0
 12 13  1  0  0  0  0
 12 33  1  0  0  0  0
 13 14  2  0  0  0  0
 13 34  1  0  0  0  0
 14 35  1  0  0  0  0
 15 16  2  0  0  0  0
 15 20  1  0  0  0  0
 16 17  1  0  0  0  0
 16 36  1  0  0  0  0
 17 18  2  0  0  0  0
 17 37  1  0  0  0  0
 18 19  1  0  0  0  0
 18 38  1  0  0  0  0
 19 20  2  0  0  0  0
 19 39  1  0  0  0  0
 20 40  1  0  0  0  0
 21 22  2  0  0  0  0
 21 26  1  0  0  0  0
 22 23  1  0  0  0  0
 22 41  1  0  0  0  0
 23 24  2  0  0  0  0
 23 42  1  0  0  0  0
 24 25  1  0  0  0  0
 24 43  1  0  0  0  0
 25 26  2  0  0  0  0
 25 44  1  0  0  0  0
 26 45  1  0  0  0  0
M  ISO  1   1  18
M  CHG  1   8   1
M  END
>  <DRUGBANK_ID>
DB15424

>  <COMMON_NAME>
Bfpet F-18

>  <CAS_NUMBER>
863644-14-8

>  <UNII>
BHG7KQ27XV

>  <SYNONYMS>
18F-TPP

$$$$
