
 OpenBabel10282417072D

 51 53  0  0  0  0  0  0  0  0999 V2000
   -4.2868    5.7750    0.0000 C   0  0  0  0  0  0  0  0  0  0  0  0
   -0.7144    2.0625    0.0000 C   0  0  0  0  0  0  0  0  0  0  0  0
    0.0000    2.4750    0.0000 C   0  0  0  0  0  0  0  0  0  0  0  0
   -1.4289    2.4750    0.0000 C   0  0  0  0  0  0  0  0  0  0  0  0
    0.0000    3.3000    0.0000 C   0  0  0  0  0  0  0  0  0  0  0  0
   -1.4289    3.3000    0.0000 C   0  0  0  0  0  0  0  0  0  0  0  0
   -4.2868    8.2500    0.0000 C   0  0  0  0  0  0  0  0  0  0  0  0
   -5.0012    7.0125    0.0000 C   0  0  0  0  0  0  0  0  0  0  0  0
   -5.0012    8.6625    0.0000 C   0  0  0  0  0  0  0  0  0  0  0  0
   -5.7157    7.4250    0.0000 C   0  0  0  0  0  0  0  0  0  0  0  0
   -1.4289    5.7750    0.0000 C   0  0  0  0  0  0  0  0  0  0  0  0
   -2.1434    4.5375    0.0000 C   0  0  0  0  0  0  0  0  0  0  0  0
   -2.1434    6.1875    0.0000 C   0  0  0  0  0  0  0  0  0  0  0  0
   -2.8578    4.9500    0.0000 C   0  0  0  0  0  0  0  0  0  0  0  0
   -0.7144    4.5375    0.0000 C   0  0  0  0  0  0  0  0  0  0  0  0
   -3.5723    6.1875    0.0000 C   0  0  3  0  0  0  0  0  0  0  0  0
   -0.7144    3.7125    0.0000 C   0  0  0  0  0  0  0  0  0  0  0  0
   -1.4289    4.9500    0.0000 C   0  0  3  0  0  0  0  0  0  0  0  0
   -4.2868    7.4250    0.0000 C   0  0  0  0  0  0  0  0  0  0  0  0
   -5.7157    8.2500    0.0000 C   0  0  0  0  0  0  0  0  0  0  0  0
   -3.5723    7.0125    0.0000 C   0  0  3  0  0  0  0  0  0  0  0  0
   -2.8578    5.7750    0.0000 N   0  0  0  0  0  0  0  0  0  0  0  0
   -6.4302    8.6625    0.0000 O   0  0  0  0  0  0  0  0  0  0  0  0
   -2.8578    7.4250    0.0000 O   0  0  0  0  0  0  0  0  0  0  0  0
   -5.2134    6.3100    0.0000 H   0  0  0  0  0  0  0  0  0  0  0  0
   -4.2868    4.7050    0.0000 H   0  0  0  0  0  0  0  0  0  0  0  0
   -5.2135    5.2400    0.0000 H   0  0  0  0  0  0  0  0  0  0  0  0
   -0.7144    1.0305    0.0000 H   0  0  0  0  0  0  0  0  0  0  0  0
    0.8937    1.9590    0.0000 H   0  0  0  0  0  0  0  0  0  0  0  0
   -2.3226    1.9590    0.0000 H   0  0  0  0  0  0  0  0  0  0  0  0
    0.8937    3.8160    0.0000 H   0  0  0  0  0  0  0  0  0  0  0  0
   -2.3226    3.8160    0.0000 H   0  0  0  0  0  0  0  0  0  0  0  0
   -3.3931    8.7660    0.0000 H   0  0  0  0  0  0  0  0  0  0  0  0
   -5.0012    5.9805    0.0000 H   0  0  0  0  0  0  0  0  0  0  0  0
   -5.0012    9.6945    0.0000 H   0  0  0  0  0  0  0  0  0  0  0  0
   -6.6094    6.9090    0.0000 H   0  0  0  0  0  0  0  0  0  0  0  0
   -0.5023    6.3100    0.0000 H   0  0  0  0  0  0  0  0  0  0  0  0
   -0.5023    5.2400    0.0000 H   0  0  0  0  0  0  0  0  0  0  0  0
   -2.1434    3.4675    0.0000 H   0  0  0  0  0  0  0  0  0  0  0  0
   -1.2168    4.0025    0.0000 H   0  0  0  0  0  0  0  0  0  0  0  0
   -2.1434    7.2575    0.0000 H   0  0  0  0  0  0  0  0  0  0  0  0
   -3.0701    6.7225    0.0000 H   0  0  0  0  0  0  0  0  0  0  0  0
   -3.7845    4.4150    0.0000 H   0  0  0  0  0  0  0  0  0  0  0  0
   -3.7844    5.4850    0.0000 H   0  0  0  0  0  0  0  0  0  0  0  0
    0.2122    5.0725    0.0000 H   0  0  0  0  0  0  0  0  0  0  0  0
   -0.7144    5.6075    0.0000 H   0  0  0  0  0  0  0  0  0  0  0  0
   -4.4989    6.7225    0.0000 H   0  0  0  0  0  0  0  0  0  0  0  0
   -2.3555    5.4850    0.0000 H   0  0  0  0  0  0  0  0  0  0  0  0
   -4.4989    6.4775    0.0000 H   0  0  0  0  0  0  0  0  0  0  0  0
   -6.4302    9.5995    0.0000 H   0  0  0  0  0  0  0  0  0  0  0  0
   -2.0178    6.9400    0.0000 H   0  0  0  0  0  0  0  0  0  0  0  0
  1 25  1  0  0  0  0
  1 26  1  0  0  0  0
  1 27  1  0  0  0  0
  2 28  1  0  0  0  0
  3  2  2  0  0  0  0
  3 29  1  0  0  0  0
  4  2  1  0  0  0  0
  4 30  1  0  0  0  0
  5  3  1  0  0  0  0
  5 31  1  0  0  0  0
  6  4  2  0  0  0  0
  6 32  1  0  0  0  0
  7 33  1  0  0  0  0
  8 34  1  0  0  0  0
  9  7  1  0  0  0  0
  9 35  1  0  0  0  0
 10  8  2  0  0  0  0
 10 36  1  0  0  0  0
 11 37  1  0  0  0  0
 11 38  1  0  0  0  0
 12 39  1  0  0  0  0
 12 40  1  0  0  0  0
 13 11  1  0  0  0  0
 13 41  1  0  0  0  0
 13 42  1  0  0  0  0
 14 12  1  0  0  0  0
 14 43  1  0  0  0  0
 14 44  1  0  0  0  0
 15 45  1  0  0  0  0
 15 46  1  0  0  0  0
 16  1  1  0  0  0  0
 16 47  1  0  0  0  0
 17  5  2  0  0  0  0
 17  6  1  0  0  0  0
 17 15  1  0  0  0  0
 18 11  1  0  0  0  0
 18 12  1  0  0  0  0
 18 15  1  0  0  0  0
 18 48  1  0  0  0  0
 19  7  2  0  0  0  0
 19  8  1  0  0  0  0
 20  9  2  0  0  0  0
 20 10  1  0  0  0  0
 21 16  1  0  0  0  0
 21 19  1  0  0  0  0
 21 49  1  0  0  0  0
 22 13  1  0  0  0  0
 22 14  1  0  0  0  0
 22 16  1  0  0  0  0
 23 20  1  0  0  0  0
 23 50  1  0  0  0  0
 24 21  1  0  0  0  0
 24 51  1  0  0  0  0
M  END
>  <DRUGBANK_ID>
DB08954

>  <COMMON_NAME>
Ifenprodil

>  <CAS_NUMBER>
23210-56-2

>  <UNII>
R8OE3P6O5S

>  <SYNONYMS>
Ifenprodil; Ifenprodilum

$$$$
