
 OpenBabel10282417072D

 27 27  0  0  0  0  0  0  0  0999 V2000
    6.4302    0.4125    0.0000 C   0  0  0  0  0  0  0  0  0  0  0  0
    7.1447    2.4750    0.0000 C   0  0  0  0  0  0  0  0  0  0  0  0
    6.4302    2.8875    0.0000 C   0  0  0  0  0  0  0  0  0  0  0  0
    7.1447    1.6500    0.0000 C   0  0  0  0  0  0  0  0  0  0  0  0
    5.7158    2.4750    0.0000 C   0  0  0  0  0  0  0  0  0  0  0  0
    2.8579    1.6500    0.0000 C   0  0  0  0  0  0  0  0  0  0  0  0
    4.2868    1.6500    0.0000 C   0  0  0  0  0  0  0  0  0  0  0  0
    6.4302    1.2375    0.0000 C   0  0  0  0  0  0  0  0  0  0  0  0
    3.5724    1.2375    0.0000 C   0  0  3  0  0  0  0  0  0  0  0  0
    5.7158    1.6500    0.0000 C   0  0  0  0  0  0  0  0  0  0  0  0
    2.1434    1.2375    0.0000 O   0  0  0  0  0  0  0  0  0  0  0  0
    3.5724    0.4125    0.0000 O   0  0  0  0  0  0  0  0  0  0  0  0
    5.0013    1.2375    0.0000 O   0  0  0  0  0  0  0  0  0  0  0  0
    5.5036   -0.1225    0.0000 H   0  0  0  0  0  0  0  0  0  0  0  0
    7.3568   -0.1225    0.0000 H   0  0  0  0  0  0  0  0  0  0  0  0
    6.4302   -0.6575    0.0000 H   0  0  0  0  0  0  0  0  0  0  0  0
    8.0384    2.9910    0.0000 H   0  0  0  0  0  0  0  0  0  0  0  0
    6.4302    3.9195    0.0000 H   0  0  0  0  0  0  0  0  0  0  0  0
    8.0384    1.1340    0.0000 H   0  0  0  0  0  0  0  0  0  0  0  0
    4.8221    2.9910    0.0000 H   0  0  0  0  0  0  0  0  0  0  0  0
    2.8579    2.7200    0.0000 H   0  0  0  0  0  0  0  0  0  0  0  0
    1.9313    2.1850    0.0000 H   0  0  0  0  0  0  0  0  0  0  0  0
    4.2868    2.7200    0.0000 H   0  0  0  0  0  0  0  0  0  0  0  0
    5.2134    2.1850    0.0000 H   0  0  0  0  0  0  0  0  0  0  0  0
    3.5724    2.3075    0.0000 H   0  0  0  0  0  0  0  0  0  0  0  0
    1.3034    1.7225    0.0000 H   0  0  0  0  0  0  0  0  0  0  0  0
    2.7324   -0.0725    0.0000 H   0  0  0  0  0  0  0  0  0  0  0  0
  1 14  1  0  0  0  0
  1 15  1  0  0  0  0
  1 16  1  0  0  0  0
  2 17  1  0  0  0  0
  3  2  2  0  0  0  0
  3 18  1  0  0  0  0
  4  2  1  0  0  0  0
  4 19  1  0  0  0  0
  5  3  1  0  0  0  0
  5 20  1  0  0  0  0
  6 21  1  0  0  0  0
  6 22  1  0  0  0  0
  7 23  1  0  0  0  0
  7 24  1  0  0  0  0
  8  1  1  0  0  0  0
  8  4  2  0  0  0  0
  9  6  1  0  0  0  0
  9  7  1  0  0  0  0
  9 25  1  0  0  0  0
 10  5  2  0  0  0  0
 10  8  1  0  0  0  0
 11  6  1  0  0  0  0
 11 26  1  0  0  0  0
 12  9  1  0  0  0  0
 12 27  1  0  0  0  0
 13  7  1  0  0  0  0
 13 10  1  0  0  0  0
M  END
>  <DRUGBANK_ID>
DB13583

>  <COMMON_NAME>
Mephenesin

>  <CAS_NUMBER>
59-47-2

>  <UNII>
7B8PIR2954

>  <SYNONYMS>
Mephenesin

$$$$
