888
 OpenBabel10282417072D

 50 53  0  0  0  0  0  0  0  0999 V2000
   -1.8368   -1.9576    0.0000 C   0  0  0  0  0  0  0  0  0  0  0  0
   -1.8368   -2.7826    0.0000 C   0  0  0  0  0  0  0  0  0  0  0  0
   -2.5512   -3.1951    0.0000 C   0  0  0  0  0  0  0  0  0  0  0  0
   -3.2657   -2.7826    0.0000 C   0  0  0  0  0  0  0  0  0  0  0  0
   -3.2657   -1.9576    0.0000 C   0  0  0  0  0  0  0  0  0  0  0  0
   -2.5512   -1.5451    0.0000 C   0  0  0  0  0  0  0  0  0  0  0  0
   -2.5512   -0.7201    0.0000 S   0  0  0  0  0  0  0  0  0  0  0  0
   -1.8368   -0.3076    0.0000 N   0  0  0  0  0  0  0  0  0  0  0  0
   -1.1223   -0.7201    0.0000 C   0  0  0  0  0  0  0  0  0  0  0  0
   -1.1223   -1.5451    0.0000 N   0  0  0  0  0  0  0  0  0  0  0  0
   -0.4078   -0.3076    0.0000 C   0  0  0  0  0  0  0  0  0  0  0  0
    0.3066   -0.7201    0.0000 C   0  0  0  0  0  0  0  0  0  0  0  0
    1.0211   -0.3076    0.0000 C   0  0  0  0  0  0  0  0  0  0  0  0
    1.0211    0.5174    0.0000 C   0  0  0  0  0  0  0  0  0  0  0  0
    0.3066    0.9299    0.0000 N   0  0  0  0  0  0  0  0  0  0  0  0
   -0.4078    0.5174    0.0000 C   0  0  0  0  0  0  0  0  0  0  0  0
    1.7356   -0.7201    0.0000 C   0  0  0  0  0  0  0  0  0  0  0  0
    2.4501   -0.3076    0.0000 C   0  0  0  0  0  0  0  0  0  0  0  0
    2.4501    0.5174    0.0000 C   0  0  0  0  0  0  0  0  0  0  0  0
    1.7356    0.9299    0.0000 C   0  0  0  0  0  0  0  0  0  0  0  0
    0.3066   -1.5451    0.0000 O   0  0  0  0  0  0  0  0  0  0  0  0
   -1.1223    0.9299    0.0000 O   0  0  0  0  0  0  0  0  0  0  0  0
    0.3066    1.7549    0.0000 C   0  0  0  0  0  0  0  0  0  0  0  0
   -0.4078    2.1674    0.0000 C   0  0  0  0  0  0  0  0  0  0  0  0
   -0.4078    2.9924    0.0000 C   0  0  0  0  0  0  0  0  0  0  0  0
   -1.1223    3.4049    0.0000 C   0  0  0  0  0  0  0  0  0  0  0  0
   -3.3757   -0.6913    0.0000 O   0  0  0  0  0  0  0  0  0  0  0  0
   -2.9884   -0.0204    0.0000 O   0  0  0  0  0  0  0  0  0  0  0  0
    0.3066    3.4049    0.0000 C   0  0  0  0  0  0  0  0  0  0  0  0
   -0.9431   -3.2986    0.0000 H   0  0  0  0  0  0  0  0  0  0  0  0
   -2.5512   -4.2271    0.0000 H   0  0  0  0  0  0  0  0  0  0  0  0
   -4.1594   -3.2986    0.0000 H   0  0  0  0  0  0  0  0  0  0  0  0
   -4.1594   -1.4416    0.0000 H   0  0  0  0  0  0  0  0  0  0  0  0
   -0.2697   -2.0374    0.0000 H   0  0  0  0  0  0  0  0  0  0  0  0
    1.7356   -1.7521    0.0000 H   0  0  0  0  0  0  0  0  0  0  0  0
    3.3438   -0.8236    0.0000 H   0  0  0  0  0  0  0  0  0  0  0  0
    3.3438    1.0334    0.0000 H   0  0  0  0  0  0  0  0  0  0  0  0
    1.7356    1.9619    0.0000 H   0  0  0  0  0  0  0  0  0  0  0  0
   -0.5049   -2.0136    0.0000 H   0  0  0  0  0  0  0  0  0  0  0  0
    1.2333    2.2899    0.0000 H   0  0  0  0  0  0  0  0  0  0  0  0
    0.3066    2.8249    0.0000 H   0  0  0  0  0  0  0  0  0  0  0  0
   -1.3345    1.6324    0.0000 H   0  0  0  0  0  0  0  0  0  0  0  0
   -1.3344    2.7024    0.0000 H   0  0  0  0  0  0  0  0  0  0  0  0
   -0.4078    4.0624    0.0000 H   0  0  0  0  0  0  0  0  0  0  0  0
   -1.1223    4.4749    0.0000 H   0  0  0  0  0  0  0  0  0  0  0  0
   -2.0489    2.8699    0.0000 H   0  0  0  0  0  0  0  0  0  0  0  0
   -2.0490    3.9399    0.0000 H   0  0  0  0  0  0  0  0  0  0  0  0
    1.2333    2.8699    0.0000 H   0  0  0  0  0  0  0  0  0  0  0  0
    0.3066    4.4749    0.0000 H   0  0  0  0  0  0  0  0  0  0  0  0
    1.2332    3.9399    0.0000 H   0  0  0  0  0  0  0  0  0  0  0  0
  1  2  2  0  0  0  0
  1  6  1  0  0  0  0
  1 10  1  0  0  0  0
  2  3  1  0  0  0  0
  2 30  1  0  0  0  0
  3  4  2  0  0  0  0
  3 31  1  0  0  0  0
  4  5  1  0  0  0  0
  4 32  1  0  0  0  0
  5  6  2  0  0  0  0
  5 33  1  0  0  0  0
  6  7  1  0  0  0  0
  7  8  1  0  0  0  0
  7 27  2  0  0  0  0
  7 28  2  0  0  0  0
  8  9  2  0  0  0  0
  9 10  1  0  0  0  0
  9 11  1  0  0  0  0
 10 34  1  0  0  0  0
 11 12  2  0  0  0  0
 11 16  1  0  0  0  0
 12 13  1  0  0  0  0
 12 21  1  0  0  0  0
 13 14  1  0  0  0  0
 13 17  2  0  0  0  0
 14 15  1  0  0  0  0
 14 20  2  0  0  0  0
 15 16  1  0  0  0  0
 15 23  1  0  0  0  0
 16 22  2  0  0  0  0
 17 18  1  0  0  0  0
 17 35  1  0  0  0  0
 18 19  2  0  0  0  0
 18 36  1  0  0  0  0
 19 20  1  0  0  0  0
 19 37  1  0  0  0  0
 20 38  1  0  0  0  0
 21 39  1  0  0  0  0
 23 24  1  0  0  0  0
 23 40  1  0  0  0  0
 23 41  1  0  0  0  0
 24 25  1  0  0  0  0
 24 42  1  0  0  0  0
 24 43  1  0  0  0  0
 25 26  1  0  0  0  0
 25 29  1  0  0  0  0
 25 44  1  0  0  0  0
 26 45  1  0  0  0  0
 26 46  1  0  0  0  0
 26 47  1  0  0  0  0
 29 48  1  0  0  0  0
 29 49  1  0  0  0  0
 29 50  1  0  0  0  0
M  END
>  <DRUGBANK_ID>
DB07275

>  <COMMON_NAME>
3-(1,1-dioxido-4H-1,2,4-benzothiadiazin-3-yl)-4-hydroxy-1-(3-methylbutyl)quinolin-2(1H)-one

$$$$
