
 OpenBabel10282417072D

 59 62  0  0  0  0  0  0  0  0999 V2000
   -1.8820    0.7032    0.0000 F   0  0  0  0  0  0  0  0  0  0  0  0
    1.0390    1.1591    0.0000 O   0  0  0  0  0  0  0  0  0  0  0  0
   -1.6017    1.4791    0.0000 O   0  0  0  0  0  0  0  0  0  0  0  0
    2.1910    1.2573    0.0000 O   0  0  0  0  0  0  0  0  0  0  0  0
    3.2546   -0.0039    0.0000 O   0  0  0  0  0  0  0  0  0  0  0  0
   -4.5986   -0.5083    0.0000 O   0  0  0  0  0  0  0  0  0  0  0  0
    4.5986   -0.4894    0.0000 O   0  0  0  0  0  0  0  0  0  0  0  0
   -1.3501    0.0726    0.0000 C   0  0  2  0  0  0  0  0  0  0  0  0
    0.2740    0.3630    0.0000 C   0  0  1  0  0  0  0  0  0  0  0  0
   -0.8183   -0.5581    0.0000 C   0  0  2  0  0  0  0  0  0  0  0  0
   -0.0062   -0.4129    0.0000 C   0  0  2  0  0  0  0  0  0  0  0  0
   -2.1623   -0.0726    0.0000 C   0  0  2  0  0  0  0  0  0  0  0  0
    1.0986    0.3362    0.0000 C   0  0  1  0  0  0  0  0  0  0  0  0
   -1.0698    0.8485    0.0000 C   0  0  2  0  0  0  0  0  0  0  0  0
   -0.2577    0.9937    0.0000 C   0  0  0  0  0  0  0  0  0  0  0  0
   -2.4426   -0.8485    0.0000 C   0  0  0  0  0  0  0  0  0  0  0  0
    0.6450   -0.9191    0.0000 C   0  0  0  0  0  0  0  0  0  0  0  0
    1.3279   -0.4563    0.0000 C   0  0  0  0  0  0  0  0  0  0  0  0
   -1.0986   -1.3339    0.0000 C   0  0  0  0  0  0  0  0  0  0  0  0
    1.9107    0.4814    0.0000 C   0  0  0  0  0  0  0  0  0  0  0  0
   -2.6941    0.5580    0.0000 C   0  0  0  0  0  0  0  0  0  0  0  0
   -1.9107   -1.4791    0.0000 C   0  0  0  0  0  0  0  0  0  0  0  0
    0.6339    1.1054    0.0000 C   0  0  0  0  0  0  0  0  0  0  0  0
   -2.3916    0.7199    0.0000 C   0  0  0  0  0  0  0  0  0  0  0  0
   -3.2547   -0.9937    0.0000 C   0  0  0  0  0  0  0  0  0  0  0  0
   -3.5062    0.4129    0.0000 C   0  0  0  0  0  0  0  0  0  0  0  0
   -3.7865   -0.3630    0.0000 C   0  0  0  0  0  0  0  0  0  0  0  0
    2.4425   -0.1492    0.0000 C   0  0  0  0  0  0  0  0  0  0  0  0
    3.7864   -0.6348    0.0000 C   0  0  0  0  0  0  0  0  0  0  0  0
    3.5061   -1.4107    0.0000 C   0  0  0  0  0  0  0  0  0  0  0  0
   -0.2458   -1.3838    0.0000 H   0  0  0  0  0  0  0  0  0  0  0  0
   -0.1737   -1.3226    0.0000 H   0  0  0  0  0  0  0  0  0  0  0  0
    1.8418    1.7035    0.0000 H   0  0  0  0  0  0  0  0  0  0  0  0
   -1.2723    2.3915    0.0000 H   0  0  0  0  0  0  0  0  0  0  0  0
   -2.1231    0.6601    0.0000 H   0  0  0  0  0  0  0  0  0  0  0  0
    0.1059    2.0000    0.0000 H   0  0  0  0  0  0  0  0  0  0  0  0
   -0.9474    1.8117    0.0000 H   0  0  0  0  0  0  0  0  0  0  0  0
    0.6101   -1.9885    0.0000 H   0  0  0  0  0  0  0  0  0  0  0  0
    1.5820   -1.4357    0.0000 H   0  0  0  0  0  0  0  0  0  0  0  0
    2.3342   -0.8200    0.0000 H   0  0  0  0  0  0  0  0  0  0  0  0
    1.4607   -1.5180    0.0000 H   0  0  0  0  0  0  0  0  0  0  0  0
   -0.4089   -2.1519    0.0000 H   0  0  0  0  0  0  0  0  0  0  0  0
   -1.4622   -2.3402    0.0000 H   0  0  0  0  0  0  0  0  0  0  0  0
   -2.3434    1.5286    0.0000 H   0  0  0  0  0  0  0  0  0  0  0  0
   -2.2742   -2.4855    0.0000 H   0  0  0  0  0  0  0  0  0  0  0  0
   -1.2209   -2.2971    0.0000 H   0  0  0  0  0  0  0  0  0  0  0  0
    1.7011    1.1826    0.0000 H   0  0  0  0  0  0  0  0  0  0  0  0
    0.0334    1.9910    0.0000 H   0  0  0  0  0  0  0  0  0  0  0  0
    1.1007    2.0682    0.0000 H   0  0  0  0  0  0  0  0  0  0  0  0
   -1.6502    1.4914    0.0000 H   0  0  0  0  0  0  0  0  0  0  0  0
   -3.4304    0.9763    0.0000 H   0  0  0  0  0  0  0  0  0  0  0  0
   -2.6890    1.7477    0.0000 H   0  0  0  0  0  0  0  0  0  0  0  0
   -3.6053   -1.9643    0.0000 H   0  0  0  0  0  0  0  0  0  0  0  0
   -4.1714    1.2019    0.0000 H   0  0  0  0  0  0  0  0  0  0  0  0
    2.0790   -1.1556    0.0000 H   0  0  0  0  0  0  0  0  0  0  0  0
    1.3892   -0.3376    0.0000 H   0  0  0  0  0  0  0  0  0  0  0  0
    2.4528   -1.5990    0.0000 H   0  0  0  0  0  0  0  0  0  0  0  0
    4.1958   -2.2287    0.0000 H   0  0  0  0  0  0  0  0  0  0  0  0
    3.1425   -2.4170    0.0000 H   0  0  0  0  0  0  0  0  0  0  0  0
  2 33  1  0  0  0  0
  3 34  1  0  0  0  0
  4 20  2  0  0  0  0
  5 28  1  0  0  0  0
  5 29  1  0  0  0  0
  6 27  2  0  0  0  0
  7 29  2  0  0  0  0
  8  1  1  6  0  0  0
  8 10  1  0  0  0  0
  8 12  1  0  0  0  0
  8 14  1  0  0  0  0
  9 11  1  0  0  0  0
  9 13  1  0  0  0  0
  9 15  1  0  0  0  0
  9 23  1  1  0  0  0
 10 11  1  0  0  0  0
 10 19  1  0  0  0  0
 10 32  1  1  0  0  0
 11 17  1  0  0  0  0
 11 31  1  6  0  0  0
 12 16  1  0  0  0  0
 12 21  1  0  0  0  0
 12 24  1  1  0  0  0
 13  2  1  6  0  0  0
 13 18  1  0  0  0  0
 13 20  1  0  0  0  0
 14  3  1  0  0  0  0
 14 15  1  0  0  0  0
 14 35  1  6  0  0  0
 15 36  1  0  0  0  0
 15 37  1  0  0  0  0
 16 22  1  0  0  0  0
 16 25  2  0  0  0  0
 17 18  1  0  0  0  0
 17 38  1  0  0  0  0
 17 39  1  0  0  0  0
 18 40  1  0  0  0  0
 18 41  1  0  0  0  0
 19 22  1  0  0  0  0
 19 42  1  0  0  0  0
 19 43  1  0  0  0  0
 20 28  1  0  0  0  0
 21 26  2  0  0  0  0
 21 44  1  0  0  0  0
 22 45  1  0  0  0  0
 22 46  1  0  0  0  0
 23 47  1  0  0  0  0
 23 48  1  0  0  0  0
 23 49  1  0  0  0  0
 24 50  1  0  0  0  0
 24 51  1  0  0  0  0
 24 52  1  0  0  0  0
 25 27  1  0  0  0  0
 25 53  1  0  0  0  0
 26 27  1  0  0  0  0
 26 54  1  0  0  0  0
 28 55  1  0  0  0  0
 28 56  1  0  0  0  0
 29 30  1  0  0  0  0
 30 57  1  0  0  0  0
 30 58  1  0  0  0  0
 30 59  1  0  0  0  0
M  END
>  <DRUGBANK_ID>
DB14640

>  <SECONDARY_ACCESSION_NUMBERS>
DBSALT001685

>  <COMMON_NAME>
Isoflupredone acetate

>  <CAS_NUMBER>
338-98-7

>  <UNII>
55P9TUL75S

>  <SYNONYMS>
Isoflupredone 21-acetate; Isoflupredone acetate

$$$$
