1009
 OpenBabel10282417072D

 33 34  0  0  1  0  0  0  0  0999 V2000
    1.6500   -2.4256    0.0000 O   0  0  0  0  0  0  0  0  0  0  0  0
    3.0791    1.6995    0.0000 O   0  0  0  0  0  0  0  0  0  0  0  0
    3.0791   -2.4256    0.0000 O   0  0  0  0  0  0  0  0  0  0  0  0
    2.3645   -1.1880    0.0000 C   0  0  3  0  0  0  0  0  0  0  0  0
    3.0791   -0.7755    0.0000 C   0  0  0  0  0  0  0  0  0  0  0  0
    3.0791    0.0495    0.0000 C   0  0  0  0  0  0  0  0  0  0  0  0
    3.7935    0.4620    0.0000 C   0  0  0  0  0  0  0  0  0  0  0  0
    3.7935   -1.1880    0.0000 C   0  0  0  0  0  0  0  0  0  0  0  0
    1.6500   -0.7755    0.0000 C   0  0  0  0  0  0  0  0  0  0  0  0
    4.5080    0.0495    0.0000 C   0  0  0  0  0  0  0  0  0  0  0  0
    4.5080   -0.7755    0.0000 C   0  0  0  0  0  0  0  0  0  0  0  0
    3.7935    1.2870    0.0000 C   0  0  0  0  0  0  0  0  0  0  0  0
    2.3645   -2.0130    0.0000 C   0  0  0  0  0  0  0  0  0  0  0  0
    4.5080    1.6995    0.0000 C   0  0  0  0  0  0  0  0  0  0  0  0
    4.5080    2.5246    0.0000 C   0  0  0  0  0  0  0  0  0  0  0  0
    5.2224    1.2870    0.0000 C   0  0  0  0  0  0  0  0  0  0  0  0
    5.2224    2.9371    0.0000 C   0  0  0  0  0  0  0  0  0  0  0  0
    5.9370    1.6995    0.0000 C   0  0  0  0  0  0  0  0  0  0  0  0
    5.9370    2.5246    0.0000 C   0  0  0  0  0  0  0  0  0  0  0  0
    0.8385   -1.9572    0.0000 H   0  0  0  0  0  0  0  0  0  0  0  0
    2.3645   -0.1180    0.0000 H   0  0  0  0  0  0  0  0  0  0  0  0
    2.1854    0.5655    0.0000 H   0  0  0  0  0  0  0  0  0  0  0  0
    3.7935   -2.2200    0.0000 H   0  0  0  0  0  0  0  0  0  0  0  0
    1.6500    0.2945    0.0000 H   0  0  0  0  0  0  0  0  0  0  0  0
    0.7234   -1.3105    0.0000 H   0  0  0  0  0  0  0  0  0  0  0  0
    0.7233   -0.2405    0.0000 H   0  0  0  0  0  0  0  0  0  0  0  0
    5.4017    0.5655    0.0000 H   0  0  0  0  0  0  0  0  0  0  0  0
    5.4017   -1.2915    0.0000 H   0  0  0  0  0  0  0  0  0  0  0  0
    3.6143    3.0406    0.0000 H   0  0  0  0  0  0  0  0  0  0  0  0
    5.2223    0.2550    0.0000 H   0  0  0  0  0  0  0  0  0  0  0  0
    5.2223    3.9691    0.0000 H   0  0  0  0  0  0  0  0  0  0  0  0
    6.8307    1.1835    0.0000 H   0  0  0  0  0  0  0  0  0  0  0  0
    6.8307    3.0406    0.0000 H   0  0  0  0  0  0  0  0  0  0  0  0
  1 13  1  0  0  0  0
  1 20  1  0  0  0  0
  2 12  2  0  0  0  0
  3 13  2  0  0  0  0
  4  5  1  0  0  0  0
  4  9  1  0  0  0  0
  4 13  1  0  0  0  0
  4 21  1  0  0  0  0
  5  6  2  0  0  0  0
  5  8  1  0  0  0  0
  6  7  1  0  0  0  0
  6 22  1  0  0  0  0
  7 10  2  0  0  0  0
  7 12  1  0  0  0  0
  8 11  2  0  0  0  0
  8 23  1  0  0  0  0
  9 24  1  0  0  0  0
  9 25  1  0  0  0  0
  9 26  1  0  0  0  0
 10 11  1  0  0  0  0
 10 27  1  0  0  0  0
 11 28  1  0  0  0  0
 12 14  1  0  0  0  0
 14 15  2  0  0  0  0
 14 16  1  0  0  0  0
 15 17  1  0  0  0  0
 15 29  1  0  0  0  0
 16 18  2  0  0  0  0
 16 30  1  0  0  0  0
 17 19  2  0  0  0  0
 17 31  1  0  0  0  0
 18 19  1  0  0  0  0
 18 32  1  0  0  0  0
 19 33  1  0  0  0  0
M  END
>  <DRUGBANK_ID>
DB01009

>  <SECONDARY_ACCESSION_NUMBERS>
APRD01059; DB05823; DB05335

>  <COMMON_NAME>
Ketoprofen

>  <CAS_NUMBER>
22071-15-4

>  <UNII>
90Y4QC304K

>  <SYNONYMS>
2-(3-Benzoylphenyl)propionic acid; 3-Benzoyl-alpha-methylbenzeneacetic acid; 3-Benzoyl-Î±-methylbenzeneacetic acid; 3-Benzoylhydratropic acid; Ketoprofen; Ketoprofeno; L'acide (benzoyl-3-phenyl)-2-propionique; m-Benzoylhydratropic acid

$$$$
