P4T
 OpenBabel10282417072D

 28 29  0  0  0  0  0  0  0  0999 V2000
   22.1191   37.6907    0.0000 N   0  0  0  0  0  0  0  0  0  0  0  0
   21.8642   36.9061    0.0000 C   0  0  0  0  0  0  0  0  0  0  0  0
   22.3491   36.2387    0.0000 N   0  0  0  0  0  0  0  0  0  0  0  0
   21.4517   38.1757    0.0000 C   0  0  0  0  0  0  0  0  0  0  0  0
   20.7842   37.6907    0.0000 C   0  0  0  0  0  0  0  0  0  0  0  0
   19.9996   37.9457    0.0000 C   0  0  0  0  0  0  0  0  0  0  0  0
   21.4517   39.0007    0.0000 C   0  0  0  0  0  0  0  0  0  0  0  0
   23.1696   36.3249    0.0000 C   0  0  0  0  0  0  0  0  0  0  0  0
   23.5051   37.0786    0.0000 C   0  0  0  0  0  0  0  0  0  0  0  0
   24.3256   37.1648    0.0000 C   0  0  0  0  0  0  0  0  0  0  0  0
   24.8105   36.4974    0.0000 C   0  0  0  0  0  0  0  0  0  0  0  0
   24.4750   35.7437    0.0000 C   0  0  0  0  0  0  0  0  0  0  0  0
   23.6545   35.6575    0.0000 C   0  0  0  0  0  0  0  0  0  0  0  0
   21.0392   36.9061    0.0000 S   0  0  0  0  0  0  0  0  0  0  0  0
   19.3865   37.3937    0.0000 C   0  0  0  0  0  0  0  0  0  0  0  0
   19.8281   38.7527    0.0000 O   0  0  0  0  0  0  0  0  0  0  0  0
   21.9486   35.3393    0.0000 H   0  0  0  0  0  0  0  0  0  0  0  0
   22.3783   39.5357    0.0000 H   0  0  0  0  0  0  0  0  0  0  0  0
   20.5251   39.5357    0.0000 H   0  0  0  0  0  0  0  0  0  0  0  0
   21.4517   40.0707    0.0000 H   0  0  0  0  0  0  0  0  0  0  0  0
   22.8985   37.9135    0.0000 H   0  0  0  0  0  0  0  0  0  0  0  0
   24.7454   38.1076    0.0000 H   0  0  0  0  0  0  0  0  0  0  0  0
   25.8368   36.6053    0.0000 H   0  0  0  0  0  0  0  0  0  0  0  0
   25.0816   34.9088    0.0000 H   0  0  0  0  0  0  0  0  0  0  0  0
   23.2347   34.7147    0.0000 H   0  0  0  0  0  0  0  0  0  0  0  0
   18.3689   37.7244    0.0000 H   0  0  0  0  0  0  0  0  0  0  0  0
   19.6089   36.3471    0.0000 H   0  0  0  0  0  0  0  0  0  0  0  0
   18.5913   36.6778    0.0000 H   0  0  0  0  0  0  0  0  0  0  0  0
  1  2  2  0  0  0  0
  1  4  1  0  0  0  0
  2  3  1  0  0  0  0
  2 14  1  0  0  0  0
  3  8  1  0  0  0  0
  3 17  1  0  0  0  0
  4  5  2  0  0  0  0
  4  7  1  0  0  0  0
  5  6  1  0  0  0  0
  5 14  1  0  0  0  0
  6 15  1  0  0  0  0
  6 16  2  0  0  0  0
  7 18  1  0  0  0  0
  7 19  1  0  0  0  0
  7 20  1  0  0  0  0
  8  9  1  0  0  0  0
  8 13  2  0  0  0  0
  9 10  2  0  0  0  0
  9 21  1  0  0  0  0
 10 11  1  0  0  0  0
 10 22  1  0  0  0  0
 11 12  2  0  0  0  0
 11 23  1  0  0  0  0
 12 13  1  0  0  0  0
 12 24  1  0  0  0  0
 13 25  1  0  0  0  0
 15 26  1  0  0  0  0
 15 27  1  0  0  0  0
 15 28  1  0  0  0  0
M  END
>  <DRUGBANK_ID>
DB08359

>  <COMMON_NAME>
2-PHENYLAMINO-4-METHYL-5-ACETYL THIAZOLE

$$$$
