
 OpenBabel10282417072D

 35 37  0  0  1  0  0  0  0  0999 V2000
    2.6378    0.1271    0.0000 C   0  0  0  0  0  0  0  0  0  0  0  0
    1.1387    2.8736    0.0000 C   0  0  0  0  0  0  0  0  0  0  0  0
    3.3523   -1.1104    0.0000 C   0  0  0  0  0  0  0  0  0  0  0  0
    0.6538   -0.6979    0.0000 C   0  0  0  0  0  0  0  0  0  0  0  0
    1.9233   -0.2854    0.0000 C   0  0  0  0  0  0  0  0  0  0  0  0
    0.8838    2.0890    0.0000 C   0  0  2  0  0  0  0  0  0  0  0  0
    0.0992    1.8341    0.0000 C   0  0  2  0  0  0  0  0  0  0  0  0
    0.0992    1.0091    0.0000 C   0  0  2  0  0  0  0  0  0  0  0  0
    1.9233   -1.1104    0.0000 C   0  0  0  0  0  0  0  0  0  0  0  0
    0.8838    0.7541    0.0000 C   0  0  1  0  0  0  0  0  0  0  0  0
    3.3523   -0.2854    0.0000 N   0  0  0  0  0  0  0  0  0  0  0  0
    2.6378   -1.5229    0.0000 N   0  0  0  0  0  0  0  0  0  0  0  0
    1.1387   -1.3654    0.0000 N   0  0  0  0  0  0  0  0  0  0  0  0
    1.1387   -0.0305    0.0000 N   0  0  0  0  0  0  0  0  0  0  0  0
   -0.5683    2.3190    0.0000 O   0  0  0  0  0  0  0  0  0  0  0  0
   -0.5683    0.5241    0.0000 O   0  0  0  0  0  0  0  0  0  0  0  0
    2.4556    4.6144    0.0000 O   0  0  0  0  0  0  0  0  0  0  0  0
    2.9853    3.5748    0.0000 O   0  0  0  0  0  0  0  0  0  0  0  0
    1.4160    4.0847    0.0000 O   0  0  0  0  0  0  0  0  0  0  0  0
    1.9457    3.0451    0.0000 O   0  0  0  0  0  0  0  0  0  0  0  0
    1.3687    1.4216    0.0000 O   0  0  0  0  0  0  0  0  0  0  0  0
    2.2006    3.8298    0.0000 P   0  0  0  0  0  0  0  0  0  0  0  0
    0.1361    2.4377    0.0000 H   0  0  0  0  0  0  0  0  0  0  0  0
   -0.0583    2.6439    0.0000 H   0  0  0  0  0  0  0  0  0  0  0  0
   -0.6359    1.3836    0.0000 H   0  0  0  0  0  0  0  0  0  0  0  0
    0.3004    0.1708    0.0000 H   0  0  0  0  0  0  0  0  0  0  0  0
    2.6378    1.1591    0.0000 H   0  0  0  0  0  0  0  0  0  0  0  0
    0.4227    3.6688    0.0000 H   0  0  0  0  0  0  0  0  0  0  0  0
    1.4694    3.8912    0.0000 H   0  0  0  0  0  0  0  0  0  0  0  0
    4.2460   -1.6264    0.0000 H   0  0  0  0  0  0  0  0  0  0  0  0
   -0.3782   -0.6979    0.0000 H   0  0  0  0  0  0  0  0  0  0  0  0
   -0.4670    3.2837    0.0000 H   0  0  0  0  0  0  0  0  0  0  0  0
   -1.4545    0.9186    0.0000 H   0  0  0  0  0  0  0  0  0  0  0  0
    3.4044    4.8160    0.0000 H   0  0  0  0  0  0  0  0  0  0  0  0
    3.1869    2.6260    0.0000 H   0  0  0  0  0  0  0  0  0  0  0  0
  1 27  1  0  0  0  0
  2 28  1  0  0  0  0
  2 29  1  0  0  0  0
  3 30  1  0  0  0  0
  4 31  1  0  0  0  0
  5  1  2  0  0  0  0
  6  2  1  0  0  0  0
  6 23  1  6  0  0  0
  7  6  1  0  0  0  0
  7 15  1  0  0  0  0
  7 24  1  1  0  0  0
  8  7  1  0  0  0  0
  8 16  1  0  0  0  0
  8 25  1  1  0  0  0
  9  5  1  0  0  0  0
 10  8  1  0  0  0  0
 10 14  1  0  0  0  0
 10 26  1  1  0  0  0
 11  1  1  0  0  0  0
 11  3  2  0  0  0  0
 12  3  1  0  0  0  0
 12  9  2  0  0  0  0
 13  4  2  0  0  0  0
 13  9  1  0  0  0  0
 14  4  1  0  0  0  0
 14  5  1  0  0  0  0
 15 32  1  0  0  0  0
 16 33  1  0  0  0  0
 17 34  1  0  0  0  0
 18 35  1  0  0  0  0
 20  2  1  0  0  0  0
 21  6  1  0  0  0  0
 21 10  1  0  0  0  0
 22 17  1  0  0  0  0
 22 18  1  0  0  0  0
 22 19  2  0  0  0  0
 22 20  1  0  0  0  0
M  END
>  <DRUGBANK_ID>
DB03200

>  <SECONDARY_ACCESSION_NUMBERS>
EXPT00316

>  <COMMON_NAME>
7-Alpha-D-Ribofuranosyl-Purine-5'-Phosphate

$$$$
