8BD
 OpenBabel10282417072D

 29 29  0  0  0  0  0  0  0  0999 V2000
    0.9449    0.6286    0.0000 C   0  0  0  0  0  0  0  0  0  0  0  0
    0.2304    0.2161    0.0000 O   0  0  0  0  0  0  0  0  0  0  0  0
   -0.4841    0.6286    0.0000 C   0  0  0  0  0  0  0  0  0  0  0  0
   -0.4841    1.4536    0.0000 C   0  0  0  0  0  0  0  0  0  0  0  0
   -1.1985    1.8661    0.0000 C   0  0  0  0  0  0  0  0  0  0  0  0
   -1.9130    1.4536    0.0000 C   0  0  0  0  0  0  0  0  0  0  0  0
   -1.9130    0.6286    0.0000 C   0  0  0  0  0  0  0  0  0  0  0  0
   -1.1985    0.2161    0.0000 C   0  0  0  0  0  0  0  0  0  0  0  0
   -1.1985   -0.6089    0.0000 C   0  0  0  0  0  0  0  0  0  0  0  0
   -0.4841   -1.0214    0.0000 N   0  0  0  0  0  0  0  0  0  0  0  0
    0.2304   -0.6089    0.0000 O   0  0  0  0  0  0  0  0  0  0  0  0
    0.9449   -1.0214    0.0000 C   0  0  0  0  0  0  0  0  0  0  0  0
    1.6593   -0.6089    0.0000 C   0  0  0  0  0  0  0  0  0  0  0  0
    2.3738   -1.0214    0.0000 C   0  0  0  0  0  0  0  0  0  0  0  0
    2.3738   -1.8464    0.0000 O   0  0  0  0  0  0  0  0  0  0  0  0
    3.0883   -0.6089    0.0000 O   0  0  0  0  0  0  0  0  0  0  0  0
    1.8715    0.0936    0.0000 H   0  0  0  0  0  0  0  0  0  0  0  0
    0.9449    1.6986    0.0000 H   0  0  0  0  0  0  0  0  0  0  0  0
    1.8716    1.1636    0.0000 H   0  0  0  0  0  0  0  0  0  0  0  0
    0.4096    1.9696    0.0000 H   0  0  0  0  0  0  0  0  0  0  0  0
   -1.1985    2.8981    0.0000 H   0  0  0  0  0  0  0  0  0  0  0  0
   -2.8067    1.9696    0.0000 H   0  0  0  0  0  0  0  0  0  0  0  0
   -2.8067    0.1126    0.0000 H   0  0  0  0  0  0  0  0  0  0  0  0
   -2.0922   -1.1249    0.0000 H   0  0  0  0  0  0  0  0  0  0  0  0
    0.9449   -2.0914    0.0000 H   0  0  0  0  0  0  0  0  0  0  0  0
    1.8716   -1.5564    0.0000 H   0  0  0  0  0  0  0  0  0  0  0  0
    1.6593    0.4611    0.0000 H   0  0  0  0  0  0  0  0  0  0  0  0
    2.5859   -0.0739    0.0000 H   0  0  0  0  0  0  0  0  0  0  0  0
    1.5623   -2.3149    0.0000 H   0  0  0  0  0  0  0  0  0  0  0  0
  1 17  1  0  0  0  0
  1 18  1  0  0  0  0
  1 19  1  0  0  0  0
  2  1  1  0  0  0  0
  2  3  1  0  0  0  0
  3  8  1  0  0  0  0
  4  3  2  0  0  0  0
  4  5  1  0  0  0  0
  4 20  1  0  0  0  0
  5  6  2  0  0  0  0
  5 21  1  0  0  0  0
  6  7  1  0  0  0  0
  6 22  1  0  0  0  0
  7 23  1  0  0  0  0
  8  7  2  0  0  0  0
  8  9  1  0  0  0  0
  9 10  2  0  0  0  0
  9 24  1  0  0  0  0
 10 11  1  0  0  0  0
 11 12  1  0  0  0  0
 12 13  1  0  0  0  0
 12 25  1  0  0  0  0
 12 26  1  0  0  0  0
 13 14  1  0  0  0  0
 13 27  1  0  0  0  0
 13 28  1  0  0  0  0
 14 16  2  0  0  0  0
 14 15  1  0  0  0  0
 15 29  1  0  0  0  0
M  END
>  <DRUGBANK_ID>
DB07282

>  <COMMON_NAME>
3-({[(1Z)-(2-methoxyphenyl)methylidene]amino}oxy)propanoic acid

$$$$
