
 OpenBabel10282417072D

 64 68  0  0  0  0  0  0  0  0999 V2000
   -2.3738    0.9369    0.0000 C   0  0  0  0  0  0  0  0  0  0  0  0
   -1.6592    1.3492    0.0000 C   0  0  0  0  0  0  0  0  0  0  0  0
   -0.9472    0.9373    0.0000 C   0  0  0  0  0  0  0  0  0  0  0  0
   -0.9472    0.1119    0.0000 C   0  0  0  0  0  0  0  0  0  0  0  0
   -1.6574   -0.2997    0.0000 C   0  0  0  0  0  0  0  0  0  0  0  0
   -2.3738    0.1082    0.0000 C   0  0  0  0  0  0  0  0  0  0  0  0
   -1.6592    2.1743    0.0000 O   0  0  0  0  0  0  0  0  0  0  0  0
   -0.9447    2.5868    0.0000 C   0  0  0  0  0  0  0  0  0  0  0  0
   -0.9444    3.4119    0.0000 C   0  0  0  0  0  0  0  0  0  0  0  0
   -0.2317    3.8226    0.0000 C   0  0  0  0  0  0  0  0  0  0  0  0
    0.4830    3.4099    0.0000 C   0  0  0  0  0  0  0  0  0  0  0  0
    0.4845    2.5889    0.0000 C   0  0  0  0  0  0  0  0  0  0  0  0
   -0.2271    2.1725    0.0000 C   0  0  0  0  0  0  0  0  0  0  0  0
   -1.6574   -1.1249    0.0000 C   0  0  0  0  0  0  0  0  0  0  0  0
   -2.3245   -1.6095    0.0000 C   0  0  0  0  0  0  0  0  0  0  0  0
   -2.0697   -2.3938    0.0000 C   0  0  0  0  0  0  0  0  0  0  0  0
   -1.2451   -2.3938    0.0000 N   0  0  0  0  0  0  0  0  0  0  0  0
   -0.9902   -1.6095    0.0000 N   0  0  0  0  0  0  0  0  0  0  0  0
   -3.1215   -1.3960    0.0000 C   0  0  0  0  0  0  0  0  0  0  0  0
   -3.3351   -0.5991    0.0000 N   0  0  0  0  0  0  0  0  0  0  0  0
   -3.7049   -1.9794    0.0000 O   0  0  0  0  0  0  0  0  0  0  0  0
   -0.8328   -3.1080    0.0000 C   0  0  1  0  0  0  0  0  0  0  0  0
   -1.2452   -3.8222    0.0000 C   0  0  0  0  0  0  0  0  0  0  0  0
   -2.0698   -3.8222    0.0000 C   0  0  0  0  0  0  0  0  0  0  0  0
   -2.4820   -3.1080    0.0000 N   0  0  0  0  0  0  0  0  0  0  0  0
   -0.0077   -3.1080    0.0000 C   0  0  0  0  0  0  0  0  0  0  0  0
    0.4048   -2.3935    0.0000 C   0  0  0  0  0  0  0  0  0  0  0  0
    1.2297   -2.3935    0.0000 C   0  0  0  0  0  0  0  0  0  0  0  0
    1.6422   -3.1080    0.0000 N   0  0  0  0  0  0  0  0  0  0  0  0
    1.2298   -3.8226    0.0000 C   0  0  0  0  0  0  0  0  0  0  0  0
    0.4048   -3.8226    0.0000 C   0  0  0  0  0  0  0  0  0  0  0  0
    2.4673   -3.1080    0.0000 C   0  0  0  0  0  0  0  0  0  0  0  0
    2.8798   -3.8226    0.0000 C   0  0  0  0  0  0  0  0  0  0  0  0
    3.7049   -3.8226    0.0000 C   0  0  0  0  0  0  0  0  0  0  0  0
    2.8798   -2.3935    0.0000 O   0  0  0  0  0  0  0  0  0  0  0  0
   -3.2675    1.4530    0.0000 H   0  0  0  0  0  0  0  0  0  0  0  0
   -0.0532    1.4529    0.0000 H   0  0  0  0  0  0  0  0  0  0  0  0
   -0.0530   -0.4034    0.0000 H   0  0  0  0  0  0  0  0  0  0  0  0
   -3.2660   -0.4105    0.0000 H   0  0  0  0  0  0  0  0  0  0  0  0
   -1.8378    3.9284    0.0000 H   0  0  0  0  0  0  0  0  0  0  0  0
   -0.2312    4.8546    0.0000 H   0  0  0  0  0  0  0  0  0  0  0  0
    1.3763    3.9267    0.0000 H   0  0  0  0  0  0  0  0  0  0  0  0
    1.3802    2.0763    0.0000 H   0  0  0  0  0  0  0  0  0  0  0  0
   -0.2241    1.1405    0.0000 H   0  0  0  0  0  0  0  0  0  0  0  0
   -2.6390    0.0971    0.0000 H   0  0  0  0  0  0  0  0  0  0  0  0
   -4.2861   -0.3444    0.0000 H   0  0  0  0  0  0  0  0  0  0  0  0
   -0.2978   -2.1814    0.0000 H   0  0  0  0  0  0  0  0  0  0  0  0
   -0.7102   -4.7489    0.0000 H   0  0  0  0  0  0  0  0  0  0  0  0
   -1.7802   -4.7488    0.0000 H   0  0  0  0  0  0  0  0  0  0  0  0
   -2.6049   -4.7488    0.0000 H   0  0  0  0  0  0  0  0  0  0  0  0
   -3.1398   -3.8221    0.0000 H   0  0  0  0  0  0  0  0  0  0  0  0
   -3.4665   -3.1079    0.0000 H   0  0  0  0  0  0  0  0  0  0  0  0
    1.0623   -3.1080    0.0000 H   0  0  0  0  0  0  0  0  0  0  0  0
   -0.1302   -1.4669    0.0000 H   0  0  0  0  0  0  0  0  0  0  0  0
    0.9398   -1.4669    0.0000 H   0  0  0  0  0  0  0  0  0  0  0  0
    1.7647   -1.4669    0.0000 H   0  0  0  0  0  0  0  0  0  0  0  0
    2.2997   -2.3935    0.0000 H   0  0  0  0  0  0  0  0  0  0  0  0
    1.7649   -4.7492    0.0000 H   0  0  0  0  0  0  0  0  0  0  0  0
    0.6948   -4.7493    0.0000 H   0  0  0  0  0  0  0  0  0  0  0  0
   -0.1302   -4.7492    0.0000 H   0  0  0  0  0  0  0  0  0  0  0  0
   -0.6652   -3.8225    0.0000 H   0  0  0  0  0  0  0  0  0  0  0  0
    2.3638   -4.7163    0.0000 H   0  0  0  0  0  0  0  0  0  0  0  0
    4.2209   -4.7163    0.0000 H   0  0  0  0  0  0  0  0  0  0  0  0
    4.2209   -2.9289    0.0000 H   0  0  0  0  0  0  0  0  0  0  0  0
  1  6  1  0  0  0  0
  1 36  1  0  0  0  0
  2  1  2  0  0  0  0
  2  7  1  0  0  0  0
  3  2  1  0  0  0  0
  3 37  1  0  0  0  0
  4  3  2  0  0  0  0
  4 38  1  0  0  0  0
  5  4  1  0  0  0  0
  5 14  1  0  0  0  0
  6  5  2  0  0  0  0
  6 39  1  0  0  0  0
  7  8  1  0  0  0  0
  8 13  1  0  0  0  0
  9  8  2  0  0  0  0
  9 40  1  0  0  0  0
 10  9  1  0  0  0  0
 10 41  1  0  0  0  0
 11 10  2  0  0  0  0
 11 42  1  0  0  0  0
 12 11  1  0  0  0  0
 12 43  1  0  0  0  0
 13 12  2  0  0  0  0
 13 44  1  0  0  0  0
 15 14  1  0  0  0  0
 15 16  2  0  0  0  0
 15 19  1  0  0  0  0
 16 17  1  0  0  0  0
 16 25  1  0  0  0  0
 17 18  1  0  0  0  0
 17 22  1  0  0  0  0
 18 14  2  0  0  0  0
 19 20  1  0  0  0  0
 19 21  2  0  0  0  0
 20 45  1  0  0  0  0
 20 46  1  0  0  0  0
 22 26  1  0  0  0  0
 22 47  1  1  0  0  0
 23 22  1  0  0  0  0
 23 48  1  0  0  0  0
 23 49  1  0  0  0  0
 24 23  1  0  0  0  0
 24 50  1  0  0  0  0
 24 51  1  0  0  0  0
 25 24  1  0  0  0  0
 25 52  1  0  0  0  0
 26 31  1  0  0  0  0
 26 53  1  0  0  0  0
 27 26  1  0  0  0  0
 27 54  1  0  0  0  0
 27 55  1  0  0  0  0
 28 27  1  0  0  0  0
 28 56  1  0  0  0  0
 28 57  1  0  0  0  0
 29 28  1  0  0  0  0
 29 32  1  0  0  0  0
 30 29  1  0  0  0  0
 30 58  1  0  0  0  0
 30 59  1  0  0  0  0
 31 30  1  0  0  0  0
 31 60  1  0  0  0  0
 31 61  1  0  0  0  0
 32 33  1  0  0  0  0
 32 35  2  0  0  0  0
 33 34  2  0  0  0  0
 33 62  1  0  0  0  0
 34 63  1  0  0  0  0
 34 64  1  0  0  0  0
M  END
>  <DRUGBANK_ID>
DB15035

>  <COMMON_NAME>
Zanubrutinib

>  <CAS_NUMBER>
1691249-45-2

>  <UNII>
AG9MHG098Z

>  <SYNONYMS>
Zanubrutinib

$$$$
