
 OpenBabel10282417072D

 35 36  0  0  0  0  0  0  0  0999 V2000
   -0.8138    1.6276    0.0000 F   0  0  0  0  0  0  0  0  0  0  0  0
   -3.0407   -0.3921    0.0000 O   0  0  0  0  0  0  0  0  0  0  0  0
   -0.8508   -1.6276    0.0000 O   0  0  0  0  0  0  0  0  0  0  0  0
    0.5474    0.8064    0.0000 O   0  0  0  0  0  0  0  0  0  0  0  0
    3.6991   -0.8433    0.0000 O   0  0  0  0  0  0  0  0  0  0  0  0
    2.2638    1.6202    0.0000 O   0  0  0  0  0  0  0  0  0  0  0  0
   -1.5536   -0.3921    0.0000 N   0  0  0  0  0  0  0  0  0  0  0  0
   -0.1109   -0.3921    0.0000 N   0  0  0  0  0  0  0  0  0  0  0  0
    2.9815    0.3920    0.0000 N   0  0  0  0  0  0  0  0  0  0  0  0
    2.2713   -0.8508    0.0000 N   0  0  0  0  0  0  0  0  0  0  0  0
   -0.8508   -0.8064    0.0000 C   0  0  0  0  0  0  0  0  0  0  0  0
   -2.3822   -0.8433    0.0000 C   0  0  3  0  0  0  0  0  0  0  0  0
   -0.8138    0.8433    0.0000 C   0  0  0  0  0  0  0  0  0  0  0  0
   -1.5536    0.4364    0.0000 C   0  0  0  0  0  0  0  0  0  0  0  0
   -0.1109    0.3920    0.0000 C   0  0  0  0  0  0  0  0  0  0  0  0
   -2.6264   -1.6276    0.0000 C   0  0  0  0  0  0  0  0  0  0  0  0
   -3.6991   -0.8433    0.0000 C   0  0  0  0  0  0  0  0  0  0  0  0
   -3.4550   -1.6276    0.0000 C   0  0  0  0  0  0  0  0  0  0  0  0
    2.9815   -0.4364    0.0000 C   0  0  0  0  0  0  0  0  0  0  0  0
    2.2638    0.7990    0.0000 C   0  0  0  0  0  0  0  0  0  0  0  0
    1.5536    0.3847    0.0000 C   0  0  0  0  0  0  0  0  0  0  0  0
    1.5536   -0.4439    0.0000 C   0  0  0  0  0  0  0  0  0  0  0  0
    0.7384   -0.8899    0.0000 H   0  0  0  0  0  0  0  0  0  0  0  0
    3.8322    0.8875    0.0000 H   0  0  0  0  0  0  0  0  0  0  0  0
    2.2774   -1.8353    0.0000 H   0  0  0  0  0  0  0  0  0  0  0  0
   -2.3276    0.2253    0.0000 H   0  0  0  0  0  0  0  0  0  0  0  0
   -2.4419    0.9616    0.0000 H   0  0  0  0  0  0  0  0  0  0  0  0
   -1.9922   -2.4894    0.0000 H   0  0  0  0  0  0  0  0  0  0  0  0
   -3.1092   -2.5825    0.0000 H   0  0  0  0  0  0  0  0  0  0  0  0
   -4.7099   -0.4924    0.0000 H   0  0  0  0  0  0  0  0  0  0  0  0
   -4.4679   -1.5875    0.0000 H   0  0  0  0  0  0  0  0  0  0  0  0
   -4.0893   -2.4893    0.0000 H   0  0  0  0  0  0  0  0  0  0  0  0
   -4.5102   -1.4504    0.0000 H   0  0  0  0  0  0  0  0  0  0  0  0
    0.6587    0.8987    0.0000 H   0  0  0  0  0  0  0  0  0  0  0  0
    0.6619   -0.9634    0.0000 H   0  0  0  0  0  0  0  0  0  0  0  0
  1 13  1  0  0  0  0
  2 12  1  0  0  0  0
  2 17  1  0  0  0  0
  3 11  2  0  0  0  0
  4 15  2  0  0  0  0
  5 19  2  0  0  0  0
  6 20  2  0  0  0  0
  7 11  1  0  0  0  0
  7 12  1  0  0  0  0
  7 14  1  0  0  0  0
  8 11  1  0  0  0  0
  8 15  1  0  0  0  0
  8 23  1  0  0  0  0
  9 19  1  0  0  0  0
  9 20  1  0  0  0  0
  9 24  1  0  0  0  0
 10 19  1  0  0  0  0
 10 22  1  0  0  0  0
 10 25  1  0  0  0  0
 12 16  1  0  0  0  0
 12 26  1  0  0  0  0
 13 14  2  0  0  0  0
 13 15  1  0  0  0  0
 14 27  1  0  0  0  0
 16 18  1  0  0  0  0
 16 28  1  0  0  0  0
 16 29  1  0  0  0  0
 17 18  1  0  0  0  0
 17 30  1  0  0  0  0
 17 31  1  0  0  0  0
 18 32  1  0  0  0  0
 18 33  1  0  0  0  0
 20 21  1  0  0  0  0
 21 22  2  0  0  0  0
 21 34  1  0  0  0  0
 22 35  1  0  0  0  0
M  END
>  <DRUGBANK_ID>
DB09327

>  <COMMON_NAME>
Tegafur-uracil

>  <CAS_NUMBER>
74578-38-4

>  <UNII>
HMI5GR78FR

>  <SYNONYMS>
Tegafur/uracil; UFT; UFUR

$$$$
