
 OpenBabel10282417072D

 15 14  0  0  0  0  0  0  0  0999 V2000
   -1.4279   -0.0063    0.0000 O   0  0  0  0  0  0  0  0  0  0  0  0
   -0.7139    0.4070    0.0000 C   0  0  0  0  0  0  0  0  0  0  0  0
    0.0000   -0.0020    0.0000 C   0  0  0  0  0  0  0  0  0  0  0  0
    0.7139    0.4113    0.0000 N   0  3  0  0  0  0  0  0  0  0  0  0
    1.4279    0.0020    0.0000 O   0  5  0  0  0  0  0  0  0  0  0  0
   -0.7180   -0.4113    0.0000 C   0  0  0  0  0  0  0  0  0  0  0  0
    0.7139   -0.4155    0.0000 Br  0  0  0  0  0  0  0  0  0  0  0  0
   -0.7222   -1.2379    0.0000 O   0  0  0  0  0  0  0  0  0  0  0  0
    0.7121    1.2379    0.0000 O   0  0  0  0  0  0  0  0  0  0  0  0
   -2.2685    0.4778    0.0000 H   0  0  0  0  0  0  0  0  0  0  0  0
   -0.7163    1.4770    0.0000 H   0  0  0  0  0  0  0  0  0  0  0  0
   -1.6414    0.9404    0.0000 H   0  0  0  0  0  0  0  0  0  0  0  0
   -1.6418    0.1286    0.0000 H   0  0  0  0  0  0  0  0  0  0  0  0
   -1.6474   -0.9415    0.0000 H   0  0  0  0  0  0  0  0  0  0  0  0
   -1.5647   -1.7186    0.0000 H   0  0  0  0  0  0  0  0  0  0  0  0
  1  2  1  0  0  0  0
  1 10  1  0  0  0  0
  2  3  1  0  0  0  0
  2 11  1  0  0  0  0
  2 12  1  0  0  0  0
  3  6  1  0  0  0  0
  3  7  1  0  0  0  0
  3  4  1  0  0  0  0
  4  5  1  0  0  0  0
  4  9  2  0  0  0  0
  6  8  1  0  0  0  0
  6 13  1  0  0  0  0
  6 14  1  0  0  0  0
  8 15  1  0  0  0  0
M  CHG  2   4   1   5  -1
M  END
>  <DRUGBANK_ID>
DB13960

>  <COMMON_NAME>
Bronopol

>  <CAS_NUMBER>
52-51-7

>  <UNII>
6PU1E16C9W

>  <SYNONYMS>
2-Bromo-2-nitropropane-1,3-diol; 2-Nitro-2-bromo-1,3-propanediol; beta-Bromo-beta-nitrotrimethyleneglycol; Bronopol; Bronopolu; Bronopolum

$$$$
