
 OpenBabel10282417072D

 71 74  0  0  0  0  0  0  0  0999 V2000
   -2.8642    1.6555    0.0000 C   0  0  0  0  0  0  0  0  0  0  0  0
   -3.5860    1.2431    0.0000 C   0  0  0  0  0  0  0  0  0  0  0  0
   -3.5860    0.4181    0.0000 C   0  0  0  0  0  0  0  0  0  0  0  0
   -2.8642    0.0057    0.0000 C   0  0  0  0  0  0  0  0  0  0  0  0
   -2.1424    0.4181    0.0000 C   0  0  0  0  0  0  0  0  0  0  0  0
   -2.1424    1.2431    0.0000 C   0  0  0  0  0  0  0  0  0  0  0  0
   -2.8642    2.4804    0.0000 F   0  0  0  0  0  0  0  0  0  0  0  0
   -2.8642   -0.8305    0.0000 C   0  0  0  0  0  0  0  0  0  0  0  0
   -3.5860   -1.2431    0.0000 C   0  0  0  0  0  0  0  0  0  0  0  0
   -4.2964   -0.8305    0.0000 C   0  0  0  0  0  0  0  0  0  0  0  0
   -5.0066   -1.2431    0.0000 C   0  0  0  0  0  0  0  0  0  0  0  0
   -5.0066   -2.0679    0.0000 C   0  0  0  0  0  0  0  0  0  0  0  0
   -4.2964   -2.4804    0.0000 C   0  0  0  0  0  0  0  0  0  0  0  0
   -3.5860   -2.0679    0.0000 C   0  0  0  0  0  0  0  0  0  0  0  0
   -5.7284   -2.4804    0.0000 F   0  0  0  0  0  0  0  0  0  0  0  0
   -2.1424   -1.2431    0.0000 C   0  0  0  0  0  0  0  0  0  0  0  0
   -1.4321   -0.8305    0.0000 C   0  0  0  0  0  0  0  0  0  0  0  0
   -0.7103   -1.2431    0.0000 C   0  0  0  0  0  0  0  0  0  0  0  0
    0.7102    0.4181    0.0000 C   0  0  0  0  0  0  0  0  0  0  0  0
    0.0000    0.0057    0.0000 C   0  0  0  0  0  0  0  0  0  0  0  0
    0.7102   -1.2431    0.0000 C   0  0  0  0  0  0  0  0  0  0  0  0
    1.4320   -0.8305    0.0000 C   0  0  0  0  0  0  0  0  0  0  0  0
    0.0000   -0.8305    0.0000 N   0  0  0  0  0  0  0  0  0  0  0  0
    1.4320    0.0057    0.0000 N   0  0  0  0  0  0  0  0  0  0  0  0
    2.1538    0.4181    0.0000 C   0  0  0  0  0  0  0  0  0  0  0  0
    2.8642    0.0057    0.0000 C   0  0  0  0  0  0  0  0  0  0  0  0
    2.8642   -0.8305    0.0000 O   0  0  0  0  0  0  0  0  0  0  0  0
    3.5860    0.4181    0.0000 N   0  0  0  0  0  0  0  0  0  0  0  0
    4.2963    0.0057    0.0000 C   0  0  0  0  0  0  0  0  0  0  0  0
    5.0181    0.4181    0.0000 C   0  0  0  0  0  0  0  0  0  0  0  0
    4.2963   -0.8305    0.0000 C   0  0  0  0  0  0  0  0  0  0  0  0
    5.0181   -1.2431    0.0000 C   0  0  0  0  0  0  0  0  0  0  0  0
    5.7284   -0.8305    0.0000 C   0  0  0  0  0  0  0  0  0  0  0  0
    5.7284    0.0057    0.0000 C   0  0  0  0  0  0  0  0  0  0  0  0
    5.0181    1.2431    0.0000 C   0  0  0  0  0  0  0  0  0  0  0  0
    3.5860   -1.2431    0.0000 C   0  0  0  0  0  0  0  0  0  0  0  0
   -4.4786    1.7611    0.0000 H   0  0  0  0  0  0  0  0  0  0  0  0
   -4.4786   -0.0999    0.0000 H   0  0  0  0  0  0  0  0  0  0  0  0
   -1.2498   -0.0999    0.0000 H   0  0  0  0  0  0  0  0  0  0  0  0
   -1.2498    1.7611    0.0000 H   0  0  0  0  0  0  0  0  0  0  0  0
   -2.8642   -1.9005    0.0000 H   0  0  0  0  0  0  0  0  0  0  0  0
   -4.2965    0.2015    0.0000 H   0  0  0  0  0  0  0  0  0  0  0  0
   -5.9010   -0.7283    0.0000 H   0  0  0  0  0  0  0  0  0  0  0  0
   -4.2965   -3.5124    0.0000 H   0  0  0  0  0  0  0  0  0  0  0  0
   -2.6916   -2.5828    0.0000 H   0  0  0  0  0  0  0  0  0  0  0  0
   -2.1387   -2.3131    0.0000 H   0  0  0  0  0  0  0  0  0  0  0  0
   -1.2141   -1.7753    0.0000 H   0  0  0  0  0  0  0  0  0  0  0  0
   -1.4358    0.2395    0.0000 H   0  0  0  0  0  0  0  0  0  0  0  0
   -0.5075   -0.2919    0.0000 H   0  0  0  0  0  0  0  0  0  0  0  0
   -0.7066   -2.3131    0.0000 H   0  0  0  0  0  0  0  0  0  0  0  0
    0.2180   -1.7753    0.0000 H   0  0  0  0  0  0  0  0  0  0  0  0
    0.7065    1.4881    0.0000 H   0  0  0  0  0  0  0  0  0  0  0  0
    1.6347    0.9568    0.0000 H   0  0  0  0  0  0  0  0  0  0  0  0
   -0.9273    0.5395    0.0000 H   0  0  0  0  0  0  0  0  0  0  0  0
   -0.9263   -0.5299    0.0000 H   0  0  0  0  0  0  0  0  0  0  0  0
    0.7065   -2.3131    0.0000 H   0  0  0  0  0  0  0  0  0  0  0  0
    1.6348   -1.7817    0.0000 H   0  0  0  0  0  0  0  0  0  0  0  0
    2.3575   -1.3675    0.0000 H   0  0  0  0  0  0  0  0  0  0  0  0
    2.3592   -0.2965    0.0000 H   0  0  0  0  0  0  0  0  0  0  0  0
    2.1575    1.4881    0.0000 H   0  0  0  0  0  0  0  0  0  0  0  0
    3.0820    0.9504    0.0000 H   0  0  0  0  0  0  0  0  0  0  0  0
    3.5894    1.4026    0.0000 H   0  0  0  0  0  0  0  0  0  0  0  0
    5.0217   -2.2751    0.0000 H   0  0  0  0  0  0  0  0  0  0  0  0
    6.6228   -1.3453    0.0000 H   0  0  0  0  0  0  0  0  0  0  0  0
    6.6228    0.5206    0.0000 H   0  0  0  0  0  0  0  0  0  0  0  0
    5.9447    1.7781    0.0000 H   0  0  0  0  0  0  0  0  0  0  0  0
    4.0915    1.7781    0.0000 H   0  0  0  0  0  0  0  0  0  0  0  0
    5.0181    2.3131    0.0000 H   0  0  0  0  0  0  0  0  0  0  0  0
    2.6579   -0.7106    0.0000 H   0  0  0  0  0  0  0  0  0  0  0  0
    3.5888   -2.3131    0.0000 H   0  0  0  0  0  0  0  0  0  0  0  0
    2.6608   -1.7805    0.0000 H   0  0  0  0  0  0  0  0  0  0  0  0
  1  2  2  0  0  0  0
  1  6  1  0  0  0  0
  1  7  1  0  0  0  0
  2  3  1  0  0  0  0
  2 37  1  0  0  0  0
  3  4  2  0  0  0  0
  3 38  1  0  0  0  0
  4  5  1  0  0  0  0
  4  8  1  0  0  0  0
  5  6  2  0  0  0  0
  5 39  1  0  0  0  0
  6 40  1  0  0  0  0
  8 16  1  0  0  0  0
  8  9  1  0  0  0  0
  8 41  1  0  0  0  0
  9 14  2  0  0  0  0
  9 10  1  0  0  0  0
 10 11  2  0  0  0  0
 10 42  1  0  0  0  0
 11 12  1  0  0  0  0
 11 43  1  0  0  0  0
 12 13  2  0  0  0  0
 12 15  1  0  0  0  0
 13 14  1  0  0  0  0
 13 44  1  0  0  0  0
 14 45  1  0  0  0  0
 16 17  1  0  0  0  0
 16 46  1  0  0  0  0
 16 47  1  0  0  0  0
 17 18  1  0  0  0  0
 17 48  1  0  0  0  0
 17 49  1  0  0  0  0
 18 23  1  0  0  0  0
 18 50  1  0  0  0  0
 18 51  1  0  0  0  0
 19 20  1  0  0  0  0
 19 24  1  0  0  0  0
 19 52  1  0  0  0  0
 19 53  1  0  0  0  0
 20 23  1  0  0  0  0
 20 54  1  0  0  0  0
 20 55  1  0  0  0  0
 21 23  1  0  0  0  0
 21 22  1  0  0  0  0
 21 56  1  0  0  0  0
 21 57  1  0  0  0  0
 22 24  1  0  0  0  0
 22 58  1  0  0  0  0
 22 59  1  0  0  0  0
 24 25  1  0  0  0  0
 25 26  1  0  0  0  0
 25 60  1  0  0  0  0
 25 61  1  0  0  0  0
 26 28  1  0  0  0  0
 26 27  2  0  0  0  0
 28 29  1  0  0  0  0
 28 62  1  0  0  0  0
 29 30  2  0  0  0  0
 29 31  1  0  0  0  0
 30 34  1  0  0  0  0
 30 35  1  0  0  0  0
 31 32  2  0  0  0  0
 31 36  1  0  0  0  0
 32 33  1  0  0  0  0
 32 63  1  0  0  0  0
 33 34  2  0  0  0  0
 33 64  1  0  0  0  0
 34 65  1  0  0  0  0
 35 66  1  0  0  0  0
 35 67  1  0  0  0  0
 35 68  1  0  0  0  0
 36 69  1  0  0  0  0
 36 70  1  0  0  0  0
 36 71  1  0  0  0  0
M  END
>  <DRUGBANK_ID>
DB13766

>  <COMMON_NAME>
Lidoflazine

>  <CAS_NUMBER>
3416-26-0

>  <UNII>
J4ZHN3HBTE

>  <SYNONYMS>
Lidoflazina; Lidoflazine; Lidoflazinum

$$$$
