
 OpenBabel10282417072D

  7  6  0  0  0  0  0  0  0  0999 V2000
    1.2375    0.7145    0.0000 O   0  0  0  0  0  0  0  0  0  0  0  0
    0.8250    0.0000    0.0000 As  0  0  0  0  0  0  0  0  0  0  0  0
    1.2375   -0.7145    0.0000 O   0  0  0  0  0  0  0  0  0  0  0  0
    0.0000    0.0000    0.0000 O   0  0  0  0  0  0  0  0  0  0  0  0
    2.2075    0.7145    0.0000 H   0  0  0  0  0  0  0  0  0  0  0  0
    0.7525   -1.5545    0.0000 H   0  0  0  0  0  0  0  0  0  0  0  0
   -0.4850    0.8400    0.0000 H   0  0  0  0  0  0  0  0  0  0  0  0
  1  2  1  0  0  0  0
  1  5  1  0  0  0  0
  2  3  1  0  0  0  0
  2  4  1  0  0  0  0
  3  6  1  0  0  0  0
  4  7  1  0  0  0  0
M  END
>  <DRUGBANK_ID>
DB04456

>  <SECONDARY_ACCESSION_NUMBERS>
EXPT03008

>  <COMMON_NAME>
Arsenous acid

>  <CAS_NUMBER>
13464-58-9

>  <UNII>
935XD1L5K2

>  <SYNONYMS>
arsenic trihydroxide; arsenous acid; arsorous acid; trihydroxyarsenite(III)

$$$$
