
 OpenBabel10282417072D

 46 46  0  0  0  0  0  0  0  0999 V2000
    0.3545    0.9506    0.0000 O   0  0  0  0  0  0  0  0  0  0  0  0
    1.0634   -1.1183    0.0000 O   0  0  0  0  0  0  0  0  0  0  0  0
    1.7918    0.9506    0.0000 O   0  0  0  0  0  0  0  0  0  0  0  0
   -1.0957    2.6071    0.0000 O   0  0  0  0  0  0  0  0  0  0  0  0
    0.3158    2.6071    0.0000 O   0  0  0  0  0  0  0  0  0  0  0  0
   -1.8369   -1.3374    0.0000 O   0  0  0  0  0  0  0  0  0  0  0  0
    3.2227    0.0934    0.0000 O   0  0  0  0  0  0  0  0  0  0  0  0
   -0.3996   -1.3632    0.0000 N   0  0  0  0  0  0  0  0  0  0  0  0
   -1.8111   -0.2868    0.0000 N   0  0  0  0  0  0  0  0  0  0  0  0
   -2.5137    0.9506    0.0000 N   0  0  0  0  0  0  0  0  0  0  0  0
   -3.2227   -0.2804    0.0000 N   0  0  0  0  0  0  0  0  0  0  0  0
    0.3545    0.1256    0.0000 C   0  0  2  0  0  0  0  0  0  0  0  0
   -0.3867   -0.2868    0.0000 C   0  0  1  0  0  0  0  0  0  0  0  0
    1.0699   -0.2932    0.0000 C   0  0  1  0  0  0  0  0  0  0  0  0
   -1.0957    0.1256    0.0000 C   0  0  2  0  0  0  0  0  0  0  0  0
   -0.3867    1.3696    0.0000 C   0  0  0  0  0  0  0  0  0  0  0  0
   -1.0957    0.9506    0.0000 C   0  0  0  0  0  0  0  0  0  0  0  0
    1.7853    0.1127    0.0000 C   0  0  1  0  0  0  0  0  0  0  0  0
   -0.3867    2.1946    0.0000 C   0  0  0  0  0  0  0  0  0  0  0  0
   -1.1150   -1.7628    0.0000 C   0  0  0  0  0  0  0  0  0  0  0  0
    2.5073   -0.3125    0.0000 C   0  0  0  0  0  0  0  0  0  0  0  0
   -2.5137    0.1256    0.0000 C   0  0  0  0  0  0  0  0  0  0  0  0
    1.7724   -1.5372    0.0000 C   0  0  0  0  0  0  0  0  0  0  0  0
   -1.1215   -2.6071    0.0000 C   0  0  0  0  0  0  0  0  0  0  0  0
    0.3545   -0.6993    0.0000 H   0  0  0  0  0  0  0  0  0  0  0  0
    2.6356    1.4291    0.0000 H   0  0  0  0  0  0  0  0  0  0  0  0
    1.1307    2.1446    0.0000 H   0  0  0  0  0  0  0  0  0  0  0  0
    4.0591   -0.3979    0.0000 H   0  0  0  0  0  0  0  0  0  0  0  0
    0.4465   -1.8666    0.0000 H   0  0  0  0  0  0  0  0  0  0  0  0
   -1.8150   -1.2713    0.0000 H   0  0  0  0  0  0  0  0  0  0  0  0
   -1.6611    1.4429    0.0000 H   0  0  0  0  0  0  0  0  0  0  0  0
   -4.0736    0.2149    0.0000 H   0  0  0  0  0  0  0  0  0  0  0  0
   -3.2262   -1.2649    0.0000 H   0  0  0  0  0  0  0  0  0  0  0  0
    0.5324   -0.8346    0.0000 H   0  0  0  0  0  0  0  0  0  0  0  0
    0.1396   -0.8217    0.0000 H   0  0  0  0  0  0  0  0  0  0  0  0
   -1.0978   -0.9444    0.0000 H   0  0  0  0  0  0  0  0  0  0  0  0
   -1.9920    1.4621    0.0000 H   0  0  0  0  0  0  0  0  0  0  0  0
    0.8628    0.6548    0.0000 H   0  0  0  0  0  0  0  0  0  0  0  0
    2.4987   -1.3825    0.0000 H   0  0  0  0  0  0  0  0  0  0  0  0
    1.5762   -0.8397    0.0000 H   0  0  0  0  0  0  0  0  0  0  0  0
    1.7616   -2.6071    0.0000 H   0  0  0  0  0  0  0  0  0  0  0  0
    2.7044   -1.0115    0.0000 H   0  0  0  0  0  0  0  0  0  0  0  0
    2.6936   -2.0815    0.0000 H   0  0  0  0  0  0  0  0  0  0  0  0
   -2.0522   -3.1350    0.0000 H   0  0  0  0  0  0  0  0  0  0  0  0
   -0.1990   -3.1492    0.0000 H   0  0  0  0  0  0  0  0  0  0  0  0
   -1.1297   -3.6771    0.0000 H   0  0  0  0  0  0  0  0  0  0  0  0
  1 12  1  0  0  0  0
  1 16  1  0  0  0  0
  2 23  1  0  0  0  0
  3 26  1  0  0  0  0
  4 19  2  0  0  0  0
  5 19  1  0  0  0  0
  5 27  1  0  0  0  0
  6 20  2  0  0  0  0
  7 21  1  0  0  0  0
  7 28  1  0  0  0  0
  8 20  1  0  0  0  0
  8 29  1  0  0  0  0
  9 22  1  0  0  0  0
  9 30  1  0  0  0  0
 10 22  2  0  0  0  0
 10 31  1  0  0  0  0
 11 22  1  0  0  0  0
 11 32  1  0  0  0  0
 11 33  1  0  0  0  0
 12 13  1  0  0  0  0
 12 14  1  0  0  0  0
 12 25  1  6  0  0  0
 13  8  1  0  0  0  0
 13 15  1  0  0  0  0
 13 34  1  1  0  0  0
 14  2  1  0  0  0  0
 14 18  1  0  0  0  0
 14 35  1  6  0  0  0
 15  9  1  0  0  0  0
 15 17  1  0  0  0  0
 15 36  1  6  0  0  0
 16 17  2  0  0  0  0
 16 19  1  0  0  0  0
 17 37  1  0  0  0  0
 18  3  1  0  0  0  0
 18 21  1  0  0  0  0
 18 38  1  1  0  0  0
 20 24  1  0  0  0  0
 21 39  1  0  0  0  0
 21 40  1  0  0  0  0
 23 41  1  0  0  0  0
 23 42  1  0  0  0  0
 23 43  1  0  0  0  0
 24 44  1  0  0  0  0
 24 45  1  0  0  0  0
 24 46  1  0  0  0  0
M  END
>  <DRUGBANK_ID>
DB12791

>  <COMMON_NAME>
Laninamivir

>  <CAS_NUMBER>
203120-17-6

>  <UNII>
B408IW3GL5

>  <SYNONYMS>
Laninamivir; Laninamivirum

$$$$
