
 OpenBabel10282417072D

 36 36  0  0  0  0  0  0  0  0999 V2000
    7.6312    1.9447    0.0000 C   0  0  0  0  0  0  0  0  0  0  0  0
    6.9168    1.5322    0.0000 C   0  0  0  0  0  0  0  0  0  0  0  0
    6.9168    0.7071    0.0000 C   0  0  0  0  0  0  0  0  0  0  0  0
    7.6312    0.2946    0.0000 C   0  0  0  0  0  0  0  0  0  0  0  0
    8.3457    0.7071    0.0000 C   0  0  0  0  0  0  0  0  0  0  0  0
    8.3457    1.5322    0.0000 C   0  0  0  0  0  0  0  0  0  0  0  0
    6.2023    1.9447    0.0000 C   0  0  0  0  0  0  0  0  0  0  0  0
    5.4878    1.5322    0.0000 N   0  0  0  0  0  0  0  0  0  0  0  0
    4.7734    1.9447    0.0000 C   0  0  0  0  0  0  0  0  0  0  0  0
    4.7734    2.7697    0.0000 O   0  0  0  0  0  0  0  0  0  0  0  0
    4.0589    1.5322    0.0000 C   0  0  1  0  0  0  0  0  0  0  0  0
    4.0589    0.7072    0.0000 C   0  0  0  0  0  0  0  0  0  0  0  0
    4.7734    0.2947    0.0000 O   0  0  0  0  0  0  0  0  0  0  0  0
    4.7734   -0.5303    0.0000 C   0  0  0  0  0  0  0  0  0  0  0  0
    3.2620    1.7457    0.0000 N   0  0  0  0  0  0  0  0  0  0  0  0
    2.5475    1.3332    0.0000 C   0  0  0  0  0  0  0  0  0  0  0  0
    2.5475    0.5082    0.0000 O   0  0  0  0  0  0  0  0  0  0  0  0
    1.8331    1.7457    0.0000 C   0  0  0  0  0  0  0  0  0  0  0  0
    7.6312    2.9767    0.0000 H   0  0  0  0  0  0  0  0  0  0  0  0
    6.0231    0.1911    0.0000 H   0  0  0  0  0  0  0  0  0  0  0  0
    7.6312   -0.7374    0.0000 H   0  0  0  0  0  0  0  0  0  0  0  0
    9.2394    0.1911    0.0000 H   0  0  0  0  0  0  0  0  0  0  0  0
    9.2394    2.0482    0.0000 H   0  0  0  0  0  0  0  0  0  0  0  0
    6.2023    3.0147    0.0000 H   0  0  0  0  0  0  0  0  0  0  0  0
    5.2757    2.4797    0.0000 H   0  0  0  0  0  0  0  0  0  0  0  0
    5.4878    0.5477    0.0000 H   0  0  0  0  0  0  0  0  0  0  0  0
    3.9192    2.5930    0.0000 H   0  0  0  0  0  0  0  0  0  0  0  0
    3.1323    0.1722    0.0000 H   0  0  0  0  0  0  0  0  0  0  0  0
    4.0589   -0.3628    0.0000 H   0  0  0  0  0  0  0  0  0  0  0  0
    3.8468   -1.0653    0.0000 H   0  0  0  0  0  0  0  0  0  0  0  0
    5.7000   -1.0653    0.0000 H   0  0  0  0  0  0  0  0  0  0  0  0
    4.7734   -1.6003    0.0000 H   0  0  0  0  0  0  0  0  0  0  0  0
    3.1335    2.7218    0.0000 H   0  0  0  0  0  0  0  0  0  0  0  0
    1.8331    2.8157    0.0000 H   0  0  0  0  0  0  0  0  0  0  0  0
    0.9064    1.2107    0.0000 H   0  0  0  0  0  0  0  0  0  0  0  0
    0.9065    2.2807    0.0000 H   0  0  0  0  0  0  0  0  0  0  0  0
  1  2  1  0  0  0  0
  1  6  2  0  0  0  0
  1 19  1  0  0  0  0
  2  3  2  0  0  0  0
  2  7  1  0  0  0  0
  3  4  1  0  0  0  0
  3 20  1  0  0  0  0
  4  5  2  0  0  0  0
  4 21  1  0  0  0  0
  5  6  1  0  0  0  0
  5 22  1  0  0  0  0
  6 23  1  0  0  0  0
  7  8  1  0  0  0  0
  7 24  1  0  0  0  0
  7 25  1  0  0  0  0
  8  9  1  0  0  0  0
  8 26  1  0  0  0  0
  9 10  2  0  0  0  0
  9 11  1  0  0  0  0
 11 12  1  0  0  0  0
 11 15  1  0  0  0  0
 11 27  1  6  0  0  0
 12 13  1  0  0  0  0
 12 28  1  0  0  0  0
 12 29  1  0  0  0  0
 13 14  1  0  0  0  0
 14 30  1  0  0  0  0
 14 31  1  0  0  0  0
 14 32  1  0  0  0  0
 15 16  1  0  0  0  0
 15 33  1  0  0  0  0
 16 17  2  0  0  0  0
 16 18  1  0  0  0  0
 18 34  1  0  0  0  0
 18 35  1  0  0  0  0
 18 36  1  0  0  0  0
M  END
>  <DRUGBANK_ID>
DB06218

>  <COMMON_NAME>
Lacosamide

>  <CAS_NUMBER>
175481-36-4

>  <UNII>
563KS2PQY5

>  <SYNONYMS>
(+)-(2R)-2-(ACETYLAMINO)-N-BENZYL-3-METHOXYPROPANAMIDE; (2R)-2-(Acetylamino)-3-methoxy-N-(phenylmethyl)propanamide; (R)-2-acetamido-N-benzyl-3- methoxypropionamide; (R)-LACOSAMIDE 1; Erlosamide; Harkoseride; Lacosamida; Lacosamide; Propanamide, 2-(acetylamino)-3-methoxy-N-(phenylmethyl)-, (2R)-

$$$$
