283
 OpenBabel10282417072D

 37 38  0  0  0  0  0  0  0  0999 V2000
    1.4933   -0.6731    0.0000 C   0  0  0  0  0  0  0  0  0  0  0  0
    0.7086   -0.9280    0.0000 C   0  0  0  0  0  0  0  0  0  0  0  0
    0.2671    0.4310    0.0000 C   0  0  0  0  0  0  0  0  0  0  0  0
    1.0517    0.6859    0.0000 C   0  0  0  0  0  0  0  0  0  0  0  0
    1.6648    0.1339    0.0000 C   0  0  0  0  0  0  0  0  0  0  0  0
    2.4494    0.3888    0.0000 O   0  0  0  0  0  0  0  0  0  0  0  0
    2.6209    1.1958    0.0000 C   0  0  0  0  0  0  0  0  0  0  0  0
    4.9748    1.9606    0.0000 C   0  0  0  0  0  0  0  0  0  0  0  0
    4.1902    1.7057    0.0000 C   0  0  0  0  0  0  0  0  0  0  0  0
    3.4056    1.4507    0.0000 C   0  0  0  0  0  0  0  0  0  0  0  0
    0.0955   -0.3760    0.0000 C   0  0  0  0  0  0  0  0  0  0  0  0
   -0.9440    0.1537    0.0000 O   0  0  0  0  0  0  0  0  0  0  0  0
   -0.4341   -1.4156    0.0000 O   0  0  0  0  0  0  0  0  0  0  0  0
   -0.6891   -0.6310    0.0000 S   0  0  0  0  0  0  0  0  0  0  0  0
   -2.1411   -0.4010    0.0000 C   0  0  0  0  0  0  0  0  0  0  0  0
   -1.4737   -0.8859    0.0000 N   0  0  0  0  0  0  0  0  0  0  0  0
   -1.7286   -1.6705    0.0000 C   0  0  0  0  0  0  0  0  0  0  0  0
   -2.5536   -1.6705    0.0000 C   0  0  1  0  0  0  0  0  0  0  0  0
   -3.0386   -2.3380    0.0000 S   0  0  0  0  0  0  0  0  0  0  0  0
   -2.8086   -0.8859    0.0000 C   0  0  0  0  0  0  0  0  0  0  0  0
   -2.2885   -2.1908    0.0000 H   0  0  0  0  0  0  0  0  0  0  0  0
    2.2602   -1.3637    0.0000 H   0  0  0  0  0  0  0  0  0  0  0  0
    0.4940   -1.9374    0.0000 H   0  0  0  0  0  0  0  0  0  0  0  0
   -0.4998    1.1216    0.0000 H   0  0  0  0  0  0  0  0  0  0  0  0
    1.2663    1.6953    0.0000 H   0  0  0  0  0  0  0  0  0  0  0  0
    1.8257    1.9118    0.0000 H   0  0  0  0  0  0  0  0  0  0  0  0
    2.8434    2.2424    0.0000 H   0  0  0  0  0  0  0  0  0  0  0  0
    5.7699    1.2446    0.0000 H   0  0  0  0  0  0  0  0  0  0  0  0
    5.1973    3.0072    0.0000 H   0  0  0  0  0  0  0  0  0  0  0  0
    5.9924    2.2912    0.0000 H   0  0  0  0  0  0  0  0  0  0  0  0
   -2.1411    0.6690    0.0000 H   0  0  0  0  0  0  0  0  0  0  0  0
   -3.0945    0.0848    0.0000 H   0  0  0  0  0  0  0  0  0  0  0  0
   -1.0997   -2.5361    0.0000 H   0  0  0  0  0  0  0  0  0  0  0  0
   -2.2144   -2.6239    0.0000 H   0  0  0  0  0  0  0  0  0  0  0  0
   -4.3911   -2.1958    0.0000 H   0  0  0  0  0  0  0  0  0  0  0  0
   -3.8262   -0.5553    0.0000 H   0  0  0  0  0  0  0  0  0  0  0  0
   -3.5652   -1.6425    0.0000 H   0  0  0  0  0  0  0  0  0  0  0  0
  1  2  1  0  0  0  0
  1  5  2  0  0  0  0
  1 22  1  0  0  0  0
  2 11  2  0  0  0  0
  2 23  1  0  0  0  0
  3 11  1  0  0  0  0
  3  4  2  0  0  0  0
  3 24  1  0  0  0  0
  4  5  1  0  0  0  0
  4 25  1  0  0  0  0
  5  6  1  0  0  0  0
  6  7  1  0  0  0  0
  7 10  1  0  0  0  0
  7 26  1  0  0  0  0
  7 27  1  0  0  0  0
  8  9  1  0  0  0  0
  8 28  1  0  0  0  0
  8 29  1  0  0  0  0
  8 30  1  0  0  0  0
  9 10  3  0  0  0  0
 11 14  1  0  0  0  0
 12 14  2  0  0  0  0
 13 14  2  0  0  0  0
 14 16  1  0  0  0  0
 15 16  1  0  0  0  0
 15 20  1  0  0  0  0
 15 31  1  0  0  0  0
 15 32  1  0  0  0  0
 16 17  1  0  0  0  0
 17 18  1  0  0  0  0
 17 33  1  0  0  0  0
 17 34  1  0  0  0  0
 18 20  1  0  0  0  0
 18 19  1  0  0  0  0
 18 21  1  6  0  0  0
 19 35  1  0  0  0  0
 20 36  1  0  0  0  0
 20 37  1  0  0  0  0
M  END
>  <DRUGBANK_ID>
DB06943

>  <COMMON_NAME>
(3S)-1-{[4-(but-2-yn-1-yloxy)phenyl]sulfonyl}pyrrolidine-3-thiol

$$$$
