
 OpenBabel10282417072D

 50 53  0  0  1  0  0  0  0  0999 V2000
    3.7054    1.0256    0.0000 C   0  0  0  0  0  0  0  0  0  0  0  0
    3.9604    0.2410    0.0000 C   0  0  0  0  0  0  0  0  0  0  0  0
    2.8985    1.1971    0.0000 C   0  0  0  0  0  0  0  0  0  0  0  0
    3.4084   -0.3721    0.0000 C   0  0  0  0  0  0  0  0  0  0  0  0
   -0.1768    4.6056    0.0000 C   0  0  0  0  0  0  0  0  0  0  0  0
    1.1822    4.1641    0.0000 C   0  0  0  0  0  0  0  0  0  0  0  0
   -0.0925    0.2410    0.0000 C   0  0  0  0  0  0  0  0  0  0  0  0
   -0.4317    3.8210    0.0000 C   0  0  0  0  0  0  0  0  0  0  0  0
    0.9273    3.3795    0.0000 C   0  0  0  0  0  0  0  0  0  0  0  0
    0.4595   -0.3721    0.0000 C   0  0  0  0  0  0  0  0  0  0  0  0
    2.6484   -1.9230    0.0000 C   0  0  0  0  0  0  0  0  0  0  0  0
    1.9339   -1.5105    0.0000 C   0  0  0  0  0  0  0  0  0  0  0  0
    0.9694    1.1971    0.0000 C   0  0  0  0  0  0  0  0  0  0  0  0
    0.6302    4.7772    0.0000 C   0  0  0  0  0  0  0  0  0  0  0  0
    0.1624    1.0256    0.0000 C   0  0  2  0  0  0  0  0  0  0  0  0
    0.1203    3.2079    0.0000 C   0  0  0  0  0  0  0  0  0  0  0  0
    2.3464    0.5840    0.0000 C   0  0  0  0  0  0  0  0  0  0  0  0
    1.5214    0.5840    0.0000 C   0  0  0  0  0  0  0  0  0  0  0  0
    2.6014   -0.2006    0.0000 C   0  0  0  0  0  0  0  0  0  0  0  0
    1.2665   -0.2006    0.0000 C   0  0  0  0  0  0  0  0  0  0  0  0
    2.6484   -2.7480    0.0000 C   0  0  0  0  0  0  0  0  0  0  0  0
    0.8851    5.5618    0.0000 F   0  0  0  0  0  0  0  0  0  0  0  0
   -0.3896    1.6387    0.0000 N   0  0  0  0  0  0  0  0  0  0  0  0
    1.9339   -0.6855    0.0000 N   0  0  0  0  0  0  0  0  0  0  0  0
    3.3629   -3.1605    0.0000 O   0  0  0  0  0  0  0  0  0  0  0  0
    1.9339   -3.1605    0.0000 O   0  0  0  0  0  0  0  0  0  0  0  0
   -0.9193    2.6782    0.0000 O   0  0  0  0  0  0  0  0  0  0  0  0
    0.6500    2.1684    0.0000 O   0  0  0  0  0  0  0  0  0  0  0  0
   -0.1347    2.4233    0.0000 S   0  0  0  0  0  0  0  0  0  0  0  0
    0.4174    1.8102    0.0000 H   0  0  0  0  0  0  0  0  0  0  0  0
    4.3959    1.7926    0.0000 H   0  0  0  0  0  0  0  0  0  0  0  0
    4.9699    0.0265    0.0000 H   0  0  0  0  0  0  0  0  0  0  0  0
    2.5796    2.1786    0.0000 H   0  0  0  0  0  0  0  0  0  0  0  0
    3.7273   -1.3536    0.0000 H   0  0  0  0  0  0  0  0  0  0  0  0
   -0.8674    5.3725    0.0000 H   0  0  0  0  0  0  0  0  0  0  0  0
    2.1916    4.3787    0.0000 H   0  0  0  0  0  0  0  0  0  0  0  0
   -1.1391    0.0185    0.0000 H   0  0  0  0  0  0  0  0  0  0  0  0
   -0.8085    1.0362    0.0000 H   0  0  0  0  0  0  0  0  0  0  0  0
   -1.4411    3.6064    0.0000 H   0  0  0  0  0  0  0  0  0  0  0  0
    1.6179    2.6126    0.0000 H   0  0  0  0  0  0  0  0  0  0  0  0
    0.1288   -1.3897    0.0000 H   0  0  0  0  0  0  0  0  0  0  0  0
    1.1754   -1.1673    0.0000 H   0  0  0  0  0  0  0  0  0  0  0  0
    3.5750   -1.3880    0.0000 H   0  0  0  0  0  0  0  0  0  0  0  0
    3.5750   -2.4580    0.0000 H   0  0  0  0  0  0  0  0  0  0  0  0
    1.0073   -2.0455    0.0000 H   0  0  0  0  0  0  0  0  0  0  0  0
    1.0073   -0.9755    0.0000 H   0  0  0  0  0  0  0  0  0  0  0  0
    1.3001    2.2147    0.0000 H   0  0  0  0  0  0  0  0  0  0  0  0
    2.0160    1.4195    0.0000 H   0  0  0  0  0  0  0  0  0  0  0  0
   -1.3873    1.4266    0.0000 H   0  0  0  0  0  0  0  0  0  0  0  0
    1.1224   -2.6920    0.0000 H   0  0  0  0  0  0  0  0  0  0  0  0
  1 31  1  0  0  0  0
  2  1  2  0  0  0  0
  2 32  1  0  0  0  0
  3  1  1  0  0  0  0
  3 33  1  0  0  0  0
  4  2  1  0  0  0  0
  4 34  1  0  0  0  0
  5 35  1  0  0  0  0
  6 36  1  0  0  0  0
  7 37  1  0  0  0  0
  7 38  1  0  0  0  0
  8  5  1  0  0  0  0
  8 39  1  0  0  0  0
  9  6  2  0  0  0  0
  9 40  1  0  0  0  0
 10  7  1  0  0  0  0
 10 41  1  0  0  0  0
 10 42  1  0  0  0  0
 11 43  1  0  0  0  0
 11 44  1  0  0  0  0
 12 11  1  0  0  0  0
 12 45  1  0  0  0  0
 12 46  1  0  0  0  0
 13 47  1  0  0  0  0
 13 48  1  0  0  0  0
 14  5  2  0  0  0  0
 14  6  1  0  0  0  0
 15  7  1  0  0  0  0
 15 13  1  0  0  0  0
 15 23  1  0  0  0  0
 15 30  1  6  0  0  0
 16  8  2  0  0  0  0
 16  9  1  0  0  0  0
 17  3  2  0  0  0  0
 18 13  1  0  0  0  0
 18 17  1  0  0  0  0
 19  4  2  0  0  0  0
 19 17  1  0  0  0  0
 20 10  1  0  0  0  0
 20 18  2  0  0  0  0
 21 11  1  0  0  0  0
 22 14  1  0  0  0  0
 23 49  1  0  0  0  0
 24 12  1  0  0  0  0
 24 19  1  0  0  0  0
 24 20  1  0  0  0  0
 25 21  2  0  0  0  0
 26 21  1  0  0  0  0
 26 50  1  0  0  0  0
 29 16  1  0  0  0  0
 29 23  1  0  0  0  0
 29 27  2  0  0  0  0
 29 28  2  0  0  0  0
M  END
>  <DRUGBANK_ID>
DB13036

>  <COMMON_NAME>
Ramatroban

>  <CAS_NUMBER>
116649-85-5

>  <UNII>
P1ALI72U6C

>  <SYNONYMS>
Ramatroban

$$$$
