
 OpenBabel10282417072D

 25 24  0  0  1  0  0  0  0  0999 V2000
    1.3480   -0.3020    0.0000 C   0  0  0  0  0  0  0  0  0  0  0  0
    2.0625   -0.7145    0.0000 C   0  0  0  0  0  0  0  0  0  0  0  0
    2.7770   -0.3020    0.0000 C   0  0  0  0  0  0  0  0  0  0  0  0
    4.9204   -0.7145    0.0000 C   0  0  0  0  0  0  0  0  0  0  0  0
    5.6349   -0.3020    0.0000 C   0  0  1  0  0  0  0  0  0  0  0  0
    3.4914   -0.7145    0.0000 C   0  0  0  0  0  0  0  0  0  0  0  0
    6.3493   -0.7145    0.0000 C   0  0  0  0  0  0  0  0  0  0  0  0
    5.6349    0.5230    0.0000 N   0  0  0  0  0  0  0  0  0  0  0  0
    3.4914   -1.5395    0.0000 O   0  0  0  0  0  0  0  0  0  0  0  0
    7.0638   -0.3020    0.0000 O   0  0  0  0  0  0  0  0  0  0  0  0
    6.3493   -1.5395    0.0000 O   0  0  0  0  0  0  0  0  0  0  0  0
    4.2059   -0.3020    0.0000 S   0  0  0  0  0  0  0  0  0  0  0  0
    5.6349   -1.1270    0.0000 H   0  0  0  0  0  0  0  0  0  0  0  0
    1.3480    0.7680    0.0000 H   0  0  0  0  0  0  0  0  0  0  0  0
    0.4214   -0.8370    0.0000 H   0  0  0  0  0  0  0  0  0  0  0  0
    0.4213    0.2330    0.0000 H   0  0  0  0  0  0  0  0  0  0  0  0
    2.0625   -1.7845    0.0000 H   0  0  0  0  0  0  0  0  0  0  0  0
    2.9891   -1.2495    0.0000 H   0  0  0  0  0  0  0  0  0  0  0  0
    2.7770    0.7680    0.0000 H   0  0  0  0  0  0  0  0  0  0  0  0
    3.7037    0.2330    0.0000 H   0  0  0  0  0  0  0  0  0  0  0  0
    4.9204   -1.7845    0.0000 H   0  0  0  0  0  0  0  0  0  0  0  0
    3.9938   -1.2495    0.0000 H   0  0  0  0  0  0  0  0  0  0  0  0
    6.5182    1.0330    0.0000 H   0  0  0  0  0  0  0  0  0  0  0  0
    4.7516    1.0330    0.0000 H   0  0  0  0  0  0  0  0  0  0  0  0
    5.5378   -2.0080    0.0000 H   0  0  0  0  0  0  0  0  0  0  0  0
  1 14  1  0  0  0  0
  1 15  1  0  0  0  0
  1 16  1  0  0  0  0
  2  1  1  0  0  0  0
  2 17  1  0  0  0  0
  2 18  1  0  0  0  0
  3  2  1  0  0  0  0
  3 19  1  0  0  0  0
  3 20  1  0  0  0  0
  4 21  1  0  0  0  0
  4 22  1  0  0  0  0
  5  4  1  0  0  0  0
  5  8  1  0  0  0  0
  5 13  1  1  0  0  0
  6  3  1  0  0  0  0
  7  5  1  0  0  0  0
  8 23  1  0  0  0  0
  8 24  1  0  0  0  0
  9  6  2  0  0  0  0
 10  7  2  0  0  0  0
 11  7  1  0  0  0  0
 11 25  1  0  0  0  0
 12  4  1  0  0  0  0
 12  6  1  0  0  0  0
M  END
>  <DRUGBANK_ID>
DB02160

>  <SECONDARY_ACCESSION_NUMBERS>
EXPT01074

>  <COMMON_NAME>
S-Butyryl-Cystein

$$$$
