
 OpenBabel10282417072D

 64 67  0  0  1  0  0  0  0  0999 V2000
    8.1546   -2.3680    0.0000 Cl  0  0  0  0  0  0  0  0  0  0  0  0
    6.7416   -2.1550    0.0000 O   0  0  0  0  0  0  0  0  0  0  0  0
    4.0630    1.5562    0.0000 O   0  0  0  0  0  0  0  0  0  0  0  0
    6.2196   -0.8249    0.0000 N   0  0  0  0  0  0  0  0  0  0  0  0
    9.9366   -0.1336    0.0000 N   0  0  0  0  0  0  0  0  0  0  0  0
    2.6976    1.1351    0.0000 N   0  0  0  0  0  0  0  0  0  0  0  0
    4.5494   -0.0205    0.0000 C   0  0  1  0  0  0  0  0  0  0  0  0
    5.0638    0.6245    0.0000 C   0  0  0  0  0  0  0  0  0  0  0  0
    5.8888    0.6245    0.0000 C   0  0  0  0  0  0  0  0  0  0  0  0
    4.7329   -0.8249    0.0000 C   0  0  0  0  0  0  0  0  0  0  0  0
    6.4032   -0.0205    0.0000 C   0  0  0  0  0  0  0  0  0  0  0  0
    3.7451    0.1631    0.0000 C   0  0  0  0  0  0  0  0  0  0  0  0
    5.4763   -1.1827    0.0000 C   0  0  0  0  0  0  0  0  0  0  0  0
   10.6318   -0.5777    0.0000 C   0  0  0  0  0  0  0  0  0  0  0  0
   10.1441    0.6650    0.0000 C   0  0  0  0  0  0  0  0  0  0  0  0
   11.2690   -0.0537    0.0000 C   0  0  0  0  0  0  0  0  0  0  0  0
   10.9677    0.7143    0.0000 C   0  0  0  0  0  0  0  0  0  0  0  0
    4.0155   -1.2979    0.0000 C   0  0  0  0  0  0  0  0  0  0  0  0
    9.1686   -0.4349    0.0000 C   0  0  0  0  0  0  0  0  0  0  0  0
    6.8646   -1.3392    0.0000 C   0  0  0  0  0  0  0  0  0  0  0  0
    5.5537   -2.0386    0.0000 C   0  0  0  0  0  0  0  0  0  0  0  0
    3.5019    0.9515    0.0000 C   0  0  0  0  0  0  0  0  0  0  0  0
    7.6326   -1.0378    0.0000 C   0  0  0  0  0  0  0  0  0  0  0  0
    4.0732   -2.1554    0.0000 C   0  0  0  0  0  0  0  0  0  0  0  0
    4.8474   -2.5282    0.0000 C   0  0  0  0  0  0  0  0  0  0  0  0
    9.0456   -1.2507    0.0000 C   0  0  0  0  0  0  0  0  0  0  0  0
    8.5236    0.0794    0.0000 C   0  0  0  0  0  0  0  0  0  0  0  0
    8.2776   -1.5522    0.0000 C   0  0  0  0  0  0  0  0  0  0  0  0
    7.7556   -0.2220    0.0000 C   0  0  0  0  0  0  0  0  0  0  0  0
    2.4543    1.9234    0.0000 C   0  0  0  0  0  0  0  0  0  0  0  0
    3.0155    2.5282    0.0000 C   0  0  0  0  0  0  0  0  0  0  0  0
    1.6500    2.1070    0.0000 C   0  0  0  0  0  0  0  0  0  0  0  0
    2.0280    0.4134    0.0000 H   0  0  0  0  0  0  0  0  0  0  0  0
    4.1960    0.9895    0.0000 H   0  0  0  0  0  0  0  0  0  0  0  0
    4.5996    1.5885    0.0000 H   0  0  0  0  0  0  0  0  0  0  0  0
    5.6331    1.5305    0.0000 H   0  0  0  0  0  0  0  0  0  0  0  0
    6.3530    1.5885    0.0000 H   0  0  0  0  0  0  0  0  0  0  0  0
    6.9521    0.7443    0.0000 H   0  0  0  0  0  0  0  0  0  0  0  0
    7.4464    0.2176    0.0000 H   0  0  0  0  0  0  0  0  0  0  0  0
    6.7566    0.9895    0.0000 H   0  0  0  0  0  0  0  0  0  0  0  0
    3.0173   -0.6213    0.0000 H   0  0  0  0  0  0  0  0  0  0  0  0
    2.7019    0.4012    0.0000 H   0  0  0  0  0  0  0  0  0  0  0  0
   10.6958   -1.6458    0.0000 H   0  0  0  0  0  0  0  0  0  0  0  0
   11.6125   -1.0055    0.0000 H   0  0  0  0  0  0  0  0  0  0  0  0
    9.4645    1.4915    0.0000 H   0  0  0  0  0  0  0  0  0  0  0  0
   10.5720    1.6457    0.0000 H   0  0  0  0  0  0  0  0  0  0  0  0
   12.3046   -0.3229    0.0000 H   0  0  0  0  0  0  0  0  0  0  0  0
   11.9791    0.7467    0.0000 H   0  0  0  0  0  0  0  0  0  0  0  0
   11.5438    1.6160    0.0000 H   0  0  0  0  0  0  0  0  0  0  0  0
   12.0326    0.6103    0.0000 H   0  0  0  0  0  0  0  0  0  0  0  0
    3.0909   -0.8394    0.0000 H   0  0  0  0  0  0  0  0  0  0  0  0
    6.4886   -2.4756    0.0000 H   0  0  0  0  0  0  0  0  0  0  0  0
    3.2183   -2.7335    0.0000 H   0  0  0  0  0  0  0  0  0  0  0  0
    4.9285   -3.5570    0.0000 H   0  0  0  0  0  0  0  0  0  0  0  0
    9.8525   -1.8941    0.0000 H   0  0  0  0  0  0  0  0  0  0  0  0
    8.6774    1.0999    0.0000 H   0  0  0  0  0  0  0  0  0  0  0  0
    6.9488    0.4215    0.0000 H   0  0  0  0  0  0  0  0  0  0  0  0
    2.1389    2.9459    0.0000 H   0  0  0  0  0  0  0  0  0  0  0  0
    4.0587    2.2901    0.0000 H   0  0  0  0  0  0  0  0  0  0  0  0
    2.7001    3.5507    0.0000 H   0  0  0  0  0  0  0  0  0  0  0  0
    3.7433    3.3125    0.0000 H   0  0  0  0  0  0  0  0  0  0  0  0
    1.3346    3.1295    0.0000 H   0  0  0  0  0  0  0  0  0  0  0  0
    0.9222    1.3227    0.0000 H   0  0  0  0  0  0  0  0  0  0  0  0
    0.6068    2.3451    0.0000 H   0  0  0  0  0  0  0  0  0  0  0  0
  1 28  1  0  0  0  0
  2 20  2  0  0  0  0
  3 22  2  0  0  0  0
  4 11  1  0  0  0  0
  4 13  1  0  0  0  0
  4 20  1  0  0  0  0
  5 14  1  0  0  0  0
  5 15  1  0  0  0  0
  5 19  1  0  0  0  0
  6 22  1  0  0  0  0
  6 30  1  0  0  0  0
  6 33  1  0  0  0  0
  7  8  1  0  0  0  0
  7 10  1  0  0  0  0
  7 12  1  0  0  0  0
  7 34  1  6  0  0  0
  8  9  1  0  0  0  0
  8 35  1  0  0  0  0
  8 36  1  0  0  0  0
  9 11  1  0  0  0  0
  9 37  1  0  0  0  0
  9 38  1  0  0  0  0
 10 13  1  0  0  0  0
 10 18  2  0  0  0  0
 11 39  1  0  0  0  0
 11 40  1  0  0  0  0
 12 22  1  0  0  0  0
 12 41  1  0  0  0  0
 12 42  1  0  0  0  0
 13 21  2  0  0  0  0
 14 16  1  0  0  0  0
 14 43  1  0  0  0  0
 14 44  1  0  0  0  0
 15 17  1  0  0  0  0
 15 45  1  0  0  0  0
 15 46  1  0  0  0  0
 16 17  1  0  0  0  0
 16 47  1  0  0  0  0
 16 48  1  0  0  0  0
 17 49  1  0  0  0  0
 17 50  1  0  0  0  0
 18 24  1  0  0  0  0
 18 51  1  0  0  0  0
 19 26  2  0  0  0  0
 19 27  1  0  0  0  0
 20 23  1  0  0  0  0
 21 25  1  0  0  0  0
 21 52  1  0  0  0  0
 23 28  2  0  0  0  0
 23 29  1  0  0  0  0
 24 25  2  0  0  0  0
 24 53  1  0  0  0  0
 25 54  1  0  0  0  0
 26 28  1  0  0  0  0
 26 55  1  0  0  0  0
 27 29  2  0  0  0  0
 27 56  1  0  0  0  0
 29 57  1  0  0  0  0
 30 31  1  0  0  0  0
 30 32  1  0  0  0  0
 30 58  1  0  0  0  0
 31 59  1  0  0  0  0
 31 60  1  0  0  0  0
 31 61  1  0  0  0  0
 32 62  1  0  0  0  0
 32 63  1  0  0  0  0
 32 64  1  0  0  0  0
M  END
>  <DRUGBANK_ID>
DB05838

>  <COMMON_NAME>
OPC-51803

>  <UNII>
1IGV6WTK9I

$$$$
