
 OpenBabel10282417072D

 54 57  0  0  1  0  0  0  0  0999 V2000
    2.1434    8.4161    0.0000 C   0  0  0  0  0  0  0  0  0  0  0  0
    1.4289    8.0036    0.0000 C   0  0  1  0  0  0  0  0  0  0  0  0
    1.4289    7.1786    0.0000 C   0  0  0  0  0  0  0  0  0  0  0  0
    0.7145    6.7661    0.0000 N   0  0  3  0  0  0  0  0  0  0  0  0
   -0.0000    7.1786    0.0000 C   0  0  1  0  0  0  0  0  0  0  0  0
   -0.7145    6.7661    0.0000 C   0  0  0  0  0  0  0  0  0  0  0  0
   -1.4289    7.1786    0.0000 C   0  0  0  0  0  0  0  0  0  0  0  0
   -2.1434    6.7661    0.0000 C   0  0  0  0  0  0  0  0  0  0  0  0
   -2.8579    7.1786    0.0000 C   0  0  0  0  0  0  0  0  0  0  0  0
   -2.8579    8.0036    0.0000 C   0  0  0  0  0  0  0  0  0  0  0  0
   -3.5724    8.4161    0.0000 Cl  0  0  0  0  0  0  0  0  0  0  0  0
   -2.1434    8.4161    0.0000 C   0  0  0  0  0  0  0  0  0  0  0  0
   -1.4289    8.0036    0.0000 C   0  0  0  0  0  0  0  0  0  0  0  0
   -0.0000    8.0036    0.0000 C   0  0  0  0  0  0  0  0  0  0  0  0
    0.7145    8.4161    0.0000 O   0  0  0  0  0  0  0  0  0  0  0  0
    0.7145    5.9411    0.0000 C   0  0  0  0  0  0  0  0  0  0  0  0
    1.4289    5.5286    0.0000 C   0  0  0  0  0  0  0  0  0  0  0  0
    1.4289    4.7036    0.0000 C   0  0  0  0  0  0  0  0  0  0  0  0
    0.7145    4.2911    0.0000 N   0  0  0  0  0  0  0  0  0  0  0  0
    0.0000    4.7036    0.0000 C   0  0  0  0  0  0  0  0  0  0  0  0
    0.0000    5.5286    0.0000 C   0  0  0  0  0  0  0  0  0  0  0  0
    0.7145    3.4661    0.0000 C   0  0  0  0  0  0  0  0  0  0  0  0
    1.3819    2.9812    0.0000 N   0  0  0  0  0  0  0  0  0  0  0  0
    1.1270    2.1965    0.0000 C   0  0  0  0  0  0  0  0  0  0  0  0
    1.6119    1.5291    0.0000 N   0  0  0  0  0  0  0  0  0  0  0  0
    0.3020    2.1965    0.0000 N   0  0  0  0  0  0  0  0  0  0  0  0
    0.0470    2.9812    0.0000 N   0  0  0  0  0  0  0  0  0  0  0  0
    3.0700    7.8811    0.0000 H   0  0  0  0  0  0  0  0  0  0  0  0
    2.1434    9.4861    0.0000 H   0  0  0  0  0  0  0  0  0  0  0  0
    3.0701    8.9511    0.0000 H   0  0  0  0  0  0  0  0  0  0  0  0
    2.3555    7.4686    0.0000 H   0  0  0  0  0  0  0  0  0  0  0  0
    2.3556    6.6436    0.0000 H   0  0  0  0  0  0  0  0  0  0  0  0
    1.4289    6.1086    0.0000 H   0  0  0  0  0  0  0  0  0  0  0  0
   -0.0000    6.1086    0.0000 H   0  0  0  0  0  0  0  0  0  0  0  0
   -0.7145    5.6961    0.0000 H   0  0  0  0  0  0  0  0  0  0  0  0
   -1.6412    6.2311    0.0000 H   0  0  0  0  0  0  0  0  0  0  0  0
   -2.1434    5.7341    0.0000 H   0  0  0  0  0  0  0  0  0  0  0  0
   -3.7516    6.6626    0.0000 H   0  0  0  0  0  0  0  0  0  0  0  0
   -2.1434    9.4481    0.0000 H   0  0  0  0  0  0  0  0  0  0  0  0
   -0.5352    8.5196    0.0000 H   0  0  0  0  0  0  0  0  0  0  0  0
   -0.9266    8.5386    0.0000 H   0  0  0  0  0  0  0  0  0  0  0  0
    0.0000    9.0736    0.0000 H   0  0  0  0  0  0  0  0  0  0  0  0
    0.7145    4.8711    0.0000 H   0  0  0  0  0  0  0  0  0  0  0  0
    2.3556    6.0636    0.0000 H   0  0  0  0  0  0  0  0  0  0  0  0
    2.3555    4.9936    0.0000 H   0  0  0  0  0  0  0  0  0  0  0  0
    2.3556    4.1686    0.0000 H   0  0  0  0  0  0  0  0  0  0  0  0
    1.4289    3.6336    0.0000 H   0  0  0  0  0  0  0  0  0  0  0  0
   -0.9266    4.1686    0.0000 H   0  0  0  0  0  0  0  0  0  0  0  0
   -0.9266    5.2386    0.0000 H   0  0  0  0  0  0  0  0  0  0  0  0
   -0.9266    6.0636    0.0000 H   0  0  0  0  0  0  0  0  0  0  0  0
    0.0000    6.5986    0.0000 H   0  0  0  0  0  0  0  0  0  0  0  0
    1.2115    0.6297    0.0000 H   0  0  0  0  0  0  0  0  0  0  0  0
    2.5910    1.6320    0.0000 H   0  0  0  0  0  0  0  0  0  0  0  0
   -0.8893    3.2854    0.0000 H   0  0  0  0  0  0  0  0  0  0  0  0
  1 28  1  0  0  0  0
  1 29  1  0  0  0  0
  1 30  1  0  0  0  0
  2  1  1  0  0  0  0
  2  3  1  0  0  0  0
  2 15  1  0  0  0  0
  2 31  1  6  0  0  0
  3  4  1  0  0  0  0
  3 32  1  0  0  0  0
  3 33  1  0  0  0  0
  4 16  1  0  0  0  0
  5  4  1  0  0  0  0
  5  6  1  0  0  0  0
  5 14  1  0  0  0  0
  5 34  1  6  0  0  0
  6  7  1  0  0  0  0
  6 35  1  0  0  0  0
  6 36  1  0  0  0  0
  7  8  2  0  0  0  0
  7 13  1  0  0  0  0
  8  9  1  0  0  0  0
  8 37  1  0  0  0  0
  9 10  2  0  0  0  0
  9 38  1  0  0  0  0
 10 11  1  0  0  0  0
 10 12  1  0  0  0  0
 12 13  2  0  0  0  0
 12 39  1  0  0  0  0
 13 40  1  0  0  0  0
 14 15  1  0  0  0  0
 14 41  1  0  0  0  0
 14 42  1  0  0  0  0
 16 17  1  0  0  0  0
 16 21  1  0  0  0  0
 16 43  1  0  0  0  0
 17 18  1  0  0  0  0
 17 44  1  0  0  0  0
 17 45  1  0  0  0  0
 18 19  1  0  0  0  0
 18 46  1  0  0  0  0
 18 47  1  0  0  0  0
 19 20  1  0  0  0  0
 19 22  1  0  0  0  0
 20 21  1  0  0  0  0
 20 48  1  0  0  0  0
 20 49  1  0  0  0  0
 21 50  1  0  0  0  0
 21 51  1  0  0  0  0
 22 23  2  0  0  0  0
 22 27  1  0  0  0  0
 23 24  1  0  0  0  0
 24 25  1  0  0  0  0
 24 26  2  0  0  0  0
 25 52  1  0  0  0  0
 25 53  1  0  0  0  0
 26 27  1  0  0  0  0
 27 54  1  0  0  0  0
M  END
>  <DRUGBANK_ID>
DB18065

>  <COMMON_NAME>
5-(4-((2S,5S)-5-(4-chlorobenzyl)-2-methylmorpholino)piperidin-1-yl)-1H-1,2,4-triazol-3-amine

>  <CAS_NUMBER>
2088453-21-6

>  <UNII>
X4D0G881CN

>  <SYNONYMS>
1H-1,2,4-Triazol-3-amine, 5-[4-[(2S,5S)-5-[(4-chlorophenyl)methyl]-2-methyl-4-morpholinyl]-1-piperidinyl]-; 5-[4-[(2S,5S)-5-[(4-Chlorophenyl)methyl]-2-methyl-4-morpholinyl]-1-piperidinyl]-1H-1,2,4-triazol-3-amine

$$$$
