
 OpenBabel10282417072D

 70 71  0  0  0  0  0  0  0  0999 V2000
   -0.8502    1.4438    0.0000 O   0  0  0  0  0  0  0  0  0  0  0  0
   -0.1357   -1.4438    0.0000 O   0  0  0  0  0  0  0  0  0  0  0  0
    2.0077    3.9189    0.0000 O   0  0  0  0  0  0  0  0  0  0  0  0
    0.5788    3.9189    0.0000 O   0  0  0  0  0  0  0  0  0  0  0  0
    0.5788    2.2689    0.0000 N   0  0  0  0  0  0  0  0  0  0  0  0
   -0.1357    0.2062    0.0000 N   0  0  0  0  0  0  0  0  0  0  0  0
   -1.5647   -1.4438    0.0000 N   0  0  0  0  0  0  0  0  0  0  0  0
   -2.2792    2.2689    0.0000 N   0  3  0  0  0  0  0  0  0  0  0  0
   -2.9938    3.5064    0.0000 N   0  0  0  0  0  0  0  0  0  0  0  0
   -3.7082    2.2689    0.0000 N   0  0  0  0  0  0  0  0  0  0  0  0
    0.5788    1.4438    0.0000 C   0  0  1  0  0  0  0  0  0  0  0  0
    1.2933    1.0312    0.0000 C   0  0  0  0  0  0  0  0  0  0  0  0
   -0.8502   -0.2062    0.0000 C   0  0  1  0  0  0  0  0  0  0  0  0
   -1.5647    0.2062    0.0000 C   0  0  0  0  0  0  0  0  0  0  0  0
   -0.1357    1.0312    0.0000 C   0  0  0  0  0  0  0  0  0  0  0  0
    2.0077    1.4438    0.0000 C   0  0  0  0  0  0  0  0  0  0  0  0
   -1.5647    1.0312    0.0000 C   0  0  0  0  0  0  0  0  0  0  0  0
    1.2933    2.6813    0.0000 C   0  0  2  0  0  0  0  0  0  0  0  0
   -0.8502   -1.0312    0.0000 C   0  0  0  0  0  0  0  0  0  0  0  0
   -2.2792    1.4438    0.0000 C   0  0  0  0  0  0  0  0  0  0  0  0
    2.7222    1.0312    0.0000 C   0  0  0  0  0  0  0  0  0  0  0  0
    2.0077    2.2689    0.0000 C   0  0  0  0  0  0  0  0  0  0  0  0
    1.2933    3.5064    0.0000 C   0  0  0  0  0  0  0  0  0  0  0  0
    3.4367    1.4438    0.0000 C   0  0  0  0  0  0  0  0  0  0  0  0
    2.7222    0.2062    0.0000 C   0  0  0  0  0  0  0  0  0  0  0  0
   -1.5647   -2.2689    0.0000 C   0  0  0  0  0  0  0  0  0  0  0  0
    4.1513    1.0312    0.0000 C   0  0  0  0  0  0  0  0  0  0  0  0
    3.4367   -0.2062    0.0000 C   0  0  0  0  0  0  0  0  0  0  0  0
   -2.9938    2.6813    0.0000 C   0  0  0  0  0  0  0  0  0  0  0  0
    4.1513    0.2062    0.0000 C   0  0  0  0  0  0  0  0  0  0  0  0
   -0.8502   -2.6813    0.0000 C   0  0  0  0  0  0  0  0  0  0  0  0
   -2.2792   -2.6813    0.0000 C   0  0  0  0  0  0  0  0  0  0  0  0
   -0.8502   -3.5064    0.0000 C   0  0  0  0  0  0  0  0  0  0  0  0
   -2.2792   -3.5064    0.0000 C   0  0  0  0  0  0  0  0  0  0  0  0
   -1.5647   -3.9189    0.0000 C   0  0  0  0  0  0  0  0  0  0  0  0
    0.1357    2.5246    0.0000 H   0  0  0  0  0  0  0  0  0  0  0  0
    0.3072   -0.0494    0.0000 H   0  0  0  0  0  0  0  0  0  0  0  0
   -2.0077   -1.1880    0.0000 H   0  0  0  0  0  0  0  0  0  0  0  0
   -1.8362    2.5246    0.0000 H   0  0  0  0  0  0  0  0  0  0  0  0
   -2.5507    3.7622    0.0000 H   0  0  0  0  0  0  0  0  0  0  0  0
   -3.4367    3.7622    0.0000 H   0  0  0  0  0  0  0  0  0  0  0  0
   -3.7082    1.7573    0.0000 H   0  0  0  0  0  0  0  0  0  0  0  0
   -4.1513    2.5246    0.0000 H   0  0  0  0  0  0  0  0  0  0  0  0
    2.8192    3.4504    0.0000 H   0  0  0  0  0  0  0  0  0  0  0  0
    1.5055    1.9788    0.0000 H   0  0  0  0  0  0  0  0  0  0  0  0
    1.2933   -0.0388    0.0000 H   0  0  0  0  0  0  0  0  0  0  0  0
    2.2200    0.4963    0.0000 H   0  0  0  0  0  0  0  0  0  0  0  0
   -0.8502    0.8638    0.0000 H   0  0  0  0  0  0  0  0  0  0  0  0
   -2.4913   -0.3289    0.0000 H   0  0  0  0  0  0  0  0  0  0  0  0
   -2.4914    0.7412    0.0000 H   0  0  0  0  0  0  0  0  0  0  0  0
    2.0077    2.5138    0.0000 H   0  0  0  0  0  0  0  0  0  0  0  0
    2.9344    1.9788    0.0000 H   0  0  0  0  0  0  0  0  0  0  0  0
   -0.6380    1.5662    0.0000 H   0  0  0  0  0  0  0  0  0  0  0  0
   -1.5646    2.1012    0.0000 H   0  0  0  0  0  0  0  0  0  0  0  0
    1.2933    1.6113    0.0000 H   0  0  0  0  0  0  0  0  0  0  0  0
   -3.2059    0.9088    0.0000 H   0  0  0  0  0  0  0  0  0  0  0  0
   -2.2793    0.3738    0.0000 H   0  0  0  0  0  0  0  0  0  0  0  0
    2.0078    1.1989    0.0000 H   0  0  0  0  0  0  0  0  0  0  0  0
    2.9343    2.8040    0.0000 H   0  0  0  0  0  0  0  0  0  0  0  0
    2.9344    1.7340    0.0000 H   0  0  0  0  0  0  0  0  0  0  0  0
    3.4367    2.4758    0.0000 H   0  0  0  0  0  0  0  0  0  0  0  0
    1.8285   -0.3099    0.0000 H   0  0  0  0  0  0  0  0  0  0  0  0
    5.0450    1.5472    0.0000 H   0  0  0  0  0  0  0  0  0  0  0  0
    3.4367   -1.2382    0.0000 H   0  0  0  0  0  0  0  0  0  0  0  0
    5.0450   -0.3099    0.0000 H   0  0  0  0  0  0  0  0  0  0  0  0
    0.0435   -2.1652    0.0000 H   0  0  0  0  0  0  0  0  0  0  0  0
   -3.1729   -2.1652    0.0000 H   0  0  0  0  0  0  0  0  0  0  0  0
    0.0435   -4.0224    0.0000 H   0  0  0  0  0  0  0  0  0  0  0  0
   -3.1729   -4.0224    0.0000 H   0  0  0  0  0  0  0  0  0  0  0  0
   -1.5647   -4.9509    0.0000 H   0  0  0  0  0  0  0  0  0  0  0  0
  1 15  2  0  0  0  0
  2 19  2  0  0  0  0
  3 23  1  0  0  0  0
  3 44  1  0  0  0  0
  4 23  2  0  0  0  0
  5 36  1  0  0  0  0
  6 15  1  0  0  0  0
  6 37  1  0  0  0  0
  7 19  1  0  0  0  0
  7 26  1  0  0  0  0
  7 38  1  0  0  0  0
  8 20  1  0  0  0  0
  8 29  2  0  0  0  0
  8 39  1  0  0  0  0
  9 29  1  0  0  0  0
  9 40  1  0  0  0  0
  9 41  1  0  0  0  0
 10 29  1  0  0  0  0
 10 42  1  0  0  0  0
 10 43  1  0  0  0  0
 11  5  1  0  0  0  0
 11 12  1  0  0  0  0
 11 15  1  0  0  0  0
 11 45  1  6  0  0  0
 12 16  1  0  0  0  0
 12 46  1  0  0  0  0
 12 47  1  0  0  0  0
 13  6  1  0  0  0  0
 13 14  1  0  0  0  0
 13 19  1  0  0  0  0
 13 48  1  1  0  0  0
 14 17  1  0  0  0  0
 14 49  1  0  0  0  0
 14 50  1  0  0  0  0
 16 21  1  0  0  0  0
 16 51  1  0  0  0  0
 16 52  1  0  0  0  0
 17 20  1  0  0  0  0
 17 53  1  0  0  0  0
 17 54  1  0  0  0  0
 18  5  1  0  0  0  0
 18 22  1  0  0  0  0
 18 23  1  0  0  0  0
 18 55  1  6  0  0  0
 20 56  1  0  0  0  0
 20 57  1  0  0  0  0
 21 24  2  0  0  0  0
 21 25  1  0  0  0  0
 22 58  1  0  0  0  0
 22 59  1  0  0  0  0
 22 60  1  0  0  0  0
 24 27  1  0  0  0  0
 24 61  1  0  0  0  0
 25 28  2  0  0  0  0
 25 62  1  0  0  0  0
 26 31  2  0  0  0  0
 26 32  1  0  0  0  0
 27 30  2  0  0  0  0
 27 63  1  0  0  0  0
 28 30  1  0  0  0  0
 28 64  1  0  0  0  0
 30 65  1  0  0  0  0
 31 33  1  0  0  0  0
 31 66  1  0  0  0  0
 32 34  2  0  0  0  0
 32 67  1  0  0  0  0
 33 35  2  0  0  0  0
 33 68  1  0  0  0  0
 34 35  1  0  0  0  0
 34 69  1  0  0  0  0
 35 70  1  0  0  0  0
M  CHG  1   8   1
M  END
>  <DRUGBANK_ID>
DB02747

>  <SECONDARY_ACCESSION_NUMBERS>
EXPT01886

>  <COMMON_NAME>
Diamino-N-[(4S)-5-anilino-4-{[(2S)-2-{[(1R)-1-carboxyethyl]amino}-4-phenylbutanoyl]amino}-5-oxopentyl]methaniminium

$$$$
