1324
 OpenBabel10282417072D

 38 39  0  0  1  0  0  0  0  0999 V2000
    7.5301   -0.1255    0.0000 Cl  0  0  0  0  0  0  0  0  0  0  0  0
    4.6180   -1.7952    0.0000 S   0  0  0  0  0  0  0  0  0  0  0  0
    3.1891    0.6795    0.0000 S   0  0  0  0  0  0  0  0  0  0  0  0
    7.5301   -1.8151    0.0000 S   0  0  0  0  0  0  0  0  0  0  0  0
    2.4748    2.7418    0.0000 F   0  0  0  0  0  0  0  0  0  0  0  0
    1.6498    1.9169    0.0000 F   0  0  0  0  0  0  0  0  0  0  0  0
    3.2997    1.9169    0.0000 F   0  0  0  0  0  0  0  0  0  0  0  0
    4.2055   -2.5097    0.0000 O   0  0  0  0  0  0  0  0  0  0  0  0
    5.0304   -2.5097    0.0000 O   0  0  0  0  0  0  0  0  0  0  0  0
    7.9452   -1.1023    0.0000 O   0  0  0  0  0  0  0  0  0  0  0  0
    7.1148   -2.5280    0.0000 O   0  0  0  0  0  0  0  0  0  0  0  0
    3.9036   -1.3828    0.0000 N   0  0  0  0  0  0  0  0  0  0  0  0
    4.6180   -0.1454    0.0000 N   0  0  0  0  0  0  0  0  0  0  0  0
    8.2428   -2.2304    0.0000 N   0  0  0  0  0  0  0  0  0  0  0  0
    3.9036   -0.5578    0.0000 C   0  0  3  0  0  0  0  0  0  0  0  0
    5.3324   -1.3828    0.0000 C   0  0  0  0  0  0  0  0  0  0  0  0
    5.3324   -0.5578    0.0000 C   0  0  0  0  0  0  0  0  0  0  0  0
    3.1891   -0.1454    0.0000 C   0  0  0  0  0  0  0  0  0  0  0  0
    3.1891   -1.7952    0.0000 C   0  0  0  0  0  0  0  0  0  0  0  0
    6.0697   -1.8238    0.0000 C   0  0  0  0  0  0  0  0  0  0  0  0
    6.0697   -0.1168    0.0000 C   0  0  0  0  0  0  0  0  0  0  0  0
    6.8172   -1.4000    0.0000 C   0  0  0  0  0  0  0  0  0  0  0  0
    6.8172   -0.5406    0.0000 C   0  0  0  0  0  0  0  0  0  0  0  0
    2.4748    1.0920    0.0000 C   0  0  0  0  0  0  0  0  0  0  0  0
    2.4748    1.9169    0.0000 C   0  0  0  0  0  0  0  0  0  0  0  0
    4.6180    0.8391    0.0000 H   0  0  0  0  0  0  0  0  0  0  0  0
    8.2387   -3.2504    0.0000 H   0  0  0  0  0  0  0  0  0  0  0  0
    9.1282   -1.7239    0.0000 H   0  0  0  0  0  0  0  0  0  0  0  0
    4.8302   -1.0928    0.0000 H   0  0  0  0  0  0  0  0  0  0  0  0
    2.2625   -0.6805    0.0000 H   0  0  0  0  0  0  0  0  0  0  0  0
    3.1892   -1.2154    0.0000 H   0  0  0  0  0  0  0  0  0  0  0  0
    2.2625   -1.2601    0.0000 H   0  0  0  0  0  0  0  0  0  0  0  0
    3.1890   -2.8652    0.0000 H   0  0  0  0  0  0  0  0  0  0  0  0
    2.2624   -2.3301    0.0000 H   0  0  0  0  0  0  0  0  0  0  0  0
    6.0577   -2.8557    0.0000 H   0  0  0  0  0  0  0  0  0  0  0  0
    6.0577    0.9151    0.0000 H   0  0  0  0  0  0  0  0  0  0  0  0
    1.5481    0.5570    0.0000 H   0  0  0  0  0  0  0  0  0  0  0  0
    1.5482    1.6270    0.0000 H   0  0  0  0  0  0  0  0  0  0  0  0
  1 23  1  0  0  0  0
  2  8  2  0  0  0  0
  2  9  2  0  0  0  0
  2 12  1  0  0  0  0
  2 16  1  0  0  0  0
  3 18  1  0  0  0  0
  3 24  1  0  0  0  0
  4 10  2  0  0  0  0
  4 11  2  0  0  0  0
  4 14  1  0  0  0  0
  4 22  1  0  0  0  0
  5 25  1  0  0  0  0
  6 25  1  0  0  0  0
  7 25  1  0  0  0  0
 12 15  1  0  0  0  0
 12 19  1  0  0  0  0
 13 15  1  0  0  0  0
 13 17  1  0  0  0  0
 13 26  1  0  0  0  0
 14 27  1  0  0  0  0
 14 28  1  0  0  0  0
 15 18  1  0  0  0  0
 15 29  1  0  0  0  0
 16 17  1  0  0  0  0
 16 20  2  0  0  0  0
 17 21  2  0  0  0  0
 18 30  1  0  0  0  0
 18 31  1  0  0  0  0
 19 32  1  0  0  0  0
 19 33  1  0  0  0  0
 19 34  1  0  0  0  0
 20 22  1  0  0  0  0
 20 35  1  0  0  0  0
 21 23  1  0  0  0  0
 21 36  1  0  0  0  0
 22 23  2  0  0  0  0
 24 25  1  0  0  0  0
 24 37  1  0  0  0  0
 24 38  1  0  0  0  0
M  END
>  <DRUGBANK_ID>
DB01324

>  <COMMON_NAME>
Polythiazide

>  <CAS_NUMBER>
346-18-9

>  <UNII>
36780APV5N

>  <SYNONYMS>
Polythiazide

$$$$
