MOB
 OpenBabel10282417072D

 36 37  0  0  0  0  0  0  0  0999 V2000
    0.3451   -1.6081    0.0000 C   0  0  0  0  0  0  0  0  0  0  0  0
    1.0596   -2.0206    0.0000 C   0  0  0  0  0  0  0  0  0  0  0  0
    1.0596   -2.8456    0.0000 C   0  0  0  0  0  0  0  0  0  0  0  0
    0.3451   -3.2581    0.0000 C   0  0  0  0  0  0  0  0  0  0  0  0
   -0.3693   -2.8456    0.0000 C   0  0  0  0  0  0  0  0  0  0  0  0
   -0.3693   -2.0206    0.0000 C   0  0  0  0  0  0  0  0  0  0  0  0
   -0.3693    0.4544    0.0000 C   0  0  0  0  0  0  0  0  0  0  0  0
   -1.0838    0.8669    0.0000 C   0  0  0  0  0  0  0  0  0  0  0  0
   -1.0838    1.6919    0.0000 C   0  0  0  0  0  0  0  0  0  0  0  0
   -0.3693    2.1044    0.0000 C   0  0  0  0  0  0  0  0  0  0  0  0
    0.3451    1.6919    0.0000 C   0  0  0  0  0  0  0  0  0  0  0  0
    0.3451    0.8669    0.0000 C   0  0  0  0  0  0  0  0  0  0  0  0
    1.7741   -1.6081    0.0000 C   0  0  0  0  0  0  0  0  0  0  0  0
   -2.5127    1.6919    0.0000 C   0  0  0  0  0  0  0  0  0  0  0  0
    1.7741    1.6919    0.0000 C   0  0  0  0  0  0  0  0  0  0  0  0
    0.3451   -0.7831    0.0000 N   0  0  0  0  0  0  0  0  0  0  0  0
   -0.3693   -0.3706    0.0000 N   0  0  0  0  0  0  0  0  0  0  0  0
    2.4886   -2.0206    0.0000 O   0  0  0  0  0  0  0  0  0  0  0  0
    1.7741   -0.7831    0.0000 O   0  0  0  0  0  0  0  0  0  0  0  0
   -1.7983    2.1044    0.0000 O   0  0  0  0  0  0  0  0  0  0  0  0
   -0.3693    2.9294    0.0000 O   0  0  0  0  0  0  0  0  0  0  0  0
    1.0596    2.1044    0.0000 O   0  0  0  0  0  0  0  0  0  0  0  0
    1.9533   -3.3616    0.0000 H   0  0  0  0  0  0  0  0  0  0  0  0
    0.3451   -4.2901    0.0000 H   0  0  0  0  0  0  0  0  0  0  0  0
   -1.2630   -3.3616    0.0000 H   0  0  0  0  0  0  0  0  0  0  0  0
   -1.2630   -1.5046    0.0000 H   0  0  0  0  0  0  0  0  0  0  0  0
   -1.9775    0.3509    0.0000 H   0  0  0  0  0  0  0  0  0  0  0  0
    1.2388    0.3509    0.0000 H   0  0  0  0  0  0  0  0  0  0  0  0
   -3.4394    2.2269    0.0000 H   0  0  0  0  0  0  0  0  0  0  0  0
   -2.5127    0.6219    0.0000 H   0  0  0  0  0  0  0  0  0  0  0  0
   -3.4393    1.1569    0.0000 H   0  0  0  0  0  0  0  0  0  0  0  0
    1.7741    0.6219    0.0000 H   0  0  0  0  0  0  0  0  0  0  0  0
    2.7007    2.2269    0.0000 H   0  0  0  0  0  0  0  0  0  0  0  0
    2.7008    1.1569    0.0000 H   0  0  0  0  0  0  0  0  0  0  0  0
    2.5856   -0.3146    0.0000 H   0  0  0  0  0  0  0  0  0  0  0  0
    0.4422    3.3979    0.0000 H   0  0  0  0  0  0  0  0  0  0  0  0
  1  2  1  0  0  0  0
  1  6  2  0  0  0  0
  1 16  1  0  0  0  0
  2  3  2  0  0  0  0
  2 13  1  0  0  0  0
  3  4  1  0  0  0  0
  3 23  1  0  0  0  0
  4  5  2  0  0  0  0
  4 24  1  0  0  0  0
  5  6  1  0  0  0  0
  5 25  1  0  0  0  0
  6 26  1  0  0  0  0
  7  8  1  0  0  0  0
  7 12  2  0  0  0  0
  7 17  1  0  0  0  0
  8  9  2  0  0  0  0
  8 27  1  0  0  0  0
  9 10  1  0  0  0  0
  9 20  1  0  0  0  0
 10 11  2  0  0  0  0
 10 21  1  0  0  0  0
 11 12  1  0  0  0  0
 11 22  1  0  0  0  0
 12 28  1  0  0  0  0
 13 18  2  0  0  0  0
 13 19  1  0  0  0  0
 14 20  1  0  0  0  0
 14 29  1  0  0  0  0
 14 30  1  0  0  0  0
 14 31  1  0  0  0  0
 15 22  1  0  0  0  0
 15 32  1  0  0  0  0
 15 33  1  0  0  0  0
 15 34  1  0  0  0  0
 16 17  2  0  0  0  0
 19 35  1  0  0  0  0
 21 36  1  0  0  0  0
M  END
>  <DRUGBANK_ID>
DB08196

>  <COMMON_NAME>
2-((3',5'-DIMETHOXY-4'-HYDROXYPHENYL)AZO)BENZOIC ACID

$$$$
