
 OpenBabel10282417072D

111115  0  0  0  0  0  0  0  0999 V2000
   11.2155    0.4681    0.0000 Br  0  0  0  0  0  0  0  0  0  0  0  0
    4.6802    1.8765    0.0000 S   0  0  0  0  0  0  0  0  0  0  0  0
   -8.5970    2.2078    0.0000 P   0  0  0  0  0  0  0  0  0  0  0  0
   -6.0227    1.1849    0.0000 P   0  0  2  0  0  0  0  0  0  0  0  0
   -4.6013    1.3318    0.0000 P   0  0  2  0  0  0  0  0  0  0  0  0
   -8.1139   -0.2706    0.0000 O   0  0  0  0  0  0  0  0  0  0  0  0
   -9.1502    1.5957    0.0000 O   0  0  0  0  0  0  0  0  0  0  0  0
  -10.2078    0.1454    0.0000 O   0  0  0  0  0  0  0  0  0  0  0  0
   -6.6910    0.7012    0.0000 O   0  0  0  0  0  0  0  0  0  0  0  0
   -8.0440    2.8200    0.0000 O   0  0  0  0  0  0  0  0  0  0  0  0
   -9.2092    2.7609    0.0000 O   0  0  0  0  0  0  0  0  0  0  0  0
   -5.3544    1.6688    0.0000 O   0  0  0  0  0  0  0  0  0  0  0  0
   -7.9849    1.6547    0.0000 O   0  0  0  0  0  0  0  0  0  0  0  0
   -3.8481    0.9950    0.0000 O   0  0  0  0  0  0  0  0  0  0  0  0
   -5.5389    0.5167    0.0000 O   0  0  0  0  0  0  0  0  0  0  0  0
   -6.5064    1.8533    0.0000 O   0  0  0  0  0  0  0  0  0  0  0  0
   -1.5888   -0.0155    0.0000 O   0  0  0  0  0  0  0  0  0  0  0  0
   -4.2645    2.0849    0.0000 O   0  0  0  0  0  0  0  0  0  0  0  0
   -4.9381    0.5788    0.0000 O   0  0  0  0  0  0  0  0  0  0  0  0
   -1.0901    2.1094    0.0000 O   0  0  0  0  0  0  0  0  0  0  0  0
    1.7526    2.4033    0.0000 O   0  0  0  0  0  0  0  0  0  0  0  0
    6.0169    2.8440    0.0000 O   0  0  0  0  0  0  0  0  0  0  0  0
   -9.1552   -1.3084    0.0000 N   0  0  0  0  0  0  0  0  0  0  0  0
   -9.1552   -2.6363    0.0000 N   0  0  0  0  0  0  0  0  0  0  0  0
  -10.6504   -1.1474    0.0000 N   0  0  0  0  0  0  0  0  0  0  0  0
  -11.3648   -2.3850    0.0000 N   0  0  0  0  0  0  0  0  0  0  0  0
  -10.6504   -3.6225    0.0000 N   0  0  0  0  0  0  0  0  0  0  0  0
   -0.2521    0.9519    0.0000 N   0  0  0  0  0  0  0  0  0  0  0  0
    2.5906    1.2457    0.0000 N   0  0  0  0  0  0  0  0  0  0  0  0
    9.7251    3.3915    0.0000 N   0  0  0  0  0  0  0  0  0  0  0  0
    6.8548    1.6865    0.0000 N   0  0  0  0  0  0  0  0  0  0  0  0
   -8.8967    0.8106    0.0000 C   0  0  1  0  0  0  0  0  0  0  0  0
   -9.3827    0.1439    0.0000 C   0  0  2  0  0  0  0  0  0  0  0  0
   -8.1124    0.5543    0.0000 C   0  0  1  0  0  0  0  0  0  0  0  0
   -8.8990   -0.5243    0.0000 C   0  0  1  0  0  0  0  0  0  0  0  0
   -7.4441    1.0381    0.0000 C   0  0  0  0  0  0  0  0  0  0  0  0
   -9.9359   -1.5599    0.0000 C   0  0  0  0  0  0  0  0  0  0  0  0
   -8.6738   -1.9724    0.0000 C   0  0  0  0  0  0  0  0  0  0  0  0
   -9.9359   -2.3850    0.0000 C   0  0  0  0  0  0  0  0  0  0  0  0
   -2.4268    1.1418    0.0000 C   0  0  0  0  0  0  0  0  0  0  0  0
  -10.6504   -2.7974    0.0000 C   0  0  0  0  0  0  0  0  0  0  0  0
   -1.6736    0.8050    0.0000 C   0  0  2  0  0  0  0  0  0  0  0  0
   -3.1798    1.4789    0.0000 C   0  0  0  0  0  0  0  0  0  0  0  0
   -2.0898    1.8950    0.0000 C   0  0  0  0  0  0  0  0  0  0  0  0
   -2.7636    0.3887    0.0000 C   0  0  0  0  0  0  0  0  0  0  0  0
  -11.3648   -1.5599    0.0000 C   0  0  0  0  0  0  0  0  0  0  0  0
   -1.0053    1.2888    0.0000 C   0  0  0  0  0  0  0  0  0  0  0  0
    0.4160    1.4358    0.0000 C   0  0  0  0  0  0  0  0  0  0  0  0
    1.1691    1.0989    0.0000 C   0  0  0  0  0  0  0  0  0  0  0  0
    1.8375    1.5826    0.0000 C   0  0  0  0  0  0  0  0  0  0  0  0
    8.9445    2.3173    0.0000 C   0  0  0  0  0  0  0  0  0  0  0  0
    8.2762    1.8334    0.0000 C   0  0  0  0  0  0  0  0  0  0  0  0
    9.7239    2.0617    0.0000 C   0  0  0  0  0  0  0  0  0  0  0  0
   10.2087    2.7292    0.0000 C   0  0  0  0  0  0  0  0  0  0  0  0
    3.2589    1.7295    0.0000 C   0  0  0  0  0  0  0  0  0  0  0  0
    7.5231    2.1702    0.0000 C   0  0  0  0  0  0  0  0  0  0  0  0
    8.9453    3.1373    0.0000 C   0  0  0  0  0  0  0  0  0  0  0  0
   10.0594    1.3080    0.0000 C   0  0  0  0  0  0  0  0  0  0  0  0
    4.0119    1.3927    0.0000 C   0  0  0  0  0  0  0  0  0  0  0  0
   11.0293    2.6429    0.0000 C   0  0  0  0  0  0  0  0  0  0  0  0
   10.8799    1.2218    0.0000 C   0  0  0  0  0  0  0  0  0  0  0  0
   11.3648    1.8893    0.0000 C   0  0  0  0  0  0  0  0  0  0  0  0
    5.4334    1.5396    0.0000 C   0  0  0  0  0  0  0  0  0  0  0  0
    6.1017    2.0233    0.0000 C   0  0  0  0  0  0  0  0  0  0  0  0
  -11.0933   -3.8782    0.0000 H   0  0  0  0  0  0  0  0  0  0  0  0
  -10.2073   -3.8782    0.0000 H   0  0  0  0  0  0  0  0  0  0  0  0
   -0.1996    0.4431    0.0000 H   0  0  0  0  0  0  0  0  0  0  0  0
    2.6431    0.7370    0.0000 H   0  0  0  0  0  0  0  0  0  0  0  0
    9.8822    3.8782    0.0000 H   0  0  0  0  0  0  0  0  0  0  0  0
    6.9075    1.1776    0.0000 H   0  0  0  0  0  0  0  0  0  0  0  0
  -10.6913    0.9863    0.0000 H   0  0  0  0  0  0  0  0  0  0  0  0
   -7.0955    2.6168    0.0000 H   0  0  0  0  0  0  0  0  0  0  0  0
   -9.0059    3.7094    0.0000 H   0  0  0  0  0  0  0  0  0  0  0  0
   -5.9349   -0.3688    0.0000 H   0  0  0  0  0  0  0  0  0  0  0  0
   -2.3745   -0.5843    0.0000 H   0  0  0  0  0  0  0  0  0  0  0  0
   -3.2996    2.1847    0.0000 H   0  0  0  0  0  0  0  0  0  0  0  0
   -9.9532    0.9798    0.0000 H   0  0  0  0  0  0  0  0  0  0  0  0
   -9.8668    1.0981    0.0000 H   0  0  0  0  0  0  0  0  0  0  0  0
   -7.1599    0.0668    0.0000 H   0  0  0  0  0  0  0  0  0  0  0  0
   -8.1436   -1.2821    0.0000 H   0  0  0  0  0  0  0  0  0  0  0  0
   -7.5541    2.1024    0.0000 H   0  0  0  0  0  0  0  0  0  0  0  0
   -8.4208    1.4750    0.0000 H   0  0  0  0  0  0  0  0  0  0  0  0
   -7.6418   -1.9724    0.0000 H   0  0  0  0  0  0  0  0  0  0  0  0
   -2.5403    0.1775    0.0000 H   0  0  0  0  0  0  0  0  0  0  0  0
   -3.2897    2.5432    0.0000 H   0  0  0  0  0  0  0  0  0  0  0  0
   -2.3129    2.1062    0.0000 H   0  0  0  0  0  0  0  0  0  0  0  0
   -1.0255    2.0049    0.0000 H   0  0  0  0  0  0  0  0  0  0  0  0
   -2.7171    2.7618    0.0000 H   0  0  0  0  0  0  0  0  0  0  0  0
   -1.6528    2.8717    0.0000 H   0  0  0  0  0  0  0  0  0  0  0  0
   -3.8279    0.2786    0.0000 H   0  0  0  0  0  0  0  0  0  0  0  0
   -2.1361   -0.4780    0.0000 H   0  0  0  0  0  0  0  0  0  0  0  0
   -3.2004   -0.5881    0.0000 H   0  0  0  0  0  0  0  0  0  0  0  0
  -12.2585   -1.0439    0.0000 H   0  0  0  0  0  0  0  0  0  0  0  0
    0.3059    2.5001    0.0000 H   0  0  0  0  0  0  0  0  0  0  0  0
    1.2827    2.0633    0.0000 H   0  0  0  0  0  0  0  0  0  0  0  0
    1.2790    0.0346    0.0000 H   0  0  0  0  0  0  0  0  0  0  0  0
    2.1458    0.6619    0.0000 H   0  0  0  0  0  0  0  0  0  0  0  0
    8.3863    0.7691    0.0000 H   0  0  0  0  0  0  0  0  0  0  0  0
    7.4095    1.2059    0.0000 H   0  0  0  0  0  0  0  0  0  0  0  0
    3.1489    2.7938    0.0000 H   0  0  0  0  0  0  0  0  0  0  0  0
    4.1256    2.3569    0.0000 H   0  0  0  0  0  0  0  0  0  0  0  0
    7.4131    3.2345    0.0000 H   0  0  0  0  0  0  0  0  0  0  0  0
    8.3898    2.7977    0.0000 H   0  0  0  0  0  0  0  0  0  0  0  0
    8.1104    3.7439    0.0000 H   0  0  0  0  0  0  0  0  0  0  0  0
    9.4528    0.4731    0.0000 H   0  0  0  0  0  0  0  0  0  0  0  0
    4.1219    0.3284    0.0000 H   0  0  0  0  0  0  0  0  0  0  0  0
    3.1452    0.7653    0.0000 H   0  0  0  0  0  0  0  0  0  0  0  0
   11.6359    3.4778    0.0000 H   0  0  0  0  0  0  0  0  0  0  0  0
   12.3911    1.7814    0.0000 H   0  0  0  0  0  0  0  0  0  0  0  0
    5.5434    0.4753    0.0000 H   0  0  0  0  0  0  0  0  0  0  0  0
    6.4101    1.1026    0.0000 H   0  0  0  0  0  0  0  0  0  0  0  0
  1 61  1  0  0  0  0
  2 59  1  0  0  0  0
  2 63  1  0  0  0  0
  3  7  1  0  0  0  0
  3 10  1  0  0  0  0
  3 11  1  0  0  0  0
  3 13  2  0  0  0  0
  4  9  1  0  0  0  0
  4 12  1  0  0  0  0
  4 15  1  0  0  0  0
  4 16  2  1  0  0  0
  5 12  1  0  0  0  0
  5 14  1  0  0  0  0
  5 18  1  0  0  0  0
  5 19  2  6  0  0  0
  6 34  1  0  0  0  0
  6 35  1  0  0  0  0
  8 71  1  0  0  0  0
  9 36  1  0  0  0  0
 10 72  1  0  0  0  0
 11 73  1  0  0  0  0
 14 43  1  0  0  0  0
 15 74  1  0  0  0  0
 17 75  1  0  0  0  0
 18 76  1  0  0  0  0
 20 47  2  0  0  0  0
 21 50  2  0  0  0  0
 22 64  2  0  0  0  0
 23 37  1  0  0  0  0
 23 38  1  0  0  0  0
 24 38  2  0  0  0  0
 24 39  1  0  0  0  0
 25 37  2  0  0  0  0
 25 46  1  0  0  0  0
 26 41  1  0  0  0  0
 26 46  2  0  0  0  0
 27 41  1  0  0  0  0
 27 65  1  0  0  0  0
 27 66  1  0  0  0  0
 28 47  1  0  0  0  0
 28 48  1  0  0  0  0
 28 67  1  0  0  0  0
 29 50  1  0  0  0  0
 29 55  1  0  0  0  0
 29 68  1  0  0  0  0
 30 54  1  0  0  0  0
 30 57  1  0  0  0  0
 30 69  1  0  0  0  0
 31 56  1  0  0  0  0
 31 64  1  0  0  0  0
 31 70  1  0  0  0  0
 32  7  1  0  0  0  0
 32 33  1  0  0  0  0
 32 34  1  0  0  0  0
 32 77  1  1  0  0  0
 33  8  1  0  0  0  0
 33 35  1  0  0  0  0
 33 78  1  1  0  0  0
 34 36  1  0  0  0  0
 34 79  1  6  0  0  0
 35 23  1  0  0  0  0
 35 80  1  6  0  0  0
 36 81  1  0  0  0  0
 36 82  1  0  0  0  0
 37 39  1  0  0  0  0
 38 83  1  0  0  0  0
 39 41  2  0  0  0  0
 40 42  1  0  0  0  0
 40 43  1  0  0  0  0
 40 44  1  0  0  0  0
 40 45  1  0  0  0  0
 42 17  1  0  0  0  0
 42 47  1  0  0  0  0
 42 84  1  1  0  0  0
 43 85  1  0  0  0  0
 43 86  1  0  0  0  0
 44 87  1  0  0  0  0
 44 88  1  0  0  0  0
 44 89  1  0  0  0  0
 45 90  1  0  0  0  0
 45 91  1  0  0  0  0
 45 92  1  0  0  0  0
 46 93  1  0  0  0  0
 48 49  1  0  0  0  0
 48 94  1  0  0  0  0
 48 95  1  0  0  0  0
 49 50  1  0  0  0  0
 49 96  1  0  0  0  0
 49 97  1  0  0  0  0
 51 52  1  0  0  0  0
 51 53  1  0  0  0  0
 51 57  2  0  0  0  0
 52 56  1  0  0  0  0
 52 98  1  0  0  0  0
 52 99  1  0  0  0  0
 53 54  2  0  0  0  0
 53 58  1  0  0  0  0
 54 60  1  0  0  0  0
 55 59  1  0  0  0  0
 55100  1  0  0  0  0
 55101  1  0  0  0  0
 56102  1  0  0  0  0
 56103  1  0  0  0  0
 57104  1  0  0  0  0
 58 61  2  0  0  0  0
 58105  1  0  0  0  0
 59106  1  0  0  0  0
 59107  1  0  0  0  0
 60 62  2  0  0  0  0
 60108  1  0  0  0  0
 61 62  1  0  0  0  0
 62109  1  0  0  0  0
 63 64  1  0  0  0  0
 63110  1  0  0  0  0
 63111  1  0  0  0  0
M  END
>  <DRUGBANK_ID>
DB03341

>  <SECONDARY_ACCESSION_NUMBERS>
EXPT00819

>  <COMMON_NAME>
CoA-S-acetyl 5-bromotryptamine

$$$$
