
 OpenBabel10282417072D

 48 51  0  0  0  0  0  0  0  0999 V2000
    1.4289    4.9500    0.0000 C   0  0  0  0  0  0  0  0  0  0  0  0
   -0.7145    1.2375    0.0000 C   0  0  0  0  0  0  0  0  0  0  0  0
    0.7145    4.5375    0.0000 C   0  0  0  0  0  0  0  0  0  0  0  0
    2.1434    4.5375    0.0000 C   0  0  0  0  0  0  0  0  0  0  0  0
    0.0000    0.8250    0.0000 C   0  0  0  0  0  0  0  0  0  0  0  0
   -0.7145    2.0625    0.0000 C   0  0  0  0  0  0  0  0  0  0  0  0
   -0.7145   -0.4125    0.0000 C   0  0  0  0  0  0  0  0  0  0  0  0
   -0.7145   -1.2375    0.0000 C   0  0  0  0  0  0  0  0  0  0  0  0
    0.7145    3.7125    0.0000 C   0  0  0  0  0  0  0  0  0  0  0  0
    2.1434    3.7125    0.0000 C   0  0  0  0  0  0  0  0  0  0  0  0
    0.7145    1.2375    0.0000 C   0  0  0  0  0  0  0  0  0  0  0  0
    0.0000    2.4750    0.0000 C   0  0  0  0  0  0  0  0  0  0  0  0
    0.0000    0.0000    0.0000 C   0  0  0  0  0  0  0  0  0  0  0  0
    0.0000   -1.6500    0.0000 C   0  0  0  0  0  0  0  0  0  0  0  0
    2.1434    2.0625    0.0000 C   0  0  0  0  0  0  0  0  0  0  0  0
    2.1434    1.2375    0.0000 C   0  0  0  0  0  0  0  0  0  0  0  0
    2.8579   -0.0000    0.0000 C   0  0  0  0  0  0  0  0  0  0  0  0
    1.4289    3.3000    0.0000 C   0  0  0  0  0  0  0  0  0  0  0  0
    0.7145    2.0625    0.0000 C   0  0  0  0  0  0  0  0  0  0  0  0
    1.4289    2.4750    0.0000 C   0  0  0  0  0  0  0  0  0  0  0  0
    0.7145   -0.4125    0.0000 C   0  0  0  0  0  0  0  0  0  0  0  0
    0.7145   -1.2375    0.0000 C   0  0  0  0  0  0  0  0  0  0  0  0
    2.1434   -0.4125    0.0000 C   0  0  0  0  0  0  0  0  0  0  0  0
    1.4289   -0.0000    0.0000 C   0  0  0  0  0  0  0  0  0  0  0  0
    3.5724   -0.4125    0.0000 N   0  0  0  0  0  0  0  0  0  0  0  0
    1.4289    0.8250    0.0000 N   0  0  0  0  0  0  0  0  0  0  0  0
    1.4289   -1.6500    0.0000 N   0  0  0  0  0  0  0  0  0  0  0  0
    2.1434   -1.2375    0.0000 N   0  0  0  0  0  0  0  0  0  0  0  0
    1.4289    5.9820    0.0000 H   0  0  0  0  0  0  0  0  0  0  0  0
   -1.6082    0.7215    0.0000 H   0  0  0  0  0  0  0  0  0  0  0  0
   -0.1792    5.0535    0.0000 H   0  0  0  0  0  0  0  0  0  0  0  0
    3.0371    5.0535    0.0000 H   0  0  0  0  0  0  0  0  0  0  0  0
    0.0000   -0.2070    0.0000 H   0  0  0  0  0  0  0  0  0  0  0  0
   -1.6082    2.5785    0.0000 H   0  0  0  0  0  0  0  0  0  0  0  0
   -1.6082    0.1035    0.0000 H   0  0  0  0  0  0  0  0  0  0  0  0
   -1.6082   -1.7535    0.0000 H   0  0  0  0  0  0  0  0  0  0  0  0
   -0.1792    3.1965    0.0000 H   0  0  0  0  0  0  0  0  0  0  0  0
    3.0371    3.1965    0.0000 H   0  0  0  0  0  0  0  0  0  0  0  0
    1.6082    0.7215    0.0000 H   0  0  0  0  0  0  0  0  0  0  0  0
    0.0000    3.5070    0.0000 H   0  0  0  0  0  0  0  0  0  0  0  0
    0.0000    1.0320    0.0000 H   0  0  0  0  0  0  0  0  0  0  0  0
    0.0000   -2.6820    0.0000 H   0  0  0  0  0  0  0  0  0  0  0  0
    3.0371    2.5785    0.0000 H   0  0  0  0  0  0  0  0  0  0  0  0
    3.0371    0.7215    0.0000 H   0  0  0  0  0  0  0  0  0  0  0  0
    2.8579    1.0700    0.0000 H   0  0  0  0  0  0  0  0  0  0  0  0
    3.7845    0.5350    0.0000 H   0  0  0  0  0  0  0  0  0  0  0  0
    3.5724   -1.4325    0.0000 H   0  0  0  0  0  0  0  0  0  0  0  0
    4.4557    0.0975    0.0000 H   0  0  0  0  0  0  0  0  0  0  0  0
  1 29  1  0  0  0  0
  2 30  1  0  0  0  0
  3  1  2  0  0  0  0
  3 31  1  0  0  0  0
  4  1  1  0  0  0  0
  4 32  1  0  0  0  0
  5  2  2  0  0  0  0
  5 33  1  0  0  0  0
  6  2  1  0  0  0  0
  6 34  1  0  0  0  0
  7 35  1  0  0  0  0
  8  7  2  0  0  0  0
  8 36  1  0  0  0  0
  9  3  1  0  0  0  0
  9 37  1  0  0  0  0
 10  4  2  0  0  0  0
 10 38  1  0  0  0  0
 11  5  1  0  0  0  0
 11 39  1  0  0  0  0
 12  6  2  0  0  0  0
 12 40  1  0  0  0  0
 13  7  1  0  0  0  0
 13 41  1  0  0  0  0
 14  8  1  0  0  0  0
 14 42  1  0  0  0  0
 15 43  1  0  0  0  0
 16 15  1  0  0  0  0
 16 44  1  0  0  0  0
 17 45  1  0  0  0  0
 17 46  1  0  0  0  0
 18  9  2  0  0  0  0
 18 10  1  0  0  0  0
 19 11  2  0  0  0  0
 19 12  1  0  0  0  0
 20 15  2  0  0  0  0
 20 18  1  0  0  0  0
 20 19  1  0  0  0  0
 21 13  2  0  0  0  0
 22 14  2  0  0  0  0
 22 21  1  0  0  0  0
 23 17  1  0  0  0  0
 24 21  1  0  0  0  0
 24 23  2  0  0  0  0
 25 17  1  0  0  0  0
 25 47  1  0  0  0  0
 25 48  1  0  0  0  0
 26 16  2  3  0  0  0
 26 24  1  0  0  0  0
 27 22  1  0  0  0  0
 28 23  1  0  0  0  0
 28 27  2  0  0  0  0
M  END
>  <DRUGBANK_ID>
DB02882

>  <SECONDARY_ACCESSION_NUMBERS>
EXPT02227

>  <COMMON_NAME>
Cyanocinnoline

$$$$
