
 OpenBabel10282417072D

 80 84  0  0  1  0  0  0  0  0999 V2000
    2.8579    5.7750    0.0000 C   0  0  0  0  0  0  0  0  0  0  0  0
    2.8579    4.9500    0.0000 C   0  0  1  0  0  0  0  0  0  0  0  0
    3.5724    4.5375    0.0000 C   0  0  1  0  0  0  0  0  0  0  0  0
    3.5724    3.7125    0.0000 C   0  0  2  0  0  0  0  0  0  0  0  0
    2.8579    3.3000    0.0000 C   0  0  2  0  0  0  0  0  0  0  0  0
    2.1434    3.7125    0.0000 C   0  0  1  0  0  0  0  0  0  0  0  0
    2.1434    4.5375    0.0000 O   0  0  0  0  0  0  0  0  0  0  0  0
    1.4289    3.3000    0.0000 O   0  0  0  0  0  0  0  0  0  0  0  0
    1.4289    2.4750    0.0000 C   0  0  0  0  0  0  0  0  0  0  0  0
    0.7145    2.0625    0.0000 C   0  0  2  0  0  0  0  0  0  0  0  0
    0.0000    2.4750    0.0000 C   0  0  2  0  0  0  0  0  0  0  0  0
   -0.7145    2.0625    0.0000 C   0  0  1  0  0  0  0  0  0  0  0  0
   -0.7145    1.2375    0.0000 C   0  0  2  0  0  0  0  0  0  0  0  0
    0.0000    0.8250    0.0000 C   0  0  1  0  0  0  0  0  0  0  0  0
    0.7145    1.2375    0.0000 O   0  0  0  0  0  0  0  0  0  0  0  0
    0.0000    0.0000    0.0000 O   0  0  0  0  0  0  0  0  0  0  0  0
    0.7145   -0.4125    0.0000 C   0  0  0  0  0  0  0  0  0  0  0  0
    1.4289    0.0000    0.0000 C   0  0  0  0  0  0  0  0  0  0  0  0
    1.4289    0.8250    0.0000 O   0  0  0  0  0  0  0  0  0  0  0  0
    2.1434   -0.4125    0.0000 C   0  0  0  0  0  0  0  0  0  0  0  0
    2.8579    0.0000    0.0000 C   0  0  0  0  0  0  0  0  0  0  0  0
    3.5724   -0.4125    0.0000 C   0  0  0  0  0  0  0  0  0  0  0  0
    3.5724   -1.2375    0.0000 C   0  0  0  0  0  0  0  0  0  0  0  0
    2.8579   -1.6500    0.0000 C   0  0  0  0  0  0  0  0  0  0  0  0
    2.1434   -1.2375    0.0000 C   0  0  0  0  0  0  0  0  0  0  0  0
    1.4289   -1.6500    0.0000 O   0  0  0  0  0  0  0  0  0  0  0  0
    0.7145   -1.2375    0.0000 C   0  0  0  0  0  0  0  0  0  0  0  0
    0.0000   -1.6500    0.0000 C   0  0  0  0  0  0  0  0  0  0  0  0
    0.0000   -2.4750    0.0000 C   0  0  0  0  0  0  0  0  0  0  0  0
   -0.7145   -2.8875    0.0000 C   0  0  0  0  0  0  0  0  0  0  0  0
   -1.4289   -2.4750    0.0000 C   0  0  0  0  0  0  0  0  0  0  0  0
   -1.4289   -1.6500    0.0000 C   0  0  0  0  0  0  0  0  0  0  0  0
   -0.7145   -1.2375    0.0000 C   0  0  0  0  0  0  0  0  0  0  0  0
   -2.1434   -1.2375    0.0000 O   0  0  0  0  0  0  0  0  0  0  0  0
   -2.1434   -2.8875    0.0000 O   0  0  0  0  0  0  0  0  0  0  0  0
    4.2868   -1.6500    0.0000 O   0  0  0  0  0  0  0  0  0  0  0  0
    4.2868   -2.4750    0.0000 C   0  0  0  0  0  0  0  0  0  0  0  0
    5.0013   -2.8875    0.0000 C   0  0  0  0  0  0  0  0  0  0  0  0
    5.0013   -3.7125    0.0000 O   0  0  0  0  0  0  0  0  0  0  0  0
    2.8579    0.8250    0.0000 O   0  0  0  0  0  0  0  0  0  0  0  0
   -1.4289    0.8250    0.0000 O   0  0  0  0  0  0  0  0  0  0  0  0
   -1.4289    2.4750    0.0000 O   0  0  0  0  0  0  0  0  0  0  0  0
   -0.0000    3.3000    0.0000 O   0  0  0  0  0  0  0  0  0  0  0  0
    2.8579    2.4750    0.0000 O   0  0  0  0  0  0  0  0  0  0  0  0
    4.2868    3.3000    0.0000 O   0  0  0  0  0  0  0  0  0  0  0  0
    4.2868    4.9500    0.0000 O   0  0  0  0  0  0  0  0  0  0  0  0
    3.7845    6.3100    0.0000 H   0  0  0  0  0  0  0  0  0  0  0  0
    1.9313    6.3100    0.0000 H   0  0  0  0  0  0  0  0  0  0  0  0
    2.8579    6.8450    0.0000 H   0  0  0  0  0  0  0  0  0  0  0  0
    3.7845    5.4850    0.0000 H   0  0  0  0  0  0  0  0  0  0  0  0
    3.5724    5.6075    0.0000 H   0  0  0  0  0  0  0  0  0  0  0  0
    4.4991    4.2475    0.0000 H   0  0  0  0  0  0  0  0  0  0  0  0
    3.7845    2.7650    0.0000 H   0  0  0  0  0  0  0  0  0  0  0  0
    2.1434    2.6425    0.0000 H   0  0  0  0  0  0  0  0  0  0  0  0
    2.3556    1.9400    0.0000 H   0  0  0  0  0  0  0  0  0  0  0  0
    1.4289    1.4050    0.0000 H   0  0  0  0  0  0  0  0  0  0  0  0
    0.7145    3.1325    0.0000 H   0  0  0  0  0  0  0  0  0  0  0  0
    0.9266    3.0100    0.0000 H   0  0  0  0  0  0  0  0  0  0  0  0
   -0.7145    3.1325    0.0000 H   0  0  0  0  0  0  0  0  0  0  0  0
   -1.6412    1.7725    0.0000 H   0  0  0  0  0  0  0  0  0  0  0  0
   -0.9266    0.2900    0.0000 H   0  0  0  0  0  0  0  0  0  0  0  0
    4.4661    0.1035    0.0000 H   0  0  0  0  0  0  0  0  0  0  0  0
    2.8579   -2.6820    0.0000 H   0  0  0  0  0  0  0  0  0  0  0  0
    0.8937   -2.9910    0.0000 H   0  0  0  0  0  0  0  0  0  0  0  0
   -0.7145   -3.9195    0.0000 H   0  0  0  0  0  0  0  0  0  0  0  0
   -0.7145   -0.2055    0.0000 H   0  0  0  0  0  0  0  0  0  0  0  0
   -2.1434   -0.3005    0.0000 H   0  0  0  0  0  0  0  0  0  0  0  0
   -2.9549   -2.4190    0.0000 H   0  0  0  0  0  0  0  0  0  0  0  0
    3.3602   -3.0100    0.0000 H   0  0  0  0  0  0  0  0  0  0  0  0
    4.2868   -3.5450    0.0000 H   0  0  0  0  0  0  0  0  0  0  0  0
    5.9279   -2.3525    0.0000 H   0  0  0  0  0  0  0  0  0  0  0  0
    5.9279   -3.4225    0.0000 H   0  0  0  0  0  0  0  0  0  0  0  0
    4.1613   -4.1975    0.0000 H   0  0  0  0  0  0  0  0  0  0  0  0
    3.6694    1.2935    0.0000 H   0  0  0  0  0  0  0  0  0  0  0  0
   -2.2690    1.3100    0.0000 H   0  0  0  0  0  0  0  0  0  0  0  0
   -1.4289    3.4450    0.0000 H   0  0  0  0  0  0  0  0  0  0  0  0
    0.8400    3.7850    0.0000 H   0  0  0  0  0  0  0  0  0  0  0  0
    2.0179    1.9900    0.0000 H   0  0  0  0  0  0  0  0  0  0  0  0
    4.2868    2.3300    0.0000 H   0  0  0  0  0  0  0  0  0  0  0  0
    5.1269    4.4650    0.0000 H   0  0  0  0  0  0  0  0  0  0  0  0
  1 47  1  0  0  0  0
  1 48  1  0  0  0  0
  1 49  1  0  0  0  0
  2  1  1  0  0  0  0
  2  3  1  0  0  0  0
  2  7  1  0  0  0  0
  2 50  1  6  0  0  0
  3  4  1  0  0  0  0
  3 46  1  0  0  0  0
  3 51  1  1  0  0  0
  4  5  1  0  0  0  0
  4 45  1  0  0  0  0
  4 52  1  6  0  0  0
  5  6  1  0  0  0  0
  5 44  1  0  0  0  0
  5 53  1  6  0  0  0
  6  7  1  0  0  0  0
  6  8  1  0  0  0  0
  6 54  1  1  0  0  0
  8  9  1  0  0  0  0
  9 55  1  0  0  0  0
  9 56  1  0  0  0  0
 10  9  1  0  0  0  0
 10 11  1  0  0  0  0
 10 15  1  0  0  0  0
 10 57  1  6  0  0  0
 11 12  1  0  0  0  0
 11 43  1  0  0  0  0
 11 58  1  1  0  0  0
 12 13  1  0  0  0  0
 12 42  1  0  0  0  0
 12 59  1  6  0  0  0
 13 14  1  0  0  0  0
 13 41  1  0  0  0  0
 13 60  1  1  0  0  0
 14 15  1  0  0  0  0
 14 16  1  0  0  0  0
 14 61  1  6  0  0  0
 16 17  1  0  0  0  0
 17 18  1  0  0  0  0
 17 27  2  0  0  0  0
 18 19  2  0  0  0  0
 18 20  1  0  0  0  0
 20 21  2  0  0  0  0
 20 25  1  0  0  0  0
 21 22  1  0  0  0  0
 21 40  1  0  0  0  0
 22 23  2  0  0  0  0
 22 62  1  0  0  0  0
 23 24  1  0  0  0  0
 23 36  1  0  0  0  0
 24 25  2  0  0  0  0
 24 63  1  0  0  0  0
 25 26  1  0  0  0  0
 26 27  1  0  0  0  0
 27 28  1  0  0  0  0
 28 29  2  0  0  0  0
 28 33  1  0  0  0  0
 29 30  1  0  0  0  0
 29 64  1  0  0  0  0
 30 31  2  0  0  0  0
 30 65  1  0  0  0  0
 31 32  1  0  0  0  0
 31 35  1  0  0  0  0
 32 33  2  0  0  0  0
 32 34  1  0  0  0  0
 33 66  1  0  0  0  0
 34 67  1  0  0  0  0
 35 68  1  0  0  0  0
 36 37  1  0  0  0  0
 37 38  1  0  0  0  0
 37 69  1  0  0  0  0
 37 70  1  0  0  0  0
 38 39  1  0  0  0  0
 38 71  1  0  0  0  0
 38 72  1  0  0  0  0
 39 73  1  0  0  0  0
 40 74  1  0  0  0  0
 41 75  1  0  0  0  0
 42 76  1  0  0  0  0
 43 77  1  0  0  0  0
 44 78  1  0  0  0  0
 45 79  1  0  0  0  0
 46 80  1  0  0  0  0
M  END
>  <DRUGBANK_ID>
DB13764

>  <COMMON_NAME>
Monoxerutin

>  <CAS_NUMBER>
23869-24-1

>  <UNII>
EKF7043SBU

>  <SYNONYMS>
beta-Hydroxyethylrutosid; Mono-7-hydroxyethylrutoside; Monoxerutin; Monoxerutina; Monoxerutine; Monoxerutinum; O-(beta-Hydroxyethyl)rutin

$$$$
