
 OpenBabel10282417072D

 75 72  0  0  0  0  0  0  0  0999 V2000
    0.4125    0.0000    0.0000 O   0  0  0  0  0  0  0  0  0  0  0  0
   -0.4125    0.0000    0.0000 Re  0  1  0  0  0  0  0  0  0  0  0  0
    3.0397   -1.6036    0.0000 C   0  0  0  0  0  0  0  0  0  0  0  0
    3.8498   -1.4477    0.0000 C   0  0  0  0  0  0  0  0  0  0  0  0
    4.1199   -0.6682    0.0000 N   0  0  0  0  0  0  0  0  0  0  0  0
    3.5798   -0.0445    0.0000 C   0  0  0  0  0  0  0  0  0  0  0  0
    2.7696   -0.2005    0.0000 C   0  0  0  0  0  0  0  0  0  0  0  0
    4.9300   -0.5123    0.0000 C   0  0  0  0  0  0  0  0  0  0  0  0
    5.2000    0.2673    0.0000 C   0  0  0  0  0  0  0  0  0  0  0  0
    6.0102    0.4232    0.0000 N   0  0  0  0  0  0  0  0  0  0  0  0
    6.2802    1.2027    0.0000 C   0  0  0  0  0  0  0  0  0  0  0  0
    7.0904    1.3586    0.0000 C   0  0  0  0  0  0  0  0  0  0  0  0
    7.3604    2.1382    0.0000 S   0  0  0  0  0  0  0  0  0  0  0  0
    6.5503   -0.2005    0.0000 C   0  0  0  0  0  0  0  0  0  0  0  0
    7.3604   -0.0445    0.0000 C   0  0  0  0  0  0  0  0  0  0  0  0
    7.9005   -0.6682    0.0000 S   0  5  0  0  0  0  0  0  0  0  0  0
   -2.3918   -6.9955    0.0000 C   0  0  0  0  0  0  0  0  0  0  0  0
   -1.5817   -6.8396    0.0000 C   0  0  0  0  0  0  0  0  0  0  0  0
   -1.3116   -6.0600    0.0000 N   0  0  0  0  0  0  0  0  0  0  0  0
   -1.8517   -5.4364    0.0000 C   0  0  0  0  0  0  0  0  0  0  0  0
   -2.6619   -5.5923    0.0000 C   0  0  0  0  0  0  0  0  0  0  0  0
   -0.5015   -5.9041    0.0000 C   0  0  0  0  0  0  0  0  0  0  0  0
   -0.2315   -5.1246    0.0000 C   0  0  0  0  0  0  0  0  0  0  0  0
    0.5787   -4.9687    0.0000 N   0  0  0  0  0  0  0  0  0  0  0  0
    0.8487   -4.1891    0.0000 C   0  0  0  0  0  0  0  0  0  0  0  0
    1.6588   -4.0332    0.0000 C   0  0  0  0  0  0  0  0  0  0  0  0
    1.9289   -3.2536    0.0000 S   0  5  0  0  0  0  0  0  0  0  0  0
    1.1188   -5.5923    0.0000 C   0  0  0  0  0  0  0  0  0  0  0  0
    1.9289   -5.4364    0.0000 C   0  0  0  0  0  0  0  0  0  0  0  0
    2.4690   -6.0600    0.0000 S   0  5  0  0  0  0  0  0  0  0  0  0
    2.3392   -0.7948    0.0000 H   0  0  0  0  0  0  0  0  0  0  0  0
    2.6895   -2.6147    0.0000 H   0  0  0  0  0  0  0  0  0  0  0  0
    1.9890   -1.8058    0.0000 H   0  0  0  0  0  0  0  0  0  0  0  0
    4.5502   -2.2566    0.0000 H   0  0  0  0  0  0  0  0  0  0  0  0
    4.9005   -1.2456    0.0000 H   0  0  0  0  0  0  0  0  0  0  0  0
    3.9300    0.9666    0.0000 H   0  0  0  0  0  0  0  0  0  0  0  0
    2.8793    0.7643    0.0000 H   0  0  0  0  0  0  0  0  0  0  0  0
    2.0690    0.6083    0.0000 H   0  0  0  0  0  0  0  0  0  0  0  0
    2.4195   -1.2116    0.0000 H   0  0  0  0  0  0  0  0  0  0  0  0
    1.7189   -0.4028    0.0000 H   0  0  0  0  0  0  0  0  0  0  0  0
    5.6305   -1.3211    0.0000 H   0  0  0  0  0  0  0  0  0  0  0  0
    5.9807   -0.3100    0.0000 H   0  0  0  0  0  0  0  0  0  0  0  0
    4.4995    1.0761    0.0000 H   0  0  0  0  0  0  0  0  0  0  0  0
    5.5502    1.2784    0.0000 H   0  0  0  0  0  0  0  0  0  0  0  0
    5.5797    2.0115    0.0000 H   0  0  0  0  0  0  0  0  0  0  0  0
    6.6305    2.2138    0.0000 H   0  0  0  0  0  0  0  0  0  0  0  0
    7.7909    0.5498    0.0000 H   0  0  0  0  0  0  0  0  0  0  0  0
    8.1411    1.5609    0.0000 H   0  0  0  0  0  0  0  0  0  0  0  0
    8.6959    2.3953    0.0000 H   0  0  0  0  0  0  0  0  0  0  0  0
    6.2001   -1.2116    0.0000 H   0  0  0  0  0  0  0  0  0  0  0  0
    7.2508   -1.0093    0.0000 H   0  0  0  0  0  0  0  0  0  0  0  0
    7.7106    0.9666    0.0000 H   0  0  0  0  0  0  0  0  0  0  0  0
    8.4111    0.1577    0.0000 H   0  0  0  0  0  0  0  0  0  0  0  0
   -3.0923   -6.1867    0.0000 H   0  0  0  0  0  0  0  0  0  0  0  0
   -2.7420   -8.0066    0.0000 H   0  0  0  0  0  0  0  0  0  0  0  0
   -3.4425   -7.1977    0.0000 H   0  0  0  0  0  0  0  0  0  0  0  0
   -0.8812   -7.6485    0.0000 H   0  0  0  0  0  0  0  0  0  0  0  0
   -0.5310   -6.6374    0.0000 H   0  0  0  0  0  0  0  0  0  0  0  0
   -1.5015   -4.4253    0.0000 H   0  0  0  0  0  0  0  0  0  0  0  0
   -2.5522   -4.6275    0.0000 H   0  0  0  0  0  0  0  0  0  0  0  0
   -3.3624   -4.7834    0.0000 H   0  0  0  0  0  0  0  0  0  0  0  0
   -3.0122   -6.6033    0.0000 H   0  0  0  0  0  0  0  0  0  0  0  0
   -3.7126   -5.7945    0.0000 H   0  0  0  0  0  0  0  0  0  0  0  0
    0.1990   -6.7129    0.0000 H   0  0  0  0  0  0  0  0  0  0  0  0
    0.5492   -5.7019    0.0000 H   0  0  0  0  0  0  0  0  0  0  0  0
   -0.9320   -4.3158    0.0000 H   0  0  0  0  0  0  0  0  0  0  0  0
    0.1188   -4.1135    0.0000 H   0  0  0  0  0  0  0  0  0  0  0  0
    0.1482   -3.3803    0.0000 H   0  0  0  0  0  0  0  0  0  0  0  0
    1.1989   -3.1780    0.0000 H   0  0  0  0  0  0  0  0  0  0  0  0
    2.3593   -4.8421    0.0000 H   0  0  0  0  0  0  0  0  0  0  0  0
    2.7095   -3.8310    0.0000 H   0  0  0  0  0  0  0  0  0  0  0  0
    0.7686   -6.6034    0.0000 H   0  0  0  0  0  0  0  0  0  0  0  0
    1.8193   -6.4011    0.0000 H   0  0  0  0  0  0  0  0  0  0  0  0
    2.2791   -4.4253    0.0000 H   0  0  0  0  0  0  0  0  0  0  0  0
    2.9796   -5.2342    0.0000 H   0  0  0  0  0  0  0  0  0  0  0  0
  1  2  2  0  0  0  0
  3  4  1  0  0  0  0
  3 31  1  0  0  0  0
  3 32  1  0  0  0  0
  3 33  1  0  0  0  0
  4  5  1  0  0  0  0
  4 34  1  0  0  0  0
  4 35  1  0  0  0  0
  5  6  1  0  0  0  0
  5  8  1  0  0  0  0
  6  7  1  0  0  0  0
  6 36  1  0  0  0  0
  6 37  1  0  0  0  0
  7 38  1  0  0  0  0
  7 39  1  0  0  0  0
  7 40  1  0  0  0  0
  8  9  1  0  0  0  0
  8 41  1  0  0  0  0
  8 42  1  0  0  0  0
  9 10  1  0  0  0  0
  9 43  1  0  0  0  0
  9 44  1  0  0  0  0
 10 11  1  0  0  0  0
 10 14  1  0  0  0  0
 11 12  1  0  0  0  0
 11 45  1  0  0  0  0
 11 46  1  0  0  0  0
 12 13  1  0  0  0  0
 12 47  1  0  0  0  0
 12 48  1  0  0  0  0
 13 49  1  0  0  0  0
 14 15  1  0  0  0  0
 14 50  1  0  0  0  0
 14 51  1  0  0  0  0
 15 16  1  0  0  0  0
 15 52  1  0  0  0  0
 15 53  1  0  0  0  0
 17 18  1  0  0  0  0
 17 54  1  0  0  0  0
 17 55  1  0  0  0  0
 17 56  1  0  0  0  0
 18 19  1  0  0  0  0
 18 57  1  0  0  0  0
 18 58  1  0  0  0  0
 19 20  1  0  0  0  0
 19 22  1  0  0  0  0
 20 21  1  0  0  0  0
 20 59  1  0  0  0  0
 20 60  1  0  0  0  0
 21 61  1  0  0  0  0
 21 62  1  0  0  0  0
 21 63  1  0  0  0  0
 22 23  1  0  0  0  0
 22 64  1  0  0  0  0
 22 65  1  0  0  0  0
 23 24  1  0  0  0  0
 23 66  1  0  0  0  0
 23 67  1  0  0  0  0
 24 25  1  0  0  0  0
 24 28  1  0  0  0  0
 25 26  1  0  0  0  0
 25 68  1  0  0  0  0
 25 69  1  0  0  0  0
 26 27  1  0  0  0  0
 26 70  1  0  0  0  0
 26 71  1  0  0  0  0
 28 29  1  0  0  0  0
 28 72  1  0  0  0  0
 28 73  1  0  0  0  0
 29 30  1  0  0  0  0
 29 74  1  0  0  0  0
 29 75  1  0  0  0  0
M  ISO  1   2 186
M  CHG  4   2   3  16  -1  27  -1  30  -1
M  END
>  <DRUGBANK_ID>
DB18523

>  <COMMON_NAME>
Rhenium (186-Re) obisbemeda

>  <CAS_NUMBER>
644961-22-8

>  <UNII>
O5L8T4LD4L

>  <SYNONYMS>
Rhenium (186re) obisbemeda

$$$$
