BXZ
 OpenBabel10282417072D

 27 29  0  0  0  0  0  0  0  0999 V2000
    2.2773    0.8611    0.0000 C   0  0  0  0  0  0  0  0  0  0  0  0
    1.5628    0.4486    0.0000 C   0  0  0  0  0  0  0  0  0  0  0  0
    0.8483    0.8611    0.0000 C   0  0  0  0  0  0  0  0  0  0  0  0
    0.8483    1.6861    0.0000 C   0  0  0  0  0  0  0  0  0  0  0  0
    1.5628    2.0986    0.0000 C   0  0  0  0  0  0  0  0  0  0  0  0
    2.2773    1.6861    0.0000 C   0  0  0  0  0  0  0  0  0  0  0  0
    2.9917    2.0986    0.0000 O   0  0  0  0  0  0  0  0  0  0  0  0
    0.0637    1.9410    0.0000 O   0  0  0  0  0  0  0  0  0  0  0  0
   -0.4212    1.2736    0.0000 N   0  0  0  0  0  0  0  0  0  0  0  0
    0.0637    0.6061    0.0000 C   0  0  0  0  0  0  0  0  0  0  0  0
   -0.1912   -0.1785    0.0000 C   0  0  0  0  0  0  0  0  0  0  0  0
    0.3608   -0.7916    0.0000 C   0  0  0  0  0  0  0  0  0  0  0  0
    0.1058   -1.5762    0.0000 C   0  0  0  0  0  0  0  0  0  0  0  0
   -0.7011   -1.7477    0.0000 C   0  0  0  0  0  0  0  0  0  0  0  0
   -1.2532   -1.1346    0.0000 C   0  0  0  0  0  0  0  0  0  0  0  0
   -0.9982   -0.3500    0.0000 C   0  0  0  0  0  0  0  0  0  0  0  0
   -1.5503    0.2631    0.0000 O   0  0  0  0  0  0  0  0  0  0  0  0
   -0.9561   -2.5324    0.0000 O   0  0  0  0  0  0  0  0  0  0  0  0
    0.6579   -2.1893    0.0000 Br  0  0  0  0  0  0  0  0  0  0  0  0
    3.1710    0.3451    0.0000 H   0  0  0  0  0  0  0  0  0  0  0  0
    1.5628   -0.5834    0.0000 H   0  0  0  0  0  0  0  0  0  0  0  0
    1.5628    3.1306    0.0000 H   0  0  0  0  0  0  0  0  0  0  0  0
    3.8032    1.6301    0.0000 H   0  0  0  0  0  0  0  0  0  0  0  0
    1.3703   -0.5771    0.0000 H   0  0  0  0  0  0  0  0  0  0  0  0
   -2.2627   -1.3492    0.0000 H   0  0  0  0  0  0  0  0  0  0  0  0
   -1.2608    1.1543    0.0000 H   0  0  0  0  0  0  0  0  0  0  0  0
   -1.8726   -2.7272    0.0000 H   0  0  0  0  0  0  0  0  0  0  0  0
  1  2  2  0  0  0  0
  1  6  1  0  0  0  0
  1 20  1  0  0  0  0
  2  3  1  0  0  0  0
  2 21  1  0  0  0  0
  3  4  2  0  0  0  0
  3 10  1  0  0  0  0
  4  5  1  0  0  0  0
  4  8  1  0  0  0  0
  5  6  2  0  0  0  0
  5 22  1  0  0  0  0
  6  7  1  0  0  0  0
  7 23  1  0  0  0  0
  8  9  1  0  0  0  0
  9 10  2  0  0  0  0
 10 11  1  0  0  0  0
 11 12  2  0  0  0  0
 11 16  1  0  0  0  0
 12 13  1  0  0  0  0
 12 24  1  0  0  0  0
 13 14  2  0  0  0  0
 13 19  1  0  0  0  0
 14 15  1  0  0  0  0
 14 18  1  0  0  0  0
 15 16  2  0  0  0  0
 15 25  1  0  0  0  0
 16 17  1  0  0  0  0
 17 26  1  0  0  0  0
 18 27  1  0  0  0  0
M  END
>  <DRUGBANK_ID>
DB07502

>  <COMMON_NAME>
4-bromo-6-(6-hydroxy-1,2-benzisoxazol-3-yl)benzene-1,3-diol

$$$$
