
 OpenBabel10282417072D

 19 18  0  0  0  0  0  0  0  0999 V2000
   -0.9355   -1.0164    0.0000 C   0  0  0  0  0  0  0  0  0  0  0  0
    1.9224   -1.0164    0.0000 C   0  0  0  0  0  0  0  0  0  0  0  0
   -1.6500   -1.4289    0.0000 C   0  0  0  0  0  0  0  0  0  0  0  0
    2.6368   -1.4289    0.0000 C   0  0  0  0  0  0  0  0  0  0  0  0
   -0.2211   -1.4289    0.0000 C   0  0  0  0  0  0  0  0  0  0  0  0
    1.2079   -1.4289    0.0000 C   0  0  0  0  0  0  0  0  0  0  0  0
   -2.3645   -1.0164    0.0000 O   0  0  0  0  0  0  0  0  0  0  0  0
    1.2079   -2.2539    0.0000 O   0  0  0  0  0  0  0  0  0  0  0  0
    3.3513   -1.0164    0.0000 S   0  5  0  0  0  0  0  0  0  0  0  0
    0.4934   -1.0164    0.0000 S   0  0  0  0  0  0  0  0  0  0  0  0
   -0.9355    0.0536    0.0000 H   0  0  0  0  0  0  0  0  0  0  0  0
   -0.0088   -0.4814    0.0000 H   0  0  0  0  0  0  0  0  0  0  0  0
    1.9224    0.0536    0.0000 H   0  0  0  0  0  0  0  0  0  0  0  0
    0.9958   -0.4814    0.0000 H   0  0  0  0  0  0  0  0  0  0  0  0
   -1.6500   -2.4609    0.0000 H   0  0  0  0  0  0  0  0  0  0  0  0
    2.6368   -2.4989    0.0000 H   0  0  0  0  0  0  0  0  0  0  0  0
    3.5634   -1.9639    0.0000 H   0  0  0  0  0  0  0  0  0  0  0  0
   -0.2211   -2.4989    0.0000 H   0  0  0  0  0  0  0  0  0  0  0  0
    0.7055   -1.9639    0.0000 H   0  0  0  0  0  0  0  0  0  0  0  0
  1 11  1  0  0  0  0
  1 12  1  0  0  0  0
  2 13  1  0  0  0  0
  2 14  1  0  0  0  0
  3  1  1  0  0  0  0
  3 15  1  0  0  0  0
  4  2  1  0  0  0  0
  4 16  1  0  0  0  0
  4 17  1  0  0  0  0
  5  1  1  0  0  0  0
  5 18  1  0  0  0  0
  5 19  1  0  0  0  0
  6  2  1  0  0  0  0
  7  3  2  0  0  0  0
  8  6  2  0  0  0  0
  9  4  1  0  0  0  0
 10  5  1  0  0  0  0
 10  6  1  0  0  0  0
M  CHG  1   9  -1
M  END
>  <DRUGBANK_ID>
DB04749

>  <COMMON_NAME>
2-(3-OXO-PROPYLSULFANYLCARBONYL)-ETHANETHIOLATE

$$$$
