PYU
 OpenBabel10282417072D

 25 26  0  0  0  0  0  0  0  0999 V2000
    0.7525   -0.7107    0.0000 N   0  0  0  0  0  0  0  0  0  0  0  0
    0.0381    1.3518    0.0000 C   0  0  0  0  0  0  0  0  0  0  0  0
   -1.3909    0.5268    0.0000 C   0  0  0  0  0  0  0  0  0  0  0  0
   -0.6764    1.7643    0.0000 C   0  0  0  0  0  0  0  0  0  0  0  0
    1.4200   -1.1956    0.0000 C   0  0  0  0  0  0  0  0  0  0  0  0
    0.0851   -1.1956    0.0000 C   0  0  0  0  0  0  0  0  0  0  0  0
    1.1650   -1.9802    0.0000 C   0  0  0  0  0  0  0  0  0  0  0  0
    0.3400   -1.9802    0.0000 C   0  0  0  0  0  0  0  0  0  0  0  0
    0.0381    0.5268    0.0000 C   0  0  0  0  0  0  0  0  0  0  0  0
   -1.3909    1.3518    0.0000 C   0  0  0  0  0  0  0  0  0  0  0  0
   -0.6764    0.1143    0.0000 C   0  0  0  0  0  0  0  0  0  0  0  0
    0.7525    0.1143    0.0000 C   0  0  0  0  0  0  0  0  0  0  0  0
    1.4670    0.5268    0.0000 O   0  0  0  0  0  0  0  0  0  0  0  0
   -2.1054    1.7643    0.0000 O   0  0  0  0  0  0  0  0  0  0  0  0
   -0.6764   -0.7107    0.0000 O   0  0  0  0  0  0  0  0  0  0  0  0
    0.7525    1.7643    0.0000 O   0  0  0  0  0  0  0  0  0  0  0  0
   -2.2846    0.0108    0.0000 H   0  0  0  0  0  0  0  0  0  0  0  0
   -0.6764    2.7963    0.0000 H   0  0  0  0  0  0  0  0  0  0  0  0
    2.4015   -0.8767    0.0000 H   0  0  0  0  0  0  0  0  0  0  0  0
   -0.8964   -0.8767    0.0000 H   0  0  0  0  0  0  0  0  0  0  0  0
    1.7716   -2.8151    0.0000 H   0  0  0  0  0  0  0  0  0  0  0  0
   -0.2666   -2.8151    0.0000 H   0  0  0  0  0  0  0  0  0  0  0  0
   -2.1054    2.7013    0.0000 H   0  0  0  0  0  0  0  0  0  0  0  0
   -1.4879   -1.1792    0.0000 H   0  0  0  0  0  0  0  0  0  0  0  0
    1.5640    1.2958    0.0000 H   0  0  0  0  0  0  0  0  0  0  0  0
  1  5  1  0  0  0  0
  1  6  1  0  0  0  0
  2 16  1  0  0  0  0
  3 11  2  0  0  0  0
  3 10  1  0  0  0  0
  3 17  1  0  0  0  0
  4  2  1  0  0  0  0
  4 18  1  0  0  0  0
  5  7  2  0  0  0  0
  5 19  1  0  0  0  0
  6  8  2  0  0  0  0
  6 20  1  0  0  0  0
  7  8  1  0  0  0  0
  7 21  1  0  0  0  0
  8 22  1  0  0  0  0
  9  2  2  0  0  0  0
  9 12  1  0  0  0  0
 10  4  2  0  0  0  0
 11  9  1  0  0  0  0
 12  1  1  0  0  0  0
 13 12  2  0  0  0  0
 14 10  1  0  0  0  0
 14 23  1  0  0  0  0
 15 11  1  0  0  0  0
 15 24  1  0  0  0  0
 16 25  1  0  0  0  0
M  END
>  <DRUGBANK_ID>
DB08443

>  <COMMON_NAME>
2-(1H-pyrrol-1-ylcarbonyl)benzene-1,3,5-triol

$$$$
