
 OpenBabel10282417072D

129136  0  0  1  0  0  0  0  0999 V2000
   10.9572   -5.8946    0.0000 C   0  0  0  0  0  0  0  0  0  0  0  0
   10.1451   -6.0398    0.0000 C   0  0  2  0  0  0  0  0  0  0  0  0
    9.8648   -6.8157    0.0000 C   0  0  2  0  0  0  0  0  0  0  0  0
    9.0527   -6.9609    0.0000 C   0  0  2  0  0  0  0  0  0  0  0  0
    8.5208   -6.3302    0.0000 C   0  0  0  0  0  0  0  0  0  0  0  0
    8.8011   -5.5543    0.0000 C   0  0  1  0  0  0  0  0  0  0  0  0
    9.6133   -5.4091    0.0000 O   0  0  0  0  0  0  0  0  0  0  0  0
    8.2693   -4.9236    0.0000 O   0  0  0  0  0  0  0  0  0  0  0  0
    8.5496   -4.1477    0.0000 C   0  0  2  0  0  0  0  0  0  0  0  0
    8.0178   -3.5170    0.0000 C   0  0  2  0  0  0  0  0  0  0  0  0
    8.2981   -2.7410    0.0000 O   0  0  0  0  0  0  0  0  0  0  0  0
    9.1102   -2.5958    0.0000 C   0  0  2  0  0  0  0  0  0  0  0  0
    9.6420   -3.2265    0.0000 C   0  0  0  0  0  0  0  0  0  0  0  0
    9.3617   -4.0025    0.0000 C   0  0  2  0  0  0  0  0  0  0  0  0
    9.8936   -4.6332    0.0000 O   0  0  0  0  0  0  0  0  0  0  0  0
   10.7057   -4.4879    0.0000 C   0  0  0  0  0  0  0  0  0  0  0  0
   11.2375   -5.1187    0.0000 O   0  0  0  0  0  0  0  0  0  0  0  0
    9.3905   -1.8199    0.0000 O   0  0  0  0  0  0  0  0  0  0  0  0
    8.8587   -1.1892    0.0000 C   0  0  2  0  0  0  0  0  0  0  0  0
    8.0466   -1.3344    0.0000 C   0  0  2  0  0  0  0  0  0  0  0  0
    7.5148   -0.7037    0.0000 O   0  0  0  0  0  0  0  0  0  0  0  0
    7.7951    0.0722    0.0000 C   0  0  2  0  0  0  0  0  0  0  0  0
    8.6072    0.2174    0.0000 C   0  0  0  0  0  0  0  0  0  0  0  0
    9.1390   -0.4133    0.0000 C   0  0  2  0  0  0  0  0  0  0  0  0
    9.9511   -0.2681    0.0000 O   0  0  0  0  0  0  0  0  0  0  0  0
   10.2314    0.5079    0.0000 C   0  0  0  0  0  0  0  0  0  0  0  0
   11.0435    0.6531    0.0000 O   0  0  0  0  0  0  0  0  0  0  0  0
    7.2632    0.7029    0.0000 O   0  0  0  0  0  0  0  0  0  0  0  0
    6.4511    0.5577    0.0000 C   0  0  1  0  0  0  0  0  0  0  0  0
    6.1708   -0.2182    0.0000 C   0  0  0  0  0  0  0  0  0  0  0  0
    5.3587   -0.3634    0.0000 C   0  0  0  0  0  0  0  0  0  0  0  0
    4.8269    0.2673    0.0000 C   0  0  1  0  0  0  0  0  0  0  0  0
    5.1072    1.0432    0.0000 C   0  0  1  0  0  0  0  0  0  0  0  0
    5.9193    1.1884    0.0000 C   0  0  0  0  0  0  0  0  0  0  0  0
    4.5754    1.6739    0.0000 C   0  0  0  0  0  0  0  0  0  0  0  0
    3.7633    1.5287    0.0000 C   0  0  0  0  0  0  0  0  0  0  0  0
    3.4830    0.7528    0.0000 C   0  0  2  0  0  0  0  0  0  0  0  0
    4.0148    0.1221    0.0000 C   0  0  2  0  0  0  0  0  0  0  0  0
    3.7345   -0.6539    0.0000 C   0  0  0  0  0  0  0  0  0  0  0  0
    2.9224   -0.7991    0.0000 C   0  0  0  0  0  0  0  0  0  0  0  0
    2.3905   -0.1684    0.0000 C   0  0  1  0  0  0  0  0  0  0  0  0
    2.6708    0.6076    0.0000 C   0  0  2  0  0  0  0  0  0  0  0  0
    2.0195    1.1139    0.0000 C   0  0  0  0  0  0  0  0  0  0  0  0
    1.3367    0.6509    0.0000 C   0  0  1  0  0  0  0  0  0  0  0  0
    1.5660   -0.1416    0.0000 C   0  0  2  0  0  0  0  0  0  0  0  0
    1.0596   -0.7929    0.0000 C   0  0  0  0  0  0  0  0  0  0  0  0
    0.2351   -0.7661    0.0000 C   0  0  0  0  0  0  0  0  0  0  0  0
   -0.0452   -1.5420    0.0000 C   0  0  0  0  0  0  0  0  0  0  0  0
   -0.8377   -1.7713    0.0000 O   0  0  0  0  0  0  0  0  0  0  0  0
    0.6061   -2.0484    0.0000 O   0  0  0  0  0  0  0  0  0  0  0  0
    1.2889   -1.5854    0.0000 C   0  0  0  0  0  0  0  0  0  0  0  0
    0.5607    0.9312    0.0000 O   0  0  0  0  0  0  0  0  0  0  0  0
    0.4155    1.7434    0.0000 C   0  0  0  0  0  0  0  0  0  0  0  0
   -0.3604    2.0237    0.0000 O   0  0  0  0  0  0  0  0  0  0  0  0
    2.8685    1.4085    0.0000 O   0  0  0  0  0  0  0  0  0  0  0  0
    2.0307   -0.9107    0.0000 C   0  0  0  0  0  0  0  0  0  0  0  0
    4.5466   -0.5086    0.0000 C   0  0  0  0  0  0  0  0  0  0  0  0
    7.7663   -2.1103    0.0000 C   0  0  0  0  0  0  0  0  0  0  0  0
    7.2057   -3.6622    0.0000 C   0  0  0  0  0  0  0  0  0  0  0  0
    8.7724   -7.7369    0.0000 O   0  0  0  0  0  0  0  0  0  0  0  0
    9.3042   -8.3676    0.0000 C   0  0  0  0  0  0  0  0  0  0  0  0
    9.0239   -9.1435    0.0000 O   0  0  0  0  0  0  0  0  0  0  0  0
   10.3966   -7.4464    0.0000 O   0  0  0  0  0  0  0  0  0  0  0  0
   10.1163   -8.2224    0.0000 C   0  0  0  0  0  0  0  0  0  0  0  0
   10.6481   -8.8531    0.0000 O   0  0  0  0  0  0  0  0  0  0  0  0
   11.6469   -6.7126    0.0000 H   0  0  0  0  0  0  0  0  0  0  0  0
   11.3208   -4.8883    0.0000 H   0  0  0  0  0  0  0  0  0  0  0  0
   12.0105   -5.7063    0.0000 H   0  0  0  0  0  0  0  0  0  0  0  0
   10.8348   -6.8578    0.0000 H   0  0  0  0  0  0  0  0  0  0  0  0
   10.9181   -6.6274    0.0000 H   0  0  0  0  0  0  0  0  0  0  0  0
    9.7425   -7.7789    0.0000 H   0  0  0  0  0  0  0  0  0  0  0  0
    7.4675   -6.5186    0.0000 H   0  0  0  0  0  0  0  0  0  0  0  0
    7.8310   -5.5122    0.0000 H   0  0  0  0  0  0  0  0  0  0  0  0
    7.7478   -5.7426    0.0000 H   0  0  0  0  0  0  0  0  0  0  0  0
    7.4963   -4.3360    0.0000 H   0  0  0  0  0  0  0  0  0  0  0  0
    7.6542   -4.5233    0.0000 H   0  0  0  0  0  0  0  0  0  0  0  0
    8.4205   -1.7778    0.0000 H   0  0  0  0  0  0  0  0  0  0  0  0
   10.6953   -3.0382    0.0000 H   0  0  0  0  0  0  0  0  0  0  0  0
   10.3318   -4.0445    0.0000 H   0  0  0  0  0  0  0  0  0  0  0  0
   10.4150   -3.8141    0.0000 H   0  0  0  0  0  0  0  0  0  0  0  0
   11.0563   -3.5173    0.0000 H   0  0  0  0  0  0  0  0  0  0  0  0
    8.4951   -2.1955    0.0000 H   0  0  0  0  0  0  0  0  0  0  0  0
    8.7363   -2.1524    0.0000 H   0  0  0  0  0  0  0  0  0  0  0  0
    6.7418   -0.1162    0.0000 H   0  0  0  0  0  0  0  0  0  0  0  0
    8.9708    1.2237    0.0000 H   0  0  0  0  0  0  0  0  0  0  0  0
    9.6605    0.4057    0.0000 H   0  0  0  0  0  0  0  0  0  0  0  0
    9.5026    0.5930    0.0000 H   0  0  0  0  0  0  0  0  0  0  0  0
    9.5661    1.2969    0.0000 H   0  0  0  0  0  0  0  0  0  0  0  0
    7.1408   -0.2603    0.0000 H   0  0  0  0  0  0  0  0  0  0  0  0
    6.8605   -1.0362    0.0000 H   0  0  0  0  0  0  0  0  0  0  0  0
    5.8072   -1.2245    0.0000 H   0  0  0  0  0  0  0  0  0  0  0  0
    4.9951   -1.3697    0.0000 H   0  0  0  0  0  0  0  0  0  0  0  0
    4.3054   -0.5517    0.0000 H   0  0  0  0  0  0  0  0  0  0  0  0
    5.7969    0.2252    0.0000 H   0  0  0  0  0  0  0  0  0  0  0  0
    6.2829    2.1947    0.0000 H   0  0  0  0  0  0  0  0  0  0  0  0
    6.9726    1.3767    0.0000 H   0  0  0  0  0  0  0  0  0  0  0  0
    4.9390    2.6802    0.0000 H   0  0  0  0  0  0  0  0  0  0  0  0
    3.8857    2.4919    0.0000 H   0  0  0  0  0  0  0  0  0  0  0  0
    3.0736    2.3467    0.0000 H   0  0  0  0  0  0  0  0  0  0  0  0
    2.7100    1.3404    0.0000 H   0  0  0  0  0  0  0  0  0  0  0  0
    4.5363    0.9411    0.0000 H   0  0  0  0  0  0  0  0  0  0  0  0
    2.9615   -0.0662    0.0000 H   0  0  0  0  0  0  0  0  0  0  0  0
    4.4243   -1.4719    0.0000 H   0  0  0  0  0  0  0  0  0  0  0  0
    3.3710   -1.6602    0.0000 H   0  0  0  0  0  0  0  0  0  0  0  0
    2.5589   -1.8055    0.0000 H   0  0  0  0  0  0  0  0  0  0  0  0
    1.8691   -0.9875    0.0000 H   0  0  0  0  0  0  0  0  0  0  0  0
    2.0542    2.1833    0.0000 H   0  0  0  0  0  0  0  0  0  0  0  0
    1.0824    1.6303    0.0000 H   0  0  0  0  0  0  0  0  0  0  0  0
    1.2037    1.7126    0.0000 H   0  0  0  0  0  0  0  0  0  0  0  0
    0.5152    0.0601    0.0000 H   0  0  0  0  0  0  0  0  0  0  0  0
   -0.3440    0.0881    0.0000 H   0  0  0  0  0  0  0  0  0  0  0  0
    2.2953   -1.9489    0.0000 H   0  0  0  0  0  0  0  0  0  0  0  0
    2.0697   -0.8538    0.0000 H   0  0  0  0  0  0  0  0  0  0  0  0
    1.2045    2.4086    0.0000 H   0  0  0  0  0  0  0  0  0  0  0  0
    3.8003    1.6780    0.0000 H   0  0  0  0  0  0  0  0  0  0  0  0
    0.9635   -0.9879    0.0000 H   0  0  0  0  0  0  0  0  0  0  0  0
    2.6312   -1.7963    0.0000 H   0  0  0  0  0  0  0  0  0  0  0  0
    1.5640   -1.8736    0.0000 H   0  0  0  0  0  0  0  0  0  0  0  0
    3.4933   -0.6969    0.0000 H   0  0  0  0  0  0  0  0  0  0  0  0
    5.2363   -1.3266    0.0000 H   0  0  0  0  0  0  0  0  0  0  0  0
    4.1830   -1.5149    0.0000 H   0  0  0  0  0  0  0  0  0  0  0  0
    6.7130   -2.2986    0.0000 H   0  0  0  0  0  0  0  0  0  0  0  0
    8.4560   -2.9283    0.0000 H   0  0  0  0  0  0  0  0  0  0  0  0
    7.4027   -3.1166    0.0000 H   0  0  0  0  0  0  0  0  0  0  0  0
    6.5160   -2.8442    0.0000 H   0  0  0  0  0  0  0  0  0  0  0  0
    6.8421   -4.6685    0.0000 H   0  0  0  0  0  0  0  0  0  0  0  0
    6.1524   -3.8505    0.0000 H   0  0  0  0  0  0  0  0  0  0  0  0
   10.3201   -8.1860    0.0000 H   0  0  0  0  0  0  0  0  0  0  0  0
    9.1004   -8.4041    0.0000 H   0  0  0  0  0  0  0  0  0  0  0  0
  1 66  1  0  0  0  0
  1 67  1  0  0  0  0
  1 68  1  0  0  0  0
  2  1  1  0  0  0  0
  2  3  1  0  0  0  0
  2  7  1  0  0  0  0
  2 69  1  1  0  0  0
  3  4  1  0  0  0  0
  3 63  1  0  0  0  0
  3 70  1  6  0  0  0
  4  5  1  0  0  0  0
  4 60  1  0  0  0  0
  4 71  1  6  0  0  0
  5  6  1  0  0  0  0
  5 72  1  0  0  0  0
  5 73  1  0  0  0  0
  6  7  1  0  0  0  0
  6  8  1  0  0  0  0
  6 74  1  1  0  0  0
  9  8  1  0  0  0  0
  9 10  1  0  0  0  0
  9 14  1  0  0  0  0
  9 75  1  1  0  0  0
 10 11  1  0  0  0  0
 10 59  1  0  0  0  0
 10 76  1  6  0  0  0
 11 12  1  0  0  0  0
 12 13  1  0  0  0  0
 12 18  1  0  0  0  0
 12 77  1  6  0  0  0
 13 14  1  0  0  0  0
 13 78  1  0  0  0  0
 13 79  1  0  0  0  0
 14 15  1  0  0  0  0
 14 80  1  1  0  0  0
 15 16  1  0  0  0  0
 16 17  2  0  0  0  0
 16 81  1  0  0  0  0
 19 18  1  0  0  0  0
 19 20  1  0  0  0  0
 19 24  1  0  0  0  0
 19 82  1  1  0  0  0
 20 21  1  0  0  0  0
 20 58  1  0  0  0  0
 20 83  1  6  0  0  0
 21 22  1  0  0  0  0
 22 23  1  0  0  0  0
 22 28  1  0  0  0  0
 22 84  1  6  0  0  0
 23 24  1  0  0  0  0
 23 85  1  0  0  0  0
 23 86  1  0  0  0  0
 24 25  1  0  0  0  0
 24 87  1  1  0  0  0
 25 26  1  0  0  0  0
 26 27  2  0  0  0  0
 26 88  1  0  0  0  0
 29 28  1  0  0  0  0
 29 30  1  0  0  0  0
 29 34  1  0  0  0  0
 29 89  1  6  0  0  0
 30 31  1  0  0  0  0
 30 90  1  0  0  0  0
 30 91  1  0  0  0  0
 31 32  1  0  0  0  0
 31 92  1  0  0  0  0
 31 93  1  0  0  0  0
 32 33  1  0  0  0  0
 32 38  1  0  0  0  0
 32 57  1  1  0  0  0
 33 34  1  0  0  0  0
 33 35  1  0  0  0  0
 33 94  1  1  0  0  0
 34 95  1  0  0  0  0
 34 96  1  0  0  0  0
 35 36  1  0  0  0  0
 35 97  1  0  0  0  0
 35 98  1  0  0  0  0
 36 99  1  0  0  0  0
 36100  1  0  0  0  0
 37 36  1  0  0  0  0
 37 38  1  0  0  0  0
 37 42  1  0  0  0  0
 37101  1  1  0  0  0
 38 39  1  0  0  0  0
 38102  1  6  0  0  0
 39 40  1  0  0  0  0
 39103  1  0  0  0  0
 39104  1  0  0  0  0
 40 41  1  0  0  0  0
 40105  1  0  0  0  0
 40106  1  0  0  0  0
 41 42  1  0  0  0  0
 41 45  1  0  0  0  0
 41 56  1  1  0  0  0
 42 43  1  0  0  0  0
 42 55  1  1  0  0  0
 43 44  1  0  0  0  0
 43107  1  0  0  0  0
 43108  1  0  0  0  0
 44 45  1  0  0  0  0
 44 52  1  0  0  0  0
 44109  1  6  0  0  0
 45 46  1  0  0  0  0
 45110  1  6  0  0  0
 46 47  2  0  0  0  0
 46 51  1  0  0  0  0
 47 48  1  0  0  0  0
 47111  1  0  0  0  0
 48 49  2  0  0  0  0
 48 50  1  0  0  0  0
 50 51  1  0  0  0  0
 51112  1  0  0  0  0
 51113  1  0  0  0  0
 52 53  1  0  0  0  0
 53 54  2  0  0  0  0
 53114  1  0  0  0  0
 55115  1  0  0  0  0
 56116  1  0  0  0  0
 56117  1  0  0  0  0
 56118  1  0  0  0  0
 57119  1  0  0  0  0
 57120  1  0  0  0  0
 57121  1  0  0  0  0
 58122  1  0  0  0  0
 58123  1  0  0  0  0
 58124  1  0  0  0  0
 59125  1  0  0  0  0
 59126  1  0  0  0  0
 59127  1  0  0  0  0
 60 61  1  0  0  0  0
 61 62  2  0  0  0  0
 61128  1  0  0  0  0
 63 64  1  0  0  0  0
 64 65  2  0  0  0  0
 64129  1  0  0  0  0
M  END
>  <DRUGBANK_ID>
DB13537

>  <COMMON_NAME>
Gitoformate

>  <CAS_NUMBER>
10176-39-3

>  <UNII>
B69U29O7J9

>  <SYNONYMS>
Gitoformate

$$$$
