
 OpenBabel10282417072D

 60 62  0  0  1  0  0  0  0  0999 V2000
    2.6552   -7.7058    0.0000 C   0  0  0  0  0  0  0  0  0  0  0  0
    2.3852   -6.9263    0.0000 C   0  0  2  0  0  0  0  0  0  0  0  0
    1.5751   -6.7704    0.0000 C   0  0  1  0  0  0  0  0  0  0  0  0
    1.0350   -7.3940    0.0000 C   0  0  0  0  0  0  0  0  0  0  0  0
    1.3050   -8.1736    0.0000 C   0  0  0  0  0  0  0  0  0  0  0  0
    0.7649   -8.7972    0.0000 C   0  0  0  0  0  0  0  0  0  0  0  0
   -0.0452   -8.6413    0.0000 C   0  0  0  0  0  0  0  0  0  0  0  0
   -0.3152   -7.8618    0.0000 C   0  0  0  0  0  0  0  0  0  0  0  0
    0.2248   -7.2381    0.0000 N   0  0  0  0  0  0  0  0  0  0  0  0
   -0.5853   -9.2650    0.0000 O   0  0  0  0  0  0  0  0  0  0  0  0
    1.3050   -5.9908    0.0000 O   0  0  0  0  0  0  0  0  0  0  0  0
    2.9253   -6.3027    0.0000 C   0  0  1  0  0  0  0  0  0  0  0  0
    3.7354   -6.4586    0.0000 C   0  0  0  0  0  0  0  0  0  0  0  0
    4.0055   -7.2381    0.0000 O   0  0  0  0  0  0  0  0  0  0  0  0
    4.2755   -5.8349    0.0000 N   0  0  0  0  0  0  0  0  0  0  0  0
    5.0856   -5.9908    0.0000 C   0  0  1  0  0  0  0  0  0  0  0  0
    5.6257   -5.3672    0.0000 C   0  0  2  0  0  0  0  0  0  0  0  0
    5.4387   -4.5637    0.0000 C   0  0  2  0  0  0  0  0  0  0  0  0
    6.1450   -4.1375    0.0000 C   0  0  2  0  0  0  0  0  0  0  0  0
    6.7687   -4.6776    0.0000 C   0  0  1  0  0  0  0  0  0  0  0  0
    6.4477   -5.4376    0.0000 O   0  0  0  0  0  0  0  0  0  0  0  0
    7.5722   -4.4905    0.0000 N   0  0  0  0  0  0  0  0  0  0  0  0
    7.8119   -3.7011    0.0000 C   0  0  0  0  0  0  0  0  0  0  0  0
    8.6154   -3.5140    0.0000 C   0  0  0  0  0  0  0  0  0  0  0  0
    9.1792   -4.1163    0.0000 C   0  0  0  0  0  0  0  0  0  0  0  0
    9.9827   -3.9292    0.0000 O   0  0  0  0  0  0  0  0  0  0  0  0
    8.9395   -4.9057    0.0000 N   0  0  0  0  0  0  0  0  0  0  0  0
    8.1359   -5.0928    0.0000 C   0  0  0  0  0  0  0  0  0  0  0  0
    7.8962   -5.8822    0.0000 O   0  0  0  0  0  0  0  0  0  0  0  0
    6.2154   -3.3155    0.0000 O   0  0  0  0  0  0  0  0  0  0  0  0
    4.6786   -4.2427    0.0000 O   0  0  0  0  0  0  0  0  0  0  0  0
    5.3557   -6.7704    0.0000 C   0  0  0  0  0  0  0  0  0  0  0  0
    6.1658   -6.9263    0.0000 O   0  0  0  0  0  0  0  0  0  0  0  0
    4.8156   -7.3940    0.0000 O   0  0  0  0  0  0  0  0  0  0  0  0
    2.6552   -5.5231    0.0000 N   0  0  0  0  0  0  0  0  0  0  0  0
    1.9547   -8.5146    0.0000 H   0  0  0  0  0  0  0  0  0  0  0  0
    3.7059   -7.9080    0.0000 H   0  0  0  0  0  0  0  0  0  0  0  0
    3.0054   -8.7169    0.0000 H   0  0  0  0  0  0  0  0  0  0  0  0
    1.6847   -7.7351    0.0000 H   0  0  0  0  0  0  0  0  0  0  0  0
    2.2756   -5.9615    0.0000 H   0  0  0  0  0  0  0  0  0  0  0  0
    2.3184   -8.3687    0.0000 H   0  0  0  0  0  0  0  0  0  0  0  0
    1.1027   -9.7724    0.0000 H   0  0  0  0  0  0  0  0  0  0  0  0
   -1.3286   -7.6668    0.0000 H   0  0  0  0  0  0  0  0  0  0  0  0
   -1.5054   -9.0880    0.0000 H   0  0  0  0  0  0  0  0  0  0  0  0
    1.9400   -5.2575    0.0000 H   0  0  0  0  0  0  0  0  0  0  0  0
    1.8746   -6.1005    0.0000 H   0  0  0  0  0  0  0  0  0  0  0  0
    3.9532   -4.9046    0.0000 H   0  0  0  0  0  0  0  0  0  0  0  0
    6.1363   -6.1930    0.0000 H   0  0  0  0  0  0  0  0  0  0  0  0
    4.5870   -5.1102    0.0000 H   0  0  0  0  0  0  0  0  0  0  0  0
    4.6203   -5.2530    0.0000 H   0  0  0  0  0  0  0  0  0  0  0  0
    5.2365   -3.5722    0.0000 H   0  0  0  0  0  0  0  0  0  0  0  0
    7.0256   -3.6389    0.0000 H   0  0  0  0  0  0  0  0  0  0  0  0
    7.1066   -2.9477    0.0000 H   0  0  0  0  0  0  0  0  0  0  0  0
    8.9153   -2.5265    0.0000 H   0  0  0  0  0  0  0  0  0  0  0  0
    9.6123   -5.6245    0.0000 H   0  0  0  0  0  0  0  0  0  0  0  0
    7.0938   -2.9040    0.0000 H   0  0  0  0  0  0  0  0  0  0  0  0
    4.5586   -3.2801    0.0000 H   0  0  0  0  0  0  0  0  0  0  0  0
    3.8955   -7.2169    0.0000 H   0  0  0  0  0  0  0  0  0  0  0  0
    3.3229   -4.7520    0.0000 H   0  0  0  0  0  0  0  0  0  0  0  0
    1.6536   -5.3304    0.0000 H   0  0  0  0  0  0  0  0  0  0  0  0
  1 36  1  0  0  0  0
  1 37  1  0  0  0  0
  1 38  1  0  0  0  0
  2  1  1  0  0  0  0
  2  3  1  0  0  0  0
  2 12  1  0  0  0  0
  2 39  1  1  0  0  0
  3  4  1  0  0  0  0
  3 11  1  0  0  0  0
  3 40  1  6  0  0  0
  4  5  2  0  0  0  0
  4  9  1  0  0  0  0
  5  6  1  0  0  0  0
  5 41  1  0  0  0  0
  6  7  2  0  0  0  0
  6 42  1  0  0  0  0
  7  8  1  0  0  0  0
  7 10  1  0  0  0  0
  8  9  2  0  0  0  0
  8 43  1  0  0  0  0
 10 44  1  0  0  0  0
 11 45  1  0  0  0  0
 12 13  1  0  0  0  0
 12 35  1  0  0  0  0
 12 46  1  1  0  0  0
 13 14  2  0  0  0  0
 13 15  1  0  0  0  0
 15 47  1  0  0  0  0
 16 15  1  0  0  0  0
 16 32  1  0  0  0  0
 16 48  1  6  0  0  0
 17 16  1  0  0  0  0
 17 18  1  0  0  0  0
 17 21  1  0  0  0  0
 17 49  1  1  0  0  0
 18 19  1  0  0  0  0
 18 31  1  0  0  0  0
 18 50  1  6  0  0  0
 19 20  1  0  0  0  0
 19 30  1  0  0  0  0
 19 51  1  6  0  0  0
 20 21  1  0  0  0  0
 20 22  1  0  0  0  0
 20 52  1  1  0  0  0
 22 23  1  0  0  0  0
 22 28  1  0  0  0  0
 23 24  2  0  0  0  0
 23 53  1  0  0  0  0
 24 25  1  0  0  0  0
 24 54  1  0  0  0  0
 25 26  2  0  0  0  0
 25 27  1  0  0  0  0
 27 28  1  0  0  0  0
 27 55  1  0  0  0  0
 28 29  2  0  0  0  0
 30 56  1  0  0  0  0
 31 57  1  0  0  0  0
 32 33  2  0  0  0  0
 32 34  1  0  0  0  0
 34 58  1  0  0  0  0
 35 59  1  0  0  0  0
 35 60  1  0  0  0  0
M  END
>  <DRUGBANK_ID>
DB12939

>  <COMMON_NAME>
Nikkomycin Z

>  <CAS_NUMBER>
59456-70-1

>  <UNII>
9Z22C3QQCJ

$$$$
