
 OpenBabel10282417072D

 23 23  0  0  0  0  0  0  0  0999 V2000
   -2.8576    0.3877    0.0000 O   0  0  0  0  0  0  0  0  0  0  0  0
   -0.0094    1.2456    0.0000 O   0  0  0  0  0  0  0  0  0  0  0  0
    2.8577    0.4536    0.0000 O   0  0  0  0  0  0  0  0  0  0  0  0
    2.1575   -0.7919    0.0000 O   0  0  0  0  0  0  0  0  0  0  0  0
    0.7191    0.0164    0.0000 N   0  0  0  0  0  0  0  0  0  0  0  0
   -0.7094    0.0000    0.0000 C   0  0  0  0  0  0  0  0  0  0  0  0
    0.0000    0.4206    0.0000 C   0  0  0  0  0  0  0  0  0  0  0  0
   -1.4287    0.4042    0.0000 C   0  0  0  0  0  0  0  0  0  0  0  0
   -0.6999   -0.8249    0.0000 C   0  0  0  0  0  0  0  0  0  0  0  0
    1.4288    0.4371    0.0000 C   0  0  0  0  0  0  0  0  0  0  0  0
   -2.1384   -0.0164    0.0000 C   0  0  0  0  0  0  0  0  0  0  0  0
   -1.4097   -1.2456    0.0000 C   0  0  0  0  0  0  0  0  0  0  0  0
   -2.1288   -0.8414    0.0000 C   0  0  0  0  0  0  0  0  0  0  0  0
    2.1480    0.0329    0.0000 C   0  0  0  0  0  0  0  0  0  0  0  0
   -2.8685    1.3246    0.0000 H   0  0  0  0  0  0  0  0  0  0  0  0
    3.6745   -0.0055    0.0000 H   0  0  0  0  0  0  0  0  0  0  0  0
    0.7304   -0.9680    0.0000 H   0  0  0  0  0  0  0  0  0  0  0  0
   -1.4406    1.4361    0.0000 H   0  0  0  0  0  0  0  0  0  0  0  0
    0.1997   -1.3306    0.0000 H   0  0  0  0  0  0  0  0  0  0  0  0
    1.4165    1.5070    0.0000 H   0  0  0  0  0  0  0  0  0  0  0  0
    2.3492    0.9828    0.0000 H   0  0  0  0  0  0  0  0  0  0  0  0
   -1.3979   -2.2775    0.0000 H   0  0  0  0  0  0  0  0  0  0  0  0
   -3.0165   -1.3677    0.0000 H   0  0  0  0  0  0  0  0  0  0  0  0
  1 11  1  0  0  0  0
  1 15  1  0  0  0  0
  2  7  2  0  0  0  0
  3 14  1  0  0  0  0
  3 16  1  0  0  0  0
  4 14  2  0  0  0  0
  5  7  1  0  0  0  0
  5 10  1  0  0  0  0
  5 17  1  0  0  0  0
  6  7  1  0  0  0  0
  6  8  2  0  0  0  0
  6  9  1  0  0  0  0
  8 11  1  0  0  0  0
  8 18  1  0  0  0  0
  9 12  2  0  0  0  0
  9 19  1  0  0  0  0
 10 14  1  0  0  0  0
 10 20  1  0  0  0  0
 10 21  1  0  0  0  0
 11 13  2  0  0  0  0
 12 13  1  0  0  0  0
 12 22  1  0  0  0  0
 13 23  1  0  0  0  0
M  END
>  <DRUGBANK_ID>
DB07069

>  <COMMON_NAME>
m-Hydroxyhippuric acid

>  <CAS_NUMBER>
1637-75-8

>  <UNII>
17HCX0HNRT

>  <SYNONYMS>
2-[(3-hydroxyphenyl)formamido]acetic acid; 3-hydroxyhippuric acid; N-m-Hydroxylbenzoylglycine

$$$$
