
 OpenBabel10282417072D

 91 95  0  0  0  0  0  0  0  0999 V2000
    1.4791   -3.8743    0.0000 C   0  0  0  0  0  0  0  0  0  0  0  0
    1.0666   -3.1599    0.0000 C   0  0  0  0  0  0  0  0  0  0  0  0
    0.2416   -3.1599    0.0000 N   0  0  0  0  0  0  0  0  0  0  0  0
   -0.1709   -3.8743    0.0000 C   0  0  0  0  0  0  0  0  0  0  0  0
   -0.9959   -3.8743    0.0000 C   0  0  0  0  0  0  0  0  0  0  0  0
    0.2416   -4.5888    0.0000 C   0  0  0  0  0  0  0  0  0  0  0  0
   -0.1709   -2.4454    0.0000 C   0  0  0  0  0  0  0  0  0  0  0  0
    0.2416   -1.7309    0.0000 O   0  0  0  0  0  0  0  0  0  0  0  0
   -0.9959   -2.4454    0.0000 C   0  0  0  0  0  0  0  0  0  0  0  0
   -1.4084   -3.1599    0.0000 C   0  0  0  0  0  0  0  0  0  0  0  0
   -2.2334   -3.1599    0.0000 C   0  0  0  0  0  0  0  0  0  0  0  0
   -2.6459   -3.8743    0.0000 F   0  0  0  0  0  0  0  0  0  0  0  0
   -2.6459   -2.4454    0.0000 C   0  0  0  0  0  0  0  0  0  0  0  0
   -2.2334   -1.7309    0.0000 C   0  0  0  0  0  0  0  0  0  0  0  0
   -1.4084   -1.7309    0.0000 C   0  0  0  0  0  0  0  0  0  0  0  0
   -0.9959   -1.0164    0.0000 O   0  0  0  0  0  0  0  0  0  0  0  0
   -1.4084   -0.3020    0.0000 C   0  0  0  0  0  0  0  0  0  0  0  0
   -2.2334   -0.3020    0.0000 C   0  0  0  0  0  0  0  0  0  0  0  0
   -2.6459    0.4125    0.0000 N   0  0  0  0  0  0  0  0  0  0  0  0
   -2.2334    1.1270    0.0000 C   0  0  0  0  0  0  0  0  0  0  0  0
   -1.4084    1.1270    0.0000 N   0  0  0  0  0  0  0  0  0  0  0  0
   -0.9959    0.4125    0.0000 C   0  0  0  0  0  0  0  0  0  0  0  0
   -0.1709    0.4125    0.0000 N   0  0  0  0  0  0  0  0  0  0  0  0
    0.4125    0.9959    0.0000 C   0  0  0  0  0  0  0  0  0  0  0  0
    0.9959    0.4125    0.0000 C   0  0  0  0  0  0  0  0  0  0  0  0
    0.4125   -0.1709    0.0000 C   0  0  0  0  0  0  0  0  0  0  0  0
    1.4084    1.1270    0.0000 C   0  0  0  0  0  0  0  0  0  0  0  0
    2.2334    1.1270    0.0000 C   0  0  0  0  0  0  0  0  0  0  0  0
    2.6459    0.4125    0.0000 N   0  0  0  0  0  0  0  0  0  0  0  0
    3.4709    0.4125    0.0000 C   0  0  0  0  0  0  0  0  0  0  0  0
    3.8834   -0.3020    0.0000 C   0  0  1  0  0  0  0  0  0  0  0  0
    4.7084   -0.3020    0.0000 C   0  0  0  0  0  0  0  0  0  0  0  0
    5.1209   -1.0164    0.0000 C   0  0  0  0  0  0  0  0  0  0  0  0
    4.7084   -1.7309    0.0000 C   0  0  1  0  0  0  0  0  0  0  0  0
    3.8834   -1.7309    0.0000 C   0  0  0  0  0  0  0  0  0  0  0  0
    3.4709   -1.0164    0.0000 C   0  0  0  0  0  0  0  0  0  0  0  0
    5.1209   -2.4454    0.0000 N   0  0  0  0  0  0  0  0  0  0  0  0
    5.9459   -2.4454    0.0000 S   0  0  0  0  0  0  0  0  0  0  0  0
    5.9459   -3.2704    0.0000 O   0  0  0  0  0  0  0  0  0  0  0  0
    5.9459   -1.6204    0.0000 O   0  0  0  0  0  0  0  0  0  0  0  0
    6.7709   -2.4454    0.0000 C   0  0  0  0  0  0  0  0  0  0  0  0
    7.1834   -1.7309    0.0000 C   0  0  0  0  0  0  0  0  0  0  0  0
    2.2334   -0.3020    0.0000 C   0  0  0  0  0  0  0  0  0  0  0  0
    1.4084   -0.3020    0.0000 C   0  0  0  0  0  0  0  0  0  0  0  0
    0.9441   -4.8010    0.0000 H   0  0  0  0  0  0  0  0  0  0  0  0
    2.5491   -3.8743    0.0000 H   0  0  0  0  0  0  0  0  0  0  0  0
    2.0141   -4.8009    0.0000 H   0  0  0  0  0  0  0  0  0  0  0  0
    1.6016   -2.2332    0.0000 H   0  0  0  0  0  0  0  0  0  0  0  0
    0.5316   -2.2333    0.0000 H   0  0  0  0  0  0  0  0  0  0  0  0
   -0.7059   -4.8009    0.0000 H   0  0  0  0  0  0  0  0  0  0  0  0
   -1.5309   -2.9477    0.0000 H   0  0  0  0  0  0  0  0  0  0  0  0
   -1.5309   -4.8009    0.0000 H   0  0  0  0  0  0  0  0  0  0  0  0
   -2.0659   -3.8743    0.0000 H   0  0  0  0  0  0  0  0  0  0  0  0
   -0.2934   -5.5154    0.0000 H   0  0  0  0  0  0  0  0  0  0  0  0
    1.3116   -4.5888    0.0000 H   0  0  0  0  0  0  0  0  0  0  0  0
    0.7766   -5.5155    0.0000 H   0  0  0  0  0  0  0  0  0  0  0  0
   -0.8924   -4.0536    0.0000 H   0  0  0  0  0  0  0  0  0  0  0  0
   -3.6779   -2.4454    0.0000 H   0  0  0  0  0  0  0  0  0  0  0  0
   -2.7494   -0.8372    0.0000 H   0  0  0  0  0  0  0  0  0  0  0  0
   -2.7494   -1.1957    0.0000 H   0  0  0  0  0  0  0  0  0  0  0  0
   -2.7494    2.0207    0.0000 H   0  0  0  0  0  0  0  0  0  0  0  0
    0.4125    2.0659    0.0000 H   0  0  0  0  0  0  0  0  0  0  0  0
    1.4011    1.4054    0.0000 H   0  0  0  0  0  0  0  0  0  0  0  0
    0.4125   -1.2409    0.0000 H   0  0  0  0  0  0  0  0  0  0  0  0
   -0.5761   -0.5804    0.0000 H   0  0  0  0  0  0  0  0  0  0  0  0
    0.8734    2.0536    0.0000 H   0  0  0  0  0  0  0  0  0  0  0  0
    1.9434    2.0536    0.0000 H   0  0  0  0  0  0  0  0  0  0  0  0
    2.7684    2.0536    0.0000 H   0  0  0  0  0  0  0  0  0  0  0  0
    3.3034    1.1270    0.0000 H   0  0  0  0  0  0  0  0  0  0  0  0
    4.0059    1.3391    0.0000 H   0  0  0  0  0  0  0  0  0  0  0  0
    4.5409    0.4125    0.0000 H   0  0  0  0  0  0  0  0  0  0  0  0
    4.4184    0.6246    0.0000 H   0  0  0  0  0  0  0  0  0  0  0  0
    5.2434    0.6247    0.0000 H   0  0  0  0  0  0  0  0  0  0  0  0
    5.7784   -0.3020    0.0000 H   0  0  0  0  0  0  0  0  0  0  0  0
    6.1909   -1.0164    0.0000 H   0  0  0  0  0  0  0  0  0  0  0  0
    5.6559   -1.9430    0.0000 H   0  0  0  0  0  0  0  0  0  0  0  0
    5.7784   -1.7309    0.0000 H   0  0  0  0  0  0  0  0  0  0  0  0
    3.3484   -2.6575    0.0000 H   0  0  0  0  0  0  0  0  0  0  0  0
    2.8134   -1.7309    0.0000 H   0  0  0  0  0  0  0  0  0  0  0  0
    2.4009   -1.0164    0.0000 H   0  0  0  0  0  0  0  0  0  0  0  0
    2.9359   -0.0897    0.0000 H   0  0  0  0  0  0  0  0  0  0  0  0
    4.6109   -3.3287    0.0000 H   0  0  0  0  0  0  0  0  0  0  0  0
    7.3059   -3.3720    0.0000 H   0  0  0  0  0  0  0  0  0  0  0  0
    7.8409   -2.4454    0.0000 H   0  0  0  0  0  0  0  0  0  0  0  0
    8.2534   -1.7309    0.0000 H   0  0  0  0  0  0  0  0  0  0  0  0
    6.6484   -0.8043    0.0000 H   0  0  0  0  0  0  0  0  0  0  0  0
    7.7184   -0.8042    0.0000 H   0  0  0  0  0  0  0  0  0  0  0  0
    2.7684   -1.2286    0.0000 H   0  0  0  0  0  0  0  0  0  0  0  0
    1.6984   -1.2286    0.0000 H   0  0  0  0  0  0  0  0  0  0  0  0
    0.8734   -1.2286    0.0000 H   0  0  0  0  0  0  0  0  0  0  0  0
    0.3384   -0.3020    0.0000 H   0  0  0  0  0  0  0  0  0  0  0  0
  1  2  1  0  0  0  0
  1 45  1  0  0  0  0
  1 46  1  0  0  0  0
  1 47  1  0  0  0  0
  2  3  1  0  0  0  0
  2 48  1  0  0  0  0
  2 49  1  0  0  0  0
  3  4  1  0  0  0  0
  3  7  1  0  0  0  0
  4  5  1  0  0  0  0
  4  6  1  0  0  0  0
  4 50  1  0  0  0  0
  5 51  1  0  0  0  0
  5 52  1  0  0  0  0
  5 53  1  0  0  0  0
  6 54  1  0  0  0  0
  6 55  1  0  0  0  0
  6 56  1  0  0  0  0
  7  8  2  0  0  0  0
  7  9  1  0  0  0  0
  9 10  2  0  0  0  0
  9 15  1  0  0  0  0
 10 11  1  0  0  0  0
 10 57  1  0  0  0  0
 11 12  1  0  0  0  0
 11 13  2  0  0  0  0
 13 14  1  0  0  0  0
 13 58  1  0  0  0  0
 14 15  2  0  0  0  0
 14 59  1  0  0  0  0
 15 16  1  0  0  0  0
 16 17  1  0  0  0  0
 17 18  2  0  0  0  0
 17 22  1  0  0  0  0
 18 19  1  0  0  0  0
 18 60  1  0  0  0  0
 19 20  2  0  0  0  0
 20 21  1  0  0  0  0
 20 61  1  0  0  0  0
 21 22  2  0  0  0  0
 22 23  1  0  0  0  0
 23 24  1  0  0  0  0
 23 26  1  0  0  0  0
 24 25  1  0  0  0  0
 24 62  1  0  0  0  0
 24 63  1  0  0  0  0
 25 26  1  0  0  0  0
 25 27  1  0  0  0  0
 25 44  1  0  0  0  0
 26 64  1  0  0  0  0
 26 65  1  0  0  0  0
 27 28  1  0  0  0  0
 27 66  1  0  0  0  0
 27 67  1  0  0  0  0
 28 29  1  0  0  0  0
 28 68  1  0  0  0  0
 28 69  1  0  0  0  0
 29 30  1  0  0  0  0
 29 43  1  0  0  0  0
 30 70  1  0  0  0  0
 30 71  1  0  0  0  0
 31 30  1  0  0  0  0
 31 32  1  0  0  0  0
 31 36  1  0  0  0  0
 31 72  1  6  0  0  0
 32 33  1  0  0  0  0
 32 73  1  0  0  0  0
 32 74  1  0  0  0  0
 33 75  1  0  0  0  0
 33 76  1  0  0  0  0
 34 33  1  0  0  0  0
 34 35  1  0  0  0  0
 34 37  1  0  0  0  0
 34 77  1  1  0  0  0
 35 36  1  0  0  0  0
 35 78  1  0  0  0  0
 35 79  1  0  0  0  0
 36 80  1  0  0  0  0
 36 81  1  0  0  0  0
 37 38  1  0  0  0  0
 37 82  1  0  0  0  0
 38 39  2  0  0  0  0
 38 40  2  0  0  0  0
 38 41  1  0  0  0  0
 41 42  1  0  0  0  0
 41 83  1  0  0  0  0
 41 84  1  0  0  0  0
 42 85  1  0  0  0  0
 42 86  1  0  0  0  0
 42 87  1  0  0  0  0
 43 44  1  0  0  0  0
 43 88  1  0  0  0  0
 43 89  1  0  0  0  0
 44 90  1  0  0  0  0
 44 91  1  0  0  0  0
M  END
>  <DRUGBANK_ID>
DB18515

>  <COMMON_NAME>
Revumenib

>  <CAS_NUMBER>
2169919-21-3

>  <UNII>
LZ0M43NNF2

>  <SYNONYMS>
Benzamide, n-ethyl-2-((4-(7-((trans-4-((ethylsulfonyl)amino)cyclohexyl)methyl)-2,7-diazaspiro(3.5)non-2-yl)-5-pyrimidinyl)oxy)-5-fluoro-n-(1-methylethyl)-

$$$$
